0
                    3D
 Structure written by MMmdl.
159168  0  0  1  0            999 V2000
  -30.5771  -14.7442   20.4714 C   0  0  0  0  0  0
  -30.4424  -12.4538   19.4710 C   0  0  0  0  0  0
  -29.5171  -12.5310   18.2346 C   0  0  0  0  0  0
  -28.0398  -12.3519   18.6405 C   0  0  0  0  0  0
  -27.6485  -13.2284   19.8598 C   0  0  2  0  0  0
  -28.6922  -13.1201   20.9946 C   0  0  0  0  0  0
  -25.2532  -13.8178   20.5687 C   0  0  0  0  0  0
  -24.1813  -13.0429   20.9194 C   0  0  0  0  0  0
  -24.6391  -11.6909   20.8732 C   0  0  0  0  0  0
  -23.9053  -10.4292   21.0399 C   0  0  0  0  0  0
  -24.3610   -9.4212   21.9175 C   0  0  0  0  0  0
  -23.6293   -8.2242   22.0743 C   0  0  0  0  0  0
  -22.4278   -8.0267   21.3534 C   0  0  0  0  0  0
  -21.9904   -9.0242   20.4642 C   0  0  0  0  0  0
  -22.7225  -10.2129   20.3048 C   0  0  0  0  0  0
  -21.6851   -6.0726   22.5279 C   0  0  0  0  0  0
  -21.4008   -6.5633   23.8210 C   0  0  0  0  0  0
  -21.3669   -5.6787   24.9175 C   0  0  0  0  0  0
  -21.6053   -4.3047   24.7224 C   0  0  0  0  0  0
  -21.8823   -3.8131   23.4343 C   0  0  0  0  0  0
  -21.9193   -4.6952   22.3399 C   0  0  0  0  0  0
  -22.7837  -13.5224   21.1867 C   0  0  0  0  0  0
  -22.1667   -4.2137   21.0979 F   0  0  0  0  0  0
  -21.5636   -3.4533   25.7734 F   0  0  0  0  0  0
  -29.9990  -13.4925   20.4304 N   0  0  0  0  0  0
  -26.2958  -12.9382   20.3287 N   0  0  0  0  0  0
  -25.9322  -11.6526   20.5727 N   0  0  0  0  0  0
  -22.0468  -12.8227   22.0426 N   0  0  0  0  0  0
  -25.4229  -15.1901   20.4123 N   0  0  0  0  0  0
  -31.7377  -14.8962   20.0717 O   0  0  0  0  0  0
  -21.6640   -6.8868   21.4241 O   0  0  0  0  0  0
  -22.3542  -14.5535   20.6711 O   0  0  0  0  0  0
  -24.6321  -31.8540   23.1970 C   0  0  0  0  0  0
  -25.9138  -32.4750   23.8328 C   0  0  1  0  0  0
  -27.2299  -27.2651   20.1200 C   0  0  0  0  0  0
  -25.5922  -33.8549   24.2246 N   0  0  0  0  0  0
  -23.4305  -30.4757   21.5399 C   0  0  2  0  0  0
  -24.8807  -28.9236   20.1040 C   0  0  0  0  0  0
  -22.7507  -29.4602   22.4905 C   0  0  0  0  0  0
  -18.0291  -28.1403   22.8494 C   0  0  0  0  0  0
  -24.1485  -36.7273   23.2643 C   0  0  0  0  0  0
  -25.9763  -30.7667   21.3781 C   0  0  0  0  0  0
  -26.0506  -29.3904   20.7172 C   0  0  0  0  0  0
  -27.2250  -28.5701   20.7214 C   0  0  0  0  0  0
  -26.0358  -26.8633   19.4816 C   0  0  0  0  0  0
  -24.8788  -27.6678   19.4752 C   0  0  0  0  0  0
  -23.6491  -29.8078   20.1561 C   0  0  0  0  0  0
  -25.4116  -36.3063   24.0332 C   0  0  1  0  0  0
  -20.5893  -28.3712   23.1278 C   0  0  2  0  0  0
  -20.6776  -26.9433   22.5413 C   0  0  0  0  0  0
  -19.5749  -26.6396   21.5220 C   0  0  0  0  0  0
  -18.1927  -26.7946   22.1631 C   0  0  0  0  0  0
  -19.1541  -28.8877   23.2878 C   0  0  0  0  0  0
  -18.9458  -30.1469   23.8903 C   0  0  0  0  0  0
  -17.6456  -30.6605   24.0564 C   0  0  0  0  0  0
  -25.9060  -34.9437   23.5092 C   0  0  0  0  0  0
  -16.5348  -29.9100   23.6338 C   0  0  0  0  0  0
  -16.7274  -28.6517   23.0371 C   0  0  0  0  0  0
  -26.4499  -31.6589   25.0733 C   0  0  0  0  0  0
  -25.3713  -31.3742   26.1444 C   0  0  0  0  0  0
  -27.0339  -30.3002   24.6235 C   0  0  0  0  0  0
  -27.6059  -32.4328   25.7500 C   0  0  0  0  0  0
  -27.5581  -37.1787   24.8461 C   0  0  0  0  0  0
  -21.4213  -29.3040   22.3650 N   0  0  0  0  0  0
  -26.4283  -37.3772   23.9419 N   0  0  0  0  0  0
  -24.6986  -31.0502   22.0947 N   0  0  0  0  0  0
  -23.4212  -28.8158   23.3017 O   0  0  0  0  0  0
  -28.2921  -26.3380   20.2464 O   0  0  0  0  0  0
  -26.5639  -34.8919   22.4667 O   0  0  0  0  0  0
  -23.5461  -32.1362   23.7258 O   0  0  0  0  0  0
  -29.0210  -18.0826   21.5532 C   0  0  0  0  0  0
  -28.8338  -19.4906   21.3325 C   0  0  0  0  0  0
  -29.3865  -20.0927   20.1599 C   0  0  0  0  0  0
  -29.7590  -17.2625   20.6437 C   0  0  0  0  0  0
  -28.7499  -23.9297   19.3506 C   0  0  0  0  0  0
  -28.4845  -25.3015   19.3036 C   0  0  0  0  0  0
  -29.9154  -23.1514   21.4879 C   0  0  0  0  0  0
  -29.0038  -23.2263   18.0318 C   0  0  0  0  0  0
  -29.1726  -21.7171   18.2832 C   0  0  0  0  0  0
  -28.8598  -22.7797   20.4312 C   0  0  2  0  0  0
  -29.5435  -24.2385   22.4848 C   0  0  0  0  0  0
  -30.1023  -19.2493   19.3385 N   0  0  0  0  0  0
  -30.2930  -17.9167   19.5660 N   0  0  0  0  0  0
  -29.1832  -21.4758   19.7212 N   0  0  0  0  0  0
  -28.0569  -20.2321   22.2324 N   0  0  0  0  0  0
  -29.7782  -15.7974   20.8815 N   0  0  0  0  0  0
  -31.0229  -22.6108   21.5636 O   0  0  0  0  0  0
  -31.4830  -12.5877   19.1703 H   0  0  0  0  0  0
  -30.3899  -11.4649   19.9269 H   0  0  0  0  0  0
  -29.8004  -11.7754   17.5005 H   0  0  0  0  0  0
  -29.6431  -13.4970   17.7434 H   0  0  0  0  0  0
  -27.8877  -11.2988   18.8778 H   0  0  0  0  0  0
  -27.3857  -12.5702   17.7953 H   0  0  0  0  0  0
  -27.6540  -14.2599   19.5058 H   0  0  0  0  0  0
  -28.7246  -12.1042   21.3910 H   0  0  0  0  0  0
  -28.4188  -13.7579   21.8360 H   0  0  0  0  0  0
  -25.2754   -9.5700   22.4754 H   0  0  0  0  0  0
  -24.0007   -7.4634   22.7460 H   0  0  0  0  0  0
  -21.0829   -8.8756   19.8949 H   0  0  0  0  0  0
  -22.3668  -10.9666   19.6158 H   0  0  0  0  0  0
  -21.1992   -7.6145   23.9716 H   0  0  0  0  0  0
  -21.1501   -6.0512   25.9087 H   0  0  0  0  0  0
  -22.0592   -2.7589   23.2836 H   0  0  0  0  0  0
  -22.4057  -11.9882   22.4821 H   0  0  0  0  0  0
  -21.1079  -13.1263   22.2602 H   0  0  0  0  0  0
  -24.6484  -15.8367   20.5143 H   0  0  0  0  0  0
  -26.2603  -15.6285   20.0508 H   0  0  0  0  0  0
  -26.7220  -32.5404   23.1079 H   0  0  0  0  0  0
  -25.0055  -33.9687   25.0382 H   0  0  0  0  0  0
  -22.7278  -31.2982   21.3934 H   0  0  0  0  0  0
  -23.3758  -35.9590   23.3281 H   0  0  0  0  0  0
  -24.3586  -36.8921   22.2064 H   0  0  0  0  0  0
  -23.7216  -37.6459   23.6682 H   0  0  0  0  0  0
  -26.1184  -31.5296   20.6113 H   0  0  0  0  0  0
  -26.8520  -30.8132   22.0140 H   0  0  0  0  0  0
  -28.1153  -28.9144   21.2290 H   0  0  0  0  0  0
  -25.9712  -25.8875   19.0213 H   0  0  0  0  0  0
  -23.9810  -27.3017   18.9960 H   0  0  0  0  0  0
  -23.7701  -30.5837   19.3996 H   0  0  0  0  0  0
  -22.7681  -29.2386   19.8525 H   0  0  0  0  0  0
  -25.1292  -36.1905   25.0819 H   0  0  0  0  0  0
  -20.9991  -28.3291   24.1400 H   0  0  0  0  0  0
  -20.5679  -26.2331   23.3619 H   0  0  0  0  0  0
  -21.6644  -26.7455   22.1208 H   0  0  0  0  0  0
  -19.6909  -25.6297   21.1267 H   0  0  0  0  0  0
  -19.6694  -27.3193   20.6741 H   0  0  0  0  0  0
  -17.4203  -26.6704   21.4021 H   0  0  0  0  0  0
  -18.0315  -26.0089   22.9023 H   0  0  0  0  0  0
  -19.7926  -30.7271   24.2297 H   0  0  0  0  0  0
  -17.5012  -31.6290   24.5151 H   0  0  0  0  0  0
  -15.5346  -30.3002   23.7662 H   0  0  0  0  0  0
  -15.8679  -28.0827   22.7102 H   0  0  0  0  0  0
  -24.5882  -30.7108   25.7751 H   0  0  0  0  0  0
  -24.8911  -32.2910   26.4872 H   0  0  0  0  0  0
  -25.8010  -30.8901   27.0223 H   0  0  0  0  0  0
  -26.2922  -29.6759   24.1241 H   0  0  0  0  0  0
  -27.3979  -29.7263   25.4766 H   0  0  0  0  0  0
  -27.8827  -30.4258   23.9514 H   0  0  0  0  0  0
  -27.2681  -33.3635   26.2068 H   0  0  0  0  0  0
  -28.3878  -32.6873   25.0333 H   0  0  0  0  0  0
  -28.0730  -31.8463   26.5422 H   0  0  0  0  0  0
  -28.2575  -38.0105   24.7538 H   0  0  0  0  0  0
  -28.1094  -36.2637   24.6236 H   0  0  0  0  0  0
  -27.2313  -37.1385   25.8866 H   0  0  0  0  0  0
  -20.9412  -29.8752   21.6838 H   0  0  0  0  0  0
  -26.0153  -38.2842   24.1425 H   0  0  0  0  0  0
  -28.5675  -17.6173   22.4150 H   0  0  0  0  0  0
  -28.4837  -25.7586   18.3233 H   0  0  0  0  0  0
  -29.9154  -23.6329   17.5915 H   0  0  0  0  0  0
  -28.1918  -23.4209   17.3292 H   0  0  0  0  0  0
  -30.0891  -21.3617   17.8092 H   0  0  0  0  0  0
  -28.3434  -21.1662   17.8351 H   0  0  0  0  0  0
  -27.8874  -22.6815   20.9140 H   0  0  0  0  0  0
  -28.4622  -24.2841   22.6128 H   0  0  0  0  0  0
  -29.8914  -25.2086   22.1309 H   0  0  0  0  0  0
  -29.9988  -24.0374   23.4538 H   0  0  0  0  0  0
  -27.4382  -19.7203   22.8509 H   0  0  0  0  0  0
  -27.6173  -21.0598   21.8479 H   0  0  0  0  0  0
  -28.9590  -15.4695   21.3671 H   0  0  0  0  0  0
  1 25  1  0  0  0
  1 30  2  0  0  0
  1 86  1  0  0  0
  2  3  1  0  0  0
  2 25  1  0  0  0
  2 88  1  0  0  0
  2 89  1  0  0  0
  3  4  1  0  0  0
  3 90  1  0  0  0
  3 91  1  0  0  0
  4  5  1  0  0  0
  4 92  1  0  0  0
  4 93  1  0  0  0
  5  6  1  0  0  0
  5 26  1  0  0  0
  5 94  1  0  0  0
  6 25  1  0  0  0
  6 95  1  0  0  0
  6 96  1  0  0  0
  7  8  2  0  0  0
  7 26  1  0  0  0
  7 29  1  0  0  0
  8  9  1  0  0  0
  8 22  1  0  0  0
  9 10  1  0  0  0
  9 27  2  0  0  0
 10 11  2  0  0  0
 10 15  1  0  0  0
 11 12  1  0  0  0
 11 97  1  0  0  0
 12 13  2  0  0  0
 12 98  1  0  0  0
 13 14  1  0  0  0
 13 31  1  0  0  0
 14 15  2  0  0  0
 14 99  1  0  0  0
 15100  1  0  0  0
 16 17  2  0  0  0
 16 21  1  0  0  0
 16 31  1  0  0  0
 17 18  1  0  0  0
 17101  1  0  0  0
 18 19  2  0  0  0
 18102  1  0  0  0
 19 20  1  0  0  0
 19 24  1  0  0  0
 20 21  2  0  0  0
 20103  1  0  0  0
 21 23  1  0  0  0
 22 28  1  0  0  0
 22 32  2  0  0  0
 26 27  1  0  0  0
 28104  1  0  0  0
 28105  1  0  0  0
 29106  1  0  0  0
 29107  1  0  0  0
 33 34  1  0  0  0
 33 66  1  0  0  0
 33 70  2  0  0  0
 34 36  1  0  0  0
 34 59  1  0  0  0
 34108  1  0  0  0
 35 44  2  0  0  0
 35 45  1  0  0  0
 35 68  1  0  0  0
 36 56  1  0  0  0
 36109  1  0  0  0
 37 39  1  0  0  0
 37 47  1  0  0  0
 37 66  1  0  0  0
 37110  1  0  0  0
 38 43  2  0  0  0
 38 46  1  0  0  0
 38 47  1  0  0  0
 39 64  1  0  0  0
 39 67  2  0  0  0
 40 52  1  0  0  0
 40 53  2  0  0  0
 40 58  1  0  0  0
 41111  1  0  0  0
 41112  1  0  0  0
 41113  1  0  0  0
 41 48  1  0  0  0
 42 43  1  0  0  0
 42 66  1  0  0  0
 42114  1  0  0  0
 42115  1  0  0  0
 43 44  1  0  0  0
 44116  1  0  0  0
 45 46  2  0  0  0
 45117  1  0  0  0
 46118  1  0  0  0
 47119  1  0  0  0
 47120  1  0  0  0
 48 56  1  0  0  0
 48 65  1  0  0  0
 48121  1  0  0  0
 49 50  1  0  0  0
 49 53  1  0  0  0
 49 64  1  0  0  0
 49122  1  0  0  0
 50 51  1  0  0  0
 50123  1  0  0  0
 50124  1  0  0  0
 51 52  1  0  0  0
 51125  1  0  0  0
 51126  1  0  0  0
 52127  1  0  0  0
 52128  1  0  0  0
 53 54  1  0  0  0
 54 55  2  0  0  0
 54129  1  0  0  0
 55 57  1  0  0  0
 55130  1  0  0  0
 56 69  2  0  0  0
 57 58  2  0  0  0
 57131  1  0  0  0
 58132  1  0  0  0
 59 60  1  0  0  0
 59 61  1  0  0  0
 59 62  1  0  0  0
 60133  1  0  0  0
 60134  1  0  0  0
 60135  1  0  0  0
 61136  1  0  0  0
 61137  1  0  0  0
 61138  1  0  0  0
 62139  1  0  0  0
 62140  1  0  0  0
 62141  1  0  0  0
 63 65  1  0  0  0
 63142  1  0  0  0
 63143  1  0  0  0
 63144  1  0  0  0
 64145  1  0  0  0
 65146  1  0  0  0
 68 76  1  0  0  0
 71 72  2  0  0  0
 71 74  1  0  0  0
 71147  1  0  0  0
 72 73  1  0  0  0
 72 85  1  0  0  0
 73 82  2  0  0  0
 73 84  1  0  0  0
 74 83  2  0  0  0
 74 86  1  0  0  0
 75 76  2  0  0  0
 75 78  1  0  0  0
 75 80  1  0  0  0
 76148  1  0  0  0
 77 81  1  0  0  0
 77 87  2  0  0  0
 77 80  1  0  0  0
 78 79  1  0  0  0
 78149  1  0  0  0
 78150  1  0  0  0
 79 84  1  0  0  0
 79151  1  0  0  0
 79152  1  0  0  0
 80 84  1  0  0  0
 80153  1  0  0  0
 81154  1  0  0  0
 81155  1  0  0  0
 81156  1  0  0  0
 82 83  1  0  0  0
 85157  1  0  0  0
 85158  1  0  0  0
 86159  1  0  0  0
M  ISO  4   1 100  68 101  76 101  86 100
M  END
> <chiral flag>
0

> <version>
0

> <s_m_source_file>
/data/baiqing/PycharmProjects/Reinvent-master-3.2/result/LINK_invent/BTK/process_docking_weight1_custom_product_contain_oxygen_bond_distance_aromatic_linkinvent_7_9_3/rearranged_h_0106.sdf

> <i_m_source_file_index>
1

> <r_mmod_Potential_Energy-OPLS-2005>
204.830001831055

> <r_mmod_Stretch_Energy-OPLS-2005>
113.575660705566

> <r_mmod_Bend_Energy-OPLS-2005>
251.64892578125

> <r_mmod_Torsional_Energy-OPLS-2005>
235.092147827148

> <r_mmod_Improper_Torsional_Energy-OPLS-2005>
8.18711185455322

> <r_mmod_Van_der_Waal_Energy-OPLS-2005>
133.882888793945

> <r_mmod_Electrostatic_Energy-OPLS-2005>
-351.198883056641

> <r_mmod_Solvation_Energy-OPLS-2005>
-275.323120117188

> <b_mmod_Minimization_Converged-OPLS-2005>
0

> <r_mmod_RMS_Derivative-OPLS-2005>
1.7464907169342

$$$$
1
                    3D
 Structure written by MMmdl.
157165  0  0  1  0            999 V2000
  -30.7664  -14.3900   20.6704 C   0  0  0  0  0  0
  -30.4143  -12.2992   19.4130 C   0  0  0  0  0  0
  -29.4904  -12.5293   18.2019 C   0  0  0  0  0  0
  -28.0118  -12.3859   18.6081 C   0  0  0  0  0  0
  -27.6630  -13.2052   19.8781 C   0  0  2  0  0  0
  -28.6945  -12.9524   20.9976 C   0  0  0  0  0  0
  -25.2590  -13.8161   20.5679 C   0  0  0  0  0  0
  -24.1832  -13.0452   20.9156 C   0  0  0  0  0  0
  -24.6375  -11.6912   20.8703 C   0  0  0  0  0  0
  -23.9041  -10.4301   21.0385 C   0  0  0  0  0  0
  -24.3599   -9.4222   21.9169 C   0  0  0  0  0  0
  -23.6283   -8.2255   22.0753 C   0  0  0  0  0  0
  -22.4263   -8.0279   21.3542 C   0  0  0  0  0  0
  -21.9886   -9.0253   20.4646 C   0  0  0  0  0  0
  -22.7207  -10.2135   20.3047 C   0  0  0  0  0  0
  -21.6857   -6.0723   22.5274 C   0  0  0  0  0  0
  -21.4018   -6.5633   23.8202 C   0  0  0  0  0  0
  -21.3660   -5.6789   24.9168 C   0  0  0  0  0  0
  -21.6044   -4.3051   24.7224 C   0  0  0  0  0  0
  -21.8819   -3.8138   23.4348 C   0  0  0  0  0  0
  -21.9198   -4.6953   22.3399 C   0  0  0  0  0  0
  -22.7853  -13.5253   21.1837 C   0  0  0  0  0  0
  -22.1666   -4.2140   21.0977 F   0  0  0  0  0  0
  -21.5631   -3.4534   25.7737 F   0  0  0  0  0  0
  -30.0373  -13.2552   20.4677 N   0  0  0  0  0  0
  -26.3020  -12.9334   20.3342 N   0  0  0  0  0  0
  -25.9299  -11.6493   20.5710 N   0  0  0  0  0  0
  -22.0489  -12.8263   22.0400 N   0  0  0  0  0  0
  -25.4330  -15.1882   20.4140 N   0  0  0  0  0  0
  -31.8145  -14.6307   20.0584 O   0  0  0  0  0  0
  -21.6642   -6.8865   21.4231 O   0  0  0  0  0  0
  -22.3537  -14.5561   20.6688 O   0  0  0  0  0  0
  -24.6129  -31.8697   23.2094 C   0  0  0  0  0  0
  -25.9043  -32.4824   23.8375 C   0  0  1  0  0  0
  -27.2394  -27.4501   20.0894 C   0  0  0  0  0  0
  -25.5909  -33.8618   24.2327 N   0  0  0  0  0  0
  -23.3988  -30.4936   21.5501 C   0  0  2  0  0  0
  -24.8436  -28.9589   20.1161 C   0  0  0  0  0  0
  -22.7386  -29.4678   22.4990 C   0  0  0  0  0  0
  -18.0280  -28.1382   22.8489 C   0  0  0  0  0  0
  -24.1498  -36.7310   23.2630 C   0  0  0  0  0  0
  -25.9239  -30.8399   21.3578 C   0  0  0  0  0  0
  -26.0009  -29.4725   20.7122 C   0  0  0  0  0  0
  -27.1964  -28.7226   20.7021 C   0  0  0  0  0  0
  -26.0553  -26.9405   19.5032 C   0  0  0  0  0  0
  -24.8640  -27.6898   19.5136 C   0  0  0  0  0  0
  -23.6058  -29.8241   20.1647 C   0  0  0  0  0  0
  -25.4114  -36.3104   24.0332 C   0  0  1  0  0  0
  -20.5864  -28.3672   23.1315 C   0  0  2  0  0  0
  -20.6777  -26.9419   22.5379 C   0  0  0  0  0  0
  -19.5756  -26.6442   21.5167 C   0  0  0  0  0  0
  -18.1936  -26.7945   22.1589 C   0  0  0  0  0  0
  -19.1526  -28.8836   23.2913 C   0  0  0  0  0  0
  -18.9457  -30.1433   23.8943 C   0  0  0  0  0  0
  -17.6463  -30.6579   24.0581 C   0  0  0  0  0  0
  -25.9040  -34.9474   23.5128 C   0  0  0  0  0  0
  -16.5356  -29.9088   23.6322 C   0  0  0  0  0  0
  -16.7274  -28.6509   23.0333 C   0  0  0  0  0  0
  -26.4484  -31.6585   25.0687 C   0  0  0  0  0  0
  -25.3753  -31.3690   26.1438 C   0  0  0  0  0  0
  -27.0308  -30.3031   24.6033 C   0  0  0  0  0  0
  -27.6072  -32.4287   25.7456 C   0  0  0  0  0  0
  -27.5585  -37.1814   24.8467 C   0  0  0  0  0  0
  -21.4114  -29.3058   22.3733 N   0  0  0  0  0  0
  -26.4298  -37.3786   23.9406 N   0  0  0  0  0  0
  -24.6636  -31.0819   22.0979 N   0  0  0  0  0  0
  -23.4167  -28.8200   23.3010 O   0  0  0  0  0  0
  -28.4432  -26.7733   20.0902 O   0  0  0  0  0  0
  -26.5586  -34.8924   22.4682 O   0  0  0  0  0  0
  -23.5335  -32.1449   23.7509 O   0  0  0  0  0  0
  -30.2162  -17.2724   20.0729 C   0  0  0  0  0  0
  -29.8216  -18.5500   19.6399 C   0  0  0  0  0  0
  -28.5117  -18.8203   21.6554 C   0  0  0  0  0  0
  -29.7793  -16.7156   21.3049 C   0  0  0  0  0  0
  -28.9835  -19.3503   20.4329 C   0  0  0  0  0  0
  -28.8880  -17.5239   22.0876 C   0  0  0  0  0  0
  -30.2885  -15.3554   21.7530 C   0  0  0  0  0  0
  -28.2104  -21.7471   20.5280 C   0  0  0  0  0  0
  -28.1288  -22.9878   19.6254 C   0  0  0  0  0  0
  -28.1243  -24.3432   20.3641 C   0  0  0  0  0  0
  -28.5547  -25.5045   19.4440 C   0  0  0  0  0  0
  -30.3511  -15.0159   22.9757 N   0  0  0  0  0  0
  -28.3345  -17.0984   23.3029 N   0  0  0  0  0  0
  -28.6564  -20.6372   19.9151 N   0  0  0  0  0  0
  -27.8850  -21.8095   21.7161 O   0  0  0  0  0  0
  -31.4602  -12.3908   19.1135 H   0  0  0  0  0  0
  -30.3090  -11.2792   19.7861 H   0  0  0  0  0  0
  -29.7322  -11.8208   17.4087 H   0  0  0  0  0  0
  -29.6644  -13.5249   17.7885 H   0  0  0  0  0  0
  -27.8169  -11.3269   18.7819 H   0  0  0  0  0  0
  -27.3660  -12.6833   17.7812 H   0  0  0  0  0  0
  -27.7197  -14.2600   19.6078 H   0  0  0  0  0  0
  -28.6607  -11.9092   21.3157 H   0  0  0  0  0  0
  -28.4251  -13.5256   21.8838 H   0  0  0  0  0  0
  -25.2745   -9.5711   22.4737 H   0  0  0  0  0  0
  -24.0002   -7.4648   22.7470 H   0  0  0  0  0  0
  -21.0820   -8.8758   19.8954 H   0  0  0  0  0  0
  -22.3651  -10.9670   19.6158 H   0  0  0  0  0  0
  -21.2008   -7.6141   23.9705 H   0  0  0  0  0  0
  -21.1483   -6.0518   25.9070 H   0  0  0  0  0  0
  -22.0598   -2.7601   23.2848 H   0  0  0  0  0  0
  -22.4111  -11.9946   22.4825 H   0  0  0  0  0  0
  -21.1100  -13.1288   22.2598 H   0  0  0  0  0  0
  -24.6721  -15.8465   20.5376 H   0  0  0  0  0  0
  -26.2998  -15.6318   20.1395 H   0  0  0  0  0  0
  -26.7109  -32.5562   23.1134 H   0  0  0  0  0  0
  -25.0093  -33.9781   25.0497 H   0  0  0  0  0  0
  -22.6874  -31.3097   21.4112 H   0  0  0  0  0  0
  -23.3747  -35.9658   23.3305 H   0  0  0  0  0  0
  -24.3594  -36.8908   22.2042 H   0  0  0  0  0  0
  -23.7272  -37.6528   23.6638 H   0  0  0  0  0  0
  -26.0316  -31.6029   20.5855 H   0  0  0  0  0  0
  -26.8116  -30.8991   21.9740 H   0  0  0  0  0  0
  -28.0900  -29.1214   21.1621 H   0  0  0  0  0  0
  -26.0270  -25.9665   19.0376 H   0  0  0  0  0  0
  -23.9707  -27.2868   19.0561 H   0  0  0  0  0  0
  -23.7099  -30.5961   19.4009 H   0  0  0  0  0  0
  -22.7310  -29.2397   19.8742 H   0  0  0  0  0  0
  -25.1301  -36.1952   25.0822 H   0  0  0  0  0  0
  -20.9974  -28.3210   24.1429 H   0  0  0  0  0  0
  -20.5704  -26.2269   23.3553 H   0  0  0  0  0  0
  -21.6647  -26.7496   22.1150 H   0  0  0  0  0  0
  -19.6920  -25.6392   21.1103 H   0  0  0  0  0  0
  -19.6689  -27.3327   20.6757 H   0  0  0  0  0  0
  -17.4202  -26.6713   21.3987 H   0  0  0  0  0  0
  -18.0341  -26.0072   22.8973 H   0  0  0  0  0  0
  -19.7934  -30.7227   24.2339 H   0  0  0  0  0  0
  -17.5023  -31.6254   24.5195 H   0  0  0  0  0  0
  -15.5354  -30.3000   23.7632 H   0  0  0  0  0  0
  -15.8677  -28.0838   22.7021 H   0  0  0  0  0  0
  -24.5923  -30.7042   25.7767 H   0  0  0  0  0  0
  -24.8943  -32.2850   26.4882 H   0  0  0  0  0  0
  -25.8098  -30.8854   27.0193 H   0  0  0  0  0  0
  -26.2831  -29.6780   24.1125 H   0  0  0  0  0  0
  -27.4144  -29.7278   25.4469 H   0  0  0  0  0  0
  -27.8644  -30.4360   23.9126 H   0  0  0  0  0  0
  -27.2698  -33.3568   26.2081 H   0  0  0  0  0  0
  -28.3859  -32.6861   25.0265 H   0  0  0  0  0  0
  -28.0758  -31.8364   26.5327 H   0  0  0  0  0  0
  -28.2618  -38.0098   24.7507 H   0  0  0  0  0  0
  -28.1066  -36.2632   24.6302 H   0  0  0  0  0  0
  -27.2307  -37.1480   25.8872 H   0  0  0  0  0  0
  -20.9240  -29.8847   21.7036 H   0  0  0  0  0  0
  -26.0186  -38.2871   24.1371 H   0  0  0  0  0  0
  -30.8891  -16.7428   19.4186 H   0  0  0  0  0  0
  -30.1924  -18.9175   18.6925 H   0  0  0  0  0  0
  -27.8421  -19.4047   22.2701 H   0  0  0  0  0  0
  -27.2430  -22.9174   18.9934 H   0  0  0  0  0  0
  -28.9883  -22.9560   18.9533 H   0  0  0  0  0  0
  -28.7969  -24.3092   21.2224 H   0  0  0  0  0  0
  -27.1258  -24.5245   20.7627 H   0  0  0  0  0  0
  -29.6072  -25.3715   19.1904 H   0  0  0  0  0  0
  -28.0357  -25.4873   18.4849 H   0  0  0  0  0  0
  -30.0103  -15.7887   23.5417 H   0  0  0  0  0  0
  -27.5445  -17.6231   23.6641 H   0  0  0  0  0  0
  -28.2134  -16.1004   23.4462 H   0  0  0  0  0  0
  -28.8822  -20.7739   18.9397 H   0  0  0  0  0  0
  1 25  1  0  0  0
  1 30  2  0  0  0
  1 77  1  0  0  0
  2  3  1  0  0  0
  2 25  1  0  0  0
  2 86  1  0  0  0
  2 87  1  0  0  0
  3  4  1  0  0  0
  3 88  1  0  0  0
  3 89  1  0  0  0
  4  5  1  0  0  0
  4 90  1  0  0  0
  4 91  1  0  0  0
  5  6  1  0  0  0
  5 26  1  0  0  0
  5 92  1  0  0  0
  6 25  1  0  0  0
  6 93  1  0  0  0
  6 94  1  0  0  0
  7  8  2  0  0  0
  7 26  1  0  0  0
  7 29  1  0  0  0
  8  9  1  0  0  0
  8 22  1  0  0  0
  9 10  1  0  0  0
  9 27  2  0  0  0
 10 11  2  0  0  0
 10 15  1  0  0  0
 11 12  1  0  0  0
 11 95  1  0  0  0
 12 13  2  0  0  0
 12 96  1  0  0  0
 13 14  1  0  0  0
 13 31  1  0  0  0
 14 15  2  0  0  0
 14 97  1  0  0  0
 15 98  1  0  0  0
 16 17  2  0  0  0
 16 21  1  0  0  0
 16 31  1  0  0  0
 17 18  1  0  0  0
 17 99  1  0  0  0
 18 19  2  0  0  0
 18100  1  0  0  0
 19 20  1  0  0  0
 19 24  1  0  0  0
 20 21  2  0  0  0
 20101  1  0  0  0
 21 23  1  0  0  0
 22 28  1  0  0  0
 22 32  2  0  0  0
 26 27  1  0  0  0
 28102  1  0  0  0
 28103  1  0  0  0
 29104  1  0  0  0
 29105  1  0  0  0
 33 34  1  0  0  0
 33 66  1  0  0  0
 33 70  2  0  0  0
 34 36  1  0  0  0
 34 59  1  0  0  0
 34106  1  0  0  0
 35 44  2  0  0  0
 35 45  1  0  0  0
 35 68  1  0  0  0
 36 56  1  0  0  0
 36107  1  0  0  0
 37 39  1  0  0  0
 37 47  1  0  0  0
 37 66  1  0  0  0
 37108  1  0  0  0
 38 43  2  0  0  0
 38 46  1  0  0  0
 38 47  1  0  0  0
 39 64  1  0  0  0
 39 67  2  0  0  0
 40 52  1  0  0  0
 40 53  2  0  0  0
 40 58  1  0  0  0
 41109  1  0  0  0
 41110  1  0  0  0
 41111  1  0  0  0
 41 48  1  0  0  0
 42 43  1  0  0  0
 42 66  1  0  0  0
 42112  1  0  0  0
 42113  1  0  0  0
 43 44  1  0  0  0
 44114  1  0  0  0
 45 46  2  0  0  0
 45115  1  0  0  0
 46116  1  0  0  0
 47117  1  0  0  0
 47118  1  0  0  0
 48 56  1  0  0  0
 48 65  1  0  0  0
 48119  1  0  0  0
 49 50  1  0  0  0
 49 53  1  0  0  0
 49 64  1  0  0  0
 49120  1  0  0  0
 50 51  1  0  0  0
 50121  1  0  0  0
 50122  1  0  0  0
 51 52  1  0  0  0
 51123  1  0  0  0
 51124  1  0  0  0
 52125  1  0  0  0
 52126  1  0  0  0
 53 54  1  0  0  0
 54 55  2  0  0  0
 54127  1  0  0  0
 55 57  1  0  0  0
 55128  1  0  0  0
 56 69  2  0  0  0
 57 58  2  0  0  0
 57129  1  0  0  0
 58130  1  0  0  0
 59 60  1  0  0  0
 59 61  1  0  0  0
 59 62  1  0  0  0
 60131  1  0  0  0
 60132  1  0  0  0
 60133  1  0  0  0
 61134  1  0  0  0
 61135  1  0  0  0
 61136  1  0  0  0
 62137  1  0  0  0
 62138  1  0  0  0
 62139  1  0  0  0
 63 65  1  0  0  0
 63140  1  0  0  0
 63141  1  0  0  0
 63142  1  0  0  0
 64143  1  0  0  0
 65144  1  0  0  0
 68 81  1  0  0  0
 71 72  2  0  0  0
 71 74  1  0  0  0
 71145  1  0  0  0
 72 75  1  0  0  0
 72146  1  0  0  0
 73 75  2  0  0  0
 73 76  1  0  0  0
 73147  1  0  0  0
 74 76  2  0  0  0
 74 77  1  0  0  0
 75 84  1  0  0  0
 76 83  1  0  0  0
 77 82  2  0  0  0
 78 79  1  0  0  0
 78 84  1  0  0  0
 78 85  2  0  0  0
 79 80  1  0  0  0
 79148  1  0  0  0
 79149  1  0  0  0
 80 81  1  0  0  0
 80150  1  0  0  0
 80151  1  0  0  0
 81152  1  0  0  0
 81153  1  0  0  0
 82154  1  0  0  0
 83155  1  0  0  0
 83156  1  0  0  0
 84157  1  0  0  0
M  ISO  4   1 100  68 101  77 100  81 101
M  END
> <chiral flag>
0

> <version>
0

> <s_m_source_file>
/data/baiqing/PycharmProjects/Reinvent-master-3.2/result/LINK_invent/BTK/process_docking_weight1_custom_product_contain_oxygen_bond_distance_aromatic_linkinvent_7_9_3/rearranged_h_0106.sdf

> <i_m_source_file_index>
2

> <r_mmod_Potential_Energy-OPLS-2005>
110.490615844727

> <r_mmod_Stretch_Energy-OPLS-2005>
42.5266418457031

> <r_mmod_Bend_Energy-OPLS-2005>
120.640724182129

> <r_mmod_Torsional_Energy-OPLS-2005>
213.452407836914

> <r_mmod_Improper_Torsional_Energy-OPLS-2005>
5.87483882904053

> <r_mmod_Van_der_Waal_Energy-OPLS-2005>
171.937347412109

> <r_mmod_Electrostatic_Energy-OPLS-2005>
-223.964965820312

> <r_mmod_Solvation_Energy-OPLS-2005>
-228.319900512695

> <b_mmod_Minimization_Converged-OPLS-2005>
0

> <r_mmod_RMS_Derivative-OPLS-2005>
1.79764270782471

$$$$
2
                    3D
 Structure written by MMmdl.
162171  0  0  1  0            999 V2000
  -30.6579  -14.7270   20.4543 C   0  0  0  0  0  0
  -30.4211  -12.4427   19.4779 C   0  0  0  0  0  0
  -29.5042  -12.5057   18.2381 C   0  0  0  0  0  0
  -28.0309  -12.3395   18.6538 C   0  0  0  0  0  0
  -27.6401  -13.2433   19.8553 C   0  0  2  0  0  0
  -28.6886  -13.1911   20.9890 C   0  0  0  0  0  0
  -25.2457  -13.8189   20.5723 C   0  0  0  0  0  0
  -24.1757  -13.0401   20.9149 C   0  0  0  0  0  0
  -24.6395  -11.6902   20.8725 C   0  0  0  0  0  0
  -23.9085  -10.4275   21.0388 C   0  0  0  0  0  0
  -24.3628   -9.4194   21.9174 C   0  0  0  0  0  0
  -23.6295   -8.2237   22.0753 C   0  0  0  0  0  0
  -22.4276   -8.0275   21.3547 C   0  0  0  0  0  0
  -21.9916   -9.0244   20.4642 C   0  0  0  0  0  0
  -22.7253  -10.2116   20.3043 C   0  0  0  0  0  0
  -21.6851   -6.0736   22.5278 C   0  0  0  0  0  0
  -21.4016   -6.5641   23.8211 C   0  0  0  0  0  0
  -21.3657   -5.6795   24.9174 C   0  0  0  0  0  0
  -21.6042   -4.3056   24.7225 C   0  0  0  0  0  0
  -21.8819   -3.8148   23.4345 C   0  0  0  0  0  0
  -21.9192   -4.6965   22.3403 C   0  0  0  0  0  0
  -22.7780  -13.5175   21.1832 C   0  0  0  0  0  0
  -22.1660   -4.2151   21.0979 F   0  0  0  0  0  0
  -21.5626   -3.4540   25.7738 F   0  0  0  0  0  0
  -29.9931  -13.5211   20.4011 N   0  0  0  0  0  0
  -26.2943  -12.9454   20.3367 N   0  0  0  0  0  0
  -25.9349  -11.6571   20.5797 N   0  0  0  0  0  0
  -22.0453  -12.8163   22.0408 N   0  0  0  0  0  0
  -25.4025  -15.1921   20.4279 N   0  0  0  0  0  0
  -31.8461  -14.7532   20.1312 O   0  0  0  0  0  0
  -21.6635   -6.8875   21.4240 O   0  0  0  0  0  0
  -22.3455  -14.5497   20.6719 O   0  0  0  0  0  0
  -24.6304  -31.8561   23.2005 C   0  0  0  0  0  0
  -25.9137  -32.4754   23.8344 C   0  0  1  0  0  0
  -27.2142  -27.2615   20.1230 C   0  0  0  0  0  0
  -25.5935  -33.8559   24.2254 N   0  0  0  0  0  0
  -23.4268  -30.4796   21.5438 C   0  0  2  0  0  0
  -24.8733  -28.9337   20.1057 C   0  0  0  0  0  0
  -22.7502  -29.4594   22.4913 C   0  0  0  0  0  0
  -18.0287  -28.1386   22.8478 C   0  0  0  0  0  0
  -24.1494  -36.7283   23.2637 C   0  0  0  0  0  0
  -25.9738  -30.7661   21.3850 C   0  0  0  0  0  0
  -26.0440  -29.3902   20.7249 C   0  0  0  0  0  0
  -27.2132  -28.5634   20.7299 C   0  0  0  0  0  0
  -26.0272  -26.8921   19.4463 C   0  0  0  0  0  0
  -24.8713  -27.6924   19.4560 C   0  0  0  0  0  0
  -23.6438  -29.8188   20.1580 C   0  0  0  0  0  0
  -25.4121  -36.3066   24.0324 C   0  0  1  0  0  0
  -20.5893  -28.3693   23.1274 C   0  0  2  0  0  0
  -20.6779  -26.9413   22.5412 C   0  0  0  0  0  0
  -19.5754  -26.6378   21.5216 C   0  0  0  0  0  0
  -18.1928  -26.7923   22.1625 C   0  0  0  0  0  0
  -19.1542  -28.8856   23.2862 C   0  0  0  0  0  0
  -18.9469  -30.1452   23.8887 C   0  0  0  0  0  0
  -17.6471  -30.6585   24.0561 C   0  0  0  0  0  0
  -25.9065  -34.9440   23.5093 C   0  0  0  0  0  0
  -16.5358  -29.9083   23.6338 C   0  0  0  0  0  0
  -16.7275  -28.6501   23.0353 C   0  0  0  0  0  0
  -26.4505  -31.6583   25.0736 C   0  0  0  0  0  0
  -25.3719  -31.3741   26.1451 C   0  0  0  0  0  0
  -27.0357  -30.2999   24.6235 C   0  0  0  0  0  0
  -27.6054  -32.4330   25.7506 C   0  0  0  0  0  0
  -27.5584  -37.1787   24.8458 C   0  0  0  0  0  0
  -21.4211  -29.3036   22.3666 N   0  0  0  0  0  0
  -26.4288  -37.3772   23.9419 N   0  0  0  0  0  0
  -24.6959  -31.0518   22.0993 N   0  0  0  0  0  0
  -23.4205  -28.8123   23.2995 O   0  0  0  0  0  0
  -28.3004  -26.3562   20.2159 O   0  0  0  0  0  0
  -26.5633  -34.8913   22.4662 O   0  0  0  0  0  0
  -23.5456  -32.1398   23.7289 O   0  0  0  0  0  0
  -31.1517  -20.1119   20.2925 C   0  0  0  0  0  0
  -31.6478  -17.7196   20.3645 C   0  0  0  0  0  0
  -29.3329  -18.4852   20.6255 C   0  0  0  0  0  0
  -29.7725  -19.8930   20.4960 C   0  0  0  0  0  0
  -32.0732  -19.0538   20.2342 C   0  0  0  0  0  0
  -30.2875  -17.3596   20.5498 C   0  0  0  0  0  0
  -27.8661  -18.1609   20.8569 C   0  0  0  0  0  0
  -28.4019  -23.1418   21.8140 C   0  0  0  0  0  0
  -28.9449  -21.6976   21.9532 C   0  0  0  0  0  0
  -29.0383  -22.2867   19.6889 C   0  0  0  0  0  0
  -28.9483  -23.6743   20.4799 C   0  0  1  0  0  0
  -28.1198  -24.9099   19.8360 C   0  0  0  0  0  0
  -28.9625  -21.1030   20.6165 N   0  0  0  0  0  0
  -33.4307  -19.3294   20.0538 N   0  0  0  0  0  0
  -26.9709  -19.0760   20.5141 N   0  0  0  0  0  0
  -29.9347  -15.8989   20.6654 N   0  0  0  0  0  0
  -27.4985  -17.0670   21.2882 O   0  0  0  0  0  0
  -31.4651  -12.5367   19.1745 H   0  0  0  0  0  0
  -30.3428  -11.4708   19.9680 H   0  0  0  0  0  0
  -29.7807  -11.7298   17.5232 H   0  0  0  0  0  0
  -29.6385  -13.4592   17.7246 H   0  0  0  0  0  0
  -27.8839  -11.2918   18.9172 H   0  0  0  0  0  0
  -27.3736  -12.5329   17.8051 H   0  0  0  0  0  0
  -27.6268  -14.2645   19.4725 H   0  0  0  0  0  0
  -28.7167  -12.2026   21.4494 H   0  0  0  0  0  0
  -28.4304  -13.8926   21.7841 H   0  0  0  0  0  0
  -25.2769   -9.5670   22.4752 H   0  0  0  0  0  0
  -23.9996   -7.4629   22.7481 H   0  0  0  0  0  0
  -21.0845   -8.8763   19.8951 H   0  0  0  0  0  0
  -22.3709  -10.9652   19.6153 H   0  0  0  0  0  0
  -21.2013   -7.6149   23.9716 H   0  0  0  0  0  0
  -21.1479   -6.0524   25.9075 H   0  0  0  0  0  0
  -22.0603   -2.7612   23.2845 H   0  0  0  0  0  0
  -22.4083  -11.9805   22.4750 H   0  0  0  0  0  0
  -21.1082  -13.1185   22.2656 H   0  0  0  0  0  0
  -24.6391  -15.8172   20.6588 H   0  0  0  0  0  0
  -26.3031  -15.6644   20.4630 H   0  0  0  0  0  0
  -26.7199  -32.5401   23.1077 H   0  0  0  0  0  0
  -25.0082  -33.9706   25.0398 H   0  0  0  0  0  0
  -22.7227  -31.3019   21.3997 H   0  0  0  0  0  0
  -23.3757  -35.9611   23.3283 H   0  0  0  0  0  0
  -24.3583  -36.8934   22.2054 H   0  0  0  0  0  0
  -23.7242  -37.6475   23.6679 H   0  0  0  0  0  0
  -26.1165  -31.5276   20.6168 H   0  0  0  0  0  0
  -26.8503  -30.8112   22.0198 H   0  0  0  0  0  0
  -28.1021  -28.8999   21.2452 H   0  0  0  0  0  0
  -25.9493  -25.9631   18.9036 H   0  0  0  0  0  0
  -23.9811  -27.3447   18.9500 H   0  0  0  0  0  0
  -23.7642  -30.5981   19.4046 H   0  0  0  0  0  0
  -22.7632  -29.2507   19.8525 H   0  0  0  0  0  0
  -25.1291  -36.1913   25.0812 H   0  0  0  0  0  0
  -20.9976  -28.3276   24.1399 H   0  0  0  0  0  0
  -20.5692  -26.2299   23.3614 H   0  0  0  0  0  0
  -21.6641  -26.7442   22.1194 H   0  0  0  0  0  0
  -19.6928  -25.6288   21.1243 H   0  0  0  0  0  0
  -19.6698  -27.3190   20.6746 H   0  0  0  0  0  0
  -17.4202  -26.6672   21.4019 H   0  0  0  0  0  0
  -18.0320  -26.0063   22.9019 H   0  0  0  0  0  0
  -19.7947  -30.7265   24.2248 H   0  0  0  0  0  0
  -17.5024  -31.6262   24.5159 H   0  0  0  0  0  0
  -15.5357  -30.2980   23.7664 H   0  0  0  0  0  0
  -15.8674  -28.0819   22.7072 H   0  0  0  0  0  0
  -24.5911  -30.7070   25.7780 H   0  0  0  0  0  0
  -24.8884  -32.2906   26.4838 H   0  0  0  0  0  0
  -25.8021  -30.8954   27.0255 H   0  0  0  0  0  0
  -26.2952  -29.6736   24.1244 H   0  0  0  0  0  0
  -27.4017  -29.7270   25.4762 H   0  0  0  0  0  0
  -27.8837  -30.4261   23.9503 H   0  0  0  0  0  0
  -27.2668  -33.3647   26.2049 H   0  0  0  0  0  0
  -28.3880  -32.6866   25.0342 H   0  0  0  0  0  0
  -28.0704  -31.8482   26.5452 H   0  0  0  0  0  0
  -28.2563  -38.0117   24.7533 H   0  0  0  0  0  0
  -28.1113  -36.2644   24.6238 H   0  0  0  0  0  0
  -27.2303  -37.1381   25.8859 H   0  0  0  0  0  0
  -20.9397  -29.8775   21.6889 H   0  0  0  0  0  0
  -26.0167  -38.2841   24.1438 H   0  0  0  0  0  0
  -31.5210  -21.1242   20.2099 H   0  0  0  0  0  0
  -32.4207  -16.9712   20.3230 H   0  0  0  0  0  0
  -28.6815  -23.7710   22.6600 H   0  0  0  0  0  0
  -27.3118  -23.1103   21.7831 H   0  0  0  0  0  0
  -28.3286  -21.1126   22.6376 H   0  0  0  0  0  0
  -29.9562  -21.7165   22.3631 H   0  0  0  0  0  0
  -29.9342  -22.2611   19.0673 H   0  0  0  0  0  0
  -28.1946  -22.2163   19.0006 H   0  0  0  0  0  0
  -29.9746  -24.0081   20.6416 H   0  0  0  0  0  0
  -27.0827  -24.6197   19.9886 H   0  0  0  0  0  0
  -28.2764  -24.8769   18.7574 H   0  0  0  0  0  0
  -33.7779  -20.2721   20.2057 H   0  0  0  0  0  0
  -34.1184  -18.6116   20.2648 H   0  0  0  0  0  0
  -27.3318  -19.9916   20.2570 H   0  0  0  0  0  0
  -25.9815  -18.9182   20.6280 H   0  0  0  0  0  0
  -28.9590  -15.7378   20.8819 H   0  0  0  0  0  0
  1 25  1  0  0  0
  1 30  2  0  0  0
  1 86  1  0  0  0
  2  3  1  0  0  0
  2 25  1  0  0  0
  2 88  1  0  0  0
  2 89  1  0  0  0
  3  4  1  0  0  0
  3 90  1  0  0  0
  3 91  1  0  0  0
  4  5  1  0  0  0
  4 92  1  0  0  0
  4 93  1  0  0  0
  5  6  1  0  0  0
  5 26  1  0  0  0
  5 94  1  0  0  0
  6 25  1  0  0  0
  6 95  1  0  0  0
  6 96  1  0  0  0
  7  8  2  0  0  0
  7 26  1  0  0  0
  7 29  1  0  0  0
  8  9  1  0  0  0
  8 22  1  0  0  0
  9 10  1  0  0  0
  9 27  2  0  0  0
 10 11  2  0  0  0
 10 15  1  0  0  0
 11 12  1  0  0  0
 11 97  1  0  0  0
 12 13  2  0  0  0
 12 98  1  0  0  0
 13 14  1  0  0  0
 13 31  1  0  0  0
 14 15  2  0  0  0
 14 99  1  0  0  0
 15100  1  0  0  0
 16 17  2  0  0  0
 16 21  1  0  0  0
 16 31  1  0  0  0
 17 18  1  0  0  0
 17101  1  0  0  0
 18 19  2  0  0  0
 18102  1  0  0  0
 19 20  1  0  0  0
 19 24  1  0  0  0
 20 21  2  0  0  0
 20103  1  0  0  0
 21 23  1  0  0  0
 22 28  1  0  0  0
 22 32  2  0  0  0
 26 27  1  0  0  0
 28104  1  0  0  0
 28105  1  0  0  0
 29106  1  0  0  0
 29107  1  0  0  0
 33 34  1  0  0  0
 33 66  1  0  0  0
 33 70  2  0  0  0
 34 36  1  0  0  0
 34 59  1  0  0  0
 34108  1  0  0  0
 35 44  2  0  0  0
 35 45  1  0  0  0
 35 68  1  0  0  0
 36 56  1  0  0  0
 36109  1  0  0  0
 37 39  1  0  0  0
 37 47  1  0  0  0
 37 66  1  0  0  0
 37110  1  0  0  0
 38 43  2  0  0  0
 38 46  1  0  0  0
 38 47  1  0  0  0
 39 64  1  0  0  0
 39 67  2  0  0  0
 40 52  1  0  0  0
 40 53  2  0  0  0
 40 58  1  0  0  0
 41111  1  0  0  0
 41112  1  0  0  0
 41113  1  0  0  0
 41 48  1  0  0  0
 42 43  1  0  0  0
 42 66  1  0  0  0
 42114  1  0  0  0
 42115  1  0  0  0
 43 44  1  0  0  0
 44116  1  0  0  0
 45 46  2  0  0  0
 45117  1  0  0  0
 46118  1  0  0  0
 47119  1  0  0  0
 47120  1  0  0  0
 48 56  1  0  0  0
 48 65  1  0  0  0
 48121  1  0  0  0
 49 50  1  0  0  0
 49 53  1  0  0  0
 49 64  1  0  0  0
 49122  1  0  0  0
 50 51  1  0  0  0
 50123  1  0  0  0
 50124  1  0  0  0
 51 52  1  0  0  0
 51125  1  0  0  0
 51126  1  0  0  0
 52127  1  0  0  0
 52128  1  0  0  0
 53 54  1  0  0  0
 54 55  2  0  0  0
 54129  1  0  0  0
 55 57  1  0  0  0
 55130  1  0  0  0
 56 69  2  0  0  0
 57 58  2  0  0  0
 57131  1  0  0  0
 58132  1  0  0  0
 59 60  1  0  0  0
 59 61  1  0  0  0
 59 62  1  0  0  0
 60133  1  0  0  0
 60134  1  0  0  0
 60135  1  0  0  0
 61136  1  0  0  0
 61137  1  0  0  0
 61138  1  0  0  0
 62139  1  0  0  0
 62140  1  0  0  0
 62141  1  0  0  0
 63 65  1  0  0  0
 63142  1  0  0  0
 63143  1  0  0  0
 63144  1  0  0  0
 64145  1  0  0  0
 65146  1  0  0  0
 68 82  1  0  0  0
 71 74  2  0  0  0
 71 75  1  0  0  0
 71147  1  0  0  0
 72 75  2  0  0  0
 72 76  1  0  0  0
 72148  1  0  0  0
 73 74  1  0  0  0
 73 76  2  0  0  0
 73 77  1  0  0  0
 74 83  1  0  0  0
 75 84  1  0  0  0
 76 86  1  0  0  0
 77 85  1  0  0  0
 77 87  2  0  0  0
 78 79  1  0  0  0
 78 81  1  0  0  0
 78149  1  0  0  0
 78150  1  0  0  0
 79 83  1  0  0  0
 79151  1  0  0  0
 79152  1  0  0  0
 80 81  1  0  0  0
 80 83  1  0  0  0
 80153  1  0  0  0
 80154  1  0  0  0
 81 82  1  0  0  0
 81155  1  0  0  0
 82156  1  0  0  0
 82157  1  0  0  0
 84158  1  0  0  0
 84159  1  0  0  0
 85160  1  0  0  0
 85161  1  0  0  0
 86162  1  0  0  0
M  ISO  4   1 100  68 101  82 101  86 100
M  END
> <chiral flag>
0

> <version>
0

> <s_m_source_file>
/data/baiqing/PycharmProjects/Reinvent-master-3.2/result/LINK_invent/BTK/process_docking_weight1_custom_product_contain_oxygen_bond_distance_aromatic_linkinvent_7_9_3/rearranged_h_0106.sdf

> <i_m_source_file_index>
3

> <r_mmod_Potential_Energy-OPLS-2005>
363.585235595703

> <r_mmod_Stretch_Energy-OPLS-2005>
136.931854248047

> <r_mmod_Bend_Energy-OPLS-2005>
203.093841552734

> <r_mmod_Torsional_Energy-OPLS-2005>
306.205932617188

> <r_mmod_Improper_Torsional_Energy-OPLS-2005>
13.7152786254883

> <r_mmod_Van_der_Waal_Energy-OPLS-2005>
160.894805908203

> <r_mmod_Electrostatic_Energy-OPLS-2005>
-317.975769042969

> <r_mmod_Solvation_Energy-OPLS-2005>
-223.843627929688

> <b_mmod_Minimization_Converged-OPLS-2005>
0

> <r_mmod_RMS_Derivative-OPLS-2005>
0.952476263046265

$$$$
3
                    3D
 Structure written by MMmdl.
161169  0  0  1  0            999 V2000
  -30.5803  -14.9642   20.4396 C   0  0  0  0  0  0
  -30.4278  -12.6113   19.4835 C   0  0  0  0  0  0
  -29.5087  -12.5262   18.2459 C   0  0  0  0  0  0
  -28.0476  -12.3066   18.6777 C   0  0  0  0  0  0
  -27.6217  -13.2538   19.8300 C   0  0  2  0  0  0
  -28.6695  -13.3199   20.9606 C   0  0  0  0  0  0
  -25.2428  -13.8221   20.5730 C   0  0  0  0  0  0
  -24.1759  -13.0431   20.9248 C   0  0  0  0  0  0
  -24.6390  -11.6922   20.8768 C   0  0  0  0  0  0
  -23.9081  -10.4288   21.0411 C   0  0  0  0  0  0
  -24.3631   -9.4200   21.9185 C   0  0  0  0  0  0
  -23.6302   -8.2239   22.0753 C   0  0  0  0  0  0
  -22.4282   -8.0280   21.3545 C   0  0  0  0  0  0
  -21.9921   -9.0255   20.4647 C   0  0  0  0  0  0
  -22.7253  -10.2131   20.3058 C   0  0  0  0  0  0
  -21.6854   -6.0736   22.5276 C   0  0  0  0  0  0
  -21.4016   -6.5640   23.8208 C   0  0  0  0  0  0
  -21.3659   -5.6793   24.9170 C   0  0  0  0  0  0
  -21.6045   -4.3057   24.7223 C   0  0  0  0  0  0
  -21.8819   -3.8148   23.4344 C   0  0  0  0  0  0
  -21.9193   -4.6964   22.3398 C   0  0  0  0  0  0
  -22.7781  -13.5196   21.1897 C   0  0  0  0  0  0
  -22.1662   -4.2148   21.0977 F   0  0  0  0  0  0
  -21.5627   -3.4540   25.7738 F   0  0  0  0  0  0
  -29.9330  -13.7318   20.3374 N   0  0  0  0  0  0
  -26.2854  -12.9472   20.3248 N   0  0  0  0  0  0
  -25.9321  -11.6595   20.5752 N   0  0  0  0  0  0
  -22.0447  -12.8173   22.0456 N   0  0  0  0  0  0
  -25.4073  -15.1949   20.4150 N   0  0  0  0  0  0
  -31.7921  -14.9603   20.1957 O   0  0  0  0  0  0
  -21.6643   -6.8880   21.4238 O   0  0  0  0  0  0
  -22.3465  -14.5503   20.6748 O   0  0  0  0  0  0
  -24.6451  -31.8420   23.1855 C   0  0  0  0  0  0
  -25.9216  -32.4687   23.8256 C   0  0  1  0  0  0
  -27.2212  -27.1193   20.1669 C   0  0  0  0  0  0
  -25.5949  -33.8489   24.2173 N   0  0  0  0  0  0
  -23.4498  -30.4578   21.5320 C   0  0  2  0  0  0
  -24.9003  -28.8732   20.1188 C   0  0  0  0  0  0
  -22.7567  -29.4535   22.4867 C   0  0  0  0  0  0
  -18.0300  -28.1400   22.8482 C   0  0  0  0  0  0
  -24.1490  -36.7262   23.2643 C   0  0  0  0  0  0
  -26.0053  -30.7112   21.3844 C   0  0  0  0  0  0
  -26.0783  -29.3176   20.7342 C   0  0  0  0  0  0
  -27.2434  -28.4589   20.7327 C   0  0  0  0  0  0
  -26.0161  -26.7709   19.5238 C   0  0  0  0  0  0
  -24.8823  -27.6140   19.4963 C   0  0  0  0  0  0
  -23.6784  -29.7799   20.1550 C   0  0  0  0  0  0
  -25.4118  -36.3022   24.0308 C   0  0  1  0  0  0
  -20.5911  -28.3730   23.1234 C   0  0  2  0  0  0
  -20.6787  -26.9434   22.5408 C   0  0  0  0  0  0
  -19.5759  -26.6383   21.5215 C   0  0  0  0  0  0
  -18.1940  -26.7938   22.1624 C   0  0  0  0  0  0
  -19.1556  -28.8879   23.2850 C   0  0  0  0  0  0
  -18.9479  -30.1470   23.8877 C   0  0  0  0  0  0
  -17.6481  -30.6602   24.0560 C   0  0  0  0  0  0
  -25.9070  -34.9396   23.5051 C   0  0  0  0  0  0
  -16.5368  -29.9099   23.6339 C   0  0  0  0  0  0
  -16.7285  -28.6512   23.0366 C   0  0  0  0  0  0
  -26.4528  -31.6568   25.0712 C   0  0  0  0  0  0
  -25.3702  -31.3767   26.1402 C   0  0  0  0  0  0
  -27.0410  -30.2964   24.6304 C   0  0  0  0  0  0
  -27.6045  -32.4352   25.7503 C   0  0  0  0  0  0
  -27.5573  -37.1773   24.8454 C   0  0  0  0  0  0
  -21.4256  -29.3061   22.3609 N   0  0  0  0  0  0
  -26.4283  -37.3737   23.9404 N   0  0  0  0  0  0
  -24.7202  -31.0250   22.0898 N   0  0  0  0  0  0
  -23.4190  -28.8081   23.3033 O   0  0  0  0  0  0
  -28.2911  -26.1510   20.1545 O   0  0  0  0  0  0
  -26.5675  -34.8899   22.4642 O   0  0  0  0  0  0
  -23.5563  -32.1305   23.7063 O   0  0  0  0  0  0
  -30.4042  -19.7084   22.5038 C   0  0  0  0  0  0
  -31.1270  -17.0608   22.4335 C   0  0  0  0  0  0
  -31.2186  -19.1997   23.5231 C   0  0  0  0  0  0
  -29.9410  -18.9983   21.3562 C   0  0  0  0  0  0
  -31.6021  -17.8643   23.4734 C   0  0  0  0  0  0
  -30.2901  -17.4925   21.3548 C   0  0  0  0  0  0
  -31.6691  -20.1072   24.6600 C   0  0  0  0  0  0
  -28.6277  -23.1947   19.9567 C   0  0  0  0  0  0
  -29.0229  -21.7803   20.8154 C   0  0  0  0  0  0
  -28.1425  -24.6737   20.6485 C   0  0  0  0  0  0
  -29.1928  -20.1153   20.3625 C   0  0  2  0  0  0
  -32.4179  -17.3179   24.4649 N   0  0  0  0  0  0
  -29.8912  -16.2222   20.5776 N   0  0  0  0  0  0
  -27.8722  -19.5934   19.9951 N   0  3  0  0  0  0
  -31.4605  -12.7578   19.1652 H   0  0  0  0  0  0
  -30.4198  -11.6712   20.0373 H   0  0  0  0  0  0
  -29.8296  -11.7173   17.5878 H   0  0  0  0  0  0
  -29.5863  -13.4463   17.6648 H   0  0  0  0  0  0
  -27.9572  -11.2701   19.0045 H   0  0  0  0  0  0
  -27.3767  -12.4155   17.8243 H   0  0  0  0  0  0
  -27.5715  -14.2467   19.3820 H   0  0  0  0  0  0
  -28.7696  -12.3592   21.4682 H   0  0  0  0  0  0
  -28.3697  -14.0446   21.7197 H   0  0  0  0  0  0
  -25.2774   -9.5676   22.4766 H   0  0  0  0  0  0
  -24.0005   -7.4632   22.7475 H   0  0  0  0  0  0
  -21.0851   -8.8786   19.8956 H   0  0  0  0  0  0
  -22.3714  -10.9680   19.6175 H   0  0  0  0  0  0
  -21.2013   -7.6151   23.9711 H   0  0  0  0  0  0
  -21.1479   -6.0526   25.9074 H   0  0  0  0  0  0
  -22.0601   -2.7609   23.2847 H   0  0  0  0  0  0
  -22.4088  -11.9828   22.4821 H   0  0  0  0  0  0
  -21.1067  -13.1181   22.2689 H   0  0  0  0  0  0
  -24.6338  -15.8422   20.5242 H   0  0  0  0  0  0
  -26.2459  -15.6347   20.0621 H   0  0  0  0  0  0
  -26.7281  -32.5288   23.0981 H   0  0  0  0  0  0
  -25.0042  -33.9598   25.0282 H   0  0  0  0  0  0
  -22.7539  -31.2836   21.3724 H   0  0  0  0  0  0
  -23.3748  -35.9598   23.3287 H   0  0  0  0  0  0
  -24.3568  -36.8932   22.2065 H   0  0  0  0  0  0
  -23.7254  -37.6444   23.6711 H   0  0  0  0  0  0
  -26.1564  -31.4612   20.6067 H   0  0  0  0  0  0
  -26.8758  -30.7680   22.0258 H   0  0  0  0  0  0
  -28.1484  -28.7999   21.2161 H   0  0  0  0  0  0
  -25.9432  -25.8045   19.0449 H   0  0  0  0  0  0
  -23.9832  -27.2699   19.0027 H   0  0  0  0  0  0
  -23.8174  -30.5506   19.3961 H   0  0  0  0  0  0
  -22.7915  -29.2234   19.8453 H   0  0  0  0  0  0
  -25.1299  -36.1854   25.0798 H   0  0  0  0  0  0
  -20.9996  -28.3350   24.1361 H   0  0  0  0  0  0
  -20.5693  -26.2348   23.3630 H   0  0  0  0  0  0
  -21.6651  -26.7457   22.1197 H   0  0  0  0  0  0
  -19.6928  -25.6284   21.1278 H   0  0  0  0  0  0
  -19.6702  -27.3167   20.6722 H   0  0  0  0  0  0
  -17.4209  -26.6689   21.4030 H   0  0  0  0  0  0
  -18.0334  -26.0078   22.9013 H   0  0  0  0  0  0
  -19.7962  -30.7280   24.2250 H   0  0  0  0  0  0
  -17.5046  -31.6284   24.5161 H   0  0  0  0  0  0
  -15.5369  -30.2998   23.7677 H   0  0  0  0  0  0
  -15.8686  -28.0826   22.7100 H   0  0  0  0  0  0
  -24.5877  -30.7125   25.7713 H   0  0  0  0  0  0
  -24.8890  -32.2949   26.4780 H   0  0  0  0  0  0
  -25.7969  -30.8966   27.0222 H   0  0  0  0  0  0
  -26.3043  -29.6655   24.1313 H   0  0  0  0  0  0
  -27.4020  -29.7291   25.4895 H   0  0  0  0  0  0
  -27.8941  -30.4189   23.9629 H   0  0  0  0  0  0
  -27.2635  -33.3679   26.2007 H   0  0  0  0  0  0
  -28.3893  -32.6877   25.0365 H   0  0  0  0  0  0
  -28.0664  -31.8533   26.5485 H   0  0  0  0  0  0
  -28.2553  -38.0105   24.7518 H   0  0  0  0  0  0
  -28.1109  -36.2624   24.6264 H   0  0  0  0  0  0
  -27.2284  -37.1398   25.8856 H   0  0  0  0  0  0
  -20.9471  -29.8791   21.6794 H   0  0  0  0  0  0
  -26.0149  -38.2798   24.1434 H   0  0  0  0  0  0
  -30.1536  -20.7372   22.6666 H   0  0  0  0  0  0
  -31.4208  -16.0283   22.5341 H   0  0  0  0  0  0
  -31.4527  -21.1563   24.4560 H   0  0  0  0  0  0
  -32.7441  -20.0242   24.8215 H   0  0  0  0  0  0
  -31.1618  -19.8310   25.5844 H   0  0  0  0  0  0
  -27.8539  -22.9292   19.2373 H   0  0  0  0  0  0
  -29.4978  -23.4160   19.3372 H   0  0  0  0  0  0
  -28.3795  -21.7876   21.6959 H   0  0  0  0  0  0
  -30.0093  -22.0722   21.1744 H   0  0  0  0  0  0
  -28.6647  -24.7039   21.6051 H   0  0  0  0  0  0
  -27.1001  -24.5464   20.9413 H   0  0  0  0  0  0
  -29.7942  -20.1127   19.4521 H   0  0  0  0  0  0
  -32.9194  -16.4580   24.2644 H   0  0  0  0  0  0
  -32.9558  -17.9553   25.0423 H   0  0  0  0  0  0
  -28.9072  -16.1562   20.3674 H   0  0  0  0  0  0
  -27.2770  -19.5344   20.8017 H   0  0  0  0  0  0
  -27.9653  -18.6820   19.5894 H   0  0  0  0  0  0
  -27.4399  -20.1931   19.3160 H   0  0  0  0  0  0
  1 25  1  0  0  0
  1 30  2  0  0  0
  1 83  1  0  0  0
  2  3  1  0  0  0
  2 25  1  0  0  0
  2 85  1  0  0  0
  2 86  1  0  0  0
  3  4  1  0  0  0
  3 87  1  0  0  0
  3 88  1  0  0  0
  4  5  1  0  0  0
  4 89  1  0  0  0
  4 90  1  0  0  0
  5  6  1  0  0  0
  5 26  1  0  0  0
  5 91  1  0  0  0
  6 25  1  0  0  0
  6 92  1  0  0  0
  6 93  1  0  0  0
  7  8  2  0  0  0
  7 26  1  0  0  0
  7 29  1  0  0  0
  8  9  1  0  0  0
  8 22  1  0  0  0
  9 10  1  0  0  0
  9 27  2  0  0  0
 10 11  2  0  0  0
 10 15  1  0  0  0
 11 12  1  0  0  0
 11 94  1  0  0  0
 12 13  2  0  0  0
 12 95  1  0  0  0
 13 14  1  0  0  0
 13 31  1  0  0  0
 14 15  2  0  0  0
 14 96  1  0  0  0
 15 97  1  0  0  0
 16 17  2  0  0  0
 16 21  1  0  0  0
 16 31  1  0  0  0
 17 18  1  0  0  0
 17 98  1  0  0  0
 18 19  2  0  0  0
 18 99  1  0  0  0
 19 20  1  0  0  0
 19 24  1  0  0  0
 20 21  2  0  0  0
 20100  1  0  0  0
 21 23  1  0  0  0
 22 28  1  0  0  0
 22 32  2  0  0  0
 26 27  1  0  0  0
 28101  1  0  0  0
 28102  1  0  0  0
 29103  1  0  0  0
 29104  1  0  0  0
 33 34  1  0  0  0
 33 66  1  0  0  0
 33 70  2  0  0  0
 34 36  1  0  0  0
 34 59  1  0  0  0
 34105  1  0  0  0
 35 44  2  0  0  0
 35 45  1  0  0  0
 35 68  1  0  0  0
 36 56  1  0  0  0
 36106  1  0  0  0
 37 39  1  0  0  0
 37 47  1  0  0  0
 37 66  1  0  0  0
 37107  1  0  0  0
 38 43  2  0  0  0
 38 46  1  0  0  0
 38 47  1  0  0  0
 39 64  1  0  0  0
 39 67  2  0  0  0
 40 52  1  0  0  0
 40 53  2  0  0  0
 40 58  1  0  0  0
 41108  1  0  0  0
 41109  1  0  0  0
 41110  1  0  0  0
 41 48  1  0  0  0
 42 43  1  0  0  0
 42 66  1  0  0  0
 42111  1  0  0  0
 42112  1  0  0  0
 43 44  1  0  0  0
 44113  1  0  0  0
 45 46  2  0  0  0
 45114  1  0  0  0
 46115  1  0  0  0
 47116  1  0  0  0
 47117  1  0  0  0
 48 56  1  0  0  0
 48 65  1  0  0  0
 48118  1  0  0  0
 49 50  1  0  0  0
 49 53  1  0  0  0
 49 64  1  0  0  0
 49119  1  0  0  0
 50 51  1  0  0  0
 50120  1  0  0  0
 50121  1  0  0  0
 51 52  1  0  0  0
 51122  1  0  0  0
 51123  1  0  0  0
 52124  1  0  0  0
 52125  1  0  0  0
 53 54  1  0  0  0
 54 55  2  0  0  0
 54126  1  0  0  0
 55 57  1  0  0  0
 55127  1  0  0  0
 56 69  2  0  0  0
 57 58  2  0  0  0
 57128  1  0  0  0
 58129  1  0  0  0
 59 60  1  0  0  0
 59 61  1  0  0  0
 59 62  1  0  0  0
 60130  1  0  0  0
 60131  1  0  0  0
 60132  1  0  0  0
 61133  1  0  0  0
 61134  1  0  0  0
 61135  1  0  0  0
 62136  1  0  0  0
 62137  1  0  0  0
 62138  1  0  0  0
 63 65  1  0  0  0
 63139  1  0  0  0
 63140  1  0  0  0
 63141  1  0  0  0
 64142  1  0  0  0
 65143  1  0  0  0
 68 80  1  0  0  0
 71 73  2  0  0  0
 71 74  1  0  0  0
 71144  1  0  0  0
 72 75  2  0  0  0
 72 76  1  0  0  0
 72145  1  0  0  0
 73 75  1  0  0  0
 73 77  1  0  0  0
 74 76  2  0  0  0
 74 81  1  0  0  0
 75 82  1  0  0  0
 76 83  1  0  0  0
 77146  1  0  0  0
 77147  1  0  0  0
 77148  1  0  0  0
 78 79  1  0  0  0
 78 80  1  0  0  0
 78149  1  0  0  0
 78150  1  0  0  0
 79 81  1  0  0  0
 79151  1  0  0  0
 79152  1  0  0  0
 80153  1  0  0  0
 80154  1  0  0  0
 81 84  1  0  0  0
 81155  1  0  0  0
 82156  1  0  0  0
 82157  1  0  0  0
 83158  1  0  0  0
 84159  1  0  0  0
 84160  1  0  0  0
 84161  1  0  0  0
M  CHG  1  84   1
M  ISO  4   1 100  68 101  80 101  83 100
M  END
> <chiral flag>
0

> <version>
0

> <s_m_source_file>
/data/baiqing/PycharmProjects/Reinvent-master-3.2/result/LINK_invent/BTK/process_docking_weight1_custom_product_contain_oxygen_bond_distance_aromatic_linkinvent_7_9_3/rearranged_h_0106.sdf

> <i_m_source_file_index>
4

> <r_mmod_Potential_Energy-OPLS-2005>
455.101928710938

> <r_mmod_Stretch_Energy-OPLS-2005>
341.572937011719

> <r_mmod_Bend_Energy-OPLS-2005>
362.677581787109

> <r_mmod_Torsional_Energy-OPLS-2005>
265.069915771484

> <r_mmod_Improper_Torsional_Energy-OPLS-2005>
9.66447257995605

> <r_mmod_Van_der_Waal_Energy-OPLS-2005>
153.056488037109

> <r_mmod_Electrostatic_Energy-OPLS-2005>
-337.1767578125

> <r_mmod_Solvation_Energy-OPLS-2005>
-541.366271972656

> <b_mmod_Minimization_Converged-OPLS-2005>
0

> <r_mmod_RMS_Derivative-OPLS-2005>
1.42773842811584

$$$$
4
                    3D
 Structure written by MMmdl.
161169  0  0  1  0            999 V2000
  -30.6708  -14.6181   20.5923 C   0  0  0  0  0  0
  -30.4318  -12.4090   19.4492 C   0  0  0  0  0  0
  -29.5033  -12.5261   18.2209 C   0  0  0  0  0  0
  -28.0262  -12.3560   18.6277 C   0  0  0  0  0  0
  -27.6509  -13.2160   19.8618 C   0  0  2  0  0  0
  -28.6881  -13.0426   20.9889 C   0  0  0  0  0  0
  -25.2550  -13.8171   20.5680 C   0  0  0  0  0  0
  -24.1819  -13.0433   20.9188 C   0  0  0  0  0  0
  -24.6385  -11.6905   20.8727 C   0  0  0  0  0  0
  -23.9057  -10.4288   21.0400 C   0  0  0  0  0  0
  -24.3613   -9.4207   21.9178 C   0  0  0  0  0  0
  -23.6291   -8.2241   22.0749 C   0  0  0  0  0  0
  -22.4273   -8.0277   21.3541 C   0  0  0  0  0  0
  -21.9906   -9.0249   20.4641 C   0  0  0  0  0  0
  -22.7231  -10.2129   20.3050 C   0  0  0  0  0  0
  -21.6852   -6.0733   22.5278 C   0  0  0  0  0  0
  -21.4012   -6.5639   23.8211 C   0  0  0  0  0  0
  -21.3658   -5.6793   24.9174 C   0  0  0  0  0  0
  -21.6046   -4.3055   24.7226 C   0  0  0  0  0  0
  -21.8818   -3.8146   23.4348 C   0  0  0  0  0  0
  -21.9192   -4.6962   22.3403 C   0  0  0  0  0  0
  -22.7845  -13.5228   21.1858 C   0  0  0  0  0  0
  -22.1661   -4.2148   21.0980 F   0  0  0  0  0  0
  -21.5629   -3.4539   25.7738 F   0  0  0  0  0  0
  -30.0077  -13.4166   20.4481 N   0  0  0  0  0  0
  -26.2965  -12.9349   20.3283 N   0  0  0  0  0  0
  -25.9308  -11.6505   20.5720 N   0  0  0  0  0  0
  -22.0493  -12.8216   22.0416 N   0  0  0  0  0  0
  -25.4272  -15.1892   20.4106 N   0  0  0  0  0  0
  -31.7731  -14.7944   20.0542 O   0  0  0  0  0  0
  -21.6635   -6.8877   21.4241 O   0  0  0  0  0  0
  -22.3529  -14.5535   20.6709 O   0  0  0  0  0  0
  -24.6243  -31.8602   23.2022 C   0  0  0  0  0  0
  -25.9099  -32.4780   23.8348 C   0  0  1  0  0  0
  -27.2281  -27.3312   20.1229 C   0  0  0  0  0  0
  -25.5921  -33.8583   24.2279 N   0  0  0  0  0  0
  -23.4184  -30.4816   21.5449 C   0  0  2  0  0  0
  -24.8667  -28.9342   20.1139 C   0  0  0  0  0  0
  -22.7463  -29.4623   22.4951 C   0  0  0  0  0  0
  -18.0283  -28.1375   22.8486 C   0  0  0  0  0  0
  -24.1491  -36.7292   23.2637 C   0  0  0  0  0  0
  -25.9574  -30.7961   21.3700 C   0  0  0  0  0  0
  -26.0348  -29.4231   20.7142 C   0  0  0  0  0  0
  -27.2219  -28.6343   20.7050 C   0  0  0  0  0  0
  -26.0418  -26.8874   19.5028 C   0  0  0  0  0  0
  -24.8707  -27.6708   19.4998 C   0  0  0  0  0  0
  -23.6329  -29.8128   20.1612 C   0  0  0  0  0  0
  -25.4115  -36.3085   24.0327 C   0  0  1  0  0  0
  -20.5882  -28.3680   23.1291 C   0  0  2  0  0  0
  -20.6775  -26.9407   22.5413 C   0  0  0  0  0  0
  -19.5755  -26.6382   21.5211 C   0  0  0  0  0  0
  -18.1930  -26.7919   22.1620 C   0  0  0  0  0  0
  -19.1533  -28.8845   23.2878 C   0  0  0  0  0  0
  -18.9459  -30.1449   23.8895 C   0  0  0  0  0  0
  -17.6460  -30.6581   24.0560 C   0  0  0  0  0  0
  -25.9052  -34.9453   23.5103 C   0  0  0  0  0  0
  -16.5350  -29.9081   23.6329 C   0  0  0  0  0  0
  -16.7269  -28.6496   23.0354 C   0  0  0  0  0  0
  -26.4493  -31.6582   25.0709 C   0  0  0  0  0  0
  -25.3734  -31.3696   26.1437 C   0  0  0  0  0  0
  -27.0335  -30.3012   24.6143 C   0  0  0  0  0  0
  -27.6061  -32.4311   25.7478 C   0  0  0  0  0  0
  -27.5583  -37.1795   24.8462 C   0  0  0  0  0  0
  -21.4182  -29.3033   22.3687 N   0  0  0  0  0  0
  -26.4295  -37.3780   23.9410 N   0  0  0  0  0  0
  -24.6854  -31.0623   22.0962 N   0  0  0  0  0  0
  -23.4193  -28.8173   23.3031 O   0  0  0  0  0  0
  -28.3494  -26.4957   20.1254 O   0  0  0  0  0  0
  -26.5622  -34.8920   22.4671 O   0  0  0  0  0  0
  -23.5412  -32.1400   23.7355 O   0  0  0  0  0  0
  -29.2402  -19.6492   21.6355 C   0  0  0  0  0  0
  -29.4251  -18.3022   22.0658 C   0  0  0  0  0  0
  -29.4348  -20.0290   20.2899 C   0  0  0  0  0  0
  -29.8133  -17.2713   21.1278 C   0  0  0  0  0  0
  -29.8015  -18.9544   19.4375 C   0  0  0  0  0  0
  -30.0322  -15.7692   21.5347 C   0  0  0  0  0  0
  -27.7690  -17.5753   23.8633 C   0  0  0  0  0  0
  -29.7628  -18.1935   17.1055 C   0  0  0  0  0  0
  -29.1927  -18.0631   23.5586 C   0  0  0  0  0  0
  -28.8336  -23.8943   19.8855 C   0  0  0  0  0  0
  -28.1858  -25.1253   20.6586 C   0  0  0  0  0  0
  -28.8109  -22.4632   20.5941 C   0  0  0  0  0  0
  -29.9773  -17.6577   19.8294 N   0  0  0  0  0  0
  -30.0085  -19.2421   18.0880 N   0  0  0  0  0  0
  -29.7714  -15.3966   22.6843 O   0  0  0  0  0  0
  -29.2983  -21.3425   19.7817 O   0  0  0  0  0  0
  -31.4719  -12.5332   19.1438 H   0  0  0  0  0  0
  -30.3740  -11.4074   19.8784 H   0  0  0  0  0  0
  -29.7724  -11.7791   17.4728 H   0  0  0  0  0  0
  -29.6428  -13.4988   17.7471 H   0  0  0  0  0  0
  -27.8638  -11.3009   18.8512 H   0  0  0  0  0  0
  -27.3716  -12.5932   17.7883 H   0  0  0  0  0  0
  -27.6788  -14.2574   19.5405 H   0  0  0  0  0  0
  -28.7081  -12.0053   21.3268 H   0  0  0  0  0  0
  -28.3833  -13.6132   21.8627 H   0  0  0  0  0  0
  -25.2762   -9.5685   22.4746 H   0  0  0  0  0  0
  -24.0001   -7.4634   22.7468 H   0  0  0  0  0  0
  -21.0838   -8.8766   19.8947 H   0  0  0  0  0  0
  -22.3690  -10.9667   19.6153 H   0  0  0  0  0  0
  -21.2003   -7.6146   23.9716 H   0  0  0  0  0  0
  -21.1481   -6.0522   25.9078 H   0  0  0  0  0  0
  -22.0599   -2.7608   23.2848 H   0  0  0  0  0  0
  -22.4114  -11.9878   22.4803 H   0  0  0  0  0  0
  -21.1105  -13.1230   22.2614 H   0  0  0  0  0  0
  -24.6607  -15.8436   20.5224 H   0  0  0  0  0  0
  -26.2743  -15.6286   20.0744 H   0  0  0  0  0  0
  -26.7169  -32.5457   23.1101 H   0  0  0  0  0  0
  -25.0065  -33.9736   25.0421 H   0  0  0  0  0  0
  -22.7111  -31.3008   21.4004 H   0  0  0  0  0  0
  -23.3756  -35.9619   23.3299 H   0  0  0  0  0  0
  -24.3585  -36.8916   22.2052 H   0  0  0  0  0  0
  -23.7242  -37.6489   23.6667 H   0  0  0  0  0  0
  -26.0844  -31.5603   20.6020 H   0  0  0  0  0  0
  -26.8390  -30.8476   21.9974 H   0  0  0  0  0  0
  -28.1225  -29.0075   21.1727 H   0  0  0  0  0  0
  -26.0166  -25.9194   19.0228 H   0  0  0  0  0  0
  -23.9758  -27.2902   19.0271 H   0  0  0  0  0  0
  -23.7481  -30.5871   19.4020 H   0  0  0  0  0  0
  -22.7539  -29.2390   19.8629 H   0  0  0  0  0  0
  -25.1297  -36.1937   25.0819 H   0  0  0  0  0  0
  -20.9968  -28.3252   24.1415 H   0  0  0  0  0  0
  -20.5685  -26.2283   23.3604 H   0  0  0  0  0  0
  -21.6644  -26.7446   22.1203 H   0  0  0  0  0  0
  -19.6923  -25.6295   21.1234 H   0  0  0  0  0  0
  -19.6698  -27.3196   20.6744 H   0  0  0  0  0  0
  -17.4204  -26.6668   21.4017 H   0  0  0  0  0  0
  -18.0326  -26.0058   22.9013 H   0  0  0  0  0  0
  -19.7939  -30.7255   24.2272 H   0  0  0  0  0  0
  -17.5019  -31.6268   24.5151 H   0  0  0  0  0  0
  -15.5351  -30.2982   23.7661 H   0  0  0  0  0  0
  -15.8667  -28.0814   22.7077 H   0  0  0  0  0  0
  -24.5938  -30.7017   25.7761 H   0  0  0  0  0  0
  -24.8884  -32.2841   26.4860 H   0  0  0  0  0  0
  -25.8069  -30.8886   27.0213 H   0  0  0  0  0  0
  -26.2898  -29.6753   24.1197 H   0  0  0  0  0  0
  -27.4080  -29.7275   25.4630 H   0  0  0  0  0  0
  -27.8747  -30.4306   23.9328 H   0  0  0  0  0  0
  -27.2697  -33.3627   26.2041 H   0  0  0  0  0  0
  -28.3879  -32.6843   25.0307 H   0  0  0  0  0  0
  -28.0719  -31.8438   26.5399 H   0  0  0  0  0  0
  -28.2589  -38.0105   24.7532 H   0  0  0  0  0  0
  -28.1097  -36.2638   24.6271 H   0  0  0  0  0  0
  -27.2300  -37.1416   25.8864 H   0  0  0  0  0  0
  -20.9360  -29.8742   21.6886 H   0  0  0  0  0  0
  -26.0174  -38.2853   24.1421 H   0  0  0  0  0  0
  -28.9522  -20.3980   22.3583 H   0  0  0  0  0  0
  -27.6369  -17.4166   24.9341 H   0  0  0  0  0  0
  -27.5415  -16.6344   23.3629 H   0  0  0  0  0  0
  -27.0257  -18.3072   23.5457 H   0  0  0  0  0  0
  -29.8181  -18.6003   16.0955 H   0  0  0  0  0  0
  -28.7706  -17.7603   17.2403 H   0  0  0  0  0  0
  -30.5019  -17.3958   17.1910 H   0  0  0  0  0  0
  -29.3506  -18.9989   24.0973 H   0  0  0  0  0  0
  -29.9451  -17.3999   23.9829 H   0  0  0  0  0  0
  -29.8714  -24.1401   19.6612 H   0  0  0  0  0  0
  -28.3385  -23.8068   18.9185 H   0  0  0  0  0  0
  -28.6257  -25.1498   21.6557 H   0  0  0  0  0  0
  -27.1336  -24.8977   20.8334 H   0  0  0  0  0  0
  -27.7892  -22.2373   20.9022 H   0  0  0  0  0  0
  -29.4031  -22.5238   21.5081 H   0  0  0  0  0  0
  -29.7687  -20.1955   17.8313 H   0  0  0  0  0  0
  1 25  1  0  0  0
  1 30  2  0  0  0
  1 76  1  0  0  0
  2  3  1  0  0  0
  2 25  1  0  0  0
  2 87  1  0  0  0
  2 88  1  0  0  0
  3  4  1  0  0  0
  3 89  1  0  0  0
  3 90  1  0  0  0
  4  5  1  0  0  0
  4 91  1  0  0  0
  4 92  1  0  0  0
  5  6  1  0  0  0
  5 26  1  0  0  0
  5 93  1  0  0  0
  6 25  1  0  0  0
  6 94  1  0  0  0
  6 95  1  0  0  0
  7  8  2  0  0  0
  7 26  1  0  0  0
  7 29  1  0  0  0
  8  9  1  0  0  0
  8 22  1  0  0  0
  9 10  1  0  0  0
  9 27  2  0  0  0
 10 11  2  0  0  0
 10 15  1  0  0  0
 11 12  1  0  0  0
 11 96  1  0  0  0
 12 13  2  0  0  0
 12 97  1  0  0  0
 13 14  1  0  0  0
 13 31  1  0  0  0
 14 15  2  0  0  0
 14 98  1  0  0  0
 15 99  1  0  0  0
 16 17  2  0  0  0
 16 21  1  0  0  0
 16 31  1  0  0  0
 17 18  1  0  0  0
 17100  1  0  0  0
 18 19  2  0  0  0
 18101  1  0  0  0
 19 20  1  0  0  0
 19 24  1  0  0  0
 20 21  2  0  0  0
 20102  1  0  0  0
 21 23  1  0  0  0
 22 28  1  0  0  0
 22 32  2  0  0  0
 26 27  1  0  0  0
 28103  1  0  0  0
 28104  1  0  0  0
 29105  1  0  0  0
 29106  1  0  0  0
 33 34  1  0  0  0
 33 66  1  0  0  0
 33 70  2  0  0  0
 34 36  1  0  0  0
 34 59  1  0  0  0
 34107  1  0  0  0
 35 44  2  0  0  0
 35 45  1  0  0  0
 35 68  1  0  0  0
 36 56  1  0  0  0
 36108  1  0  0  0
 37 39  1  0  0  0
 37 47  1  0  0  0
 37 66  1  0  0  0
 37109  1  0  0  0
 38 43  2  0  0  0
 38 46  1  0  0  0
 38 47  1  0  0  0
 39 64  1  0  0  0
 39 67  2  0  0  0
 40 52  1  0  0  0
 40 53  2  0  0  0
 40 58  1  0  0  0
 41110  1  0  0  0
 41111  1  0  0  0
 41112  1  0  0  0
 41 48  1  0  0  0
 42 43  1  0  0  0
 42 66  1  0  0  0
 42113  1  0  0  0
 42114  1  0  0  0
 43 44  1  0  0  0
 44115  1  0  0  0
 45 46  2  0  0  0
 45116  1  0  0  0
 46117  1  0  0  0
 47118  1  0  0  0
 47119  1  0  0  0
 48 56  1  0  0  0
 48 65  1  0  0  0
 48120  1  0  0  0
 49 50  1  0  0  0
 49 53  1  0  0  0
 49 64  1  0  0  0
 49121  1  0  0  0
 50 51  1  0  0  0
 50122  1  0  0  0
 50123  1  0  0  0
 51 52  1  0  0  0
 51124  1  0  0  0
 51125  1  0  0  0
 52126  1  0  0  0
 52127  1  0  0  0
 53 54  1  0  0  0
 54 55  2  0  0  0
 54128  1  0  0  0
 55 57  1  0  0  0
 55129  1  0  0  0
 56 69  2  0  0  0
 57 58  2  0  0  0
 57130  1  0  0  0
 58131  1  0  0  0
 59 60  1  0  0  0
 59 61  1  0  0  0
 59 62  1  0  0  0
 60132  1  0  0  0
 60133  1  0  0  0
 60134  1  0  0  0
 61135  1  0  0  0
 61136  1  0  0  0
 61137  1  0  0  0
 62138  1  0  0  0
 62139  1  0  0  0
 62140  1  0  0  0
 63 65  1  0  0  0
 63141  1  0  0  0
 63142  1  0  0  0
 63143  1  0  0  0
 64144  1  0  0  0
 65145  1  0  0  0
 68 81  1  0  0  0
 71 72  2  0  0  0
 71 73  1  0  0  0
 71146  1  0  0  0
 72 74  1  0  0  0
 72 79  1  0  0  0
 73 75  2  0  0  0
 73 86  1  0  0  0
 74 76  1  0  0  0
 74 83  2  0  0  0
 75 83  1  0  0  0
 75 84  1  0  0  0
 76 85  2  0  0  0
 77 79  1  0  0  0
 77147  1  0  0  0
 77148  1  0  0  0
 77149  1  0  0  0
 78 84  1  0  0  0
 78150  1  0  0  0
 78151  1  0  0  0
 78152  1  0  0  0
 79153  1  0  0  0
 79154  1  0  0  0
 80 81  1  0  0  0
 80 82  1  0  0  0
 80155  1  0  0  0
 80156  1  0  0  0
 81157  1  0  0  0
 81158  1  0  0  0
 82 86  1  0  0  0
 82159  1  0  0  0
 82160  1  0  0  0
 84161  1  0  0  0
M  ISO  4   1 100  68 101  76 100  81 101
M  END
> <chiral flag>
0

> <version>
0

> <s_m_source_file>
/data/baiqing/PycharmProjects/Reinvent-master-3.2/result/LINK_invent/BTK/process_docking_weight1_custom_product_contain_oxygen_bond_distance_aromatic_linkinvent_7_9_3/rearranged_h_0106.sdf

> <i_m_source_file_index>
5

> <r_mmod_Potential_Energy-OPLS-2005>
131.992263793945

> <r_mmod_Stretch_Energy-OPLS-2005>
96.5630722045898

> <r_mmod_Bend_Energy-OPLS-2005>
162.075653076172

> <r_mmod_Torsional_Energy-OPLS-2005>
184.193222045898

> <r_mmod_Improper_Torsional_Energy-OPLS-2005>
5.14990949630737

> <r_mmod_Van_der_Waal_Energy-OPLS-2005>
152.522598266602

> <r_mmod_Electrostatic_Energy-OPLS-2005>
-287.562408447266

> <r_mmod_Solvation_Energy-OPLS-2005>
-220.477661132812

> <b_mmod_Minimization_Converged-OPLS-2005>
0

> <r_mmod_RMS_Derivative-OPLS-2005>
0.768066585063934

$$$$
5
                    3D
 Structure written by MMmdl.
161169  0  0  1  0            999 V2000
  -30.6754  -14.5076   20.5418 C   0  0  0  0  0  0
  -30.4311  -12.3144   19.4411 C   0  0  0  0  0  0
  -29.5053  -12.4951   18.2178 C   0  0  0  0  0  0
  -28.0222  -12.3693   18.6205 C   0  0  0  0  0  0
  -27.6631  -13.2075   19.8768 C   0  0  2  0  0  0
  -28.7033  -12.9979   21.0013 C   0  0  0  0  0  0
  -25.2602  -13.8173   20.5680 C   0  0  0  0  0  0
  -24.1839  -13.0449   20.9143 C   0  0  0  0  0  0
  -24.6398  -11.6920   20.8721 C   0  0  0  0  0  0
  -23.9077  -10.4302   21.0405 C   0  0  0  0  0  0
  -24.3627   -9.4213   21.9183 C   0  0  0  0  0  0
  -23.6289   -8.2259   22.0758 C   0  0  0  0  0  0
  -22.4274   -8.0301   21.3545 C   0  0  0  0  0  0
  -21.9912   -9.0288   20.4665 C   0  0  0  0  0  0
  -22.7248  -10.2154   20.3064 C   0  0  0  0  0  0
  -21.6854   -6.0747   22.5274 C   0  0  0  0  0  0
  -21.4017   -6.5639   23.8208 C   0  0  0  0  0  0
  -21.3624   -5.6783   24.9158 C   0  0  0  0  0  0
  -21.6027   -4.3053   24.7207 C   0  0  0  0  0  0
  -21.8833   -3.8153   23.4326 C   0  0  0  0  0  0
  -21.9211   -4.6979   22.3390 C   0  0  0  0  0  0
  -22.7865  -13.5266   21.1807 C   0  0  0  0  0  0
  -22.1680   -4.2168   21.0966 F   0  0  0  0  0  0
  -21.5603   -3.4536   25.7718 F   0  0  0  0  0  0
  -30.0374  -13.3062   20.4573 N   0  0  0  0  0  0
  -26.3035  -12.9345   20.3377 N   0  0  0  0  0  0
  -25.9328  -11.6501   20.5764 N   0  0  0  0  0  0
  -22.0489  -12.8297   22.0381 N   0  0  0  0  0  0
  -25.4341  -15.1905   20.4152 N   0  0  0  0  0  0
  -31.7935  -14.7051   20.0579 O   0  0  0  0  0  0
  -21.6633   -6.8902   21.4245 O   0  0  0  0  0  0
  -22.3559  -14.5573   20.6652 O   0  0  0  0  0  0
  -24.6164  -31.8663   23.2098 C   0  0  0  0  0  0
  -25.9057  -32.4811   23.8390 C   0  0  1  0  0  0
  -27.2280  -27.4085   20.1121 C   0  0  0  0  0  0
  -25.5902  -33.8606   24.2326 N   0  0  0  0  0  0
  -23.4052  -30.4915   21.5494 C   0  0  2  0  0  0
  -24.8542  -28.9600   20.1098 C   0  0  0  0  0  0
  -22.7417  -29.4649   22.4963 C   0  0  0  0  0  0
  -18.0272  -28.1374   22.8485 C   0  0  0  0  0  0
  -24.1470  -36.7283   23.2642 C   0  0  0  0  0  0
  -25.9371  -30.8277   21.3668 C   0  0  0  0  0  0
  -26.0163  -29.4614   20.7114 C   0  0  0  0  0  0
  -27.2084  -28.6943   20.7079 C   0  0  0  0  0  0
  -26.0531  -26.9383   19.4860 C   0  0  0  0  0  0
  -24.8698  -27.6999   19.4888 C   0  0  0  0  0  0
  -23.6168  -29.8292   20.1620 C   0  0  0  0  0  0
  -25.4095  -36.3094   24.0344 C   0  0  1  0  0  0
  -20.5868  -28.3668   23.1301 C   0  0  2  0  0  0
  -20.6763  -26.9397   22.5421 C   0  0  0  0  0  0
  -19.5746  -26.6384   21.5204 C   0  0  0  0  0  0
  -18.1918  -26.7923   22.1608 C   0  0  0  0  0  0
  -19.1526  -28.8837   23.2892 C   0  0  0  0  0  0
  -18.9459  -30.1439   23.8913 C   0  0  0  0  0  0
  -17.6461  -30.6580   24.0567 C   0  0  0  0  0  0
  -25.9029  -34.9468   23.5132 C   0  0  0  0  0  0
  -16.5351  -29.9082   23.6332 C   0  0  0  0  0  0
  -16.7259  -28.6497   23.0355 C   0  0  0  0  0  0
  -26.4498  -31.6583   25.0712 C   0  0  0  0  0  0
  -25.3775  -31.3674   26.1466 C   0  0  0  0  0  0
  -27.0330  -30.3022   24.6085 C   0  0  0  0  0  0
  -27.6066  -32.4308   25.7481 C   0  0  0  0  0  0
  -27.5565  -37.1793   24.8472 C   0  0  0  0  0  0
  -21.4146  -29.3020   22.3692 N   0  0  0  0  0  0
  -26.4274  -37.3786   23.9426 N   0  0  0  0  0  0
  -24.6709  -31.0760   22.1002 N   0  0  0  0  0  0
  -23.4176  -28.8192   23.3017 O   0  0  0  0  0  0
  -28.3581  -26.6081   20.1425 O   0  0  0  0  0  0
  -26.5592  -34.8924   22.4693 O   0  0  0  0  0  0
  -23.5353  -32.1427   23.7483 O   0  0  0  0  0  0
  -29.1539  -16.6886   19.0688 C   0  0  0  0  0  0
  -29.5763  -17.9922   21.0709 C   0  0  0  0  0  0
  -28.5698  -17.8113   18.4528 C   0  0  0  0  0  0
  -28.4680  -19.0474   19.1553 C   0  0  0  0  0  0
  -29.6116  -16.7394   20.4000 C   0  0  0  0  0  0
  -29.0580  -19.1644   20.4495 C   0  0  0  0  0  0
  -28.0382  -17.6258   17.0639 C   0  0  0  0  0  0
  -27.6803  -20.2116   18.5564 C   0  0  0  0  0  0
  -29.0992  -24.1742   20.3637 C   0  0  0  0  0  0
  -28.7010  -22.7974   20.9886 C   0  0  0  0  0  0
  -28.1665  -25.3369   20.8148 C   0  0  0  0  0  0
  -29.5769  -21.5646   20.6093 C   0  0  0  0  0  0
  -26.7229  -17.4948   16.9642 N   0  0  0  0  0  0
  -29.9572  -15.5200   21.0784 N   0  0  0  0  0  0
  -28.7875  -17.5572   16.0929 O   0  0  0  0  0  0
  -29.0425  -20.3479   21.1825 O   0  0  0  0  0  0
  -31.4770  -12.4138   19.1427 H   0  0  0  0  0  0
  -30.3391  -11.3070   19.8488 H   0  0  0  0  0  0
  -29.7475  -11.7578   17.4521 H   0  0  0  0  0  0
  -29.6802  -13.4690   17.7604 H   0  0  0  0  0  0
  -27.8131  -11.3148   18.8045 H   0  0  0  0  0  0
  -27.3854  -12.6579   17.7840 H   0  0  0  0  0  0
  -27.7017  -14.2536   19.5795 H   0  0  0  0  0  0
  -28.6765  -11.9630   21.3458 H   0  0  0  0  0  0
  -28.4606  -13.6049   21.8753 H   0  0  0  0  0  0
  -25.2769   -9.5677   22.4756 H   0  0  0  0  0  0
  -23.9973   -7.4652   22.7482 H   0  0  0  0  0  0
  -21.0829   -8.8845   19.8982 H   0  0  0  0  0  0
  -22.3719  -10.9710   19.6187 H   0  0  0  0  0  0
  -21.2016   -7.6149   23.9716 H   0  0  0  0  0  0
  -21.1414   -6.0501   25.9054 H   0  0  0  0  0  0
  -22.0651   -2.7625   23.2821 H   0  0  0  0  0  0
  -22.4057  -11.9937   22.4772 H   0  0  0  0  0  0
  -21.1142  -13.1405   22.2625 H   0  0  0  0  0  0
  -24.6712  -15.8462   20.5387 H   0  0  0  0  0  0
  -26.3068  -15.6395   20.1674 H   0  0  0  0  0  0
  -26.7123  -32.5529   23.1144 H   0  0  0  0  0  0
  -25.0070  -33.9766   25.0487 H   0  0  0  0  0  0
  -22.6926  -31.3075   21.4116 H   0  0  0  0  0  0
  -23.3741  -35.9605   23.3326 H   0  0  0  0  0  0
  -24.3557  -36.8875   22.2049 H   0  0  0  0  0  0
  -23.7211  -37.6487   23.6648 H   0  0  0  0  0  0
  -26.0537  -31.5966   20.6021 H   0  0  0  0  0  0
  -26.8224  -30.8793   21.9883 H   0  0  0  0  0  0
  -28.1025  -29.0722   21.1842 H   0  0  0  0  0  0
  -26.0467  -25.9723   19.0015 H   0  0  0  0  0  0
  -23.9804  -27.3117   19.0121 H   0  0  0  0  0  0
  -23.7254  -30.6081   19.4055 H   0  0  0  0  0  0
  -22.7400  -29.2520   19.8632 H   0  0  0  0  0  0
  -25.1269  -36.1950   25.0833 H   0  0  0  0  0  0
  -20.9957  -28.3252   24.1420 H   0  0  0  0  0  0
  -20.5647  -26.2275   23.3612 H   0  0  0  0  0  0
  -21.6640  -26.7421   22.1235 H   0  0  0  0  0  0
  -19.6914  -25.6298   21.1225 H   0  0  0  0  0  0
  -19.6692  -27.3203   20.6741 H   0  0  0  0  0  0
  -17.4191  -26.6668   21.4007 H   0  0  0  0  0  0
  -18.0317  -26.0062   22.8999 H   0  0  0  0  0  0
  -19.7944  -30.7241   24.2290 H   0  0  0  0  0  0
  -17.5027  -31.6263   24.5163 H   0  0  0  0  0  0
  -15.5356  -30.2987   23.7660 H   0  0  0  0  0  0
  -15.8655  -28.0810   22.7085 H   0  0  0  0  0  0
  -24.5971  -30.6985   25.7819 H   0  0  0  0  0  0
  -24.8940  -32.2818   26.4911 H   0  0  0  0  0  0
  -25.8157  -30.8865   27.0221 H   0  0  0  0  0  0
  -26.2859  -29.6757   24.1194 H   0  0  0  0  0  0
  -27.4164  -29.7274   25.4526 H   0  0  0  0  0  0
  -27.8670  -30.4323   23.9185 H   0  0  0  0  0  0
  -27.2678  -33.3605   26.2061 H   0  0  0  0  0  0
  -28.3883  -32.6868   25.0317 H   0  0  0  0  0  0
  -28.0732  -31.8432   26.5399 H   0  0  0  0  0  0
  -28.2604  -38.0070   24.7515 H   0  0  0  0  0  0
  -28.1039  -36.2610   24.6303 H   0  0  0  0  0  0
  -27.2292  -37.1457   25.8877 H   0  0  0  0  0  0
  -20.9305  -29.8710   21.6892 H   0  0  0  0  0  0
  -26.0160  -38.2854   24.1460 H   0  0  0  0  0  0
  -29.1745  -15.7570   18.5208 H   0  0  0  0  0  0
  -29.9345  -18.0538   22.0886 H   0  0  0  0  0  0
  -26.8041  -19.8847   17.9995 H   0  0  0  0  0  0
  -28.3017  -20.8019   17.8832 H   0  0  0  0  0  0
  -27.2869  -20.8590   19.3368 H   0  0  0  0  0  0
  -29.0714  -24.0932   19.2767 H   0  0  0  0  0  0
  -30.1304  -24.4153   20.6255 H   0  0  0  0  0  0
  -27.6676  -22.5898   20.7127 H   0  0  0  0  0  0
  -28.6945  -22.8930   22.0752 H   0  0  0  0  0  0
  -28.3133  -25.5098   21.8819 H   0  0  0  0  0  0
  -27.1392  -24.9834   20.7258 H   0  0  0  0  0  0
  -30.5816  -21.7087   21.0084 H   0  0  0  0  0  0
  -29.7082  -21.5022   19.5314 H   0  0  0  0  0  0
  -26.1480  -17.5359   17.7923 H   0  0  0  0  0  0
  -26.2937  -17.3525   16.0618 H   0  0  0  0  0  0
  -29.2339  -15.1924   21.7009 H   0  0  0  0  0  0
  1 25  1  0  0  0
  1 30  2  0  0  0
  1 84  1  0  0  0
  2  3  1  0  0  0
  2 25  1  0  0  0
  2 87  1  0  0  0
  2 88  1  0  0  0
  3  4  1  0  0  0
  3 89  1  0  0  0
  3 90  1  0  0  0
  4  5  1  0  0  0
  4 91  1  0  0  0
  4 92  1  0  0  0
  5  6  1  0  0  0
  5 26  1  0  0  0
  5 93  1  0  0  0
  6 25  1  0  0  0
  6 94  1  0  0  0
  6 95  1  0  0  0
  7  8  2  0  0  0
  7 26  1  0  0  0
  7 29  1  0  0  0
  8  9  1  0  0  0
  8 22  1  0  0  0
  9 10  1  0  0  0
  9 27  2  0  0  0
 10 11  2  0  0  0
 10 15  1  0  0  0
 11 12  1  0  0  0
 11 96  1  0  0  0
 12 13  2  0  0  0
 12 97  1  0  0  0
 13 14  1  0  0  0
 13 31  1  0  0  0
 14 15  2  0  0  0
 14 98  1  0  0  0
 15 99  1  0  0  0
 16 17  2  0  0  0
 16 21  1  0  0  0
 16 31  1  0  0  0
 17 18  1  0  0  0
 17100  1  0  0  0
 18 19  2  0  0  0
 18101  1  0  0  0
 19 20  1  0  0  0
 19 24  1  0  0  0
 20 21  2  0  0  0
 20102  1  0  0  0
 21 23  1  0  0  0
 22 28  1  0  0  0
 22 32  2  0  0  0
 26 27  1  0  0  0
 28103  1  0  0  0
 28104  1  0  0  0
 29105  1  0  0  0
 29106  1  0  0  0
 33 34  1  0  0  0
 33 66  1  0  0  0
 33 70  2  0  0  0
 34 36  1  0  0  0
 34 59  1  0  0  0
 34107  1  0  0  0
 35 44  2  0  0  0
 35 45  1  0  0  0
 35 68  1  0  0  0
 36 56  1  0  0  0
 36108  1  0  0  0
 37 39  1  0  0  0
 37 47  1  0  0  0
 37 66  1  0  0  0
 37109  1  0  0  0
 38 43  2  0  0  0
 38 46  1  0  0  0
 38 47  1  0  0  0
 39 64  1  0  0  0
 39 67  2  0  0  0
 40 52  1  0  0  0
 40 53  2  0  0  0
 40 58  1  0  0  0
 41110  1  0  0  0
 41111  1  0  0  0
 41112  1  0  0  0
 41 48  1  0  0  0
 42 43  1  0  0  0
 42 66  1  0  0  0
 42113  1  0  0  0
 42114  1  0  0  0
 43 44  1  0  0  0
 44115  1  0  0  0
 45 46  2  0  0  0
 45116  1  0  0  0
 46117  1  0  0  0
 47118  1  0  0  0
 47119  1  0  0  0
 48 56  1  0  0  0
 48 65  1  0  0  0
 48120  1  0  0  0
 49 50  1  0  0  0
 49 53  1  0  0  0
 49 64  1  0  0  0
 49121  1  0  0  0
 50 51  1  0  0  0
 50122  1  0  0  0
 50123  1  0  0  0
 51 52  1  0  0  0
 51124  1  0  0  0
 51125  1  0  0  0
 52126  1  0  0  0
 52127  1  0  0  0
 53 54  1  0  0  0
 54 55  2  0  0  0
 54128  1  0  0  0
 55 57  1  0  0  0
 55129  1  0  0  0
 56 69  2  0  0  0
 57 58  2  0  0  0
 57130  1  0  0  0
 58131  1  0  0  0
 59 60  1  0  0  0
 59 61  1  0  0  0
 59 62  1  0  0  0
 60132  1  0  0  0
 60133  1  0  0  0
 60134  1  0  0  0
 61135  1  0  0  0
 61136  1  0  0  0
 61137  1  0  0  0
 62138  1  0  0  0
 62139  1  0  0  0
 62140  1  0  0  0
 63 65  1  0  0  0
 63141  1  0  0  0
 63142  1  0  0  0
 63143  1  0  0  0
 64144  1  0  0  0
 65145  1  0  0  0
 68 81  1  0  0  0
 71 73  2  0  0  0
 71 75  1  0  0  0
 71146  1  0  0  0
 72 75  2  0  0  0
 72 76  1  0  0  0
 72147  1  0  0  0
 73 74  1  0  0  0
 73 77  1  0  0  0
 74 76  2  0  0  0
 74 78  1  0  0  0
 75 84  1  0  0  0
 76 86  1  0  0  0
 77 83  1  0  0  0
 77 85  2  0  0  0
 78148  1  0  0  0
 78149  1  0  0  0
 78150  1  0  0  0
 79 80  1  0  0  0
 79 81  1  0  0  0
 79151  1  0  0  0
 79152  1  0  0  0
 80 82  1  0  0  0
 80153  1  0  0  0
 80154  1  0  0  0
 81155  1  0  0  0
 81156  1  0  0  0
 82 86  1  0  0  0
 82157  1  0  0  0
 82158  1  0  0  0
 83159  1  0  0  0
 83160  1  0  0  0
 84161  1  0  0  0
M  ISO  4   1 100  68 101  81 101  84 100
M  END
> <chiral flag>
0

> <version>
0

> <s_m_source_file>
/data/baiqing/PycharmProjects/Reinvent-master-3.2/result/LINK_invent/BTK/process_docking_weight1_custom_product_contain_oxygen_bond_distance_aromatic_linkinvent_7_9_3/rearranged_h_0106.sdf

> <i_m_source_file_index>
6

> <r_mmod_Potential_Energy-OPLS-2005>
-119.648231506348

> <r_mmod_Stretch_Energy-OPLS-2005>
48.0432395935059

> <r_mmod_Bend_Energy-OPLS-2005>
105.693176269531

> <r_mmod_Torsional_Energy-OPLS-2005>
321.278228759766

> <r_mmod_Improper_Torsional_Energy-OPLS-2005>
7.00361442565918

> <r_mmod_Van_der_Waal_Energy-OPLS-2005>
148.656021118164

> <r_mmod_Electrostatic_Energy-OPLS-2005>
-518.594482421875

> <r_mmod_Solvation_Energy-OPLS-2005>
-250.193481445312

> <b_mmod_Minimization_Converged-OPLS-2005>
0

> <r_mmod_RMS_Derivative-OPLS-2005>
2.1891040802002

$$$$
6
                    3D
 Structure written by MMmdl.
162170  0  0  1  0            999 V2000
  -30.6280  -14.7540   20.3826 C   0  0  0  0  0  0
  -30.4369  -12.4509   19.4586 C   0  0  0  0  0  0
  -29.4956  -12.4066   18.2347 C   0  0  0  0  0  0
  -28.0261  -12.2766   18.6729 C   0  0  0  0  0  0
  -27.6342  -13.2247   19.8385 C   0  0  2  0  0  0
  -28.6894  -13.2223   20.9603 C   0  0  0  0  0  0
  -25.2487  -13.8194   20.5754 C   0  0  0  0  0  0
  -24.1752  -13.0449   20.9218 C   0  0  0  0  0  0
  -24.6346  -11.6921   20.8801 C   0  0  0  0  0  0
  -23.9048  -10.4281   21.0415 C   0  0  0  0  0  0
  -24.3598   -9.4192   21.9188 C   0  0  0  0  0  0
  -23.6277   -8.2227   22.0760 C   0  0  0  0  0  0
  -22.4266   -8.0274   21.3530 C   0  0  0  0  0  0
  -21.9893   -9.0253   20.4641 C   0  0  0  0  0  0
  -22.7228  -10.2133   20.3057 C   0  0  0  0  0  0
  -21.6849   -6.0718   22.5269 C   0  0  0  0  0  0
  -21.4019   -6.5628   23.8203 C   0  0  0  0  0  0
  -21.3677   -5.6787   24.9172 C   0  0  0  0  0  0
  -21.6053   -4.3045   24.7226 C   0  0  0  0  0  0
  -21.8813   -3.8132   23.4347 C   0  0  0  0  0  0
  -21.9178   -4.6944   22.3400 C   0  0  0  0  0  0
  -22.7779  -13.5241   21.1832 C   0  0  0  0  0  0
  -22.1633   -4.2126   21.0976 F   0  0  0  0  0  0
  -21.5631   -3.4534   25.7740 F   0  0  0  0  0  0
  -29.9749  -13.5458   20.3366 N   0  0  0  0  0  0
  -26.2908  -12.9394   20.3341 N   0  0  0  0  0  0
  -25.9288  -11.6553   20.5866 N   0  0  0  0  0  0
  -22.0389  -12.8271   22.0394 N   0  0  0  0  0  0
  -25.4202  -15.1917   20.4180 N   0  0  0  0  0  0
  -31.8596  -14.7558   20.3053 O   0  0  0  0  0  0
  -21.6639   -6.8867   21.4225 O   0  0  0  0  0  0
  -22.3492  -14.5536   20.6655 O   0  0  0  0  0  0
  -24.6312  -31.8548   23.1965 C   0  0  0  0  0  0
  -25.9151  -32.4741   23.8290 C   0  0  1  0  0  0
  -27.2200  -27.2874   20.1414 C   0  0  0  0  0  0
  -25.5935  -33.8541   24.2216 N   0  0  0  0  0  0
  -23.4255  -30.4800   21.5385 C   0  0  2  0  0  0
  -24.8704  -28.9204   20.1171 C   0  0  0  0  0  0
  -22.7480  -29.4636   22.4897 C   0  0  0  0  0  0
  -18.0293  -28.1409   22.8472 C   0  0  0  0  0  0
  -24.1497  -36.7284   23.2640 C   0  0  0  0  0  0
  -25.9697  -30.7804   21.3687 C   0  0  0  0  0  0
  -26.0433  -29.4055   20.7109 C   0  0  0  0  0  0
  -27.2251  -28.6052   20.7001 C   0  0  0  0  0  0
  -26.0245  -26.8511   19.5358 C   0  0  0  0  0  0
  -24.8616  -27.6482   19.5226 C   0  0  0  0  0  0
  -23.6427  -29.8072   20.1574 C   0  0  0  0  0  0
  -25.4120  -36.3068   24.0322 C   0  0  1  0  0  0
  -20.5893  -28.3728   23.1246 C   0  0  2  0  0  0
  -20.6781  -26.9443   22.5397 C   0  0  0  0  0  0
  -19.5752  -26.6399   21.5204 C   0  0  0  0  0  0
  -18.1937  -26.7949   22.1619 C   0  0  0  0  0  0
  -19.1544  -28.8884   23.2863 C   0  0  0  0  0  0
  -18.9473  -30.1479   23.8885 C   0  0  0  0  0  0
  -17.6473  -30.6604   24.0580 C   0  0  0  0  0  0
  -25.9063  -34.9440   23.5078 C   0  0  0  0  0  0
  -16.5363  -29.9105   23.6346 C   0  0  0  0  0  0
  -16.7280  -28.6534   23.0347 C   0  0  0  0  0  0
  -26.4518  -31.6569   25.0681 C   0  0  0  0  0  0
  -25.3734  -31.3723   26.1388 C   0  0  0  0  0  0
  -27.0365  -30.2972   24.6198 C   0  0  0  0  0  0
  -27.6054  -32.4323   25.7458 C   0  0  0  0  0  0
  -27.5581  -37.1791   24.8462 C   0  0  0  0  0  0
  -21.4195  -29.3066   22.3619 N   0  0  0  0  0  0
  -26.4297  -37.3763   23.9406 N   0  0  0  0  0  0
  -24.6945  -31.0558   22.0909 N   0  0  0  0  0  0
  -23.4185  -28.8179   23.2997 O   0  0  0  0  0  0
  -28.3343  -26.4315   20.1632 O   0  0  0  0  0  0
  -26.5656  -34.8927   22.4652 O   0  0  0  0  0  0
  -23.5471  -32.1351   23.7288 O   0  0  0  0  0  0
  -30.3505  -19.5150   21.0365 C   0  0  0  0  0  0
  -28.4018  -17.8091   20.0666 C   0  0  0  0  0  0
  -30.6319  -18.1157   20.8907 C   0  0  0  0  0  0
  -29.1273  -20.1229   20.6409 C   0  0  0  0  0  0
  -29.6623  -17.2040   20.3580 C   0  0  0  0  0  0
  -28.1321  -19.2213   20.1724 C   0  0  0  0  0  0
  -28.9657  -22.3735   19.7911 C   0  0  0  0  0  0
  -28.7857  -23.9369   19.5445 C   0  0  0  0  0  0
  -32.0271  -17.6557   21.2670 C   0  0  0  0  0  0
  -29.0319  -16.1550   17.4395 C   0  0  0  0  0  0
  -25.8729  -18.9505   19.3854 C   0  0  0  0  0  0
  -28.1478  -24.9888   20.5392 C   0  0  0  0  0  0
  -30.2496  -15.9502   18.3638 C   0  0  0  0  0  0
  -28.8872  -21.5456   20.7966 N   0  0  0  0  0  0
  -29.9481  -15.8422   19.8162 N   0  0  0  0  0  0
  -29.1476  -24.3830   18.4479 O   0  0  0  0  0  0
  -26.9297  -19.7969   19.8121 O   0  0  0  0  0  0
  -31.4692  -12.5919   19.1292 H   0  0  0  0  0  0
  -30.4214  -11.5045   20.0006 H   0  0  0  0  0  0
  -29.7620  -11.5588   17.6006 H   0  0  0  0  0  0
  -29.6117  -13.2892   17.6104 H   0  0  0  0  0  0
  -27.8820  -11.2407   18.9841 H   0  0  0  0  0  0
  -27.3619  -12.4300   17.8221 H   0  0  0  0  0  0
  -27.6093  -14.2309   19.4238 H   0  0  0  0  0  0
  -28.7332  -12.2565   21.4630 H   0  0  0  0  0  0
  -28.4425  -13.9686   21.7182 H   0  0  0  0  0  0
  -25.2723   -9.5676   22.4792 H   0  0  0  0  0  0
  -23.9965   -7.4624   22.7504 H   0  0  0  0  0  0
  -21.0811   -8.8798   19.8961 H   0  0  0  0  0  0
  -22.3680  -10.9683   19.6190 H   0  0  0  0  0  0
  -21.2024   -7.6138   23.9708 H   0  0  0  0  0  0
  -21.1510   -6.0510   25.9076 H   0  0  0  0  0  0
  -22.0574   -2.7587   23.2860 H   0  0  0  0  0  0
  -22.4003  -12.0002   22.4885 H   0  0  0  0  0  0
  -21.1006  -13.1318   22.2549 H   0  0  0  0  0  0
  -24.6566  -15.8477   20.5442 H   0  0  0  0  0  0
  -26.2868  -15.6263   20.1368 H   0  0  0  0  0  0
  -26.7218  -32.5394   23.1034 H   0  0  0  0  0  0
  -25.0044  -33.9637   25.0339 H   0  0  0  0  0  0
  -22.7230  -31.3028   21.3880 H   0  0  0  0  0  0
  -23.3754  -35.9625   23.3300 H   0  0  0  0  0  0
  -24.3595  -36.8904   22.2055 H   0  0  0  0  0  0
  -23.7251  -37.6484   23.6664 H   0  0  0  0  0  0
  -26.1137  -31.5448   20.6034 H   0  0  0  0  0  0
  -26.8455  -30.8195   22.0063 H   0  0  0  0  0  0
  -28.1315  -28.9787   21.1573 H   0  0  0  0  0  0
  -25.9734  -25.8720   19.0828 H   0  0  0  0  0  0
  -23.9596  -27.2603   19.0712 H   0  0  0  0  0  0
  -23.7738  -30.5785   19.3970 H   0  0  0  0  0  0
  -22.7596  -29.2427   19.8532 H   0  0  0  0  0  0
  -25.1311  -36.1910   25.0818 H   0  0  0  0  0  0
  -21.0007  -28.3333   24.1357 H   0  0  0  0  0  0
  -20.5674  -26.2350   23.3615 H   0  0  0  0  0  0
  -21.6651  -26.7463   22.1191 H   0  0  0  0  0  0
  -19.6914  -25.6305   21.1247 H   0  0  0  0  0  0
  -19.6685  -27.3200   20.6726 H   0  0  0  0  0  0
  -17.4201  -26.6692   21.4033 H   0  0  0  0  0  0
  -18.0347  -26.0100   22.9026 H   0  0  0  0  0  0
  -19.7953  -30.7304   24.2231 H   0  0  0  0  0  0
  -17.5037  -31.6275   24.5198 H   0  0  0  0  0  0
  -15.5366  -30.3012   23.7677 H   0  0  0  0  0  0
  -15.8682  -28.0868   22.7039 H   0  0  0  0  0  0
  -24.5909  -30.7083   25.7700 H   0  0  0  0  0  0
  -24.8933  -32.2894   26.4803 H   0  0  0  0  0  0
  -25.8035  -30.8886   27.0164 H   0  0  0  0  0  0
  -26.2946  -29.6680   24.1259 H   0  0  0  0  0  0
  -27.4052  -29.7282   25.4744 H   0  0  0  0  0  0
  -27.8829  -30.4200   23.9436 H   0  0  0  0  0  0
  -27.2638  -33.3616   26.2026 H   0  0  0  0  0  0
  -28.3866  -32.6889   25.0294 H   0  0  0  0  0  0
  -28.0730  -31.8462   26.5375 H   0  0  0  0  0  0
  -28.2608  -38.0087   24.7527 H   0  0  0  0  0  0
  -28.1078  -36.2614   24.6285 H   0  0  0  0  0  0
  -27.2303  -37.1443   25.8871 H   0  0  0  0  0  0
  -20.9385  -29.8763   21.6797 H   0  0  0  0  0  0
  -26.0176  -38.2846   24.1388 H   0  0  0  0  0  0
  -31.1216  -20.1583   21.4351 H   0  0  0  0  0  0
  -27.6471  -17.1541   19.6624 H   0  0  0  0  0  0
  -29.2496  -21.8975   18.8477 H   0  0  0  0  0  0
  -32.5704  -18.4421   21.7907 H   0  0  0  0  0  0
  -32.6041  -17.3948   20.3800 H   0  0  0  0  0  0
  -31.9857  -16.7958   21.9331 H   0  0  0  0  0  0
  -29.3523  -16.1089   16.3975 H   0  0  0  0  0  0
  -28.5641  -17.1304   17.5611 H   0  0  0  0  0  0
  -28.2724  -15.3852   17.5739 H   0  0  0  0  0  0
  -25.0081  -19.5587   19.1223 H   0  0  0  0  0  0
  -25.5709  -18.2767   20.1869 H   0  0  0  0  0  0
  -26.1480  -18.3701   18.5051 H   0  0  0  0  0  0
  -28.5865  -24.8298   21.5246 H   0  0  0  0  0  0
  -27.0918  -24.7467   20.6468 H   0  0  0  0  0  0
  -30.8001  -15.0895   17.9795 H   0  0  0  0  0  0
  -30.9404  -16.7805   18.2212 H   0  0  0  0  0  0
  1 25  1  0  0  0
  1 30  2  0  0  0
  1 85  1  0  0  0
  2  3  1  0  0  0
  2 25  1  0  0  0
  2 88  1  0  0  0
  2 89  1  0  0  0
  3  4  1  0  0  0
  3 90  1  0  0  0
  3 91  1  0  0  0
  4  5  1  0  0  0
  4 92  1  0  0  0
  4 93  1  0  0  0
  5  6  1  0  0  0
  5 26  1  0  0  0
  5 94  1  0  0  0
  6 25  1  0  0  0
  6 95  1  0  0  0
  6 96  1  0  0  0
  7  8  2  0  0  0
  7 26  1  0  0  0
  7 29  1  0  0  0
  8  9  1  0  0  0
  8 22  1  0  0  0
  9 10  1  0  0  0
  9 27  2  0  0  0
 10 11  2  0  0  0
 10 15  1  0  0  0
 11 12  1  0  0  0
 11 97  1  0  0  0
 12 13  2  0  0  0
 12 98  1  0  0  0
 13 14  1  0  0  0
 13 31  1  0  0  0
 14 15  2  0  0  0
 14 99  1  0  0  0
 15100  1  0  0  0
 16 17  2  0  0  0
 16 21  1  0  0  0
 16 31  1  0  0  0
 17 18  1  0  0  0
 17101  1  0  0  0
 18 19  2  0  0  0
 18102  1  0  0  0
 19 20  1  0  0  0
 19 24  1  0  0  0
 20 21  2  0  0  0
 20103  1  0  0  0
 21 23  1  0  0  0
 22 28  1  0  0  0
 22 32  2  0  0  0
 26 27  1  0  0  0
 28104  1  0  0  0
 28105  1  0  0  0
 29106  1  0  0  0
 29107  1  0  0  0
 33 34  1  0  0  0
 33 66  1  0  0  0
 33 70  2  0  0  0
 34 36  1  0  0  0
 34 59  1  0  0  0
 34108  1  0  0  0
 35 44  2  0  0  0
 35 45  1  0  0  0
 35 68  1  0  0  0
 36 56  1  0  0  0
 36109  1  0  0  0
 37 39  1  0  0  0
 37 47  1  0  0  0
 37 66  1  0  0  0
 37110  1  0  0  0
 38 43  2  0  0  0
 38 46  1  0  0  0
 38 47  1  0  0  0
 39 64  1  0  0  0
 39 67  2  0  0  0
 40 52  1  0  0  0
 40 53  2  0  0  0
 40 58  1  0  0  0
 41111  1  0  0  0
 41112  1  0  0  0
 41113  1  0  0  0
 41 48  1  0  0  0
 42 43  1  0  0  0
 42 66  1  0  0  0
 42114  1  0  0  0
 42115  1  0  0  0
 43 44  1  0  0  0
 44116  1  0  0  0
 45 46  2  0  0  0
 45117  1  0  0  0
 46118  1  0  0  0
 47119  1  0  0  0
 47120  1  0  0  0
 48 56  1  0  0  0
 48 65  1  0  0  0
 48121  1  0  0  0
 49 50  1  0  0  0
 49 53  1  0  0  0
 49 64  1  0  0  0
 49122  1  0  0  0
 50 51  1  0  0  0
 50123  1  0  0  0
 50124  1  0  0  0
 51 52  1  0  0  0
 51125  1  0  0  0
 51126  1  0  0  0
 52127  1  0  0  0
 52128  1  0  0  0
 53 54  1  0  0  0
 54 55  2  0  0  0
 54129  1  0  0  0
 55 57  1  0  0  0
 55130  1  0  0  0
 56 69  2  0  0  0
 57 58  2  0  0  0
 57131  1  0  0  0
 58132  1  0  0  0
 59 60  1  0  0  0
 59 61  1  0  0  0
 59 62  1  0  0  0
 60133  1  0  0  0
 60134  1  0  0  0
 60135  1  0  0  0
 61136  1  0  0  0
 61137  1  0  0  0
 61138  1  0  0  0
 62139  1  0  0  0
 62140  1  0  0  0
 62141  1  0  0  0
 63 65  1  0  0  0
 63142  1  0  0  0
 63143  1  0  0  0
 63144  1  0  0  0
 64145  1  0  0  0
 65146  1  0  0  0
 68 82  1  0  0  0
 71 73  2  0  0  0
 71 74  1  0  0  0
 71147  1  0  0  0
 72 75  2  0  0  0
 72 76  1  0  0  0
 72148  1  0  0  0
 73 75  1  0  0  0
 73 79  1  0  0  0
 74 76  2  0  0  0
 74 84  1  0  0  0
 75 85  1  0  0  0
 76 87  1  0  0  0
 77 78  1  0  0  0
 77 84  2  0  0  0
 77149  1  0  0  0
 78 82  1  0  0  0
 78 86  2  0  0  0
 79150  1  0  0  0
 79151  1  0  0  0
 79152  1  0  0  0
 80 83  1  0  0  0
 80153  1  0  0  0
 80154  1  0  0  0
 80155  1  0  0  0
 81 87  1  0  0  0
 81156  1  0  0  0
 81157  1  0  0  0
 81158  1  0  0  0
 82159  1  0  0  0
 82160  1  0  0  0
 83 85  1  0  0  0
 83161  1  0  0  0
 83162  1  0  0  0
M  ISO  4   1 100  68 101  82 101  85 100
M  END
> <chiral flag>
0

> <version>
0

> <s_m_source_file>
/data/baiqing/PycharmProjects/Reinvent-master-3.2/result/LINK_invent/BTK/process_docking_weight1_custom_product_contain_oxygen_bond_distance_aromatic_linkinvent_7_9_3/rearranged_h_0106.sdf

> <i_m_source_file_index>
7

> <r_mmod_Potential_Energy-OPLS-2005>
461.227416992188

> <r_mmod_Stretch_Energy-OPLS-2005>
113.156005859375

> <r_mmod_Bend_Energy-OPLS-2005>
190.06982421875

> <r_mmod_Torsional_Energy-OPLS-2005>
357.599731445312

> <r_mmod_Improper_Torsional_Energy-OPLS-2005>
32.8626136779785

> <r_mmod_Van_der_Waal_Energy-OPLS-2005>
142.206787109375

> <r_mmod_Electrostatic_Energy-OPLS-2005>
-254.787384033203

> <r_mmod_Solvation_Energy-OPLS-2005>
-213.569625854492

> <b_mmod_Minimization_Converged-OPLS-2005>
0

> <r_mmod_RMS_Derivative-OPLS-2005>
3.25823044776917

$$$$
7
                    3D
 Structure written by MMmdl.
155163  0  0  1  0            999 V2000
  -30.6332  -14.6286   20.4972 C   0  0  0  0  0  0
  -30.4365  -12.3842   19.4506 C   0  0  0  0  0  0
  -29.5081  -12.5156   18.2232 C   0  0  0  0  0  0
  -28.0297  -12.3562   18.6339 C   0  0  0  0  0  0
  -27.6551  -13.2211   19.8677 C   0  0  2  0  0  0
  -28.7020  -13.0679   20.9952 C   0  0  0  0  0  0
  -25.2557  -13.8179   20.5706 C   0  0  0  0  0  0
  -24.1811  -13.0432   20.9141 C   0  0  0  0  0  0
  -24.6391  -11.6907   20.8699 C   0  0  0  0  0  0
  -23.9059  -10.4289   21.0379 C   0  0  0  0  0  0
  -24.3610   -9.4215   21.9168 C   0  0  0  0  0  0
  -23.6288   -8.2250   22.0748 C   0  0  0  0  0  0
  -22.4267   -8.0281   21.3547 C   0  0  0  0  0  0
  -21.9899   -9.0250   20.4648 C   0  0  0  0  0  0
  -22.7227  -10.2128   20.3041 C   0  0  0  0  0  0
  -21.6854   -6.0730   22.5279 C   0  0  0  0  0  0
  -21.4016   -6.5633   23.8214 C   0  0  0  0  0  0
  -21.3660   -5.6788   24.9176 C   0  0  0  0  0  0
  -21.6043   -4.3050   24.7224 C   0  0  0  0  0  0
  -21.8818   -3.8143   23.4346 C   0  0  0  0  0  0
  -21.9196   -4.6960   22.3404 C   0  0  0  0  0  0
  -22.7837  -13.5225   21.1828 C   0  0  0  0  0  0
  -22.1663   -4.2151   21.0980 F   0  0  0  0  0  0
  -21.5629   -3.4534   25.7734 F   0  0  0  0  0  0
  -30.0198  -13.4049   20.4317 N   0  0  0  0  0  0
  -26.3011  -12.9378   20.3368 N   0  0  0  0  0  0
  -25.9333  -11.6519   20.5746 N   0  0  0  0  0  0
  -22.0485  -12.8221   22.0396 N   0  0  0  0  0  0
  -25.4242  -15.1912   20.4251 N   0  0  0  0  0  0
  -31.7938  -14.7858   20.1081 O   0  0  0  0  0  0
  -21.6640   -6.8874   21.4241 O   0  0  0  0  0  0
  -22.3511  -14.5534   20.6692 O   0  0  0  0  0  0
  -24.6253  -31.8611   23.2035 C   0  0  0  0  0  0
  -25.9105  -32.4786   23.8367 C   0  0  1  0  0  0
  -27.2254  -27.3292   20.1171 C   0  0  0  0  0  0
  -25.5923  -33.8584   24.2296 N   0  0  0  0  0  0
  -23.4192  -30.4842   21.5462 C   0  0  2  0  0  0
  -24.8670  -28.9415   20.1120 C   0  0  0  0  0  0
  -22.7475  -29.4628   22.4944 C   0  0  0  0  0  0
  -18.0286  -28.1380   22.8491 C   0  0  0  0  0  0
  -24.1489  -36.7293   23.2641 C   0  0  0  0  0  0
  -25.9597  -30.7950   21.3741 C   0  0  0  0  0  0
  -26.0355  -29.4224   20.7172 C   0  0  0  0  0  0
  -27.2199  -28.6276   20.7105 C   0  0  0  0  0  0
  -26.0395  -26.9053   19.4769 C   0  0  0  0  0  0
  -24.8705  -27.6878   19.4827 C   0  0  0  0  0  0
  -23.6342  -29.8195   20.1614 C   0  0  0  0  0  0
  -25.4112  -36.3089   24.0337 C   0  0  1  0  0  0
  -20.5888  -28.3683   23.1289 C   0  0  2  0  0  0
  -20.6772  -26.9408   22.5414 C   0  0  0  0  0  0
  -19.5748  -26.6384   21.5214 C   0  0  0  0  0  0
  -18.1928  -26.7926   22.1627 C   0  0  0  0  0  0
  -19.1539  -28.8849   23.2884 C   0  0  0  0  0  0
  -18.9459  -30.1454   23.8896 C   0  0  0  0  0  0
  -17.6459  -30.6586   24.0560 C   0  0  0  0  0  0
  -25.9044  -34.9454   23.5113 C   0  0  0  0  0  0
  -16.5352  -29.9084   23.6326 C   0  0  0  0  0  0
  -16.7274  -28.6499   23.0352 C   0  0  0  0  0  0
  -26.4492  -31.6590   25.0734 C   0  0  0  0  0  0
  -25.3728  -31.3723   26.1466 C   0  0  0  0  0  0
  -27.0326  -30.3015   24.6172 C   0  0  0  0  0  0
  -27.6065  -32.4317   25.7496 C   0  0  0  0  0  0
  -27.5575  -37.1805   24.8466 C   0  0  0  0  0  0
  -21.4189  -29.3041   22.3688 N   0  0  0  0  0  0
  -26.4292  -37.3777   23.9406 N   0  0  0  0  0  0
  -24.6869  -31.0631   22.0985 N   0  0  0  0  0  0
  -23.4202  -28.8163   23.3016 O   0  0  0  0  0  0
  -28.3324  -26.4720   20.1467 O   0  0  0  0  0  0
  -26.5611  -34.8918   22.4677 O   0  0  0  0  0  0
  -23.5417  -32.1403   23.7364 O   0  0  0  0  0  0
  -30.9613  -17.8277   20.0379 C   0  0  0  0  0  0
  -28.7555  -19.3170   20.9490 C   0  0  0  0  0  0
  -30.9025  -19.2422   19.8529 C   0  0  0  0  0  0
  -28.8150  -17.9013   21.1393 C   0  0  0  0  0  0
  -29.9116  -17.1194   20.6826 C   0  0  0  0  0  0
  -29.8024  -20.0268   20.3057 C   0  0  0  0  0  0
  -29.0994  -23.9700   20.1642 C   0  0  0  0  0  0
  -28.8090  -22.4556   20.5276 C   0  0  0  0  0  0
  -28.0505  -25.0768   20.5643 C   0  0  0  0  0  0
  -31.9429  -19.8879   19.1806 N   0  0  0  0  0  0
  -27.7662  -17.2529   21.7971 N   0  0  0  0  0  0
  -29.8350  -15.6714   20.8716 N   0  0  0  0  0  0
  -29.8254  -21.4470   20.0921 N   0  0  0  0  0  0
  -30.1460  -24.2696   19.5777 O   0  0  0  0  0  0
  -31.4799  -12.4983   19.1522 H   0  0  0  0  0  0
  -30.3588  -11.3875   19.8873 H   0  0  0  0  0  0
  -29.7706  -11.7732   17.4683 H   0  0  0  0  0  0
  -29.6551  -13.4909   17.7560 H   0  0  0  0  0  0
  -27.8609  -11.3025   18.8573 H   0  0  0  0  0  0
  -27.3778  -12.5983   17.7935 H   0  0  0  0  0  0
  -27.6732  -14.2587   19.5330 H   0  0  0  0  0  0
  -28.7097  -12.0449   21.3745 H   0  0  0  0  0  0
  -28.4506  -13.6975   21.8496 H   0  0  0  0  0  0
  -25.2753   -9.5697   22.4747 H   0  0  0  0  0  0
  -24.0003   -7.4640   22.7465 H   0  0  0  0  0  0
  -21.0832   -8.8763   19.8955 H   0  0  0  0  0  0
  -22.3681  -10.9660   19.6146 H   0  0  0  0  0  0
  -21.2006   -7.6139   23.9712 H   0  0  0  0  0  0
  -21.1483   -6.0520   25.9078 H   0  0  0  0  0  0
  -22.0595   -2.7609   23.2846 H   0  0  0  0  0  0
  -22.4092  -11.9881   22.4793 H   0  0  0  0  0  0
  -21.1109  -13.1260   22.2610 H   0  0  0  0  0  0
  -24.6673  -15.8415   20.6021 H   0  0  0  0  0  0
  -26.3192  -15.6598   20.3271 H   0  0  0  0  0  0
  -26.7177  -32.5462   23.1123 H   0  0  0  0  0  0
  -25.0076  -33.9734   25.0448 H   0  0  0  0  0  0
  -22.7124  -31.3042   21.4037 H   0  0  0  0  0  0
  -23.3743  -35.9633   23.3327 H   0  0  0  0  0  0
  -24.3576  -36.8884   22.2050 H   0  0  0  0  0  0
  -23.7254  -37.6510   23.6641 H   0  0  0  0  0  0
  -26.0899  -31.5589   20.6060 H   0  0  0  0  0  0
  -26.8406  -30.8448   22.0024 H   0  0  0  0  0  0
  -28.1162  -28.9910   21.1932 H   0  0  0  0  0  0
  -25.9999  -25.9566   18.9621 H   0  0  0  0  0  0
  -23.9776  -27.3191   18.9971 H   0  0  0  0  0  0
  -23.7517  -30.5955   19.4042 H   0  0  0  0  0  0
  -22.7555  -29.2467   19.8604 H   0  0  0  0  0  0
  -25.1291  -36.1945   25.0828 H   0  0  0  0  0  0
  -20.9981  -28.3250   24.1411 H   0  0  0  0  0  0
  -20.5678  -26.2287   23.3606 H   0  0  0  0  0  0
  -21.6640  -26.7438   22.1204 H   0  0  0  0  0  0
  -19.6906  -25.6293   21.1243 H   0  0  0  0  0  0
  -19.6684  -27.3193   20.6738 H   0  0  0  0  0  0
  -17.4199  -26.6679   21.4026 H   0  0  0  0  0  0
  -18.0325  -26.0066   22.9021 H   0  0  0  0  0  0
  -19.7935  -30.7270   24.2268 H   0  0  0  0  0  0
  -17.5013  -31.6262   24.5163 H   0  0  0  0  0  0
  -15.5350  -30.2983   23.7647 H   0  0  0  0  0  0
  -15.8674  -28.0811   22.7073 H   0  0  0  0  0  0
  -24.5893  -30.7088   25.7790 H   0  0  0  0  0  0
  -24.8932  -32.2884   26.4915 H   0  0  0  0  0  0
  -25.8055  -30.8877   27.0225 H   0  0  0  0  0  0
  -26.2888  -29.6777   24.1205 H   0  0  0  0  0  0
  -27.4037  -29.7266   25.4666 H   0  0  0  0  0  0
  -27.8755  -30.4308   23.9382 H   0  0  0  0  0  0
  -27.2694  -33.3622   26.2072 H   0  0  0  0  0  0
  -28.3870  -32.6861   25.0315 H   0  0  0  0  0  0
  -28.0737  -31.8439   26.5408 H   0  0  0  0  0  0
  -28.2608  -38.0087   24.7491 H   0  0  0  0  0  0
  -28.1055  -36.2615   24.6316 H   0  0  0  0  0  0
  -27.2290  -37.1492   25.8871 H   0  0  0  0  0  0
  -20.9368  -29.8764   21.6899 H   0  0  0  0  0  0
  -26.0176  -38.2857   24.1388 H   0  0  0  0  0  0
  -31.8144  -17.2839   19.6605 H   0  0  0  0  0  0
  -27.8975  -19.8646   21.3095 H   0  0  0  0  0  0
  -27.8441  -22.1899   20.0940 H   0  0  0  0  0  0
  -28.6896  -22.3902   21.6096 H   0  0  0  0  0  0
  -27.9701  -25.0699   21.6511 H   0  0  0  0  0  0
  -27.0889  -24.7265   20.1966 H   0  0  0  0  0  0
  -32.5668  -19.2989   18.6398 H   0  0  0  0  0  0
  -31.6569  -20.7012   18.6469 H   0  0  0  0  0  0
  -27.0719  -17.8588   22.2208 H   0  0  0  0  0  0
  -28.0448  -16.5373   22.4584 H   0  0  0  0  0  0
  -28.9287  -15.3807   21.2040 H   0  0  0  0  0  0
  -30.7244  -21.8360   19.8212 H   0  0  0  0  0  0
  1 25  1  0  0  0
  1 30  2  0  0  0
  1 82  1  0  0  0
  2  3  1  0  0  0
  2 25  1  0  0  0
  2 85  1  0  0  0
  2 86  1  0  0  0
  3  4  1  0  0  0
  3 87  1  0  0  0
  3 88  1  0  0  0
  4  5  1  0  0  0
  4 89  1  0  0  0
  4 90  1  0  0  0
  5  6  1  0  0  0
  5 26  1  0  0  0
  5 91  1  0  0  0
  6 25  1  0  0  0
  6 92  1  0  0  0
  6 93  1  0  0  0
  7  8  2  0  0  0
  7 26  1  0  0  0
  7 29  1  0  0  0
  8  9  1  0  0  0
  8 22  1  0  0  0
  9 10  1  0  0  0
  9 27  2  0  0  0
 10 11  2  0  0  0
 10 15  1  0  0  0
 11 12  1  0  0  0
 11 94  1  0  0  0
 12 13  2  0  0  0
 12 95  1  0  0  0
 13 14  1  0  0  0
 13 31  1  0  0  0
 14 15  2  0  0  0
 14 96  1  0  0  0
 15 97  1  0  0  0
 16 17  2  0  0  0
 16 21  1  0  0  0
 16 31  1  0  0  0
 17 18  1  0  0  0
 17 98  1  0  0  0
 18 19  2  0  0  0
 18 99  1  0  0  0
 19 20  1  0  0  0
 19 24  1  0  0  0
 20 21  2  0  0  0
 20100  1  0  0  0
 21 23  1  0  0  0
 22 28  1  0  0  0
 22 32  2  0  0  0
 26 27  1  0  0  0
 28101  1  0  0  0
 28102  1  0  0  0
 29103  1  0  0  0
 29104  1  0  0  0
 33 34  1  0  0  0
 33 66  1  0  0  0
 33 70  2  0  0  0
 34 36  1  0  0  0
 34 59  1  0  0  0
 34105  1  0  0  0
 35 44  2  0  0  0
 35 45  1  0  0  0
 35 68  1  0  0  0
 36 56  1  0  0  0
 36106  1  0  0  0
 37 39  1  0  0  0
 37 47  1  0  0  0
 37 66  1  0  0  0
 37107  1  0  0  0
 38 43  2  0  0  0
 38 46  1  0  0  0
 38 47  1  0  0  0
 39 64  1  0  0  0
 39 67  2  0  0  0
 40 52  1  0  0  0
 40 53  2  0  0  0
 40 58  1  0  0  0
 41108  1  0  0  0
 41109  1  0  0  0
 41110  1  0  0  0
 41 48  1  0  0  0
 42 43  1  0  0  0
 42 66  1  0  0  0
 42111  1  0  0  0
 42112  1  0  0  0
 43 44  1  0  0  0
 44113  1  0  0  0
 45 46  2  0  0  0
 45114  1  0  0  0
 46115  1  0  0  0
 47116  1  0  0  0
 47117  1  0  0  0
 48 56  1  0  0  0
 48 65  1  0  0  0
 48118  1  0  0  0
 49 50  1  0  0  0
 49 53  1  0  0  0
 49 64  1  0  0  0
 49119  1  0  0  0
 50 51  1  0  0  0
 50120  1  0  0  0
 50121  1  0  0  0
 51 52  1  0  0  0
 51122  1  0  0  0
 51123  1  0  0  0
 52124  1  0  0  0
 52125  1  0  0  0
 53 54  1  0  0  0
 54 55  2  0  0  0
 54126  1  0  0  0
 55 57  1  0  0  0
 55127  1  0  0  0
 56 69  2  0  0  0
 57 58  2  0  0  0
 57128  1  0  0  0
 58129  1  0  0  0
 59 60  1  0  0  0
 59 61  1  0  0  0
 59 62  1  0  0  0
 60130  1  0  0  0
 60131  1  0  0  0
 60132  1  0  0  0
 61133  1  0  0  0
 61134  1  0  0  0
 61135  1  0  0  0
 62136  1  0  0  0
 62137  1  0  0  0
 62138  1  0  0  0
 63 65  1  0  0  0
 63139  1  0  0  0
 63140  1  0  0  0
 63141  1  0  0  0
 64142  1  0  0  0
 65143  1  0  0  0
 68 79  1  0  0  0
 71 73  2  0  0  0
 71 75  1  0  0  0
 71144  1  0  0  0
 72 74  1  0  0  0
 72 76  2  0  0  0
 72145  1  0  0  0
 73 76  1  0  0  0
 73 80  1  0  0  0
 74 75  2  0  0  0
 74 81  1  0  0  0
 75 82  1  0  0  0
 76 83  1  0  0  0
 77 78  1  0  0  0
 77 79  1  0  0  0
 77 84  2  0  0  0
 78 83  1  0  0  0
 78146  1  0  0  0
 78147  1  0  0  0
 79148  1  0  0  0
 79149  1  0  0  0
 80150  1  0  0  0
 80151  1  0  0  0
 81152  1  0  0  0
 81153  1  0  0  0
 82154  1  0  0  0
 83155  1  0  0  0
M  ISO  4   1 100  68 101  79 101  82 100
M  END
> <chiral flag>
0

> <version>
0

> <s_m_source_file>
/data/baiqing/PycharmProjects/Reinvent-master-3.2/result/LINK_invent/BTK/process_docking_weight1_custom_product_contain_oxygen_bond_distance_aromatic_linkinvent_7_9_3/rearranged_h_0106.sdf

> <i_m_source_file_index>
8

> <r_mmod_Potential_Energy-OPLS-2005>
-89.3443603515625

> <r_mmod_Stretch_Energy-OPLS-2005>
74.7854537963867

> <r_mmod_Bend_Energy-OPLS-2005>
144.102661132812

> <r_mmod_Torsional_Energy-OPLS-2005>
227.688659667969

> <r_mmod_Improper_Torsional_Energy-OPLS-2005>
14.3620891571045

> <r_mmod_Van_der_Waal_Energy-OPLS-2005>
150.104843139648

> <r_mmod_Electrostatic_Energy-OPLS-2005>
-494.149871826172

> <r_mmod_Solvation_Energy-OPLS-2005>
-251.128128051758

> <b_mmod_Minimization_Converged-OPLS-2005>
0

> <r_mmod_RMS_Derivative-OPLS-2005>
0.963263392448425

$$$$
8
                    3D
 Structure written by MMmdl.
166175  0  0  1  0            999 V2000
  -30.7281  -14.5285   20.6688 C   0  0  0  0  0  0
  -30.4291  -12.3869   19.4197 C   0  0  0  0  0  0
  -29.4885  -12.5275   18.2071 C   0  0  0  0  0  0
  -28.0170  -12.3624   18.6250 C   0  0  0  0  0  0
  -27.6551  -13.2192   19.8632 C   0  0  2  0  0  0
  -28.6962  -13.0410   20.9859 C   0  0  0  0  0  0
  -25.2541  -13.8187   20.5702 C   0  0  0  0  0  0
  -24.1823  -13.0435   20.9192 C   0  0  0  0  0  0
  -24.6400  -11.6910   20.8734 C   0  0  0  0  0  0
  -23.9075  -10.4290   21.0412 C   0  0  0  0  0  0
  -24.3626   -9.4206   21.9186 C   0  0  0  0  0  0
  -23.6300   -8.2239   22.0750 C   0  0  0  0  0  0
  -22.4281   -8.0280   21.3545 C   0  0  0  0  0  0
  -21.9922   -9.0257   20.4643 C   0  0  0  0  0  0
  -22.7247  -10.2133   20.3055 C   0  0  0  0  0  0
  -21.6849   -6.0739   22.5280 C   0  0  0  0  0  0
  -21.4010   -6.5641   23.8216 C   0  0  0  0  0  0
  -21.3661   -5.6797   24.9176 C   0  0  0  0  0  0
  -21.6043   -4.3062   24.7225 C   0  0  0  0  0  0
  -21.8815   -3.8153   23.4349 C   0  0  0  0  0  0
  -21.9187   -4.6969   22.3403 C   0  0  0  0  0  0
  -22.7835  -13.5211   21.1870 C   0  0  0  0  0  0
  -22.1655   -4.2153   21.0983 F   0  0  0  0  0  0
  -21.5631   -3.4545   25.7740 F   0  0  0  0  0  0
  -30.0304  -13.3659   20.4503 N   0  0  0  0  0  0
  -26.2992  -12.9388   20.3326 N   0  0  0  0  0  0
  -25.9333  -11.6529   20.5751 N   0  0  0  0  0  0
  -22.0501  -12.8188   22.0435 N   0  0  0  0  0  0
  -25.4215  -15.1917   20.4146 N   0  0  0  0  0  0
  -31.7251  -14.8178   19.9998 O   0  0  0  0  0  0
  -21.6632   -6.8883   21.4245 O   0  0  0  0  0  0
  -22.3496  -14.5505   20.6714 O   0  0  0  0  0  0
  -24.6246  -31.8603   23.2046 C   0  0  0  0  0  0
  -25.9107  -32.4760   23.8375 C   0  0  1  0  0  0
  -27.2290  -27.3446   20.1028 C   0  0  0  0  0  0
  -25.5937  -33.8572   24.2308 N   0  0  0  0  0  0
  -23.4170  -30.4876   21.5468 C   0  0  2  0  0  0
  -24.8638  -28.9502   20.1098 C   0  0  0  0  0  0
  -22.7482  -29.4616   22.4933 C   0  0  0  0  0  0
  -18.0286  -28.1386   22.8462 C   0  0  0  0  0  0
  -24.1494  -36.7304   23.2638 C   0  0  0  0  0  0
  -25.9573  -30.7975   21.3748 C   0  0  0  0  0  0
  -26.0327  -29.4288   20.7151 C   0  0  0  0  0  0
  -27.2179  -28.6375   20.7029 C   0  0  0  0  0  0
  -26.0336  -26.9146   19.4770 C   0  0  0  0  0  0
  -24.8664  -27.6980   19.4808 C   0  0  0  0  0  0
  -23.6306  -29.8279   20.1598 C   0  0  0  0  0  0
  -25.4116  -36.3079   24.0323 C   0  0  1  0  0  0
  -20.5885  -28.3679   23.1278 C   0  0  2  0  0  0
  -20.6782  -26.9402   22.5406 C   0  0  0  0  0  0
  -19.5759  -26.6377   21.5207 C   0  0  0  0  0  0
  -18.1929  -26.7924   22.1605 C   0  0  0  0  0  0
  -19.1537  -28.8850   23.2859 C   0  0  0  0  0  0
  -18.9470  -30.1455   23.8868 C   0  0  0  0  0  0
  -17.6469  -30.6572   24.0559 C   0  0  0  0  0  0
  -25.9044  -34.9439   23.5110 C   0  0  0  0  0  0
  -16.5361  -29.9067   23.6330 C   0  0  0  0  0  0
  -16.7274  -28.6504   23.0312 C   0  0  0  0  0  0
  -26.4501  -31.6565   25.0742 C   0  0  0  0  0  0
  -25.3733  -31.3680   26.1470 C   0  0  0  0  0  0
  -27.0351  -30.2993   24.6192 C   0  0  0  0  0  0
  -27.6092  -32.4284   25.7486 C   0  0  0  0  0  0
  -27.5582  -37.1801   24.8457 C   0  0  0  0  0  0
  -21.4191  -29.3035   22.3679 N   0  0  0  0  0  0
  -26.4303  -37.3768   23.9398 N   0  0  0  0  0  0
  -24.6852  -31.0626   22.0995 N   0  0  0  0  0  0
  -23.4215  -28.8126   23.2987 O   0  0  0  0  0  0
  -28.3571  -26.5128   20.1437 O   0  0  0  0  0  0
  -26.5599  -34.8893   22.4668 O   0  0  0  0  0  0
  -23.5413  -32.1399   23.7395 O   0  0  0  0  0  0
  -30.0379  -17.6448   20.8363 C   0  0  0  0  0  0
  -29.3644  -19.4389   22.3511 C   0  0  0  0  0  0
  -29.6775  -17.1657   23.2025 C   0  0  0  0  0  0
  -30.0404  -16.6762   21.9063 C   0  0  0  0  0  0
  -29.7185  -19.0347   21.0528 C   0  0  0  0  0  0
  -29.3474  -18.5249   23.4258 C   0  0  0  0  0  0
  -29.6700  -16.2662   24.4363 C   0  0  0  0  0  0
  -29.8165  -14.7812   24.1431 C   0  0  0  0  0  0
  -30.8302  -14.5666   23.0277 C   0  0  0  0  0  0
  -28.9846  -20.2785   25.0481 C   0  0  0  0  0  0
  -28.9026  -22.5097   20.1467 C   0  0  0  0  0  0
  -29.2905  -24.0431   20.2776 C   0  0  0  0  0  0
  -30.0700  -21.4543   20.2581 C   0  0  0  0  0  0
  -28.1407  -25.0705   19.9409 C   0  0  0  0  0  0
  -30.4075  -15.2474   21.7892 N   0  0  0  0  0  0
  -29.7205  -20.0190   20.0173 N   0  0  0  0  0  0
  -29.0189  -18.8949   24.7162 O   0  0  0  0  0  0
  -31.4650  -12.5220   19.1036 H   0  0  0  0  0  0
  -30.3781  -11.3776   19.8310 H   0  0  0  0  0  0
  -29.7425  -11.7886   17.4454 H   0  0  0  0  0  0
  -29.6292  -13.5055   17.7464 H   0  0  0  0  0  0
  -27.8458  -11.3073   18.8419 H   0  0  0  0  0  0
  -27.3576  -12.6110   17.7923 H   0  0  0  0  0  0
  -27.6859  -14.2624   19.5485 H   0  0  0  0  0  0
  -28.6856  -12.0175   21.3626 H   0  0  0  0  0  0
  -28.4132  -13.6735   21.8244 H   0  0  0  0  0  0
  -25.2776   -9.5669   22.4756 H   0  0  0  0  0  0
  -24.0010   -7.4622   22.7461 H   0  0  0  0  0  0
  -21.0858   -8.8780   19.8943 H   0  0  0  0  0  0
  -22.3723  -10.9674   19.6157 H   0  0  0  0  0  0
  -21.1999   -7.6152   23.9718 H   0  0  0  0  0  0
  -21.1486   -6.0530   25.9080 H   0  0  0  0  0  0
  -22.0590   -2.7613   23.2848 H   0  0  0  0  0  0
  -22.4134  -11.9856   22.4824 H   0  0  0  0  0  0
  -21.1105  -13.1168   22.2642 H   0  0  0  0  0  0
  -24.6586  -15.8470   20.5486 H   0  0  0  0  0  0
  -26.2792  -15.6412   20.1191 H   0  0  0  0  0  0
  -26.7181  -32.5440   23.1136 H   0  0  0  0  0  0
  -25.0131  -33.9723   25.0485 H   0  0  0  0  0  0
  -22.7106  -31.3079   21.4076 H   0  0  0  0  0  0
  -23.3734  -35.9654   23.3297 H   0  0  0  0  0  0
  -24.3603  -36.8936   22.2058 H   0  0  0  0  0  0
  -23.7283  -37.6522   23.6659 H   0  0  0  0  0  0
  -26.0883  -31.5615   20.6073 H   0  0  0  0  0  0
  -26.8389  -30.8441   22.0034 H   0  0  0  0  0  0
  -28.1154  -29.0010   21.1832 H   0  0  0  0  0  0
  -25.9674  -25.9604   18.9772 H   0  0  0  0  0  0
  -23.9751  -27.3296   18.9924 H   0  0  0  0  0  0
  -23.7454  -30.6084   19.4069 H   0  0  0  0  0  0
  -22.7508  -29.2566   19.8559 H   0  0  0  0  0  0
  -25.1285  -36.1941   25.0813 H   0  0  0  0  0  0
  -20.9977  -28.3264   24.1394 H   0  0  0  0  0  0
  -20.5694  -26.2283   23.3604 H   0  0  0  0  0  0
  -21.6651  -26.7426   22.1192 H   0  0  0  0  0  0
  -19.6923  -25.6284   21.1245 H   0  0  0  0  0  0
  -19.6710  -27.3173   20.6729 H   0  0  0  0  0  0
  -17.4206  -26.6669   21.3996 H   0  0  0  0  0  0
  -18.0325  -26.0051   22.8997 H   0  0  0  0  0  0
  -19.7943  -30.7289   24.2213 H   0  0  0  0  0  0
  -17.5010  -31.6242   24.5180 H   0  0  0  0  0  0
  -15.5356  -30.2958   23.7664 H   0  0  0  0  0  0
  -15.8677  -28.0842   22.6990 H   0  0  0  0  0  0
  -24.5955  -30.6960   25.7814 H   0  0  0  0  0  0
  -24.8847  -32.2817   26.4860 H   0  0  0  0  0  0
  -25.8070  -30.8915   27.0278 H   0  0  0  0  0  0
  -26.2927  -29.6718   24.1252 H   0  0  0  0  0  0
  -27.4101  -29.7263   25.4688 H   0  0  0  0  0  0
  -27.8758  -30.4269   23.9370 H   0  0  0  0  0  0
  -27.2764  -33.3623   26.2030 H   0  0  0  0  0  0
  -28.3916  -32.6792   25.0301 H   0  0  0  0  0  0
  -28.0738  -31.8420   26.5425 H   0  0  0  0  0  0
  -28.2579  -38.0108   24.7504 H   0  0  0  0  0  0
  -28.1097  -36.2649   24.6282 H   0  0  0  0  0  0
  -27.2302  -37.1461   25.8856 H   0  0  0  0  0  0
  -20.9371  -29.8818   21.6939 H   0  0  0  0  0  0
  -26.0175  -38.2841   24.1397 H   0  0  0  0  0  0
  -30.3159  -17.3262   19.8425 H   0  0  0  0  0  0
  -29.0881  -20.4680   22.5170 H   0  0  0  0  0  0
  -28.7628  -16.4288   25.0204 H   0  0  0  0  0  0
  -30.5041  -16.5812   25.0640 H   0  0  0  0  0  0
  -28.8497  -14.3670   23.8581 H   0  0  0  0  0  0
  -30.1164  -14.2503   25.0470 H   0  0  0  0  0  0
  -30.9898  -13.4914   22.9033 H   0  0  0  0  0  0
  -31.7989  -14.9692   23.3293 H   0  0  0  0  0  0
  -28.1523  -20.7933   24.5641 H   0  0  0  0  0  0
  -29.9207  -20.7764   24.7891 H   0  0  0  0  0  0
  -28.8480  -20.3833   26.1247 H   0  0  0  0  0  0
  -28.4037  -22.3714   19.1871 H   0  0  0  0  0  0
  -28.1517  -22.2801   20.9047 H   0  0  0  0  0  0
  -30.1367  -24.2475   19.6217 H   0  0  0  0  0  0
  -29.6454  -24.2275   21.2925 H   0  0  0  0  0  0
  -30.5857  -21.5659   21.2134 H   0  0  0  0  0  0
  -30.8170  -21.7216   19.5084 H   0  0  0  0  0  0
  -27.2721  -24.7665   20.5249 H   0  0  0  0  0  0
  -27.8829  -24.9204   18.8920 H   0  0  0  0  0  0
  -29.9606  -19.6725   19.0896 H   0  0  0  0  0  0
  1 25  1  0  0  0
  1 30  2  0  0  0
  1 85  1  0  0  0
  2  3  1  0  0  0
  2 25  1  0  0  0
  2 88  1  0  0  0
  2 89  1  0  0  0
  3  4  1  0  0  0
  3 90  1  0  0  0
  3 91  1  0  0  0
  4  5  1  0  0  0
  4 92  1  0  0  0
  4 93  1  0  0  0
  5  6  1  0  0  0
  5 26  1  0  0  0
  5 94  1  0  0  0
  6 25  1  0  0  0
  6 95  1  0  0  0
  6 96  1  0  0  0
  7  8  2  0  0  0
  7 26  1  0  0  0
  7 29  1  0  0  0
  8  9  1  0  0  0
  8 22  1  0  0  0
  9 10  1  0  0  0
  9 27  2  0  0  0
 10 11  2  0  0  0
 10 15  1  0  0  0
 11 12  1  0  0  0
 11 97  1  0  0  0
 12 13  2  0  0  0
 12 98  1  0  0  0
 13 14  1  0  0  0
 13 31  1  0  0  0
 14 15  2  0  0  0
 14 99  1  0  0  0
 15100  1  0  0  0
 16 17  2  0  0  0
 16 21  1  0  0  0
 16 31  1  0  0  0
 17 18  1  0  0  0
 17101  1  0  0  0
 18 19  2  0  0  0
 18102  1  0  0  0
 19 20  1  0  0  0
 19 24  1  0  0  0
 20 21  2  0  0  0
 20103  1  0  0  0
 21 23  1  0  0  0
 22 28  1  0  0  0
 22 32  2  0  0  0
 26 27  1  0  0  0
 28104  1  0  0  0
 28105  1  0  0  0
 29106  1  0  0  0
 29107  1  0  0  0
 33 34  1  0  0  0
 33 66  1  0  0  0
 33 70  2  0  0  0
 34 36  1  0  0  0
 34 59  1  0  0  0
 34108  1  0  0  0
 35 44  2  0  0  0
 35 45  1  0  0  0
 35 68  1  0  0  0
 36 56  1  0  0  0
 36109  1  0  0  0
 37 39  1  0  0  0
 37 47  1  0  0  0
 37 66  1  0  0  0
 37110  1  0  0  0
 38 43  2  0  0  0
 38 46  1  0  0  0
 38 47  1  0  0  0
 39 64  1  0  0  0
 39 67  2  0  0  0
 40 52  1  0  0  0
 40 53  2  0  0  0
 40 58  1  0  0  0
 41111  1  0  0  0
 41112  1  0  0  0
 41113  1  0  0  0
 41 48  1  0  0  0
 42 43  1  0  0  0
 42 66  1  0  0  0
 42114  1  0  0  0
 42115  1  0  0  0
 43 44  1  0  0  0
 44116  1  0  0  0
 45 46  2  0  0  0
 45117  1  0  0  0
 46118  1  0  0  0
 47119  1  0  0  0
 47120  1  0  0  0
 48 56  1  0  0  0
 48 65  1  0  0  0
 48121  1  0  0  0
 49 50  1  0  0  0
 49 53  1  0  0  0
 49 64  1  0  0  0
 49122  1  0  0  0
 50 51  1  0  0  0
 50123  1  0  0  0
 50124  1  0  0  0
 51 52  1  0  0  0
 51125  1  0  0  0
 51126  1  0  0  0
 52127  1  0  0  0
 52128  1  0  0  0
 53 54  1  0  0  0
 54 55  2  0  0  0
 54129  1  0  0  0
 55 57  1  0  0  0
 55130  1  0  0  0
 56 69  2  0  0  0
 57 58  2  0  0  0
 57131  1  0  0  0
 58132  1  0  0  0
 59 60  1  0  0  0
 59 61  1  0  0  0
 59 62  1  0  0  0
 60133  1  0  0  0
 60134  1  0  0  0
 60135  1  0  0  0
 61136  1  0  0  0
 61137  1  0  0  0
 61138  1  0  0  0
 62139  1  0  0  0
 62140  1  0  0  0
 62141  1  0  0  0
 63 65  1  0  0  0
 63142  1  0  0  0
 63143  1  0  0  0
 63144  1  0  0  0
 64145  1  0  0  0
 65146  1  0  0  0
 68 84  1  0  0  0
 71 74  2  0  0  0
 71 75  1  0  0  0
 71147  1  0  0  0
 72 75  2  0  0  0
 72 76  1  0  0  0
 72148  1  0  0  0
 73 74  1  0  0  0
 73 76  2  0  0  0
 73 77  1  0  0  0
 74 85  1  0  0  0
 75 86  1  0  0  0
 76 87  1  0  0  0
 77 78  1  0  0  0
 77149  1  0  0  0
 77150  1  0  0  0
 78 79  1  0  0  0
 78151  1  0  0  0
 78152  1  0  0  0
 79 85  1  0  0  0
 79153  1  0  0  0
 79154  1  0  0  0
 80 87  1  0  0  0
 80155  1  0  0  0
 80156  1  0  0  0
 80157  1  0  0  0
 81 82  1  0  0  0
 81 83  1  0  0  0
 81158  1  0  0  0
 81159  1  0  0  0
 82 84  1  0  0  0
 82160  1  0  0  0
 82161  1  0  0  0
 83 86  1  0  0  0
 83162  1  0  0  0
 83163  1  0  0  0
 84164  1  0  0  0
 84165  1  0  0  0
 86166  1  0  0  0
M  ISO  4   1 100  68 101  84 101  85 100
M  END
> <chiral flag>
0

> <version>
0

> <s_m_source_file>
/data/baiqing/PycharmProjects/Reinvent-master-3.2/result/LINK_invent/BTK/process_docking_weight1_custom_product_contain_oxygen_bond_distance_aromatic_linkinvent_7_9_3/rearranged_h_0106.sdf

> <i_m_source_file_index>
9

> <r_mmod_Potential_Energy-OPLS-2005>
233.092681884766

> <r_mmod_Stretch_Energy-OPLS-2005>
80.9867248535156

> <r_mmod_Bend_Energy-OPLS-2005>
146.752563476562

> <r_mmod_Torsional_Energy-OPLS-2005>
281.850158691406

> <r_mmod_Improper_Torsional_Energy-OPLS-2005>
7.19364261627197

> <r_mmod_Van_der_Waal_Energy-OPLS-2005>
164.240051269531

> <r_mmod_Electrostatic_Energy-OPLS-2005>
-273.899230957031

> <r_mmod_Solvation_Energy-OPLS-2005>
-205.439300537109

> <b_mmod_Minimization_Converged-OPLS-2005>
0

> <r_mmod_RMS_Derivative-OPLS-2005>
2.52673268318176

$$$$
9
                    3D
 Structure written by MMmdl.
167176  0  0  1  0            999 V2000
  -30.6285  -14.6293   20.5013 C   0  0  0  0  0  0
  -30.4379  -12.3830   19.4596 C   0  0  0  0  0  0
  -29.5087  -12.5011   18.2308 C   0  0  0  0  0  0
  -28.0323  -12.3370   18.6433 C   0  0  0  0  0  0
  -27.6540  -13.2157   19.8662 C   0  0  2  0  0  0
  -28.6957  -13.0733   20.9989 C   0  0  0  0  0  0
  -25.2564  -13.8169   20.5703 C   0  0  0  0  0  0
  -24.1820  -13.0432   20.9172 C   0  0  0  0  0  0
  -24.6387  -11.6907   20.8737 C   0  0  0  0  0  0
  -23.9067  -10.4290   21.0393 C   0  0  0  0  0  0
  -24.3608   -9.4209   21.9189 C   0  0  0  0  0  0
  -23.6278   -8.2252   22.0762 C   0  0  0  0  0  0
  -22.4275   -8.0275   21.3546 C   0  0  0  0  0  0
  -21.9904   -9.0246   20.4644 C   0  0  0  0  0  0
  -22.7239  -10.2123   20.3037 C   0  0  0  0  0  0
  -21.6849   -6.0724   22.5276 C   0  0  0  0  0  0
  -21.4006   -6.5630   23.8203 C   0  0  0  0  0  0
  -21.3658   -5.6785   24.9169 C   0  0  0  0  0  0
  -21.6040   -4.3050   24.7217 C   0  0  0  0  0  0
  -21.8827   -3.8138   23.4337 C   0  0  0  0  0  0
  -21.9195   -4.6948   22.3396 C   0  0  0  0  0  0
  -22.7845  -13.5225   21.1821 C   0  0  0  0  0  0
  -22.1665   -4.2132   21.0966 F   0  0  0  0  0  0
  -21.5630   -3.4536   25.7731 F   0  0  0  0  0  0
  -30.0143  -13.4057   20.4360 N   0  0  0  0  0  0
  -26.2988  -12.9347   20.3345 N   0  0  0  0  0  0
  -25.9315  -11.6502   20.5777 N   0  0  0  0  0  0
  -22.0483  -12.8211   22.0373 N   0  0  0  0  0  0
  -25.4311  -15.1889   20.4136 N   0  0  0  0  0  0
  -31.7933  -14.7768   20.1207 O   0  0  0  0  0  0
  -21.6640   -6.8866   21.4235 O   0  0  0  0  0  0
  -22.3539  -14.5555   20.6693 O   0  0  0  0  0  0
  -24.6247  -31.8590   23.1999 C   0  0  0  0  0  0
  -25.9087  -32.4794   23.8337 C   0  0  1  0  0  0
  -27.2193  -27.3092   20.1082 C   0  0  0  0  0  0
  -25.5909  -33.8594   24.2260 N   0  0  0  0  0  0
  -23.4191  -30.4846   21.5424 C   0  0  2  0  0  0
  -24.8667  -28.9463   20.1042 C   0  0  0  0  0  0
  -22.7484  -29.4605   22.4909 C   0  0  0  0  0  0
  -18.0282  -28.1364   22.8506 C   0  0  0  0  0  0
  -24.1477  -36.7254   23.2653 C   0  0  0  0  0  0
  -25.9620  -30.7901   21.3715 C   0  0  0  0  0  0
  -26.0368  -29.4171   20.7124 C   0  0  0  0  0  0
  -27.2168  -28.6111   20.7027 C   0  0  0  0  0  0
  -26.0235  -26.9001   19.4742 C   0  0  0  0  0  0
  -24.8645  -27.6954   19.4727 C   0  0  0  0  0  0
  -23.6339  -29.8264   20.1557 C   0  0  0  0  0  0
  -25.4096  -36.3075   24.0344 C   0  0  1  0  0  0
  -20.5896  -28.3654   23.1286 C   0  0  2  0  0  0
  -20.6769  -26.9385   22.5381 C   0  0  0  0  0  0
  -19.5727  -26.6381   21.5212 C   0  0  0  0  0  0
  -18.1912  -26.7915   22.1634 C   0  0  0  0  0  0
  -19.1548  -28.8826   23.2899 C   0  0  0  0  0  0
  -18.9477  -30.1448   23.8892 C   0  0  0  0  0  0
  -17.6483  -30.6577   24.0580 C   0  0  0  0  0  0
  -25.9041  -34.9460   23.5102 C   0  0  0  0  0  0
  -16.5364  -29.9074   23.6349 C   0  0  0  0  0  0
  -16.7275  -28.6501   23.0345 C   0  0  0  0  0  0
  -26.4468  -31.6597   25.0704 C   0  0  0  0  0  0
  -25.3737  -31.3643   26.1455 C   0  0  0  0  0  0
  -27.0367  -30.3074   24.6091 C   0  0  0  0  0  0
  -27.5990  -32.4377   25.7485 C   0  0  0  0  0  0
  -27.5542  -37.1798   24.8487 C   0  0  0  0  0  0
  -21.4198  -29.3025   22.3691 N   0  0  0  0  0  0
  -26.4256  -37.3782   23.9433 N   0  0  0  0  0  0
  -24.6871  -31.0616   22.0937 N   0  0  0  0  0  0
  -23.4238  -28.8142   23.2961 O   0  0  0  0  0  0
  -28.3286  -26.4445   20.1674 O   0  0  0  0  0  0
  -26.5611  -34.8949   22.4673 O   0  0  0  0  0  0
  -23.5407  -32.1381   23.7314 O   0  0  0  0  0  0
  -29.0794  -19.3672   21.5277 C   0  0  0  0  0  0
  -30.5871  -19.2770   19.6621 C   0  0  0  0  0  0
  -29.1092  -17.9402   21.6243 C   0  0  0  0  0  0
  -29.8192  -20.0806   20.5494 C   0  0  0  0  0  0
  -30.6232  -17.8498   19.7377 C   0  0  0  0  0  0
  -29.8962  -17.1378   20.7420 C   0  0  0  0  0  0
  -29.2111  -23.9266   20.2606 C   0  0  0  0  0  0
  -28.9985  -22.5506   20.2509 C   0  0  0  0  0  0
  -32.1966  -22.5845   20.3259 C   0  0  0  0  0  0
  -30.5612  -24.5712   20.5840 C   0  0  0  0  0  0
  -31.7734  -23.9678   19.8431 C   0  0  0  0  0  0
  -31.2315  -21.8164   21.2237 C   0  0  0  0  0  0
  -28.2814  -17.2762   22.7170 C   0  0  0  0  0  0
  -27.6331  -22.0105   19.8372 C   0  0  0  0  0  0
  -28.0986  -24.9950   19.9127 C   0  0  0  0  0  0
  -29.9506  -21.5184   20.5716 N   0  0  0  0  0  0
  -31.3780  -17.1655   18.7889 N   0  0  0  0  0  0
  -29.8279  -15.6753   20.8775 N   0  0  0  0  0  0
  -33.2829  -22.1039   19.9935 O   0  0  0  0  0  0
  -31.4808  -12.5044   19.1590 H   0  0  0  0  0  0
  -30.3678  -11.3889   19.9034 H   0  0  0  0  0  0
  -29.7721  -11.7458   17.4890 H   0  0  0  0  0  0
  -29.6506  -13.4687   17.7468 H   0  0  0  0  0  0
  -27.8746  -11.2856   18.8854 H   0  0  0  0  0  0
  -27.3747  -12.5569   17.8011 H   0  0  0  0  0  0
  -27.6732  -14.2507   19.5237 H   0  0  0  0  0  0
  -28.7005  -12.0547   21.3887 H   0  0  0  0  0  0
  -28.4413  -13.7114   21.8473 H   0  0  0  0  0  0
  -25.2753   -9.5682   22.4774 H   0  0  0  0  0  0
  -23.9971   -7.4646   22.7498 H   0  0  0  0  0  0
  -21.0844   -8.8759   19.8955 H   0  0  0  0  0  0
  -22.3708  -10.9648   19.6133 H   0  0  0  0  0  0
  -21.1995   -7.6142   23.9694 H   0  0  0  0  0  0
  -21.1467   -6.0524   25.9072 H   0  0  0  0  0  0
  -22.0606   -2.7591   23.2846 H   0  0  0  0  0  0
  -22.4060  -11.9839   22.4719 H   0  0  0  0  0  0
  -21.1110  -13.1238   22.2586 H   0  0  0  0  0  0
  -24.6654  -15.8448   20.5204 H   0  0  0  0  0  0
  -26.2826  -15.6273   20.0863 H   0  0  0  0  0  0
  -26.7141  -32.5442   23.1064 H   0  0  0  0  0  0
  -25.0143  -33.9754   25.0464 H   0  0  0  0  0  0
  -22.7114  -31.3032   21.3970 H   0  0  0  0  0  0
  -23.3792  -35.9543   23.3326 H   0  0  0  0  0  0
  -24.3570  -36.8851   22.2069 H   0  0  0  0  0  0
  -23.7201  -37.6444   23.6663 H   0  0  0  0  0  0
  -26.0865  -31.5569   20.6055 H   0  0  0  0  0  0
  -26.8440  -30.8386   21.9977 H   0  0  0  0  0  0
  -28.1149  -28.9658   21.1871 H   0  0  0  0  0  0
  -25.9467  -25.9449   18.9784 H   0  0  0  0  0  0
  -23.9700  -27.3332   18.9850 H   0  0  0  0  0  0
  -23.7467  -30.6067   19.4034 H   0  0  0  0  0  0
  -22.7571  -29.2537   19.8476 H   0  0  0  0  0  0
  -25.1286  -36.1897   25.0838 H   0  0  0  0  0  0
  -20.9982  -28.3190   24.1407 H   0  0  0  0  0  0
  -20.5690  -26.2249   23.3560 H   0  0  0  0  0  0
  -21.6617  -26.7387   22.1141 H   0  0  0  0  0  0
  -19.6872  -25.6301   21.1209 H   0  0  0  0  0  0
  -19.6670  -27.3246   20.6790 H   0  0  0  0  0  0
  -17.4178  -26.6719   21.4028 H   0  0  0  0  0  0
  -18.0271  -26.0012   22.8981 H   0  0  0  0  0  0
  -19.7966  -30.7273   24.2214 H   0  0  0  0  0  0
  -17.5045  -31.6264   24.5160 H   0  0  0  0  0  0
  -15.5374  -30.2971   23.7691 H   0  0  0  0  0  0
  -15.8673  -28.0836   22.7032 H   0  0  0  0  0  0
  -24.5947  -30.6947   25.7773 H   0  0  0  0  0  0
  -24.8914  -32.2770   26.4955 H   0  0  0  0  0  0
  -25.8140  -30.8785   27.0182 H   0  0  0  0  0  0
  -26.2942  -29.6797   24.1157 H   0  0  0  0  0  0
  -27.4206  -29.7300   25.4506 H   0  0  0  0  0  0
  -27.8711  -30.4451   23.9219 H   0  0  0  0  0  0
  -27.2562  -33.3711   26.1956 H   0  0  0  0  0  0
  -28.3846  -32.6894   25.0350 H   0  0  0  0  0  0
  -28.0600  -31.8593   26.5494 H   0  0  0  0  0  0
  -28.2546  -38.0104   24.7532 H   0  0  0  0  0  0
  -28.1035  -36.2630   24.6301 H   0  0  0  0  0  0
  -27.2255  -37.1406   25.8888 H   0  0  0  0  0  0
  -20.9347  -29.8802   21.6969 H   0  0  0  0  0  0
  -26.0123  -38.2843   24.1486 H   0  0  0  0  0  0
  -28.5047  -19.9311   22.2479 H   0  0  0  0  0  0
  -31.1771  -19.7772   18.9075 H   0  0  0  0  0  0
  -30.7015  -24.5632   21.6658 H   0  0  0  0  0  0
  -30.5394  -25.6246   20.3106 H   0  0  0  0  0  0
  -31.5675  -23.9124   18.7740 H   0  0  0  0  0  0
  -32.6301  -24.6340   19.9576 H   0  0  0  0  0  0
  -31.0551  -22.3872   22.1350 H   0  0  0  0  0  0
  -31.7405  -20.9083   21.5530 H   0  0  0  0  0  0
  -27.7685  -18.0108   23.3405 H   0  0  0  0  0  0
  -28.9127  -16.6750   23.3732 H   0  0  0  0  0  0
  -27.5193  -16.6295   22.2819 H   0  0  0  0  0  0
  -27.2604  -22.5397   18.9606 H   0  0  0  0  0  0
  -26.9144  -22.1473   20.6457 H   0  0  0  0  0  0
  -27.6344  -20.9534   19.5691 H   0  0  0  0  0  0
  -27.1956  -24.6842   20.4400 H   0  0  0  0  0  0
  -27.9021  -24.8829   18.8461 H   0  0  0  0  0  0
  -32.1443  -17.6719   18.3623 H   0  0  0  0  0  0
  -31.6729  -16.2312   19.0957 H   0  0  0  0  0  0
  -28.9691  -15.3500   21.2910 H   0  0  0  0  0  0
  1 25  1  0  0  0
  1 30  2  0  0  0
  1 88  1  0  0  0
  2  3  1  0  0  0
  2 25  1  0  0  0
  2 90  1  0  0  0
  2 91  1  0  0  0
  3  4  1  0  0  0
  3 92  1  0  0  0
  3 93  1  0  0  0
  4  5  1  0  0  0
  4 94  1  0  0  0
  4 95  1  0  0  0
  5  6  1  0  0  0
  5 26  1  0  0  0
  5 96  1  0  0  0
  6 25  1  0  0  0
  6 97  1  0  0  0
  6 98  1  0  0  0
  7  8  2  0  0  0
  7 26  1  0  0  0
  7 29  1  0  0  0
  8  9  1  0  0  0
  8 22  1  0  0  0
  9 10  1  0  0  0
  9 27  2  0  0  0
 10 11  2  0  0  0
 10 15  1  0  0  0
 11 12  1  0  0  0
 11 99  1  0  0  0
 12 13  2  0  0  0
 12100  1  0  0  0
 13 14  1  0  0  0
 13 31  1  0  0  0
 14 15  2  0  0  0
 14101  1  0  0  0
 15102  1  0  0  0
 16 17  2  0  0  0
 16 21  1  0  0  0
 16 31  1  0  0  0
 17 18  1  0  0  0
 17103  1  0  0  0
 18 19  2  0  0  0
 18104  1  0  0  0
 19 20  1  0  0  0
 19 24  1  0  0  0
 20 21  2  0  0  0
 20105  1  0  0  0
 21 23  1  0  0  0
 22 28  1  0  0  0
 22 32  2  0  0  0
 26 27  1  0  0  0
 28106  1  0  0  0
 28107  1  0  0  0
 29108  1  0  0  0
 29109  1  0  0  0
 33 34  1  0  0  0
 33 66  1  0  0  0
 33 70  2  0  0  0
 34 36  1  0  0  0
 34 59  1  0  0  0
 34110  1  0  0  0
 35 44  2  0  0  0
 35 45  1  0  0  0
 35 68  1  0  0  0
 36 56  1  0  0  0
 36111  1  0  0  0
 37 39  1  0  0  0
 37 47  1  0  0  0
 37 66  1  0  0  0
 37112  1  0  0  0
 38 43  2  0  0  0
 38 46  1  0  0  0
 38 47  1  0  0  0
 39 64  1  0  0  0
 39 67  2  0  0  0
 40 52  1  0  0  0
 40 53  2  0  0  0
 40 58  1  0  0  0
 41113  1  0  0  0
 41114  1  0  0  0
 41115  1  0  0  0
 41 48  1  0  0  0
 42 43  1  0  0  0
 42 66  1  0  0  0
 42116  1  0  0  0
 42117  1  0  0  0
 43 44  1  0  0  0
 44118  1  0  0  0
 45 46  2  0  0  0
 45119  1  0  0  0
 46120  1  0  0  0
 47121  1  0  0  0
 47122  1  0  0  0
 48 56  1  0  0  0
 48 65  1  0  0  0
 48123  1  0  0  0
 49 50  1  0  0  0
 49 53  1  0  0  0
 49 64  1  0  0  0
 49124  1  0  0  0
 50 51  1  0  0  0
 50125  1  0  0  0
 50126  1  0  0  0
 51 52  1  0  0  0
 51127  1  0  0  0
 51128  1  0  0  0
 52129  1  0  0  0
 52130  1  0  0  0
 53 54  1  0  0  0
 54 55  2  0  0  0
 54131  1  0  0  0
 55 57  1  0  0  0
 55132  1  0  0  0
 56 69  2  0  0  0
 57 58  2  0  0  0
 57133  1  0  0  0
 58134  1  0  0  0
 59 60  1  0  0  0
 59 61  1  0  0  0
 59 62  1  0  0  0
 60135  1  0  0  0
 60136  1  0  0  0
 60137  1  0  0  0
 61138  1  0  0  0
 61139  1  0  0  0
 61140  1  0  0  0
 62141  1  0  0  0
 62142  1  0  0  0
 62143  1  0  0  0
 63 65  1  0  0  0
 63144  1  0  0  0
 63145  1  0  0  0
 63146  1  0  0  0
 64147  1  0  0  0
 65148  1  0  0  0
 68 85  1  0  0  0
 71 73  2  0  0  0
 71 74  1  0  0  0
 71149  1  0  0  0
 72 74  2  0  0  0
 72 75  1  0  0  0
 72150  1  0  0  0
 73 76  1  0  0  0
 73 83  1  0  0  0
 74 86  1  0  0  0
 75 76  2  0  0  0
 75 87  1  0  0  0
 76 88  1  0  0  0
 77 78  2  0  0  0
 77 80  1  0  0  0
 77 85  1  0  0  0
 78 84  1  0  0  0
 78 86  1  0  0  0
 79 81  1  0  0  0
 79 82  1  0  0  0
 79 89  2  0  0  0
 80 81  1  0  0  0
 80151  1  0  0  0
 80152  1  0  0  0
 81153  1  0  0  0
 81154  1  0  0  0
 82 86  1  0  0  0
 82155  1  0  0  0
 82156  1  0  0  0
 83157  1  0  0  0
 83158  1  0  0  0
 83159  1  0  0  0
 84160  1  0  0  0
 84161  1  0  0  0
 84162  1  0  0  0
 85163  1  0  0  0
 85164  1  0  0  0
 87165  1  0  0  0
 87166  1  0  0  0
 88167  1  0  0  0
M  ISO  4   1 100  68 101  85 101  88 100
M  END
> <chiral flag>
0

> <version>
0

> <s_m_source_file>
/data/baiqing/PycharmProjects/Reinvent-master-3.2/result/LINK_invent/BTK/process_docking_weight1_custom_product_contain_oxygen_bond_distance_aromatic_linkinvent_7_9_3/rearranged_h_0106.sdf

> <i_m_source_file_index>
10

> <r_mmod_Potential_Energy-OPLS-2005>
50.8389282226562

> <r_mmod_Stretch_Energy-OPLS-2005>
92.5305786132812

> <r_mmod_Bend_Energy-OPLS-2005>
147.700546264648

> <r_mmod_Torsional_Energy-OPLS-2005>
271.711120605469

> <r_mmod_Improper_Torsional_Energy-OPLS-2005>
9.35323810577393

> <r_mmod_Van_der_Waal_Energy-OPLS-2005>
169.833892822266

> <r_mmod_Electrostatic_Energy-OPLS-2005>
-474.503845214844

> <r_mmod_Solvation_Energy-OPLS-2005>
-215.377349853516

> <b_mmod_Minimization_Converged-OPLS-2005>
0

> <r_mmod_RMS_Derivative-OPLS-2005>
3.19575452804565

$$$$
10
                    3D
 Structure written by MMmdl.
156164  0  0  1  0            999 V2000
  -30.7411  -14.4414   20.6336 C   0  0  0  0  0  0
  -30.4200  -12.3174   19.4079 C   0  0  0  0  0  0
  -29.4873  -12.5169   18.1980 C   0  0  0  0  0  0
  -28.0118  -12.3699   18.6160 C   0  0  0  0  0  0
  -27.6610  -13.2088   19.8737 C   0  0  2  0  0  0
  -28.7034  -12.9862   20.9911 C   0  0  0  0  0  0
  -25.2580  -13.8164   20.5677 C   0  0  0  0  0  0
  -24.1831  -13.0439   20.9165 C   0  0  0  0  0  0
  -24.6391  -11.6908   20.8728 C   0  0  0  0  0  0
  -23.9059  -10.4292   21.0401 C   0  0  0  0  0  0
  -24.3612   -9.4209   21.9181 C   0  0  0  0  0  0
  -23.6291   -8.2243   22.0753 C   0  0  0  0  0  0
  -22.4271   -8.0279   21.3546 C   0  0  0  0  0  0
  -21.9905   -9.0251   20.4646 C   0  0  0  0  0  0
  -22.7232  -10.2130   20.3052 C   0  0  0  0  0  0
  -21.6854   -6.0734   22.5282 C   0  0  0  0  0  0
  -21.4012   -6.5638   23.8213 C   0  0  0  0  0  0
  -21.3660   -5.6791   24.9176 C   0  0  0  0  0  0
  -21.6045   -4.3054   24.7225 C   0  0  0  0  0  0
  -21.8820   -3.8145   23.4347 C   0  0  0  0  0  0
  -21.9191   -4.6961   22.3403 C   0  0  0  0  0  0
  -22.7853  -13.5234   21.1835 C   0  0  0  0  0  0
  -22.1660   -4.2147   21.0981 F   0  0  0  0  0  0
  -21.5629   -3.4537   25.7737 F   0  0  0  0  0  0
  -30.0355  -13.2935   20.4399 N   0  0  0  0  0  0
  -26.3023  -12.9339   20.3370 N   0  0  0  0  0  0
  -25.9319  -11.6495   20.5766 N   0  0  0  0  0  0
  -22.0495  -12.8226   22.0391 N   0  0  0  0  0  0
  -25.4306  -15.1880   20.4109 N   0  0  0  0  0  0
  -31.8298  -14.6572   20.0944 O   0  0  0  0  0  0
  -21.6639   -6.8875   21.4242 O   0  0  0  0  0  0
  -22.3536  -14.5545   20.6696 O   0  0  0  0  0  0
  -24.6176  -31.8680   23.2114 C   0  0  0  0  0  0
  -25.9068  -32.4820   23.8403 C   0  0  1  0  0  0
  -27.2265  -27.4179   20.0889 C   0  0  0  0  0  0
  -25.5926  -33.8619   24.2338 N   0  0  0  0  0  0
  -23.4045  -30.4955   21.5527 C   0  0  2  0  0  0
  -24.8476  -28.9659   20.1136 C   0  0  0  0  0  0
  -22.7422  -29.4672   22.4985 C   0  0  0  0  0  0
  -18.0276  -28.1375   22.8492 C   0  0  0  0  0  0
  -24.1490  -36.7308   23.2634 C   0  0  0  0  0  0
  -25.9378  -30.8286   21.3676 C   0  0  0  0  0  0
  -26.0125  -29.4647   20.7093 C   0  0  0  0  0  0
  -27.2056  -28.7003   20.6916 C   0  0  0  0  0  0
  -26.0357  -26.9466   19.4815 C   0  0  0  0  0  0
  -24.8554  -27.7068   19.4965 C   0  0  0  0  0  0
  -23.6121  -29.8346   20.1658 C   0  0  0  0  0  0
  -25.4109  -36.3110   24.0340 C   0  0  1  0  0  0
  -20.5868  -28.3668   23.1308 C   0  0  2  0  0  0
  -20.6765  -26.9402   22.5416 C   0  0  0  0  0  0
  -19.5748  -26.6385   21.5210 C   0  0  0  0  0  0
  -18.1925  -26.7925   22.1615 C   0  0  0  0  0  0
  -19.1524  -28.8836   23.2899 C   0  0  0  0  0  0
  -18.9451  -30.1441   23.8911 C   0  0  0  0  0  0
  -17.6453  -30.6579   24.0566 C   0  0  0  0  0  0
  -25.9041  -34.9475   23.5131 C   0  0  0  0  0  0
  -16.5344  -29.9082   23.6326 C   0  0  0  0  0  0
  -16.7264  -28.6497   23.0349 C   0  0  0  0  0  0
  -26.4485  -31.6597   25.0733 C   0  0  0  0  0  0
  -25.3751  -31.3708   26.1484 C   0  0  0  0  0  0
  -27.0305  -30.3035   24.6116 C   0  0  0  0  0  0
  -27.6071  -32.4304   25.7486 C   0  0  0  0  0  0
  -27.5585  -37.1806   24.8458 C   0  0  0  0  0  0
  -21.4149  -29.3038   22.3716 N   0  0  0  0  0  0
  -26.4292  -37.3797   23.9414 N   0  0  0  0  0  0
  -24.6717  -31.0780   22.1017 N   0  0  0  0  0  0
  -23.4192  -28.8205   23.3022 O   0  0  0  0  0  0
  -28.3807  -26.6499   20.1128 O   0  0  0  0  0  0
  -26.5592  -34.8926   22.4686 O   0  0  0  0  0  0
  -23.5367  -32.1432   23.7507 O   0  0  0  0  0  0
  -31.5709  -18.5316   20.7108 C   0  0  0  0  0  0
  -29.2330  -19.9623   21.3098 C   0  0  0  0  0  0
  -30.5622  -17.8941   21.4659 C   0  0  0  0  0  0
  -29.3748  -18.6203   21.7475 C   0  0  0  0  0  0
  -30.2727  -20.6146   20.6013 C   0  0  0  0  0  0
  -31.4336  -19.8711   20.2921 C   0  0  0  0  0  0
  -29.4068  -24.3673   20.2808 C   0  0  0  0  0  0
  -30.8548  -16.5024   22.0534 C   0  0  0  0  0  0
  -29.1485  -22.8818   20.6277 C   0  0  0  0  0  0
  -28.1693  -25.2275   19.9654 C   0  0  0  0  0  0
  -28.3409  -18.0429   22.4862 N   0  0  0  0  0  0
  -30.2179  -21.9689   20.2010 N   0  0  0  0  0  0
  -30.1765  -15.3483   21.4470 N   0  0  0  0  0  0
  -30.5565  -24.8209   20.2317 O   0  0  0  0  0  0
  -32.4420  -20.4612   19.6041 F   0  0  0  0  0  0
  -31.4627  -12.4193   19.1016 H   0  0  0  0  0  0
  -30.3261  -11.3038   19.8007 H   0  0  0  0  0  0
  -29.7276  -11.7979   17.4138 H   0  0  0  0  0  0
  -29.6494  -13.5057   17.7664 H   0  0  0  0  0  0
  -27.8267  -11.3134   18.8123 H   0  0  0  0  0  0
  -27.3569  -12.6419   17.7873 H   0  0  0  0  0  0
  -27.7069  -14.2580   19.5809 H   0  0  0  0  0  0
  -28.6811  -11.9486   21.3269 H   0  0  0  0  0  0
  -28.4543  -13.5778   21.8722 H   0  0  0  0  0  0
  -25.2759   -9.5686   22.4750 H   0  0  0  0  0  0
  -24.0003   -7.4634   22.7471 H   0  0  0  0  0  0
  -21.0836   -8.8768   19.8952 H   0  0  0  0  0  0
  -22.3693  -10.9665   19.6154 H   0  0  0  0  0  0
  -21.2004   -7.6145   23.9716 H   0  0  0  0  0  0
  -21.1481   -6.0520   25.9078 H   0  0  0  0  0  0
  -22.0597   -2.7607   23.2847 H   0  0  0  0  0  0
  -22.4103  -11.9876   22.4764 H   0  0  0  0  0  0
  -21.1112  -13.1252   22.2597 H   0  0  0  0  0  0
  -24.6737  -15.8502   20.5420 H   0  0  0  0  0  0
  -26.3020  -15.6316   20.1470 H   0  0  0  0  0  0
  -26.7140  -32.5522   23.1166 H   0  0  0  0  0  0
  -25.0119  -33.9781   25.0513 H   0  0  0  0  0  0
  -22.6943  -31.3139   21.4173 H   0  0  0  0  0  0
  -23.3756  -35.9635   23.3291 H   0  0  0  0  0  0
  -24.3591  -36.8924   22.2049 H   0  0  0  0  0  0
  -23.7233  -37.6511   23.6644 H   0  0  0  0  0  0
  -26.0568  -31.5969   20.6022 H   0  0  0  0  0  0
  -26.8234  -30.8756   21.9895 H   0  0  0  0  0  0
  -28.1028  -29.0830   21.1579 H   0  0  0  0  0  0
  -25.9854  -25.9897   18.9839 H   0  0  0  0  0  0
  -23.9610  -27.3183   19.0287 H   0  0  0  0  0  0
  -23.7218  -30.6125   19.4093 H   0  0  0  0  0  0
  -22.7352  -29.2571   19.8676 H   0  0  0  0  0  0
  -25.1283  -36.1975   25.0833 H   0  0  0  0  0  0
  -20.9963  -28.3230   24.1425 H   0  0  0  0  0  0
  -20.5659  -26.2279   23.3607 H   0  0  0  0  0  0
  -21.6635  -26.7440   22.1209 H   0  0  0  0  0  0
  -19.6910  -25.6300   21.1229 H   0  0  0  0  0  0
  -19.6696  -27.3204   20.6748 H   0  0  0  0  0  0
  -17.4205  -26.6689   21.4006 H   0  0  0  0  0  0
  -18.0317  -26.0052   22.8994 H   0  0  0  0  0  0
  -19.7929  -30.7254   24.2283 H   0  0  0  0  0  0
  -17.5011  -31.6259   24.5167 H   0  0  0  0  0  0
  -15.5346  -30.2989   23.7643 H   0  0  0  0  0  0
  -15.8663  -28.0822   22.7056 H   0  0  0  0  0  0
  -24.5956  -30.7008   25.7839 H   0  0  0  0  0  0
  -24.8903  -32.2857   26.4896 H   0  0  0  0  0  0
  -25.8115  -30.8927   27.0263 H   0  0  0  0  0  0
  -26.2846  -29.6809   24.1162 H   0  0  0  0  0  0
  -27.4057  -29.7265   25.4579 H   0  0  0  0  0  0
  -27.8697  -30.4342   23.9279 H   0  0  0  0  0  0
  -27.2705  -33.3605   26.2078 H   0  0  0  0  0  0
  -28.3870  -32.6853   25.0298 H   0  0  0  0  0  0
  -28.0749  -31.8413   26.5385 H   0  0  0  0  0  0
  -28.2592  -38.0112   24.7525 H   0  0  0  0  0  0
  -28.1088  -36.2648   24.6246 H   0  0  0  0  0  0
  -27.2315  -37.1417   25.8862 H   0  0  0  0  0  0
  -20.9311  -29.8776   21.6952 H   0  0  0  0  0  0
  -26.0180  -38.2873   24.1427 H   0  0  0  0  0  0
  -32.4865  -18.0067   20.4825 H   0  0  0  0  0  0
  -28.3268  -20.4993   21.5474 H   0  0  0  0  0  0
  -30.5817  -16.5207   23.1089 H   0  0  0  0  0  0
  -31.9344  -16.3391   22.0593 H   0  0  0  0  0  0
  -28.2087  -22.5763   20.1657 H   0  0  0  0  0  0
  -29.0116  -22.8088   21.7074 H   0  0  0  0  0  0
  -27.3593  -24.9027   20.6203 H   0  0  0  0  0  0
  -27.8789  -25.0033   18.9390 H   0  0  0  0  0  0
  -27.6146  -18.6346   22.8778 H   0  0  0  0  0  0
  -28.5173  -17.2120   23.0387 H   0  0  0  0  0  0
  -31.0767  -22.3964   19.8604 H   0  0  0  0  0  0
  -29.2590  -15.1237   21.8002 H   0  0  0  0  0  0
  1 25  1  0  0  0
  1 30  2  0  0  0
  1 83  1  0  0  0
  2  3  1  0  0  0
  2 25  1  0  0  0
  2 86  1  0  0  0
  2 87  1  0  0  0
  3  4  1  0  0  0
  3 88  1  0  0  0
  3 89  1  0  0  0
  4  5  1  0  0  0
  4 90  1  0  0  0
  4 91  1  0  0  0
  5  6  1  0  0  0
  5 26  1  0  0  0
  5 92  1  0  0  0
  6 25  1  0  0  0
  6 93  1  0  0  0
  6 94  1  0  0  0
  7  8  2  0  0  0
  7 26  1  0  0  0
  7 29  1  0  0  0
  8  9  1  0  0  0
  8 22  1  0  0  0
  9 10  1  0  0  0
  9 27  2  0  0  0
 10 11  2  0  0  0
 10 15  1  0  0  0
 11 12  1  0  0  0
 11 95  1  0  0  0
 12 13  2  0  0  0
 12 96  1  0  0  0
 13 14  1  0  0  0
 13 31  1  0  0  0
 14 15  2  0  0  0
 14 97  1  0  0  0
 15 98  1  0  0  0
 16 17  2  0  0  0
 16 21  1  0  0  0
 16 31  1  0  0  0
 17 18  1  0  0  0
 17 99  1  0  0  0
 18 19  2  0  0  0
 18100  1  0  0  0
 19 20  1  0  0  0
 19 24  1  0  0  0
 20 21  2  0  0  0
 20101  1  0  0  0
 21 23  1  0  0  0
 22 28  1  0  0  0
 22 32  2  0  0  0
 26 27  1  0  0  0
 28102  1  0  0  0
 28103  1  0  0  0
 29104  1  0  0  0
 29105  1  0  0  0
 33 34  1  0  0  0
 33 66  1  0  0  0
 33 70  2  0  0  0
 34 36  1  0  0  0
 34 59  1  0  0  0
 34106  1  0  0  0
 35 44  2  0  0  0
 35 45  1  0  0  0
 35 68  1  0  0  0
 36 56  1  0  0  0
 36107  1  0  0  0
 37 39  1  0  0  0
 37 47  1  0  0  0
 37 66  1  0  0  0
 37108  1  0  0  0
 38 43  2  0  0  0
 38 46  1  0  0  0
 38 47  1  0  0  0
 39 64  1  0  0  0
 39 67  2  0  0  0
 40 52  1  0  0  0
 40 53  2  0  0  0
 40 58  1  0  0  0
 41109  1  0  0  0
 41110  1  0  0  0
 41111  1  0  0  0
 41 48  1  0  0  0
 42 43  1  0  0  0
 42 66  1  0  0  0
 42112  1  0  0  0
 42113  1  0  0  0
 43 44  1  0  0  0
 44114  1  0  0  0
 45 46  2  0  0  0
 45115  1  0  0  0
 46116  1  0  0  0
 47117  1  0  0  0
 47118  1  0  0  0
 48 56  1  0  0  0
 48 65  1  0  0  0
 48119  1  0  0  0
 49 50  1  0  0  0
 49 53  1  0  0  0
 49 64  1  0  0  0
 49120  1  0  0  0
 50 51  1  0  0  0
 50121  1  0  0  0
 50122  1  0  0  0
 51 52  1  0  0  0
 51123  1  0  0  0
 51124  1  0  0  0
 52125  1  0  0  0
 52126  1  0  0  0
 53 54  1  0  0  0
 54 55  2  0  0  0
 54127  1  0  0  0
 55 57  1  0  0  0
 55128  1  0  0  0
 56 69  2  0  0  0
 57 58  2  0  0  0
 57129  1  0  0  0
 58130  1  0  0  0
 59 60  1  0  0  0
 59 61  1  0  0  0
 59 62  1  0  0  0
 60131  1  0  0  0
 60132  1  0  0  0
 60133  1  0  0  0
 61134  1  0  0  0
 61135  1  0  0  0
 61136  1  0  0  0
 62137  1  0  0  0
 62138  1  0  0  0
 62139  1  0  0  0
 63 65  1  0  0  0
 63140  1  0  0  0
 63141  1  0  0  0
 63142  1  0  0  0
 64143  1  0  0  0
 65144  1  0  0  0
 68 80  1  0  0  0
 71 73  2  0  0  0
 71 76  1  0  0  0
 71145  1  0  0  0
 72 74  2  0  0  0
 72 75  1  0  0  0
 72146  1  0  0  0
 73 74  1  0  0  0
 73 78  1  0  0  0
 74 81  1  0  0  0
 75 76  2  0  0  0
 75 82  1  0  0  0
 76 85  1  0  0  0
 77 79  1  0  0  0
 77 80  1  0  0  0
 77 84  2  0  0  0
 78 83  1  0  0  0
 78147  1  0  0  0
 78148  1  0  0  0
 79 82  1  0  0  0
 79149  1  0  0  0
 79150  1  0  0  0
 80151  1  0  0  0
 80152  1  0  0  0
 81153  1  0  0  0
 81154  1  0  0  0
 82155  1  0  0  0
 83156  1  0  0  0
M  ISO  4   1 100  68 101  80 101  83 100
M  END
> <chiral flag>
0

> <version>
0

> <s_m_source_file>
/data/baiqing/PycharmProjects/Reinvent-master-3.2/result/LINK_invent/BTK/process_docking_weight1_custom_product_contain_oxygen_bond_distance_aromatic_linkinvent_7_9_3/rearranged_h_0106.sdf

> <i_m_source_file_index>
11

> <r_mmod_Potential_Energy-OPLS-2005>
-37.7951698303223

> <r_mmod_Stretch_Energy-OPLS-2005>
40.2226409912109

> <r_mmod_Bend_Energy-OPLS-2005>
110.078453063965

> <r_mmod_Torsional_Energy-OPLS-2005>
194.213729858398

> <r_mmod_Improper_Torsional_Energy-OPLS-2005>
5.66307258605957

> <r_mmod_Van_der_Waal_Energy-OPLS-2005>
156.897277832031

> <r_mmod_Electrostatic_Energy-OPLS-2005>
-311.587646484375

> <r_mmod_Solvation_Energy-OPLS-2005>
-245.968490600586

> <b_mmod_Minimization_Converged-OPLS-2005>
0

> <r_mmod_RMS_Derivative-OPLS-2005>
0.593057870864868

$$$$
11
                    3D
 Structure written by MMmdl.
161170  0  0  1  0            999 V2000
  -30.6671  -14.4403   20.5791 C   0  0  0  0  0  0
  -30.4338  -12.2776   19.4151 C   0  0  0  0  0  0
  -29.5256  -12.5345   18.1978 C   0  0  0  0  0  0
  -28.0246  -12.4561   18.5730 C   0  0  0  0  0  0
  -27.6753  -13.2176   19.8830 C   0  0  2  0  0  0
  -28.7096  -12.9089   20.9860 C   0  0  0  0  0  0
  -25.2614  -13.8178   20.5605 C   0  0  0  0  0  0
  -24.1883  -13.0456   20.9139 C   0  0  0  0  0  0
  -24.6474  -11.6940   20.8733 C   0  0  0  0  0  0
  -23.9137  -10.4325   21.0390 C   0  0  0  0  0  0
  -24.3677   -9.4230   21.9156 C   0  0  0  0  0  0
  -23.6346   -8.2273   22.0751 C   0  0  0  0  0  0
  -22.4326   -8.0330   21.3555 C   0  0  0  0  0  0
  -21.9959   -9.0304   20.4668 C   0  0  0  0  0  0
  -22.7310  -10.2154   20.3052 C   0  0  0  0  0  0
  -21.6871   -6.0778   22.5289 C   0  0  0  0  0  0
  -21.4033   -6.5671   23.8231 C   0  0  0  0  0  0
  -21.3639   -5.6793   24.9171 C   0  0  0  0  0  0
  -21.6043   -4.3059   24.7194 C   0  0  0  0  0  0
  -21.8818   -3.8179   23.4308 C   0  0  0  0  0  0
  -21.9198   -4.7007   22.3390 C   0  0  0  0  0  0
  -22.7888  -13.5248   21.1757 C   0  0  0  0  0  0
  -22.1654   -4.2212   21.0965 F   0  0  0  0  0  0
  -21.5600   -3.4518   25.7696 F   0  0  0  0  0  0
  -30.0466  -13.2372   20.4554 N   0  0  0  0  0  0
  -26.3101  -12.9382   20.3323 N   0  0  0  0  0  0
  -25.9412  -11.6534   20.5690 N   0  0  0  0  0  0
  -22.0504  -12.8290   22.0329 N   0  0  0  0  0  0
  -25.4286  -15.1900   20.3937 N   0  0  0  0  0  0
  -31.7788  -14.6777   20.0960 O   0  0  0  0  0  0
  -21.6689   -6.8923   21.4275 O   0  0  0  0  0  0
  -22.3592  -14.5504   20.6525 O   0  0  0  0  0  0
  -24.6076  -31.8692   23.2105 C   0  0  0  0  0  0
  -25.8957  -32.4858   23.8390 C   0  0  1  0  0  0
  -27.2598  -27.4717   20.0986 C   0  0  0  0  0  0
  -25.5827  -33.8653   24.2328 N   0  0  0  0  0  0
  -23.4023  -30.4889   21.5450 C   0  0  2  0  0  0
  -24.8610  -28.9560   20.1188 C   0  0  0  0  0  0
  -22.7427  -29.4643   22.4961 C   0  0  0  0  0  0
  -18.0251  -28.1379   22.8504 C   0  0  0  0  0  0
  -24.1473  -36.7336   23.2637 C   0  0  0  0  0  0
  -25.9238  -30.8485   21.3581 C   0  0  0  0  0  0
  -26.0134  -29.4790   20.7177 C   0  0  0  0  0  0
  -27.2168  -28.7415   20.7122 C   0  0  0  0  0  0
  -26.0976  -26.9677   19.4720 C   0  0  0  0  0  0
  -24.8954  -27.6988   19.4915 C   0  0  0  0  0  0
  -23.6192  -29.8158   20.1622 C   0  0  0  0  0  0
  -25.4106  -36.3148   24.0339 C   0  0  1  0  0  0
  -20.5850  -28.3655   23.1335 C   0  0  2  0  0  0
  -20.6737  -26.9393   22.5430 C   0  0  0  0  0  0
  -19.5724  -26.6392   21.5218 C   0  0  0  0  0  0
  -18.1904  -26.7919   22.1632 C   0  0  0  0  0  0
  -19.1506  -28.8838   23.2913 C   0  0  0  0  0  0
  -18.9431  -30.1440   23.8940 C   0  0  0  0  0  0
  -17.6444  -30.6612   24.0558 C   0  0  0  0  0  0
  -25.9019  -34.9507   23.5141 C   0  0  0  0  0  0
  -16.5334  -29.9135   23.6294 C   0  0  0  0  0  0
  -16.7245  -28.6530   23.0352 C   0  0  0  0  0  0
  -26.4426  -31.6600   25.0679 C   0  0  0  0  0  0
  -25.3720  -31.3618   26.1427 C   0  0  0  0  0  0
  -27.0266  -30.3082   24.5959 C   0  0  0  0  0  0
  -27.6010  -32.4316   25.7449 C   0  0  0  0  0  0
  -27.5588  -37.1837   24.8474 C   0  0  0  0  0  0
  -21.4146  -29.3027   22.3741 N   0  0  0  0  0  0
  -26.4308  -37.3833   23.9404 N   0  0  0  0  0  0
  -24.6617  -31.0838   22.0982 N   0  0  0  0  0  0
  -23.4208  -28.8159   23.2971 O   0  0  0  0  0  0
  -28.4180  -26.7310   20.1049 O   0  0  0  0  0  0
  -26.5613  -34.8944   22.4725 O   0  0  0  0  0  0
  -23.5270  -32.1398   23.7515 O   0  0  0  0  0  0
  -31.4108  -18.8023   21.5737 C   0  0  0  0  0  0
  -31.3172  -17.4046   21.3979 C   0  0  0  0  0  0
  -28.9100  -17.6168   21.0925 C   0  0  0  0  0  0
  -30.2566  -19.6192   21.5124 C   0  0  0  0  0  0
  -30.0601  -16.7969   21.1825 C   0  0  0  0  0  0
  -29.0062  -19.0160   21.2578 C   0  0  0  0  0  0
  -30.3459  -21.0889   21.8408 C   0  0  0  0  0  0
  -30.1510  -22.9088   18.6478 C   0  0  0  0  0  0
  -29.2733  -24.1091   19.0001 C   0  0  0  0  0  0
  -29.7866  -21.6870   19.4988 C   0  0  0  0  0  0
  -29.1797  -23.2066   21.3891 C   0  0  0  0  0  0
  -29.3669  -24.4631   20.4916 C   0  0  2  0  0  0
  -28.3068  -25.5202   20.8616 C   0  0  0  0  0  0
  -29.8747  -21.9835   20.9345 N   0  0  0  0  0  0
  -29.8934  -15.3843   21.1491 N   0  0  0  0  0  0
  -30.7516  -21.4199   22.9614 O   0  0  0  0  0  0
  -27.8706  -19.7610   21.2295 F   0  0  0  0  0  0
  -31.4858  -12.3641   19.1382 H   0  0  0  0  0  0
  -30.3048  -11.2537   19.7698 H   0  0  0  0  0  0
  -29.7558  -11.8181   17.4092 H   0  0  0  0  0  0
  -29.7468  -13.5240   17.7903 H   0  0  0  0  0  0
  -27.7514  -11.4050   18.6580 H   0  0  0  0  0  0
  -27.4274  -12.8551   17.7495 H   0  0  0  0  0  0
  -27.7399  -14.2846   19.6649 H   0  0  0  0  0  0
  -28.6713  -11.8510   21.2544 H   0  0  0  0  0  0
  -28.4767  -13.4425   21.9059 H   0  0  0  0  0  0
  -25.2831   -9.5692   22.4718 H   0  0  0  0  0  0
  -24.0055   -7.4676   22.7482 H   0  0  0  0  0  0
  -21.0865   -8.8840   19.9020 H   0  0  0  0  0  0
  -22.3777  -10.9684   19.6156 H   0  0  0  0  0  0
  -21.2059   -7.6182   23.9742 H   0  0  0  0  0  0
  -21.1441   -6.0523   25.9064 H   0  0  0  0  0  0
  -22.0615   -2.7658   23.2792 H   0  0  0  0  0  0
  -22.4109  -12.0024   22.4839 H   0  0  0  0  0  0
  -21.1117  -13.1362   22.2441 H   0  0  0  0  0  0
  -24.6410  -15.8254   20.4649 H   0  0  0  0  0  0
  -26.2567  -15.6256   20.0084 H   0  0  0  0  0  0
  -26.7042  -32.5610   23.1170 H   0  0  0  0  0  0
  -24.9887  -33.9809   25.0407 H   0  0  0  0  0  0
  -22.6823  -31.2960   21.3993 H   0  0  0  0  0  0
  -23.3749  -35.9663   23.3328 H   0  0  0  0  0  0
  -24.3560  -36.8925   22.2052 H   0  0  0  0  0  0
  -23.7207  -37.6543   23.6629 H   0  0  0  0  0  0
  -26.0112  -31.6081   20.5788 H   0  0  0  0  0  0
  -26.8216  -30.9274   21.9608 H   0  0  0  0  0  0
  -28.1051  -29.1404   21.1832 H   0  0  0  0  0  0
  -26.1279  -26.0200   18.9563 H   0  0  0  0  0  0
  -24.0160  -27.2992   19.0065 H   0  0  0  0  0  0
  -23.7305  -30.5844   19.3975 H   0  0  0  0  0  0
  -22.7498  -29.2289   19.8665 H   0  0  0  0  0  0
  -25.1284  -36.2035   25.0841 H   0  0  0  0  0  0
  -20.9928  -28.3220   24.1459 H   0  0  0  0  0  0
  -20.5630  -26.2272   23.3617 H   0  0  0  0  0  0
  -21.6599  -26.7443   22.1212 H   0  0  0  0  0  0
  -19.6870  -25.6313   21.1234 H   0  0  0  0  0  0
  -19.6653  -27.3219   20.6763 H   0  0  0  0  0  0
  -17.4157  -26.6647   21.4047 H   0  0  0  0  0  0
  -18.0322  -26.0081   22.9062 H   0  0  0  0  0  0
  -19.7921  -30.7213   24.2357 H   0  0  0  0  0  0
  -17.5019  -31.6286   24.5167 H   0  0  0  0  0  0
  -15.5348  -30.3053   23.7605 H   0  0  0  0  0  0
  -15.8631  -28.0872   22.7054 H   0  0  0  0  0  0
  -24.5897  -30.6990   25.7693 H   0  0  0  0  0  0
  -24.8897  -32.2746   26.4951 H   0  0  0  0  0  0
  -25.8086  -30.8695   27.0126 H   0  0  0  0  0  0
  -26.2778  -29.6865   24.1047 H   0  0  0  0  0  0
  -27.4139  -29.7265   25.4323 H   0  0  0  0  0  0
  -27.8543  -30.4447   23.8998 H   0  0  0  0  0  0
  -27.2638  -33.3618   26.2028 H   0  0  0  0  0  0
  -28.3824  -32.6886   25.0285 H   0  0  0  0  0  0
  -28.0674  -31.8440   26.5365 H   0  0  0  0  0  0
  -28.2627  -38.0111   24.7538 H   0  0  0  0  0  0
  -28.1058  -36.2660   24.6298 H   0  0  0  0  0  0
  -27.2300  -37.1491   25.8869 H   0  0  0  0  0  0
  -20.9294  -29.8787   21.7008 H   0  0  0  0  0  0
  -26.0205  -38.2922   24.1402 H   0  0  0  0  0  0
  -32.3710  -19.2513   21.7794 H   0  0  0  0  0  0
  -32.2160  -16.8025   21.4670 H   0  0  0  0  0  0
  -27.9369  -17.1821   20.9159 H   0  0  0  0  0  0
  -31.2018  -23.1660   18.7941 H   0  0  0  0  0  0
  -30.0329  -22.6597   17.5909 H   0  0  0  0  0  0
  -28.2388  -23.8790   18.7462 H   0  0  0  0  0  0
  -29.5645  -24.9724   18.3987 H   0  0  0  0  0  0
  -30.4581  -20.8760   19.2152 H   0  0  0  0  0  0
  -28.7777  -21.3476   19.2619 H   0  0  0  0  0  0
  -28.1217  -22.9450   21.4371 H   0  0  0  0  0  0
  -29.4545  -23.4776   22.4122 H   0  0  0  0  0  0
  -30.3540  -24.8880   20.6831 H   0  0  0  0  0  0
  -28.3738  -25.7716   21.9233 H   0  0  0  0  0  0
  -27.3281  -25.0580   20.7328 H   0  0  0  0  0  0
  -28.9961  -15.0354   21.4551 H   0  0  0  0  0  0
  1 25  1  0  0  0
  1 30  2  0  0  0
  1 85  1  0  0  0
  2  3  1  0  0  0
  2 25  1  0  0  0
  2 88  1  0  0  0
  2 89  1  0  0  0
  3  4  1  0  0  0
  3 90  1  0  0  0
  3 91  1  0  0  0
  4  5  1  0  0  0
  4 92  1  0  0  0
  4 93  1  0  0  0
  5  6  1  0  0  0
  5 26  1  0  0  0
  5 94  1  0  0  0
  6 25  1  0  0  0
  6 95  1  0  0  0
  6 96  1  0  0  0
  7  8  2  0  0  0
  7 26  1  0  0  0
  7 29  1  0  0  0
  8  9  1  0  0  0
  8 22  1  0  0  0
  9 10  1  0  0  0
  9 27  2  0  0  0
 10 11  2  0  0  0
 10 15  1  0  0  0
 11 12  1  0  0  0
 11 97  1  0  0  0
 12 13  2  0  0  0
 12 98  1  0  0  0
 13 14  1  0  0  0
 13 31  1  0  0  0
 14 15  2  0  0  0
 14 99  1  0  0  0
 15100  1  0  0  0
 16 17  2  0  0  0
 16 21  1  0  0  0
 16 31  1  0  0  0
 17 18  1  0  0  0
 17101  1  0  0  0
 18 19  2  0  0  0
 18102  1  0  0  0
 19 20  1  0  0  0
 19 24  1  0  0  0
 20 21  2  0  0  0
 20103  1  0  0  0
 21 23  1  0  0  0
 22 28  1  0  0  0
 22 32  2  0  0  0
 26 27  1  0  0  0
 28104  1  0  0  0
 28105  1  0  0  0
 29106  1  0  0  0
 29107  1  0  0  0
 33 34  1  0  0  0
 33 66  1  0  0  0
 33 70  2  0  0  0
 34 36  1  0  0  0
 34 59  1  0  0  0
 34108  1  0  0  0
 35 44  2  0  0  0
 35 45  1  0  0  0
 35 68  1  0  0  0
 36 56  1  0  0  0
 36109  1  0  0  0
 37 39  1  0  0  0
 37 47  1  0  0  0
 37 66  1  0  0  0
 37110  1  0  0  0
 38 43  2  0  0  0
 38 46  1  0  0  0
 38 47  1  0  0  0
 39 64  1  0  0  0
 39 67  2  0  0  0
 40 52  1  0  0  0
 40 53  2  0  0  0
 40 58  1  0  0  0
 41111  1  0  0  0
 41112  1  0  0  0
 41113  1  0  0  0
 41 48  1  0  0  0
 42 43  1  0  0  0
 42 66  1  0  0  0
 42114  1  0  0  0
 42115  1  0  0  0
 43 44  1  0  0  0
 44116  1  0  0  0
 45 46  2  0  0  0
 45117  1  0  0  0
 46118  1  0  0  0
 47119  1  0  0  0
 47120  1  0  0  0
 48 56  1  0  0  0
 48 65  1  0  0  0
 48121  1  0  0  0
 49 50  1  0  0  0
 49 53  1  0  0  0
 49 64  1  0  0  0
 49122  1  0  0  0
 50 51  1  0  0  0
 50123  1  0  0  0
 50124  1  0  0  0
 51 52  1  0  0  0
 51125  1  0  0  0
 51126  1  0  0  0
 52127  1  0  0  0
 52128  1  0  0  0
 53 54  1  0  0  0
 54 55  2  0  0  0
 54129  1  0  0  0
 55 57  1  0  0  0
 55130  1  0  0  0
 56 69  2  0  0  0
 57 58  2  0  0  0
 57131  1  0  0  0
 58132  1  0  0  0
 59 60  1  0  0  0
 59 61  1  0  0  0
 59 62  1  0  0  0
 60133  1  0  0  0
 60134  1  0  0  0
 60135  1  0  0  0
 61136  1  0  0  0
 61137  1  0  0  0
 61138  1  0  0  0
 62139  1  0  0  0
 62140  1  0  0  0
 62141  1  0  0  0
 63 65  1  0  0  0
 63142  1  0  0  0
 63143  1  0  0  0
 63144  1  0  0  0
 64145  1  0  0  0
 65146  1  0  0  0
 68 83  1  0  0  0
 71 72  2  0  0  0
 71 74  1  0  0  0
 71147  1  0  0  0
 72 75  1  0  0  0
 72148  1  0  0  0
 73 75  2  0  0  0
 73 76  1  0  0  0
 73149  1  0  0  0
 74 76  2  0  0  0
 74 77  1  0  0  0
 75 85  1  0  0  0
 76 87  1  0  0  0
 77 84  1  0  0  0
 77 86  2  0  0  0
 78 79  1  0  0  0
 78 80  1  0  0  0
 78150  1  0  0  0
 78151  1  0  0  0
 79 82  1  0  0  0
 79152  1  0  0  0
 79153  1  0  0  0
 80 84  1  0  0  0
 80154  1  0  0  0
 80155  1  0  0  0
 81 82  1  0  0  0
 81 84  1  0  0  0
 81156  1  0  0  0
 81157  1  0  0  0
 82 83  1  0  0  0
 82158  1  0  0  0
 83159  1  0  0  0
 83160  1  0  0  0
 85161  1  0  0  0
M  ISO  4   1 100  68 101  83 101  85 100
M  END
> <chiral flag>
0

> <version>
0

> <s_m_source_file>
/data/baiqing/PycharmProjects/Reinvent-master-3.2/result/LINK_invent/BTK/process_docking_weight1_custom_product_contain_oxygen_bond_distance_aromatic_linkinvent_7_9_3/rearranged_h_0106.sdf

> <i_m_source_file_index>
12

> <r_mmod_Potential_Energy-OPLS-2005>
123.363990783691

> <r_mmod_Stretch_Energy-OPLS-2005>
37.6951293945312

> <r_mmod_Bend_Energy-OPLS-2005>
96.786262512207

> <r_mmod_Torsional_Energy-OPLS-2005>
344.620849609375

> <r_mmod_Improper_Torsional_Energy-OPLS-2005>
6.10590887069702

> <r_mmod_Van_der_Waal_Energy-OPLS-2005>
163.093811035156

> <r_mmod_Electrostatic_Energy-OPLS-2005>
-320.010223388672

> <r_mmod_Solvation_Energy-OPLS-2005>
-215.301910400391

> <b_mmod_Minimization_Converged-OPLS-2005>
0

> <r_mmod_RMS_Derivative-OPLS-2005>
5.8992486000061

$$$$
12
                    3D
 Structure written by MMmdl.
164173  0  0  1  0            999 V2000
  -30.6241  -14.6816   20.4840 C   0  0  0  0  0  0
  -30.4420  -12.4187   19.4554 C   0  0  0  0  0  0
  -29.5093  -12.5109   18.2268 C   0  0  0  0  0  0
  -28.0343  -12.3358   18.6419 C   0  0  0  0  0  0
  -27.6482  -13.2141   19.8608 C   0  0  2  0  0  0
  -28.7000  -13.1044   20.9897 C   0  0  0  0  0  0
  -25.2434  -13.7996   20.5633 C   0  0  0  0  0  0
  -24.1758  -13.0294   20.9229 C   0  0  0  0  0  0
  -24.6384  -11.6804   20.8781 C   0  0  0  0  0  0
  -23.9056  -10.4217   21.0423 C   0  0  0  0  0  0
  -24.3604   -9.4144   21.9203 C   0  0  0  0  0  0
  -23.6273   -8.2190   22.0763 C   0  0  0  0  0  0
  -22.4259   -8.0244   21.3543 C   0  0  0  0  0  0
  -21.9897   -9.0219   20.4647 C   0  0  0  0  0  0
  -22.7234  -10.2088   20.3061 C   0  0  0  0  0  0
  -21.6840   -6.0717   22.5281 C   0  0  0  0  0  0
  -21.4000   -6.5625   23.8212 C   0  0  0  0  0  0
  -21.3656   -5.6781   24.9178 C   0  0  0  0  0  0
  -21.6044   -4.3045   24.7231 C   0  0  0  0  0  0
  -21.8823   -3.8134   23.4354 C   0  0  0  0  0  0
  -21.9192   -4.6947   22.3408 C   0  0  0  0  0  0
  -22.7789  -13.5127   21.1875 C   0  0  0  0  0  0
  -22.1665   -4.2133   21.0986 F   0  0  0  0  0  0
  -21.5632   -3.4531   25.7746 F   0  0  0  0  0  0
  -30.0114  -13.4534   20.4180 N   0  0  0  0  0  0
  -26.2951  -12.9266   20.3324 N   0  0  0  0  0  0
  -25.9326  -11.6425   20.5804 N   0  0  0  0  0  0
  -22.0418  -12.8159   22.0444 N   0  0  0  0  0  0
  -25.3854  -15.1656   20.3871 N   0  0  0  0  0  0
  -31.8009  -14.8255   20.1421 O   0  0  0  0  0  0
  -21.6614   -6.8851   21.4241 O   0  0  0  0  0  0
  -22.3500  -14.5449   20.6724 O   0  0  0  0  0  0
  -24.6259  -31.8596   23.2023 C   0  0  0  0  0  0
  -25.9104  -32.4777   23.8354 C   0  0  1  0  0  0
  -27.2352  -27.3250   20.1231 C   0  0  0  0  0  0
  -25.5923  -33.8578   24.2282 N   0  0  0  0  0  0
  -23.4204  -30.4813   21.5447 C   0  0  2  0  0  0
  -24.8699  -28.9342   20.1140 C   0  0  0  0  0  0
  -22.7473  -29.4620   22.4946 C   0  0  0  0  0  0
  -18.0281  -28.1385   22.8484 C   0  0  0  0  0  0
  -24.1490  -36.7299   23.2639 C   0  0  0  0  0  0
  -25.9604  -30.7919   21.3729 C   0  0  0  0  0  0
  -26.0372  -29.4180   20.7188 C   0  0  0  0  0  0
  -27.2232  -28.6258   20.7122 C   0  0  0  0  0  0
  -26.0494  -26.8968   19.4845 C   0  0  0  0  0  0
  -24.8778  -27.6783   19.4868 C   0  0  0  0  0  0
  -23.6356  -29.8121   20.1615 C   0  0  0  0  0  0
  -25.4113  -36.3086   24.0331 C   0  0  1  0  0  0
  -20.5881  -28.3688   23.1287 C   0  0  2  0  0  0
  -20.6772  -26.9412   22.5412 C   0  0  0  0  0  0
  -19.5748  -26.6381   21.5217 C   0  0  0  0  0  0
  -18.1925  -26.7926   22.1624 C   0  0  0  0  0  0
  -19.1534  -28.8854   23.2875 C   0  0  0  0  0  0
  -18.9457  -30.1459   23.8885 C   0  0  0  0  0  0
  -17.6458  -30.6586   24.0564 C   0  0  0  0  0  0
  -25.9047  -34.9453   23.5107 C   0  0  0  0  0  0
  -16.5347  -29.9084   23.6338 C   0  0  0  0  0  0
  -16.7269  -28.6506   23.0353 C   0  0  0  0  0  0
  -26.4489  -31.6582   25.0721 C   0  0  0  0  0  0
  -25.3722  -31.3715   26.1451 C   0  0  0  0  0  0
  -27.0329  -30.3005   24.6170 C   0  0  0  0  0  0
  -27.6051  -32.4310   25.7494 C   0  0  0  0  0  0
  -27.5578  -37.1804   24.8462 C   0  0  0  0  0  0
  -21.4188  -29.3040   22.3682 N   0  0  0  0  0  0
  -26.4291  -37.3779   23.9404 N   0  0  0  0  0  0
  -24.6875  -31.0606   22.0970 N   0  0  0  0  0  0
  -23.4196  -28.8168   23.3032 O   0  0  0  0  0  0
  -28.3602  -26.4857   20.1426 O   0  0  0  0  0  0
  -26.5617  -34.8921   22.4673 O   0  0  0  0  0  0
  -23.5422  -32.1393   23.7351 O   0  0  0  0  0  0
  -28.8785  -19.4211   20.0772 C   0  0  0  0  0  0
  -31.1104  -17.9540   20.9202 C   0  0  0  0  0  0
  -28.8298  -17.9996   20.1687 C   0  0  0  0  0  0
  -30.0319  -20.1663   20.4039 C   0  0  0  0  0  0
  -29.9453  -17.2106   20.5857 C   0  0  0  0  0  0
  -31.1523  -19.3856   20.8401 C   0  0  0  0  0  0
  -29.1721  -23.9364   20.1222 C   0  0  0  0  0  0
  -29.1720  -22.6322   20.6019 C   0  0  0  0  0  0
  -30.2099  -24.2930   19.1231 C   0  0  0  0  0  0
  -31.3957  -23.3413   18.9842 C   0  0  0  0  0  0
  -30.9406  -21.8768   19.0360 C   0  0  0  0  0  0
  -27.5223  -17.3412   19.8121 C   0  0  0  0  0  0
  -28.1658  -22.2119   21.6669 C   0  0  0  0  0  0
  -28.1570  -25.0713   20.5516 C   0  0  0  0  0  0
  -30.0891  -21.5991   20.1986 N   0  0  0  0  0  0
  -32.3197  -20.0426   21.2337 N   0  0  0  0  0  0
  -29.7995  -15.7511   20.7441 N   0  0  0  0  0  0
  -30.1775  -25.2955   18.4035 O   0  0  0  0  0  0
  -31.4816  -12.5489   19.1496 H   0  0  0  0  0  0
  -30.3851  -11.4287   19.9112 H   0  0  0  0  0  0
  -29.7825  -11.7554   17.4890 H   0  0  0  0  0  0
  -29.6406  -13.4773   17.7369 H   0  0  0  0  0  0
  -27.8838  -11.2833   18.8861 H   0  0  0  0  0  0
  -27.3760  -12.5480   17.7986 H   0  0  0  0  0  0
  -27.6511  -14.2407   19.5021 H   0  0  0  0  0  0
  -28.7250  -12.0920   21.3953 H   0  0  0  0  0  0
  -28.4420  -13.7550   21.8269 H   0  0  0  0  0  0
  -25.2746   -9.5622   22.4783 H   0  0  0  0  0  0
  -23.9976   -7.4576   22.7481 H   0  0  0  0  0  0
  -21.0830   -8.8748   19.8950 H   0  0  0  0  0  0
  -22.3707  -10.9636   19.6172 H   0  0  0  0  0  0
  -21.1981   -7.6131   23.9710 H   0  0  0  0  0  0
  -21.1478   -6.0511   25.9081 H   0  0  0  0  0  0
  -22.0606   -2.7597   23.2857 H   0  0  0  0  0  0
  -22.4014  -11.9822   22.4852 H   0  0  0  0  0  0
  -21.1045  -13.1215   22.2645 H   0  0  0  0  0  0
  -24.5916  -15.7917   20.4656 H   0  0  0  0  0  0
  -26.1966  -15.6011   19.9738 H   0  0  0  0  0  0
  -26.7176  -32.5455   23.1109 H   0  0  0  0  0  0
  -25.0070  -33.9724   25.0427 H   0  0  0  0  0  0
  -22.7140  -31.3014   21.4002 H   0  0  0  0  0  0
  -23.3750  -35.9635   23.3305 H   0  0  0  0  0  0
  -24.3583  -36.8916   22.2053 H   0  0  0  0  0  0
  -23.7250  -37.6506   23.6657 H   0  0  0  0  0  0
  -26.0890  -31.5537   20.6028 H   0  0  0  0  0  0
  -26.8420  -30.8436   22.0004 H   0  0  0  0  0  0
  -28.1199  -28.9950   21.1896 H   0  0  0  0  0  0
  -26.0152  -25.9472   18.9707 H   0  0  0  0  0  0
  -23.9874  -27.3065   18.9990 H   0  0  0  0  0  0
  -23.7497  -30.5865   19.4019 H   0  0  0  0  0  0
  -22.7573  -29.2364   19.8635 H   0  0  0  0  0  0
  -25.1294  -36.1941   25.0824 H   0  0  0  0  0  0
  -20.9967  -28.3260   24.1412 H   0  0  0  0  0  0
  -20.5689  -26.2294   23.3609 H   0  0  0  0  0  0
  -21.6639  -26.7449   22.1200 H   0  0  0  0  0  0
  -19.6910  -25.6292   21.1251 H   0  0  0  0  0  0
  -19.6691  -27.3190   20.6747 H   0  0  0  0  0  0
  -17.4202  -26.6684   21.4018 H   0  0  0  0  0  0
  -18.0313  -26.0066   22.9017 H   0  0  0  0  0  0
  -19.7934  -30.7278   24.2242 H   0  0  0  0  0  0
  -17.5016  -31.6268   24.5165 H   0  0  0  0  0  0
  -15.5349  -30.2984   23.7667 H   0  0  0  0  0  0
  -15.8670  -28.0828   22.7064 H   0  0  0  0  0  0
  -24.5897  -30.7063   25.7778 H   0  0  0  0  0  0
  -24.8913  -32.2879   26.4880 H   0  0  0  0  0  0
  -25.8051  -30.8889   27.0222 H   0  0  0  0  0  0
  -26.2897  -29.6756   24.1202 H   0  0  0  0  0  0
  -27.4034  -29.7260   25.4669 H   0  0  0  0  0  0
  -27.8766  -30.4291   23.9385 H   0  0  0  0  0  0
  -27.2664  -33.3608   26.2076 H   0  0  0  0  0  0
  -28.3861  -32.6870   25.0320 H   0  0  0  0  0  0
  -28.0720  -31.8428   26.5405 H   0  0  0  0  0  0
  -28.2596  -38.0100   24.7507 H   0  0  0  0  0  0
  -28.1072  -36.2630   24.6288 H   0  0  0  0  0  0
  -27.2296  -37.1456   25.8865 H   0  0  0  0  0  0
  -20.9367  -29.8754   21.6884 H   0  0  0  0  0  0
  -26.0174  -38.2857   24.1400 H   0  0  0  0  0  0
  -28.0069  -19.9596   19.7343 H   0  0  0  0  0  0
  -31.9820  -17.4193   21.2696 H   0  0  0  0  0  0
  -32.0925  -23.5435   19.7973 H   0  0  0  0  0  0
  -31.9241  -23.5399   18.0518 H   0  0  0  0  0  0
  -31.8218  -21.2364   19.0078 H   0  0  0  0  0  0
  -30.3740  -21.6440   18.1328 H   0  0  0  0  0  0
  -26.8534  -18.0215   19.2837 H   0  0  0  0  0  0
  -27.0375  -17.0469   20.7407 H   0  0  0  0  0  0
  -27.6818  -16.4763   19.1698 H   0  0  0  0  0  0
  -28.1504  -22.9322   22.4851 H   0  0  0  0  0  0
  -28.3877  -21.2462   22.1194 H   0  0  0  0  0  0
  -27.1635  -22.1627   21.2405 H   0  0  0  0  0  0
  -28.1371  -25.0859   21.6413 H   0  0  0  0  0  0
  -27.1760  -24.7030   20.2583 H   0  0  0  0  0  0
  -32.8852  -19.5904   21.9435 H   0  0  0  0  0  0
  -32.1914  -21.0324   21.4194 H   0  0  0  0  0  0
  -28.8551  -15.4515   20.9278 H   0  0  0  0  0  0
  1 25  1  0  0  0
  1 30  2  0  0  0
  1 87  1  0  0  0
  2  3  1  0  0  0
  2 25  1  0  0  0
  2 89  1  0  0  0
  2 90  1  0  0  0
  3  4  1  0  0  0
  3 91  1  0  0  0
  3 92  1  0  0  0
  4  5  1  0  0  0
  4 93  1  0  0  0
  4 94  1  0  0  0
  5  6  1  0  0  0
  5 26  1  0  0  0
  5 95  1  0  0  0
  6 25  1  0  0  0
  6 96  1  0  0  0
  6 97  1  0  0  0
  7  8  2  0  0  0
  7 26  1  0  0  0
  7 29  1  0  0  0
  8  9  1  0  0  0
  8 22  1  0  0  0
  9 10  1  0  0  0
  9 27  2  0  0  0
 10 11  2  0  0  0
 10 15  1  0  0  0
 11 12  1  0  0  0
 11 98  1  0  0  0
 12 13  2  0  0  0
 12 99  1  0  0  0
 13 14  1  0  0  0
 13 31  1  0  0  0
 14 15  2  0  0  0
 14100  1  0  0  0
 15101  1  0  0  0
 16 17  2  0  0  0
 16 21  1  0  0  0
 16 31  1  0  0  0
 17 18  1  0  0  0
 17102  1  0  0  0
 18 19  2  0  0  0
 18103  1  0  0  0
 19 20  1  0  0  0
 19 24  1  0  0  0
 20 21  2  0  0  0
 20104  1  0  0  0
 21 23  1  0  0  0
 22 28  1  0  0  0
 22 32  2  0  0  0
 26 27  1  0  0  0
 28105  1  0  0  0
 28106  1  0  0  0
 29107  1  0  0  0
 29108  1  0  0  0
 33 34  1  0  0  0
 33 66  1  0  0  0
 33 70  2  0  0  0
 34 36  1  0  0  0
 34 59  1  0  0  0
 34109  1  0  0  0
 35 44  2  0  0  0
 35 45  1  0  0  0
 35 68  1  0  0  0
 36 56  1  0  0  0
 36110  1  0  0  0
 37 39  1  0  0  0
 37 47  1  0  0  0
 37 66  1  0  0  0
 37111  1  0  0  0
 38 43  2  0  0  0
 38 46  1  0  0  0
 38 47  1  0  0  0
 39 64  1  0  0  0
 39 67  2  0  0  0
 40 52  1  0  0  0
 40 53  2  0  0  0
 40 58  1  0  0  0
 41112  1  0  0  0
 41113  1  0  0  0
 41114  1  0  0  0
 41 48  1  0  0  0
 42 43  1  0  0  0
 42 66  1  0  0  0
 42115  1  0  0  0
 42116  1  0  0  0
 43 44  1  0  0  0
 44117  1  0  0  0
 45 46  2  0  0  0
 45118  1  0  0  0
 46119  1  0  0  0
 47120  1  0  0  0
 47121  1  0  0  0
 48 56  1  0  0  0
 48 65  1  0  0  0
 48122  1  0  0  0
 49 50  1  0  0  0
 49 53  1  0  0  0
 49 64  1  0  0  0
 49123  1  0  0  0
 50 51  1  0  0  0
 50124  1  0  0  0
 50125  1  0  0  0
 51 52  1  0  0  0
 51126  1  0  0  0
 51127  1  0  0  0
 52128  1  0  0  0
 52129  1  0  0  0
 53 54  1  0  0  0
 54 55  2  0  0  0
 54130  1  0  0  0
 55 57  1  0  0  0
 55131  1  0  0  0
 56 69  2  0  0  0
 57 58  2  0  0  0
 57132  1  0  0  0
 58133  1  0  0  0
 59 60  1  0  0  0
 59 61  1  0  0  0
 59 62  1  0  0  0
 60134  1  0  0  0
 60135  1  0  0  0
 60136  1  0  0  0
 61137  1  0  0  0
 61138  1  0  0  0
 61139  1  0  0  0
 62140  1  0  0  0
 62141  1  0  0  0
 62142  1  0  0  0
 63 65  1  0  0  0
 63143  1  0  0  0
 63144  1  0  0  0
 63145  1  0  0  0
 64146  1  0  0  0
 65147  1  0  0  0
 68 84  1  0  0  0
 71 73  2  0  0  0
 71 74  1  0  0  0
 71148  1  0  0  0
 72 75  2  0  0  0
 72 76  1  0  0  0
 72149  1  0  0  0
 73 75  1  0  0  0
 73 82  1  0  0  0
 74 76  2  0  0  0
 74 85  1  0  0  0
 75 87  1  0  0  0
 76 86  1  0  0  0
 77 78  2  0  0  0
 77 79  1  0  0  0
 77 84  1  0  0  0
 78 83  1  0  0  0
 78 85  1  0  0  0
 79 80  1  0  0  0
 79 88  2  0  0  0
 80 81  1  0  0  0
 80150  1  0  0  0
 80151  1  0  0  0
 81 85  1  0  0  0
 81152  1  0  0  0
 81153  1  0  0  0
 82154  1  0  0  0
 82155  1  0  0  0
 82156  1  0  0  0
 83157  1  0  0  0
 83158  1  0  0  0
 83159  1  0  0  0
 84160  1  0  0  0
 84161  1  0  0  0
 86162  1  0  0  0
 86163  1  0  0  0
 87164  1  0  0  0
M  ISO  4   1 100  68 101  84 101  87 100
M  END
> <chiral flag>
0

> <version>
0

> <s_m_source_file>
/data/baiqing/PycharmProjects/Reinvent-master-3.2/result/LINK_invent/BTK/process_docking_weight1_custom_product_contain_oxygen_bond_distance_aromatic_linkinvent_7_9_3/rearranged_h_0106.sdf

> <i_m_source_file_index>
13

> <r_mmod_Potential_Energy-OPLS-2005>
94.5844039916992

> <r_mmod_Stretch_Energy-OPLS-2005>
92.1343612670898

> <r_mmod_Bend_Energy-OPLS-2005>
139.819671630859

> <r_mmod_Torsional_Energy-OPLS-2005>
242.235961914062

> <r_mmod_Improper_Torsional_Energy-OPLS-2005>
11.9441890716553

> <r_mmod_Van_der_Waal_Energy-OPLS-2005>
165.013229370117

> <r_mmod_Electrostatic_Energy-OPLS-2005>
-382.227508544922

> <r_mmod_Solvation_Energy-OPLS-2005>
-228.974273681641

> <b_mmod_Minimization_Converged-OPLS-2005>
0

> <r_mmod_RMS_Derivative-OPLS-2005>
0.734346568584442

$$$$
13
                    3D
 Structure written by MMmdl.
159168  0  0  1  0            999 V2000
  -30.5449  -14.9541   20.3504 C   0  0  0  0  0  0
  -30.4485  -12.5739   19.4804 C   0  0  0  0  0  0
  -29.5167  -12.4354   18.2521 C   0  0  0  0  0  0
  -28.0452  -12.2734   18.6807 C   0  0  0  0  0  0
  -27.6248  -13.2308   19.8274 C   0  0  2  0  0  0
  -28.6799  -13.2991   20.9500 C   0  0  0  0  0  0
  -25.2490  -13.8183   20.5744 C   0  0  0  0  0  0
  -24.1776  -13.0433   20.9234 C   0  0  0  0  0  0
  -24.6367  -11.6910   20.8781 C   0  0  0  0  0  0
  -23.9051  -10.4288   21.0425 C   0  0  0  0  0  0
  -24.3608   -9.4198   21.9193 C   0  0  0  0  0  0
  -23.6287   -8.2232   22.0754 C   0  0  0  0  0  0
  -22.4270   -8.0273   21.3542 C   0  0  0  0  0  0
  -21.9906   -9.0248   20.4647 C   0  0  0  0  0  0
  -22.7231  -10.2129   20.3063 C   0  0  0  0  0  0
  -21.6850   -6.0730   22.5278 C   0  0  0  0  0  0
  -21.4012   -6.5635   23.8212 C   0  0  0  0  0  0
  -21.3659   -5.6790   24.9175 C   0  0  0  0  0  0
  -21.6045   -4.3052   24.7226 C   0  0  0  0  0  0
  -21.8819   -3.8143   23.4347 C   0  0  0  0  0  0
  -21.9191   -4.6958   22.3403 C   0  0  0  0  0  0
  -22.7799  -13.5220   21.1879 C   0  0  0  0  0  0
  -22.1660   -4.2144   21.0981 F   0  0  0  0  0  0
  -21.5630   -3.4536   25.7739 F   0  0  0  0  0  0
  -29.9452  -13.6947   20.3180 N   0  0  0  0  0  0
  -26.2886  -12.9369   20.3287 N   0  0  0  0  0  0
  -25.9296  -11.6521   20.5802 N   0  0  0  0  0  0
  -22.0441  -12.8212   22.0434 N   0  0  0  0  0  0
  -25.4220  -15.1903   20.4187 N   0  0  0  0  0  0
  -31.7782  -14.9900   20.2780 O   0  0  0  0  0  0
  -21.6636   -6.8870   21.4239 O   0  0  0  0  0  0
  -22.3485  -14.5521   20.6717 O   0  0  0  0  0  0
  -24.6414  -31.8464   23.1895 C   0  0  0  0  0  0
  -25.9192  -32.4710   23.8280 C   0  0  1  0  0  0
  -27.2193  -27.1563   20.1527 C   0  0  0  0  0  0
  -25.5943  -33.8514   24.2197 N   0  0  0  0  0  0
  -23.4438  -30.4656   21.5357 C   0  0  2  0  0  0
  -24.8927  -28.8941   20.1142 C   0  0  0  0  0  0
  -22.7556  -29.4559   22.4878 C   0  0  0  0  0  0
  -18.0301  -28.1396   22.8479 C   0  0  0  0  0  0
  -24.1490  -36.7264   23.2642 C   0  0  0  0  0  0
  -25.9982  -30.7275   21.3843 C   0  0  0  0  0  0
  -26.0702  -29.3394   20.7282 C   0  0  0  0  0  0
  -27.2357  -28.4877   20.7278 C   0  0  0  0  0  0
  -26.0148  -26.8072   19.5022 C   0  0  0  0  0  0
  -24.8769  -27.6405   19.4860 C   0  0  0  0  0  0
  -23.6686  -29.7940   20.1556 C   0  0  0  0  0  0
  -25.4121  -36.3043   24.0317 C   0  0  1  0  0  0
  -20.5912  -28.3718   23.1246 C   0  0  2  0  0  0
  -20.6787  -26.9425   22.5407 C   0  0  0  0  0  0
  -19.5759  -26.6383   21.5216 C   0  0  0  0  0  0
  -18.1940  -26.7934   22.1627 C   0  0  0  0  0  0
  -19.1558  -28.8875   23.2854 C   0  0  0  0  0  0
  -18.9474  -30.1472   23.8878 C   0  0  0  0  0  0
  -17.6471  -30.6593   24.0560 C   0  0  0  0  0  0
  -25.9071  -34.9417   23.5067 C   0  0  0  0  0  0
  -16.5362  -29.9086   23.6336 C   0  0  0  0  0  0
  -16.7287  -28.6505   23.0356 C   0  0  0  0  0  0
  -26.4515  -31.6572   25.0716 C   0  0  0  0  0  0
  -25.3700  -31.3757   26.1411 C   0  0  0  0  0  0
  -27.0376  -30.2971   24.6280 C   0  0  0  0  0  0
  -27.6046  -32.4335   25.7502 C   0  0  0  0  0  0
  -27.5576  -37.1789   24.8465 C   0  0  0  0  0  0
  -21.4252  -29.3046   22.3623 N   0  0  0  0  0  0
  -26.4288  -37.3753   23.9407 N   0  0  0  0  0  0
  -24.7143  -31.0336   22.0921 N   0  0  0  0  0  0
  -23.4209  -28.8110   23.3024 O   0  0  0  0  0  0
  -28.2883  -26.1949   20.1980 O   0  0  0  0  0  0
  -26.5660  -34.8912   22.4649 O   0  0  0  0  0  0
  -23.5538  -32.1330   23.7125 O   0  0  0  0  0  0
  -30.0301  -20.0640   19.7186 C   0  0  0  0  0  0
  -30.2955  -18.6440   19.5299 C   0  0  0  0  0  0
  -28.6396  -19.5049   21.5345 C   0  0  0  0  0  0
  -29.1811  -20.5917   20.7459 C   0  0  0  0  0  0
  -29.7571  -17.5692   20.3337 C   0  0  0  0  0  0
  -28.9072  -18.0892   21.3564 C   0  0  0  0  0  0
  -29.1736  -22.4241   22.3748 C   0  0  0  0  0  0
  -28.3095  -16.6289   18.0417 C   0  0  0  0  0  0
  -29.3479  -15.9660   18.5861 C   0  0  0  0  0  0
  -29.9644  -23.7168   22.5133 C   0  0  0  0  0  0
  -30.3487  -24.0171   21.0719 C   0  0  0  0  0  0
  -29.1628  -23.4348   20.3051 C   0  0  2  0  0  0
  -28.0179  -24.6693   20.3160 C   0  0  0  0  0  0
  -28.9447  -22.0815   21.0830 N   0  0  0  0  0  0
  -29.7945  -16.0924   19.9166 N   0  0  0  0  0  0
  -28.8190  -21.8002   23.3792 O   0  0  0  0  0  0
  -28.2710  -17.2068   22.1639 F   0  0  0  0  0  0
  -31.4738  -12.7474   19.1489 H   0  0  0  0  0  0
  -30.4691  -11.6482   20.0572 H   0  0  0  0  0  0
  -29.8199  -11.5720   17.6584 H   0  0  0  0  0  0
  -29.6153  -13.2850   17.5826 H   0  0  0  0  0  0
  -27.9261  -11.2410   19.0107 H   0  0  0  0  0  0
  -27.3827  -12.3929   17.8225 H   0  0  0  0  0  0
  -27.5630  -14.2164   19.3743 H   0  0  0  0  0  0
  -28.7749  -12.3436   21.4673 H   0  0  0  0  0  0
  -28.3896  -14.0389   21.6983 H   0  0  0  0  0  0
  -25.2749   -9.5677   22.4771 H   0  0  0  0  0  0
  -23.9997   -7.4623   22.7472 H   0  0  0  0  0  0
  -21.0837   -8.8767   19.8953 H   0  0  0  0  0  0
  -22.3688  -10.9672   19.6177 H   0  0  0  0  0  0
  -21.2003   -7.6144   23.9713 H   0  0  0  0  0  0
  -21.1482   -6.0520   25.9077 H   0  0  0  0  0  0
  -22.0599   -2.7605   23.2848 H   0  0  0  0  0  0
  -22.4060  -11.9882   22.4838 H   0  0  0  0  0  0
  -21.1056  -13.1234   22.2633 H   0  0  0  0  0  0
  -24.6671  -15.8532   20.5541 H   0  0  0  0  0  0
  -26.2963  -15.6288   20.1576 H   0  0  0  0  0  0
  -26.7259  -32.5324   23.1012 H   0  0  0  0  0  0
  -25.0051  -33.9632   25.0317 H   0  0  0  0  0  0
  -22.7452  -31.2907   21.3821 H   0  0  0  0  0  0
  -23.3758  -35.9591   23.3295 H   0  0  0  0  0  0
  -24.3574  -36.8905   22.2059 H   0  0  0  0  0  0
  -23.7241  -37.6456   23.6685 H   0  0  0  0  0  0
  -26.1485  -31.4813   20.6104 H   0  0  0  0  0  0
  -26.8710  -30.7798   22.0237 H   0  0  0  0  0  0
  -28.1355  -28.8264   21.2217 H   0  0  0  0  0  0
  -25.9189  -25.8566   19.0022 H   0  0  0  0  0  0
  -23.9788  -27.2950   18.9928 H   0  0  0  0  0  0
  -23.8034  -30.5675   19.3988 H   0  0  0  0  0  0
  -22.7839  -29.2342   19.8470 H   0  0  0  0  0  0
  -25.1309  -36.1873   25.0809 H   0  0  0  0  0  0
  -21.0001  -28.3304   24.1369 H   0  0  0  0  0  0
  -20.5687  -26.2330   23.3621 H   0  0  0  0  0  0
  -21.6653  -26.7437   22.1201 H   0  0  0  0  0  0
  -19.6921  -25.6289   21.1257 H   0  0  0  0  0  0
  -19.6695  -27.3184   20.6737 H   0  0  0  0  0  0
  -17.4209  -26.6678   21.4031 H   0  0  0  0  0  0
  -18.0341  -26.0082   22.9030 H   0  0  0  0  0  0
  -19.7949  -30.7294   24.2239 H   0  0  0  0  0  0
  -17.5024  -31.6272   24.5165 H   0  0  0  0  0  0
  -15.5362  -30.2982   23.7671 H   0  0  0  0  0  0
  -15.8687  -28.0818   22.7082 H   0  0  0  0  0  0
  -24.5883  -30.7102   25.7728 H   0  0  0  0  0  0
  -24.8880  -32.2937   26.4785 H   0  0  0  0  0  0
  -25.7979  -30.8961   27.0222 H   0  0  0  0  0  0
  -26.2987  -29.6702   24.1276 H   0  0  0  0  0  0
  -27.3982  -29.7263   25.4847 H   0  0  0  0  0  0
  -27.8897  -30.4215   23.9595 H   0  0  0  0  0  0
  -27.2640  -33.3652   26.2033 H   0  0  0  0  0  0
  -28.3882  -32.6872   25.0350 H   0  0  0  0  0  0
  -28.0688  -31.8492   26.5457 H   0  0  0  0  0  0
  -28.2588  -38.0090   24.7511 H   0  0  0  0  0  0
  -28.1076  -36.2619   24.6293 H   0  0  0  0  0  0
  -27.2292  -37.1438   25.8867 H   0  0  0  0  0  0
  -20.9462  -29.8752   21.6796 H   0  0  0  0  0  0
  -26.0157  -38.2823   24.1409 H   0  0  0  0  0  0
  -30.5127  -20.7619   19.0481 H   0  0  0  0  0  0
  -30.9161  -18.3719   18.6882 H   0  0  0  0  0  0
  -27.9624  -19.7472   22.3390 H   0  0  0  0  0  0
  -28.0526  -16.4863   17.0016 H   0  0  0  0  0  0
  -27.6991  -17.3168   18.6091 H   0  0  0  0  0  0
  -29.9441  -15.2994   17.9807 H   0  0  0  0  0  0
  -30.8357  -23.5910   23.1560 H   0  0  0  0  0  0
  -29.3261  -24.4935   22.9356 H   0  0  0  0  0  0
  -31.2693  -23.4933   20.8080 H   0  0  0  0  0  0
  -30.5108  -25.0792   20.8868 H   0  0  0  0  0  0
  -29.4586  -23.2265   19.2765 H   0  0  0  0  0  0
  -27.4457  -24.5665   21.2388 H   0  0  0  0  0  0
  -27.3171  -24.3901   19.5324 H   0  0  0  0  0  0
  1 25  1  0  0  0
  1 30  2  0  0  0
  1 85  1  0  0  0
  2  3  1  0  0  0
  2 25  1  0  0  0
  2 88  1  0  0  0
  2 89  1  0  0  0
  3  4  1  0  0  0
  3 90  1  0  0  0
  3 91  1  0  0  0
  4  5  1  0  0  0
  4 92  1  0  0  0
  4 93  1  0  0  0
  5  6  1  0  0  0
  5 26  1  0  0  0
  5 94  1  0  0  0
  6 25  1  0  0  0
  6 95  1  0  0  0
  6 96  1  0  0  0
  7  8  2  0  0  0
  7 26  1  0  0  0
  7 29  1  0  0  0
  8  9  1  0  0  0
  8 22  1  0  0  0
  9 10  1  0  0  0
  9 27  2  0  0  0
 10 11  2  0  0  0
 10 15  1  0  0  0
 11 12  1  0  0  0
 11 97  1  0  0  0
 12 13  2  0  0  0
 12 98  1  0  0  0
 13 14  1  0  0  0
 13 31  1  0  0  0
 14 15  2  0  0  0
 14 99  1  0  0  0
 15100  1  0  0  0
 16 17  2  0  0  0
 16 21  1  0  0  0
 16 31  1  0  0  0
 17 18  1  0  0  0
 17101  1  0  0  0
 18 19  2  0  0  0
 18102  1  0  0  0
 19 20  1  0  0  0
 19 24  1  0  0  0
 20 21  2  0  0  0
 20103  1  0  0  0
 21 23  1  0  0  0
 22 28  1  0  0  0
 22 32  2  0  0  0
 26 27  1  0  0  0
 28104  1  0  0  0
 28105  1  0  0  0
 29106  1  0  0  0
 29107  1  0  0  0
 33 34  1  0  0  0
 33 66  1  0  0  0
 33 70  2  0  0  0
 34 36  1  0  0  0
 34 59  1  0  0  0
 34108  1  0  0  0
 35 44  2  0  0  0
 35 45  1  0  0  0
 35 68  1  0  0  0
 36 56  1  0  0  0
 36109  1  0  0  0
 37 39  1  0  0  0
 37 47  1  0  0  0
 37 66  1  0  0  0
 37110  1  0  0  0
 38 43  2  0  0  0
 38 46  1  0  0  0
 38 47  1  0  0  0
 39 64  1  0  0  0
 39 67  2  0  0  0
 40 52  1  0  0  0
 40 53  2  0  0  0
 40 58  1  0  0  0
 41111  1  0  0  0
 41112  1  0  0  0
 41113  1  0  0  0
 41 48  1  0  0  0
 42 43  1  0  0  0
 42 66  1  0  0  0
 42114  1  0  0  0
 42115  1  0  0  0
 43 44  1  0  0  0
 44116  1  0  0  0
 45 46  2  0  0  0
 45117  1  0  0  0
 46118  1  0  0  0
 47119  1  0  0  0
 47120  1  0  0  0
 48 56  1  0  0  0
 48 65  1  0  0  0
 48121  1  0  0  0
 49 50  1  0  0  0
 49 53  1  0  0  0
 49 64  1  0  0  0
 49122  1  0  0  0
 50 51  1  0  0  0
 50123  1  0  0  0
 50124  1  0  0  0
 51 52  1  0  0  0
 51125  1  0  0  0
 51126  1  0  0  0
 52127  1  0  0  0
 52128  1  0  0  0
 53 54  1  0  0  0
 54 55  2  0  0  0
 54129  1  0  0  0
 55 57  1  0  0  0
 55130  1  0  0  0
 56 69  2  0  0  0
 57 58  2  0  0  0
 57131  1  0  0  0
 58132  1  0  0  0
 59 60  1  0  0  0
 59 61  1  0  0  0
 59 62  1  0  0  0
 60133  1  0  0  0
 60134  1  0  0  0
 60135  1  0  0  0
 61136  1  0  0  0
 61137  1  0  0  0
 61138  1  0  0  0
 62139  1  0  0  0
 62140  1  0  0  0
 62141  1  0  0  0
 63 65  1  0  0  0
 63142  1  0  0  0
 63143  1  0  0  0
 63144  1  0  0  0
 64145  1  0  0  0
 65146  1  0  0  0
 68 83  1  0  0  0
 71 72  2  0  0  0
 71 74  1  0  0  0
 71147  1  0  0  0
 72 75  1  0  0  0
 72148  1  0  0  0
 73 74  2  0  0  0
 73 76  1  0  0  0
 73149  1  0  0  0
 74 84  1  0  0  0
 75 76  2  0  0  0
 75 85  1  0  0  0
 76 87  1  0  0  0
 77 80  1  0  0  0
 77 84  1  0  0  0
 77 86  2  0  0  0
 78 79  2  0  0  0
 78150  1  0  0  0
 78151  1  0  0  0
 79 85  1  0  0  0
 79152  1  0  0  0
 80 81  1  0  0  0
 80153  1  0  0  0
 80154  1  0  0  0
 81 82  1  0  0  0
 81155  1  0  0  0
 81156  1  0  0  0
 82 83  1  0  0  0
 82 84  1  0  0  0
 82157  1  0  0  0
 83158  1  0  0  0
 83159  1  0  0  0
M  ISO  4   1 100  68 101  83 101  85 100
M  END
> <chiral flag>
0

> <version>
0

> <s_m_source_file>
/data/baiqing/PycharmProjects/Reinvent-master-3.2/result/LINK_invent/BTK/process_docking_weight1_custom_product_contain_oxygen_bond_distance_aromatic_linkinvent_7_9_3/rearranged_h_0106.sdf

> <i_m_source_file_index>
14

> <r_mmod_Potential_Energy-OPLS-2005>
804.634582519531

> <r_mmod_Stretch_Energy-OPLS-2005>
236.875900268555

> <r_mmod_Bend_Energy-OPLS-2005>
290.636993408203

> <r_mmod_Torsional_Energy-OPLS-2005>
430.782562255859

> <r_mmod_Improper_Torsional_Energy-OPLS-2005>
24.7128467559814

> <r_mmod_Van_der_Waal_Energy-OPLS-2005>
143.424163818359

> <r_mmod_Electrostatic_Energy-OPLS-2005>
-311.092926025391

> <r_mmod_Solvation_Energy-OPLS-2005>
-203.907287597656

> <b_mmod_Minimization_Converged-OPLS-2005>
0

> <r_mmod_RMS_Derivative-OPLS-2005>
0.452424973249435

$$$$
14
                    3D
 Structure written by MMmdl.
165174  0  0  1  0            999 V2000
  -30.5984  -14.7558   20.3273 C   0  0  0  0  0  0
  -30.4559  -12.4224   19.4693 C   0  0  0  0  0  0
  -29.5142  -12.2770   18.2476 C   0  0  0  0  0  0
  -28.0215  -12.2531   18.6463 C   0  0  0  0  0  0
  -27.6339  -13.2115   19.8099 C   0  0  2  0  0  0
  -28.6888  -13.2005   20.9331 C   0  0  0  0  0  0
  -25.2549  -13.8184   20.5714 C   0  0  0  0  0  0
  -24.1787  -13.0477   20.9202 C   0  0  0  0  0  0
  -24.6347  -11.6946   20.8783 C   0  0  0  0  0  0
  -23.9018  -10.4323   21.0438 C   0  0  0  0  0  0
  -24.3602   -9.4226   21.9194 C   0  0  0  0  0  0
  -23.6274   -8.2263   22.0779 C   0  0  0  0  0  0
  -22.4254   -8.0296   21.3570 C   0  0  0  0  0  0
  -21.9877   -9.0261   20.4680 C   0  0  0  0  0  0
  -22.7199  -10.2146   20.3075 C   0  0  0  0  0  0
  -21.6853   -6.0721   22.5270 C   0  0  0  0  0  0
  -21.4021   -6.5622   23.8202 C   0  0  0  0  0  0
  -21.3668   -5.6785   24.9166 C   0  0  0  0  0  0
  -21.6047   -4.3048   24.7214 C   0  0  0  0  0  0
  -21.8820   -3.8129   23.4334 C   0  0  0  0  0  0
  -21.9188   -4.6946   22.3388 C   0  0  0  0  0  0
  -22.7806  -13.5307   21.1772 C   0  0  0  0  0  0
  -22.1656   -4.2131   21.0967 F   0  0  0  0  0  0
  -21.5625   -3.4534   25.7732 F   0  0  0  0  0  0
  -29.9696  -13.5350   20.3078 N   0  0  0  0  0  0
  -26.2925  -12.9353   20.3191 N   0  0  0  0  0  0
  -25.9257  -11.6526   20.5781 N   0  0  0  0  0  0
  -22.0377  -12.8375   22.0356 N   0  0  0  0  0  0
  -25.4225  -15.1902   20.4247 N   0  0  0  0  0  0
  -31.8338  -14.7940   20.3131 O   0  0  0  0  0  0
  -21.6638   -6.8877   21.4243 O   0  0  0  0  0  0
  -22.3512  -14.5538   20.6500 O   0  0  0  0  0  0
  -24.6239  -31.8625   23.1990 C   0  0  0  0  0  0
  -25.9063  -32.4849   23.8342 C   0  0  1  0  0  0
  -27.2382  -27.3325   20.1249 C   0  0  0  0  0  0
  -25.5874  -33.8631   24.2296 N   0  0  0  0  0  0
  -23.4197  -30.4827   21.5375 C   0  0  2  0  0  0
  -24.8707  -28.9413   20.0996 C   0  0  0  0  0  0
  -22.7461  -29.4632   22.4885 C   0  0  0  0  0  0
  -18.0263  -28.1417   22.8490 C   0  0  0  0  0  0
  -24.1448  -36.7307   23.2624 C   0  0  0  0  0  0
  -25.9530  -30.8089   21.3525 C   0  0  0  0  0  0
  -26.0327  -29.4280   20.7112 C   0  0  0  0  0  0
  -27.2130  -28.6303   20.7173 C   0  0  0  0  0  0
  -26.0515  -26.8914   19.4932 C   0  0  0  0  0  0
  -24.8828  -27.6804   19.4796 C   0  0  0  0  0  0
  -23.6380  -29.8218   20.1477 C   0  0  0  0  0  0
  -25.4073  -36.3118   24.0340 C   0  0  1  0  0  0
  -20.5869  -28.3702   23.1311 C   0  0  2  0  0  0
  -20.6734  -26.9424   22.5428 C   0  0  0  0  0  0
  -19.5717  -26.6407   21.5212 C   0  0  0  0  0  0
  -18.1904  -26.7961   22.1627 C   0  0  0  0  0  0
  -19.1521  -28.8876   23.2914 C   0  0  0  0  0  0
  -18.9445  -30.1453   23.8980 C   0  0  0  0  0  0
  -17.6462  -30.6632   24.0568 C   0  0  0  0  0  0
  -25.9021  -34.9502   23.5129 C   0  0  0  0  0  0
  -16.5346  -29.9155   23.6296 C   0  0  0  0  0  0
  -16.7260  -28.6540   23.0374 C   0  0  0  0  0  0
  -26.4480  -31.6603   25.0657 C   0  0  0  0  0  0
  -25.3717  -31.3740   26.1370 C   0  0  0  0  0  0
  -27.0233  -30.3027   24.5967 C   0  0  0  0  0  0
  -27.6055  -32.4271   25.7474 C   0  0  0  0  0  0
  -27.5566  -37.1818   24.8477 C   0  0  0  0  0  0
  -21.4159  -29.3072   22.3710 N   0  0  0  0  0  0
  -26.4257  -37.3815   23.9448 N   0  0  0  0  0  0
  -24.6862  -31.0668   22.0901 N   0  0  0  0  0  0
  -23.4228  -28.8158   23.2919 O   0  0  0  0  0  0
  -28.3856  -26.5307   20.2168 O   0  0  0  0  0  0
  -26.5590  -34.8964   22.4690 O   0  0  0  0  0  0
  -23.5401  -32.1381   23.7322 O   0  0  0  0  0  0
  -28.0316  -19.0942   20.2022 C   0  0  0  0  0  0
  -28.3058  -17.7040   20.0406 C   0  0  0  0  0  0
  -30.5996  -18.0810   20.6347 C   0  0  0  0  0  0
  -29.0275  -20.0300   20.5873 C   0  0  0  0  0  0
  -29.6022  -17.1468   20.2327 C   0  0  0  0  0  0
  -30.3213  -19.4753   20.8158 C   0  0  0  0  0  0
  -28.3637  -23.8588   20.4350 C   0  0  0  0  0  0
  -28.9134  -22.6184   20.1239 C   0  0  0  0  0  0
  -27.5425  -23.9335   21.6680 C   0  0  0  0  0  0
  -27.7488  -22.8228   22.6981 C   0  0  0  0  0  0
  -27.7746  -21.4466   22.0194 C   0  0  0  0  0  0
  -29.7990  -22.4535   18.8951 C   0  0  0  0  0  0
  -29.5053  -16.8940   17.3699 C   0  0  0  0  0  0
  -28.5204  -25.1925   19.5900 C   0  0  0  0  0  0
  -30.2630  -15.8794   18.2565 C   0  0  0  0  0  0
  -28.6856  -21.4092   20.8717 N   0  0  0  0  0  0
  -29.9161  -15.8057   19.7025 N   0  0  0  0  0  0
  -26.7067  -24.8084   21.9014 O   0  0  0  0  0  0
  -31.3273  -20.2901   21.2244 F   0  0  0  0  0  0
  -31.4825  -12.5935   19.1340 H   0  0  0  0  0  0
  -30.4777  -11.4999   20.0526 H   0  0  0  0  0  0
  -29.7608  -11.3411   17.7428 H   0  0  0  0  0  0
  -29.6913  -13.0151   17.4786 H   0  0  0  0  0  0
  -27.8052  -11.2247   18.9370 H   0  0  0  0  0  0
  -27.3977  -12.4435   17.7723 H   0  0  0  0  0  0
  -27.6132  -14.2094   19.3749 H   0  0  0  0  0  0
  -28.7391  -12.2248   21.4158 H   0  0  0  0  0  0
  -28.4337  -13.9272   21.7060 H   0  0  0  0  0  0
  -25.2764   -9.5681   22.4745 H   0  0  0  0  0  0
  -23.9978   -7.4656   22.7510 H   0  0  0  0  0  0
  -21.0788   -8.8767   19.8994 H   0  0  0  0  0  0
  -22.3652  -10.9674   19.6175 H   0  0  0  0  0  0
  -21.2022   -7.6137   23.9699 H   0  0  0  0  0  0
  -21.1497   -6.0519   25.9076 H   0  0  0  0  0  0
  -22.0583   -2.7586   23.2821 H   0  0  0  0  0  0
  -22.3949  -12.0136   22.4950 H   0  0  0  0  0  0
  -21.0948  -13.1415   22.2334 H   0  0  0  0  0  0
  -24.6541  -15.8390   20.5507 H   0  0  0  0  0  0
  -26.2869  -15.6418   20.1630 H   0  0  0  0  0  0
  -26.7146  -32.5586   23.1121 H   0  0  0  0  0  0
  -25.0086  -33.9794   25.0488 H   0  0  0  0  0  0
  -22.7154  -31.3071   21.3962 H   0  0  0  0  0  0
  -23.3734  -35.9624   23.3300 H   0  0  0  0  0  0
  -24.3539  -36.8881   22.2035 H   0  0  0  0  0  0
  -23.7186  -37.6493   23.6648 H   0  0  0  0  0  0
  -26.0499  -31.5609   20.5666 H   0  0  0  0  0  0
  -26.8479  -30.8984   21.9560 H   0  0  0  0  0  0
  -28.1040  -28.9986   21.2082 H   0  0  0  0  0  0
  -25.9929  -25.9174   19.0368 H   0  0  0  0  0  0
  -23.9909  -27.3113   18.9909 H   0  0  0  0  0  0
  -23.7656  -30.6045   19.3977 H   0  0  0  0  0  0
  -22.7566  -29.2556   19.8354 H   0  0  0  0  0  0
  -25.1254  -36.1968   25.0839 H   0  0  0  0  0  0
  -20.9978  -28.3246   24.1421 H   0  0  0  0  0  0
  -20.5561  -26.2310   23.3614 H   0  0  0  0  0  0
  -21.6617  -26.7421   22.1270 H   0  0  0  0  0  0
  -19.6836  -25.6300   21.1264 H   0  0  0  0  0  0
  -19.6653  -27.3190   20.6714 H   0  0  0  0  0  0
  -17.4153  -26.6691   21.4036 H   0  0  0  0  0  0
  -18.0317  -26.0118   22.9044 H   0  0  0  0  0  0
  -19.7918  -30.7212   24.2444 H   0  0  0  0  0  0
  -17.5029  -31.6320   24.5154 H   0  0  0  0  0  0
  -15.5356  -30.3134   23.7558 H   0  0  0  0  0  0
  -15.8626  -28.0884   22.7142 H   0  0  0  0  0  0
  -24.5977  -30.6964   25.7761 H   0  0  0  0  0  0
  -24.8790  -32.2881   26.4666 H   0  0  0  0  0  0
  -25.8036  -30.9073   27.0223 H   0  0  0  0  0  0
  -26.2728  -29.6894   24.0943 H   0  0  0  0  0  0
  -27.3909  -29.7157   25.4393 H   0  0  0  0  0  0
  -27.8643  -30.4316   23.9143 H   0  0  0  0  0  0
  -27.2716  -33.3616   26.1998 H   0  0  0  0  0  0
  -28.3963  -32.6707   25.0376 H   0  0  0  0  0  0
  -28.0609  -31.8376   26.5415 H   0  0  0  0  0  0
  -28.2618  -38.0087   24.7550 H   0  0  0  0  0  0
  -28.1029  -36.2634   24.6288 H   0  0  0  0  0  0
  -27.2318  -37.1470   25.8885 H   0  0  0  0  0  0
  -20.9297  -29.8872   21.7022 H   0  0  0  0  0  0
  -26.0129  -38.2886   24.1464 H   0  0  0  0  0  0
  -27.0287  -19.4417   19.9942 H   0  0  0  0  0  0
  -27.5120  -17.0792   19.6615 H   0  0  0  0  0  0
  -31.6193  -17.7515   20.7621 H   0  0  0  0  0  0
  -26.9626  -22.8492   23.4537 H   0  0  0  0  0  0
  -28.6950  -23.0082   23.2060 H   0  0  0  0  0  0
  -26.7685  -21.1935   21.6746 H   0  0  0  0  0  0
  -28.0559  -20.6986   22.7616 H   0  0  0  0  0  0
  -29.2190  -22.6093   17.9845 H   0  0  0  0  0  0
  -30.2676  -21.4736   18.8172 H   0  0  0  0  0  0
  -30.6099  -23.1853   18.9146 H   0  0  0  0  0  0
  -28.4262  -16.7388   17.3902 H   0  0  0  0  0  0
  -29.8127  -16.7876   16.3280 H   0  0  0  0  0  0
  -29.7114  -17.9269   17.6503 H   0  0  0  0  0  0
  -27.9323  -25.1200   18.6752 H   0  0  0  0  0  0
  -29.5459  -25.1917   19.2254 H   0  0  0  0  0  0
  -30.0994  -14.9187   17.7953 H   0  0  0  0  0  0
  -31.3322  -16.0707   18.1561 H   0  0  0  0  0  0
  1 25  1  0  0  0
  1 30  2  0  0  0
  1 87  1  0  0  0
  2  3  1  0  0  0
  2 25  1  0  0  0
  2 90  1  0  0  0
  2 91  1  0  0  0
  3  4  1  0  0  0
  3 92  1  0  0  0
  3 93  1  0  0  0
  4  5  1  0  0  0
  4 94  1  0  0  0
  4 95  1  0  0  0
  5  6  1  0  0  0
  5 26  1  0  0  0
  5 96  1  0  0  0
  6 25  1  0  0  0
  6 97  1  0  0  0
  6 98  1  0  0  0
  7  8  2  0  0  0
  7 26  1  0  0  0
  7 29  1  0  0  0
  8  9  1  0  0  0
  8 22  1  0  0  0
  9 10  1  0  0  0
  9 27  2  0  0  0
 10 11  2  0  0  0
 10 15  1  0  0  0
 11 12  1  0  0  0
 11 99  1  0  0  0
 12 13  2  0  0  0
 12100  1  0  0  0
 13 14  1  0  0  0
 13 31  1  0  0  0
 14 15  2  0  0  0
 14101  1  0  0  0
 15102  1  0  0  0
 16 17  2  0  0  0
 16 21  1  0  0  0
 16 31  1  0  0  0
 17 18  1  0  0  0
 17103  1  0  0  0
 18 19  2  0  0  0
 18104  1  0  0  0
 19 20  1  0  0  0
 19 24  1  0  0  0
 20 21  2  0  0  0
 20105  1  0  0  0
 21 23  1  0  0  0
 22 28  1  0  0  0
 22 32  2  0  0  0
 26 27  1  0  0  0
 28106  1  0  0  0
 28107  1  0  0  0
 29108  1  0  0  0
 29109  1  0  0  0
 33 34  1  0  0  0
 33 66  1  0  0  0
 33 70  2  0  0  0
 34 36  1  0  0  0
 34 59  1  0  0  0
 34110  1  0  0  0
 35 44  2  0  0  0
 35 45  1  0  0  0
 35 68  1  0  0  0
 36 56  1  0  0  0
 36111  1  0  0  0
 37 39  1  0  0  0
 37 47  1  0  0  0
 37 66  1  0  0  0
 37112  1  0  0  0
 38 43  2  0  0  0
 38 46  1  0  0  0
 38 47  1  0  0  0
 39 64  1  0  0  0
 39 67  2  0  0  0
 40 52  1  0  0  0
 40 53  2  0  0  0
 40 58  1  0  0  0
 41113  1  0  0  0
 41114  1  0  0  0
 41115  1  0  0  0
 41 48  1  0  0  0
 42 43  1  0  0  0
 42 66  1  0  0  0
 42116  1  0  0  0
 42117  1  0  0  0
 43 44  1  0  0  0
 44118  1  0  0  0
 45 46  2  0  0  0
 45119  1  0  0  0
 46120  1  0  0  0
 47121  1  0  0  0
 47122  1  0  0  0
 48 56  1  0  0  0
 48 65  1  0  0  0
 48123  1  0  0  0
 49 50  1  0  0  0
 49 53  1  0  0  0
 49 64  1  0  0  0
 49124  1  0  0  0
 50 51  1  0  0  0
 50125  1  0  0  0
 50126  1  0  0  0
 51 52  1  0  0  0
 51127  1  0  0  0
 51128  1  0  0  0
 52129  1  0  0  0
 52130  1  0  0  0
 53 54  1  0  0  0
 54 55  2  0  0  0
 54131  1  0  0  0
 55 57  1  0  0  0
 55132  1  0  0  0
 56 69  2  0  0  0
 57 58  2  0  0  0
 57133  1  0  0  0
 58134  1  0  0  0
 59 60  1  0  0  0
 59 61  1  0  0  0
 59 62  1  0  0  0
 60135  1  0  0  0
 60136  1  0  0  0
 60137  1  0  0  0
 61138  1  0  0  0
 61139  1  0  0  0
 61140  1  0  0  0
 62141  1  0  0  0
 62142  1  0  0  0
 62143  1  0  0  0
 63 65  1  0  0  0
 63144  1  0  0  0
 63145  1  0  0  0
 63146  1  0  0  0
 64147  1  0  0  0
 65148  1  0  0  0
 68 84  1  0  0  0
 71 72  2  0  0  0
 71 74  1  0  0  0
 71149  1  0  0  0
 72 75  1  0  0  0
 72150  1  0  0  0
 73 75  2  0  0  0
 73 76  1  0  0  0
 73151  1  0  0  0
 74 76  2  0  0  0
 74 86  1  0  0  0
 75 87  1  0  0  0
 76 89  1  0  0  0
 77 78  2  0  0  0
 77 79  1  0  0  0
 77 84  1  0  0  0
 78 82  1  0  0  0
 78 86  1  0  0  0
 79 80  1  0  0  0
 79 88  2  0  0  0
 80 81  1  0  0  0
 80152  1  0  0  0
 80153  1  0  0  0
 81 86  1  0  0  0
 81154  1  0  0  0
 81155  1  0  0  0
 82156  1  0  0  0
 82157  1  0  0  0
 82158  1  0  0  0
 83 85  1  0  0  0
 83159  1  0  0  0
 83160  1  0  0  0
 83161  1  0  0  0
 84162  1  0  0  0
 84163  1  0  0  0
 85 87  1  0  0  0
 85164  1  0  0  0
 85165  1  0  0  0
M  ISO  4   1 100  68 101  84 101  87 100
M  END
> <chiral flag>
0

> <version>
0

> <s_m_source_file>
/data/baiqing/PycharmProjects/Reinvent-master-3.2/result/LINK_invent/BTK/process_docking_weight1_custom_product_contain_oxygen_bond_distance_aromatic_linkinvent_7_9_3/rearranged_h_0106.sdf

> <i_m_source_file_index>
15

> <r_mmod_Potential_Energy-OPLS-2005>
454.476043701172

> <r_mmod_Stretch_Energy-OPLS-2005>
100.959777832031

> <r_mmod_Bend_Energy-OPLS-2005>
171.845596313477

> <r_mmod_Torsional_Energy-OPLS-2005>
338.428649902344

> <r_mmod_Improper_Torsional_Energy-OPLS-2005>
31.4904804229736

> <r_mmod_Van_der_Waal_Energy-OPLS-2005>
157.592620849609

> <r_mmod_Electrostatic_Energy-OPLS-2005>
-232.687042236328

> <r_mmod_Solvation_Energy-OPLS-2005>
-207.402038574219

> <b_mmod_Minimization_Converged-OPLS-2005>
0

> <r_mmod_RMS_Derivative-OPLS-2005>
5.40297174453735

$$$$
15
                    3D
 Structure written by MMmdl.
163171  0  0  1  0            999 V2000
  -30.7584  -14.6932   20.5165 C   0  0  0  0  0  0
  -30.4104  -12.4374   19.4613 C   0  0  0  0  0  0
  -29.5021  -12.5790   18.2233 C   0  0  0  0  0  0
  -28.0302  -12.4037   18.6288 C   0  0  0  0  0  0
  -27.6615  -13.2565   19.8735 C   0  0  2  0  0  0
  -28.7290  -13.1754   20.9979 C   0  0  0  0  0  0
  -25.2607  -13.8288   20.5744 C   0  0  0  0  0  0
  -24.1841  -13.0454   20.9138 C   0  0  0  0  0  0
  -24.6447  -11.6955   20.8596 C   0  0  0  0  0  0
  -23.9079  -10.4320   21.0258 C   0  0  0  0  0  0
  -24.3617   -9.4267   21.9081 C   0  0  0  0  0  0
  -23.6275   -8.2306   22.0725 C   0  0  0  0  0  0
  -22.4254   -8.0318   21.3519 C   0  0  0  0  0  0
  -21.9892   -9.0271   20.4587 C   0  0  0  0  0  0
  -22.7230  -10.2147   20.2937 C   0  0  0  0  0  0
  -21.6874   -6.0683   22.5218 C   0  0  0  0  0  0
  -21.4000   -6.5584   23.8146 C   0  0  0  0  0  0
  -21.3675   -5.6751   24.9120 C   0  0  0  0  0  0
  -21.6059   -4.3018   24.7186 C   0  0  0  0  0  0
  -21.8816   -3.8102   23.4310 C   0  0  0  0  0  0
  -21.9191   -4.6906   22.3362 C   0  0  0  0  0  0
  -22.7882  -13.5239   21.1764 C   0  0  0  0  0  0
  -22.1661   -4.2098   21.0936 F   0  0  0  0  0  0
  -21.5674   -3.4505   25.7722 F   0  0  0  0  0  0
  -30.0436  -13.5077   20.4214 N   0  0  0  0  0  0
  -26.3092  -12.9498   20.3431 N   0  0  0  0  0  0
  -25.9421  -11.6603   20.5736 N   0  0  0  0  0  0
  -22.0542  -12.8153   22.0353 N   0  0  0  0  0  0
  -25.4311  -15.1996   20.4217 N   0  0  0  0  0  0
  -31.8412  -14.7914   19.9415 O   0  0  0  0  0  0
  -21.6654   -6.8864   21.4198 O   0  0  0  0  0  0
  -22.3516  -14.5477   20.6605 O   0  0  0  0  0  0
  -24.6105  -31.8666   23.2202 C   0  0  0  0  0  0
  -25.8964  -32.4808   23.8556 C   0  0  1  0  0  0
  -27.2455  -27.3681   20.1348 C   0  0  0  0  0  0
  -25.5806  -33.8641   24.2447 N   0  0  0  0  0  0
  -23.4021  -30.5007   21.5517 C   0  0  2  0  0  0
  -24.8588  -28.9681   20.1126 C   0  0  0  0  0  0
  -22.7332  -29.4756   22.4979 C   0  0  0  0  0  0
  -18.0259  -28.1394   22.8496 C   0  0  0  0  0  0
  -24.1467  -36.7263   23.2684 C   0  0  0  0  0  0
  -25.9404  -30.8284   21.3800 C   0  0  0  0  0  0
  -26.0225  -29.4613   20.7160 C   0  0  0  0  0  0
  -27.2105  -28.6713   20.7201 C   0  0  0  0  0  0
  -26.0480  -26.9103   19.5308 C   0  0  0  0  0  0
  -24.8714  -27.6937   19.5227 C   0  0  0  0  0  0
  -23.6099  -29.8333   20.1682 C   0  0  0  0  0  0
  -25.4089  -36.3118   24.0384 C   0  0  1  0  0  0
  -20.5844  -28.3677   23.1291 C   0  0  2  0  0  0
  -20.6759  -26.9405   22.5401 C   0  0  0  0  0  0
  -19.5753  -26.6386   21.5205 C   0  0  0  0  0  0
  -18.1910  -26.7931   22.1588 C   0  0  0  0  0  0
  -19.1505  -28.8863   23.2892 C   0  0  0  0  0  0
  -18.9456  -30.1466   23.8918 C   0  0  0  0  0  0
  -17.6467  -30.6606   24.0573 C   0  0  0  0  0  0
  -25.9004  -34.9467   23.5211 C   0  0  0  0  0  0
  -16.5352  -29.9101   23.6378 C   0  0  0  0  0  0
  -16.7251  -28.6504   23.0424 C   0  0  0  0  0  0
  -26.4429  -31.6604   25.0879 C   0  0  0  0  0  0
  -25.3746  -31.3497   26.1638 C   0  0  0  0  0  0
  -27.0368  -30.3078   24.6331 C   0  0  0  0  0  0
  -27.6024  -32.4393   25.7562 C   0  0  0  0  0  0
  -27.5554  -37.1771   24.8482 C   0  0  0  0  0  0
  -21.4071  -29.3043   22.3657 N   0  0  0  0  0  0
  -26.4273  -37.3768   23.9440 N   0  0  0  0  0  0
  -24.6700  -31.0787   22.1058 N   0  0  0  0  0  0
  -23.4072  -28.8350   23.3083 O   0  0  0  0  0  0
  -28.4182  -26.5862   20.1935 O   0  0  0  0  0  0
  -26.5587  -34.8860   22.4784 O   0  0  0  0  0  0
  -23.5277  -32.1495   23.7554 O   0  0  0  0  0  0
  -29.8738  -19.3221   19.6276 C   0  0  0  0  0  0
  -30.3404  -18.1609   22.0752 C   0  0  0  0  0  0
  -29.9573  -17.8777   19.7273 C   0  0  0  0  0  0
  -30.1834  -19.5659   21.9989 C   0  0  0  0  0  0
  -30.0049  -20.2093   20.7521 C   0  0  0  0  0  0
  -30.2206  -17.2317   20.9880 C   0  0  0  0  0  0
  -29.1734  -22.6180   20.4722 C   0  0  0  0  0  0
  -29.8020  -17.0592   18.4393 C   0  0  0  0  0  0
  -30.2566  -20.3571   23.3043 C   0  0  0  0  0  0
  -31.4625  -22.1814   21.1382 C   0  0  0  0  0  0
  -30.4321  -15.4496   22.7234 C   0  0  0  0  0  0
  -29.5325  -24.1625   20.3592 C   0  0  0  0  0  0
  -28.3818  -25.1477   19.8486 C   0  0  0  0  0  0
  -30.1642  -21.6733   20.6608 N   0  0  0  0  0  0
  -30.2983  -15.7532   21.2899 N   0  0  0  0  0  0
  -27.9874  -22.2861   20.4312 O   0  0  0  0  0  0
  -31.4617  -12.4594   19.1761 H   0  0  0  0  0  0
  -30.2616  -11.4553   19.9158 H   0  0  0  0  0  0
  -29.7672  -11.8435   17.4636 H   0  0  0  0  0  0
  -29.6519  -13.5577   17.7604 H   0  0  0  0  0  0
  -27.8565  -11.3463   18.8300 H   0  0  0  0  0  0
  -27.3812  -12.6606   17.7908 H   0  0  0  0  0  0
  -27.6572  -14.2892   19.5301 H   0  0  0  0  0  0
  -28.7653  -12.1711   21.4296 H   0  0  0  0  0  0
  -28.4722  -13.8496   21.8162 H   0  0  0  0  0  0
  -25.2741   -9.5718   22.4661 H   0  0  0  0  0  0
  -23.9960   -7.4703   22.7439 H   0  0  0  0  0  0
  -21.0847   -8.8696   19.8904 H   0  0  0  0  0  0
  -22.3630  -10.9623   19.6010 H   0  0  0  0  0  0
  -21.1954   -7.6076   23.9622 H   0  0  0  0  0  0
  -21.1524   -6.0479   25.9017 H   0  0  0  0  0  0
  -22.0588   -2.7544   23.2808 H   0  0  0  0  0  0
  -22.4268  -11.9881   22.4698 H   0  0  0  0  0  0
  -21.1132  -13.1071   22.2519 H   0  0  0  0  0  0
  -24.6765  -15.8679   20.5408 H   0  0  0  0  0  0
  -26.3072  -15.6334   20.1504 H   0  0  0  0  0  0
  -26.7047  -32.5530   23.1359 H   0  0  0  0  0  0
  -24.9910  -33.9896   25.0559 H   0  0  0  0  0  0
  -22.6906  -31.3226   21.4177 H   0  0  0  0  0  0
  -23.3772  -35.9547   23.3330 H   0  0  0  0  0  0
  -24.3577  -36.8906   22.2110 H   0  0  0  0  0  0
  -23.7176  -37.6417   23.6739 H   0  0  0  0  0  0
  -26.0703  -31.6252   20.6486 H   0  0  0  0  0  0
  -26.8087  -30.8650   22.0226 H   0  0  0  0  0  0
  -28.0991  -29.0432   21.2077 H   0  0  0  0  0  0
  -26.0029  -25.9299   19.0758 H   0  0  0  0  0  0
  -23.9566  -27.3222   19.0830 H   0  0  0  0  0  0
  -23.6669  -30.6085   19.4014 H   0  0  0  0  0  0
  -22.7338  -29.2408   19.8969 H   0  0  0  0  0  0
  -25.1268  -36.1998   25.0875 H   0  0  0  0  0  0
  -20.9989  -28.3297   24.1408 H   0  0  0  0  0  0
  -20.5682  -26.2292   23.3586 H   0  0  0  0  0  0
  -21.6640  -26.7469   22.1221 H   0  0  0  0  0  0
  -19.6931  -25.6305   21.1239 H   0  0  0  0  0  0
  -19.6727  -27.3196   20.6740 H   0  0  0  0  0  0
  -17.4184  -26.6739   21.3967 H   0  0  0  0  0  0
  -18.0286  -26.0039   22.8948 H   0  0  0  0  0  0
  -19.7932  -30.7257   24.2283 H   0  0  0  0  0  0
  -17.5021  -31.6306   24.5126 H   0  0  0  0  0  0
  -15.5350  -30.3014   23.7723 H   0  0  0  0  0  0
  -15.8630  -28.0812   22.7236 H   0  0  0  0  0  0
  -24.6181  -30.6539   25.7968 H   0  0  0  0  0  0
  -24.8614  -32.2456   26.5118 H   0  0  0  0  0  0
  -25.8229  -30.8757   27.0394 H   0  0  0  0  0  0
  -26.2990  -29.6710   24.1443 H   0  0  0  0  0  0
  -27.4160  -29.7429   25.4850 H   0  0  0  0  0  0
  -27.8754  -30.4422   23.9529 H   0  0  0  0  0  0
  -27.2796  -33.3851   26.1938 H   0  0  0  0  0  0
  -28.3864  -32.6713   25.0339 H   0  0  0  0  0  0
  -28.0650  -31.8647   26.5612 H   0  0  0  0  0  0
  -28.2547  -38.0079   24.7587 H   0  0  0  0  0  0
  -28.1089  -36.2629   24.6290 H   0  0  0  0  0  0
  -27.2250  -37.1368   25.8865 H   0  0  0  0  0  0
  -20.9228  -29.8558   21.6714 H   0  0  0  0  0  0
  -26.0159  -38.2825   24.1477 H   0  0  0  0  0  0
  -29.7487  -19.7728   18.6518 H   0  0  0  0  0  0
  -30.5719  -17.8363   23.0719 H   0  0  0  0  0  0
  -30.7789  -16.9133   17.9755 H   0  0  0  0  0  0
  -29.1533  -17.5290   17.6976 H   0  0  0  0  0  0
  -29.3727  -16.0771   18.6250 H   0  0  0  0  0  0
  -29.6694  -19.8888   24.0950 H   0  0  0  0  0  0
  -29.8603  -21.3659   23.2068 H   0  0  0  0  0  0
  -31.2937  -20.4348   23.6247 H   0  0  0  0  0  0
  -31.3390  -22.8459   22.0031 H   0  0  0  0  0  0
  -31.9710  -22.7349   20.3545 H   0  0  0  0  0  0
  -32.1209  -21.3612   21.4472 H   0  0  0  0  0  0
  -31.2976  -15.9742   23.1302 H   0  0  0  0  0  0
  -30.6128  -14.4036   22.9792 H   0  0  0  0  0  0
  -29.5300  -15.7872   23.2393 H   0  0  0  0  0  0
  -30.3905  -24.2664   19.6906 H   0  0  0  0  0  0
  -29.8929  -24.4923   21.3346 H   0  0  0  0  0  0
  -27.4229  -24.7331   20.1685 H   0  0  0  0  0  0
  -28.4116  -25.1005   18.7551 H   0  0  0  0  0  0
  1 25  1  0  0  0
  1 30  2  0  0  0
  1 85  1  0  0  0
  2  3  1  0  0  0
  2 25  1  0  0  0
  2 87  1  0  0  0
  2 88  1  0  0  0
  3  4  1  0  0  0
  3 89  1  0  0  0
  3 90  1  0  0  0
  4  5  1  0  0  0
  4 91  1  0  0  0
  4 92  1  0  0  0
  5  6  1  0  0  0
  5 26  1  0  0  0
  5 93  1  0  0  0
  6 25  1  0  0  0
  6 94  1  0  0  0
  6 95  1  0  0  0
  7  8  2  0  0  0
  7 26  1  0  0  0
  7 29  1  0  0  0
  8  9  1  0  0  0
  8 22  1  0  0  0
  9 10  1  0  0  0
  9 27  2  0  0  0
 10 11  2  0  0  0
 10 15  1  0  0  0
 11 12  1  0  0  0
 11 96  1  0  0  0
 12 13  2  0  0  0
 12 97  1  0  0  0
 13 14  1  0  0  0
 13 31  1  0  0  0
 14 15  2  0  0  0
 14 98  1  0  0  0
 15 99  1  0  0  0
 16 17  2  0  0  0
 16 21  1  0  0  0
 16 31  1  0  0  0
 17 18  1  0  0  0
 17100  1  0  0  0
 18 19  2  0  0  0
 18101  1  0  0  0
 19 20  1  0  0  0
 19 24  1  0  0  0
 20 21  2  0  0  0
 20102  1  0  0  0
 21 23  1  0  0  0
 22 28  1  0  0  0
 22 32  2  0  0  0
 26 27  1  0  0  0
 28103  1  0  0  0
 28104  1  0  0  0
 29105  1  0  0  0
 29106  1  0  0  0
 33 34  1  0  0  0
 33 66  1  0  0  0
 33 70  2  0  0  0
 34 36  1  0  0  0
 34 59  1  0  0  0
 34107  1  0  0  0
 35 44  2  0  0  0
 35 45  1  0  0  0
 35 68  1  0  0  0
 36 56  1  0  0  0
 36108  1  0  0  0
 37 39  1  0  0  0
 37 47  1  0  0  0
 37 66  1  0  0  0
 37109  1  0  0  0
 38 43  2  0  0  0
 38 46  1  0  0  0
 38 47  1  0  0  0
 39 64  1  0  0  0
 39 67  2  0  0  0
 40 52  1  0  0  0
 40 53  2  0  0  0
 40 58  1  0  0  0
 41110  1  0  0  0
 41111  1  0  0  0
 41112  1  0  0  0
 41 48  1  0  0  0
 42 43  1  0  0  0
 42 66  1  0  0  0
 42113  1  0  0  0
 42114  1  0  0  0
 43 44  1  0  0  0
 44115  1  0  0  0
 45 46  2  0  0  0
 45116  1  0  0  0
 46117  1  0  0  0
 47118  1  0  0  0
 47119  1  0  0  0
 48 56  1  0  0  0
 48 65  1  0  0  0
 48120  1  0  0  0
 49 50  1  0  0  0
 49 53  1  0  0  0
 49 64  1  0  0  0
 49121  1  0  0  0
 50 51  1  0  0  0
 50122  1  0  0  0
 50123  1  0  0  0
 51 52  1  0  0  0
 51124  1  0  0  0
 51125  1  0  0  0
 52126  1  0  0  0
 52127  1  0  0  0
 53 54  1  0  0  0
 54 55  2  0  0  0
 54128  1  0  0  0
 55 57  1  0  0  0
 55129  1  0  0  0
 56 69  2  0  0  0
 57 58  2  0  0  0
 57130  1  0  0  0
 58131  1  0  0  0
 59 60  1  0  0  0
 59 61  1  0  0  0
 59 62  1  0  0  0
 60132  1  0  0  0
 60133  1  0  0  0
 60134  1  0  0  0
 61135  1  0  0  0
 61136  1  0  0  0
 61137  1  0  0  0
 62138  1  0  0  0
 62139  1  0  0  0
 62140  1  0  0  0
 63 65  1  0  0  0
 63141  1  0  0  0
 63142  1  0  0  0
 63143  1  0  0  0
 64144  1  0  0  0
 65145  1  0  0  0
 68 83  1  0  0  0
 71 73  2  0  0  0
 71 75  1  0  0  0
 71146  1  0  0  0
 72 74  1  0  0  0
 72 76  2  0  0  0
 72147  1  0  0  0
 73 76  1  0  0  0
 73 78  1  0  0  0
 74 75  2  0  0  0
 74 79  1  0  0  0
 75 84  1  0  0  0
 76 85  1  0  0  0
 77 82  1  0  0  0
 77 84  1  0  0  0
 77 86  2  0  0  0
 78148  1  0  0  0
 78149  1  0  0  0
 78150  1  0  0  0
 79151  1  0  0  0
 79152  1  0  0  0
 79153  1  0  0  0
 80 84  1  0  0  0
 80154  1  0  0  0
 80155  1  0  0  0
 80156  1  0  0  0
 81 85  1  0  0  0
 81157  1  0  0  0
 81158  1  0  0  0
 81159  1  0  0  0
 82 83  1  0  0  0
 82160  1  0  0  0
 82161  1  0  0  0
 83162  1  0  0  0
 83163  1  0  0  0
M  ISO  4   1 100  68 101  83 101  85 100
M  END
> <chiral flag>
0

> <version>
0

> <s_m_source_file>
/data/baiqing/PycharmProjects/Reinvent-master-3.2/result/LINK_invent/BTK/process_docking_weight1_custom_product_contain_oxygen_bond_distance_aromatic_linkinvent_7_9_3/rearranged_h_0106.sdf

> <i_m_source_file_index>
16

> <r_mmod_Potential_Energy-OPLS-2005>
352.956481933594

> <r_mmod_Stretch_Energy-OPLS-2005>
114.679359436035

> <r_mmod_Bend_Energy-OPLS-2005>
180.628509521484

> <r_mmod_Torsional_Energy-OPLS-2005>
339.188690185547

> <r_mmod_Improper_Torsional_Energy-OPLS-2005>
5.50065755844116

> <r_mmod_Van_der_Waal_Energy-OPLS-2005>
175.092727661133

> <r_mmod_Electrostatic_Energy-OPLS-2005>
-307.593505859375

> <r_mmod_Solvation_Energy-OPLS-2005>
-205.911880493164

> <b_mmod_Minimization_Converged-OPLS-2005>
0

> <r_mmod_RMS_Derivative-OPLS-2005>
12.3660917282104

$$$$
16
                    3D
 Structure written by MMmdl.
153161  0  0  1  0            999 V2000
  -30.6821  -14.5370   20.5329 C   0  0  0  0  0  0
  -30.4195  -12.3269   19.4512 C   0  0  0  0  0  0
  -29.5040  -12.4994   18.2208 C   0  0  0  0  0  0
  -28.0196  -12.3745   18.6190 C   0  0  0  0  0  0
  -27.6568  -13.2192   19.8716 C   0  0  2  0  0  0
  -28.6983  -13.0378   21.0005 C   0  0  0  0  0  0
  -25.2575  -13.8181   20.5678 C   0  0  0  0  0  0
  -24.1843  -13.0464   20.9169 C   0  0  0  0  0  0
  -24.6387  -11.6922   20.8718 C   0  0  0  0  0  0
  -23.9055  -10.4315   21.0374 C   0  0  0  0  0  0
  -24.3616   -9.4220   21.9133 C   0  0  0  0  0  0
  -23.6295   -8.2261   22.0710 C   0  0  0  0  0  0
  -22.4264   -8.0298   21.3536 C   0  0  0  0  0  0
  -21.9906   -9.0257   20.4629 C   0  0  0  0  0  0
  -22.7224  -10.2152   20.3017 C   0  0  0  0  0  0
  -21.6883   -6.0724   22.5253 C   0  0  0  0  0  0
  -21.4038   -6.5632   23.8180 C   0  0  0  0  0  0
  -21.3664   -5.6780   24.9151 C   0  0  0  0  0  0
  -21.6042   -4.3041   24.7200 C   0  0  0  0  0  0
  -21.8828   -3.8132   23.4327 C   0  0  0  0  0  0
  -21.9200   -4.6956   22.3383 C   0  0  0  0  0  0
  -22.7865  -13.5249   21.1837 C   0  0  0  0  0  0
  -22.1660   -4.2135   21.0963 F   0  0  0  0  0  0
  -21.5631   -3.4507   25.7716 F   0  0  0  0  0  0
  -30.0295  -13.3386   20.4519 N   0  0  0  0  0  0
  -26.3003  -12.9367   20.3331 N   0  0  0  0  0  0
  -25.9325  -11.6515   20.5766 N   0  0  0  0  0  0
  -22.0512  -12.8244   22.0421 N   0  0  0  0  0  0
  -25.4330  -15.1905   20.4096 N   0  0  0  0  0  0
  -31.8290  -14.6876   20.0957 O   0  0  0  0  0  0
  -21.6663   -6.8877   21.4217 O   0  0  0  0  0  0
  -22.3523  -14.5514   20.6639 O   0  0  0  0  0  0
  -24.6153  -31.8607   23.1981 C   0  0  0  0  0  0
  -25.9030  -32.4782   23.8303 C   0  0  1  0  0  0
  -27.2871  -27.4167   20.1301 C   0  0  0  0  0  0
  -25.5863  -33.8578   24.2239 N   0  0  0  0  0  0
  -23.4069  -30.4729   21.5356 C   0  0  2  0  0  0
  -24.8684  -28.9182   20.1196 C   0  0  0  0  0  0
  -22.7405  -29.4629   22.4951 C   0  0  0  0  0  0
  -18.0278  -28.1389   22.8502 C   0  0  0  0  0  0
  -24.1484  -36.7318   23.2636 C   0  0  0  0  0  0
  -25.9281  -30.8305   21.3403 C   0  0  0  0  0  0
  -26.0200  -29.4545   20.7052 C   0  0  0  0  0  0
  -27.2217  -28.7096   20.7068 C   0  0  0  0  0  0
  -26.1166  -26.8949   19.5316 C   0  0  0  0  0  0
  -24.9125  -27.6366   19.5341 C   0  0  0  0  0  0
  -23.6218  -29.7773   20.1607 C   0  0  0  0  0  0
  -25.4098  -36.3072   24.0322 C   0  0  1  0  0  0
  -20.5870  -28.3679   23.1325 C   0  0  2  0  0  0
  -20.6764  -26.9404   22.5439 C   0  0  0  0  0  0
  -19.5750  -26.6381   21.5229 C   0  0  0  0  0  0
  -18.1929  -26.7942   22.1635 C   0  0  0  0  0  0
  -19.1536  -28.8848   23.2916 C   0  0  0  0  0  0
  -18.9452  -30.1456   23.8926 C   0  0  0  0  0  0
  -17.6456  -30.6590   24.0577 C   0  0  0  0  0  0
  -25.9033  -34.9454   23.5082 C   0  0  0  0  0  0
  -16.5355  -29.9104   23.6326 C   0  0  0  0  0  0
  -16.7262  -28.6531   23.0333 C   0  0  0  0  0  0
  -26.4454  -31.6578   25.0645 C   0  0  0  0  0  0
  -25.3734  -31.3729   26.1414 C   0  0  0  0  0  0
  -27.0252  -30.3018   24.5995 C   0  0  0  0  0  0
  -27.6010  -32.4306   25.7436 C   0  0  0  0  0  0
  -27.5572  -37.1787   24.8438 C   0  0  0  0  0  0
  -21.4125  -29.3046   22.3715 N   0  0  0  0  0  0
  -26.4259  -37.3776   23.9418 N   0  0  0  0  0  0
  -24.6681  -31.0699   22.0860 N   0  0  0  0  0  0
  -23.4155  -28.8195   23.3029 O   0  0  0  0  0  0
  -28.4961  -26.7417   20.2245 O   0  0  0  0  0  0
  -26.5618  -34.8924   22.4657 O   0  0  0  0  0  0
  -23.5348  -32.1351   23.7389 O   0  0  0  0  0  0
  -29.1020  -17.9459   18.2336 C   0  0  0  0  0  0
  -29.3408  -19.1819   18.8437 C   0  0  0  0  0  0
  -29.3315  -16.7767   18.9706 C   0  0  0  0  0  0
  -29.7939  -19.2308   20.1752 C   0  0  0  0  0  0
  -29.8164  -16.8463   20.2933 C   0  0  0  0  0  0
  -30.1380  -20.6030   20.7611 C   0  0  0  0  0  0
  -28.6094  -24.1710   20.5168 C   0  0  0  0  0  0
  -29.7374  -23.0837   20.3192 C   0  0  0  0  0  0
  -28.7819  -25.4577   19.6295 C   0  0  0  0  0  0
  -30.0244  -18.0694   20.8786 N   0  0  0  0  0  0
  -29.9606  -15.5932   20.9851 N   0  0  0  0  0  0
  -29.3494  -21.6458   20.3838 N   0  0  0  0  0  0
  -31.1272  -20.7449   21.4884 O   0  0  0  0  0  0
  -31.4654  -12.4162   19.1559 H   0  0  0  0  0  0
  -30.3112  -11.3251   19.8711 H   0  0  0  0  0  0
  -29.7482  -11.7528   17.4648 H   0  0  0  0  0  0
  -29.6839  -13.4719   17.7615 H   0  0  0  0  0  0
  -27.8192  -11.3203   18.8142 H   0  0  0  0  0  0
  -27.3786  -12.6496   17.7794 H   0  0  0  0  0  0
  -27.6835  -14.2623   19.5576 H   0  0  0  0  0  0
  -28.6791  -12.0123   21.3720 H   0  0  0  0  0  0
  -28.4545  -13.6671   21.8571 H   0  0  0  0  0  0
  -25.2749   -9.5719   22.4722 H   0  0  0  0  0  0
  -24.0009   -7.4664   22.7431 H   0  0  0  0  0  0
  -21.0819   -8.8763   19.8972 H   0  0  0  0  0  0
  -22.3616  -10.9682   19.6147 H   0  0  0  0  0  0
  -21.2037   -7.6132   23.9679 H   0  0  0  0  0  0
  -21.1480   -6.0510   25.9053 H   0  0  0  0  0  0
  -22.0609   -2.7585   23.2814 H   0  0  0  0  0  0
  -22.4123  -11.9945   22.4897 H   0  0  0  0  0  0
  -21.1121  -13.1270   22.2586 H   0  0  0  0  0  0
  -24.6772  -15.8577   20.5289 H   0  0  0  0  0  0
  -26.2919  -15.6204   20.0928 H   0  0  0  0  0  0
  -26.7109  -32.5498   23.1077 H   0  0  0  0  0  0
  -24.9946  -33.9706   25.0338 H   0  0  0  0  0  0
  -22.7004  -31.2895   21.3774 H   0  0  0  0  0  0
  -23.3720  -35.9668   23.3253 H   0  0  0  0  0  0
  -24.3600  -36.8988   22.2059 H   0  0  0  0  0  0
  -23.7259  -37.6517   23.6697 H   0  0  0  0  0  0
  -26.0132  -31.5822   20.5543 H   0  0  0  0  0  0
  -26.8266  -30.9155   21.9406 H   0  0  0  0  0  0
  -28.1072  -29.1297   21.1643 H   0  0  0  0  0  0
  -26.1237  -25.9102   19.0887 H   0  0  0  0  0  0
  -24.0225  -27.2037   19.0994 H   0  0  0  0  0  0
  -23.7228  -30.5337   19.3827 H   0  0  0  0  0  0
  -22.7539  -29.1800   19.8764 H   0  0  0  0  0  0
  -25.1281  -36.1885   25.0811 H   0  0  0  0  0  0
  -20.9984  -28.3243   24.1441 H   0  0  0  0  0  0
  -20.5667  -26.2279   23.3627 H   0  0  0  0  0  0
  -21.6629  -26.7441   22.1233 H   0  0  0  0  0  0
  -19.6905  -25.6292   21.1259 H   0  0  0  0  0  0
  -19.6703  -27.3194   20.6763 H   0  0  0  0  0  0
  -17.4205  -26.6702   21.4029 H   0  0  0  0  0  0
  -18.0314  -26.0077   22.9028 H   0  0  0  0  0  0
  -19.7928  -30.7267   24.2291 H   0  0  0  0  0  0
  -17.5016  -31.6284   24.5173 H   0  0  0  0  0  0
  -15.5349  -30.3021   23.7635 H   0  0  0  0  0  0
  -15.8664  -28.0864   22.7006 H   0  0  0  0  0  0
  -24.5830  -30.7165   25.7762 H   0  0  0  0  0  0
  -24.9035  -32.2925   26.4917 H   0  0  0  0  0  0
  -25.8090  -30.8835   27.0130 H   0  0  0  0  0  0
  -26.2766  -29.6822   24.1044 H   0  0  0  0  0  0
  -27.4016  -29.7220   25.4429 H   0  0  0  0  0  0
  -27.8602  -30.4334   23.9108 H   0  0  0  0  0  0
  -27.2561  -33.3533   26.2120 H   0  0  0  0  0  0
  -28.3779  -32.6994   25.0267 H   0  0  0  0  0  0
  -28.0724  -31.8377   26.5282 H   0  0  0  0  0  0
  -28.2534  -38.0139   24.7528 H   0  0  0  0  0  0
  -28.1119  -36.2667   24.6173 H   0  0  0  0  0  0
  -27.2320  -37.1328   25.8849 H   0  0  0  0  0  0
  -20.9275  -29.8743   21.6926 H   0  0  0  0  0  0
  -26.0120  -38.2825   24.1500 H   0  0  0  0  0  0
  -28.7534  -17.8935   17.2135 H   0  0  0  0  0  0
  -29.1982  -20.0882   18.2707 H   0  0  0  0  0  0
  -29.1309  -15.8283   18.4966 H   0  0  0  0  0  0
  -28.6181  -24.4752   21.5656 H   0  0  0  0  0  0
  -27.6176  -23.7533   20.3411 H   0  0  0  0  0  0
  -30.5473  -23.2936   21.0203 H   0  0  0  0  0  0
  -30.1807  -23.2252   19.3335 H   0  0  0  0  0  0
  -28.3066  -25.3465   18.6558 H   0  0  0  0  0  0
  -29.8462  -25.5393   19.4052 H   0  0  0  0  0  0
  -29.1495  -15.3227   21.5182 H   0  0  0  0  0  0
  -28.5539  -21.3610   19.8312 H   0  0  0  0  0  0
  1 25  1  0  0  0
  1 30  2  0  0  0
  1 81  1  0  0  0
  2  3  1  0  0  0
  2 25  1  0  0  0
  2 84  1  0  0  0
  2 85  1  0  0  0
  3  4  1  0  0  0
  3 86  1  0  0  0
  3 87  1  0  0  0
  4  5  1  0  0  0
  4 88  1  0  0  0
  4 89  1  0  0  0
  5  6  1  0  0  0
  5 26  1  0  0  0
  5 90  1  0  0  0
  6 25  1  0  0  0
  6 91  1  0  0  0
  6 92  1  0  0  0
  7  8  2  0  0  0
  7 26  1  0  0  0
  7 29  1  0  0  0
  8  9  1  0  0  0
  8 22  1  0  0  0
  9 10  1  0  0  0
  9 27  2  0  0  0
 10 11  2  0  0  0
 10 15  1  0  0  0
 11 12  1  0  0  0
 11 93  1  0  0  0
 12 13  2  0  0  0
 12 94  1  0  0  0
 13 14  1  0  0  0
 13 31  1  0  0  0
 14 15  2  0  0  0
 14 95  1  0  0  0
 15 96  1  0  0  0
 16 17  2  0  0  0
 16 21  1  0  0  0
 16 31  1  0  0  0
 17 18  1  0  0  0
 17 97  1  0  0  0
 18 19  2  0  0  0
 18 98  1  0  0  0
 19 20  1  0  0  0
 19 24  1  0  0  0
 20 21  2  0  0  0
 20 99  1  0  0  0
 21 23  1  0  0  0
 22 28  1  0  0  0
 22 32  2  0  0  0
 26 27  1  0  0  0
 28100  1  0  0  0
 28101  1  0  0  0
 29102  1  0  0  0
 29103  1  0  0  0
 33 34  1  0  0  0
 33 66  1  0  0  0
 33 70  2  0  0  0
 34 36  1  0  0  0
 34 59  1  0  0  0
 34104  1  0  0  0
 35 44  2  0  0  0
 35 45  1  0  0  0
 35 68  1  0  0  0
 36 56  1  0  0  0
 36105  1  0  0  0
 37 39  1  0  0  0
 37 47  1  0  0  0
 37 66  1  0  0  0
 37106  1  0  0  0
 38 43  2  0  0  0
 38 46  1  0  0  0
 38 47  1  0  0  0
 39 64  1  0  0  0
 39 67  2  0  0  0
 40 52  1  0  0  0
 40 53  2  0  0  0
 40 58  1  0  0  0
 41107  1  0  0  0
 41108  1  0  0  0
 41109  1  0  0  0
 41 48  1  0  0  0
 42 43  1  0  0  0
 42 66  1  0  0  0
 42110  1  0  0  0
 42111  1  0  0  0
 43 44  1  0  0  0
 44112  1  0  0  0
 45 46  2  0  0  0
 45113  1  0  0  0
 46114  1  0  0  0
 47115  1  0  0  0
 47116  1  0  0  0
 48 56  1  0  0  0
 48 65  1  0  0  0
 48117  1  0  0  0
 49 50  1  0  0  0
 49 53  1  0  0  0
 49 64  1  0  0  0
 49118  1  0  0  0
 50 51  1  0  0  0
 50119  1  0  0  0
 50120  1  0  0  0
 51 52  1  0  0  0
 51121  1  0  0  0
 51122  1  0  0  0
 52123  1  0  0  0
 52124  1  0  0  0
 53 54  1  0  0  0
 54 55  2  0  0  0
 54125  1  0  0  0
 55 57  1  0  0  0
 55126  1  0  0  0
 56 69  2  0  0  0
 57 58  2  0  0  0
 57127  1  0  0  0
 58128  1  0  0  0
 59 60  1  0  0  0
 59 61  1  0  0  0
 59 62  1  0  0  0
 60129  1  0  0  0
 60130  1  0  0  0
 60131  1  0  0  0
 61132  1  0  0  0
 61133  1  0  0  0
 61134  1  0  0  0
 62135  1  0  0  0
 62136  1  0  0  0
 62137  1  0  0  0
 63 65  1  0  0  0
 63138  1  0  0  0
 63139  1  0  0  0
 63140  1  0  0  0
 64141  1  0  0  0
 65142  1  0  0  0
 68 79  1  0  0  0
 71 72  2  0  0  0
 71 73  1  0  0  0
 71143  1  0  0  0
 72 74  1  0  0  0
 72144  1  0  0  0
 73 75  2  0  0  0
 73145  1  0  0  0
 74 76  1  0  0  0
 74 80  2  0  0  0
 75 80  1  0  0  0
 75 81  1  0  0  0
 76 82  1  0  0  0
 76 83  2  0  0  0
 77 78  1  0  0  0
 77 79  1  0  0  0
 77146  1  0  0  0
 77147  1  0  0  0
 78 82  1  0  0  0
 78148  1  0  0  0
 78149  1  0  0  0
 79150  1  0  0  0
 79151  1  0  0  0
 81152  1  0  0  0
 82153  1  0  0  0
M  ISO  4   1 100  68 101  79 101  81 100
M  END
> <chiral flag>
0

> <version>
0

> <s_m_source_file>
/data/baiqing/PycharmProjects/Reinvent-master-3.2/result/LINK_invent/BTK/process_docking_weight1_custom_product_contain_oxygen_bond_distance_aromatic_linkinvent_7_9_3/rearranged_h_0106.sdf

> <i_m_source_file_index>
17

> <r_mmod_Potential_Energy-OPLS-2005>
-144.22688293457

> <r_mmod_Stretch_Energy-OPLS-2005>
54.1864471435547

> <r_mmod_Bend_Energy-OPLS-2005>
132.632049560547

> <r_mmod_Torsional_Energy-OPLS-2005>
272.808990478516

> <r_mmod_Improper_Torsional_Energy-OPLS-2005>
7.73757410049438

> <r_mmod_Van_der_Waal_Energy-OPLS-2005>
144.223251342773

> <r_mmod_Electrostatic_Energy-OPLS-2005>
-513.678527832031

> <r_mmod_Solvation_Energy-OPLS-2005>
-266.20068359375

> <b_mmod_Minimization_Converged-OPLS-2005>
0

> <r_mmod_RMS_Derivative-OPLS-2005>
4.37972068786621

$$$$
17
                    3D
 Structure written by MMmdl.
161169  0  0  1  0            999 V2000
  -30.6737  -14.5400   20.4341 C   0  0  0  0  0  0
  -30.4271  -12.2878   19.4736 C   0  0  0  0  0  0
  -29.5138  -12.3707   18.2336 C   0  0  0  0  0  0
  -28.0206  -12.3253   18.6293 C   0  0  0  0  0  0
  -27.6541  -13.2083   19.8567 C   0  0  2  0  0  0
  -28.6979  -13.0728   20.9873 C   0  0  0  0  0  0
  -25.2567  -13.8165   20.5663 C   0  0  0  0  0  0
  -24.1826  -13.0457   20.9188 C   0  0  0  0  0  0
  -24.6381  -11.6926   20.8756 C   0  0  0  0  0  0
  -23.9048  -10.4315   21.0420 C   0  0  0  0  0  0
  -24.3610   -9.4229   21.9191 C   0  0  0  0  0  0
  -23.6302   -8.2256   22.0758 C   0  0  0  0  0  0
  -22.4281   -8.0287   21.3550 C   0  0  0  0  0  0
  -21.9904   -9.0257   20.4651 C   0  0  0  0  0  0
  -22.7222  -10.2145   20.3066 C   0  0  0  0  0  0
  -21.6859   -6.0739   22.5285 C   0  0  0  0  0  0
  -21.4015   -6.5648   23.8217 C   0  0  0  0  0  0
  -21.3652   -5.6797   24.9175 C   0  0  0  0  0  0
  -21.6044   -4.3064   24.7227 C   0  0  0  0  0  0
  -21.8822   -3.8155   23.4349 C   0  0  0  0  0  0
  -21.9197   -4.6969   22.3406 C   0  0  0  0  0  0
  -22.7849  -13.5248   21.1861 C   0  0  0  0  0  0
  -22.1671   -4.2157   21.0982 F   0  0  0  0  0  0
  -21.5619   -3.4544   25.7737 F   0  0  0  0  0  0
  -30.0201  -13.3468   20.4105 N   0  0  0  0  0  0
  -26.2996  -12.9339   20.3312 N   0  0  0  0  0  0
  -25.9309  -11.6516   20.5795 N   0  0  0  0  0  0
  -22.0494  -12.8233   22.0409 N   0  0  0  0  0  0
  -25.4274  -15.1887   20.4053 N   0  0  0  0  0  0
  -31.8647  -14.6436   20.1327 O   0  0  0  0  0  0
  -21.6655   -6.8882   21.4248 O   0  0  0  0  0  0
  -22.3544  -14.5566   20.6721 O   0  0  0  0  0  0
  -24.6146  -31.8665   23.2090 C   0  0  0  0  0  0
  -25.9040  -32.4812   23.8394 C   0  0  1  0  0  0
  -27.2385  -27.4263   20.1158 C   0  0  0  0  0  0
  -25.5891  -33.8609   24.2328 N   0  0  0  0  0  0
  -23.4037  -30.4876   21.5483 C   0  0  2  0  0  0
  -24.8538  -28.9467   20.1198 C   0  0  0  0  0  0
  -22.7422  -29.4644   22.4990 C   0  0  0  0  0  0
  -18.0265  -28.1361   22.8476 C   0  0  0  0  0  0
  -24.1494  -36.7314   23.2642 C   0  0  0  0  0  0
  -25.9316  -30.8324   21.3621 C   0  0  0  0  0  0
  -26.0119  -29.4637   20.7139 C   0  0  0  0  0  0
  -27.2104  -28.7121   20.7035 C   0  0  0  0  0  0
  -26.0659  -26.9198   19.5198 C   0  0  0  0  0  0
  -24.8760  -27.6743   19.5181 C   0  0  0  0  0  0
  -23.6144  -29.8126   20.1656 C   0  0  0  0  0  0
  -25.4111  -36.3104   24.0344 C   0  0  1  0  0  0
  -20.5859  -28.3648   23.1310 C   0  0  2  0  0  0
  -20.6757  -26.9387   22.5412 C   0  0  0  0  0  0
  -19.5741  -26.6375   21.5201 C   0  0  0  0  0  0
  -18.1917  -26.7904   22.1613 C   0  0  0  0  0  0
  -19.1519  -28.8822   23.2883 C   0  0  0  0  0  0
  -18.9448  -30.1429   23.8896 C   0  0  0  0  0  0
  -17.6451  -30.6567   24.0562 C   0  0  0  0  0  0
  -25.9030  -34.9465   23.5137 C   0  0  0  0  0  0
  -16.5339  -29.9068   23.6328 C   0  0  0  0  0  0
  -16.7256  -28.6488   23.0339 C   0  0  0  0  0  0
  -26.4465  -31.6590   25.0722 C   0  0  0  0  0  0
  -25.3721  -31.3686   26.1471 C   0  0  0  0  0  0
  -27.0315  -30.3044   24.6089 C   0  0  0  0  0  0
  -27.6053  -32.4303   25.7463 C   0  0  0  0  0  0
  -27.5587  -37.1806   24.8461 C   0  0  0  0  0  0
  -21.4149  -29.3017   22.3728 N   0  0  0  0  0  0
  -26.4301  -37.3784   23.9404 N   0  0  0  0  0  0
  -24.6679  -31.0764   22.0988 N   0  0  0  0  0  0
  -23.4200  -28.8205   23.3043 O   0  0  0  0  0  0
  -28.4046  -26.6938   20.0886 O   0  0  0  0  0  0
  -26.5592  -34.8910   22.4697 O   0  0  0  0  0  0
  -23.5338  -32.1421   23.7480 O   0  0  0  0  0  0
  -30.0605  -20.6586   22.2634 C   0  0  0  0  0  0
  -30.7126  -19.5124   22.7549 C   0  0  0  0  0  0
  -29.4190  -19.4036   20.2964 C   0  0  0  0  0  0
  -30.0837  -18.2261   20.7624 C   0  0  0  0  0  0
  -29.4224  -20.6332   21.0014 C   0  0  0  0  0  0
  -30.7540  -18.3153   22.0111 C   0  0  0  0  0  0
  -29.0635  -22.9649   20.7159 C   0  0  0  0  0  0
  -29.5063  -15.9476   17.5398 C   0  0  0  0  0  0
  -28.5274  -24.1949   19.9703 C   0  0  0  0  0  0
  -29.4225  -17.1172   18.5184 C   0  0  0  0  0  0
  -28.4175  -25.4699   20.8489 C   0  0  0  0  0  0
  -30.1889  -16.9570   19.8609 C   0  0  2  0  0  0
  -28.8054  -21.7508   20.3880 N   0  0  0  0  0  0
  -31.5046  -17.2585   22.5240 N   0  0  0  0  0  0
  -29.8825  -15.6390   20.4894 N   0  0  0  0  0  0
  -31.4740  -12.3686   19.1769 H   0  0  0  0  0  0
  -30.3289  -11.3127   19.9529 H   0  0  0  0  0  0
  -29.7315  -11.5340   17.5683 H   0  0  0  0  0  0
  -29.7502  -13.2539   17.6509 H   0  0  0  0  0  0
  -27.7926  -11.2834   18.8564 H   0  0  0  0  0  0
  -27.3942  -12.5856   17.7753 H   0  0  0  0  0  0
  -27.6666  -14.2404   19.5148 H   0  0  0  0  0  0
  -28.6790  -12.0690   21.4151 H   0  0  0  0  0  0
  -28.4748  -13.7566   21.8081 H   0  0  0  0  0  0
  -25.2756   -9.5722   22.4760 H   0  0  0  0  0  0
  -24.0020   -7.4656   22.7479 H   0  0  0  0  0  0
  -21.0831   -8.8773   19.8961 H   0  0  0  0  0  0
  -22.3674  -10.9684   19.6178 H   0  0  0  0  0  0
  -21.2014   -7.6159   23.9720 H   0  0  0  0  0  0
  -21.1461   -6.0531   25.9077 H   0  0  0  0  0  0
  -22.0604   -2.7621   23.2851 H   0  0  0  0  0  0
  -22.4117  -11.9883   22.4774 H   0  0  0  0  0  0
  -21.1122  -13.1270   22.2642 H   0  0  0  0  0  0
  -24.6556  -15.8381   20.5109 H   0  0  0  0  0  0
  -26.2703  -15.6322   20.0645 H   0  0  0  0  0  0
  -26.7129  -32.5532   23.1178 H   0  0  0  0  0  0
  -25.0032  -33.9759   25.0470 H   0  0  0  0  0  0
  -22.6898  -31.3012   21.4051 H   0  0  0  0  0  0
  -23.3740  -35.9664   23.3304 H   0  0  0  0  0  0
  -24.3589  -36.8932   22.2058 H   0  0  0  0  0  0
  -23.7262  -37.6530   23.6646 H   0  0  0  0  0  0
  -26.0372  -31.5972   20.5917 H   0  0  0  0  0  0
  -26.8203  -30.8913   21.9786 H   0  0  0  0  0  0
  -28.1102  -29.1080   21.1538 H   0  0  0  0  0  0
  -26.0767  -25.9458   19.0517 H   0  0  0  0  0  0
  -23.9866  -27.2711   19.0543 H   0  0  0  0  0  0
  -23.7212  -30.5830   19.4007 H   0  0  0  0  0  0
  -22.7399  -29.2278   19.8749 H   0  0  0  0  0  0
  -25.1279  -36.1988   25.0837 H   0  0  0  0  0  0
  -20.9926  -28.3220   24.1439 H   0  0  0  0  0  0
  -20.5660  -26.2257   23.3601 H   0  0  0  0  0  0
  -21.6630  -26.7437   22.1209 H   0  0  0  0  0  0
  -19.6919  -25.6290   21.1217 H   0  0  0  0  0  0
  -19.6689  -27.3198   20.6740 H   0  0  0  0  0  0
  -17.4193  -26.6645   21.4010 H   0  0  0  0  0  0
  -18.0326  -26.0037   22.9001 H   0  0  0  0  0  0
  -19.7933  -30.7229   24.2278 H   0  0  0  0  0  0
  -17.5012  -31.6255   24.5151 H   0  0  0  0  0  0
  -15.5340  -30.2968   23.7647 H   0  0  0  0  0  0
  -15.8657  -28.0813   22.7038 H   0  0  0  0  0  0
  -24.5896  -30.7033   25.7795 H   0  0  0  0  0  0
  -24.8894  -32.2836   26.4910 H   0  0  0  0  0  0
  -25.8069  -30.8861   27.0236 H   0  0  0  0  0  0
  -26.2874  -29.6780   24.1161 H   0  0  0  0  0  0
  -27.4107  -29.7295   25.4543 H   0  0  0  0  0  0
  -27.8679  -30.4367   23.9222 H   0  0  0  0  0  0
  -27.2701  -33.3604   26.2060 H   0  0  0  0  0  0
  -28.3842  -32.6858   25.0262 H   0  0  0  0  0  0
  -28.0740  -31.8414   26.5354 H   0  0  0  0  0  0
  -28.2595  -38.0114   24.7501 H   0  0  0  0  0  0
  -28.1092  -36.2637   24.6289 H   0  0  0  0  0  0
  -27.2295  -37.1457   25.8862 H   0  0  0  0  0  0
  -20.9316  -29.8742   21.6947 H   0  0  0  0  0  0
  -26.0197  -38.2866   24.1395 H   0  0  0  0  0  0
  -30.0820  -21.5501   22.8736 H   0  0  0  0  0  0
  -31.2150  -19.5755   23.7095 H   0  0  0  0  0  0
  -28.9156  -19.4112   19.3432 H   0  0  0  0  0  0
  -29.7395  -23.2211   21.5348 H   0  0  0  0  0  0
  -29.1642  -16.2456   16.5481 H   0  0  0  0  0  0
  -28.8500  -15.1465   17.8627 H   0  0  0  0  0  0
  -30.5248  -15.5707   17.4429 H   0  0  0  0  0  0
  -27.5644  -23.9632   19.5142 H   0  0  0  0  0  0
  -29.2154  -24.3919   19.1482 H   0  0  0  0  0  0
  -28.3679  -17.3194   18.7108 H   0  0  0  0  0  0
  -29.8215  -17.9843   17.9904 H   0  0  0  0  0  0
  -29.2932  -25.5353   21.4967 H   0  0  0  0  0  0
  -27.5606  -25.3940   21.5214 H   0  0  0  0  0  0
  -31.2444  -16.9497   19.5840 H   0  0  0  0  0  0
  -32.2130  -17.4657   23.2211 H   0  0  0  0  0  0
  -31.7893  -16.5267   21.8808 H   0  0  0  0  0  0
  -28.9266  -15.4878   20.7676 H   0  0  0  0  0  0
  1 25  1  0  0  0
  1 30  2  0  0  0
  1 85  1  0  0  0
  2  3  1  0  0  0
  2 25  1  0  0  0
  2 86  1  0  0  0
  2 87  1  0  0  0
  3  4  1  0  0  0
  3 88  1  0  0  0
  3 89  1  0  0  0
  4  5  1  0  0  0
  4 90  1  0  0  0
  4 91  1  0  0  0
  5  6  1  0  0  0
  5 26  1  0  0  0
  5 92  1  0  0  0
  6 25  1  0  0  0
  6 93  1  0  0  0
  6 94  1  0  0  0
  7  8  2  0  0  0
  7 26  1  0  0  0
  7 29  1  0  0  0
  8  9  1  0  0  0
  8 22  1  0  0  0
  9 10  1  0  0  0
  9 27  2  0  0  0
 10 11  2  0  0  0
 10 15  1  0  0  0
 11 12  1  0  0  0
 11 95  1  0  0  0
 12 13  2  0  0  0
 12 96  1  0  0  0
 13 14  1  0  0  0
 13 31  1  0  0  0
 14 15  2  0  0  0
 14 97  1  0  0  0
 15 98  1  0  0  0
 16 17  2  0  0  0
 16 21  1  0  0  0
 16 31  1  0  0  0
 17 18  1  0  0  0
 17 99  1  0  0  0
 18 19  2  0  0  0
 18100  1  0  0  0
 19 20  1  0  0  0
 19 24  1  0  0  0
 20 21  2  0  0  0
 20101  1  0  0  0
 21 23  1  0  0  0
 22 28  1  0  0  0
 22 32  2  0  0  0
 26 27  1  0  0  0
 28102  1  0  0  0
 28103  1  0  0  0
 29104  1  0  0  0
 29105  1  0  0  0
 33 34  1  0  0  0
 33 66  1  0  0  0
 33 70  2  0  0  0
 34 36  1  0  0  0
 34 59  1  0  0  0
 34106  1  0  0  0
 35 44  2  0  0  0
 35 45  1  0  0  0
 35 68  1  0  0  0
 36 56  1  0  0  0
 36107  1  0  0  0
 37 39  1  0  0  0
 37 47  1  0  0  0
 37 66  1  0  0  0
 37108  1  0  0  0
 38 43  2  0  0  0
 38 46  1  0  0  0
 38 47  1  0  0  0
 39 64  1  0  0  0
 39 67  2  0  0  0
 40 52  1  0  0  0
 40 53  2  0  0  0
 40 58  1  0  0  0
 41109  1  0  0  0
 41110  1  0  0  0
 41111  1  0  0  0
 41 48  1  0  0  0
 42 43  1  0  0  0
 42 66  1  0  0  0
 42112  1  0  0  0
 42113  1  0  0  0
 43 44  1  0  0  0
 44114  1  0  0  0
 45 46  2  0  0  0
 45115  1  0  0  0
 46116  1  0  0  0
 47117  1  0  0  0
 47118  1  0  0  0
 48 56  1  0  0  0
 48 65  1  0  0  0
 48119  1  0  0  0
 49 50  1  0  0  0
 49 53  1  0  0  0
 49 64  1  0  0  0
 49120  1  0  0  0
 50 51  1  0  0  0
 50121  1  0  0  0
 50122  1  0  0  0
 51 52  1  0  0  0
 51123  1  0  0  0
 51124  1  0  0  0
 52125  1  0  0  0
 52126  1  0  0  0
 53 54  1  0  0  0
 54 55  2  0  0  0
 54127  1  0  0  0
 55 57  1  0  0  0
 55128  1  0  0  0
 56 69  2  0  0  0
 57 58  2  0  0  0
 57129  1  0  0  0
 58130  1  0  0  0
 59 60  1  0  0  0
 59 61  1  0  0  0
 59 62  1  0  0  0
 60131  1  0  0  0
 60132  1  0  0  0
 60133  1  0  0  0
 61134  1  0  0  0
 61135  1  0  0  0
 61136  1  0  0  0
 62137  1  0  0  0
 62138  1  0  0  0
 62139  1  0  0  0
 63 65  1  0  0  0
 63140  1  0  0  0
 63141  1  0  0  0
 63142  1  0  0  0
 64143  1  0  0  0
 65144  1  0  0  0
 68 81  1  0  0  0
 71 72  2  0  0  0
 71 75  1  0  0  0
 71145  1  0  0  0
 72 76  1  0  0  0
 72146  1  0  0  0
 73 74  1  0  0  0
 73 75  2  0  0  0
 73147  1  0  0  0
 74 76  2  0  0  0
 74 82  1  0  0  0
 75 83  1  0  0  0
 76 84  1  0  0  0
 77 79  1  0  0  0
 77 83  2  0  0  0
 77148  1  0  0  0
 78 80  1  0  0  0
 78149  1  0  0  0
 78150  1  0  0  0
 78151  1  0  0  0
 79 81  1  0  0  0
 79152  1  0  0  0
 79153  1  0  0  0
 80154  1  0  0  0
 80155  1  0  0  0
 80 82  1  0  0  0
 81156  1  0  0  0
 81157  1  0  0  0
 82 85  1  0  0  0
 82158  1  0  0  0
 84159  1  0  0  0
 84160  1  0  0  0
 85161  1  0  0  0
M  ISO  4   1 100  68 101  81 101  85 100
M  END
> <chiral flag>
0

> <version>
0

> <s_m_source_file>
/data/baiqing/PycharmProjects/Reinvent-master-3.2/result/LINK_invent/BTK/process_docking_weight1_custom_product_contain_oxygen_bond_distance_aromatic_linkinvent_7_9_3/rearranged_h_0106.sdf

> <i_m_source_file_index>
18

> <r_mmod_Potential_Energy-OPLS-2005>
-61.5869903564453

> <r_mmod_Stretch_Energy-OPLS-2005>
46.6931495666504

> <r_mmod_Bend_Energy-OPLS-2005>
112.841110229492

> <r_mmod_Torsional_Energy-OPLS-2005>
249.001083374023

> <r_mmod_Improper_Torsional_Energy-OPLS-2005>
12.6663904190063

> <r_mmod_Van_der_Waal_Energy-OPLS-2005>
158.97590637207

> <r_mmod_Electrostatic_Energy-OPLS-2005>
-457.481994628906

> <r_mmod_Solvation_Energy-OPLS-2005>
-211.010238647461

> <b_mmod_Minimization_Converged-OPLS-2005>
0

> <r_mmod_RMS_Derivative-OPLS-2005>
1.69075441360474

$$$$
18
                    3D
 Structure written by MMmdl.
158166  0  0  1  0            999 V2000
  -30.7127  -14.4617   20.5588 C   0  0  0  0  0  0
  -30.4201  -12.2964   19.4164 C   0  0  0  0  0  0
  -29.4889  -12.4952   18.2030 C   0  0  0  0  0  0
  -28.0092  -12.3682   18.6143 C   0  0  0  0  0  0
  -27.6598  -13.2120   19.8691 C   0  0  2  0  0  0
  -28.7028  -12.9890   20.9874 C   0  0  0  0  0  0
  -25.2562  -13.8173   20.5675 C   0  0  0  0  0  0
  -24.1809  -13.0436   20.9150 C   0  0  0  0  0  0
  -24.6386  -11.6909   20.8733 C   0  0  0  0  0  0
  -23.9062  -10.4290   21.0398 C   0  0  0  0  0  0
  -24.3614   -9.4204   21.9185 C   0  0  0  0  0  0
  -23.6282   -8.2239   22.0755 C   0  0  0  0  0  0
  -22.4272   -8.0278   21.3533 C   0  0  0  0  0  0
  -21.9903   -9.0252   20.4643 C   0  0  0  0  0  0
  -22.7236  -10.2126   20.3048 C   0  0  0  0  0  0
  -21.6843   -6.0737   22.5289 C   0  0  0  0  0  0
  -21.4012   -6.5643   23.8220 C   0  0  0  0  0  0
  -21.3653   -5.6796   24.9180 C   0  0  0  0  0  0
  -21.6043   -4.3056   24.7228 C   0  0  0  0  0  0
  -21.8819   -3.8149   23.4343 C   0  0  0  0  0  0
  -21.9189   -4.6969   22.3407 C   0  0  0  0  0  0
  -22.7832  -13.5220   21.1835 C   0  0  0  0  0  0
  -22.1655   -4.2158   21.0981 F   0  0  0  0  0  0
  -21.5622   -3.4545   25.7734 F   0  0  0  0  0  0
  -30.0373  -13.2855   20.4356 N   0  0  0  0  0  0
  -26.3017  -12.9361   20.3356 N   0  0  0  0  0  0
  -25.9320  -11.6515   20.5749 N   0  0  0  0  0  0
  -22.0476  -12.8220   22.0398 N   0  0  0  0  0  0
  -25.4258  -15.1902   20.4156 N   0  0  0  0  0  0
  -31.8466  -14.6216   20.1010 O   0  0  0  0  0  0
  -21.6624   -6.8881   21.4246 O   0  0  0  0  0  0
  -22.3503  -14.5525   20.6680 O   0  0  0  0  0  0
  -24.6121  -31.8680   23.2078 C   0  0  0  0  0  0
  -25.9026  -32.4813   23.8362 C   0  0  1  0  0  0
  -27.2454  -27.4364   20.1111 C   0  0  0  0  0  0
  -25.5914  -33.8604   24.2318 N   0  0  0  0  0  0
  -23.4011  -30.4868   21.5472 C   0  0  2  0  0  0
  -24.8511  -28.9505   20.1134 C   0  0  0  0  0  0
  -22.7416  -29.4636   22.4988 C   0  0  0  0  0  0
  -18.0286  -28.1368   22.8457 C   0  0  0  0  0  0
  -24.1502  -36.7297   23.2635 C   0  0  0  0  0  0
  -25.9260  -30.8369   21.3561 C   0  0  0  0  0  0
  -26.0060  -29.4698   20.7072 C   0  0  0  0  0  0
  -27.2033  -28.7211   20.6979 C   0  0  0  0  0  0
  -26.0714  -26.9246   19.5147 C   0  0  0  0  0  0
  -24.8784  -27.6775   19.5136 C   0  0  0  0  0  0
  -23.6112  -29.8156   20.1625 C   0  0  0  0  0  0
  -25.4124  -36.3104   24.0342 C   0  0  1  0  0  0
  -20.5877  -28.3636   23.1330 C   0  0  2  0  0  0
  -20.6781  -26.9378   22.5423 C   0  0  0  0  0  0
  -19.5771  -26.6376   21.5204 C   0  0  0  0  0  0
  -18.1941  -26.7910   22.1604 C   0  0  0  0  0  0
  -19.1538  -28.8820   23.2881 C   0  0  0  0  0  0
  -18.9463  -30.1426   23.8884 C   0  0  0  0  0  0
  -17.6471  -30.6566   24.0552 C   0  0  0  0  0  0
  -25.9051  -34.9469   23.5130 C   0  0  0  0  0  0
  -16.5354  -29.9067   23.6332 C   0  0  0  0  0  0
  -16.7277  -28.6504   23.0313 C   0  0  0  0  0  0
  -26.4460  -31.6582   25.0671 C   0  0  0  0  0  0
  -25.3741  -31.3707   26.1437 C   0  0  0  0  0  0
  -27.0299  -30.3041   24.5998 C   0  0  0  0  0  0
  -27.6031  -32.4291   25.7447 C   0  0  0  0  0  0
  -27.5584  -37.1799   24.8460 C   0  0  0  0  0  0
  -21.4154  -29.2986   22.3722 N   0  0  0  0  0  0
  -26.4295  -37.3799   23.9417 N   0  0  0  0  0  0
  -24.6646  -31.0783   22.0964 N   0  0  0  0  0  0
  -23.4207  -28.8216   23.3040 O   0  0  0  0  0  0
  -28.4428  -26.7506   20.1420 O   0  0  0  0  0  0
  -26.5592  -34.8926   22.4668 O   0  0  0  0  0  0
  -23.5321  -32.1425   23.7487 O   0  0  0  0  0  0
  -29.1387  -19.1046   20.8390 C   0  0  0  0  0  0
  -31.4527  -17.5037   20.7413 C   0  0  0  0  0  0
  -29.0458  -17.7059   21.0302 C   0  0  0  0  0  0
  -31.5506  -18.9017   20.5691 C   0  0  0  0  0  0
  -30.3924  -19.7139   20.5926 C   0  0  0  0  0  0
  -30.1955  -16.8857   20.9532 C   0  0  0  0  0  0
  -29.7734  -22.1705   20.4284 C   0  0  0  0  0  0
  -30.3467  -23.4885   19.8748 C   0  0  0  0  0  0
  -29.8326  -24.8147   20.4954 C   0  0  0  0  0  0
  -28.4528  -25.3237   20.0119 C   0  0  0  0  0  0
  -27.8002  -17.1252   21.2777 N   0  0  0  0  0  0
  -32.8068  -19.4839   20.3780 N   0  0  0  0  0  0
  -30.5783  -21.0995   20.2934 N   0  0  0  0  0  0
  -30.0034  -15.4717   21.0960 N   0  0  0  0  0  0
  -28.6620  -22.1468   20.9618 O   0  0  0  0  0  0
  -31.4640  -12.3888   19.1075 H   0  0  0  0  0  0
  -30.3186  -11.2861   19.8153 H   0  0  0  0  0  0
  -29.7209  -11.7640   17.4273 H   0  0  0  0  0  0
  -29.6653  -13.4761   17.7605 H   0  0  0  0  0  0
  -27.8117  -11.3139   18.8090 H   0  0  0  0  0  0
  -27.3620  -12.6457   17.7818 H   0  0  0  0  0  0
  -27.7006  -14.2601   19.5691 H   0  0  0  0  0  0
  -28.6723  -11.9530   21.3271 H   0  0  0  0  0  0
  -28.4694  -13.5918   21.8654 H   0  0  0  0  0  0
  -25.2764   -9.5674   22.4753 H   0  0  0  0  0  0
  -23.9995   -7.4634   22.7474 H   0  0  0  0  0  0
  -21.0841   -8.8770   19.8953 H   0  0  0  0  0  0
  -22.3710  -10.9655   19.6148 H   0  0  0  0  0  0
  -21.2008   -7.6152   23.9728 H   0  0  0  0  0  0
  -21.1469   -6.0520   25.9082 H   0  0  0  0  0  0
  -22.0602   -2.7612   23.2844 H   0  0  0  0  0  0
  -22.4075  -11.9873   22.4780 H   0  0  0  0  0  0
  -21.1090  -13.1233   22.2577 H   0  0  0  0  0  0
  -24.6766  -15.8492   20.5896 H   0  0  0  0  0  0
  -26.3152  -15.6541   20.2459 H   0  0  0  0  0  0
  -26.7093  -32.5546   23.1129 H   0  0  0  0  0  0
  -25.0090  -33.9745   25.0480 H   0  0  0  0  0  0
  -22.6866  -31.3001   21.4038 H   0  0  0  0  0  0
  -23.3750  -35.9640   23.3320 H   0  0  0  0  0  0
  -24.3617  -36.8900   22.2043 H   0  0  0  0  0  0
  -23.7257  -37.6501   23.6640 H   0  0  0  0  0  0
  -26.0313  -31.6014   20.5857 H   0  0  0  0  0  0
  -26.8165  -30.8938   21.9698 H   0  0  0  0  0  0
  -28.0980  -29.1195   21.1541 H   0  0  0  0  0  0
  -26.0649  -25.9498   19.0506 H   0  0  0  0  0  0
  -23.9900  -27.2653   19.0555 H   0  0  0  0  0  0
  -23.7168  -30.5865   19.3988 H   0  0  0  0  0  0
  -22.7354  -29.2322   19.8710 H   0  0  0  0  0  0
  -25.1299  -36.1959   25.0828 H   0  0  0  0  0  0
  -20.9933  -28.3192   24.1472 H   0  0  0  0  0  0
  -20.5714  -26.2220   23.3600 H   0  0  0  0  0  0
  -21.6648  -26.7456   22.1186 H   0  0  0  0  0  0
  -19.6953  -25.6300   21.1201 H   0  0  0  0  0  0
  -19.6735  -27.3193   20.6741 H   0  0  0  0  0  0
  -17.4220  -26.6648   21.3987 H   0  0  0  0  0  0
  -18.0334  -26.0064   22.9010 H   0  0  0  0  0  0
  -19.7952  -30.7231   24.2231 H   0  0  0  0  0  0
  -17.5041  -31.6255   24.5142 H   0  0  0  0  0  0
  -15.5344  -30.2959   23.7686 H   0  0  0  0  0  0
  -15.8684  -28.0842   22.6988 H   0  0  0  0  0  0
  -24.5897  -30.7074   25.7791 H   0  0  0  0  0  0
  -24.8920  -32.2859   26.4873 H   0  0  0  0  0  0
  -25.8085  -30.8880   27.0202 H   0  0  0  0  0  0
  -26.2811  -29.6804   24.1080 H   0  0  0  0  0  0
  -27.4147  -29.7281   25.4429 H   0  0  0  0  0  0
  -27.8633  -30.4409   23.9097 H   0  0  0  0  0  0
  -27.2653  -33.3586   26.2046 H   0  0  0  0  0  0
  -28.3834  -32.6872   25.0278 H   0  0  0  0  0  0
  -28.0708  -31.8398   26.5349 H   0  0  0  0  0  0
  -28.2583  -38.0109   24.7517 H   0  0  0  0  0  0
  -28.1111  -36.2638   24.6288 H   0  0  0  0  0  0
  -27.2310  -37.1434   25.8866 H   0  0  0  0  0  0
  -20.9326  -29.8702   21.6935 H   0  0  0  0  0  0
  -26.0191  -38.2880   24.1423 H   0  0  0  0  0  0
  -28.2416  -19.7043   20.8653 H   0  0  0  0  0  0
  -32.3543  -16.9106   20.7100 H   0  0  0  0  0  0
  -30.2112  -23.5063   18.7921 H   0  0  0  0  0  0
  -31.4267  -23.4596   20.0322 H   0  0  0  0  0  0
  -30.5727  -25.5758   20.2453 H   0  0  0  0  0  0
  -29.8475  -24.7559   21.5849 H   0  0  0  0  0  0
  -28.2904  -25.0600   18.9670 H   0  0  0  0  0  0
  -27.6608  -24.8647   20.6087 H   0  0  0  0  0  0
  -27.0471  -17.7812   21.4507 H   0  0  0  0  0  0
  -27.7874  -16.4067   21.9895 H   0  0  0  0  0  0
  -33.6009  -18.8640   20.5070 H   0  0  0  0  0  0
  -32.9688  -20.3489   20.8826 H   0  0  0  0  0  0
  -31.4884  -21.2905   19.8949 H   0  0  0  0  0  0
  -29.0671  -15.2144   21.3641 H   0  0  0  0  0  0
  1 25  1  0  0  0
  1 30  2  0  0  0
  1 84  1  0  0  0
  2  3  1  0  0  0
  2 25  1  0  0  0
  2 86  1  0  0  0
  2 87  1  0  0  0
  3  4  1  0  0  0
  3 88  1  0  0  0
  3 89  1  0  0  0
  4  5  1  0  0  0
  4 90  1  0  0  0
  4 91  1  0  0  0
  5  6  1  0  0  0
  5 26  1  0  0  0
  5 92  1  0  0  0
  6 25  1  0  0  0
  6 93  1  0  0  0
  6 94  1  0  0  0
  7  8  2  0  0  0
  7 26  1  0  0  0
  7 29  1  0  0  0
  8  9  1  0  0  0
  8 22  1  0  0  0
  9 10  1  0  0  0
  9 27  2  0  0  0
 10 11  2  0  0  0
 10 15  1  0  0  0
 11 12  1  0  0  0
 11 95  1  0  0  0
 12 13  2  0  0  0
 12 96  1  0  0  0
 13 14  1  0  0  0
 13 31  1  0  0  0
 14 15  2  0  0  0
 14 97  1  0  0  0
 15 98  1  0  0  0
 16 17  2  0  0  0
 16 21  1  0  0  0
 16 31  1  0  0  0
 17 18  1  0  0  0
 17 99  1  0  0  0
 18 19  2  0  0  0
 18100  1  0  0  0
 19 20  1  0  0  0
 19 24  1  0  0  0
 20 21  2  0  0  0
 20101  1  0  0  0
 21 23  1  0  0  0
 22 28  1  0  0  0
 22 32  2  0  0  0
 26 27  1  0  0  0
 28102  1  0  0  0
 28103  1  0  0  0
 29104  1  0  0  0
 29105  1  0  0  0
 33 34  1  0  0  0
 33 66  1  0  0  0
 33 70  2  0  0  0
 34 36  1  0  0  0
 34 59  1  0  0  0
 34106  1  0  0  0
 35 44  2  0  0  0
 35 45  1  0  0  0
 35 68  1  0  0  0
 36 56  1  0  0  0
 36107  1  0  0  0
 37 39  1  0  0  0
 37 47  1  0  0  0
 37 66  1  0  0  0
 37108  1  0  0  0
 38 43  2  0  0  0
 38 46  1  0  0  0
 38 47  1  0  0  0
 39 64  1  0  0  0
 39 67  2  0  0  0
 40 52  1  0  0  0
 40 53  2  0  0  0
 40 58  1  0  0  0
 41109  1  0  0  0
 41110  1  0  0  0
 41111  1  0  0  0
 41 48  1  0  0  0
 42 43  1  0  0  0
 42 66  1  0  0  0
 42112  1  0  0  0
 42113  1  0  0  0
 43 44  1  0  0  0
 44114  1  0  0  0
 45 46  2  0  0  0
 45115  1  0  0  0
 46116  1  0  0  0
 47117  1  0  0  0
 47118  1  0  0  0
 48 56  1  0  0  0
 48 65  1  0  0  0
 48119  1  0  0  0
 49 50  1  0  0  0
 49 53  1  0  0  0
 49 64  1  0  0  0
 49120  1  0  0  0
 50 51  1  0  0  0
 50121  1  0  0  0
 50122  1  0  0  0
 51 52  1  0  0  0
 51123  1  0  0  0
 51124  1  0  0  0
 52125  1  0  0  0
 52126  1  0  0  0
 53 54  1  0  0  0
 54 55  2  0  0  0
 54127  1  0  0  0
 55 57  1  0  0  0
 55128  1  0  0  0
 56 69  2  0  0  0
 57 58  2  0  0  0
 57129  1  0  0  0
 58130  1  0  0  0
 59 60  1  0  0  0
 59 61  1  0  0  0
 59 62  1  0  0  0
 60131  1  0  0  0
 60132  1  0  0  0
 60133  1  0  0  0
 61134  1  0  0  0
 61135  1  0  0  0
 61136  1  0  0  0
 62137  1  0  0  0
 62138  1  0  0  0
 62139  1  0  0  0
 63 65  1  0  0  0
 63140  1  0  0  0
 63141  1  0  0  0
 63142  1  0  0  0
 64143  1  0  0  0
 65144  1  0  0  0
 68 80  1  0  0  0
 71 73  2  0  0  0
 71 75  1  0  0  0
 71145  1  0  0  0
 72 74  1  0  0  0
 72 76  2  0  0  0
 72146  1  0  0  0
 73 76  1  0  0  0
 73 81  1  0  0  0
 74 75  2  0  0  0
 74 82  1  0  0  0
 75 83  1  0  0  0
 76 84  1  0  0  0
 77 78  1  0  0  0
 77 83  1  0  0  0
 77 85  2  0  0  0
 78 79  1  0  0  0
 78147  1  0  0  0
 78148  1  0  0  0
 79 80  1  0  0  0
 79149  1  0  0  0
 79150  1  0  0  0
 80151  1  0  0  0
 80152  1  0  0  0
 81153  1  0  0  0
 81154  1  0  0  0
 82155  1  0  0  0
 82156  1  0  0  0
 83157  1  0  0  0
 84158  1  0  0  0
M  ISO  4   1 100  68 101  80 101  84 100
M  END
> <chiral flag>
0

> <version>
0

> <s_m_source_file>
/data/baiqing/PycharmProjects/Reinvent-master-3.2/result/LINK_invent/BTK/process_docking_weight1_custom_product_contain_oxygen_bond_distance_aromatic_linkinvent_7_9_3/rearranged_h_0106.sdf

> <i_m_source_file_index>
19

> <r_mmod_Potential_Energy-OPLS-2005>
-278.412445068359

> <r_mmod_Stretch_Energy-OPLS-2005>
37.8451385498047

> <r_mmod_Bend_Energy-OPLS-2005>
119.352249145508

> <r_mmod_Torsional_Energy-OPLS-2005>
233.707962036133

> <r_mmod_Improper_Torsional_Energy-OPLS-2005>
14.4092893600464

> <r_mmod_Van_der_Waal_Energy-OPLS-2005>
163.937454223633

> <r_mmod_Electrostatic_Energy-OPLS-2005>
-626.024841308594

> <r_mmod_Solvation_Energy-OPLS-2005>
-234.964553833008

> <b_mmod_Minimization_Converged-OPLS-2005>
0

> <r_mmod_RMS_Derivative-OPLS-2005>
2.84629344940186

$$$$
19
                    3D
 Structure written by MMmdl.
163172  0  0  1  0            999 V2000
  -30.6529  -14.5703   20.5440 C   0  0  0  0  0  0
  -30.4356  -12.3578   19.4425 C   0  0  0  0  0  0
  -29.5047  -12.5148   18.2200 C   0  0  0  0  0  0
  -28.0267  -12.3579   18.6289 C   0  0  0  0  0  0
  -27.6609  -13.2081   19.8737 C   0  0  2  0  0  0
  -28.7037  -13.0219   21.0002 C   0  0  0  0  0  0
  -25.2602  -13.8138   20.5709 C   0  0  0  0  0  0
  -24.1843  -13.0418   20.9166 C   0  0  0  0  0  0
  -24.6398  -11.6888   20.8724 C   0  0  0  0  0  0
  -23.9064  -10.4278   21.0397 C   0  0  0  0  0  0
  -24.3617   -9.4198   21.9181 C   0  0  0  0  0  0
  -23.6287   -8.2238   22.0752 C   0  0  0  0  0  0
  -22.4269   -8.0275   21.3541 C   0  0  0  0  0  0
  -21.9904   -9.0247   20.4646 C   0  0  0  0  0  0
  -22.7237  -10.2123   20.3051 C   0  0  0  0  0  0
  -21.6849   -6.0734   22.5278 C   0  0  0  0  0  0
  -21.4012   -6.5638   23.8212 C   0  0  0  0  0  0
  -21.3664   -5.6790   24.9175 C   0  0  0  0  0  0
  -21.6045   -4.3051   24.7227 C   0  0  0  0  0  0
  -21.8818   -3.8145   23.4347 C   0  0  0  0  0  0
  -21.9192   -4.6962   22.3404 C   0  0  0  0  0  0
  -22.7867  -13.5224   21.1837 C   0  0  0  0  0  0
  -22.1656   -4.2150   21.0980 F   0  0  0  0  0  0
  -21.5638   -3.4534   25.7741 F   0  0  0  0  0  0
  -30.0309  -13.3540   20.4525 N   0  0  0  0  0  0
  -26.3032  -12.9311   20.3370 N   0  0  0  0  0  0
  -25.9329  -11.6468   20.5762 N   0  0  0  0  0  0
  -22.0507  -12.8219   22.0398 N   0  0  0  0  0  0
  -25.4342  -15.1849   20.4219 N   0  0  0  0  0  0
  -31.7691  -14.7710   20.0517 O   0  0  0  0  0  0
  -21.6636   -6.8869   21.4235 O   0  0  0  0  0  0
  -22.3554  -14.5534   20.6693 O   0  0  0  0  0  0
  -24.6216  -31.8638   23.2070 C   0  0  0  0  0  0
  -25.9085  -32.4799   23.8378 C   0  0  1  0  0  0
  -27.2278  -27.3571   20.1021 C   0  0  0  0  0  0
  -25.5921  -33.8598   24.2304 N   0  0  0  0  0  0
  -23.4126  -30.4895   21.5485 C   0  0  2  0  0  0
  -24.8589  -28.9534   20.1092 C   0  0  0  0  0  0
  -22.7448  -29.4646   22.4949 C   0  0  0  0  0  0
  -18.0282  -28.1386   22.8486 C   0  0  0  0  0  0
  -24.1488  -36.7300   23.2639 C   0  0  0  0  0  0
  -25.9512  -30.8024   21.3770 C   0  0  0  0  0  0
  -26.0237  -29.4331   20.7201 C   0  0  0  0  0  0
  -27.2060  -28.6419   20.7177 C   0  0  0  0  0  0
  -26.0438  -26.9362   19.4472 C   0  0  0  0  0  0
  -24.8687  -27.7076   19.4674 C   0  0  0  0  0  0
  -23.6248  -29.8281   20.1618 C   0  0  0  0  0  0
  -25.4111  -36.3096   24.0335 C   0  0  1  0  0  0
  -20.5877  -28.3683   23.1290 C   0  0  2  0  0  0
  -20.6773  -26.9412   22.5408 C   0  0  0  0  0  0
  -19.5750  -26.6388   21.5209 C   0  0  0  0  0  0
  -18.1930  -26.7930   22.1622 C   0  0  0  0  0  0
  -19.1533  -28.8850   23.2887 C   0  0  0  0  0  0
  -18.9462  -30.1455   23.8902 C   0  0  0  0  0  0
  -17.6463  -30.6589   24.0566 C   0  0  0  0  0  0
  -25.9047  -34.9462   23.5118 C   0  0  0  0  0  0
  -16.5353  -29.9090   23.6332 C   0  0  0  0  0  0
  -16.7271  -28.6507   23.0349 C   0  0  0  0  0  0
  -26.4488  -31.6594   25.0730 C   0  0  0  0  0  0
  -25.3731  -31.3718   26.1463 C   0  0  0  0  0  0
  -27.0328  -30.3022   24.6162 C   0  0  0  0  0  0
  -27.6056  -32.4321   25.7491 C   0  0  0  0  0  0
  -27.5580  -37.1807   24.8469 C   0  0  0  0  0  0
  -21.4166  -29.3044   22.3689 N   0  0  0  0  0  0
  -26.4293  -37.3784   23.9410 N   0  0  0  0  0  0
  -24.6800  -31.0682   22.1008 N   0  0  0  0  0  0
  -23.4191  -28.8183   23.3014 O   0  0  0  0  0  0
  -28.3693  -26.5479   20.1688 O   0  0  0  0  0  0
  -26.5609  -34.8921   22.4681 O   0  0  0  0  0  0
  -23.5389  -32.1428   23.7418 O   0  0  0  0  0  0
  -30.2690  -18.0002   20.6682 C   0  0  0  0  0  0
  -28.4142  -19.2089   19.6903 C   0  0  0  0  0  0
  -29.7257  -19.2402   20.1957 C   0  0  0  0  0  0
  -29.5013  -16.7959   20.6110 C   0  0  0  0  0  0
  -27.7054  -17.9917   19.6864 C   0  0  0  0  0  0
  -30.6192  -24.1728   20.5644 C   0  0  0  0  0  0
  -31.1046  -22.7973   21.0806 C   0  0  0  0  0  0
  -28.9145  -22.5745   20.2018 C   0  0  0  0  0  0
  -29.0985  -24.0743   20.6157 C   0  0  2  0  0  0
  -25.7410  -18.9897   18.7455 C   0  0  0  0  0  0
  -30.5432  -20.5566   20.1030 C   0  0  0  0  0  0
  -28.2825  -25.1330   19.7851 C   0  0  0  0  0  0
  -28.2346  -16.8388   20.1424 N   0  0  0  0  0  0
  -29.9543  -15.5503   21.1720 N   0  0  0  0  0  0
  -30.0374  -21.7919   20.8125 N   0  3  1  0  0  0
  -26.4210  -17.8363   19.2210 O   0  0  0  0  0  0
  -31.4778  -12.4739   19.1401 H   0  0  0  0  0  0
  -30.3587  -11.3513   19.8568 H   0  0  0  0  0  0
  -29.7600  -11.7819   17.4534 H   0  0  0  0  0  0
  -29.6568  -13.4960   17.7670 H   0  0  0  0  0  0
  -27.8505  -11.3022   18.8377 H   0  0  0  0  0  0
  -27.3751  -12.6150   17.7927 H   0  0  0  0  0  0
  -27.6905  -14.2494   19.5553 H   0  0  0  0  0  0
  -28.7004  -11.9893   21.3527 H   0  0  0  0  0  0
  -28.4456  -13.6258   21.8709 H   0  0  0  0  0  0
  -25.2763   -9.5676   22.4760 H   0  0  0  0  0  0
  -23.9994   -7.4628   22.7470 H   0  0  0  0  0  0
  -21.0835   -8.8766   19.8954 H   0  0  0  0  0  0
  -22.3692  -10.9663   19.6163 H   0  0  0  0  0  0
  -21.1994   -7.6145   23.9717 H   0  0  0  0  0  0
  -21.1492   -6.0520   25.9079 H   0  0  0  0  0  0
  -22.0597   -2.7607   23.2845 H   0  0  0  0  0  0
  -22.4104  -11.9865   22.4776 H   0  0  0  0  0  0
  -21.1132  -13.1262   22.2611 H   0  0  0  0  0  0
  -24.6734  -15.8439   20.5390 H   0  0  0  0  0  0
  -26.3109  -15.6391   20.1732 H   0  0  0  0  0  0
  -26.7150  -32.5484   23.1125 H   0  0  0  0  0  0
  -25.0075  -33.9756   25.0451 H   0  0  0  0  0  0
  -22.7044  -31.3092   21.4091 H   0  0  0  0  0  0
  -23.3751  -35.9633   23.3310 H   0  0  0  0  0  0
  -24.3580  -36.8907   22.2052 H   0  0  0  0  0  0
  -23.7241  -37.6506   23.6648 H   0  0  0  0  0  0
  -26.0809  -31.5669   20.6095 H   0  0  0  0  0  0
  -26.8329  -30.8493   22.0043 H   0  0  0  0  0  0
  -28.0962  -29.0026   21.2136 H   0  0  0  0  0  0
  -25.9857  -26.0085   18.9004 H   0  0  0  0  0  0
  -23.9805  -27.3407   18.9719 H   0  0  0  0  0  0
  -23.7389  -30.6065   19.4061 H   0  0  0  0  0  0
  -22.7461  -29.2546   19.8612 H   0  0  0  0  0  0
  -25.1288  -36.1956   25.0828 H   0  0  0  0  0  0
  -20.9975  -28.3261   24.1409 H   0  0  0  0  0  0
  -20.5677  -26.2296   23.3605 H   0  0  0  0  0  0
  -21.6644  -26.7449   22.1201 H   0  0  0  0  0  0
  -19.6916  -25.6301   21.1236 H   0  0  0  0  0  0
  -19.6692  -27.3201   20.6741 H   0  0  0  0  0  0
  -17.4199  -26.6676   21.4026 H   0  0  0  0  0  0
  -18.0336  -26.0071   22.9017 H   0  0  0  0  0  0
  -19.7940  -30.7269   24.2271 H   0  0  0  0  0  0
  -17.5022  -31.6271   24.5168 H   0  0  0  0  0  0
  -15.5356  -30.2997   23.7656 H   0  0  0  0  0  0
  -15.8668  -28.0834   22.7058 H   0  0  0  0  0  0
  -24.5914  -30.7059   25.7795 H   0  0  0  0  0  0
  -24.8913  -32.2877   26.4892 H   0  0  0  0  0  0
  -25.8065  -30.8899   27.0233 H   0  0  0  0  0  0
  -26.2894  -29.6778   24.1195 H   0  0  0  0  0  0
  -27.4047  -29.7274   25.4653 H   0  0  0  0  0  0
  -27.8751  -30.4321   23.9365 H   0  0  0  0  0  0
  -27.2677  -33.3621   26.2074 H   0  0  0  0  0  0
  -28.3856  -32.6881   25.0310 H   0  0  0  0  0  0
  -28.0731  -31.8442   26.5400 H   0  0  0  0  0  0
  -28.2604  -38.0098   24.7508 H   0  0  0  0  0  0
  -28.1068  -36.2629   24.6301 H   0  0  0  0  0  0
  -27.2298  -37.1461   25.8873 H   0  0  0  0  0  0
  -20.9336  -29.8773   21.6909 H   0  0  0  0  0  0
  -26.0181  -38.2862   24.1405 H   0  0  0  0  0  0
  -31.2772  -17.9663   21.0591 H   0  0  0  0  0  0
  -27.9787  -20.1080   19.2837 H   0  0  0  0  0  0
  -30.9496  -24.3201   19.5350 H   0  0  0  0  0  0
  -31.0075  -25.0020   21.1571 H   0  0  0  0  0  0
  -31.2671  -22.8372   22.1585 H   0  0  0  0  0  0
  -32.0618  -22.5363   20.6267 H   0  0  0  0  0  0
  -28.9639  -22.4896   19.1152 H   0  0  0  0  0  0
  -27.9452  -22.1843   20.5142 H   0  0  0  0  0  0
  -28.7917  -24.1705   21.6585 H   0  0  0  0  0  0
  -25.6642  -19.7547   19.5190 H   0  0  0  0  0  0
  -24.7274  -18.7173   18.4525 H   0  0  0  0  0  0
  -26.2368  -19.4109   17.8700 H   0  0  0  0  0  0
  -30.7117  -20.7906   19.0511 H   0  0  0  0  0  0
  -31.5286  -20.3209   20.5063 H   0  0  0  0  0  0
  -27.2635  -24.7664   19.8832 H   0  0  0  0  0  0
  -28.5402  -25.0540   18.7285 H   0  0  0  0  0  0
  -29.2171  -15.1150   21.7018 H   0  0  0  0  0  0
  -29.7253  -21.4748   21.7179 H   0  0  0  0  0  0
  1 25  1  0  0  0
  1 30  2  0  0  0
  1 84  1  0  0  0
  2  3  1  0  0  0
  2 25  1  0  0  0
  2 87  1  0  0  0
  2 88  1  0  0  0
  3  4  1  0  0  0
  3 89  1  0  0  0
  3 90  1  0  0  0
  4  5  1  0  0  0
  4 91  1  0  0  0
  4 92  1  0  0  0
  5  6  1  0  0  0
  5 26  1  0  0  0
  5 93  1  0  0  0
  6 25  1  0  0  0
  6 94  1  0  0  0
  6 95  1  0  0  0
  7  8  2  0  0  0
  7 26  1  0  0  0
  7 29  1  0  0  0
  8  9  1  0  0  0
  8 22  1  0  0  0
  9 10  1  0  0  0
  9 27  2  0  0  0
 10 11  2  0  0  0
 10 15  1  0  0  0
 11 12  1  0  0  0
 11 96  1  0  0  0
 12 13  2  0  0  0
 12 97  1  0  0  0
 13 14  1  0  0  0
 13 31  1  0  0  0
 14 15  2  0  0  0
 14 98  1  0  0  0
 15 99  1  0  0  0
 16 17  2  0  0  0
 16 21  1  0  0  0
 16 31  1  0  0  0
 17 18  1  0  0  0
 17100  1  0  0  0
 18 19  2  0  0  0
 18101  1  0  0  0
 19 20  1  0  0  0
 19 24  1  0  0  0
 20 21  2  0  0  0
 20102  1  0  0  0
 21 23  1  0  0  0
 22 28  1  0  0  0
 22 32  2  0  0  0
 26 27  1  0  0  0
 28103  1  0  0  0
 28104  1  0  0  0
 29105  1  0  0  0
 29106  1  0  0  0
 33 34  1  0  0  0
 33 66  1  0  0  0
 33 70  2  0  0  0
 34 36  1  0  0  0
 34 59  1  0  0  0
 34107  1  0  0  0
 35 44  2  0  0  0
 35 45  1  0  0  0
 35 68  1  0  0  0
 36 56  1  0  0  0
 36108  1  0  0  0
 37 39  1  0  0  0
 37 47  1  0  0  0
 37 66  1  0  0  0
 37109  1  0  0  0
 38 43  2  0  0  0
 38 46  1  0  0  0
 38 47  1  0  0  0
 39 64  1  0  0  0
 39 67  2  0  0  0
 40 52  1  0  0  0
 40 53  2  0  0  0
 40 58  1  0  0  0
 41110  1  0  0  0
 41111  1  0  0  0
 41112  1  0  0  0
 41 48  1  0  0  0
 42 43  1  0  0  0
 42 66  1  0  0  0
 42113  1  0  0  0
 42114  1  0  0  0
 43 44  1  0  0  0
 44115  1  0  0  0
 45 46  2  0  0  0
 45116  1  0  0  0
 46117  1  0  0  0
 47118  1  0  0  0
 47119  1  0  0  0
 48 56  1  0  0  0
 48 65  1  0  0  0
 48120  1  0  0  0
 49 50  1  0  0  0
 49 53  1  0  0  0
 49 64  1  0  0  0
 49121  1  0  0  0
 50 51  1  0  0  0
 50122  1  0  0  0
 50123  1  0  0  0
 51 52  1  0  0  0
 51124  1  0  0  0
 51125  1  0  0  0
 52126  1  0  0  0
 52127  1  0  0  0
 53 54  1  0  0  0
 54 55  2  0  0  0
 54128  1  0  0  0
 55 57  1  0  0  0
 55129  1  0  0  0
 56 69  2  0  0  0
 57 58  2  0  0  0
 57130  1  0  0  0
 58131  1  0  0  0
 59 60  1  0  0  0
 59 61  1  0  0  0
 59 62  1  0  0  0
 60132  1  0  0  0
 60133  1  0  0  0
 60134  1  0  0  0
 61135  1  0  0  0
 61136  1  0  0  0
 61137  1  0  0  0
 62138  1  0  0  0
 62139  1  0  0  0
 62140  1  0  0  0
 63 65  1  0  0  0
 63141  1  0  0  0
 63142  1  0  0  0
 63143  1  0  0  0
 64144  1  0  0  0
 65145  1  0  0  0
 68 82  1  0  0  0
 71 73  2  0  0  0
 71 74  1  0  0  0
 71146  1  0  0  0
 72 73  1  0  0  0
 72 75  2  0  0  0
 72147  1  0  0  0
 73 81  1  0  0  0
 74 83  2  0  0  0
 74 84  1  0  0  0
 75 83  1  0  0  0
 75 86  1  0  0  0
 76 77  1  0  0  0
 76 79  1  0  0  0
 76148  1  0  0  0
 76149  1  0  0  0
 77 85  1  0  0  0
 77150  1  0  0  0
 77151  1  0  0  0
 78 79  1  0  0  0
 78 85  1  0  0  0
 78152  1  0  0  0
 78153  1  0  0  0
 79 82  1  0  0  0
 79154  1  0  0  0
 80 86  1  0  0  0
 80155  1  0  0  0
 80156  1  0  0  0
 80157  1  0  0  0
 81158  1  0  0  0
 81159  1  0  0  0
 81 85  1  0  0  0
 82160  1  0  0  0
 82161  1  0  0  0
 84162  1  0  0  0
 85163  1  0  0  0
M  CHG  1  85   1
M  ISO  4   1 100  68 101  82 101  84 100
M  END
> <chiral flag>
0

> <version>
0

> <s_m_source_file>
/data/baiqing/PycharmProjects/Reinvent-master-3.2/result/LINK_invent/BTK/process_docking_weight1_custom_product_contain_oxygen_bond_distance_aromatic_linkinvent_7_9_3/rearranged_h_0106.sdf

> <i_m_source_file_index>
20

> <r_mmod_Potential_Energy-OPLS-2005>
-266.164367675781

> <r_mmod_Stretch_Energy-OPLS-2005>
58.8806343078613

> <r_mmod_Bend_Energy-OPLS-2005>
169.710464477539

> <r_mmod_Torsional_Energy-OPLS-2005>
290.593933105469

> <r_mmod_Improper_Torsional_Energy-OPLS-2005>
7.07332229614258

> <r_mmod_Van_der_Waal_Energy-OPLS-2005>
147.363067626953

> <r_mmod_Electrostatic_Energy-OPLS-2005>
-498.364501953125

> <r_mmod_Solvation_Energy-OPLS-2005>
-472.439636230469

> <b_mmod_Minimization_Converged-OPLS-2005>
0

> <r_mmod_RMS_Derivative-OPLS-2005>
0.730467021465302

$$$$
20
                    3D
 Structure written by MMmdl.
165174  0  0  1  0            999 V2000
  -30.5639  -14.6802   20.4871 C   0  0  0  0  0  0
  -30.4495  -12.4178   19.4488 C   0  0  0  0  0  0
  -29.5093  -12.5069   18.2223 C   0  0  0  0  0  0
  -28.0292  -12.3542   18.6309 C   0  0  0  0  0  0
  -27.6492  -13.2197   19.8639 C   0  0  2  0  0  0
  -28.6940  -13.0537   20.9908 C   0  0  0  0  0  0
  -25.2466  -13.8129   20.5691 C   0  0  0  0  0  0
  -24.1745  -13.0410   20.9253 C   0  0  0  0  0  0
  -24.6329  -11.6881   20.8779 C   0  0  0  0  0  0
  -23.9038  -10.4255   21.0430 C   0  0  0  0  0  0
  -24.3599   -9.4169   21.9209 C   0  0  0  0  0  0
  -23.6259   -8.2231   22.0781 C   0  0  0  0  0  0
  -22.4246   -8.0269   21.3570 C   0  0  0  0  0  0
  -21.9839   -9.0242   20.4703 C   0  0  0  0  0  0
  -22.7190  -10.2109   20.3104 C   0  0  0  0  0  0
  -21.6817   -6.0734   22.5292 C   0  0  0  0  0  0
  -21.4001   -6.5637   23.8234 C   0  0  0  0  0  0
  -21.3666   -5.6795   24.9203 C   0  0  0  0  0  0
  -21.6011   -4.3052   24.7233 C   0  0  0  0  0  0
  -21.8811   -3.8160   23.4342 C   0  0  0  0  0  0
  -21.9162   -4.6980   22.3409 C   0  0  0  0  0  0
  -22.7785  -13.5223   21.1852 C   0  0  0  0  0  0
  -22.1636   -4.2185   21.0984 F   0  0  0  0  0  0
  -21.5627   -3.4534   25.7745 F   0  0  0  0  0  0
  -30.0056  -13.4272   20.4327 N   0  0  0  0  0  0
  -26.2925  -12.9354   20.3339 N   0  0  0  0  0  0
  -25.9251  -11.6502   20.5779 N   0  0  0  0  0  0
  -22.0370  -12.8359   22.0480 N   0  0  0  0  0  0
  -25.3984  -15.1839   20.4101 N   0  0  0  0  0  0
  -31.7240  -14.8828   20.1111 O   0  0  0  0  0  0
  -21.6623   -6.8853   21.4252 O   0  0  0  0  0  0
  -22.3496  -14.5512   20.6616 O   0  0  0  0  0  0
  -24.6243  -31.8602   23.2052 C   0  0  0  0  0  0
  -25.9089  -32.4791   23.8366 C   0  0  1  0  0  0
  -27.2109  -27.3205   20.0970 C   0  0  0  0  0  0
  -25.5912  -33.8589   24.2277 N   0  0  0  0  0  0
  -23.4160  -30.4802   21.5490 C   0  0  2  0  0  0
  -24.8590  -28.9357   20.1096 C   0  0  0  0  0  0
  -22.7452  -29.4568   22.4980 C   0  0  0  0  0  0
  -18.0269  -28.1356   22.8496 C   0  0  0  0  0  0
  -24.1468  -36.7248   23.2643 C   0  0  0  0  0  0
  -25.9585  -30.7805   21.3837 C   0  0  0  0  0  0
  -26.0275  -29.4111   20.7207 C   0  0  0  0  0  0
  -27.1994  -28.6056   20.7203 C   0  0  0  0  0  0
  -26.0234  -26.8920   19.4693 C   0  0  0  0  0  0
  -24.8589  -27.6812   19.4804 C   0  0  0  0  0  0
  -23.6287  -29.8176   20.1615 C   0  0  0  0  0  0
  -25.4105  -36.3081   24.0331 C   0  0  1  0  0  0
  -20.5864  -28.3629   23.1318 C   0  0  2  0  0  0
  -20.6746  -26.9361   22.5441 C   0  0  0  0  0  0
  -19.5731  -26.6356   21.5225 C   0  0  0  0  0  0
  -18.1904  -26.7910   22.1622 C   0  0  0  0  0  0
  -19.1535  -28.8816   23.2885 C   0  0  0  0  0  0
  -18.9463  -30.1410   23.8907 C   0  0  0  0  0  0
  -17.6472  -30.6562   24.0558 C   0  0  0  0  0  0
  -25.9037  -34.9452   23.5107 C   0  0  0  0  0  0
  -16.5352  -29.9061   23.6336 C   0  0  0  0  0  0
  -16.7257  -28.6470   23.0369 C   0  0  0  0  0  0
  -26.4494  -31.6624   25.0755 C   0  0  0  0  0  0
  -25.3757  -31.3821   26.1486 C   0  0  0  0  0  0
  -27.0363  -30.3058   24.6237 C   0  0  0  0  0  0
  -27.6067  -32.4410   25.7478 C   0  0  0  0  0  0
  -27.5571  -37.1769   24.8464 C   0  0  0  0  0  0
  -21.4179  -29.2979   22.3701 N   0  0  0  0  0  0
  -26.4281  -37.3787   23.9412 N   0  0  0  0  0  0
  -24.6834  -31.0589   22.1004 N   0  0  0  0  0  0
  -23.4188  -28.8124   23.3046 O   0  0  0  0  0  0
  -28.3277  -26.4862   20.1703 O   0  0  0  0  0  0
  -26.5616  -34.8935   22.4670 O   0  0  0  0  0  0
  -23.5387  -32.1403   23.7345 O   0  0  0  0  0  0
  -30.5975  -18.0811   20.4684 C   0  0  0  0  0  0
  -28.2558  -17.6551   20.4232 C   0  0  0  0  0  0
  -30.3681  -19.4917   20.2513 C   0  0  0  0  0  0
  -29.0334  -19.9986   19.9954 C   0  0  0  0  0  0
  -29.5595  -17.1188   20.5360 C   0  0  0  0  0  0
  -28.0001  -19.0257   20.1585 C   0  0  0  0  0  0
  -31.5779  -20.3725   20.4001 C   0  0  0  0  0  0
  -26.9930  -22.0291   17.8028 C   0  0  0  0  0  0
  -27.3211  -23.5064   18.0031 C   0  0  0  0  0  0
  -28.2492  -21.1970   18.0491 C   0  0  0  0  0  0
  -28.8633  -22.7008   19.9633 C   0  0  0  0  0  0
  -27.8858  -23.8679   19.4113 C   0  0  1  0  0  0
  -28.5125  -25.3459   19.2615 C   0  0  0  0  0  0
  -28.6290  -21.2943   19.4594 N   0  0  0  0  0  0
  -26.6709  -19.4393   20.0655 N   0  0  0  0  0  0
  -31.7114  -21.4138   19.6008 N   0  0  0  0  0  0
  -29.6884  -15.6847   20.8390 N   0  0  0  0  0  0
  -32.4602  -20.0946   21.2135 O   0  0  0  0  0  0
  -31.4917  -12.5638   19.1496 H   0  0  0  0  0  0
  -30.4077  -11.4238   19.8910 H   0  0  0  0  0  0
  -29.7830  -11.7429   17.4886 H   0  0  0  0  0  0
  -29.6487  -13.4644   17.7261 H   0  0  0  0  0  0
  -27.8648  -11.3031   18.8692 H   0  0  0  0  0  0
  -27.3749  -12.5869   17.7875 H   0  0  0  0  0  0
  -27.6685  -14.2581   19.5299 H   0  0  0  0  0  0
  -28.7121  -12.0255   21.3548 H   0  0  0  0  0  0
  -28.4347  -13.6550   21.8618 H   0  0  0  0  0  0
  -25.2733   -9.5652   22.4790 H   0  0  0  0  0  0
  -23.9965   -7.4610   22.7467 H   0  0  0  0  0  0
  -21.0776   -8.8796   19.8999 H   0  0  0  0  0  0
  -22.3665  -10.9678   19.6253 H   0  0  0  0  0  0
  -21.2028   -7.6154   23.9758 H   0  0  0  0  0  0
  -21.1492   -6.0521   25.9103 H   0  0  0  0  0  0
  -22.0576   -2.7610   23.2834 H   0  0  0  0  0  0
  -22.3867  -12.0073   22.5045 H   0  0  0  0  0  0
  -21.0977  -13.1473   22.2549 H   0  0  0  0  0  0
  -24.6051  -15.8065   20.5168 H   0  0  0  0  0  0
  -26.2090  -15.6350   20.0116 H   0  0  0  0  0  0
  -26.7124  -32.5460   23.1071 H   0  0  0  0  0  0
  -25.0091  -33.9751   25.0446 H   0  0  0  0  0  0
  -22.7076  -31.2971   21.4088 H   0  0  0  0  0  0
  -23.3770  -35.9533   23.3321 H   0  0  0  0  0  0
  -24.3549  -36.8875   22.2058 H   0  0  0  0  0  0
  -23.7176  -37.6430   23.6658 H   0  0  0  0  0  0
  -26.1033  -31.5503   20.6244 H   0  0  0  0  0  0
  -26.8304  -30.8157   22.0236 H   0  0  0  0  0  0
  -28.0908  -28.9549   21.2208 H   0  0  0  0  0  0
  -25.9695  -25.9285   18.9913 H   0  0  0  0  0  0
  -23.9619  -27.3078   19.0031 H   0  0  0  0  0  0
  -23.7445  -30.5946   19.4053 H   0  0  0  0  0  0
  -22.7515  -29.2411   19.8646 H   0  0  0  0  0  0
  -25.1290  -36.1934   25.0832 H   0  0  0  0  0  0
  -20.9935  -28.3198   24.1441 H   0  0  0  0  0  0
  -20.5618  -26.2241   23.3622 H   0  0  0  0  0  0
  -21.6622  -26.7380   22.1257 H   0  0  0  0  0  0
  -19.6883  -25.6267   21.1245 H   0  0  0  0  0  0
  -19.6682  -27.3178   20.6763 H   0  0  0  0  0  0
  -17.4185  -26.6670   21.4008 H   0  0  0  0  0  0
  -18.0278  -26.0032   22.9002 H   0  0  0  0  0  0
  -19.7941  -30.7221   24.2292 H   0  0  0  0  0  0
  -17.5028  -31.6263   24.5119 H   0  0  0  0  0  0
  -15.5354  -30.2976   23.7634 H   0  0  0  0  0  0
  -15.8647  -28.0777   22.7111 H   0  0  0  0  0  0
  -24.5833  -30.7258   25.7842 H   0  0  0  0  0  0
  -24.9046  -32.3024   26.4959 H   0  0  0  0  0  0
  -25.8063  -30.8952   27.0238 H   0  0  0  0  0  0
  -26.2947  -29.6787   24.1243 H   0  0  0  0  0  0
  -27.4044  -29.7330   25.4767 H   0  0  0  0  0  0
  -27.8840  -30.4355   23.9500 H   0  0  0  0  0  0
  -27.2652  -33.3702   26.2032 H   0  0  0  0  0  0
  -28.3834  -32.6978   25.0280 H   0  0  0  0  0  0
  -28.0750  -31.8574   26.5402 H   0  0  0  0  0  0
  -28.2609  -38.0048   24.7526 H   0  0  0  0  0  0
  -28.1051  -36.2593   24.6265 H   0  0  0  0  0  0
  -27.2296  -37.1435   25.8871 H   0  0  0  0  0  0
  -20.9318  -29.8731   21.6969 H   0  0  0  0  0  0
  -26.0169  -38.2851   24.1463 H   0  0  0  0  0  0
  -31.6090  -17.7344   20.6210 H   0  0  0  0  0  0
  -27.4134  -16.9922   20.5386 H   0  0  0  0  0  0
  -26.6533  -21.8682   16.7786 H   0  0  0  0  0  0
  -26.1745  -21.7138   18.4530 H   0  0  0  0  0  0
  -26.4328  -24.0997   17.7819 H   0  0  0  0  0  0
  -28.0524  -23.7705   17.2388 H   0  0  0  0  0  0
  -29.0650  -21.5733   17.4271 H   0  0  0  0  0  0
  -28.0720  -20.1633   17.7427 H   0  0  0  0  0  0
  -28.8037  -22.6892   21.0501 H   0  0  0  0  0  0
  -29.8812  -22.9960   19.7299 H   0  0  0  0  0  0
  -27.0218  -23.9207   20.0789 H   0  0  0  0  0  0
  -28.2527  -25.7441   18.2796 H   0  0  0  0  0  0
  -29.5902  -25.2127   19.1924 H   0  0  0  0  0  0
  -26.0556  -18.8478   19.5176 H   0  0  0  0  0  0
  -26.6216  -20.4131   19.7764 H   0  0  0  0  0  0
  -30.9619  -21.6411   18.9632 H   0  0  0  0  0  0
  -32.4986  -22.0345   19.7109 H   0  0  0  0  0  0
  -28.8231  -15.2800   21.1634 H   0  0  0  0  0  0
  1 25  1  0  0  0
  1 30  2  0  0  0
  1 87  1  0  0  0
  2  3  1  0  0  0
  2 25  1  0  0  0
  2 89  1  0  0  0
  2 90  1  0  0  0
  3  4  1  0  0  0
  3 91  1  0  0  0
  3 92  1  0  0  0
  4  5  1  0  0  0
  4 93  1  0  0  0
  4 94  1  0  0  0
  5  6  1  0  0  0
  5 26  1  0  0  0
  5 95  1  0  0  0
  6 25  1  0  0  0
  6 96  1  0  0  0
  6 97  1  0  0  0
  7  8  2  0  0  0
  7 26  1  0  0  0
  7 29  1  0  0  0
  8  9  1  0  0  0
  8 22  1  0  0  0
  9 10  1  0  0  0
  9 27  2  0  0  0
 10 11  2  0  0  0
 10 15  1  0  0  0
 11 12  1  0  0  0
 11 98  1  0  0  0
 12 13  2  0  0  0
 12 99  1  0  0  0
 13 14  1  0  0  0
 13 31  1  0  0  0
 14 15  2  0  0  0
 14100  1  0  0  0
 15101  1  0  0  0
 16 17  2  0  0  0
 16 21  1  0  0  0
 16 31  1  0  0  0
 17 18  1  0  0  0
 17102  1  0  0  0
 18 19  2  0  0  0
 18103  1  0  0  0
 19 20  1  0  0  0
 19 24  1  0  0  0
 20 21  2  0  0  0
 20104  1  0  0  0
 21 23  1  0  0  0
 22 28  1  0  0  0
 22 32  2  0  0  0
 26 27  1  0  0  0
 28105  1  0  0  0
 28106  1  0  0  0
 29107  1  0  0  0
 29108  1  0  0  0
 33 34  1  0  0  0
 33 66  1  0  0  0
 33 70  2  0  0  0
 34 36  1  0  0  0
 34 59  1  0  0  0
 34109  1  0  0  0
 35 44  2  0  0  0
 35 45  1  0  0  0
 35 68  1  0  0  0
 36 56  1  0  0  0
 36110  1  0  0  0
 37 39  1  0  0  0
 37 47  1  0  0  0
 37 66  1  0  0  0
 37111  1  0  0  0
 38 43  2  0  0  0
 38 46  1  0  0  0
 38 47  1  0  0  0
 39 64  1  0  0  0
 39 67  2  0  0  0
 40 52  1  0  0  0
 40 53  2  0  0  0
 40 58  1  0  0  0
 41112  1  0  0  0
 41113  1  0  0  0
 41114  1  0  0  0
 41 48  1  0  0  0
 42 43  1  0  0  0
 42 66  1  0  0  0
 42115  1  0  0  0
 42116  1  0  0  0
 43 44  1  0  0  0
 44117  1  0  0  0
 45 46  2  0  0  0
 45118  1  0  0  0
 46119  1  0  0  0
 47120  1  0  0  0
 47121  1  0  0  0
 48 56  1  0  0  0
 48 65  1  0  0  0
 48122  1  0  0  0
 49 50  1  0  0  0
 49 53  1  0  0  0
 49 64  1  0  0  0
 49123  1  0  0  0
 50 51  1  0  0  0
 50124  1  0  0  0
 50125  1  0  0  0
 51 52  1  0  0  0
 51126  1  0  0  0
 51127  1  0  0  0
 52128  1  0  0  0
 52129  1  0  0  0
 53 54  1  0  0  0
 54 55  2  0  0  0
 54130  1  0  0  0
 55 57  1  0  0  0
 55131  1  0  0  0
 56 69  2  0  0  0
 57 58  2  0  0  0
 57132  1  0  0  0
 58133  1  0  0  0
 59 60  1  0  0  0
 59 61  1  0  0  0
 59 62  1  0  0  0
 60134  1  0  0  0
 60135  1  0  0  0
 60136  1  0  0  0
 61137  1  0  0  0
 61138  1  0  0  0
 61139  1  0  0  0
 62140  1  0  0  0
 62141  1  0  0  0
 62142  1  0  0  0
 63 65  1  0  0  0
 63143  1  0  0  0
 63144  1  0  0  0
 63145  1  0  0  0
 64146  1  0  0  0
 65147  1  0  0  0
 68 83  1  0  0  0
 71 73  2  0  0  0
 71 75  1  0  0  0
 71148  1  0  0  0
 72 75  2  0  0  0
 72 76  1  0  0  0
 72149  1  0  0  0
 73 74  1  0  0  0
 73 77  1  0  0  0
 74 76  2  0  0  0
 74 84  1  0  0  0
 75 87  1  0  0  0
 76 85  1  0  0  0
 77 86  1  0  0  0
 77 88  2  0  0  0
 78 79  1  0  0  0
 78 80  1  0  0  0
 78150  1  0  0  0
 78151  1  0  0  0
 79 82  1  0  0  0
 79152  1  0  0  0
 79153  1  0  0  0
 80 84  1  0  0  0
 80154  1  0  0  0
 80155  1  0  0  0
 81 82  1  0  0  0
 81 84  1  0  0  0
 81156  1  0  0  0
 81157  1  0  0  0
 82 83  1  0  0  0
 82158  1  0  0  0
 83159  1  0  0  0
 83160  1  0  0  0
 85161  1  0  0  0
 85162  1  0  0  0
 86163  1  0  0  0
 86164  1  0  0  0
 87165  1  0  0  0
M  ISO  4   1 100  68 101  83 101  87 100
M  END
> <chiral flag>
0

> <version>
0

> <s_m_source_file>
/data/baiqing/PycharmProjects/Reinvent-master-3.2/result/LINK_invent/BTK/process_docking_weight1_custom_product_contain_oxygen_bond_distance_aromatic_linkinvent_7_9_3/rearranged_h_0106.sdf

> <i_m_source_file_index>
21

> <r_mmod_Potential_Energy-OPLS-2005>
109.70516204834

> <r_mmod_Stretch_Energy-OPLS-2005>
99.1931228637695

> <r_mmod_Bend_Energy-OPLS-2005>
212.046447753906

> <r_mmod_Torsional_Energy-OPLS-2005>
320.230316162109

> <r_mmod_Improper_Torsional_Energy-OPLS-2005>
12.622917175293

> <r_mmod_Van_der_Waal_Energy-OPLS-2005>
158.916030883789

> <r_mmod_Electrostatic_Energy-OPLS-2005>
-501.327484130859

> <r_mmod_Solvation_Energy-OPLS-2005>
-250.450622558594

> <b_mmod_Minimization_Converged-OPLS-2005>
0

> <r_mmod_RMS_Derivative-OPLS-2005>
6.7643895149231

$$$$
21
                    3D
 Structure written by MMmdl.
160168  0  0  1  0            999 V2000
  -30.7105  -14.4272   20.5833 C   0  0  0  0  0  0
  -30.4145  -12.2825   19.4062 C   0  0  0  0  0  0
  -29.4870  -12.5180   18.1965 C   0  0  0  0  0  0
  -28.0063  -12.3898   18.6060 C   0  0  0  0  0  0
  -27.6660  -13.2055   19.8814 C   0  0  2  0  0  0
  -28.7079  -12.9424   20.9905 C   0  0  0  0  0  0
  -25.2615  -13.8155   20.5706 C   0  0  0  0  0  0
  -24.1856  -13.0443   20.9165 C   0  0  0  0  0  0
  -24.6396  -11.6902   20.8715 C   0  0  0  0  0  0
  -23.9055  -10.4296   21.0395 C   0  0  0  0  0  0
  -24.3616   -9.4218   21.9179 C   0  0  0  0  0  0
  -23.6300   -8.2247   22.0749 C   0  0  0  0  0  0
  -22.4283   -8.0293   21.3537 C   0  0  0  0  0  0
  -21.9906   -9.0258   20.4645 C   0  0  0  0  0  0
  -22.7222  -10.2140   20.3056 C   0  0  0  0  0  0
  -21.6850   -6.0746   22.5277 C   0  0  0  0  0  0
  -21.4016   -6.5642   23.8218 C   0  0  0  0  0  0
  -21.3658   -5.6795   24.9173 C   0  0  0  0  0  0
  -21.6045   -4.3055   24.7224 C   0  0  0  0  0  0
  -21.8819   -3.8154   23.4336 C   0  0  0  0  0  0
  -21.9196   -4.6970   22.3401 C   0  0  0  0  0  0
  -22.7872  -13.5244   21.1837 C   0  0  0  0  0  0
  -22.1670   -4.2158   21.0977 F   0  0  0  0  0  0
  -21.5625   -3.4544   25.7734 F   0  0  0  0  0  0
  -30.0378  -13.2529   20.4450 N   0  0  0  0  0  0
  -26.3058  -12.9326   20.3406 N   0  0  0  0  0  0
  -25.9332  -11.6476   20.5762 N   0  0  0  0  0  0
  -22.0502  -12.8251   22.0390 N   0  0  0  0  0  0
  -25.4358  -15.1876   20.4142 N   0  0  0  0  0  0
  -31.8304  -14.6017   20.0939 O   0  0  0  0  0  0
  -21.6639   -6.8889   21.4243 O   0  0  0  0  0  0
  -22.3568  -14.5555   20.6686 O   0  0  0  0  0  0
  -24.6099  -31.8713   23.2115 C   0  0  0  0  0  0
  -25.8989  -32.4848   23.8424 C   0  0  1  0  0  0
  -27.2485  -27.4706   20.1127 C   0  0  0  0  0  0
  -25.5880  -33.8651   24.2356 N   0  0  0  0  0  0
  -23.3967  -30.4896   21.5508 C   0  0  2  0  0  0
  -24.8498  -28.9584   20.1170 C   0  0  0  0  0  0
  -22.7371  -29.4663   22.5008 C   0  0  0  0  0  0
  -18.0262  -28.1368   22.8495 C   0  0  0  0  0  0
  -24.1482  -36.7325   23.2638 C   0  0  0  0  0  0
  -25.9178  -30.8478   21.3601 C   0  0  0  0  0  0
  -26.0009  -29.4818   20.7179 C   0  0  0  0  0  0
  -27.2014  -28.7432   20.7236 C   0  0  0  0  0  0
  -26.0898  -26.9612   19.4918 C   0  0  0  0  0  0
  -24.8861  -27.6933   19.5043 C   0  0  0  0  0  0
  -23.6058  -29.8172   20.1655 C   0  0  0  0  0  0
  -25.4103  -36.3127   24.0343 C   0  0  1  0  0  0
  -20.5847  -28.3645   23.1347 C   0  0  2  0  0  0
  -20.6746  -26.9387   22.5426 C   0  0  0  0  0  0
  -19.5734  -26.6379   21.5213 C   0  0  0  0  0  0
  -18.1910  -26.7922   22.1626 C   0  0  0  0  0  0
  -19.1509  -28.8821   23.2921 C   0  0  0  0  0  0
  -18.9447  -30.1436   23.8916 C   0  0  0  0  0  0
  -17.6450  -30.6577   24.0563 C   0  0  0  0  0  0
  -25.9024  -34.9491   23.5137 C   0  0  0  0  0  0
  -16.5337  -29.9078   23.6337 C   0  0  0  0  0  0
  -16.7257  -28.6496   23.0358 C   0  0  0  0  0  0
  -26.4455  -31.6607   25.0713 C   0  0  0  0  0  0
  -25.3758  -31.3695   26.1476 C   0  0  0  0  0  0
  -27.0281  -30.3060   24.6051 C   0  0  0  0  0  0
  -27.6042  -32.4310   25.7476 C   0  0  0  0  0  0
  -27.5580  -37.1822   24.8467 C   0  0  0  0  0  0
  -21.4104  -29.3023   22.3753 N   0  0  0  0  0  0
  -26.4293  -37.3802   23.9406 N   0  0  0  0  0  0
  -24.6586  -31.0837   22.1007 N   0  0  0  0  0  0
  -23.4143  -28.8241   23.3072 O   0  0  0  0  0  0
  -28.3848  -26.6958   20.0805 O   0  0  0  0  0  0
  -26.5579  -34.8930   22.4689 O   0  0  0  0  0  0
  -23.5299  -32.1462   23.7518 O   0  0  0  0  0  0
  -29.7438  -20.9257   21.6952 C   0  0  0  0  0  0
  -29.8338  -22.1308   22.4187 C   0  0  0  0  0  0
  -32.1577  -22.3460   21.7457 C   0  0  0  0  0  0
  -30.8479  -20.4179   20.9705 C   0  0  0  0  0  0
  -31.0402  -22.8600   22.4338 C   0  0  0  0  0  0
  -32.0733  -21.1485   21.0005 C   0  0  0  0  0  0
  -30.5708  -25.1133   22.7325 C   0  0  0  0  0  0
  -30.6661  -19.1504   20.1679 C   0  0  0  0  0  0
  -29.7282  -25.2566   21.4700 C   0  0  0  0  0  0
  -30.0553  -15.6563   21.2440 C   0  0  0  0  0  0
  -29.8159  -16.8023   20.2284 C   0  0  0  0  0  0
  -29.1931  -26.6859   21.2588 C   0  0  0  0  0  0
  -31.1570  -24.0556   23.1477 N   0  0  0  0  0  0
  -33.2327  -20.7259   20.3392 N   0  0  0  0  0  0
  -30.0713  -18.1298   20.8040 N   0  0  0  0  0  0
  -31.0704  -19.0685   19.0058 O   0  0  0  0  0  0
  -31.4605  -12.3647   19.1061 H   0  0  0  0  0  0
  -30.2977  -11.2653   19.7836 H   0  0  0  0  0  0
  -29.7146  -11.8109   17.3977 H   0  0  0  0  0  0
  -29.6641  -13.5128   17.7873 H   0  0  0  0  0  0
  -27.7959  -11.3319   18.7682 H   0  0  0  0  0  0
  -27.3611  -12.7025   17.7824 H   0  0  0  0  0  0
  -27.7264  -14.2610   19.6145 H   0  0  0  0  0  0
  -28.6822  -11.8916   21.2856 H   0  0  0  0  0  0
  -28.4700  -13.4824   21.9045 H   0  0  0  0  0  0
  -25.2762   -9.5693   22.4750 H   0  0  0  0  0  0
  -24.0015   -7.4637   22.7462 H   0  0  0  0  0  0
  -21.0837   -8.8754   19.8965 H   0  0  0  0  0  0
  -22.3662  -10.9671   19.6173 H   0  0  0  0  0  0
  -21.2005   -7.6155   23.9713 H   0  0  0  0  0  0
  -21.1484   -6.0529   25.9073 H   0  0  0  0  0  0
  -22.0597   -2.7619   23.2824 H   0  0  0  0  0  0
  -22.4144  -11.9928   22.4780 H   0  0  0  0  0  0
  -21.1122  -13.1276   22.2620 H   0  0  0  0  0  0
  -24.6656  -15.8390   20.5191 H   0  0  0  0  0  0
  -26.2946  -15.6258   20.1052 H   0  0  0  0  0  0
  -26.7067  -32.5580   23.1215 H   0  0  0  0  0  0
  -25.0060  -33.9840   25.0521 H   0  0  0  0  0  0
  -22.6844  -31.3049   21.4090 H   0  0  0  0  0  0
  -23.3732  -35.9670   23.3321 H   0  0  0  0  0  0
  -24.3583  -36.8909   22.2049 H   0  0  0  0  0  0
  -23.7251  -37.6546   23.6633 H   0  0  0  0  0  0
  -26.0163  -31.6105   20.5870 H   0  0  0  0  0  0
  -26.8105  -30.9138   21.9692 H   0  0  0  0  0  0
  -28.0819  -29.1575   21.1945 H   0  0  0  0  0  0
  -26.1135  -25.9912   19.0164 H   0  0  0  0  0  0
  -24.0011  -27.2831   19.0393 H   0  0  0  0  0  0
  -23.7023  -30.5893   19.4005 H   0  0  0  0  0  0
  -22.7353  -29.2280   19.8745 H   0  0  0  0  0  0
  -25.1282  -36.2004   25.0842 H   0  0  0  0  0  0
  -20.9958  -28.3200   24.1456 H   0  0  0  0  0  0
  -20.5653  -26.2250   23.3599 H   0  0  0  0  0  0
  -21.6629  -26.7433   22.1226 H   0  0  0  0  0  0
  -19.6896  -25.6297   21.1224 H   0  0  0  0  0  0
  -19.6679  -27.3202   20.6752 H   0  0  0  0  0  0
  -17.4190  -26.6678   21.4017 H   0  0  0  0  0  0
  -18.0311  -26.0046   22.9005 H   0  0  0  0  0  0
  -19.7923  -30.7246   24.2282 H   0  0  0  0  0  0
  -17.5008  -31.6265   24.5159 H   0  0  0  0  0  0
  -15.5349  -30.2991   23.7640 H   0  0  0  0  0  0
  -15.8655  -28.0818   22.7074 H   0  0  0  0  0  0
  -24.5927  -30.7045   25.7822 H   0  0  0  0  0  0
  -24.8950  -32.2841   26.4956 H   0  0  0  0  0  0
  -25.8134  -30.8851   27.0213 H   0  0  0  0  0  0
  -26.2812  -29.6837   24.1110 H   0  0  0  0  0  0
  -27.4074  -29.7274   25.4486 H   0  0  0  0  0  0
  -27.8635  -30.4382   23.9170 H   0  0  0  0  0  0
  -27.2675  -33.3591   26.2107 H   0  0  0  0  0  0
  -28.3840  -32.6904   25.0303 H   0  0  0  0  0  0
  -28.0732  -31.8403   26.5358 H   0  0  0  0  0  0
  -28.2620  -38.0099   24.7496 H   0  0  0  0  0  0
  -28.1054  -36.2633   24.6312 H   0  0  0  0  0  0
  -27.2299  -37.1497   25.8872 H   0  0  0  0  0  0
  -20.9244  -29.8728   21.6978 H   0  0  0  0  0  0
  -26.0186  -38.2882   24.1395 H   0  0  0  0  0  0
  -28.8024  -20.3954   21.6786 H   0  0  0  0  0  0
  -28.9679  -22.4975   22.9536 H   0  0  0  0  0  0
  -33.0927  -22.8866   21.7913 H   0  0  0  0  0  0
  -30.6577  -26.0370   23.3119 H   0  0  0  0  0  0
  -28.8823  -24.5695   21.5283 H   0  0  0  0  0  0
  -30.3243  -24.9496   20.6104 H   0  0  0  0  0  0
  -30.7547  -15.9841   22.0141 H   0  0  0  0  0  0
  -29.1277  -15.4456   21.7680 H   0  0  0  0  0  0
  -28.7827  -16.7642   19.8840 H   0  0  0  0  0  0
  -30.4133  -16.6576   19.3257 H   0  0  0  0  0  0
  -30.0076  -27.4038   21.1473 H   0  0  0  0  0  0
  -28.6200  -26.9850   22.1389 H   0  0  0  0  0  0
  -33.9691  -21.4062   20.1723 H   0  0  0  0  0  0
  -33.1194  -20.0678   19.5710 H   0  0  0  0  0  0
  -29.7818  -18.3046   21.7566 H   0  0  0  0  0  0
  1 25  1  0  0  0
  1 30  2  0  0  0
  1 80  1  0  0  0
  2  3  1  0  0  0
  2 25  1  0  0  0
  2 87  1  0  0  0
  2 88  1  0  0  0
  3  4  1  0  0  0
  3 89  1  0  0  0
  3 90  1  0  0  0
  4  5  1  0  0  0
  4 91  1  0  0  0
  4 92  1  0  0  0
  5  6  1  0  0  0
  5 26  1  0  0  0
  5 93  1  0  0  0
  6 25  1  0  0  0
  6 94  1  0  0  0
  6 95  1  0  0  0
  7  8  2  0  0  0
  7 26  1  0  0  0
  7 29  1  0  0  0
  8  9  1  0  0  0
  8 22  1  0  0  0
  9 10  1  0  0  0
  9 27  2  0  0  0
 10 11  2  0  0  0
 10 15  1  0  0  0
 11 12  1  0  0  0
 11 96  1  0  0  0
 12 13  2  0  0  0
 12 97  1  0  0  0
 13 14  1  0  0  0
 13 31  1  0  0  0
 14 15  2  0  0  0
 14 98  1  0  0  0
 15 99  1  0  0  0
 16 17  2  0  0  0
 16 21  1  0  0  0
 16 31  1  0  0  0
 17 18  1  0  0  0
 17100  1  0  0  0
 18 19  2  0  0  0
 18101  1  0  0  0
 19 20  1  0  0  0
 19 24  1  0  0  0
 20 21  2  0  0  0
 20102  1  0  0  0
 21 23  1  0  0  0
 22 28  1  0  0  0
 22 32  2  0  0  0
 26 27  1  0  0  0
 28103  1  0  0  0
 28104  1  0  0  0
 29105  1  0  0  0
 29106  1  0  0  0
 33 34  1  0  0  0
 33 66  1  0  0  0
 33 70  2  0  0  0
 34 36  1  0  0  0
 34 59  1  0  0  0
 34107  1  0  0  0
 35 44  2  0  0  0
 35 45  1  0  0  0
 35 68  1  0  0  0
 36 56  1  0  0  0
 36108  1  0  0  0
 37 39  1  0  0  0
 37 47  1  0  0  0
 37 66  1  0  0  0
 37109  1  0  0  0
 38 43  2  0  0  0
 38 46  1  0  0  0
 38 47  1  0  0  0
 39 64  1  0  0  0
 39 67  2  0  0  0
 40 52  1  0  0  0
 40 53  2  0  0  0
 40 58  1  0  0  0
 41110  1  0  0  0
 41111  1  0  0  0
 41112  1  0  0  0
 41 48  1  0  0  0
 42 43  1  0  0  0
 42 66  1  0  0  0
 42113  1  0  0  0
 42114  1  0  0  0
 43 44  1  0  0  0
 44115  1  0  0  0
 45 46  2  0  0  0
 45116  1  0  0  0
 46117  1  0  0  0
 47118  1  0  0  0
 47119  1  0  0  0
 48 56  1  0  0  0
 48 65  1  0  0  0
 48120  1  0  0  0
 49 50  1  0  0  0
 49 53  1  0  0  0
 49 64  1  0  0  0
 49121  1  0  0  0
 50 51  1  0  0  0
 50122  1  0  0  0
 50123  1  0  0  0
 51 52  1  0  0  0
 51124  1  0  0  0
 51125  1  0  0  0
 52126  1  0  0  0
 52127  1  0  0  0
 53 54  1  0  0  0
 54 55  2  0  0  0
 54128  1  0  0  0
 55 57  1  0  0  0
 55129  1  0  0  0
 56 69  2  0  0  0
 57 58  2  0  0  0
 57130  1  0  0  0
 58131  1  0  0  0
 59 60  1  0  0  0
 59 61  1  0  0  0
 59 62  1  0  0  0
 60132  1  0  0  0
 60133  1  0  0  0
 60134  1  0  0  0
 61135  1  0  0  0
 61136  1  0  0  0
 61137  1  0  0  0
 62138  1  0  0  0
 62139  1  0  0  0
 62140  1  0  0  0
 63 65  1  0  0  0
 63141  1  0  0  0
 63142  1  0  0  0
 63143  1  0  0  0
 64144  1  0  0  0
 65145  1  0  0  0
 68 82  1  0  0  0
 71 72  2  0  0  0
 71 74  1  0  0  0
 71146  1  0  0  0
 72 75  1  0  0  0
 72147  1  0  0  0
 73 75  2  0  0  0
 73 76  1  0  0  0
 73148  1  0  0  0
 74 76  2  0  0  0
 74 78  1  0  0  0
 75 83  1  0  0  0
 76 84  1  0  0  0
 77 79  1  0  0  0
 77 83  2  0  0  0
 77149  1  0  0  0
 78 85  1  0  0  0
 78 86  2  0  0  0
 79 82  1  0  0  0
 79150  1  0  0  0
 79151  1  0  0  0
 80 81  1  0  0  0
 80152  1  0  0  0
 80153  1  0  0  0
 81 85  1  0  0  0
 81154  1  0  0  0
 81155  1  0  0  0
 82156  1  0  0  0
 82157  1  0  0  0
 84158  1  0  0  0
 84159  1  0  0  0
 85160  1  0  0  0
M  ISO  4   1 100  68 101  80 100  82 101
M  END
> <chiral flag>
0

> <version>
0

> <s_m_source_file>
/data/baiqing/PycharmProjects/Reinvent-master-3.2/result/LINK_invent/BTK/process_docking_weight1_custom_product_contain_oxygen_bond_distance_aromatic_linkinvent_7_9_3/rearranged_h_0106.sdf

> <i_m_source_file_index>
22

> <r_mmod_Potential_Energy-OPLS-2005>
16.9895935058594

> <r_mmod_Stretch_Energy-OPLS-2005>
35.6261825561523

> <r_mmod_Bend_Energy-OPLS-2005>
102.016670227051

> <r_mmod_Torsional_Energy-OPLS-2005>
217.073547363281

> <r_mmod_Improper_Torsional_Energy-OPLS-2005>
6.20158529281616

> <r_mmod_Van_der_Waal_Energy-OPLS-2005>
162.304351806641

> <r_mmod_Electrostatic_Energy-OPLS-2005>
-268.530670166016

> <r_mmod_Solvation_Energy-OPLS-2005>
-246.403930664062

> <b_mmod_Minimization_Converged-OPLS-2005>
0

> <r_mmod_RMS_Derivative-OPLS-2005>
3.39549207687378

$$$$
22
                    3D
 Structure written by MMmdl.
149157  0  0  1  0            999 V2000
  -30.3466  -15.4322   20.3574 C   0  0  0  0  0  0
  -30.4432  -12.9268   19.5320 C   0  0  0  0  0  0
  -29.5471  -12.6123   18.3025 C   0  0  0  0  0  0
  -28.1009  -12.3084   18.7300 C   0  0  0  0  0  0
  -27.6062  -13.2890   19.8199 C   0  0  2  0  0  0
  -28.6353  -13.5121   20.9502 C   0  0  0  0  0  0
  -25.2346  -13.8212   20.5750 C   0  0  0  0  0  0
  -24.1753  -13.0408   20.9355 C   0  0  0  0  0  0
  -24.6423  -11.6911   20.8805 C   0  0  0  0  0  0
  -23.9118  -10.4280   21.0430 C   0  0  0  0  0  0
  -24.3645   -9.4186   21.9204 C   0  0  0  0  0  0
  -23.6300   -8.2232   22.0760 C   0  0  0  0  0  0
  -22.4282   -8.0281   21.3544 C   0  0  0  0  0  0
  -21.9936   -9.0267   20.4650 C   0  0  0  0  0  0
  -22.7289  -10.2135   20.3075 C   0  0  0  0  0  0
  -21.6851   -6.0745   22.5279 C   0  0  0  0  0  0
  -21.4019   -6.5645   23.8216 C   0  0  0  0  0  0
  -21.3659   -5.6789   24.9172 C   0  0  0  0  0  0
  -21.6039   -4.3054   24.7220 C   0  0  0  0  0  0
  -21.8813   -3.8157   23.4337 C   0  0  0  0  0  0
  -21.9187   -4.6977   22.3399 C   0  0  0  0  0  0
  -22.7764  -13.5156   21.1941 C   0  0  0  0  0  0
  -22.1644   -4.2163   21.0974 F   0  0  0  0  0  0
  -21.5628   -3.4532   25.7729 F   0  0  0  0  0  0
  -29.8428  -14.0804   20.3173 N   0  0  0  0  0  0
  -26.2790  -12.9535   20.3185 N   0  0  0  0  0  0
  -25.9349  -11.6627   20.5688 N   0  0  0  0  0  0
  -22.0380  -12.8184   22.0488 N   0  0  0  0  0  0
  -25.3856  -15.1923   20.4004 N   0  0  0  0  0  0
  -31.5774  -15.4436   20.1726 O   0  0  0  0  0  0
  -21.6634   -6.8891   21.4240 O   0  0  0  0  0  0
  -22.3492  -14.5443   20.6701 O   0  0  0  0  0  0
  -24.6716  -31.8135   23.1613 C   0  0  0  0  0  0
  -25.9358  -32.4533   23.8120 C   0  0  1  0  0  0
  -27.2290  -26.8277   20.2061 C   0  0  0  0  0  0
  -25.5987  -33.8354   24.2012 N   0  0  0  0  0  0
  -23.4927  -30.4186   21.5117 C   0  0  2  0  0  0
  -24.9503  -28.7821   20.1173 C   0  0  0  0  0  0
  -22.7727  -29.4384   22.4757 C   0  0  0  0  0  0
  -18.0334  -28.1418   22.8462 C   0  0  0  0  0  0
  -24.1495  -36.7179   23.2650 C   0  0  0  0  0  0
  -26.0659  -30.5878   21.4075 C   0  0  0  0  0  0
  -26.1353  -29.1652   20.7566 C   0  0  0  0  0  0
  -27.2652  -28.2122   20.7715 C   0  0  0  0  0  0
  -26.0108  -26.6210   19.5143 C   0  0  0  0  0  0
  -24.9182  -27.5332   19.4743 C   0  0  0  0  0  0
  -23.7409  -29.7225   20.1429 C   0  0  0  0  0  0
  -25.4142  -36.2936   24.0290 C   0  0  1  0  0  0
  -20.5970  -28.3777   23.1163 C   0  0  2  0  0  0
  -20.6813  -26.9447   22.5380 C   0  0  0  0  0  0
  -19.5772  -26.6376   21.5215 C   0  0  0  0  0  0
  -18.1954  -26.7948   22.1617 C   0  0  0  0  0  0
  -19.1600  -28.8926   23.2783 C   0  0  0  0  0  0
  -18.9513  -30.1513   23.8825 C   0  0  0  0  0  0
  -17.6508  -30.6614   24.0545 C   0  0  0  0  0  0
  -25.9113  -34.9322   23.4977 C   0  0  0  0  0  0
  -16.5393  -29.9101   23.6352 C   0  0  0  0  0  0
  -16.7315  -28.6519   23.0370 C   0  0  0  0  0  0
  -26.4577  -31.6516   25.0684 C   0  0  0  0  0  0
  -25.3671  -31.3789   26.1315 C   0  0  0  0  0  0
  -27.0492  -30.2872   24.6486 C   0  0  0  0  0  0
  -27.6054  -32.4349   25.7491 C   0  0  0  0  0  0
  -27.5566  -37.1748   24.8467 C   0  0  0  0  0  0
  -21.4388  -29.3058   22.3526 N   0  0  0  0  0  0
  -26.4278  -37.3686   23.9408 N   0  0  0  0  0  0
  -24.7652  -30.9695   22.0805 N   0  0  0  0  0  0
  -23.4233  -28.7968   23.3044 O   0  0  0  0  0  0
  -28.2188  -25.6761   20.2917 O   0  0  0  0  0  0
  -26.5737  -34.8881   22.4584 O   0  0  0  0  0  0
  -23.5757  -32.1161   23.6635 O   0  0  0  0  0  0
  -27.9066  -18.7515   19.9298 C   0  0  0  0  0  0
  -27.7603  -20.1590   19.8707 C   0  0  0  0  0  0
  -29.2422  -18.3247   20.3040 C   0  0  0  0  0  0
  -29.0536  -22.5300   20.4115 C   0  0  0  0  0  0
  -26.5362  -20.9181   19.4578 C   0  0  0  0  0  0
  -27.9725  -23.9989   20.1419 C   0  0  0  0  0  0
  -29.8286  -19.6530   20.5166 N   0  0  0  0  0  0
  -30.1938  -22.9059   20.8154 N   0  0  0  0  0  0
  -28.9148  -20.8415   20.2745 N   0  0  0  0  0  0
  -26.8432  -17.8636   19.6642 N   0  0  0  0  0  0
  -29.4772  -16.6719   20.4109 N   0  0  0  0  0  0
  -31.4486  -13.1713   19.1863 H   0  0  0  0  0  0
  -30.5623  -12.0424   20.1600 H   0  0  0  0  0  0
  -29.9544  -11.7761   17.7316 H   0  0  0  0  0  0
  -29.5508  -13.4727   17.6320 H   0  0  0  0  0  0
  -28.0769  -11.2885   19.1150 H   0  0  0  0  0  0
  -27.4334  -12.3280   17.8679 H   0  0  0  0  0  0
  -27.5025  -14.2465   19.3076 H   0  0  0  0  0  0
  -28.8426  -12.5871   21.4908 H   0  0  0  0  0  0
  -28.2447  -14.2157   21.6866 H   0  0  0  0  0  0
  -25.2786   -9.5651   22.4790 H   0  0  0  0  0  0
  -24.0002   -7.4625   22.7479 H   0  0  0  0  0  0
  -21.0866   -8.8812   19.8948 H   0  0  0  0  0  0
  -22.3767  -10.9688   19.6195 H   0  0  0  0  0  0
  -21.2012   -7.6152   23.9733 H   0  0  0  0  0  0
  -21.1484   -6.0508   25.9077 H   0  0  0  0  0  0
  -22.0593   -2.7622   23.2823 H   0  0  0  0  0  0
  -22.3968  -11.9867   22.4944 H   0  0  0  0  0  0
  -21.0979  -13.1206   22.2625 H   0  0  0  0  0  0
  -24.5143  -15.7120   20.4027 H   0  0  0  0  0  0
  -25.9859  -15.4870   19.6401 H   0  0  0  0  0  0
  -26.7439  -32.5045   23.0836 H   0  0  0  0  0  0
  -25.0062  -33.9412   25.0117 H   0  0  0  0  0  0
  -22.8108  -31.2517   21.3289 H   0  0  0  0  0  0
  -23.3773  -35.9491   23.3275 H   0  0  0  0  0  0
  -24.3568  -36.8870   22.2072 H   0  0  0  0  0  0
  -23.7234  -37.6343   23.6743 H   0  0  0  0  0  0
  -26.2550  -31.3224   20.6238 H   0  0  0  0  0  0
  -26.9225  -30.6535   22.0661 H   0  0  0  0  0  0
  -28.1595  -28.5078   21.3017 H   0  0  0  0  0  0
  -25.8659  -25.6693   19.0239 H   0  0  0  0  0  0
  -24.0180  -27.2321   18.9561 H   0  0  0  0  0  0
  -23.9106  -30.4840   19.3805 H   0  0  0  0  0  0
  -22.8490  -29.1821   19.8212 H   0  0  0  0  0  0
  -25.1348  -36.1717   25.0778 H   0  0  0  0  0  0
  -21.0027  -28.3382   24.1302 H   0  0  0  0  0  0
  -20.5671  -26.2417   23.3638 H   0  0  0  0  0  0
  -21.6686  -26.7392   22.1217 H   0  0  0  0  0  0
  -19.6920  -25.6269   21.1284 H   0  0  0  0  0  0
  -19.6702  -27.3158   20.6722 H   0  0  0  0  0  0
  -17.4239  -26.6729   21.3995 H   0  0  0  0  0  0
  -18.0305  -26.0092   22.9007 H   0  0  0  0  0  0
  -19.7990  -30.7345   24.2150 H   0  0  0  0  0  0
  -17.5061  -31.6291   24.5152 H   0  0  0  0  0  0
  -15.5391  -30.2989   23.7721 H   0  0  0  0  0  0
  -15.8702  -28.0828   22.7136 H   0  0  0  0  0  0
  -24.5879  -30.7119   25.7605 H   0  0  0  0  0  0
  -24.8829  -32.2994   26.4583 H   0  0  0  0  0  0
  -25.7865  -30.9046   27.0194 H   0  0  0  0  0  0
  -26.3182  -29.6520   24.1467 H   0  0  0  0  0  0
  -27.3967  -29.7273   25.5177 H   0  0  0  0  0  0
  -27.9147  -30.4032   23.9962 H   0  0  0  0  0  0
  -27.2621  -33.3715   26.1897 H   0  0  0  0  0  0
  -28.3950  -32.6802   25.0377 H   0  0  0  0  0  0
  -28.0635  -31.8588   26.5537 H   0  0  0  0  0  0
  -28.2563  -38.0066   24.7525 H   0  0  0  0  0  0
  -28.1085  -36.2588   24.6289 H   0  0  0  0  0  0
  -27.2282  -37.1391   25.8870 H   0  0  0  0  0  0
  -20.9664  -29.8788   21.6677 H   0  0  0  0  0  0
  -26.0109  -38.2733   24.1427 H   0  0  0  0  0  0
  -25.7609  -20.2531   19.0816 H   0  0  0  0  0  0
  -26.7670  -21.6151   18.6523 H   0  0  0  0  0  0
  -26.1149  -21.4760   20.2940 H   0  0  0  0  0  0
  -27.0997  -23.8148   20.7689 H   0  0  0  0  0  0
  -27.5923  -23.8826   19.1273 H   0  0  0  0  0  0
  -30.2256  -23.9167   20.8920 H   0  0  0  0  0  0
  -26.7051  -17.0846   20.3015 H   0  0  0  0  0  0
  -25.9416  -18.2706   19.4407 H   0  0  0  0  0  0
  -28.5468  -16.2857   20.4279 H   0  0  0  0  0  0
  1 25  1  0  0  0
  1 30  2  0  0  0
  1 81  1  0  0  0
  2  3  1  0  0  0
  2 25  1  0  0  0
  2 82  1  0  0  0
  2 83  1  0  0  0
  3  4  1  0  0  0
  3 84  1  0  0  0
  3 85  1  0  0  0
  4  5  1  0  0  0
  4 86  1  0  0  0
  4 87  1  0  0  0
  5  6  1  0  0  0
  5 26  1  0  0  0
  5 88  1  0  0  0
  6 25  1  0  0  0
  6 89  1  0  0  0
  6 90  1  0  0  0
  7  8  2  0  0  0
  7 26  1  0  0  0
  7 29  1  0  0  0
  8  9  1  0  0  0
  8 22  1  0  0  0
  9 10  1  0  0  0
  9 27  2  0  0  0
 10 11  2  0  0  0
 10 15  1  0  0  0
 11 12  1  0  0  0
 11 91  1  0  0  0
 12 13  2  0  0  0
 12 92  1  0  0  0
 13 14  1  0  0  0
 13 31  1  0  0  0
 14 15  2  0  0  0
 14 93  1  0  0  0
 15 94  1  0  0  0
 16 17  2  0  0  0
 16 21  1  0  0  0
 16 31  1  0  0  0
 17 18  1  0  0  0
 17 95  1  0  0  0
 18 19  2  0  0  0
 18 96  1  0  0  0
 19 20  1  0  0  0
 19 24  1  0  0  0
 20 21  2  0  0  0
 20 97  1  0  0  0
 21 23  1  0  0  0
 22 28  1  0  0  0
 22 32  2  0  0  0
 26 27  1  0  0  0
 28 98  1  0  0  0
 28 99  1  0  0  0
 29100  1  0  0  0
 29101  1  0  0  0
 33 34  1  0  0  0
 33 66  1  0  0  0
 33 70  2  0  0  0
 34 36  1  0  0  0
 34 59  1  0  0  0
 34102  1  0  0  0
 35 44  2  0  0  0
 35 45  1  0  0  0
 35 68  1  0  0  0
 36 56  1  0  0  0
 36103  1  0  0  0
 37 39  1  0  0  0
 37 47  1  0  0  0
 37 66  1  0  0  0
 37104  1  0  0  0
 38 43  2  0  0  0
 38 46  1  0  0  0
 38 47  1  0  0  0
 39 64  1  0  0  0
 39 67  2  0  0  0
 40 52  1  0  0  0
 40 53  2  0  0  0
 40 58  1  0  0  0
 41105  1  0  0  0
 41106  1  0  0  0
 41107  1  0  0  0
 41 48  1  0  0  0
 42 43  1  0  0  0
 42 66  1  0  0  0
 42108  1  0  0  0
 42109  1  0  0  0
 43 44  1  0  0  0
 44110  1  0  0  0
 45 46  2  0  0  0
 45111  1  0  0  0
 46112  1  0  0  0
 47113  1  0  0  0
 47114  1  0  0  0
 48 56  1  0  0  0
 48 65  1  0  0  0
 48115  1  0  0  0
 49 50  1  0  0  0
 49 53  1  0  0  0
 49 64  1  0  0  0
 49116  1  0  0  0
 50 51  1  0  0  0
 50117  1  0  0  0
 50118  1  0  0  0
 51 52  1  0  0  0
 51119  1  0  0  0
 51120  1  0  0  0
 52121  1  0  0  0
 52122  1  0  0  0
 53 54  1  0  0  0
 54 55  2  0  0  0
 54123  1  0  0  0
 55 57  1  0  0  0
 55124  1  0  0  0
 56 69  2  0  0  0
 57 58  2  0  0  0
 57125  1  0  0  0
 58126  1  0  0  0
 59 60  1  0  0  0
 59 61  1  0  0  0
 59 62  1  0  0  0
 60127  1  0  0  0
 60128  1  0  0  0
 60129  1  0  0  0
 61130  1  0  0  0
 61131  1  0  0  0
 61132  1  0  0  0
 62133  1  0  0  0
 62134  1  0  0  0
 62135  1  0  0  0
 63 65  1  0  0  0
 63136  1  0  0  0
 63137  1  0  0  0
 63138  1  0  0  0
 64139  1  0  0  0
 65140  1  0  0  0
 68 76  1  0  0  0
 71 72  2  0  0  0
 71 73  1  0  0  0
 71 80  1  0  0  0
 72 75  1  0  0  0
 72 79  1  0  0  0
 73 77  2  0  0  0
 73 81  1  0  0  0
 74 76  1  0  0  0
 74 78  2  0  0  0
 74 79  1  0  0  0
 75141  1  0  0  0
 75142  1  0  0  0
 75143  1  0  0  0
 76144  1  0  0  0
 76145  1  0  0  0
 77 79  1  0  0  0
 78146  1  0  0  0
 80147  1  0  0  0
 80148  1  0  0  0
 81149  1  0  0  0
M  ISO  4   1 100  68 101  76 101  81 100
M  END
> <chiral flag>
0

> <version>
0

> <s_m_source_file>
/data/baiqing/PycharmProjects/Reinvent-master-3.2/result/LINK_invent/BTK/process_docking_weight1_custom_product_contain_oxygen_bond_distance_aromatic_linkinvent_7_9_3/rearranged_h_0106.sdf

> <i_m_source_file_index>
23

> <r_mmod_Potential_Energy-OPLS-2005>
1642.45764160156

> <r_mmod_Stretch_Energy-OPLS-2005>
769.087341308594

> <r_mmod_Bend_Energy-OPLS-2005>
579.022277832031

> <r_mmod_Torsional_Energy-OPLS-2005>
227.795654296875

> <r_mmod_Improper_Torsional_Energy-OPLS-2005>
13.6305112838745

> <r_mmod_Van_der_Waal_Energy-OPLS-2005>
105.207260131836

> <r_mmod_Electrostatic_Energy-OPLS-2005>
-431.661437988281

> <r_mmod_Solvation_Energy-OPLS-2005>
-260.799835205078

> <b_mmod_Minimization_Converged-OPLS-2005>
0

> <r_mmod_RMS_Derivative-OPLS-2005>
1.8816009759903

$$$$
23
                    3D
 Structure written by MMmdl.
167176  0  0  1  0            999 V2000
  -30.6888  -14.6340   20.5501 C   0  0  0  0  0  0
  -30.4162  -12.4068   19.4560 C   0  0  0  0  0  0
  -29.4985  -12.5115   18.2216 C   0  0  0  0  0  0
  -28.0245  -12.3427   18.6320 C   0  0  0  0  0  0
  -27.6424  -13.2282   19.8465 C   0  0  2  0  0  0
  -28.6803  -13.1170   20.9800 C   0  0  0  0  0  0
  -25.2515  -13.8202   20.5684 C   0  0  0  0  0  0
  -24.1798  -13.0450   20.9188 C   0  0  0  0  0  0
  -24.6390  -11.6926   20.8730 C   0  0  0  0  0  0
  -23.9071  -10.4301   21.0406 C   0  0  0  0  0  0
  -24.3622   -9.4215   21.9185 C   0  0  0  0  0  0
  -23.6297   -8.2248   22.0750 C   0  0  0  0  0  0
  -22.4276   -8.0285   21.3544 C   0  0  0  0  0  0
  -21.9918   -9.0258   20.4639 C   0  0  0  0  0  0
  -22.7247  -10.2140   20.3050 C   0  0  0  0  0  0
  -21.6857   -6.0734   22.5278 C   0  0  0  0  0  0
  -21.4013   -6.5638   23.8210 C   0  0  0  0  0  0
  -21.3657   -5.6795   24.9172 C   0  0  0  0  0  0
  -21.6047   -4.3058   24.7226 C   0  0  0  0  0  0
  -21.8817   -3.8146   23.4348 C   0  0  0  0  0  0
  -21.9190   -4.6960   22.3403 C   0  0  0  0  0  0
  -22.7818  -13.5222   21.1861 C   0  0  0  0  0  0
  -22.1657   -4.2147   21.0976 F   0  0  0  0  0  0
  -21.5634   -3.4537   25.7742 F   0  0  0  0  0  0
  -29.9987  -13.4503   20.4186 N   0  0  0  0  0  0
  -26.2929  -12.9405   20.3232 N   0  0  0  0  0  0
  -25.9314  -11.6550   20.5717 N   0  0  0  0  0  0
  -22.0472  -12.8203   22.0416 N   0  0  0  0  0  0
  -25.4239  -15.1927   20.4147 N   0  0  0  0  0  0
  -31.8335  -14.7272   20.0965 O   0  0  0  0  0  0
  -21.6639   -6.8882   21.4241 O   0  0  0  0  0  0
  -22.3501  -14.5529   20.6720 O   0  0  0  0  0  0
  -24.6267  -31.8580   23.2000 C   0  0  0  0  0  0
  -25.9106  -32.4770   23.8336 C   0  0  1  0  0  0
  -27.2224  -27.3065   20.1244 C   0  0  0  0  0  0
  -25.5900  -33.8567   24.2259 N   0  0  0  0  0  0
  -23.4227  -30.4798   21.5434 C   0  0  2  0  0  0
  -24.8692  -28.9287   20.1148 C   0  0  0  0  0  0
  -22.7484  -29.4618   22.4943 C   0  0  0  0  0  0
  -18.0282  -28.1399   22.8478 C   0  0  0  0  0  0
  -24.1480  -36.7300   23.2644 C   0  0  0  0  0  0
  -25.9639  -30.7856   21.3721 C   0  0  0  0  0  0
  -26.0394  -29.4103   20.7175 C   0  0  0  0  0  0
  -27.2228  -28.6120   20.7084 C   0  0  0  0  0  0
  -26.0307  -26.8731   19.5093 C   0  0  0  0  0  0
  -24.8664  -27.6658   19.5009 C   0  0  0  0  0  0
  -23.6375  -29.8117   20.1600 C   0  0  0  0  0  0
  -25.4107  -36.3085   24.0330 C   0  0  1  0  0  0
  -20.5886  -28.3702   23.1283 C   0  0  2  0  0  0
  -20.6782  -26.9423   22.5418 C   0  0  0  0  0  0
  -19.5764  -26.6402   21.5220 C   0  0  0  0  0  0
  -18.1931  -26.7943   22.1621 C   0  0  0  0  0  0
  -19.1537  -28.8868   23.2871 C   0  0  0  0  0  0
  -18.9457  -30.1466   23.8899 C   0  0  0  0  0  0
  -17.6461  -30.6602   24.0567 C   0  0  0  0  0  0
  -25.9047  -34.9448   23.5105 C   0  0  0  0  0  0
  -16.5347  -29.9100   23.6336 C   0  0  0  0  0  0
  -16.7270  -28.6519   23.0345 C   0  0  0  0  0  0
  -26.4486  -31.6587   25.0712 C   0  0  0  0  0  0
  -25.3709  -31.3701   26.1428 C   0  0  0  0  0  0
  -27.0335  -30.3010   24.6171 C   0  0  0  0  0  0
  -27.6058  -32.4313   25.7474 C   0  0  0  0  0  0
  -27.5575  -37.1798   24.8464 C   0  0  0  0  0  0
  -21.4196  -29.3047   22.3676 N   0  0  0  0  0  0
  -26.4290  -37.3777   23.9409 N   0  0  0  0  0  0
  -24.6904  -31.0581   22.0960 N   0  0  0  0  0  0
  -23.4198  -28.8158   23.3038 O   0  0  0  0  0  0
  -28.3337  -26.4502   20.1169 O   0  0  0  0  0  0
  -26.5638  -34.8915   22.4686 O   0  0  0  0  0  0
  -23.5432  -32.1375   23.7332 O   0  0  0  0  0  0
  -28.7653  -19.3221   21.1925 C   0  0  0  0  0  0
  -29.0203  -17.9573   21.5263 C   0  0  0  0  0  0
  -30.0254  -19.0236   19.1971 C   0  0  0  0  0  0
  -29.2860  -19.9302   20.0229 C   0  0  0  0  0  0
  -29.8162  -17.0689   20.7367 C   0  0  0  0  0  0
  -30.2685  -17.6361   19.5025 C   0  0  0  0  0  0
  -28.4568  -23.7617   19.8886 C   0  0  0  0  0  0
  -28.8565  -22.5255   20.4005 C   0  0  0  0  0  0
  -28.1496  -23.8229   18.4417 C   0  0  0  0  0  0
  -30.8524  -16.4934   23.4539 C   0  0  0  0  0  0
  -30.3456  -15.5553   22.6304 C   0  0  0  0  0  0
  -27.8562  -22.5019   17.7443 C   0  0  0  0  0  0
  -28.8436  -21.4085   18.1690 C   0  0  0  0  0  0
  -29.2138  -22.3929   21.8758 C   0  0  0  0  0  0
  -31.4080  -17.3250   17.3842 C   0  0  0  0  0  0
  -28.1704  -25.0928   20.7104 C   0  0  0  0  0  0
  -29.0210  -21.3121   19.6278 N   0  0  0  0  0  0
  -30.1191  -15.6891   21.2420 N   0  0  0  0  0  0
  -28.1092  -24.8608   17.7765 O   0  0  0  0  0  0
  -30.9430  -16.8113   18.6263 O   0  0  0  0  0  0
  -31.4607  -12.5021   19.1558 H   0  0  0  0  0  0
  -30.3324  -11.4202   19.9145 H   0  0  0  0  0  0
  -29.7704  -11.7560   17.4840 H   0  0  0  0  0  0
  -29.6369  -13.4787   17.7370 H   0  0  0  0  0  0
  -27.8696  -11.2916   18.8778 H   0  0  0  0  0  0
  -27.3695  -12.5551   17.7863 H   0  0  0  0  0  0
  -27.6536  -14.2590   19.4913 H   0  0  0  0  0  0
  -28.6925  -12.1083   21.3951 H   0  0  0  0  0  0
  -28.3937  -13.7789   21.7957 H   0  0  0  0  0  0
  -25.2767   -9.5690   22.4760 H   0  0  0  0  0  0
  -24.0002   -7.4639   22.7474 H   0  0  0  0  0  0
  -21.0849   -8.8781   19.8947 H   0  0  0  0  0  0
  -22.3710  -10.9676   19.6153 H   0  0  0  0  0  0
  -21.2004   -7.6151   23.9715 H   0  0  0  0  0  0
  -21.1483   -6.0524   25.9077 H   0  0  0  0  0  0
  -22.0599   -2.7610   23.2849 H   0  0  0  0  0  0
  -22.4097  -11.9856   22.4784 H   0  0  0  0  0  0
  -21.1086  -13.1209   22.2626 H   0  0  0  0  0  0
  -24.6668  -15.8545   20.5445 H   0  0  0  0  0  0
  -26.2904  -15.6318   20.1300 H   0  0  0  0  0  0
  -26.7181  -32.5450   23.1093 H   0  0  0  0  0  0
  -25.0013  -33.9707   25.0382 H   0  0  0  0  0  0
  -22.7174  -31.3010   21.3977 H   0  0  0  0  0  0
  -23.3739  -35.9636   23.3314 H   0  0  0  0  0  0
  -24.3584  -36.8923   22.2062 H   0  0  0  0  0  0
  -23.7231  -37.6498   23.6670 H   0  0  0  0  0  0
  -26.0904  -31.5458   20.6007 H   0  0  0  0  0  0
  -26.8480  -30.8417   21.9968 H   0  0  0  0  0  0
  -28.1239  -28.9778   21.1801 H   0  0  0  0  0  0
  -25.9924  -25.9031   19.0348 H   0  0  0  0  0  0
  -23.9701  -27.2912   19.0245 H   0  0  0  0  0  0
  -23.7556  -30.5864   19.4017 H   0  0  0  0  0  0
  -22.7568  -29.2414   19.8591 H   0  0  0  0  0  0
  -25.1279  -36.1950   25.0823 H   0  0  0  0  0  0
  -20.9961  -28.3284   24.1414 H   0  0  0  0  0  0
  -20.5705  -26.2301   23.3613 H   0  0  0  0  0  0
  -21.6646  -26.7479   22.1199 H   0  0  0  0  0  0
  -19.6926  -25.6315   21.1251 H   0  0  0  0  0  0
  -19.6705  -27.3220   20.6760 H   0  0  0  0  0  0
  -17.4198  -26.6689   21.4021 H   0  0  0  0  0  0
  -18.0320  -26.0094   22.9026 H   0  0  0  0  0  0
  -19.7932  -30.7276   24.2278 H   0  0  0  0  0  0
  -17.5011  -31.6280   24.5171 H   0  0  0  0  0  0
  -15.5345  -30.2991   23.7683 H   0  0  0  0  0  0
  -15.8670  -28.0852   22.7050 H   0  0  0  0  0  0
  -24.5927  -30.7009   25.7741 H   0  0  0  0  0  0
  -24.8839  -32.2840   26.4830 H   0  0  0  0  0  0
  -25.8031  -30.8900   27.0218 H   0  0  0  0  0  0
  -26.2914  -29.6743   24.1213 H   0  0  0  0  0  0
  -27.4045  -29.7284   25.4679 H   0  0  0  0  0  0
  -27.8763  -30.4289   23.9380 H   0  0  0  0  0  0
  -27.2712  -33.3647   26.2011 H   0  0  0  0  0  0
  -28.3881  -32.6820   25.0297 H   0  0  0  0  0  0
  -28.0701  -31.8449   26.5410 H   0  0  0  0  0  0
  -28.2590  -38.0095   24.7517 H   0  0  0  0  0  0
  -28.1067  -36.2629   24.6284 H   0  0  0  0  0  0
  -27.2288  -37.1444   25.8862 H   0  0  0  0  0  0
  -20.9375  -29.8761   21.6877 H   0  0  0  0  0  0
  -26.0169  -38.2849   24.1417 H   0  0  0  0  0  0
  -28.1420  -19.9004   21.8587 H   0  0  0  0  0  0
  -28.5885  -17.5939   22.4463 H   0  0  0  0  0  0
  -30.4268  -19.4249   18.2813 H   0  0  0  0  0  0
  -30.9713  -16.2863   24.5079 H   0  0  0  0  0  0
  -31.1633  -17.4684   23.1043 H   0  0  0  0  0  0
  -30.0641  -14.5889   23.0301 H   0  0  0  0  0  0
  -27.8882  -22.6389   16.6629 H   0  0  0  0  0  0
  -26.8388  -22.2055   18.0009 H   0  0  0  0  0  0
  -29.8128  -21.5922   17.7016 H   0  0  0  0  0  0
  -28.4658  -20.4707   17.7577 H   0  0  0  0  0  0
  -28.3118  -22.3007   22.4824 H   0  0  0  0  0  0
  -29.7746  -23.2590   22.2234 H   0  0  0  0  0  0
  -29.8608  -21.5423   22.0843 H   0  0  0  0  0  0
  -31.8978  -16.5276   16.8263 H   0  0  0  0  0  0
  -32.1424  -18.1186   17.5257 H   0  0  0  0  0  0
  -30.5871  -17.6940   16.7683 H   0  0  0  0  0  0
  -28.8087  -25.0965   21.5918 H   0  0  0  0  0  0
  -27.1597  -24.9910   21.1075 H   0  0  0  0  0  0
  1 25  1  0  0  0
  1 30  2  0  0  0
  1 88  1  0  0  0
  2  3  1  0  0  0
  2 25  1  0  0  0
  2 91  1  0  0  0
  2 92  1  0  0  0
  3  4  1  0  0  0
  3 93  1  0  0  0
  3 94  1  0  0  0
  4  5  1  0  0  0
  4 95  1  0  0  0
  4 96  1  0  0  0
  5  6  1  0  0  0
  5 26  1  0  0  0
  5 97  1  0  0  0
  6 25  1  0  0  0
  6 98  1  0  0  0
  6 99  1  0  0  0
  7  8  2  0  0  0
  7 26  1  0  0  0
  7 29  1  0  0  0
  8  9  1  0  0  0
  8 22  1  0  0  0
  9 10  1  0  0  0
  9 27  2  0  0  0
 10 11  2  0  0  0
 10 15  1  0  0  0
 11 12  1  0  0  0
 11100  1  0  0  0
 12 13  2  0  0  0
 12101  1  0  0  0
 13 14  1  0  0  0
 13 31  1  0  0  0
 14 15  2  0  0  0
 14102  1  0  0  0
 15103  1  0  0  0
 16 17  2  0  0  0
 16 21  1  0  0  0
 16 31  1  0  0  0
 17 18  1  0  0  0
 17104  1  0  0  0
 18 19  2  0  0  0
 18105  1  0  0  0
 19 20  1  0  0  0
 19 24  1  0  0  0
 20 21  2  0  0  0
 20106  1  0  0  0
 21 23  1  0  0  0
 22 28  1  0  0  0
 22 32  2  0  0  0
 26 27  1  0  0  0
 28107  1  0  0  0
 28108  1  0  0  0
 29109  1  0  0  0
 29110  1  0  0  0
 33 34  1  0  0  0
 33 66  1  0  0  0
 33 70  2  0  0  0
 34 36  1  0  0  0
 34 59  1  0  0  0
 34111  1  0  0  0
 35 44  2  0  0  0
 35 45  1  0  0  0
 35 68  1  0  0  0
 36 56  1  0  0  0
 36112  1  0  0  0
 37 39  1  0  0  0
 37 47  1  0  0  0
 37 66  1  0  0  0
 37113  1  0  0  0
 38 43  2  0  0  0
 38 46  1  0  0  0
 38 47  1  0  0  0
 39 64  1  0  0  0
 39 67  2  0  0  0
 40 52  1  0  0  0
 40 53  2  0  0  0
 40 58  1  0  0  0
 41114  1  0  0  0
 41115  1  0  0  0
 41116  1  0  0  0
 41 48  1  0  0  0
 42 43  1  0  0  0
 42 66  1  0  0  0
 42117  1  0  0  0
 42118  1  0  0  0
 43 44  1  0  0  0
 44119  1  0  0  0
 45 46  2  0  0  0
 45120  1  0  0  0
 46121  1  0  0  0
 47122  1  0  0  0
 47123  1  0  0  0
 48 56  1  0  0  0
 48 65  1  0  0  0
 48124  1  0  0  0
 49 50  1  0  0  0
 49 53  1  0  0  0
 49 64  1  0  0  0
 49125  1  0  0  0
 50 51  1  0  0  0
 50126  1  0  0  0
 50127  1  0  0  0
 51 52  1  0  0  0
 51128  1  0  0  0
 51129  1  0  0  0
 52130  1  0  0  0
 52131  1  0  0  0
 53 54  1  0  0  0
 54 55  2  0  0  0
 54132  1  0  0  0
 55 57  1  0  0  0
 55133  1  0  0  0
 56 69  2  0  0  0
 57 58  2  0  0  0
 57134  1  0  0  0
 58135  1  0  0  0
 59 60  1  0  0  0
 59 61  1  0  0  0
 59 62  1  0  0  0
 60136  1  0  0  0
 60137  1  0  0  0
 60138  1  0  0  0
 61139  1  0  0  0
 61140  1  0  0  0
 61141  1  0  0  0
 62142  1  0  0  0
 62143  1  0  0  0
 62144  1  0  0  0
 63 65  1  0  0  0
 63145  1  0  0  0
 63146  1  0  0  0
 63147  1  0  0  0
 64148  1  0  0  0
 65149  1  0  0  0
 68 86  1  0  0  0
 71 72  2  0  0  0
 71 74  1  0  0  0
 71150  1  0  0  0
 72 75  1  0  0  0
 72151  1  0  0  0
 73 74  2  0  0  0
 73 76  1  0  0  0
 73152  1  0  0  0
 74 87  1  0  0  0
 75 76  2  0  0  0
 75 88  1  0  0  0
 76 90  1  0  0  0
 77 78  2  0  0  0
 77 79  1  0  0  0
 77 86  1  0  0  0
 78 84  1  0  0  0
 78 87  1  0  0  0
 79 82  1  0  0  0
 79 89  2  0  0  0
 80 81  2  0  0  0
 80153  1  0  0  0
 80154  1  0  0  0
 81 88  1  0  0  0
 81155  1  0  0  0
 82 83  1  0  0  0
 82156  1  0  0  0
 82157  1  0  0  0
 83 87  1  0  0  0
 83158  1  0  0  0
 83159  1  0  0  0
 84160  1  0  0  0
 84161  1  0  0  0
 84162  1  0  0  0
 85 90  1  0  0  0
 85163  1  0  0  0
 85164  1  0  0  0
 85165  1  0  0  0
 86166  1  0  0  0
 86167  1  0  0  0
M  ISO  4   1 100  68 101  86 101  88 100
M  END
> <chiral flag>
0

> <version>
0

> <s_m_source_file>
/data/baiqing/PycharmProjects/Reinvent-master-3.2/result/LINK_invent/BTK/process_docking_weight1_custom_product_contain_oxygen_bond_distance_aromatic_linkinvent_7_9_3/rearranged_h_0106.sdf

> <i_m_source_file_index>
24

> <r_mmod_Potential_Energy-OPLS-2005>
308.731201171875

> <r_mmod_Stretch_Energy-OPLS-2005>
115.193374633789

> <r_mmod_Bend_Energy-OPLS-2005>
171.043350219727

> <r_mmod_Torsional_Energy-OPLS-2005>
303.799377441406

> <r_mmod_Improper_Torsional_Energy-OPLS-2005>
3.59680652618408

> <r_mmod_Van_der_Waal_Energy-OPLS-2005>
187.039489746094

> <r_mmod_Electrostatic_Energy-OPLS-2005>
-302.950775146484

> <r_mmod_Solvation_Energy-OPLS-2005>
-218.28125

> <b_mmod_Minimization_Converged-OPLS-2005>
0

> <r_mmod_RMS_Derivative-OPLS-2005>
1.78923344612122

$$$$
24
                    3D
 Structure written by MMmdl.
161170  0  0  1  0            999 V2000
  -30.5234  -14.9119   20.4364 C   0  0  0  0  0  0
  -30.4546  -12.5629   19.4927 C   0  0  0  0  0  0
  -29.5285  -12.5262   18.2532 C   0  0  0  0  0  0
  -28.0595  -12.3144   18.6705 C   0  0  0  0  0  0
  -27.6393  -13.2376   19.8441 C   0  0  2  0  0  0
  -28.6819  -13.2269   20.9830 C   0  0  0  0  0  0
  -25.2493  -13.8195   20.5665 C   0  0  0  0  0  0
  -24.1796  -13.0440   20.9209 C   0  0  0  0  0  0
  -24.6396  -11.6924   20.8749 C   0  0  0  0  0  0
  -23.9080  -10.4296   21.0411 C   0  0  0  0  0  0
  -24.3626   -9.4207   21.9187 C   0  0  0  0  0  0
  -23.6289   -8.2241   22.0759 C   0  0  0  0  0  0
  -22.4271   -8.0279   21.3544 C   0  0  0  0  0  0
  -21.9914   -9.0262   20.4655 C   0  0  0  0  0  0
  -22.7253  -10.2137   20.3061 C   0  0  0  0  0  0
  -21.6852   -6.0737   22.5273 C   0  0  0  0  0  0
  -21.4026   -6.5644   23.8209 C   0  0  0  0  0  0
  -21.3658   -5.6790   24.9169 C   0  0  0  0  0  0
  -21.6032   -4.3052   24.7219 C   0  0  0  0  0  0
  -21.8821   -3.8148   23.4344 C   0  0  0  0  0  0
  -21.9195   -4.6965   22.3400 C   0  0  0  0  0  0
  -22.7815  -13.5219   21.1866 C   0  0  0  0  0  0
  -22.1658   -4.2152   21.0974 F   0  0  0  0  0  0
  -21.5621   -3.4536   25.7740 F   0  0  0  0  0  0
  -29.9679  -13.6377   20.3998 N   0  0  0  0  0  0
  -26.2927  -12.9416   20.3233 N   0  0  0  0  0  0
  -25.9324  -11.6560   20.5718 N   0  0  0  0  0  0
  -22.0450  -12.8225   22.0427 N   0  0  0  0  0  0
  -25.4146  -15.1915   20.4024 N   0  0  0  0  0  0
  -31.7129  -15.0337   20.1201 O   0  0  0  0  0  0
  -21.6632   -6.8878   21.4233 O   0  0  0  0  0  0
  -22.3506  -14.5518   20.6700 O   0  0  0  0  0  0
  -24.6404  -31.8465   23.1891 C   0  0  0  0  0  0
  -25.9173  -32.4716   23.8275 C   0  0  1  0  0  0
  -27.2254  -27.1625   20.1519 C   0  0  0  0  0  0
  -25.5914  -33.8522   24.2186 N   0  0  0  0  0  0
  -23.4438  -30.4640   21.5356 C   0  0  2  0  0  0
  -24.8942  -28.8928   20.1150 C   0  0  0  0  0  0
  -22.7554  -29.4555   22.4888 C   0  0  0  0  0  0
  -18.0296  -28.1400   22.8477 C   0  0  0  0  0  0
  -24.1483  -36.7271   23.2642 C   0  0  0  0  0  0
  -25.9970  -30.7300   21.3816 C   0  0  0  0  0  0
  -26.0718  -29.3425   20.7263 C   0  0  0  0  0  0
  -27.2408  -28.4949   20.7217 C   0  0  0  0  0  0
  -26.0209  -26.8077   19.5045 C   0  0  0  0  0  0
  -24.8800  -27.6379   19.4900 C   0  0  0  0  0  0
  -23.6675  -29.7893   20.1569 C   0  0  0  0  0  0
  -25.4116  -36.3047   24.0313 C   0  0  1  0  0  0
  -20.5907  -28.3717   23.1248 C   0  0  2  0  0  0
  -20.6776  -26.9423   22.5409 C   0  0  0  0  0  0
  -19.5751  -26.6384   21.5212 C   0  0  0  0  0  0
  -18.1936  -26.7938   22.1629 C   0  0  0  0  0  0
  -19.1553  -28.8878   23.2851 C   0  0  0  0  0  0
  -18.9470  -30.1471   23.8881 C   0  0  0  0  0  0
  -17.6467  -30.6598   24.0563 C   0  0  0  0  0  0
  -25.9065  -34.9420   23.5067 C   0  0  0  0  0  0
  -16.5358  -29.9093   23.6337 C   0  0  0  0  0  0
  -16.7281  -28.6511   23.0361 C   0  0  0  0  0  0
  -26.4490  -31.6582   25.0717 C   0  0  0  0  0  0
  -25.3667  -31.3785   26.1412 C   0  0  0  0  0  0
  -27.0332  -30.2971   24.6286 C   0  0  0  0  0  0
  -27.6028  -32.4344   25.7500 C   0  0  0  0  0  0
  -27.5576  -37.1783   24.8457 C   0  0  0  0  0  0
  -21.4249  -29.3044   22.3628 N   0  0  0  0  0  0
  -26.4280  -37.3759   23.9412 N   0  0  0  0  0  0
  -24.7137  -31.0334   22.0914 N   0  0  0  0  0  0
  -23.4206  -28.8105   23.3031 O   0  0  0  0  0  0
  -28.3011  -26.2086   20.1894 O   0  0  0  0  0  0
  -26.5675  -34.8915   22.4658 O   0  0  0  0  0  0
  -23.5525  -32.1323   23.7120 O   0  0  0  0  0  0
  -28.4680  -19.6212   21.5948 C   0  0  0  0  0  0
  -30.0482  -19.9447   19.8830 C   0  0  0  0  0  0
  -28.6913  -18.1947   21.5615 C   0  0  0  0  0  0
  -30.2714  -18.4947   19.8182 C   0  0  0  0  0  0
  -29.1454  -20.6000   20.7962 C   0  0  0  0  0  0
  -29.6152  -17.5364   20.6822 C   0  0  0  0  0  0
  -29.3414  -22.4685   22.3461 C   0  0  0  0  0  0
  -30.2259  -23.7054   22.3732 C   0  0  0  0  0  0
  -30.4425  -23.9856   20.8925 C   0  0  0  0  0  0
  -29.1597  -23.4365   20.2691 C   0  0  2  0  0  0
  -27.9137  -17.3506   22.5571 C   0  0  0  0  0  0
  -31.2282  -17.9678   18.7670 C   0  0  0  0  0  0
  -28.0438  -24.6923   20.3979 C   0  0  0  0  0  0
  -28.9836  -22.1071   21.0901 N   0  0  0  0  0  0
  -29.6598  -16.0035   20.6870 N   0  0  0  0  0  0
  -29.0235  -21.9000   23.3956 O   0  0  0  0  0  0
  -31.4863  -12.7339   19.1805 H   0  0  0  0  0  0
  -30.4535  -11.6016   20.0078 H   0  0  0  0  0  0
  -29.8440  -11.7358   17.5705 H   0  0  0  0  0  0
  -29.6194  -13.4616   17.6988 H   0  0  0  0  0  0
  -27.9506  -11.2715   18.9688 H   0  0  0  0  0  0
  -27.3979  -12.4580   17.8160 H   0  0  0  0  0  0
  -27.6166  -14.2468   19.4322 H   0  0  0  0  0  0
  -28.7561  -12.2387   21.4384 H   0  0  0  0  0  0
  -28.3827  -13.9061   21.7831 H   0  0  0  0  0  0
  -25.2772   -9.5685   22.4766 H   0  0  0  0  0  0
  -23.9997   -7.4642   22.7490 H   0  0  0  0  0  0
  -21.0840   -8.8802   19.8972 H   0  0  0  0  0  0
  -22.3714  -10.9684   19.6177 H   0  0  0  0  0  0
  -21.2029   -7.6154   23.9719 H   0  0  0  0  0  0
  -21.1467   -6.0516   25.9071 H   0  0  0  0  0  0
  -22.0601   -2.7612   23.2838 H   0  0  0  0  0  0
  -22.4062  -11.9900   22.4850 H   0  0  0  0  0  0
  -21.1073  -13.1279   22.2624 H   0  0  0  0  0  0
  -24.6350  -15.8335   20.4966 H   0  0  0  0  0  0
  -26.2302  -15.6258   19.9910 H   0  0  0  0  0  0
  -26.7247  -32.5330   23.1015 H   0  0  0  0  0  0
  -24.9965  -33.9630   25.0268 H   0  0  0  0  0  0
  -22.7445  -31.2883   21.3802 H   0  0  0  0  0  0
  -23.3751  -35.9596   23.3291 H   0  0  0  0  0  0
  -24.3575  -36.8925   22.2061 H   0  0  0  0  0  0
  -23.7228  -37.6458   23.6693 H   0  0  0  0  0  0
  -26.1434  -31.4844   20.6072 H   0  0  0  0  0  0
  -26.8721  -30.7864   22.0180 H   0  0  0  0  0  0
  -28.1441  -28.8405   21.2039 H   0  0  0  0  0  0
  -25.9311  -25.8576   19.0014 H   0  0  0  0  0  0
  -23.9820  -27.2894   18.9989 H   0  0  0  0  0  0
  -23.7955  -30.5596   19.3959 H   0  0  0  0  0  0
  -22.7843  -29.2232   19.8552 H   0  0  0  0  0  0
  -25.1297  -36.1882   25.0804 H   0  0  0  0  0  0
  -20.9988  -28.3302   24.1372 H   0  0  0  0  0  0
  -20.5667  -26.2326   23.3622 H   0  0  0  0  0  0
  -21.6644  -26.7428   22.1211 H   0  0  0  0  0  0
  -19.6914  -25.6286   21.1261 H   0  0  0  0  0  0
  -19.6695  -27.3176   20.6727 H   0  0  0  0  0  0
  -17.4198  -26.6670   21.4042 H   0  0  0  0  0  0
  -18.0345  -26.0091   22.9038 H   0  0  0  0  0  0
  -19.7943  -30.7289   24.2254 H   0  0  0  0  0  0
  -17.5023  -31.6281   24.5159 H   0  0  0  0  0  0
  -15.5360  -30.2996   23.7671 H   0  0  0  0  0  0
  -15.8678  -28.0826   22.7093 H   0  0  0  0  0  0
  -24.5829  -30.7159   25.7724 H   0  0  0  0  0  0
  -24.8867  -32.2973   26.4790 H   0  0  0  0  0  0
  -25.7924  -30.8974   27.0224 H   0  0  0  0  0  0
  -26.2931  -29.6729   24.1266 H   0  0  0  0  0  0
  -27.3899  -29.7250   25.4861 H   0  0  0  0  0  0
  -27.8864  -30.4203   23.9617 H   0  0  0  0  0  0
  -27.2622  -33.3659   26.2035 H   0  0  0  0  0  0
  -28.3852  -32.6889   25.0339 H   0  0  0  0  0  0
  -28.0677  -31.8501   26.5449 H   0  0  0  0  0  0
  -28.2572  -38.0101   24.7526 H   0  0  0  0  0  0
  -28.1089  -36.2629   24.6246 H   0  0  0  0  0  0
  -27.2301  -37.1392   25.8862 H   0  0  0  0  0  0
  -20.9462  -29.8739   21.6795 H   0  0  0  0  0  0
  -26.0150  -38.2825   24.1441 H   0  0  0  0  0  0
  -27.7564  -19.9892   22.3202 H   0  0  0  0  0  0
  -30.6241  -20.5806   19.2234 H   0  0  0  0  0  0
  -31.1622  -23.5143   22.8986 H   0  0  0  0  0  0
  -29.7022  -24.5220   22.8705 H   0  0  0  0  0  0
  -31.3100  -23.4312   20.5288 H   0  0  0  0  0  0
  -30.6127  -25.0418   20.6830 H   0  0  0  0  0  0
  -29.3306  -23.2076   19.2163 H   0  0  0  0  0  0
  -27.2347  -17.9552   23.1582 H   0  0  0  0  0  0
  -28.6017  -16.8525   23.2407 H   0  0  0  0  0  0
  -27.3214  -16.5919   22.0490 H   0  0  0  0  0  0
  -32.0861  -17.4917   19.2410 H   0  0  0  0  0  0
  -31.6008  -18.7595   18.1157 H   0  0  0  0  0  0
  -30.7270  -17.2281   18.1415 H   0  0  0  0  0  0
  -27.6309  -24.6429   21.4063 H   0  0  0  0  0  0
  -27.2157  -24.3887   19.7626 H   0  0  0  0  0  0
  -28.7799  -15.6266   21.0007 H   0  0  0  0  0  0
  1 25  1  0  0  0
  1 30  2  0  0  0
  1 85  1  0  0  0
  2  3  1  0  0  0
  2 25  1  0  0  0
  2 87  1  0  0  0
  2 88  1  0  0  0
  3  4  1  0  0  0
  3 89  1  0  0  0
  3 90  1  0  0  0
  4  5  1  0  0  0
  4 91  1  0  0  0
  4 92  1  0  0  0
  5  6  1  0  0  0
  5 26  1  0  0  0
  5 93  1  0  0  0
  6 25  1  0  0  0
  6 94  1  0  0  0
  6 95  1  0  0  0
  7  8  2  0  0  0
  7 26  1  0  0  0
  7 29  1  0  0  0
  8  9  1  0  0  0
  8 22  1  0  0  0
  9 10  1  0  0  0
  9 27  2  0  0  0
 10 11  2  0  0  0
 10 15  1  0  0  0
 11 12  1  0  0  0
 11 96  1  0  0  0
 12 13  2  0  0  0
 12 97  1  0  0  0
 13 14  1  0  0  0
 13 31  1  0  0  0
 14 15  2  0  0  0
 14 98  1  0  0  0
 15 99  1  0  0  0
 16 17  2  0  0  0
 16 21  1  0  0  0
 16 31  1  0  0  0
 17 18  1  0  0  0
 17100  1  0  0  0
 18 19  2  0  0  0
 18101  1  0  0  0
 19 20  1  0  0  0
 19 24  1  0  0  0
 20 21  2  0  0  0
 20102  1  0  0  0
 21 23  1  0  0  0
 22 28  1  0  0  0
 22 32  2  0  0  0
 26 27  1  0  0  0
 28103  1  0  0  0
 28104  1  0  0  0
 29105  1  0  0  0
 29106  1  0  0  0
 33 34  1  0  0  0
 33 66  1  0  0  0
 33 70  2  0  0  0
 34 36  1  0  0  0
 34 59  1  0  0  0
 34107  1  0  0  0
 35 44  2  0  0  0
 35 45  1  0  0  0
 35 68  1  0  0  0
 36 56  1  0  0  0
 36108  1  0  0  0
 37 39  1  0  0  0
 37 47  1  0  0  0
 37 66  1  0  0  0
 37109  1  0  0  0
 38 43  2  0  0  0
 38 46  1  0  0  0
 38 47  1  0  0  0
 39 64  1  0  0  0
 39 67  2  0  0  0
 40 52  1  0  0  0
 40 53  2  0  0  0
 40 58  1  0  0  0
 41110  1  0  0  0
 41111  1  0  0  0
 41112  1  0  0  0
 41 48  1  0  0  0
 42 43  1  0  0  0
 42 66  1  0  0  0
 42113  1  0  0  0
 42114  1  0  0  0
 43 44  1  0  0  0
 44115  1  0  0  0
 45 46  2  0  0  0
 45116  1  0  0  0
 46117  1  0  0  0
 47118  1  0  0  0
 47119  1  0  0  0
 48 56  1  0  0  0
 48 65  1  0  0  0
 48120  1  0  0  0
 49 50  1  0  0  0
 49 53  1  0  0  0
 49 64  1  0  0  0
 49121  1  0  0  0
 50 51  1  0  0  0
 50122  1  0  0  0
 50123  1  0  0  0
 51 52  1  0  0  0
 51124  1  0  0  0
 51125  1  0  0  0
 52126  1  0  0  0
 52127  1  0  0  0
 53 54  1  0  0  0
 54 55  2  0  0  0
 54128  1  0  0  0
 55 57  1  0  0  0
 55129  1  0  0  0
 56 69  2  0  0  0
 57 58  2  0  0  0
 57130  1  0  0  0
 58131  1  0  0  0
 59 60  1  0  0  0
 59 61  1  0  0  0
 59 62  1  0  0  0
 60132  1  0  0  0
 60133  1  0  0  0
 60134  1  0  0  0
 61135  1  0  0  0
 61136  1  0  0  0
 61137  1  0  0  0
 62138  1  0  0  0
 62139  1  0  0  0
 62140  1  0  0  0
 63 65  1  0  0  0
 63141  1  0  0  0
 63142  1  0  0  0
 63143  1  0  0  0
 64144  1  0  0  0
 65145  1  0  0  0
 68 83  1  0  0  0
 71 73  2  0  0  0
 71 75  1  0  0  0
 71146  1  0  0  0
 72 74  1  0  0  0
 72 75  2  0  0  0
 72147  1  0  0  0
 73 76  1  0  0  0
 73 81  1  0  0  0
 74 76  2  0  0  0
 74 82  1  0  0  0
 75 84  1  0  0  0
 76 85  1  0  0  0
 77 78  1  0  0  0
 77 84  1  0  0  0
 77 86  2  0  0  0
 78 79  1  0  0  0
 78148  1  0  0  0
 78149  1  0  0  0
 79 80  1  0  0  0
 79150  1  0  0  0
 79151  1  0  0  0
 80 83  1  0  0  0
 80 84  1  0  0  0
 80152  1  0  0  0
 81153  1  0  0  0
 81154  1  0  0  0
 81155  1  0  0  0
 82156  1  0  0  0
 82157  1  0  0  0
 82158  1  0  0  0
 83159  1  0  0  0
 83160  1  0  0  0
 85161  1  0  0  0
M  ISO  4   1 100  68 101  83 101  85 100
M  END
> <chiral flag>
0

> <version>
0

> <s_m_source_file>
/data/baiqing/PycharmProjects/Reinvent-master-3.2/result/LINK_invent/BTK/process_docking_weight1_custom_product_contain_oxygen_bond_distance_aromatic_linkinvent_7_9_3/rearranged_h_0106.sdf

> <i_m_source_file_index>
25

> <r_mmod_Potential_Energy-OPLS-2005>
540.691101074219

> <r_mmod_Stretch_Energy-OPLS-2005>
227.783218383789

> <r_mmod_Bend_Energy-OPLS-2005>
308.721771240234

> <r_mmod_Torsional_Energy-OPLS-2005>
315.860809326172

> <r_mmod_Improper_Torsional_Energy-OPLS-2005>
6.39852237701416

> <r_mmod_Van_der_Waal_Energy-OPLS-2005>
132.803100585938

> <r_mmod_Electrostatic_Energy-OPLS-2005>
-401.739318847656

> <r_mmod_Solvation_Energy-OPLS-2005>
-215.314895629883

> <b_mmod_Minimization_Converged-OPLS-2005>
0

> <r_mmod_RMS_Derivative-OPLS-2005>
1.97655642032623

$$$$
25
                    3D
 Structure written by MMmdl.
157165  0  0  1  0            999 V2000
  -30.4124  -15.2324   20.3529 C   0  0  0  0  0  0
  -30.4346  -12.7651   19.5324 C   0  0  0  0  0  0
  -29.5310  -12.5747   18.2865 C   0  0  0  0  0  0
  -28.0734  -12.3093   18.7028 C   0  0  0  0  0  0
  -27.6103  -13.2731   19.8232 C   0  0  2  0  0  0
  -28.6427  -13.4143   20.9611 C   0  0  0  0  0  0
  -25.2395  -13.8253   20.5752 C   0  0  0  0  0  0
  -24.1718  -13.0424   20.9248 C   0  0  0  0  0  0
  -24.6369  -11.6932   20.8755 C   0  0  0  0  0  0
  -23.9079  -10.4285   21.0396 C   0  0  0  0  0  0
  -24.3623   -9.4198   21.9172 C   0  0  0  0  0  0
  -23.6301   -8.2240   22.0743 C   0  0  0  0  0  0
  -22.4281   -8.0280   21.3545 C   0  0  0  0  0  0
  -21.9929   -9.0241   20.4637 C   0  0  0  0  0  0
  -22.7258  -10.2114   20.3044 C   0  0  0  0  0  0
  -21.6848   -6.0736   22.5277 C   0  0  0  0  0  0
  -21.4011   -6.5643   23.8209 C   0  0  0  0  0  0
  -21.3662   -5.6787   24.9173 C   0  0  0  0  0  0
  -21.6051   -4.3057   24.7221 C   0  0  0  0  0  0
  -21.8810   -3.8151   23.4345 C   0  0  0  0  0  0
  -21.9192   -4.6971   22.3392 C   0  0  0  0  0  0
  -22.7744  -13.5185   21.1910 C   0  0  0  0  0  0
  -22.1659   -4.2158   21.0972 F   0  0  0  0  0  0
  -21.5638   -3.4530   25.7737 F   0  0  0  0  0  0
  -29.8908  -13.9062   20.3584 N   0  0  0  0  0  0
  -26.2787  -12.9510   20.3202 N   0  0  0  0  0  0
  -25.9310  -11.6623   20.5725 N   0  0  0  0  0  0
  -22.0399  -12.8139   22.0451 N   0  0  0  0  0  0
  -25.4089  -15.1971   20.4220 N   0  0  0  0  0  0
  -31.6106  -15.2468   20.0331 O   0  0  0  0  0  0
  -21.6643   -6.8882   21.4239 O   0  0  0  0  0  0
  -22.3427  -14.5486   20.6772 O   0  0  0  0  0  0
  -24.6599  -31.8221   23.1686 C   0  0  0  0  0  0
  -25.9286  -32.4553   23.8173 C   0  0  1  0  0  0
  -27.2180  -26.9441   20.1532 C   0  0  0  0  0  0
  -25.5957  -33.8380   24.2081 N   0  0  0  0  0  0
  -23.4741  -30.4363   21.5153 C   0  0  2  0  0  0
  -24.9300  -28.8315   20.1028 C   0  0  0  0  0  0
  -22.7665  -29.4423   22.4724 C   0  0  0  0  0  0
  -18.0325  -28.1372   22.8443 C   0  0  0  0  0  0
  -24.1509  -36.7203   23.2654 C   0  0  0  0  0  0
  -26.0458  -30.6312   21.4019 C   0  0  0  0  0  0
  -26.1130  -29.2254   20.7381 C   0  0  0  0  0  0
  -27.2504  -28.3020   20.7417 C   0  0  0  0  0  0
  -26.0105  -26.7051   19.4583 C   0  0  0  0  0  0
  -24.9048  -27.5921   19.4443 C   0  0  0  0  0  0
  -23.7137  -29.7541   20.1403 C   0  0  0  0  0  0
  -25.4136  -36.2939   24.0304 C   0  0  1  0  0  0
  -20.5952  -28.3719   23.1166 C   0  0  2  0  0  0
  -20.6790  -26.9397   22.5386 C   0  0  0  0  0  0
  -19.5775  -26.6344   21.5182 C   0  0  0  0  0  0
  -18.1957  -26.7898   22.1591 C   0  0  0  0  0  0
  -19.1588  -28.8863   23.2786 C   0  0  0  0  0  0
  -18.9504  -30.1455   23.8814 C   0  0  0  0  0  0
  -17.6504  -30.6569   24.0531 C   0  0  0  0  0  0
  -25.9093  -34.9313   23.5008 C   0  0  0  0  0  0
  -16.5394  -29.9053   23.6329 C   0  0  0  0  0  0
  -16.7316  -28.6475   23.0346 C   0  0  0  0  0  0
  -26.4552  -31.6493   25.0694 C   0  0  0  0  0  0
  -25.3697  -31.3713   26.1370 C   0  0  0  0  0  0
  -27.0478  -30.2838   24.6478 C   0  0  0  0  0  0
  -27.6015  -32.4369   25.7475 C   0  0  0  0  0  0
  -27.5587  -37.1753   24.8466 C   0  0  0  0  0  0
  -21.4332  -29.3021   22.3519 N   0  0  0  0  0  0
  -26.4278  -37.3676   23.9425 N   0  0  0  0  0  0
  -24.7472  -30.9898   22.0811 N   0  0  0  0  0  0
  -23.4232  -28.7965   23.2936 O   0  0  0  0  0  0
  -28.2203  -25.8464   20.2513 O   0  0  0  0  0  0
  -26.5702  -34.8844   22.4609 O   0  0  0  0  0  0
  -23.5666  -32.1215   23.6750 O   0  0  0  0  0  0
  -30.1975  -22.3078   20.3114 C   0  0  0  0  0  0
  -30.4636  -20.7647   20.6752 C   0  0  0  0  0  0
  -28.6859  -22.6634   20.4097 C   0  0  2  0  0  0
  -28.2634  -21.0595   19.9348 C   0  0  0  0  0  0
  -26.8465  -20.7821   20.4920 C   0  0  0  0  0  0
  -28.2504  -20.9924   18.3848 C   0  0  0  0  0  0
  -29.6419  -16.7675   20.7143 C   0  0  0  0  0  0
  -28.0710  -24.2594   19.8378 C   0  0  0  0  0  0
  -29.4927  -18.3544   19.8875 C   0  0  0  0  0  0
  -29.2460  -19.9034   20.4765 N   0  3  1  0  0  0
  -31.4594  -12.9457   19.2055 H   0  0  0  0  0  0
  -30.4762  -11.8470   20.1230 H   0  0  0  0  0  0
  -29.8982  -11.7561   17.6669 H   0  0  0  0  0  0
  -29.5749  -13.4741   17.6708 H   0  0  0  0  0  0
  -28.0131  -11.2802   19.0579 H   0  0  0  0  0  0
  -27.4097  -12.3741   17.8382 H   0  0  0  0  0  0
  -27.5367  -14.2490   19.3441 H   0  0  0  0  0  0
  -28.7862  -12.4647   21.4808 H   0  0  0  0  0  0
  -28.2891  -14.1283   21.7061 H   0  0  0  0  0  0
  -25.2751   -9.5673   22.4772 H   0  0  0  0  0  0
  -23.9996   -7.4637   22.7463 H   0  0  0  0  0  0
  -21.0868   -8.8764   19.8942 H   0  0  0  0  0  0
  -22.3716  -10.9657   19.6165 H   0  0  0  0  0  0
  -21.1991   -7.6147   23.9721 H   0  0  0  0  0  0
  -21.1508   -6.0517   25.9073 H   0  0  0  0  0  0
  -22.0592   -2.7617   23.2842 H   0  0  0  0  0  0
  -22.4056  -11.9812   22.4838 H   0  0  0  0  0  0
  -21.1008  -13.1151   22.2667 H   0  0  0  0  0  0
  -24.6457  -15.8569   20.5318 H   0  0  0  0  0  0
  -26.2626  -15.6311   20.0959 H   0  0  0  0  0  0
  -26.7357  -32.5067   23.0884 H   0  0  0  0  0  0
  -25.0070  -33.9496   25.0212 H   0  0  0  0  0  0
  -22.7840  -31.2651   21.3411 H   0  0  0  0  0  0
  -23.3760  -35.9543   23.3252 H   0  0  0  0  0  0
  -24.3588  -36.8923   22.2082 H   0  0  0  0  0  0
  -23.7310  -37.6388   23.6757 H   0  0  0  0  0  0
  -26.2385  -31.3794   20.6319 H   0  0  0  0  0  0
  -26.9021  -30.6758   22.0626 H   0  0  0  0  0  0
  -28.1493  -28.6020   21.2606 H   0  0  0  0  0  0
  -25.8756  -25.7671   18.9393 H   0  0  0  0  0  0
  -24.0064  -27.2883   18.9253 H   0  0  0  0  0  0
  -23.8644  -30.5261   19.3839 H   0  0  0  0  0  0
  -22.8251  -29.2064   19.8220 H   0  0  0  0  0  0
  -25.1320  -36.1707   25.0793 H   0  0  0  0  0  0
  -21.0049  -28.3316   24.1286 H   0  0  0  0  0  0
  -20.5647  -26.2337   23.3621 H   0  0  0  0  0  0
  -21.6656  -26.7347   22.1227 H   0  0  0  0  0  0
  -19.6944  -25.6244   21.1242 H   0  0  0  0  0  0
  -19.6702  -27.3121   20.6685 H   0  0  0  0  0  0
  -17.4224  -26.6641   21.3992 H   0  0  0  0  0  0
  -18.0333  -26.0044   22.8987 H   0  0  0  0  0  0
  -19.7988  -30.7270   24.2167 H   0  0  0  0  0  0
  -17.5055  -31.6237   24.5151 H   0  0  0  0  0  0
  -15.5391  -30.2916   23.7705 H   0  0  0  0  0  0
  -15.8719  -28.0776   22.7103 H   0  0  0  0  0  0
  -24.5904  -30.7031   25.7689 H   0  0  0  0  0  0
  -24.8849  -32.2890   26.4691 H   0  0  0  0  0  0
  -25.7950  -30.8967   27.0226 H   0  0  0  0  0  0
  -26.3175  -29.6445   24.1507 H   0  0  0  0  0  0
  -27.4004  -29.7249   25.5161 H   0  0  0  0  0  0
  -27.9097  -30.3960   23.9904 H   0  0  0  0  0  0
  -27.2563  -33.3752   26.1828 H   0  0  0  0  0  0
  -28.3891  -32.6848   25.0347 H   0  0  0  0  0  0
  -28.0601  -31.8679   26.5571 H   0  0  0  0  0  0
  -28.2521  -38.0128   24.7520 H   0  0  0  0  0  0
  -28.1179  -36.2634   24.6259 H   0  0  0  0  0  0
  -27.2294  -37.1342   25.8870 H   0  0  0  0  0  0
  -20.9554  -29.8817   21.6761 H   0  0  0  0  0  0
  -26.0097  -38.2726   24.1435 H   0  0  0  0  0  0
  -30.5234  -22.4851   19.2853 H   0  0  0  0  0  0
  -30.8128  -22.9661   20.9247 H   0  0  0  0  0  0
  -30.7641  -20.6732   21.7186 H   0  0  0  0  0  0
  -31.2979  -20.3966   20.0775 H   0  0  0  0  0  0
  -28.4693  -22.6945   21.4790 H   0  0  0  0  0  0
  -26.1132  -21.5094   20.1392 H   0  0  0  0  0  0
  -26.8369  -20.8380   21.5808 H   0  0  0  0  0  0
  -26.4756  -19.7929   20.2243 H   0  0  0  0  0  0
  -27.6260  -21.7660   17.9390 H   0  0  0  0  0  0
  -27.8948  -20.0364   18.0013 H   0  0  0  0  0  0
  -29.2506  -21.1269   17.9752 H   0  0  0  0  0  0
  -28.6248  -16.4921   20.9941 H   0  0  0  0  0  0
  -30.1106  -17.0217   21.6646 H   0  0  0  0  0  0
  -26.9925  -24.1039   19.8045 H   0  0  0  0  0  0
  -28.3679  -24.2720   18.7880 H   0  0  0  0  0  0
  -28.6455  -18.2047   19.2185 H   0  0  0  0  0  0
  -30.3341  -18.4261   19.1966 H   0  0  0  0  0  0
  -28.9039  -19.7466   21.4123 H   0  0  0  0  0  0
  1 25  1  0  0  0
  1 30  2  0  0  0
  1 77  1  0  0  0
  2  3  1  0  0  0
  2 25  1  0  0  0
  2 81  1  0  0  0
  2 82  1  0  0  0
  3  4  1  0  0  0
  3 83  1  0  0  0
  3 84  1  0  0  0
  4  5  1  0  0  0
  4 85  1  0  0  0
  4 86  1  0  0  0
  5  6  1  0  0  0
  5 26  1  0  0  0
  5 87  1  0  0  0
  6 25  1  0  0  0
  6 88  1  0  0  0
  6 89  1  0  0  0
  7  8  2  0  0  0
  7 26  1  0  0  0
  7 29  1  0  0  0
  8  9  1  0  0  0
  8 22  1  0  0  0
  9 10  1  0  0  0
  9 27  2  0  0  0
 10 11  2  0  0  0
 10 15  1  0  0  0
 11 12  1  0  0  0
 11 90  1  0  0  0
 12 13  2  0  0  0
 12 91  1  0  0  0
 13 14  1  0  0  0
 13 31  1  0  0  0
 14 15  2  0  0  0
 14 92  1  0  0  0
 15 93  1  0  0  0
 16 17  2  0  0  0
 16 21  1  0  0  0
 16 31  1  0  0  0
 17 18  1  0  0  0
 17 94  1  0  0  0
 18 19  2  0  0  0
 18 95  1  0  0  0
 19 20  1  0  0  0
 19 24  1  0  0  0
 20 21  2  0  0  0
 20 96  1  0  0  0
 21 23  1  0  0  0
 22 28  1  0  0  0
 22 32  2  0  0  0
 26 27  1  0  0  0
 28 97  1  0  0  0
 28 98  1  0  0  0
 29 99  1  0  0  0
 29100  1  0  0  0
 33 34  1  0  0  0
 33 66  1  0  0  0
 33 70  2  0  0  0
 34 36  1  0  0  0
 34 59  1  0  0  0
 34101  1  0  0  0
 35 44  2  0  0  0
 35 45  1  0  0  0
 35 68  1  0  0  0
 36 56  1  0  0  0
 36102  1  0  0  0
 37 39  1  0  0  0
 37 47  1  0  0  0
 37 66  1  0  0  0
 37103  1  0  0  0
 38 43  2  0  0  0
 38 46  1  0  0  0
 38 47  1  0  0  0
 39 64  1  0  0  0
 39 67  2  0  0  0
 40 52  1  0  0  0
 40 53  2  0  0  0
 40 58  1  0  0  0
 41104  1  0  0  0
 41105  1  0  0  0
 41106  1  0  0  0
 41 48  1  0  0  0
 42 43  1  0  0  0
 42 66  1  0  0  0
 42107  1  0  0  0
 42108  1  0  0  0
 43 44  1  0  0  0
 44109  1  0  0  0
 45 46  2  0  0  0
 45110  1  0  0  0
 46111  1  0  0  0
 47112  1  0  0  0
 47113  1  0  0  0
 48 56  1  0  0  0
 48 65  1  0  0  0
 48114  1  0  0  0
 49 50  1  0  0  0
 49 53  1  0  0  0
 49 64  1  0  0  0
 49115  1  0  0  0
 50 51  1  0  0  0
 50116  1  0  0  0
 50117  1  0  0  0
 51 52  1  0  0  0
 51118  1  0  0  0
 51119  1  0  0  0
 52120  1  0  0  0
 52121  1  0  0  0
 53 54  1  0  0  0
 54 55  2  0  0  0
 54122  1  0  0  0
 55 57  1  0  0  0
 55123  1  0  0  0
 56 69  2  0  0  0
 57 58  2  0  0  0
 57124  1  0  0  0
 58125  1  0  0  0
 59 60  1  0  0  0
 59 61  1  0  0  0
 59 62  1  0  0  0
 60126  1  0  0  0
 60127  1  0  0  0
 60128  1  0  0  0
 61129  1  0  0  0
 61130  1  0  0  0
 61131  1  0  0  0
 62132  1  0  0  0
 62133  1  0  0  0
 62134  1  0  0  0
 63 65  1  0  0  0
 63135  1  0  0  0
 63136  1  0  0  0
 63137  1  0  0  0
 64138  1  0  0  0
 65139  1  0  0  0
 68 78  1  0  0  0
 71 72  1  0  0  0
 71 73  1  0  0  0
 71140  1  0  0  0
 71141  1  0  0  0
 72 80  1  0  0  0
 72142  1  0  0  0
 72143  1  0  0  0
 73 74  1  0  0  0
 73 78  1  0  0  0
 73144  1  0  0  0
 74 75  1  0  0  0
 74 76  1  0  0  0
 74 80  1  0  0  0
 75145  1  0  0  0
 75146  1  0  0  0
 75147  1  0  0  0
 76148  1  0  0  0
 76149  1  0  0  0
 76150  1  0  0  0
 77 79  1  0  0  0
 77151  1  0  0  0
 77152  1  0  0  0
 78153  1  0  0  0
 78154  1  0  0  0
 79155  1  0  0  0
 79156  1  0  0  0
 79 80  1  0  0  0
 80157  1  0  0  0
M  CHG  1  80   1
M  ISO  4   1 100  68 101  77 100  78 101
M  END
> <chiral flag>
0

> <version>
0

> <s_m_source_file>
/data/baiqing/PycharmProjects/Reinvent-master-3.2/result/LINK_invent/BTK/process_docking_weight1_custom_product_contain_oxygen_bond_distance_aromatic_linkinvent_7_9_3/rearranged_h_0106.sdf

> <i_m_source_file_index>
26

> <r_mmod_Potential_Energy-OPLS-2005>
1192.56213378906

> <r_mmod_Stretch_Energy-OPLS-2005>
567.952819824219

> <r_mmod_Bend_Energy-OPLS-2005>
481.898834228516

> <r_mmod_Torsional_Energy-OPLS-2005>
255.429992675781

> <r_mmod_Improper_Torsional_Energy-OPLS-2005>
1.6203134059906

> <r_mmod_Van_der_Waal_Energy-OPLS-2005>
106.000152587891

> <r_mmod_Electrostatic_Energy-OPLS-2005>
-211.823272705078

> <r_mmod_Solvation_Energy-OPLS-2005>
-435.274139404297

> <b_mmod_Minimization_Converged-OPLS-2005>
0

> <r_mmod_RMS_Derivative-OPLS-2005>
4.36188411712646

$$$$
26
                    3D
 Structure written by MMmdl.
161169  0  0  1  0            999 V2000
  -30.7687  -14.3526   20.6818 C   0  0  0  0  0  0
  -30.4130  -12.2811   19.3850 C   0  0  0  0  0  0
  -29.4784  -12.5283   18.1874 C   0  0  0  0  0  0
  -28.0038  -12.3846   18.6079 C   0  0  0  0  0  0
  -27.6685  -13.2016   19.8840 C   0  0  2  0  0  0
  -28.7120  -12.9365   20.9932 C   0  0  0  0  0  0
  -25.2622  -13.8159   20.5688 C   0  0  0  0  0  0
  -24.1864  -13.0446   20.9194 C   0  0  0  0  0  0
  -24.6407  -11.6911   20.8744 C   0  0  0  0  0  0
  -23.9064  -10.4306   21.0409 C   0  0  0  0  0  0
  -24.3621   -9.4223   21.9183 C   0  0  0  0  0  0
  -23.6307   -8.2255   22.0756 C   0  0  0  0  0  0
  -22.4290   -8.0287   21.3543 C   0  0  0  0  0  0
  -21.9918   -9.0265   20.4651 C   0  0  0  0  0  0
  -22.7239  -10.2151   20.3060 C   0  0  0  0  0  0
  -21.6856   -6.0748   22.5282 C   0  0  0  0  0  0
  -21.4008   -6.5646   23.8215 C   0  0  0  0  0  0
  -21.3661   -5.6796   24.9174 C   0  0  0  0  0  0
  -21.6049   -4.3059   24.7222 C   0  0  0  0  0  0
  -21.8817   -3.8157   23.4339 C   0  0  0  0  0  0
  -21.9193   -4.6978   22.3401 C   0  0  0  0  0  0
  -22.7881  -13.5251   21.1851 C   0  0  0  0  0  0
  -22.1659   -4.2165   21.0976 F   0  0  0  0  0  0
  -21.5638   -3.4541   25.7732 F   0  0  0  0  0  0
  -30.0457  -13.2286   20.4456 N   0  0  0  0  0  0
  -26.3067  -12.9322   20.3423 N   0  0  0  0  0  0
  -25.9332  -11.6481   20.5787 N   0  0  0  0  0  0
  -22.0511  -12.8249   22.0406 N   0  0  0  0  0  0
  -25.4335  -15.1869   20.4053 N   0  0  0  0  0  0
  -31.8277  -14.5787   20.0891 O   0  0  0  0  0  0
  -21.6646   -6.8891   21.4244 O   0  0  0  0  0  0
  -22.3573  -14.5556   20.6693 O   0  0  0  0  0  0
  -24.6111  -31.8710   23.2140 C   0  0  0  0  0  0
  -25.9021  -32.4835   23.8419 C   0  0  1  0  0  0
  -27.2327  -27.4677   20.0734 C   0  0  0  0  0  0
  -25.5887  -33.8635   24.2352 N   0  0  0  0  0  0
  -23.3964  -30.4975   21.5548 C   0  0  2  0  0  0
  -24.8382  -28.9695   20.1167 C   0  0  0  0  0  0
  -22.7386  -29.4676   22.5004 C   0  0  0  0  0  0
  -18.0263  -28.1369   22.8495 C   0  0  0  0  0  0
  -24.1492  -36.7327   23.2641 C   0  0  0  0  0  0
  -25.9232  -30.8431   21.3651 C   0  0  0  0  0  0
  -25.9968  -29.4802   20.7125 C   0  0  0  0  0  0
  -27.1925  -28.7326   20.6965 C   0  0  0  0  0  0
  -26.0487  -26.9625   19.4799 C   0  0  0  0  0  0
  -24.8564  -27.7061   19.5046 C   0  0  0  0  0  0
  -23.6006  -29.8335   20.1679 C   0  0  0  0  0  0
  -25.4111  -36.3125   24.0343 C   0  0  1  0  0  0
  -20.5852  -28.3655   23.1325 C   0  0  2  0  0  0
  -20.6757  -26.9396   22.5419 C   0  0  0  0  0  0
  -19.5737  -26.6383   21.5213 C   0  0  0  0  0  0
  -18.1913  -26.7914   22.1625 C   0  0  0  0  0  0
  -19.1513  -28.8826   23.2907 C   0  0  0  0  0  0
  -18.9444  -30.1430   23.8921 C   0  0  0  0  0  0
  -17.6450  -30.6578   24.0567 C   0  0  0  0  0  0
  -25.9033  -34.9484   23.5147 C   0  0  0  0  0  0
  -16.5340  -29.9086   23.6320 C   0  0  0  0  0  0
  -16.7254  -28.6499   23.0345 C   0  0  0  0  0  0
  -26.4467  -31.6598   25.0729 C   0  0  0  0  0  0
  -25.3748  -31.3688   26.1487 C   0  0  0  0  0  0
  -27.0298  -30.3048   24.6077 C   0  0  0  0  0  0
  -27.6052  -32.4311   25.7482 C   0  0  0  0  0  0
  -27.5585  -37.1822   24.8466 C   0  0  0  0  0  0
  -21.4120  -29.3026   22.3735 N   0  0  0  0  0  0
  -26.4304  -37.3800   23.9402 N   0  0  0  0  0  0
  -24.6619  -31.0837   22.1032 N   0  0  0  0  0  0
  -23.4179  -28.8212   23.3023 O   0  0  0  0  0  0
  -28.4322  -26.7891   20.0688 O   0  0  0  0  0  0
  -26.5593  -34.8926   22.4706 O   0  0  0  0  0  0
  -23.5312  -32.1450   23.7550 O   0  0  0  0  0  0
  -27.8400  -21.0030   17.9738 C   0  0  0  0  0  0
  -27.6844  -19.7017   17.4637 C   0  0  0  0  0  0
  -29.6073  -20.2067   19.4497 C   0  0  0  0  0  0
  -29.4551  -18.8940   18.9546 C   0  0  0  0  0  0
  -28.8157  -21.2572   18.9543 C   0  0  0  0  0  0
  -28.4894  -18.6435   17.9353 C   0  0  0  0  0  0
  -30.3367  -17.8242   19.5308 C   0  0  0  0  0  0
  -29.8915  -23.4398   19.1108 C   0  0  0  0  0  0
  -30.2763  -15.3687   21.7306 C   0  0  0  0  0  0
  -29.8128  -24.8239   19.7541 C   0  0  0  0  0  0
  -30.9826  -16.7482   21.7069 C   0  0  0  0  0  0
  -28.4608  -25.4960   19.4788 C   0  0  0  0  0  0
  -28.2736  -17.3767   17.3867 N   0  0  0  0  0  0
  -28.9589  -22.5519   19.4854 N   0  0  0  0  0  0
  -30.2918  -17.7261   20.8666 N   0  0  0  0  0  0
  -31.0197  -17.0996   18.8057 O   0  0  0  0  0  0
  -30.7902  -23.1816   18.3054 O   0  0  0  0  0  0
  -31.4546  -12.3740   19.0742 H   0  0  0  0  0  0
  -30.3070  -11.2576   19.7494 H   0  0  0  0  0  0
  -29.7076  -11.8338   17.3780 H   0  0  0  0  0  0
  -29.6498  -13.5297   17.7893 H   0  0  0  0  0  0
  -27.8088  -11.3258   18.7824 H   0  0  0  0  0  0
  -27.3482  -12.6825   17.7890 H   0  0  0  0  0  0
  -27.7298  -14.2570   19.6179 H   0  0  0  0  0  0
  -28.6760  -11.8908   21.3018 H   0  0  0  0  0  0
  -28.4754  -13.5026   21.8932 H   0  0  0  0  0  0
  -25.2770   -9.5715   22.4748 H   0  0  0  0  0  0
  -24.0034   -7.4653   22.7467 H   0  0  0  0  0  0
  -21.0854   -8.8776   19.8960 H   0  0  0  0  0  0
  -22.3690  -10.9687   19.6173 H   0  0  0  0  0  0
  -21.1983   -7.6152   23.9718 H   0  0  0  0  0  0
  -21.1488   -6.0526   25.9078 H   0  0  0  0  0  0
  -22.0595   -2.7621   23.2829 H   0  0  0  0  0  0
  -22.4121  -11.9905   22.4786 H   0  0  0  0  0  0
  -21.1130  -13.1272   22.2607 H   0  0  0  0  0  0
  -24.6634  -15.8409   20.4952 H   0  0  0  0  0  0
  -26.2829  -15.6202   20.0624 H   0  0  0  0  0  0
  -26.7088  -32.5553   23.1183 H   0  0  0  0  0  0
  -25.0034  -33.9805   25.0492 H   0  0  0  0  0  0
  -22.6844  -31.3141   21.4199 H   0  0  0  0  0  0
  -23.3744  -35.9671   23.3323 H   0  0  0  0  0  0
  -24.3591  -36.8919   22.2053 H   0  0  0  0  0  0
  -23.7257  -37.6547   23.6635 H   0  0  0  0  0  0
  -26.0349  -31.6110   20.5985 H   0  0  0  0  0  0
  -26.8128  -30.8934   21.9811 H   0  0  0  0  0  0
  -28.0881  -29.1266   21.1559 H   0  0  0  0  0  0
  -26.0165  -26.0044   18.9831 H   0  0  0  0  0  0
  -23.9634  -27.3069   19.0433 H   0  0  0  0  0  0
  -23.7058  -30.6101   19.4098 H   0  0  0  0  0  0
  -22.7248  -29.2529   19.8729 H   0  0  0  0  0  0
  -25.1286  -36.2012   25.0838 H   0  0  0  0  0  0
  -20.9943  -28.3215   24.1446 H   0  0  0  0  0  0
  -20.5658  -26.2262   23.3599 H   0  0  0  0  0  0
  -21.6627  -26.7434   22.1213 H   0  0  0  0  0  0
  -19.6903  -25.6302   21.1220 H   0  0  0  0  0  0
  -19.6677  -27.3210   20.6757 H   0  0  0  0  0  0
  -17.4183  -26.6656   21.4026 H   0  0  0  0  0  0
  -18.0319  -26.0051   22.9019 H   0  0  0  0  0  0
  -19.7922  -30.7231   24.2308 H   0  0  0  0  0  0
  -17.5008  -31.6262   24.5161 H   0  0  0  0  0  0
  -15.5341  -30.3000   23.7625 H   0  0  0  0  0  0
  -15.8652  -28.0826   22.7052 H   0  0  0  0  0  0
  -24.5900  -30.7061   25.7823 H   0  0  0  0  0  0
  -24.8962  -32.2839   26.4981 H   0  0  0  0  0  0
  -25.8107  -30.8819   27.0219 H   0  0  0  0  0  0
  -26.2833  -29.6807   24.1147 H   0  0  0  0  0  0
  -27.4109  -29.7276   25.4513 H   0  0  0  0  0  0
  -27.8651  -30.4387   23.9197 H   0  0  0  0  0  0
  -27.2669  -33.3576   26.2133 H   0  0  0  0  0  0
  -28.3815  -32.6928   25.0279 H   0  0  0  0  0  0
  -28.0776  -31.8397   26.5337 H   0  0  0  0  0  0
  -28.2619  -38.0104   24.7491 H   0  0  0  0  0  0
  -28.1062  -36.2631   24.6316 H   0  0  0  0  0  0
  -27.2294  -37.1506   25.8869 H   0  0  0  0  0  0
  -20.9266  -29.8772   21.6986 H   0  0  0  0  0  0
  -26.0201  -38.2889   24.1378 H   0  0  0  0  0  0
  -27.2132  -21.8015   17.6025 H   0  0  0  0  0  0
  -26.9324  -19.5278   16.7067 H   0  0  0  0  0  0
  -30.3451  -20.4103   20.2139 H   0  0  0  0  0  0
  -29.2034  -15.5296   21.6323 H   0  0  0  0  0  0
  -30.4341  -14.9089   22.7067 H   0  0  0  0  0  0
  -30.6219  -25.4464   19.3712 H   0  0  0  0  0  0
  -29.9738  -24.7240   20.8282 H   0  0  0  0  0  0
  -32.0335  -16.6776   21.4212 H   0  0  0  0  0  0
  -30.9910  -17.1500   22.7205 H   0  0  0  0  0  0
  -27.6675  -24.8818   19.9089 H   0  0  0  0  0  0
  -28.2876  -25.5741   18.4038 H   0  0  0  0  0  0
  -27.7778  -17.3142   16.5029 H   0  0  0  0  0  0
  -29.0356  -16.7076   17.4504 H   0  0  0  0  0  0
  -28.2508  -22.8583   20.1389 H   0  0  0  0  0  0
  -29.6885  -18.3856   21.3399 H   0  0  0  0  0  0
  1 25  1  0  0  0
  1 30  2  0  0  0
  1 79  1  0  0  0
  2  3  1  0  0  0
  2 25  1  0  0  0
  2 88  1  0  0  0
  2 89  1  0  0  0
  3  4  1  0  0  0
  3 90  1  0  0  0
  3 91  1  0  0  0
  4  5  1  0  0  0
  4 92  1  0  0  0
  4 93  1  0  0  0
  5  6  1  0  0  0
  5 26  1  0  0  0
  5 94  1  0  0  0
  6 25  1  0  0  0
  6 95  1  0  0  0
  6 96  1  0  0  0
  7  8  2  0  0  0
  7 26  1  0  0  0
  7 29  1  0  0  0
  8  9  1  0  0  0
  8 22  1  0  0  0
  9 10  1  0  0  0
  9 27  2  0  0  0
 10 11  2  0  0  0
 10 15  1  0  0  0
 11 12  1  0  0  0
 11 97  1  0  0  0
 12 13  2  0  0  0
 12 98  1  0  0  0
 13 14  1  0  0  0
 13 31  1  0  0  0
 14 15  2  0  0  0
 14 99  1  0  0  0
 15100  1  0  0  0
 16 17  2  0  0  0
 16 21  1  0  0  0
 16 31  1  0  0  0
 17 18  1  0  0  0
 17101  1  0  0  0
 18 19  2  0  0  0
 18102  1  0  0  0
 19 20  1  0  0  0
 19 24  1  0  0  0
 20 21  2  0  0  0
 20103  1  0  0  0
 21 23  1  0  0  0
 22 28  1  0  0  0
 22 32  2  0  0  0
 26 27  1  0  0  0
 28104  1  0  0  0
 28105  1  0  0  0
 29106  1  0  0  0
 29107  1  0  0  0
 33 34  1  0  0  0
 33 66  1  0  0  0
 33 70  2  0  0  0
 34 36  1  0  0  0
 34 59  1  0  0  0
 34108  1  0  0  0
 35 44  2  0  0  0
 35 45  1  0  0  0
 35 68  1  0  0  0
 36 56  1  0  0  0
 36109  1  0  0  0
 37 39  1  0  0  0
 37 47  1  0  0  0
 37 66  1  0  0  0
 37110  1  0  0  0
 38 43  2  0  0  0
 38 46  1  0  0  0
 38 47  1  0  0  0
 39 64  1  0  0  0
 39 67  2  0  0  0
 40 52  1  0  0  0
 40 53  2  0  0  0
 40 58  1  0  0  0
 41111  1  0  0  0
 41112  1  0  0  0
 41113  1  0  0  0
 41 48  1  0  0  0
 42 43  1  0  0  0
 42 66  1  0  0  0
 42114  1  0  0  0
 42115  1  0  0  0
 43 44  1  0  0  0
 44116  1  0  0  0
 45 46  2  0  0  0
 45117  1  0  0  0
 46118  1  0  0  0
 47119  1  0  0  0
 47120  1  0  0  0
 48 56  1  0  0  0
 48 65  1  0  0  0
 48121  1  0  0  0
 49 50  1  0  0  0
 49 53  1  0  0  0
 49 64  1  0  0  0
 49122  1  0  0  0
 50 51  1  0  0  0
 50123  1  0  0  0
 50124  1  0  0  0
 51 52  1  0  0  0
 51125  1  0  0  0
 51126  1  0  0  0
 52127  1  0  0  0
 52128  1  0  0  0
 53 54  1  0  0  0
 54 55  2  0  0  0
 54129  1  0  0  0
 55 57  1  0  0  0
 55130  1  0  0  0
 56 69  2  0  0  0
 57 58  2  0  0  0
 57131  1  0  0  0
 58132  1  0  0  0
 59 60  1  0  0  0
 59 61  1  0  0  0
 59 62  1  0  0  0
 60133  1  0  0  0
 60134  1  0  0  0
 60135  1  0  0  0
 61136  1  0  0  0
 61137  1  0  0  0
 61138  1  0  0  0
 62139  1  0  0  0
 62140  1  0  0  0
 62141  1  0  0  0
 63 65  1  0  0  0
 63142  1  0  0  0
 63143  1  0  0  0
 63144  1  0  0  0
 64145  1  0  0  0
 65146  1  0  0  0
 68 82  1  0  0  0
 71 72  2  0  0  0
 71 75  1  0  0  0
 71147  1  0  0  0
 72 76  1  0  0  0
 72148  1  0  0  0
 73 74  1  0  0  0
 73 75  2  0  0  0
 73149  1  0  0  0
 74 76  2  0  0  0
 74 77  1  0  0  0
 75 84  1  0  0  0
 76 83  1  0  0  0
 77 85  1  0  0  0
 77 86  2  0  0  0
 78 80  1  0  0  0
 78 84  1  0  0  0
 78 87  2  0  0  0
 79 81  1  0  0  0
 79150  1  0  0  0
 79151  1  0  0  0
 80 82  1  0  0  0
 80152  1  0  0  0
 80153  1  0  0  0
 81 85  1  0  0  0
 81154  1  0  0  0
 81155  1  0  0  0
 82156  1  0  0  0
 82157  1  0  0  0
 83158  1  0  0  0
 83159  1  0  0  0
 84160  1  0  0  0
 85161  1  0  0  0
M  ISO  4   1 100  68 101  79 100  82 101
M  END
> <chiral flag>
0

> <version>
0

> <s_m_source_file>
/data/baiqing/PycharmProjects/Reinvent-master-3.2/result/LINK_invent/BTK/process_docking_weight1_custom_product_contain_oxygen_bond_distance_aromatic_linkinvent_7_9_3/rearranged_h_0106.sdf

> <i_m_source_file_index>
27

> <r_mmod_Potential_Energy-OPLS-2005>
-82.7801742553711

> <r_mmod_Stretch_Energy-OPLS-2005>
32.2924385070801

> <r_mmod_Bend_Energy-OPLS-2005>
95.4496154785156

> <r_mmod_Torsional_Energy-OPLS-2005>
216.754272460938

> <r_mmod_Improper_Torsional_Energy-OPLS-2005>
5.49828195571899

> <r_mmod_Van_der_Waal_Energy-OPLS-2005>
158.432647705078

> <r_mmod_Electrostatic_Energy-OPLS-2005>
-335.023498535156

> <r_mmod_Solvation_Energy-OPLS-2005>
-264.739074707031

> <b_mmod_Minimization_Converged-OPLS-2005>
0

> <r_mmod_RMS_Derivative-OPLS-2005>
1.0869072675705

$$$$
27
                    3D
 Structure written by MMmdl.
163172  0  0  1  0            999 V2000
  -30.6552  -14.6849   20.5421 C   0  0  0  0  0  0
  -30.4277  -12.4349   19.4667 C   0  0  0  0  0  0
  -29.5074  -12.5240   18.2308 C   0  0  0  0  0  0
  -28.0339  -12.3461   18.6415 C   0  0  0  0  0  0
  -27.6470  -13.2284   19.8580 C   0  0  2  0  0  0
  -28.6880  -13.1243   20.9929 C   0  0  0  0  0  0
  -25.2507  -13.8173   20.5693 C   0  0  0  0  0  0
  -24.1798  -13.0422   20.9198 C   0  0  0  0  0  0
  -24.6389  -11.6905   20.8733 C   0  0  0  0  0  0
  -23.9060  -10.4288   21.0395 C   0  0  0  0  0  0
  -24.3642   -9.4190   21.9139 C   0  0  0  0  0  0
  -23.6317   -8.2228   22.0713 C   0  0  0  0  0  0
  -22.4277   -8.0284   21.3536 C   0  0  0  0  0  0
  -21.9895   -9.0267   20.4664 C   0  0  0  0  0  0
  -22.7211  -10.2150   20.3074 C   0  0  0  0  0  0
  -21.6855   -6.0748   22.5273 C   0  0  0  0  0  0
  -21.4027   -6.5662   23.8207 C   0  0  0  0  0  0
  -21.3665   -5.6818   24.9173 C   0  0  0  0  0  0
  -21.6045   -4.3076   24.7226 C   0  0  0  0  0  0
  -21.8818   -3.8162   23.4351 C   0  0  0  0  0  0
  -21.9189   -4.6975   22.3402 C   0  0  0  0  0  0
  -22.7818  -13.5213   21.1849 C   0  0  0  0  0  0
  -22.1657   -4.2157   21.0981 F   0  0  0  0  0  0
  -21.5633   -3.4562   25.7739 F   0  0  0  0  0  0
  -30.0016  -13.4755   20.4318 N   0  0  0  0  0  0
  -26.2951  -12.9388   20.3293 N   0  0  0  0  0  0
  -25.9320  -11.6526   20.5738 N   0  0  0  0  0  0
  -22.0436  -12.8187   22.0367 N   0  0  0  0  0  0
  -25.4136  -15.1896   20.4110 N   0  0  0  0  0  0
  -31.7676  -14.8349   20.0265 O   0  0  0  0  0  0
  -21.6641   -6.8884   21.4233 O   0  0  0  0  0  0
  -22.3513  -14.5527   20.6705 O   0  0  0  0  0  0
  -24.6284  -31.8560   23.1986 C   0  0  0  0  0  0
  -25.9126  -32.4757   23.8322 C   0  0  1  0  0  0
  -27.2289  -27.2900   20.1118 C   0  0  0  0  0  0
  -25.5938  -33.8557   24.2252 N   0  0  0  0  0  0
  -23.4229  -30.4778   21.5415 C   0  0  2  0  0  0
  -24.8689  -28.9236   20.1080 C   0  0  0  0  0  0
  -22.7484  -29.4602   22.4920 C   0  0  0  0  0  0
  -18.0289  -28.1390   22.8491 C   0  0  0  0  0  0
  -24.1478  -36.7274   23.2641 C   0  0  0  0  0  0
  -25.9649  -30.7764   21.3723 C   0  0  0  0  0  0
  -26.0369  -29.4006   20.7135 C   0  0  0  0  0  0
  -27.2145  -28.5934   20.7081 C   0  0  0  0  0  0
  -26.0326  -26.8638   19.4925 C   0  0  0  0  0  0
  -24.8695  -27.6621   19.4913 C   0  0  0  0  0  0
  -23.6381  -29.8073   20.1572 C   0  0  0  0  0  0
  -25.4108  -36.3063   24.0328 C   0  0  1  0  0  0
  -20.5890  -28.3689   23.1280 C   0  0  2  0  0  0
  -20.6775  -26.9412   22.5409 C   0  0  0  0  0  0
  -19.5749  -26.6386   21.5212 C   0  0  0  0  0  0
  -18.1931  -26.7935   22.1625 C   0  0  0  0  0  0
  -19.1543  -28.8857   23.2884 C   0  0  0  0  0  0
  -18.9462  -30.1461   23.8900 C   0  0  0  0  0  0
  -17.6461  -30.6592   24.0561 C   0  0  0  0  0  0
  -25.9053  -34.9436   23.5088 C   0  0  0  0  0  0
  -16.5352  -29.9089   23.6328 C   0  0  0  0  0  0
  -16.7275  -28.6505   23.0352 C   0  0  0  0  0  0
  -26.4492  -31.6587   25.0709 C   0  0  0  0  0  0
  -25.3718  -31.3742   26.1432 C   0  0  0  0  0  0
  -27.0335  -30.3009   24.6191 C   0  0  0  0  0  0
  -27.6041  -32.4327   25.7489 C   0  0  0  0  0  0
  -27.5570  -37.1795   24.8470 C   0  0  0  0  0  0
  -21.4193  -29.3040   22.3669 N   0  0  0  0  0  0
  -26.4278  -37.3767   23.9414 N   0  0  0  0  0  0
  -24.6913  -31.0548   22.0941 N   0  0  0  0  0  0
  -23.4202  -28.8147   23.3006 O   0  0  0  0  0  0
  -28.3620  -26.4563   20.1899 O   0  0  0  0  0  0
  -26.5611  -34.8911   22.4650 O   0  0  0  0  0  0
  -23.5445  -32.1361   23.7315 O   0  0  0  0  0  0
  -30.2230  -19.5756   20.9098 C   0  0  0  0  0  0
  -30.6373  -18.2081   21.0691 C   0  0  0  0  0  0
  -28.5095  -17.4578   20.2830 C   0  0  0  0  0  0
  -28.9102  -19.9377   20.4953 C   0  0  0  0  0  0
  -29.7820  -17.0964   20.7956 C   0  0  0  0  0  0
  -28.0833  -18.8176   20.1486 C   0  0  0  0  0  0
  -28.7943  -22.5448   20.0395 C   0  0  0  0  0  0
  -28.2109  -23.7805   20.2920 C   0  0  0  0  0  0
  -27.0993  -23.8708   21.3268 C   0  0  0  0  0  0
  -27.0257  -22.6131   22.2145 C   0  0  0  0  0  0
  -27.1416  -21.3152   21.3948 C   0  0  0  0  0  0
  -29.2298  -16.2472   23.5772 C   0  0  0  0  0  0
  -28.4877  -25.1319   19.5126 C   0  0  0  0  0  0
  -30.3317  -15.6061   22.7123 C   0  0  0  0  0  0
  -28.3798  -21.2918   20.6069 N   0  0  0  0  0  0
  -30.0706  -15.7165   21.2645 N   0  0  0  0  0  0
  -26.8157  -19.0353   19.7179 F   0  0  0  0  0  0
  -31.4715  -12.5461   19.1688 H   0  0  0  0  0  0
  -30.3577  -11.4473   19.9253 H   0  0  0  0  0  0
  -29.7855  -11.7668   17.4967 H   0  0  0  0  0  0
  -29.6404  -13.4891   17.7392 H   0  0  0  0  0  0
  -27.8849  -11.2933   18.8851 H   0  0  0  0  0  0
  -27.3779  -12.5590   17.7966 H   0  0  0  0  0  0
  -27.6557  -14.2586   19.5031 H   0  0  0  0  0  0
  -28.7122  -12.1143   21.4039 H   0  0  0  0  0  0
  -28.4065  -13.7787   21.8178 H   0  0  0  0  0  0
  -25.2820   -9.5650   22.4669 H   0  0  0  0  0  0
  -24.0051   -7.4599   22.7397 H   0  0  0  0  0  0
  -21.0810   -8.8792   19.9000 H   0  0  0  0  0  0
  -22.3633  -10.9705   19.6217 H   0  0  0  0  0  0
  -21.2026   -7.6170   23.9701 H   0  0  0  0  0  0
  -21.1488   -6.0558   25.9072 H   0  0  0  0  0  0
  -22.0591   -2.7622   23.2848 H   0  0  0  0  0  0
  -22.3989  -11.9791   22.4690 H   0  0  0  0  0  0
  -21.1044  -13.1211   22.2529 H   0  0  0  0  0  0
  -24.6392  -15.8365   20.5112 H   0  0  0  0  0  0
  -26.2517  -15.6283   20.0581 H   0  0  0  0  0  0
  -26.7188  -32.5401   23.1063 H   0  0  0  0  0  0
  -25.0111  -33.9698   25.0416 H   0  0  0  0  0  0
  -22.7180  -31.2988   21.3971 H   0  0  0  0  0  0
  -23.3743  -35.9604   23.3301 H   0  0  0  0  0  0
  -24.3563  -36.8894   22.2055 H   0  0  0  0  0  0
  -23.7230  -37.6476   23.6660 H   0  0  0  0  0  0
  -26.1000  -31.5375   20.6023 H   0  0  0  0  0  0
  -26.8443  -30.8247   22.0032 H   0  0  0  0  0  0
  -28.1096  -28.9547   21.1949 H   0  0  0  0  0  0
  -25.9581  -25.8882   19.0373 H   0  0  0  0  0  0
  -23.9696  -27.2878   19.0230 H   0  0  0  0  0  0
  -23.7610  -30.5818   19.3995 H   0  0  0  0  0  0
  -22.7569  -29.2381   19.8548 H   0  0  0  0  0  0
  -25.1292  -36.1900   25.0820 H   0  0  0  0  0  0
  -20.9989  -28.3262   24.1397 H   0  0  0  0  0  0
  -20.5666  -26.2298   23.3610 H   0  0  0  0  0  0
  -21.6644  -26.7435   22.1206 H   0  0  0  0  0  0
  -19.6901  -25.6292   21.1245 H   0  0  0  0  0  0
  -19.6691  -27.3191   20.6738 H   0  0  0  0  0  0
  -17.4204  -26.6686   21.4025 H   0  0  0  0  0  0
  -18.0333  -26.0078   22.9024 H   0  0  0  0  0  0
  -19.7932  -30.7282   24.2268 H   0  0  0  0  0  0
  -17.5009  -31.6271   24.5161 H   0  0  0  0  0  0
  -15.5350  -30.2990   23.7647 H   0  0  0  0  0  0
  -15.8677  -28.0825   22.7064 H   0  0  0  0  0  0
  -24.5885  -30.7103   25.7756 H   0  0  0  0  0  0
  -24.8921  -32.2920   26.4843 H   0  0  0  0  0  0
  -25.8045  -30.8923   27.0213 H   0  0  0  0  0  0
  -26.2921  -29.6763   24.1203 H   0  0  0  0  0  0
  -27.4015  -29.7266   25.4702 H   0  0  0  0  0  0
  -27.8793  -30.4287   23.9437 H   0  0  0  0  0  0
  -27.2647  -33.3626   26.2066 H   0  0  0  0  0  0
  -28.3867  -32.6895   25.0337 H   0  0  0  0  0  0
  -28.0694  -31.8458   26.5417 H   0  0  0  0  0  0
  -28.2598  -38.0082   24.7508 H   0  0  0  0  0  0
  -28.1054  -36.2619   24.6302 H   0  0  0  0  0  0
  -27.2291  -37.1449   25.8874 H   0  0  0  0  0  0
  -20.9377  -29.8754   21.6872 H   0  0  0  0  0  0
  -26.0149  -38.2835   24.1421 H   0  0  0  0  0  0
  -30.9073  -20.3574   21.2046 H   0  0  0  0  0  0
  -31.6190  -18.0211   21.4804 H   0  0  0  0  0  0
  -27.7923  -16.6824   20.0702 H   0  0  0  0  0  0
  -29.5548  -22.4390   19.2769 H   0  0  0  0  0  0
  -26.1549  -24.0122   20.8002 H   0  0  0  0  0  0
  -27.2498  -24.7514   21.9520 H   0  0  0  0  0  0
  -26.0965  -22.6139   22.7859 H   0  0  0  0  0  0
  -27.8333  -22.6422   22.9471 H   0  0  0  0  0  0
  -26.2869  -21.2339   20.7210 H   0  0  0  0  0  0
  -27.0899  -20.4634   22.0757 H   0  0  0  0  0  0
  -28.2477  -15.8376   23.3415 H   0  0  0  0  0  0
  -29.1821  -17.3283   23.4473 H   0  0  0  0  0  0
  -29.4172  -16.0634   24.6354 H   0  0  0  0  0  0
  -27.8999  -25.1222   18.5961 H   0  0  0  0  0  0
  -29.5183  -25.0715   19.1623 H   0  0  0  0  0  0
  -30.4264  -14.5613   23.0187 H   0  0  0  0  0  0
  -31.2971  -16.0640   22.9370 H   0  0  0  0  0  0
  1 25  1  0  0  0
  1 30  2  0  0  0
  1 86  1  0  0  0
  2  3  1  0  0  0
  2 25  1  0  0  0
  2 88  1  0  0  0
  2 89  1  0  0  0
  3  4  1  0  0  0
  3 90  1  0  0  0
  3 91  1  0  0  0
  4  5  1  0  0  0
  4 92  1  0  0  0
  4 93  1  0  0  0
  5  6  1  0  0  0
  5 26  1  0  0  0
  5 94  1  0  0  0
  6 25  1  0  0  0
  6 95  1  0  0  0
  6 96  1  0  0  0
  7  8  2  0  0  0
  7 26  1  0  0  0
  7 29  1  0  0  0
  8  9  1  0  0  0
  8 22  1  0  0  0
  9 10  1  0  0  0
  9 27  2  0  0  0
 10 11  2  0  0  0
 10 15  1  0  0  0
 11 12  1  0  0  0
 11 97  1  0  0  0
 12 13  2  0  0  0
 12 98  1  0  0  0
 13 14  1  0  0  0
 13 31  1  0  0  0
 14 15  2  0  0  0
 14 99  1  0  0  0
 15100  1  0  0  0
 16 17  2  0  0  0
 16 21  1  0  0  0
 16 31  1  0  0  0
 17 18  1  0  0  0
 17101  1  0  0  0
 18 19  2  0  0  0
 18102  1  0  0  0
 19 20  1  0  0  0
 19 24  1  0  0  0
 20 21  2  0  0  0
 20103  1  0  0  0
 21 23  1  0  0  0
 22 28  1  0  0  0
 22 32  2  0  0  0
 26 27  1  0  0  0
 28104  1  0  0  0
 28105  1  0  0  0
 29106  1  0  0  0
 29107  1  0  0  0
 33 34  1  0  0  0
 33 66  1  0  0  0
 33 70  2  0  0  0
 34 36  1  0  0  0
 34 59  1  0  0  0
 34108  1  0  0  0
 35 44  2  0  0  0
 35 45  1  0  0  0
 35 68  1  0  0  0
 36 56  1  0  0  0
 36109  1  0  0  0
 37 39  1  0  0  0
 37 47  1  0  0  0
 37 66  1  0  0  0
 37110  1  0  0  0
 38 43  2  0  0  0
 38 46  1  0  0  0
 38 47  1  0  0  0
 39 64  1  0  0  0
 39 67  2  0  0  0
 40 52  1  0  0  0
 40 53  2  0  0  0
 40 58  1  0  0  0
 41111  1  0  0  0
 41112  1  0  0  0
 41113  1  0  0  0
 41 48  1  0  0  0
 42 43  1  0  0  0
 42 66  1  0  0  0
 42114  1  0  0  0
 42115  1  0  0  0
 43 44  1  0  0  0
 44116  1  0  0  0
 45 46  2  0  0  0
 45117  1  0  0  0
 46118  1  0  0  0
 47119  1  0  0  0
 47120  1  0  0  0
 48 56  1  0  0  0
 48 65  1  0  0  0
 48121  1  0  0  0
 49 50  1  0  0  0
 49 53  1  0  0  0
 49 64  1  0  0  0
 49122  1  0  0  0
 50 51  1  0  0  0
 50123  1  0  0  0
 50124  1  0  0  0
 51 52  1  0  0  0
 51125  1  0  0  0
 51126  1  0  0  0
 52127  1  0  0  0
 52128  1  0  0  0
 53 54  1  0  0  0
 54 55  2  0  0  0
 54129  1  0  0  0
 55 57  1  0  0  0
 55130  1  0  0  0
 56 69  2  0  0  0
 57 58  2  0  0  0
 57131  1  0  0  0
 58132  1  0  0  0
 59 60  1  0  0  0
 59 61  1  0  0  0
 59 62  1  0  0  0
 60133  1  0  0  0
 60134  1  0  0  0
 60135  1  0  0  0
 61136  1  0  0  0
 61137  1  0  0  0
 61138  1  0  0  0
 62139  1  0  0  0
 62140  1  0  0  0
 62141  1  0  0  0
 63 65  1  0  0  0
 63142  1  0  0  0
 63143  1  0  0  0
 63144  1  0  0  0
 64145  1  0  0  0
 65146  1  0  0  0
 68 83  1  0  0  0
 71 72  2  0  0  0
 71 74  1  0  0  0
 71147  1  0  0  0
 72 75  1  0  0  0
 72148  1  0  0  0
 73 75  2  0  0  0
 73 76  1  0  0  0
 73149  1  0  0  0
 74 76  2  0  0  0
 74 85  1  0  0  0
 75 86  1  0  0  0
 76 87  1  0  0  0
 77 78  2  0  0  0
 77 85  1  0  0  0
 77150  1  0  0  0
 78 79  1  0  0  0
 78 83  1  0  0  0
 79 80  1  0  0  0
 79151  1  0  0  0
 79152  1  0  0  0
 80 81  1  0  0  0
 80153  1  0  0  0
 80154  1  0  0  0
 81 85  1  0  0  0
 81155  1  0  0  0
 81156  1  0  0  0
 82 84  1  0  0  0
 82157  1  0  0  0
 82158  1  0  0  0
 82159  1  0  0  0
 83160  1  0  0  0
 83161  1  0  0  0
 84 86  1  0  0  0
 84162  1  0  0  0
 84163  1  0  0  0
M  ISO  4   1 100  68 101  83 101  86 100
M  END
> <chiral flag>
0

> <version>
0

> <s_m_source_file>
/data/baiqing/PycharmProjects/Reinvent-master-3.2/result/LINK_invent/BTK/process_docking_weight1_custom_product_contain_oxygen_bond_distance_aromatic_linkinvent_7_9_3/rearranged_h_0106.sdf

> <i_m_source_file_index>
28

> <r_mmod_Potential_Energy-OPLS-2005>
401.461730957031

> <r_mmod_Stretch_Energy-OPLS-2005>
106.569938659668

> <r_mmod_Bend_Energy-OPLS-2005>
162.90641784668

> <r_mmod_Torsional_Energy-OPLS-2005>
342.040588378906

> <r_mmod_Improper_Torsional_Energy-OPLS-2005>
7.11836338043213

> <r_mmod_Van_der_Waal_Energy-OPLS-2005>
143.741180419922

> <r_mmod_Electrostatic_Energy-OPLS-2005>
-235.758911132812

> <r_mmod_Solvation_Energy-OPLS-2005>
-186.460525512695

> <b_mmod_Minimization_Converged-OPLS-2005>
0

> <r_mmod_RMS_Derivative-OPLS-2005>
1.30711734294891

$$$$
28
                    3D
 Structure written by MMmdl.
168177  0  0  1  0            999 V2000
  -30.6535  -14.5624   20.4672 C   0  0  0  0  0  0
  -30.4378  -12.3143   19.4654 C   0  0  0  0  0  0
  -29.5117  -12.3955   18.2318 C   0  0  0  0  0  0
  -28.0219  -12.3293   18.6323 C   0  0  0  0  0  0
  -27.6569  -13.2046   19.8639 C   0  0  2  0  0  0
  -28.7014  -13.0468   20.9915 C   0  0  0  0  0  0
  -25.2586  -13.8152   20.5683 C   0  0  0  0  0  0
  -24.1836  -13.0436   20.9190 C   0  0  0  0  0  0
  -24.6383  -11.6903   20.8753 C   0  0  0  0  0  0
  -23.9047  -10.4291   21.0413 C   0  0  0  0  0  0
  -24.3605   -9.4205   21.9185 C   0  0  0  0  0  0
  -23.6288   -8.2235   22.0751 C   0  0  0  0  0  0
  -22.4272   -8.0274   21.3539 C   0  0  0  0  0  0
  -21.9902   -9.0248   20.4645 C   0  0  0  0  0  0
  -22.7223  -10.2131   20.3058 C   0  0  0  0  0  0
  -21.6849   -6.0732   22.5280 C   0  0  0  0  0  0
  -21.4010   -6.5637   23.8213 C   0  0  0  0  0  0
  -21.3659   -5.6791   24.9175 C   0  0  0  0  0  0
  -21.6047   -4.3054   24.7227 C   0  0  0  0  0  0
  -21.8818   -3.8143   23.4347 C   0  0  0  0  0  0
  -21.9190   -4.6959   22.3403 C   0  0  0  0  0  0
  -22.7858  -13.5237   21.1847 C   0  0  0  0  0  0
  -22.1659   -4.2145   21.0980 F   0  0  0  0  0  0
  -21.5632   -3.4539   25.7739 F   0  0  0  0  0  0
  -30.0246  -13.3522   20.4258 N   0  0  0  0  0  0
  -26.3009  -12.9310   20.3342 N   0  0  0  0  0  0
  -25.9311  -11.6481   20.5803 N   0  0  0  0  0  0
  -22.0486  -12.8239   22.0402 N   0  0  0  0  0  0
  -25.4314  -15.1871   20.4084 N   0  0  0  0  0  0
  -31.8239  -14.7113   20.1054 O   0  0  0  0  0  0
  -21.6634   -6.8873   21.4242 O   0  0  0  0  0  0
  -22.3548  -14.5543   20.6691 O   0  0  0  0  0  0
  -24.6175  -31.8665   23.2092 C   0  0  0  0  0  0
  -25.9057  -32.4814   23.8393 C   0  0  1  0  0  0
  -27.2309  -27.3958   20.1031 C   0  0  0  0  0  0
  -25.5903  -33.8614   24.2322 N   0  0  0  0  0  0
  -23.4070  -30.4914   21.5503 C   0  0  2  0  0  0
  -24.8527  -28.9577   20.1114 C   0  0  0  0  0  0
  -22.7427  -29.4656   22.4976 C   0  0  0  0  0  0
  -18.0274  -28.1381   22.8491 C   0  0  0  0  0  0
  -24.1486  -36.7313   23.2639 C   0  0  0  0  0  0
  -25.9404  -30.8197   21.3700 C   0  0  0  0  0  0
  -26.0148  -29.4526   20.7148 C   0  0  0  0  0  0
  -27.2028  -28.6792   20.7090 C   0  0  0  0  0  0
  -26.0501  -26.9411   19.4664 C   0  0  0  0  0  0
  -24.8679  -27.7030   19.4830 C   0  0  0  0  0  0
  -23.6166  -29.8278   20.1637 C   0  0  0  0  0  0
  -25.4107  -36.3111   24.0339 C   0  0  1  0  0  0
  -20.5868  -28.3674   23.1309 C   0  0  2  0  0  0
  -20.6766  -26.9408   22.5417 C   0  0  0  0  0  0
  -19.5745  -26.6388   21.5214 C   0  0  0  0  0  0
  -18.1922  -26.7927   22.1624 C   0  0  0  0  0  0
  -19.1526  -28.8843   23.2896 C   0  0  0  0  0  0
  -18.9454  -30.1447   23.8909 C   0  0  0  0  0  0
  -17.6456  -30.6588   24.0566 C   0  0  0  0  0  0
  -25.9037  -34.9474   23.5130 C   0  0  0  0  0  0
  -16.5346  -29.9092   23.6326 C   0  0  0  0  0  0
  -16.7263  -28.6507   23.0349 C   0  0  0  0  0  0
  -26.4473  -31.6600   25.0732 C   0  0  0  0  0  0
  -25.3732  -31.3716   26.1477 C   0  0  0  0  0  0
  -27.0307  -30.3036   24.6133 C   0  0  0  0  0  0
  -27.6049  -32.4323   25.7489 C   0  0  0  0  0  0
  -27.5582  -37.1811   24.8467 C   0  0  0  0  0  0
  -21.4152  -29.3039   22.3713 N   0  0  0  0  0  0
  -26.4296  -37.3794   23.9409 N   0  0  0  0  0  0
  -24.6733  -31.0741   22.1009 N   0  0  0  0  0  0
  -23.4186  -28.8197   23.3029 O   0  0  0  0  0  0
  -28.3911  -26.6308   20.1665 O   0  0  0  0  0  0
  -26.5604  -34.8927   22.4695 O   0  0  0  0  0  0
  -23.5360  -32.1434   23.7465 O   0  0  0  0  0  0
  -29.4632  -19.5373   19.0126 C   0  0  0  0  0  0
  -29.7651  -18.1034   20.9524 C   0  0  0  0  0  0
  -29.5801  -19.4099   20.4066 C   0  0  0  0  0  0
  -29.7529  -17.1230   18.7088 C   0  0  0  0  0  0
  -29.5764  -18.4237   18.1690 C   0  0  0  0  0  0
  -29.8478  -16.9421   20.1257 C   0  0  0  0  0  0
  -31.9327  -22.7617   19.4690 C   0  0  0  0  0  0
  -30.5787  -23.0327   18.8192 C   0  0  0  0  0  0
  -31.6180  -21.6933   20.5175 C   0  0  0  0  0  0
  -29.5748  -22.8997   19.9818 C   0  0  2  0  0  0
  -29.7574  -15.9325   17.7603 C   0  0  0  0  0  0
  -29.4324  -20.6711   21.2947 C   0  0  0  0  0  0
  -29.3224  -24.3150   20.6180 C   0  0  0  0  0  0
  -28.3372  -25.2231   19.8179 C   0  0  0  0  0  0
  -29.4735  -18.6501   16.7959 N   0  0  0  0  0  0
  -29.8594  -15.6291   20.7460 N   0  0  0  0  0  0
  -30.2070  -21.9139   20.9289 N   0  3  1  0  0  0
  -31.4808  -12.4195   19.1614 H   0  0  0  0  0  0
  -30.3637  -11.3304   19.9308 H   0  0  0  0  0  0
  -29.7378  -11.5687   17.5570 H   0  0  0  0  0  0
  -29.7219  -13.2881   17.6525 H   0  0  0  0  0  0
  -27.8043  -11.2843   18.8550 H   0  0  0  0  0  0
  -27.3900  -12.5897   17.7826 H   0  0  0  0  0  0
  -27.6758  -14.2415   19.5348 H   0  0  0  0  0  0
  -28.6902  -12.0282   21.3825 H   0  0  0  0  0  0
  -28.4636  -13.6932   21.8377 H   0  0  0  0  0  0
  -25.2748   -9.5683   22.4764 H   0  0  0  0  0  0
  -24.0000   -7.4624   22.7468 H   0  0  0  0  0  0
  -21.0832   -8.8764   19.8954 H   0  0  0  0  0  0
  -22.3678  -10.9670   19.6171 H   0  0  0  0  0  0
  -21.2000   -7.6145   23.9717 H   0  0  0  0  0  0
  -21.1486   -6.0519   25.9080 H   0  0  0  0  0  0
  -22.0598   -2.7606   23.2846 H   0  0  0  0  0  0
  -22.4086  -11.9902   22.4810 H   0  0  0  0  0  0
  -21.1103  -13.1275   22.2593 H   0  0  0  0  0  0
  -24.6650  -15.8424   20.5166 H   0  0  0  0  0  0
  -26.2834  -15.6264   20.0835 H   0  0  0  0  0  0
  -26.7128  -32.5513   23.1153 H   0  0  0  0  0  0
  -25.0044  -33.9774   25.0462 H   0  0  0  0  0  0
  -22.6971  -31.3096   21.4123 H   0  0  0  0  0  0
  -23.3746  -35.9648   23.3311 H   0  0  0  0  0  0
  -24.3580  -36.8917   22.2052 H   0  0  0  0  0  0
  -23.7239  -37.6522   23.6644 H   0  0  0  0  0  0
  -26.0611  -31.5855   20.6025 H   0  0  0  0  0  0
  -26.8252  -30.8693   21.9928 H   0  0  0  0  0  0
  -28.0949  -29.0555   21.1899 H   0  0  0  0  0  0
  -26.0084  -25.9972   18.9447 H   0  0  0  0  0  0
  -23.9780  -27.3211   19.0016 H   0  0  0  0  0  0
  -23.7277  -30.6050   19.4068 H   0  0  0  0  0  0
  -22.7389  -29.2513   19.8655 H   0  0  0  0  0  0
  -25.1282  -36.1981   25.0832 H   0  0  0  0  0  0
  -20.9956  -28.3244   24.1430 H   0  0  0  0  0  0
  -20.5672  -26.2284   23.3607 H   0  0  0  0  0  0
  -21.6637  -26.7453   22.1209 H   0  0  0  0  0  0
  -19.6910  -25.6301   21.1237 H   0  0  0  0  0  0
  -19.6684  -27.3204   20.6748 H   0  0  0  0  0  0
  -17.4194  -26.6675   21.4024 H   0  0  0  0  0  0
  -18.0324  -26.0065   22.9017 H   0  0  0  0  0  0
  -19.7931  -30.7257   24.2286 H   0  0  0  0  0  0
  -17.5015  -31.6268   24.5168 H   0  0  0  0  0  0
  -15.5349  -30.3001   23.7642 H   0  0  0  0  0  0
  -15.8661  -28.0832   22.7060 H   0  0  0  0  0  0
  -24.5902  -30.7066   25.7815 H   0  0  0  0  0  0
  -24.8923  -32.2874   26.4926 H   0  0  0  0  0  0
  -25.8077  -30.8885   27.0237 H   0  0  0  0  0  0
  -26.2862  -29.6797   24.1173 H   0  0  0  0  0  0
  -27.4050  -29.7275   25.4607 H   0  0  0  0  0  0
  -27.8710  -30.4344   23.9310 H   0  0  0  0  0  0
  -27.2669  -33.3613   26.2092 H   0  0  0  0  0  0
  -28.3839  -32.6901   25.0302 H   0  0  0  0  0  0
  -28.0740  -31.8434   26.5381 H   0  0  0  0  0  0
  -28.2611  -38.0097   24.7508 H   0  0  0  0  0  0
  -28.1066  -36.2631   24.6298 H   0  0  0  0  0  0
  -27.2301  -37.1471   25.8870 H   0  0  0  0  0  0
  -20.9317  -29.8763   21.6934 H   0  0  0  0  0  0
  -26.0188  -38.2877   24.1400 H   0  0  0  0  0  0
  -29.2699  -20.5033   18.5777 H   0  0  0  0  0  0
  -29.8075  -17.9850   22.0266 H   0  0  0  0  0  0
  -32.3027  -23.6647   19.9565 H   0  0  0  0  0  0
  -32.6896  -22.4380   18.7533 H   0  0  0  0  0  0
  -30.3857  -22.2840   18.0518 H   0  0  0  0  0  0
  -30.5476  -24.0028   18.3225 H   0  0  0  0  0  0
  -32.2903  -21.7489   21.3742 H   0  0  0  0  0  0
  -31.7655  -20.7131   20.0661 H   0  0  0  0  0  0
  -28.6233  -22.5092   19.6171 H   0  0  0  0  0  0
  -30.7108  -15.4079   17.7994 H   0  0  0  0  0  0
  -29.5846  -16.1823   16.7160 H   0  0  0  0  0  0
  -28.9505  -15.2629   18.0400 H   0  0  0  0  0  0
  -29.7493  -20.3961   22.3014 H   0  0  0  0  0  0
  -28.3734  -20.9163   21.3856 H   0  0  0  0  0  0
  -30.2723  -24.8374   20.7360 H   0  0  0  0  0  0
  -28.9226  -24.2006   21.6261 H   0  0  0  0  0  0
  -27.3524  -24.7942   19.9980 H   0  0  0  0  0  0
  -28.5260  -25.1442   18.7470 H   0  0  0  0  0  0
  -29.5925  -19.5916   16.4371 H   0  0  0  0  0  0
  -29.8078  -17.9375   16.1566 H   0  0  0  0  0  0
  -29.0083  -15.3857   21.2304 H   0  0  0  0  0  0
  -30.2627  -22.4169   21.8017 H   0  0  0  0  0  0
  1 25  1  0  0  0
  1 30  2  0  0  0
  1 86  1  0  0  0
  2  3  1  0  0  0
  2 25  1  0  0  0
  2 88  1  0  0  0
  2 89  1  0  0  0
  3  4  1  0  0  0
  3 90  1  0  0  0
  3 91  1  0  0  0
  4  5  1  0  0  0
  4 92  1  0  0  0
  4 93  1  0  0  0
  5  6  1  0  0  0
  5 26  1  0  0  0
  5 94  1  0  0  0
  6 25  1  0  0  0
  6 95  1  0  0  0
  6 96  1  0  0  0
  7  8  2  0  0  0
  7 26  1  0  0  0
  7 29  1  0  0  0
  8  9  1  0  0  0
  8 22  1  0  0  0
  9 10  1  0  0  0
  9 27  2  0  0  0
 10 11  2  0  0  0
 10 15  1  0  0  0
 11 12  1  0  0  0
 11 97  1  0  0  0
 12 13  2  0  0  0
 12 98  1  0  0  0
 13 14  1  0  0  0
 13 31  1  0  0  0
 14 15  2  0  0  0
 14 99  1  0  0  0
 15100  1  0  0  0
 16 17  2  0  0  0
 16 21  1  0  0  0
 16 31  1  0  0  0
 17 18  1  0  0  0
 17101  1  0  0  0
 18 19  2  0  0  0
 18102  1  0  0  0
 19 20  1  0  0  0
 19 24  1  0  0  0
 20 21  2  0  0  0
 20103  1  0  0  0
 21 23  1  0  0  0
 22 28  1  0  0  0
 22 32  2  0  0  0
 26 27  1  0  0  0
 28104  1  0  0  0
 28105  1  0  0  0
 29106  1  0  0  0
 29107  1  0  0  0
 33 34  1  0  0  0
 33 66  1  0  0  0
 33 70  2  0  0  0
 34 36  1  0  0  0
 34 59  1  0  0  0
 34108  1  0  0  0
 35 44  2  0  0  0
 35 45  1  0  0  0
 35 68  1  0  0  0
 36 56  1  0  0  0
 36109  1  0  0  0
 37 39  1  0  0  0
 37 47  1  0  0  0
 37 66  1  0  0  0
 37110  1  0  0  0
 38 43  2  0  0  0
 38 46  1  0  0  0
 38 47  1  0  0  0
 39 64  1  0  0  0
 39 67  2  0  0  0
 40 52  1  0  0  0
 40 53  2  0  0  0
 40 58  1  0  0  0
 41111  1  0  0  0
 41112  1  0  0  0
 41113  1  0  0  0
 41 48  1  0  0  0
 42 43  1  0  0  0
 42 66  1  0  0  0
 42114  1  0  0  0
 42115  1  0  0  0
 43 44  1  0  0  0
 44116  1  0  0  0
 45 46  2  0  0  0
 45117  1  0  0  0
 46118  1  0  0  0
 47119  1  0  0  0
 47120  1  0  0  0
 48 56  1  0  0  0
 48 65  1  0  0  0
 48121  1  0  0  0
 49 50  1  0  0  0
 49 53  1  0  0  0
 49 64  1  0  0  0
 49122  1  0  0  0
 50 51  1  0  0  0
 50123  1  0  0  0
 50124  1  0  0  0
 51 52  1  0  0  0
 51125  1  0  0  0
 51126  1  0  0  0
 52127  1  0  0  0
 52128  1  0  0  0
 53 54  1  0  0  0
 54 55  2  0  0  0
 54129  1  0  0  0
 55 57  1  0  0  0
 55130  1  0  0  0
 56 69  2  0  0  0
 57 58  2  0  0  0
 57131  1  0  0  0
 58132  1  0  0  0
 59 60  1  0  0  0
 59 61  1  0  0  0
 59 62  1  0  0  0
 60133  1  0  0  0
 60134  1  0  0  0
 60135  1  0  0  0
 61136  1  0  0  0
 61137  1  0  0  0
 61138  1  0  0  0
 62139  1  0  0  0
 62140  1  0  0  0
 62141  1  0  0  0
 63 65  1  0  0  0
 63142  1  0  0  0
 63143  1  0  0  0
 63144  1  0  0  0
 64145  1  0  0  0
 65146  1  0  0  0
 68 84  1  0  0  0
 71 73  2  0  0  0
 71 75  1  0  0  0
 71147  1  0  0  0
 72 73  1  0  0  0
 72 76  2  0  0  0
 72148  1  0  0  0
 73 82  1  0  0  0
 74 75  2  0  0  0
 74 76  1  0  0  0
 74 81  1  0  0  0
 75 85  1  0  0  0
 76 86  1  0  0  0
 77 78  1  0  0  0
 77 79  1  0  0  0
 77149  1  0  0  0
 77150  1  0  0  0
 78 80  1  0  0  0
 78151  1  0  0  0
 78152  1  0  0  0
 79 87  1  0  0  0
 79153  1  0  0  0
 79154  1  0  0  0
 80 83  1  0  0  0
 80 87  1  0  0  0
 80155  1  0  0  0
 81156  1  0  0  0
 81157  1  0  0  0
 81158  1  0  0  0
 82159  1  0  0  0
 82160  1  0  0  0
 82 87  1  0  0  0
 83 84  1  0  0  0
 83161  1  0  0  0
 83162  1  0  0  0
 84163  1  0  0  0
 84164  1  0  0  0
 85165  1  0  0  0
 85166  1  0  0  0
 86167  1  0  0  0
 87168  1  0  0  0
M  CHG  1  87   1
M  ISO  4   1 100  68 101  84 101  86 100
M  END
> <chiral flag>
0

> <version>
0

> <s_m_source_file>
/data/baiqing/PycharmProjects/Reinvent-master-3.2/result/LINK_invent/BTK/process_docking_weight1_custom_product_contain_oxygen_bond_distance_aromatic_linkinvent_7_9_3/rearranged_h_0106.sdf

> <i_m_source_file_index>
29

> <r_mmod_Potential_Energy-OPLS-2005>
-56.3408584594727

> <r_mmod_Stretch_Energy-OPLS-2005>
55.2388687133789

> <r_mmod_Bend_Energy-OPLS-2005>
144.253295898438

> <r_mmod_Torsional_Energy-OPLS-2005>
316.801452636719

> <r_mmod_Improper_Torsional_Energy-OPLS-2005>
8.8449878692627

> <r_mmod_Van_der_Waal_Energy-OPLS-2005>
156.353698730469

> <r_mmod_Electrostatic_Energy-OPLS-2005>
-310.400665283203

> <r_mmod_Solvation_Energy-OPLS-2005>
-456.709350585938

> <b_mmod_Minimization_Converged-OPLS-2005>
0

> <r_mmod_RMS_Derivative-OPLS-2005>
0.555654525756836

$$$$
29
                    3D
 Structure written by MMmdl.
154162  0  0  1  0            999 V2000
  -30.6298  -14.6895   20.4415 C   0  0  0  0  0  0
  -30.4295  -12.4130   19.4755 C   0  0  0  0  0  0
  -29.5102  -12.4953   18.2370 C   0  0  0  0  0  0
  -28.0347  -12.3311   18.6491 C   0  0  0  0  0  0
  -27.6449  -13.2282   19.8545 C   0  0  2  0  0  0
  -28.6886  -13.1438   20.9904 C   0  0  0  0  0  0
  -25.2513  -13.8195   20.5696 C   0  0  0  0  0  0
  -24.1793  -13.0447   20.9203 C   0  0  0  0  0  0
  -24.6380  -11.6922   20.8751 C   0  0  0  0  0  0
  -23.9058  -10.4300   21.0414 C   0  0  0  0  0  0
  -24.3611   -9.4208   21.9187 C   0  0  0  0  0  0
  -23.6292   -8.2240   22.0748 C   0  0  0  0  0  0
  -22.4273   -8.0277   21.3538 C   0  0  0  0  0  0
  -21.9907   -9.0253   20.4646 C   0  0  0  0  0  0
  -22.7232  -10.2140   20.3062 C   0  0  0  0  0  0
  -21.6852   -6.0736   22.5278 C   0  0  0  0  0  0
  -21.4020   -6.5635   23.8211 C   0  0  0  0  0  0
  -21.3667   -5.6784   24.9171 C   0  0  0  0  0  0
  -21.6046   -4.3049   24.7224 C   0  0  0  0  0  0
  -21.8817   -3.8144   23.4340 C   0  0  0  0  0  0
  -21.9188   -4.6961   22.3399 C   0  0  0  0  0  0
  -22.7814  -13.5236   21.1860 C   0  0  0  0  0  0
  -22.1653   -4.2145   21.0977 F   0  0  0  0  0  0
  -21.5630   -3.4532   25.7738 F   0  0  0  0  0  0
  -29.9988  -13.4703   20.4150 N   0  0  0  0  0  0
  -26.2939  -12.9400   20.3291 N   0  0  0  0  0  0
  -25.9307  -11.6550   20.5759 N   0  0  0  0  0  0
  -22.0441  -12.8248   22.0422 N   0  0  0  0  0  0
  -25.4214  -15.1917   20.4112 N   0  0  0  0  0  0
  -31.8273  -14.7732   20.1577 O   0  0  0  0  0  0
  -21.6635   -6.8875   21.4238 O   0  0  0  0  0  0
  -22.3509  -14.5536   20.6688 O   0  0  0  0  0  0
  -24.6273  -31.8569   23.1999 C   0  0  0  0  0  0
  -25.9113  -32.4763   23.8332 C   0  0  1  0  0  0
  -27.2249  -27.2906   20.1171 C   0  0  0  0  0  0
  -25.5922  -33.8566   24.2256 N   0  0  0  0  0  0
  -23.4222  -30.4795   21.5419 C   0  0  2  0  0  0
  -24.8689  -28.9295   20.1095 C   0  0  0  0  0  0
  -22.7480  -29.4609   22.4920 C   0  0  0  0  0  0
  -18.0287  -28.1377   22.8482 C   0  0  0  0  0  0
  -24.1492  -36.7288   23.2642 C   0  0  0  0  0  0
  -25.9660  -30.7773   21.3770 C   0  0  0  0  0  0
  -26.0372  -29.4031   20.7174 C   0  0  0  0  0  0
  -27.2133  -28.5931   20.7144 C   0  0  0  0  0  0
  -26.0262  -26.8703   19.4947 C   0  0  0  0  0  0
  -24.8669  -27.6699   19.4916 C   0  0  0  0  0  0
  -23.6375  -29.8116   20.1578 C   0  0  0  0  0  0
  -25.4119  -36.3081   24.0327 C   0  0  1  0  0  0
  -20.5889  -28.3687   23.1270 C   0  0  2  0  0  0
  -20.6777  -26.9408   22.5404 C   0  0  0  0  0  0
  -19.5755  -26.6377   21.5208 C   0  0  0  0  0  0
  -18.1936  -26.7920   22.1620 C   0  0  0  0  0  0
  -19.1541  -28.8849   23.2871 C   0  0  0  0  0  0
  -18.9466  -30.1448   23.8891 C   0  0  0  0  0  0
  -17.6468  -30.6583   24.0557 C   0  0  0  0  0  0
  -25.9053  -34.9448   23.5096 C   0  0  0  0  0  0
  -16.5358  -29.9078   23.6332 C   0  0  0  0  0  0
  -16.7276  -28.6491   23.0361 C   0  0  0  0  0  0
  -26.4486  -31.6591   25.0717 C   0  0  0  0  0  0
  -25.3711  -31.3748   26.1438 C   0  0  0  0  0  0
  -27.0339  -30.3009   24.6207 C   0  0  0  0  0  0
  -27.6035  -32.4340   25.7491 C   0  0  0  0  0  0
  -27.5580  -37.1800   24.8463 C   0  0  0  0  0  0
  -21.4191  -29.3038   22.3663 N   0  0  0  0  0  0
  -26.4298  -37.3772   23.9402 N   0  0  0  0  0  0
  -24.6905  -31.0556   22.0960 N   0  0  0  0  0  0
  -23.4202  -28.8151   23.3004 O   0  0  0  0  0  0
  -28.3560  -26.4543   20.1959 O   0  0  0  0  0  0
  -26.5629  -34.8918   22.4667 O   0  0  0  0  0  0
  -23.5432  -32.1378   23.7314 O   0  0  0  0  0  0
  -29.5622  -18.4083   20.5495 C   0  0  0  0  0  0
  -30.7084  -18.4522   18.0221 C   0  0  0  0  0  0
  -29.6843  -19.6998   19.8865 C   0  0  0  0  0  0
  -30.0143  -17.1487   19.9801 C   0  0  0  0  0  0
  -30.3061  -19.6700   18.6049 C   0  0  0  0  0  0
  -30.5506  -17.2184   18.6719 C   0  0  0  0  0  0
  -28.6223  -23.8244   20.4391 C   0  0  0  0  0  0
  -29.1842  -21.0619   20.5687 C   0  0  0  0  0  0
  -29.0845  -22.4616   19.7607 C   0  0  0  0  0  0
  -28.4409  -25.1202   19.5310 C   0  0  0  0  0  0
  -30.5514  -20.8158   17.8526 N   0  0  0  0  0  0
  -29.8606  -15.8243   20.6220 N   0  0  0  0  0  0
  -28.4125  -23.8732   21.6549 O   0  0  0  0  0  0
  -30.8812  -16.0987   17.9828 F   0  0  0  0  0  0
  -31.4737  -12.5219   19.1781 H   0  0  0  0  0  0
  -30.3573  -11.4338   19.9503 H   0  0  0  0  0  0
  -29.7835  -11.7272   17.5120 H   0  0  0  0  0  0
  -29.6472  -13.4550   17.7352 H   0  0  0  0  0  0
  -27.8846  -11.2823   18.9092 H   0  0  0  0  0  0
  -27.3796  -12.5306   17.8000 H   0  0  0  0  0  0
  -27.6473  -14.2530   19.4818 H   0  0  0  0  0  0
  -28.7063  -12.1443   21.4276 H   0  0  0  0  0  0
  -28.4350  -13.8268   21.8023 H   0  0  0  0  0  0
  -25.2753   -9.5688   22.4765 H   0  0  0  0  0  0
  -24.0000   -7.4633   22.7469 H   0  0  0  0  0  0
  -21.0832   -8.8777   19.8959 H   0  0  0  0  0  0
  -22.3683  -10.9678   19.6175 H   0  0  0  0  0  0
  -21.2018   -7.6144   23.9718 H   0  0  0  0  0  0
  -21.1491   -6.0512   25.9075 H   0  0  0  0  0  0
  -22.0592   -2.7603   23.2835 H   0  0  0  0  0  0
  -22.4049  -11.9938   22.4872 H   0  0  0  0  0  0
  -21.1050  -13.1281   22.2593 H   0  0  0  0  0  0
  -24.6524  -15.8442   20.5192 H   0  0  0  0  0  0
  -26.2659  -15.6301   20.0669 H   0  0  0  0  0  0
  -26.7175  -32.5412   23.1070 H   0  0  0  0  0  0
  -25.0066  -33.9712   25.0399 H   0  0  0  0  0  0
  -22.7172  -31.3006   21.3972 H   0  0  0  0  0  0
  -23.3758  -35.9615   23.3307 H   0  0  0  0  0  0
  -24.3581  -36.8908   22.2055 H   0  0  0  0  0  0
  -23.7241  -37.6488   23.6662 H   0  0  0  0  0  0
  -26.1065  -31.5425   20.6121 H   0  0  0  0  0  0
  -26.8431  -30.8217   22.0113 H   0  0  0  0  0  0
  -28.1081  -28.9509   21.2041 H   0  0  0  0  0  0
  -25.9294  -25.9036   19.0289 H   0  0  0  0  0  0
  -23.9673  -27.2968   19.0219 H   0  0  0  0  0  0
  -23.7558  -30.5860   19.3992 H   0  0  0  0  0  0
  -22.7578  -29.2399   19.8564 H   0  0  0  0  0  0
  -25.1305  -36.1936   25.0820 H   0  0  0  0  0  0
  -20.9988  -28.3271   24.1388 H   0  0  0  0  0  0
  -20.5688  -26.2300   23.3608 H   0  0  0  0  0  0
  -21.6643  -26.7439   22.1195 H   0  0  0  0  0  0
  -19.6918  -25.6289   21.1238 H   0  0  0  0  0  0
  -19.6689  -27.3184   20.6739 H   0  0  0  0  0  0
  -17.4205  -26.6665   21.4024 H   0  0  0  0  0  0
  -18.0338  -26.0060   22.9018 H   0  0  0  0  0  0
  -19.7947  -30.7257   24.2264 H   0  0  0  0  0  0
  -17.5028  -31.6267   24.5151 H   0  0  0  0  0  0
  -15.5360  -30.2983   23.7652 H   0  0  0  0  0  0
  -15.8676  -28.0803   22.7093 H   0  0  0  0  0  0
  -24.5871  -30.7118   25.7755 H   0  0  0  0  0  0
  -24.8921  -32.2930   26.4852 H   0  0  0  0  0  0
  -25.8020  -30.8917   27.0218 H   0  0  0  0  0  0
  -26.2929  -29.6754   24.1215 H   0  0  0  0  0  0
  -27.4006  -29.7272   25.4729 H   0  0  0  0  0  0
  -27.8810  -30.4282   23.9462 H   0  0  0  0  0  0
  -27.2625  -33.3634   26.2064 H   0  0  0  0  0  0
  -28.3841  -32.6917   25.0323 H   0  0  0  0  0  0
  -28.0706  -31.8479   26.5413 H   0  0  0  0  0  0
  -28.2600  -38.0095   24.7511 H   0  0  0  0  0  0
  -28.1079  -36.2628   24.6297 H   0  0  0  0  0  0
  -27.2297  -37.1457   25.8866 H   0  0  0  0  0  0
  -20.9383  -29.8754   21.6859 H   0  0  0  0  0  0
  -26.0184  -38.2849   24.1401 H   0  0  0  0  0  0
  -29.1074  -18.3855   21.5297 H   0  0  0  0  0  0
  -31.1445  -18.4439   17.0337 H   0  0  0  0  0  0
  -29.8292  -21.2258   21.4326 H   0  0  0  0  0  0
  -28.1982  -20.8562   20.9864 H   0  0  0  0  0  0
  -30.0748  -22.6982   19.3760 H   0  0  0  0  0  0
  -28.4399  -22.3153   18.8946 H   0  0  0  0  0  0
  -27.6265  -24.9342   18.8384 H   0  0  0  0  0  0
  -29.3262  -25.1619   18.8965 H   0  0  0  0  0  0
  -30.8059  -20.7331   16.8734 H   0  0  0  0  0  0
  -30.0448  -21.6653   18.0664 H   0  0  0  0  0  0
  -28.9739  -15.6674   21.0731 H   0  0  0  0  0  0
  1 25  1  0  0  0
  1 30  2  0  0  0
  1 82  1  0  0  0
  2  3  1  0  0  0
  2 25  1  0  0  0
  2 85  1  0  0  0
  2 86  1  0  0  0
  3  4  1  0  0  0
  3 87  1  0  0  0
  3 88  1  0  0  0
  4  5  1  0  0  0
  4 89  1  0  0  0
  4 90  1  0  0  0
  5  6  1  0  0  0
  5 26  1  0  0  0
  5 91  1  0  0  0
  6 25  1  0  0  0
  6 92  1  0  0  0
  6 93  1  0  0  0
  7  8  2  0  0  0
  7 26  1  0  0  0
  7 29  1  0  0  0
  8  9  1  0  0  0
  8 22  1  0  0  0
  9 10  1  0  0  0
  9 27  2  0  0  0
 10 11  2  0  0  0
 10 15  1  0  0  0
 11 12  1  0  0  0
 11 94  1  0  0  0
 12 13  2  0  0  0
 12 95  1  0  0  0
 13 14  1  0  0  0
 13 31  1  0  0  0
 14 15  2  0  0  0
 14 96  1  0  0  0
 15 97  1  0  0  0
 16 17  2  0  0  0
 16 21  1  0  0  0
 16 31  1  0  0  0
 17 18  1  0  0  0
 17 98  1  0  0  0
 18 19  2  0  0  0
 18 99  1  0  0  0
 19 20  1  0  0  0
 19 24  1  0  0  0
 20 21  2  0  0  0
 20100  1  0  0  0
 21 23  1  0  0  0
 22 28  1  0  0  0
 22 32  2  0  0  0
 26 27  1  0  0  0
 28101  1  0  0  0
 28102  1  0  0  0
 29103  1  0  0  0
 29104  1  0  0  0
 33 34  1  0  0  0
 33 66  1  0  0  0
 33 70  2  0  0  0
 34 36  1  0  0  0
 34 59  1  0  0  0
 34105  1  0  0  0
 35 44  2  0  0  0
 35 45  1  0  0  0
 35 68  1  0  0  0
 36 56  1  0  0  0
 36106  1  0  0  0
 37 39  1  0  0  0
 37 47  1  0  0  0
 37 66  1  0  0  0
 37107  1  0  0  0
 38 43  2  0  0  0
 38 46  1  0  0  0
 38 47  1  0  0  0
 39 64  1  0  0  0
 39 67  2  0  0  0
 40 52  1  0  0  0
 40 53  2  0  0  0
 40 58  1  0  0  0
 41108  1  0  0  0
 41109  1  0  0  0
 41110  1  0  0  0
 41 48  1  0  0  0
 42 43  1  0  0  0
 42 66  1  0  0  0
 42111  1  0  0  0
 42112  1  0  0  0
 43 44  1  0  0  0
 44113  1  0  0  0
 45 46  2  0  0  0
 45114  1  0  0  0
 46115  1  0  0  0
 47116  1  0  0  0
 47117  1  0  0  0
 48 56  1  0  0  0
 48 65  1  0  0  0
 48118  1  0  0  0
 49 50  1  0  0  0
 49 53  1  0  0  0
 49 64  1  0  0  0
 49119  1  0  0  0
 50 51  1  0  0  0
 50120  1  0  0  0
 50121  1  0  0  0
 51 52  1  0  0  0
 51122  1  0  0  0
 51123  1  0  0  0
 52124  1  0  0  0
 52125  1  0  0  0
 53 54  1  0  0  0
 54 55  2  0  0  0
 54126  1  0  0  0
 55 57  1  0  0  0
 55127  1  0  0  0
 56 69  2  0  0  0
 57 58  2  0  0  0
 57128  1  0  0  0
 58129  1  0  0  0
 59 60  1  0  0  0
 59 61  1  0  0  0
 59 62  1  0  0  0
 60130  1  0  0  0
 60131  1  0  0  0
 60132  1  0  0  0
 61133  1  0  0  0
 61134  1  0  0  0
 61135  1  0  0  0
 62136  1  0  0  0
 62137  1  0  0  0
 62138  1  0  0  0
 63 65  1  0  0  0
 63139  1  0  0  0
 63140  1  0  0  0
 63141  1  0  0  0
 64142  1  0  0  0
 65143  1  0  0  0
 68 80  1  0  0  0
 71 73  2  0  0  0
 71 74  1  0  0  0
 71144  1  0  0  0
 72 75  2  0  0  0
 72 76  1  0  0  0
 72145  1  0  0  0
 73 75  1  0  0  0
 73 78  1  0  0  0
 74 76  2  0  0  0
 74 82  1  0  0  0
 75 81  1  0  0  0
 76 84  1  0  0  0
 77 79  1  0  0  0
 77 80  1  0  0  0
 77 83  2  0  0  0
 78 79  1  0  0  0
 78146  1  0  0  0
 78147  1  0  0  0
 79148  1  0  0  0
 79149  1  0  0  0
 80150  1  0  0  0
 80151  1  0  0  0
 81152  1  0  0  0
 81153  1  0  0  0
 82154  1  0  0  0
M  ISO  4   1 100  68 101  80 101  82 100
M  END
> <chiral flag>
0

> <version>
0

> <s_m_source_file>
/data/baiqing/PycharmProjects/Reinvent-master-3.2/result/LINK_invent/BTK/process_docking_weight1_custom_product_contain_oxygen_bond_distance_aromatic_linkinvent_7_9_3/rearranged_h_0106.sdf

> <i_m_source_file_index>
30

> <r_mmod_Potential_Energy-OPLS-2005>
75.9661102294922

> <r_mmod_Stretch_Energy-OPLS-2005>
109.763442993164

> <r_mmod_Bend_Energy-OPLS-2005>
163.017150878906

> <r_mmod_Torsional_Energy-OPLS-2005>
229.423965454102

> <r_mmod_Improper_Torsional_Energy-OPLS-2005>
7.12109041213989

> <r_mmod_Van_der_Waal_Energy-OPLS-2005>
150.940292358398

> <r_mmod_Electrostatic_Energy-OPLS-2005>
-404.6982421875

> <r_mmod_Solvation_Energy-OPLS-2005>
-245.311706542969

> <b_mmod_Minimization_Converged-OPLS-2005>
0

> <r_mmod_RMS_Derivative-OPLS-2005>
1.21682214736938

$$$$
30
                    3D
 Structure written by MMmdl.
156164  0  0  1  0            999 V2000
  -30.6961  -14.5211   20.4885 C   0  0  0  0  0  0
  -30.4154  -12.3165   19.4388 C   0  0  0  0  0  0
  -29.4944  -12.4780   18.2121 C   0  0  0  0  0  0
  -28.0155  -12.3420   18.6262 C   0  0  0  0  0  0
  -27.6510  -13.2130   19.8601 C   0  0  2  0  0  0
  -28.6976  -13.0609   20.9879 C   0  0  0  0  0  0
  -25.2555  -13.8173   20.5694 C   0  0  0  0  0  0
  -24.1818  -13.0437   20.9197 C   0  0  0  0  0  0
  -24.6381  -11.6908   20.8743 C   0  0  0  0  0  0
  -23.9047  -10.4295   21.0400 C   0  0  0  0  0  0
  -24.3598   -9.4213   21.9176 C   0  0  0  0  0  0
  -23.6285   -8.2246   22.0746 C   0  0  0  0  0  0
  -22.4268   -8.0277   21.3539 C   0  0  0  0  0  0
  -21.9898   -9.0250   20.4640 C   0  0  0  0  0  0
  -22.7219  -10.2135   20.3051 C   0  0  0  0  0  0
  -21.6854   -6.0730   22.5280 C   0  0  0  0  0  0
  -21.4017   -6.5633   23.8213 C   0  0  0  0  0  0
  -21.3659   -5.6786   24.9172 C   0  0  0  0  0  0
  -21.6042   -4.3050   24.7224 C   0  0  0  0  0  0
  -21.8819   -3.8143   23.4346 C   0  0  0  0  0  0
  -21.9194   -4.6959   22.3402 C   0  0  0  0  0  0
  -22.7843  -13.5239   21.1853 C   0  0  0  0  0  0
  -22.1665   -4.2145   21.0982 F   0  0  0  0  0  0
  -21.5622   -3.4531   25.7734 F   0  0  0  0  0  0
  -30.0160  -13.3458   20.4099 N   0  0  0  0  0  0
  -26.2975  -12.9347   20.3325 N   0  0  0  0  0  0
  -25.9305  -11.6504   20.5762 N   0  0  0  0  0  0
  -22.0479  -12.8245   22.0415 N   0  0  0  0  0  0
  -25.4266  -15.1889   20.4105 N   0  0  0  0  0  0
  -31.8841  -14.6187   20.1841 O   0  0  0  0  0  0
  -21.6634   -6.8873   21.4242 O   0  0  0  0  0  0
  -22.3533  -14.5541   20.6692 O   0  0  0  0  0  0
  -24.6169  -31.8668   23.2084 C   0  0  0  0  0  0
  -25.9064  -32.4807   23.8376 C   0  0  1  0  0  0
  -27.2302  -27.4101   20.0939 C   0  0  0  0  0  0
  -25.5915  -33.8608   24.2305 N   0  0  0  0  0  0
  -23.4032  -30.4915   21.5511 C   0  0  2  0  0  0
  -24.8457  -28.9522   20.1177 C   0  0  0  0  0  0
  -22.7409  -29.4662   22.4998 C   0  0  0  0  0  0
  -18.0272  -28.1378   22.8484 C   0  0  0  0  0  0
  -24.1494  -36.7313   23.2638 C   0  0  0  0  0  0
  -25.9351  -30.8244   21.3637 C   0  0  0  0  0  0
  -26.0088  -29.4578   20.7096 C   0  0  0  0  0  0
  -27.2014  -28.6956   20.6904 C   0  0  0  0  0  0
  -26.0404  -26.9216   19.5048 C   0  0  0  0  0  0
  -24.8580  -27.6840   19.5138 C   0  0  0  0  0  0
  -23.6111  -29.8245   20.1656 C   0  0  0  0  0  0
  -25.4111  -36.3100   24.0333 C   0  0  1  0  0  0
  -20.5865  -28.3666   23.1326 C   0  0  2  0  0  0
  -20.6777  -26.9410   22.5415 C   0  0  0  0  0  0
  -19.5753  -26.6389   21.5216 C   0  0  0  0  0  0
  -18.1925  -26.7922   22.1622 C   0  0  0  0  0  0
  -19.1524  -28.8839   23.2896 C   0  0  0  0  0  0
  -18.9447  -30.1445   23.8905 C   0  0  0  0  0  0
  -17.6452  -30.6585   24.0569 C   0  0  0  0  0  0
  -25.9041  -34.9469   23.5112 C   0  0  0  0  0  0
  -16.5343  -29.9087   23.6330 C   0  0  0  0  0  0
  -16.7261  -28.6506   23.0341 C   0  0  0  0  0  0
  -26.4483  -31.6590   25.0711 C   0  0  0  0  0  0
  -25.3748  -31.3708   26.1461 C   0  0  0  0  0  0
  -27.0313  -30.3029   24.6097 C   0  0  0  0  0  0
  -27.6051  -32.4318   25.7474 C   0  0  0  0  0  0
  -27.5577  -37.1810   24.8463 C   0  0  0  0  0  0
  -21.4138  -29.3034   22.3731 N   0  0  0  0  0  0
  -26.4291  -37.3788   23.9405 N   0  0  0  0  0  0
  -24.6704  -31.0750   22.0996 N   0  0  0  0  0  0
  -23.4175  -28.8205   23.3049 O   0  0  0  0  0  0
  -28.4189  -26.6962   20.1002 O   0  0  0  0  0  0
  -26.5605  -34.8926   22.4674 O   0  0  0  0  0  0
  -23.5359  -32.1443   23.7462 O   0  0  0  0  0  0
  -28.7222  -18.8021   22.0648 C   0  0  0  0  0  0
  -28.6608  -20.2016   21.8650 C   0  0  0  0  0  0
  -29.6370  -18.5203   19.8391 C   0  0  0  0  0  0
  -29.2082  -17.9364   21.0586 C   0  0  0  0  0  0
  -29.5858  -19.9229   19.6433 C   0  0  0  0  0  0
  -29.0813  -20.7857   20.6461 C   0  0  0  0  0  0
  -29.2453  -16.4144   21.3257 C   0  0  0  0  0  0
  -28.0445  -24.3883   20.9728 C   0  0  0  0  0  0
  -28.4437  -25.2872   19.7747 C   0  0  0  0  0  0
  -27.8521  -22.8697   20.6874 C   0  0  0  0  0  0
  -30.0307  -20.4716   18.4422 N   0  0  0  0  0  0
  -29.9553  -15.6306   20.3115 N   0  0  0  0  0  0
  -29.0719  -22.1579   20.4219 O   0  0  0  0  0  0
  -31.4619  -12.4022   19.1405 H   0  0  0  0  0  0
  -30.3084  -11.3229   19.8769 H   0  0  0  0  0  0
  -29.7400  -11.7302   17.4572 H   0  0  0  0  0  0
  -29.6609  -13.4500   17.7459 H   0  0  0  0  0  0
  -27.8372  -11.2904   18.8533 H   0  0  0  0  0  0
  -27.3639  -12.5838   17.7857 H   0  0  0  0  0  0
  -27.6724  -14.2482   19.5208 H   0  0  0  0  0  0
  -28.6814  -12.0504   21.3975 H   0  0  0  0  0  0
  -28.4770  -13.7301   21.8203 H   0  0  0  0  0  0
  -25.2735   -9.5696   22.4755 H   0  0  0  0  0  0
  -23.9993   -7.4636   22.7462 H   0  0  0  0  0  0
  -21.0828   -8.8762   19.8949 H   0  0  0  0  0  0
  -22.3664  -10.9669   19.6164 H   0  0  0  0  0  0
  -21.2019   -7.6140   23.9720 H   0  0  0  0  0  0
  -21.1477   -6.0511   25.9075 H   0  0  0  0  0  0
  -22.0601   -2.7607   23.2844 H   0  0  0  0  0  0
  -22.4085  -11.9917   22.4827 H   0  0  0  0  0  0
  -21.1090  -13.1273   22.2585 H   0  0  0  0  0  0
  -24.6594  -15.8436   20.5155 H   0  0  0  0  0  0
  -26.2756  -15.6256   20.0741 H   0  0  0  0  0  0
  -26.7128  -32.5501   23.1128 H   0  0  0  0  0  0
  -25.0084  -33.9766   25.0458 H   0  0  0  0  0  0
  -22.6928  -31.3097   21.4130 H   0  0  0  0  0  0
  -23.3746  -35.9659   23.3310 H   0  0  0  0  0  0
  -24.3581  -36.8912   22.2049 H   0  0  0  0  0  0
  -23.7260  -37.6525   23.6648 H   0  0  0  0  0  0
  -26.0523  -31.5896   20.5946 H   0  0  0  0  0  0
  -26.8216  -30.8734   21.9845 H   0  0  0  0  0  0
  -28.1006  -29.0877   21.1440 H   0  0  0  0  0  0
  -25.9906  -25.9552   19.0293 H   0  0  0  0  0  0
  -23.9632  -27.2861   19.0560 H   0  0  0  0  0  0
  -23.7250  -30.6018   19.4092 H   0  0  0  0  0  0
  -22.7319  -29.2515   19.8659 H   0  0  0  0  0  0
  -25.1291  -36.1957   25.0827 H   0  0  0  0  0  0
  -20.9944  -28.3234   24.1454 H   0  0  0  0  0  0
  -20.5696  -26.2288   23.3604 H   0  0  0  0  0  0
  -21.6650  -26.7471   22.1201 H   0  0  0  0  0  0
  -19.6926  -25.6303   21.1237 H   0  0  0  0  0  0
  -19.6686  -27.3208   20.6753 H   0  0  0  0  0  0
  -17.4203  -26.6669   21.4019 H   0  0  0  0  0  0
  -18.0324  -26.0057   22.9015 H   0  0  0  0  0  0
  -19.7925  -30.7256   24.2279 H   0  0  0  0  0  0
  -17.5006  -31.6265   24.5172 H   0  0  0  0  0  0
  -15.5344  -30.2991   23.7648 H   0  0  0  0  0  0
  -15.8656  -28.0834   22.7049 H   0  0  0  0  0  0
  -24.5910  -30.7064   25.7799 H   0  0  0  0  0  0
  -24.8964  -32.2874   26.4928 H   0  0  0  0  0  0
  -25.8107  -30.8861   27.0208 H   0  0  0  0  0  0
  -26.2859  -29.6782   24.1159 H   0  0  0  0  0  0
  -27.4088  -29.7268   25.4556 H   0  0  0  0  0  0
  -27.8697  -30.4339   23.9247 H   0  0  0  0  0  0
  -27.2657  -33.3597   26.2094 H   0  0  0  0  0  0
  -28.3843  -32.6910   25.0290 H   0  0  0  0  0  0
  -28.0749  -31.8422   26.5357 H   0  0  0  0  0  0
  -28.2607  -38.0097   24.7493 H   0  0  0  0  0  0
  -28.1060  -36.2624   24.6308 H   0  0  0  0  0  0
  -27.2292  -37.1482   25.8867 H   0  0  0  0  0  0
  -20.9300  -29.8754   21.6945 H   0  0  0  0  0  0
  -26.0176  -38.2869   24.1393 H   0  0  0  0  0  0
  -28.3971  -18.3917   23.0117 H   0  0  0  0  0  0
  -28.3096  -20.8254   22.6741 H   0  0  0  0  0  0
  -30.0138  -17.8974   19.0412 H   0  0  0  0  0  0
  -28.2162  -16.0587   21.3876 H   0  0  0  0  0  0
  -29.6972  -16.2393   22.3042 H   0  0  0  0  0  0
  -27.1003  -24.7657   21.3659 H   0  0  0  0  0  0
  -28.7665  -24.5168   21.7792 H   0  0  0  0  0  0
  -27.8612  -25.0547   18.8848 H   0  0  0  0  0  0
  -29.4701  -25.0460   19.4966 H   0  0  0  0  0  0
  -27.1814  -22.7329   19.8377 H   0  0  0  0  0  0
  -27.3298  -22.4453   21.5438 H   0  0  0  0  0  0
  -29.7822  -21.4427   18.2771 H   0  0  0  0  0  0
  -29.9773  -19.9014   17.6047 H   0  0  0  0  0  0
  -30.4588  -16.2587   19.7061 H   0  0  0  0  0  0
  1 25  1  0  0  0
  1 30  2  0  0  0
  1 82  1  0  0  0
  2  3  1  0  0  0
  2 25  1  0  0  0
  2 84  1  0  0  0
  2 85  1  0  0  0
  3  4  1  0  0  0
  3 86  1  0  0  0
  3 87  1  0  0  0
  4  5  1  0  0  0
  4 88  1  0  0  0
  4 89  1  0  0  0
  5  6  1  0  0  0
  5 26  1  0  0  0
  5 90  1  0  0  0
  6 25  1  0  0  0
  6 91  1  0  0  0
  6 92  1  0  0  0
  7  8  2  0  0  0
  7 26  1  0  0  0
  7 29  1  0  0  0
  8  9  1  0  0  0
  8 22  1  0  0  0
  9 10  1  0  0  0
  9 27  2  0  0  0
 10 11  2  0  0  0
 10 15  1  0  0  0
 11 12  1  0  0  0
 11 93  1  0  0  0
 12 13  2  0  0  0
 12 94  1  0  0  0
 13 14  1  0  0  0
 13 31  1  0  0  0
 14 15  2  0  0  0
 14 95  1  0  0  0
 15 96  1  0  0  0
 16 17  2  0  0  0
 16 21  1  0  0  0
 16 31  1  0  0  0
 17 18  1  0  0  0
 17 97  1  0  0  0
 18 19  2  0  0  0
 18 98  1  0  0  0
 19 20  1  0  0  0
 19 24  1  0  0  0
 20 21  2  0  0  0
 20 99  1  0  0  0
 21 23  1  0  0  0
 22 28  1  0  0  0
 22 32  2  0  0  0
 26 27  1  0  0  0
 28100  1  0  0  0
 28101  1  0  0  0
 29102  1  0  0  0
 29103  1  0  0  0
 33 34  1  0  0  0
 33 66  1  0  0  0
 33 70  2  0  0  0
 34 36  1  0  0  0
 34 59  1  0  0  0
 34104  1  0  0  0
 35 44  2  0  0  0
 35 45  1  0  0  0
 35 68  1  0  0  0
 36 56  1  0  0  0
 36105  1  0  0  0
 37 39  1  0  0  0
 37 47  1  0  0  0
 37 66  1  0  0  0
 37106  1  0  0  0
 38 43  2  0  0  0
 38 46  1  0  0  0
 38 47  1  0  0  0
 39 64  1  0  0  0
 39 67  2  0  0  0
 40 52  1  0  0  0
 40 53  2  0  0  0
 40 58  1  0  0  0
 41107  1  0  0  0
 41108  1  0  0  0
 41109  1  0  0  0
 41 48  1  0  0  0
 42 43  1  0  0  0
 42 66  1  0  0  0
 42110  1  0  0  0
 42111  1  0  0  0
 43 44  1  0  0  0
 44112  1  0  0  0
 45 46  2  0  0  0
 45113  1  0  0  0
 46114  1  0  0  0
 47115  1  0  0  0
 47116  1  0  0  0
 48 56  1  0  0  0
 48 65  1  0  0  0
 48117  1  0  0  0
 49 50  1  0  0  0
 49 53  1  0  0  0
 49 64  1  0  0  0
 49118  1  0  0  0
 50 51  1  0  0  0
 50119  1  0  0  0
 50120  1  0  0  0
 51 52  1  0  0  0
 51121  1  0  0  0
 51122  1  0  0  0
 52123  1  0  0  0
 52124  1  0  0  0
 53 54  1  0  0  0
 54 55  2  0  0  0
 54125  1  0  0  0
 55 57  1  0  0  0
 55126  1  0  0  0
 56 69  2  0  0  0
 57 58  2  0  0  0
 57127  1  0  0  0
 58128  1  0  0  0
 59 60  1  0  0  0
 59 61  1  0  0  0
 59 62  1  0  0  0
 60129  1  0  0  0
 60130  1  0  0  0
 60131  1  0  0  0
 61132  1  0  0  0
 61133  1  0  0  0
 61134  1  0  0  0
 62135  1  0  0  0
 62136  1  0  0  0
 62137  1  0  0  0
 63 65  1  0  0  0
 63138  1  0  0  0
 63139  1  0  0  0
 63140  1  0  0  0
 64141  1  0  0  0
 65142  1  0  0  0
 68 79  1  0  0  0
 71 72  2  0  0  0
 71 74  1  0  0  0
 71143  1  0  0  0
 72 76  1  0  0  0
 72144  1  0  0  0
 73 74  2  0  0  0
 73 75  1  0  0  0
 73145  1  0  0  0
 74 77  1  0  0  0
 75 76  2  0  0  0
 75 81  1  0  0  0
 76 83  1  0  0  0
 77 82  1  0  0  0
 77146  1  0  0  0
 77147  1  0  0  0
 78 79  1  0  0  0
 78 80  1  0  0  0
 78148  1  0  0  0
 78149  1  0  0  0
 79150  1  0  0  0
 79151  1  0  0  0
 80 83  1  0  0  0
 80152  1  0  0  0
 80153  1  0  0  0
 81154  1  0  0  0
 81155  1  0  0  0
 82156  1  0  0  0
M  ISO  4   1 100  68 101  79 101  82 100
M  END
> <chiral flag>
0

> <version>
0

> <s_m_source_file>
/data/baiqing/PycharmProjects/Reinvent-master-3.2/result/LINK_invent/BTK/process_docking_weight1_custom_product_contain_oxygen_bond_distance_aromatic_linkinvent_7_9_3/rearranged_h_0106.sdf

> <i_m_source_file_index>
31

> <r_mmod_Potential_Energy-OPLS-2005>
-54.022590637207

> <r_mmod_Stretch_Energy-OPLS-2005>
41.0202293395996

> <r_mmod_Bend_Energy-OPLS-2005>
123.373321533203

> <r_mmod_Torsional_Energy-OPLS-2005>
271.457000732422

> <r_mmod_Improper_Torsional_Energy-OPLS-2005>
28.2268466949463

> <r_mmod_Van_der_Waal_Energy-OPLS-2005>
145.651565551758

> <r_mmod_Electrostatic_Energy-OPLS-2005>
-468.705749511719

> <r_mmod_Solvation_Energy-OPLS-2005>
-218.376907348633

> <b_mmod_Minimization_Converged-OPLS-2005>
0

> <r_mmod_RMS_Derivative-OPLS-2005>
1.37477421760559

$$$$
31
                    3D
 Structure written by MMmdl.
163172  0  0  1  0            999 V2000
  -30.7066  -14.4761   20.5870 C   0  0  0  0  0  0
  -30.4212  -12.3160   19.4198 C   0  0  0  0  0  0
  -29.4920  -12.5063   18.2038 C   0  0  0  0  0  0
  -28.0141  -12.3633   18.6177 C   0  0  0  0  0  0
  -27.6591  -13.2070   19.8716 C   0  0  2  0  0  0
  -28.7012  -12.9962   20.9930 C   0  0  0  0  0  0
  -25.2580  -13.8163   20.5667 C   0  0  0  0  0  0
  -24.1835  -13.0441   20.9177 C   0  0  0  0  0  0
  -24.6388  -11.6906   20.8735 C   0  0  0  0  0  0
  -23.9057  -10.4293   21.0409 C   0  0  0  0  0  0
  -24.3613   -9.4209   21.9186 C   0  0  0  0  0  0
  -23.6289   -8.2245   22.0756 C   0  0  0  0  0  0
  -22.4272   -8.0282   21.3547 C   0  0  0  0  0  0
  -21.9908   -9.0252   20.4647 C   0  0  0  0  0  0
  -22.7234  -10.2133   20.3056 C   0  0  0  0  0  0
  -21.6851   -6.0738   22.5280 C   0  0  0  0  0  0
  -21.4012   -6.5640   23.8215 C   0  0  0  0  0  0
  -21.3657   -5.6792   24.9174 C   0  0  0  0  0  0
  -21.6045   -4.3055   24.7223 C   0  0  0  0  0  0
  -21.8819   -3.8148   23.4345 C   0  0  0  0  0  0
  -21.9192   -4.6967   22.3402 C   0  0  0  0  0  0
  -22.7859  -13.5242   21.1844 C   0  0  0  0  0  0
  -22.1661   -4.2150   21.0983 F   0  0  0  0  0  0
  -21.5628   -3.4542   25.7739 F   0  0  0  0  0  0
  -30.0294  -13.3043   20.4373 N   0  0  0  0  0  0
  -26.3011  -12.9329   20.3349 N   0  0  0  0  0  0
  -25.9314  -11.6490   20.5765 N   0  0  0  0  0  0
  -22.0495  -12.8231   22.0395 N   0  0  0  0  0  0
  -25.4310  -15.1880   20.4051 N   0  0  0  0  0  0
  -31.8304  -14.6510   20.1066 O   0  0  0  0  0  0
  -21.6638   -6.8879   21.4242 O   0  0  0  0  0  0
  -22.3548  -14.5553   20.6699 O   0  0  0  0  0  0
  -24.6145  -31.8677   23.2093 C   0  0  0  0  0  0
  -25.9039  -32.4818   23.8390 C   0  0  1  0  0  0
  -27.2360  -27.4333   20.1023 C   0  0  0  0  0  0
  -25.5902  -33.8613   24.2325 N   0  0  0  0  0  0
  -23.4037  -30.4896   21.5482 C   0  0  2  0  0  0
  -24.8538  -28.9524   20.1153 C   0  0  0  0  0  0
  -22.7413  -29.4657   22.4983 C   0  0  0  0  0  0
  -18.0276  -28.1384   22.8490 C   0  0  0  0  0  0
  -24.1487  -36.7307   23.2640 C   0  0  0  0  0  0
  -25.9316  -30.8315   21.3644 C   0  0  0  0  0  0
  -26.0109  -29.4633   20.7181 C   0  0  0  0  0  0
  -27.2071  -28.7078   20.7156 C   0  0  0  0  0  0
  -26.0699  -26.9390   19.4883 C   0  0  0  0  0  0
  -24.8772  -27.6880   19.4997 C   0  0  0  0  0  0
  -23.6141  -29.8178   20.1641 C   0  0  0  0  0  0
  -25.4108  -36.3105   24.0341 C   0  0  1  0  0  0
  -20.5866  -28.3669   23.1318 C   0  0  2  0  0  0
  -20.6763  -26.9404   22.5419 C   0  0  0  0  0  0
  -19.5742  -26.6389   21.5217 C   0  0  0  0  0  0
  -18.1919  -26.7930   22.1624 C   0  0  0  0  0  0
  -19.1525  -28.8843   23.2900 C   0  0  0  0  0  0
  -18.9454  -30.1447   23.8912 C   0  0  0  0  0  0
  -17.6457  -30.6588   24.0572 C   0  0  0  0  0  0
  -25.9034  -34.9473   23.5130 C   0  0  0  0  0  0
  -16.5347  -29.9090   23.6337 C   0  0  0  0  0  0
  -16.7267  -28.6510   23.0349 C   0  0  0  0  0  0
  -26.4471  -31.6596   25.0715 C   0  0  0  0  0  0
  -25.3738  -31.3700   26.1463 C   0  0  0  0  0  0
  -27.0306  -30.3043   24.6085 C   0  0  0  0  0  0
  -27.6038  -32.4318   25.7481 C   0  0  0  0  0  0
  -27.5580  -37.1804   24.8468 C   0  0  0  0  0  0
  -21.4141  -29.3035   22.3722 N   0  0  0  0  0  0
  -26.4292  -37.3791   23.9416 N   0  0  0  0  0  0
  -24.6678  -31.0779   22.0993 N   0  0  0  0  0  0
  -23.4185  -28.8204   23.3029 O   0  0  0  0  0  0
  -28.3721  -26.6559   20.0736 O   0  0  0  0  0  0
  -26.5593  -34.8924   22.4688 O   0  0  0  0  0  0
  -23.5339  -32.1427   23.7487 O   0  0  0  0  0  0
  -31.1885  -19.3929   22.4018 C   0  0  0  0  0  0
  -29.4858  -17.8636   21.5670 C   0  0  0  0  0  0
  -31.7794  -17.0898   21.8519 C   0  0  0  0  0  0
  -29.8491  -19.1645   22.0155 C   0  0  0  0  0  0
  -32.1515  -18.3716   22.3012 C   0  0  0  0  0  0
  -30.4382  -16.8103   21.4937 C   0  0  0  0  0  0
  -27.5608  -23.7735   21.5365 C   0  0  0  0  0  0
  -28.6623  -24.4886   21.2592 C   0  0  0  0  0  0
  -27.5012  -22.2466   21.6087 C   0  0  0  0  0  0
  -29.9573  -23.7511   20.9774 C   0  0  0  0  0  0
  -30.0052  -22.3631   21.6677 C   0  0  0  0  0  0
  -28.7756  -20.2461   22.2541 C   0  0  0  0  0  0
  -28.6958  -26.0235   21.3181 C   0  0  0  0  0  0
  -33.4689  -18.6239   22.6791 N   0  0  0  0  0  0
  -30.0037  -15.4852   21.1497 N   0  0  0  0  0  0
  -28.7999  -21.5111   21.4405 N   0  3  1  0  0  0
  -31.4652  -12.4148   19.1167 H   0  0  0  0  0  0
  -30.3247  -11.3063   19.8219 H   0  0  0  0  0  0
  -29.7335  -11.7791   17.4274 H   0  0  0  0  0  0
  -29.6563  -13.4912   17.7637 H   0  0  0  0  0  0
  -27.8276  -11.3073   18.8165 H   0  0  0  0  0  0
  -27.3626  -12.6340   17.7861 H   0  0  0  0  0  0
  -27.7008  -14.2536   19.5690 H   0  0  0  0  0  0
  -28.6818  -11.9619   21.3395 H   0  0  0  0  0  0
  -28.4603  -13.5997   21.8696 H   0  0  0  0  0  0
  -25.2759   -9.5685   22.4757 H   0  0  0  0  0  0
  -23.9998   -7.4637   22.7474 H   0  0  0  0  0  0
  -21.0842   -8.8771   19.8949 H   0  0  0  0  0  0
  -22.3697  -10.9672   19.6160 H   0  0  0  0  0  0
  -21.2003   -7.6146   23.9716 H   0  0  0  0  0  0
  -21.1477   -6.0524   25.9076 H   0  0  0  0  0  0
  -22.0600   -2.7610   23.2847 H   0  0  0  0  0  0
  -22.4099  -11.9879   22.4767 H   0  0  0  0  0  0
  -21.1115  -13.1262   22.2605 H   0  0  0  0  0  0
  -24.6610  -15.8415   20.4978 H   0  0  0  0  0  0
  -26.2759  -15.6209   20.0546 H   0  0  0  0  0  0
  -26.7109  -32.5544   23.1158 H   0  0  0  0  0  0
  -25.0070  -33.9777   25.0481 H   0  0  0  0  0  0
  -22.6925  -31.3062   21.4052 H   0  0  0  0  0  0
  -23.3750  -35.9641   23.3314 H   0  0  0  0  0  0
  -24.3581  -36.8913   22.2053 H   0  0  0  0  0  0
  -23.7240  -37.6516   23.6643 H   0  0  0  0  0  0
  -26.0428  -31.5940   20.5922 H   0  0  0  0  0  0
  -26.8202  -30.8894   21.9811 H   0  0  0  0  0  0
  -28.1016  -29.0978   21.1807 H   0  0  0  0  0  0
  -26.0857  -25.9688   19.0117 H   0  0  0  0  0  0
  -23.9879  -27.2889   19.0318 H   0  0  0  0  0  0
  -23.7190  -30.5903   19.4015 H   0  0  0  0  0  0
  -22.7394  -29.2348   19.8705 H   0  0  0  0  0  0
  -25.1280  -36.1968   25.0833 H   0  0  0  0  0  0
  -20.9959  -28.3237   24.1439 H   0  0  0  0  0  0
  -20.5681  -26.2272   23.3605 H   0  0  0  0  0  0
  -21.6629  -26.7449   22.1196 H   0  0  0  0  0  0
  -19.6903  -25.6307   21.1231 H   0  0  0  0  0  0
  -19.6684  -27.3214   20.6760 H   0  0  0  0  0  0
  -17.4188  -26.6700   21.4025 H   0  0  0  0  0  0
  -18.0303  -26.0066   22.9010 H   0  0  0  0  0  0
  -19.7930  -30.7261   24.2282 H   0  0  0  0  0  0
  -17.5013  -31.6270   24.5166 H   0  0  0  0  0  0
  -15.5348  -30.2998   23.7653 H   0  0  0  0  0  0
  -15.8666  -28.0841   22.7052 H   0  0  0  0  0  0
  -24.5921  -30.7033   25.7813 H   0  0  0  0  0  0
  -24.8911  -32.2849   26.4907 H   0  0  0  0  0  0
  -25.8090  -30.8884   27.0227 H   0  0  0  0  0  0
  -26.2848  -29.6805   24.1143 H   0  0  0  0  0  0
  -27.4098  -29.7278   25.4535 H   0  0  0  0  0  0
  -27.8673  -30.4382   23.9223 H   0  0  0  0  0  0
  -27.2652  -33.3615   26.2069 H   0  0  0  0  0  0
  -28.3843  -32.6888   25.0307 H   0  0  0  0  0  0
  -28.0708  -31.8437   26.5394 H   0  0  0  0  0  0
  -28.2594  -38.0104   24.7509 H   0  0  0  0  0  0
  -28.1073  -36.2630   24.6289 H   0  0  0  0  0  0
  -27.2292  -37.1451   25.8870 H   0  0  0  0  0  0
  -20.9300  -29.8751   21.6941 H   0  0  0  0  0  0
  -26.0184  -38.2874   24.1411 H   0  0  0  0  0  0
  -31.4787  -20.3480   22.8138 H   0  0  0  0  0  0
  -28.4527  -17.6578   21.3218 H   0  0  0  0  0  0
  -32.5278  -16.3111   21.8219 H   0  0  0  0  0  0
  -26.6375  -24.2892   21.7608 H   0  0  0  0  0  0
  -26.7829  -21.8787   20.8752 H   0  0  0  0  0  0
  -27.0768  -22.0221   22.5886 H   0  0  0  0  0  0
  -30.8043  -24.3437   21.3254 H   0  0  0  0  0  0
  -30.0708  -23.6511   19.8974 H   0  0  0  0  0  0
  -30.1367  -22.5071   22.7417 H   0  0  0  0  0  0
  -30.8930  -21.8453   21.3068 H   0  0  0  0  0  0
  -28.8034  -20.5113   23.3124 H   0  0  0  0  0  0
  -27.8052  -19.7699   22.1037 H   0  0  0  0  0  0
  -29.6855  -26.3557   21.6330 H   0  0  0  0  0  0
  -28.0174  -26.3433   22.1127 H   0  0  0  0  0  0
  -33.6741  -19.4314   23.2600 H   0  0  0  0  0  0
  -34.0899  -17.8400   22.8572 H   0  0  0  0  0  0
  -29.0384  -15.2675   21.3438 H   0  0  0  0  0  0
  -28.8328  -21.2278   20.4728 H   0  0  0  0  0  0
  1 25  1  0  0  0
  1 30  2  0  0  0
  1 85  1  0  0  0
  2  3  1  0  0  0
  2 25  1  0  0  0
  2 87  1  0  0  0
  2 88  1  0  0  0
  3  4  1  0  0  0
  3 89  1  0  0  0
  3 90  1  0  0  0
  4  5  1  0  0  0
  4 91  1  0  0  0
  4 92  1  0  0  0
  5  6  1  0  0  0
  5 26  1  0  0  0
  5 93  1  0  0  0
  6 25  1  0  0  0
  6 94  1  0  0  0
  6 95  1  0  0  0
  7  8  2  0  0  0
  7 26  1  0  0  0
  7 29  1  0  0  0
  8  9  1  0  0  0
  8 22  1  0  0  0
  9 10  1  0  0  0
  9 27  2  0  0  0
 10 11  2  0  0  0
 10 15  1  0  0  0
 11 12  1  0  0  0
 11 96  1  0  0  0
 12 13  2  0  0  0
 12 97  1  0  0  0
 13 14  1  0  0  0
 13 31  1  0  0  0
 14 15  2  0  0  0
 14 98  1  0  0  0
 15 99  1  0  0  0
 16 17  2  0  0  0
 16 21  1  0  0  0
 16 31  1  0  0  0
 17 18  1  0  0  0
 17100  1  0  0  0
 18 19  2  0  0  0
 18101  1  0  0  0
 19 20  1  0  0  0
 19 24  1  0  0  0
 20 21  2  0  0  0
 20102  1  0  0  0
 21 23  1  0  0  0
 22 28  1  0  0  0
 22 32  2  0  0  0
 26 27  1  0  0  0
 28103  1  0  0  0
 28104  1  0  0  0
 29105  1  0  0  0
 29106  1  0  0  0
 33 34  1  0  0  0
 33 66  1  0  0  0
 33 70  2  0  0  0
 34 36  1  0  0  0
 34 59  1  0  0  0
 34107  1  0  0  0
 35 44  2  0  0  0
 35 45  1  0  0  0
 35 68  1  0  0  0
 36 56  1  0  0  0
 36108  1  0  0  0
 37 39  1  0  0  0
 37 47  1  0  0  0
 37 66  1  0  0  0
 37109  1  0  0  0
 38 43  2  0  0  0
 38 46  1  0  0  0
 38 47  1  0  0  0
 39 64  1  0  0  0
 39 67  2  0  0  0
 40 52  1  0  0  0
 40 53  2  0  0  0
 40 58  1  0  0  0
 41110  1  0  0  0
 41111  1  0  0  0
 41112  1  0  0  0
 41 48  1  0  0  0
 42 43  1  0  0  0
 42 66  1  0  0  0
 42113  1  0  0  0
 42114  1  0  0  0
 43 44  1  0  0  0
 44115  1  0  0  0
 45 46  2  0  0  0
 45116  1  0  0  0
 46117  1  0  0  0
 47118  1  0  0  0
 47119  1  0  0  0
 48 56  1  0  0  0
 48 65  1  0  0  0
 48120  1  0  0  0
 49 50  1  0  0  0
 49 53  1  0  0  0
 49 64  1  0  0  0
 49121  1  0  0  0
 50 51  1  0  0  0
 50122  1  0  0  0
 50123  1  0  0  0
 51 52  1  0  0  0
 51124  1  0  0  0
 51125  1  0  0  0
 52126  1  0  0  0
 52127  1  0  0  0
 53 54  1  0  0  0
 54 55  2  0  0  0
 54128  1  0  0  0
 55 57  1  0  0  0
 55129  1  0  0  0
 56 69  2  0  0  0
 57 58  2  0  0  0
 57130  1  0  0  0
 58131  1  0  0  0
 59 60  1  0  0  0
 59 61  1  0  0  0
 59 62  1  0  0  0
 60132  1  0  0  0
 60133  1  0  0  0
 60134  1  0  0  0
 61135  1  0  0  0
 61136  1  0  0  0
 61137  1  0  0  0
 62138  1  0  0  0
 62139  1  0  0  0
 62140  1  0  0  0
 63 65  1  0  0  0
 63141  1  0  0  0
 63142  1  0  0  0
 63143  1  0  0  0
 64144  1  0  0  0
 65145  1  0  0  0
 68 83  1  0  0  0
 71 74  2  0  0  0
 71 75  1  0  0  0
 71146  1  0  0  0
 72 74  1  0  0  0
 72 76  2  0  0  0
 72147  1  0  0  0
 73 75  2  0  0  0
 73 76  1  0  0  0
 73148  1  0  0  0
 74 82  1  0  0  0
 75 84  1  0  0  0
 76 85  1  0  0  0
 77 78  2  0  0  0
 77 79  1  0  0  0
 77149  1  0  0  0
 78 80  1  0  0  0
 78 83  1  0  0  0
 79 86  1  0  0  0
 79150  1  0  0  0
 79151  1  0  0  0
 80 81  1  0  0  0
 80152  1  0  0  0
 80153  1  0  0  0
 81 86  1  0  0  0
 81154  1  0  0  0
 81155  1  0  0  0
 82156  1  0  0  0
 82157  1  0  0  0
 82 86  1  0  0  0
 83158  1  0  0  0
 83159  1  0  0  0
 84160  1  0  0  0
 84161  1  0  0  0
 85162  1  0  0  0
 86163  1  0  0  0
M  CHG  1  86   1
M  ISO  4   1 100  68 101  83 101  85 100
M  END
> <chiral flag>
0

> <version>
0

> <s_m_source_file>
/data/baiqing/PycharmProjects/Reinvent-master-3.2/result/LINK_invent/BTK/process_docking_weight1_custom_product_contain_oxygen_bond_distance_aromatic_linkinvent_7_9_3/rearranged_h_0106.sdf

> <i_m_source_file_index>
32

> <r_mmod_Potential_Energy-OPLS-2005>
-147.012405395508

> <r_mmod_Stretch_Energy-OPLS-2005>
42.8933525085449

> <r_mmod_Bend_Energy-OPLS-2005>
111.244262695312

> <r_mmod_Torsional_Energy-OPLS-2005>
247.725402832031

> <r_mmod_Improper_Torsional_Energy-OPLS-2005>
7.21623754501343

> <r_mmod_Van_der_Waal_Energy-OPLS-2005>
158.976486206055

> <r_mmod_Electrostatic_Energy-OPLS-2005>
-272.394714355469

> <r_mmod_Solvation_Energy-OPLS-2005>
-455.406494140625

> <b_mmod_Minimization_Converged-OPLS-2005>
0

> <r_mmod_RMS_Derivative-OPLS-2005>
0.819757640361786

$$$$
32
                    3D
 Structure written by MMmdl.
161169  0  0  1  0            999 V2000
  -30.6947  -14.4570   20.5348 C   0  0  0  0  0  0
  -30.4277  -12.2826   19.4222 C   0  0  0  0  0  0
  -29.4974  -12.4789   18.2074 C   0  0  0  0  0  0
  -28.0155  -12.3530   18.6193 C   0  0  0  0  0  0
  -27.6626  -13.1895   19.8787 C   0  0  2  0  0  0
  -28.7083  -12.9747   20.9957 C   0  0  0  0  0  0
  -25.2628  -13.8110   20.5733 C   0  0  0  0  0  0
  -24.1854  -13.0412   20.9197 C   0  0  0  0  0  0
  -24.6378  -11.6871   20.8739 C   0  0  0  0  0  0
  -23.9040  -10.4278   21.0410 C   0  0  0  0  0  0
  -24.3595   -9.4199   21.9192 C   0  0  0  0  0  0
  -23.6287   -8.2228   22.0754 C   0  0  0  0  0  0
  -22.4271   -8.0271   21.3541 C   0  0  0  0  0  0
  -21.9900   -9.0241   20.4646 C   0  0  0  0  0  0
  -22.7218  -10.2123   20.3057 C   0  0  0  0  0  0
  -21.6847   -6.0741   22.5287 C   0  0  0  0  0  0
  -21.4000   -6.5644   23.8218 C   0  0  0  0  0  0
  -21.3653   -5.6798   24.9181 C   0  0  0  0  0  0
  -21.6044   -4.3063   24.7230 C   0  0  0  0  0  0
  -21.8819   -3.8160   23.4349 C   0  0  0  0  0  0
  -21.9190   -4.6975   22.3407 C   0  0  0  0  0  0
  -22.7886  -13.5235   21.1864 C   0  0  0  0  0  0
  -22.1666   -4.2160   21.0986 F   0  0  0  0  0  0
  -21.5629   -3.4542   25.7737 F   0  0  0  0  0  0
  -30.0386  -13.2715   20.4360 N   0  0  0  0  0  0
  -26.3034  -12.9239   20.3402 N   0  0  0  0  0  0
  -25.9296  -11.6417   20.5776 N   0  0  0  0  0  0
  -22.0502  -12.8225   22.0401 N   0  0  0  0  0  0
  -25.4381  -15.1832   20.4231 N   0  0  0  0  0  0
  -31.8449  -14.6323   20.1224 O   0  0  0  0  0  0
  -21.6629   -6.8877   21.4245 O   0  0  0  0  0  0
  -22.3586  -14.5552   20.6722 O   0  0  0  0  0  0
  -24.6115  -31.8684   23.2108 C   0  0  0  0  0  0
  -25.9017  -32.4826   23.8395 C   0  0  1  0  0  0
  -27.2496  -27.4648   20.0764 C   0  0  0  0  0  0
  -25.5883  -33.8623   24.2330 N   0  0  0  0  0  0
  -23.3970  -30.4901   21.5520 C   0  0  2  0  0  0
  -24.8436  -28.9539   20.1170 C   0  0  0  0  0  0
  -22.7385  -29.4653   22.5023 C   0  0  0  0  0  0
  -18.0254  -28.1373   22.8493 C   0  0  0  0  0  0
  -24.1483  -36.7315   23.2639 C   0  0  0  0  0  0
  -25.9214  -30.8405   21.3583 C   0  0  0  0  0  0
  -25.9984  -29.4736   20.7116 C   0  0  0  0  0  0
  -27.1967  -28.7308   20.6975 C   0  0  0  0  0  0
  -26.0698  -26.9420   19.4941 C   0  0  0  0  0  0
  -24.8717  -27.6829   19.5133 C   0  0  0  0  0  0
  -23.6028  -29.8163   20.1677 C   0  0  0  0  0  0
  -25.4098  -36.3114   24.0343 C   0  0  1  0  0  0
  -20.5843  -28.3643   23.1344 C   0  0  2  0  0  0
  -20.6741  -26.9383   22.5428 C   0  0  0  0  0  0
  -19.5725  -26.6385   21.5211 C   0  0  0  0  0  0
  -18.1901  -26.7927   22.1614 C   0  0  0  0  0  0
  -19.1504  -28.8825   23.2913 C   0  0  0  0  0  0
  -18.9437  -30.1434   23.8919 C   0  0  0  0  0  0
  -17.6441  -30.6583   24.0561 C   0  0  0  0  0  0
  -25.9026  -34.9477   23.5134 C   0  0  0  0  0  0
  -16.5330  -29.9084   23.6330 C   0  0  0  0  0  0
  -16.7247  -28.6501   23.0352 C   0  0  0  0  0  0
  -26.4462  -31.6598   25.0715 C   0  0  0  0  0  0
  -25.3747  -31.3681   26.1478 C   0  0  0  0  0  0
  -27.0277  -30.3050   24.6051 C   0  0  0  0  0  0
  -27.6051  -32.4306   25.7469 C   0  0  0  0  0  0
  -27.5581  -37.1800   24.8458 C   0  0  0  0  0  0
  -21.4116  -29.3019   22.3769 N   0  0  0  0  0  0
  -26.4280  -37.3799   23.9421 N   0  0  0  0  0  0
  -24.6615  -31.0810   22.0990 N   0  0  0  0  0  0
  -23.4177  -28.8199   23.3049 O   0  0  0  0  0  0
  -28.4633  -26.8126   20.0837 O   0  0  0  0  0  0
  -26.5594  -34.8927   22.4697 O   0  0  0  0  0  0
  -23.5317  -32.1417   23.7526 O   0  0  0  0  0  0
  -29.7074  -18.9342   19.4551 C   0  0  0  0  0  0
  -31.1456  -17.5551   21.4203 C   0  0  0  0  0  0
  -29.4425  -17.5643   19.6638 C   0  0  0  0  0  0
  -30.6784  -19.6271   20.2038 C   0  0  0  0  0  0
  -30.1811  -16.8557   20.6568 C   0  0  0  0  0  0
  -31.3988  -18.9277   21.2016 C   0  0  0  0  0  0
  -28.4352  -16.9100   18.7626 C   0  0  0  0  0  0
  -28.7676  -24.3998   20.0096 C   0  0  0  0  0  0
  -30.9266  -21.0955   19.8632 C   0  0  0  0  0  0
  -29.8782  -23.4181   19.6182 C   0  0  0  0  0  0
  -28.7053  -25.7078   19.2121 C   0  0  0  0  0  0
  -29.7565  -22.0183   20.2552 C   0  0  0  0  0  0
  -32.3630  -19.5678   21.9803 N   0  0  0  0  0  0
  -27.2291  -17.4611   18.7463 N   0  0  0  0  0  0
  -29.9361  -15.4818   20.9589 N   0  0  0  0  0  0
  -28.7167  -15.9313   18.0764 O   0  0  0  0  0  0
  -27.9708  -24.1550   20.9221 O   0  0  0  0  0  0
  -31.4725  -12.3814   19.1212 H   0  0  0  0  0  0
  -30.3294  -11.2737   19.8259 H   0  0  0  0  0  0
  -29.7296  -11.7448   17.4349 H   0  0  0  0  0  0
  -29.6770  -13.4567   17.7590 H   0  0  0  0  0  0
  -27.8171  -11.2977   18.8114 H   0  0  0  0  0  0
  -27.3693  -12.6363   17.7882 H   0  0  0  0  0  0
  -27.6972  -14.2340   19.5866 H   0  0  0  0  0  0
  -28.6828  -11.9413   21.3452 H   0  0  0  0  0  0
  -28.4792  -13.5845   21.8707 H   0  0  0  0  0  0
  -25.2731   -9.5684   22.4774 H   0  0  0  0  0  0
  -24.0009   -7.4612   22.7462 H   0  0  0  0  0  0
  -21.0837   -8.8753   19.8945 H   0  0  0  0  0  0
  -22.3682  -10.9662   19.6170 H   0  0  0  0  0  0
  -21.1985   -7.6148   23.9723 H   0  0  0  0  0  0
  -21.1476   -6.0527   25.9085 H   0  0  0  0  0  0
  -22.0603   -2.7624   23.2843 H   0  0  0  0  0  0
  -22.4084  -11.9869   22.4787 H   0  0  0  0  0  0
  -21.1117  -13.1260   22.2585 H   0  0  0  0  0  0
  -24.6781  -15.8403   20.5597 H   0  0  0  0  0  0
  -26.2923  -15.6276   20.1111 H   0  0  0  0  0  0
  -26.7087  -32.5547   23.1160 H   0  0  0  0  0  0
  -25.0035  -33.9779   25.0480 H   0  0  0  0  0  0
  -22.6833  -31.3046   21.4132 H   0  0  0  0  0  0
  -23.3746  -35.9647   23.3294 H   0  0  0  0  0  0
  -24.3587  -36.8932   22.2055 H   0  0  0  0  0  0
  -23.7229  -37.6516   23.6652 H   0  0  0  0  0  0
  -26.0263  -31.6042   20.5862 H   0  0  0  0  0  0
  -26.8126  -30.8995   21.9710 H   0  0  0  0  0  0
  -28.0912  -29.1349   21.1512 H   0  0  0  0  0  0
  -26.0492  -25.9664   19.0316 H   0  0  0  0  0  0
  -23.9802  -27.2695   19.0617 H   0  0  0  0  0  0
  -23.7038  -30.5864   19.4023 H   0  0  0  0  0  0
  -22.7284  -29.2299   19.8802 H   0  0  0  0  0  0
  -25.1272  -36.1976   25.0835 H   0  0  0  0  0  0
  -20.9930  -28.3198   24.1465 H   0  0  0  0  0  0
  -20.5633  -26.2242   23.3604 H   0  0  0  0  0  0
  -21.6613  -26.7428   22.1231 H   0  0  0  0  0  0
  -19.6880  -25.6303   21.1221 H   0  0  0  0  0  0
  -19.6681  -27.3210   20.6755 H   0  0  0  0  0  0
  -17.4180  -26.6698   21.4002 H   0  0  0  0  0  0
  -18.0279  -26.0062   22.8999 H   0  0  0  0  0  0
  -19.7913  -30.7234   24.2311 H   0  0  0  0  0  0
  -17.4999  -31.6272   24.5145 H   0  0  0  0  0  0
  -15.5328  -30.2984   23.7649 H   0  0  0  0  0  0
  -15.8648  -28.0824   22.7058 H   0  0  0  0  0  0
  -24.5919  -30.7025   25.7820 H   0  0  0  0  0  0
  -24.8934  -32.2820   26.4967 H   0  0  0  0  0  0
  -25.8123  -30.8826   27.0211 H   0  0  0  0  0  0
  -26.2787  -29.6821   24.1143 H   0  0  0  0  0  0
  -27.4105  -29.7276   25.4476 H   0  0  0  0  0  0
  -27.8602  -30.4390   23.9141 H   0  0  0  0  0  0
  -27.2691  -33.3599   26.2082 H   0  0  0  0  0  0
  -28.3837  -32.6870   25.0273 H   0  0  0  0  0  0
  -28.0746  -31.8405   26.5351 H   0  0  0  0  0  0
  -28.2582  -38.0114   24.7530 H   0  0  0  0  0  0
  -28.1084  -36.2644   24.6234 H   0  0  0  0  0  0
  -27.2310  -37.1401   25.8863 H   0  0  0  0  0  0
  -20.9270  -29.8744   21.7002 H   0  0  0  0  0  0
  -26.0171  -38.2874   24.1434 H   0  0  0  0  0  0
  -29.1711  -19.4625   18.6784 H   0  0  0  0  0  0
  -31.6970  -17.0240   22.1838 H   0  0  0  0  0  0
  -31.0858  -21.1531   18.7852 H   0  0  0  0  0  0
  -31.8526  -21.4603   20.3065 H   0  0  0  0  0  0
  -30.8305  -23.8696   19.8960 H   0  0  0  0  0  0
  -29.8822  -23.3322   18.5315 H   0  0  0  0  0  0
  -27.9898  -25.6288   18.3964 H   0  0  0  0  0  0
  -29.6769  -25.8655   18.7427 H   0  0  0  0  0  0
  -29.7042  -22.0948   21.3422 H   0  0  0  0  0  0
  -28.8133  -21.5767   19.9305 H   0  0  0  0  0  0
  -32.6436  -19.1348   22.8543 H   0  0  0  0  0  0
  -32.3410  -20.5802   22.0342 H   0  0  0  0  0  0
  -27.0394  -18.2733   19.3151 H   0  0  0  0  0  0
  -26.5076  -17.0935   18.1444 H   0  0  0  0  0  0
  -28.9905  -15.2290   21.2033 H   0  0  0  0  0  0
  1 25  1  0  0  0
  1 30  2  0  0  0
  1 85  1  0  0  0
  2  3  1  0  0  0
  2 25  1  0  0  0
  2 88  1  0  0  0
  2 89  1  0  0  0
  3  4  1  0  0  0
  3 90  1  0  0  0
  3 91  1  0  0  0
  4  5  1  0  0  0
  4 92  1  0  0  0
  4 93  1  0  0  0
  5  6  1  0  0  0
  5 26  1  0  0  0
  5 94  1  0  0  0
  6 25  1  0  0  0
  6 95  1  0  0  0
  6 96  1  0  0  0
  7  8  2  0  0  0
  7 26  1  0  0  0
  7 29  1  0  0  0
  8  9  1  0  0  0
  8 22  1  0  0  0
  9 10  1  0  0  0
  9 27  2  0  0  0
 10 11  2  0  0  0
 10 15  1  0  0  0
 11 12  1  0  0  0
 11 97  1  0  0  0
 12 13  2  0  0  0
 12 98  1  0  0  0
 13 14  1  0  0  0
 13 31  1  0  0  0
 14 15  2  0  0  0
 14 99  1  0  0  0
 15100  1  0  0  0
 16 17  2  0  0  0
 16 21  1  0  0  0
 16 31  1  0  0  0
 17 18  1  0  0  0
 17101  1  0  0  0
 18 19  2  0  0  0
 18102  1  0  0  0
 19 20  1  0  0  0
 19 24  1  0  0  0
 20 21  2  0  0  0
 20103  1  0  0  0
 21 23  1  0  0  0
 22 28  1  0  0  0
 22 32  2  0  0  0
 26 27  1  0  0  0
 28104  1  0  0  0
 28105  1  0  0  0
 29106  1  0  0  0
 29107  1  0  0  0
 33 34  1  0  0  0
 33 66  1  0  0  0
 33 70  2  0  0  0
 34 36  1  0  0  0
 34 59  1  0  0  0
 34108  1  0  0  0
 35 44  2  0  0  0
 35 45  1  0  0  0
 35 68  1  0  0  0
 36 56  1  0  0  0
 36109  1  0  0  0
 37 39  1  0  0  0
 37 47  1  0  0  0
 37 66  1  0  0  0
 37110  1  0  0  0
 38 43  2  0  0  0
 38 46  1  0  0  0
 38 47  1  0  0  0
 39 64  1  0  0  0
 39 67  2  0  0  0
 40 52  1  0  0  0
 40 53  2  0  0  0
 40 58  1  0  0  0
 41111  1  0  0  0
 41112  1  0  0  0
 41113  1  0  0  0
 41 48  1  0  0  0
 42 43  1  0  0  0
 42 66  1  0  0  0
 42114  1  0  0  0
 42115  1  0  0  0
 43 44  1  0  0  0
 44116  1  0  0  0
 45 46  2  0  0  0
 45117  1  0  0  0
 46118  1  0  0  0
 47119  1  0  0  0
 47120  1  0  0  0
 48 56  1  0  0  0
 48 65  1  0  0  0
 48121  1  0  0  0
 49 50  1  0  0  0
 49 53  1  0  0  0
 49 64  1  0  0  0
 49122  1  0  0  0
 50 51  1  0  0  0
 50123  1  0  0  0
 50124  1  0  0  0
 51 52  1  0  0  0
 51125  1  0  0  0
 51126  1  0  0  0
 52127  1  0  0  0
 52128  1  0  0  0
 53 54  1  0  0  0
 54 55  2  0  0  0
 54129  1  0  0  0
 55 57  1  0  0  0
 55130  1  0  0  0
 56 69  2  0  0  0
 57 58  2  0  0  0
 57131  1  0  0  0
 58132  1  0  0  0
 59 60  1  0  0  0
 59 61  1  0  0  0
 59 62  1  0  0  0
 60133  1  0  0  0
 60134  1  0  0  0
 60135  1  0  0  0
 61136  1  0  0  0
 61137  1  0  0  0
 61138  1  0  0  0
 62139  1  0  0  0
 62140  1  0  0  0
 62141  1  0  0  0
 63 65  1  0  0  0
 63142  1  0  0  0
 63143  1  0  0  0
 63144  1  0  0  0
 64145  1  0  0  0
 65146  1  0  0  0
 68 81  1  0  0  0
 71 73  2  0  0  0
 71 74  1  0  0  0
 71147  1  0  0  0
 72 75  2  0  0  0
 72 76  1  0  0  0
 72148  1  0  0  0
 73 75  1  0  0  0
 73 77  1  0  0  0
 74 76  2  0  0  0
 74 79  1  0  0  0
 75 85  1  0  0  0
 76 83  1  0  0  0
 77 84  1  0  0  0
 77 86  2  0  0  0
 78 80  1  0  0  0
 78 81  1  0  0  0
 78 87  2  0  0  0
 79 82  1  0  0  0
 79149  1  0  0  0
 79150  1  0  0  0
 80 82  1  0  0  0
 80151  1  0  0  0
 80152  1  0  0  0
 81153  1  0  0  0
 81154  1  0  0  0
 82155  1  0  0  0
 82156  1  0  0  0
 83157  1  0  0  0
 83158  1  0  0  0
 84159  1  0  0  0
 84160  1  0  0  0
 85161  1  0  0  0
M  ISO  4   1 100  68 101  81 101  85 100
M  END
> <chiral flag>
0

> <version>
0

> <s_m_source_file>
/data/baiqing/PycharmProjects/Reinvent-master-3.2/result/LINK_invent/BTK/process_docking_weight1_custom_product_contain_oxygen_bond_distance_aromatic_linkinvent_7_9_3/rearranged_h_0106.sdf

> <i_m_source_file_index>
33

> <r_mmod_Potential_Energy-OPLS-2005>
-120.763519287109

> <r_mmod_Stretch_Energy-OPLS-2005>
34.8306503295898

> <r_mmod_Bend_Energy-OPLS-2005>
103.271354675293

> <r_mmod_Torsional_Energy-OPLS-2005>
258.162353515625

> <r_mmod_Improper_Torsional_Energy-OPLS-2005>
8.38636779785156

> <r_mmod_Van_der_Waal_Energy-OPLS-2005>
146.039794921875

> <r_mmod_Electrostatic_Energy-OPLS-2005>
-411.919677734375

> <r_mmod_Solvation_Energy-OPLS-2005>
-272.659606933594

> <b_mmod_Minimization_Converged-OPLS-2005>
0

> <r_mmod_RMS_Derivative-OPLS-2005>
1.33750987052917

$$$$
33
                    3D
 Structure written by MMmdl.
156164  0  0  1  0            999 V2000
  -30.6403  -14.6342   20.4906 C   0  0  0  0  0  0
  -30.4314  -12.3857   19.4570 C   0  0  0  0  0  0
  -29.5066  -12.5053   18.2256 C   0  0  0  0  0  0
  -28.0290  -12.3480   18.6353 C   0  0  0  0  0  0
  -27.6515  -13.2212   19.8614 C   0  0  2  0  0  0
  -28.6956  -13.0878   20.9929 C   0  0  0  0  0  0
  -25.2522  -13.8159   20.5624 C   0  0  0  0  0  0
  -24.1818  -13.0425   20.9199 C   0  0  0  0  0  0
  -24.6406  -11.6903   20.8765 C   0  0  0  0  0  0
  -23.9076  -10.4286   21.0423 C   0  0  0  0  0  0
  -24.3624   -9.4195   21.9197 C   0  0  0  0  0  0
  -23.6294   -8.2234   22.0763 C   0  0  0  0  0  0
  -22.4278   -8.0283   21.3550 C   0  0  0  0  0  0
  -21.9920   -9.0256   20.4646 C   0  0  0  0  0  0
  -22.7255  -10.2132   20.3062 C   0  0  0  0  0  0
  -21.6852   -6.0737   22.5281 C   0  0  0  0  0  0
  -21.4011   -6.5641   23.8213 C   0  0  0  0  0  0
  -21.3659   -5.6795   24.9176 C   0  0  0  0  0  0
  -21.6047   -4.3057   24.7227 C   0  0  0  0  0  0
  -21.8821   -3.8148   23.4348 C   0  0  0  0  0  0
  -21.9191   -4.6964   22.3403 C   0  0  0  0  0  0
  -22.7838  -13.5218   21.1851 C   0  0  0  0  0  0
  -22.1662   -4.2151   21.0981 F   0  0  0  0  0  0
  -21.5629   -3.4538   25.7739 F   0  0  0  0  0  0
  -30.0123  -13.4182   20.4267 N   0  0  0  0  0  0
  -26.2977  -12.9367   20.3301 N   0  0  0  0  0  0
  -25.9338  -11.6519   20.5781 N   0  0  0  0  0  0
  -22.0482  -12.8210   22.0409 N   0  0  0  0  0  0
  -25.4150  -15.1861   20.3885 N   0  0  0  0  0  0
  -31.8208  -14.7441   20.1499 O   0  0  0  0  0  0
  -21.6639   -6.8883   21.4245 O   0  0  0  0  0  0
  -22.3523  -14.5528   20.6702 O   0  0  0  0  0  0
  -24.6264  -31.8608   23.2043 C   0  0  0  0  0  0
  -25.9113  -32.4782   23.8366 C   0  0  1  0  0  0
  -27.2187  -27.3219   20.1122 C   0  0  0  0  0  0
  -25.5934  -33.8584   24.2289 N   0  0  0  0  0  0
  -23.4188  -30.4868   21.5479 C   0  0  2  0  0  0
  -24.8634  -28.9460   20.1122 C   0  0  0  0  0  0
  -22.7465  -29.4633   22.4939 C   0  0  0  0  0  0
  -18.0282  -28.1383   22.8499 C   0  0  0  0  0  0
  -24.1491  -36.7297   23.2639 C   0  0  0  0  0  0
  -25.9612  -30.7924   21.3756 C   0  0  0  0  0  0
  -26.0346  -29.4218   20.7149 C   0  0  0  0  0  0
  -27.2166  -28.6227   20.7035 C   0  0  0  0  0  0
  -26.0212  -26.9022   19.4846 C   0  0  0  0  0  0
  -24.8588  -27.6913   19.4890 C   0  0  0  0  0  0
  -23.6322  -29.8255   20.1626 C   0  0  0  0  0  0
  -25.4118  -36.3086   24.0326 C   0  0  1  0  0  0
  -20.5884  -28.3690   23.1289 C   0  0  2  0  0  0
  -20.6774  -26.9413   22.5413 C   0  0  0  0  0  0
  -19.5745  -26.6388   21.5219 C   0  0  0  0  0  0
  -18.1924  -26.7931   22.1630 C   0  0  0  0  0  0
  -19.1534  -28.8854   23.2890 C   0  0  0  0  0  0
  -18.9458  -30.1460   23.8901 C   0  0  0  0  0  0
  -17.6457  -30.6591   24.0567 C   0  0  0  0  0  0
  -25.9051  -34.9454   23.5103 C   0  0  0  0  0  0
  -16.5349  -29.9087   23.6336 C   0  0  0  0  0  0
  -16.7269  -28.6500   23.0365 C   0  0  0  0  0  0
  -26.4501  -31.6590   25.0734 C   0  0  0  0  0  0
  -25.3743  -31.3710   26.1465 C   0  0  0  0  0  0
  -27.0349  -30.3015   24.6186 C   0  0  0  0  0  0
  -27.6053  -32.4330   25.7512 C   0  0  0  0  0  0
  -27.5581  -37.1801   24.8462 C   0  0  0  0  0  0
  -21.4179  -29.3053   22.3685 N   0  0  0  0  0  0
  -26.4293  -37.3783   23.9408 N   0  0  0  0  0  0
  -24.6878  -31.0624   22.0995 N   0  0  0  0  0  0
  -23.4188  -28.8164   23.3010 O   0  0  0  0  0  0
  -28.3342  -26.4684   20.1558 O   0  0  0  0  0  0
  -26.5615  -34.8919   22.4665 O   0  0  0  0  0  0
  -23.5427  -32.1406   23.7371 O   0  0  0  0  0  0
  -28.9532  -19.4202   21.1748 C   0  0  0  0  0  0
  -30.8468  -19.2989   19.7131 C   0  0  0  0  0  0
  -28.9816  -17.9956   21.3162 C   0  0  0  0  0  0
  -30.8707  -17.8772   19.8165 C   0  0  0  0  0  0
  -29.9423  -17.1728   20.6448 C   0  0  0  0  0  0
  -29.8946  -20.1137   20.3742 C   0  0  0  0  0  0
  -27.9400  -17.3550   22.2186 C   0  0  0  0  0  0
  -29.2624  -23.9750   20.3173 C   0  0  0  0  0  0
  -28.0690  -25.0099   20.1942 C   0  0  0  0  0  0
  -28.8858  -22.4326   20.4763 C   0  0  0  0  0  0
  -31.8188  -17.2043   19.0532 N   0  0  0  0  0  0
  -29.8466  -15.7090   20.8049 N   0  0  0  0  0  0
  -29.9875  -21.5115   20.2140 O   0  0  0  0  0  0
  -31.4744  -12.4966   19.1551 H   0  0  0  0  0  0
  -30.3530  -11.3934   19.9035 H   0  0  0  0  0  0
  -29.7689  -11.7534   17.4801 H   0  0  0  0  0  0
  -29.6539  -13.4752   17.7473 H   0  0  0  0  0  0
  -27.8617  -11.2957   18.8668 H   0  0  0  0  0  0
  -27.3776  -12.5806   17.7923 H   0  0  0  0  0  0
  -27.6668  -14.2554   19.5173 H   0  0  0  0  0  0
  -28.7026  -12.0716   21.3906 H   0  0  0  0  0  0
  -28.4441  -13.7350   21.8339 H   0  0  0  0  0  0
  -25.2769   -9.5665   22.4773 H   0  0  0  0  0  0
  -24.0000   -7.4624   22.7484 H   0  0  0  0  0  0
  -21.0856   -8.8779   19.8946 H   0  0  0  0  0  0
  -22.3724  -10.9674   19.6170 H   0  0  0  0  0  0
  -21.2003   -7.6150   23.9716 H   0  0  0  0  0  0
  -21.1481   -6.0526   25.9079 H   0  0  0  0  0  0
  -22.0601   -2.7610   23.2849 H   0  0  0  0  0  0
  -22.4103  -11.9873   22.4792 H   0  0  0  0  0  0
  -21.1099  -13.1230   22.2615 H   0  0  0  0  0  0
  -24.6306  -15.8248   20.4607 H   0  0  0  0  0  0
  -26.2335  -15.6113   19.9732 H   0  0  0  0  0  0
  -26.7176  -32.5454   23.1111 H   0  0  0  0  0  0
  -25.0087  -33.9738   25.0437 H   0  0  0  0  0  0
  -22.7132  -31.3081   21.4069 H   0  0  0  0  0  0
  -23.3755  -35.9625   23.3299 H   0  0  0  0  0  0
  -24.3573  -36.8930   22.2052 H   0  0  0  0  0  0
  -23.7242  -37.6495   23.6670 H   0  0  0  0  0  0
  -26.0936  -31.5577   20.6095 H   0  0  0  0  0  0
  -26.8414  -30.8379   22.0053 H   0  0  0  0  0  0
  -28.1161  -28.9829   21.1833 H   0  0  0  0  0  0
  -25.9425  -25.9525   18.9804 H   0  0  0  0  0  0
  -23.9619  -27.3217   19.0111 H   0  0  0  0  0  0
  -23.7503  -30.6037   19.4080 H   0  0  0  0  0  0
  -22.7513  -29.2560   19.8596 H   0  0  0  0  0  0
  -25.1294  -36.1939   25.0818 H   0  0  0  0  0  0
  -20.9979  -28.3272   24.1408 H   0  0  0  0  0  0
  -20.5692  -26.2295   23.3612 H   0  0  0  0  0  0
  -21.6640  -26.7457   22.1197 H   0  0  0  0  0  0
  -19.6907  -25.6300   21.1246 H   0  0  0  0  0  0
  -19.6683  -27.3203   20.6752 H   0  0  0  0  0  0
  -17.4197  -26.6699   21.4025 H   0  0  0  0  0  0
  -18.0310  -26.0067   22.9015 H   0  0  0  0  0  0
  -19.7931  -30.7282   24.2266 H   0  0  0  0  0  0
  -17.5010  -31.6272   24.5168 H   0  0  0  0  0  0
  -15.5347  -30.2990   23.7660 H   0  0  0  0  0  0
  -15.8668  -28.0819   22.7088 H   0  0  0  0  0  0
  -24.5921  -30.7053   25.7798 H   0  0  0  0  0  0
  -24.8930  -32.2868   26.4904 H   0  0  0  0  0  0
  -25.8086  -30.8884   27.0231 H   0  0  0  0  0  0
  -26.2921  -29.6755   24.1226 H   0  0  0  0  0  0
  -27.4066  -29.7277   25.4686 H   0  0  0  0  0  0
  -27.8783  -30.4302   23.9400 H   0  0  0  0  0  0
  -27.2656  -33.3635   26.2075 H   0  0  0  0  0  0
  -28.3876  -32.6883   25.0351 H   0  0  0  0  0  0
  -28.0705  -31.8464   26.5447 H   0  0  0  0  0  0
  -28.2586  -38.0111   24.7529 H   0  0  0  0  0  0
  -28.1095  -36.2640   24.6274 H   0  0  0  0  0  0
  -27.2295  -37.1432   25.8864 H   0  0  0  0  0  0
  -20.9343  -29.8788   21.6915 H   0  0  0  0  0  0
  -26.0175  -38.2855   24.1428 H   0  0  0  0  0  0
  -28.2049  -19.9846   21.7127 H   0  0  0  0  0  0
  -31.5745  -19.7929   19.0846 H   0  0  0  0  0  0
  -27.3623  -18.1044   22.7607 H   0  0  0  0  0  0
  -28.4096  -16.7057   22.9582 H   0  0  0  0  0  0
  -27.2414  -16.7624   21.6312 H   0  0  0  0  0  0
  -29.8992  -24.2625   21.1536 H   0  0  0  0  0  0
  -29.8803  -24.0816   19.4258 H   0  0  0  0  0  0
  -27.3743  -24.8225   21.0146 H   0  0  0  0  0  0
  -27.5552  -24.7158   19.2811 H   0  0  0  0  0  0
  -28.0827  -22.1872   19.7809 H   0  0  0  0  0  0
  -28.4912  -22.2644   21.4787 H   0  0  0  0  0  0
  -32.6686  -17.7041   18.8174 H   0  0  0  0  0  0
  -32.0110  -16.2472   19.3726 H   0  0  0  0  0  0
  -28.9562  -15.4096   21.1664 H   0  0  0  0  0  0
  1 25  1  0  0  0
  1 30  2  0  0  0
  1 82  1  0  0  0
  2  3  1  0  0  0
  2 25  1  0  0  0
  2 84  1  0  0  0
  2 85  1  0  0  0
  3  4  1  0  0  0
  3 86  1  0  0  0
  3 87  1  0  0  0
  4  5  1  0  0  0
  4 88  1  0  0  0
  4 89  1  0  0  0
  5  6  1  0  0  0
  5 26  1  0  0  0
  5 90  1  0  0  0
  6 25  1  0  0  0
  6 91  1  0  0  0
  6 92  1  0  0  0
  7  8  2  0  0  0
  7 26  1  0  0  0
  7 29  1  0  0  0
  8  9  1  0  0  0
  8 22  1  0  0  0
  9 10  1  0  0  0
  9 27  2  0  0  0
 10 11  2  0  0  0
 10 15  1  0  0  0
 11 12  1  0  0  0
 11 93  1  0  0  0
 12 13  2  0  0  0
 12 94  1  0  0  0
 13 14  1  0  0  0
 13 31  1  0  0  0
 14 15  2  0  0  0
 14 95  1  0  0  0
 15 96  1  0  0  0
 16 17  2  0  0  0
 16 21  1  0  0  0
 16 31  1  0  0  0
 17 18  1  0  0  0
 17 97  1  0  0  0
 18 19  2  0  0  0
 18 98  1  0  0  0
 19 20  1  0  0  0
 19 24  1  0  0  0
 20 21  2  0  0  0
 20 99  1  0  0  0
 21 23  1  0  0  0
 22 28  1  0  0  0
 22 32  2  0  0  0
 26 27  1  0  0  0
 28100  1  0  0  0
 28101  1  0  0  0
 29102  1  0  0  0
 29103  1  0  0  0
 33 34  1  0  0  0
 33 66  1  0  0  0
 33 70  2  0  0  0
 34 36  1  0  0  0
 34 59  1  0  0  0
 34104  1  0  0  0
 35 44  2  0  0  0
 35 45  1  0  0  0
 35 68  1  0  0  0
 36 56  1  0  0  0
 36105  1  0  0  0
 37 39  1  0  0  0
 37 47  1  0  0  0
 37 66  1  0  0  0
 37106  1  0  0  0
 38 43  2  0  0  0
 38 46  1  0  0  0
 38 47  1  0  0  0
 39 64  1  0  0  0
 39 67  2  0  0  0
 40 52  1  0  0  0
 40 53  2  0  0  0
 40 58  1  0  0  0
 41107  1  0  0  0
 41108  1  0  0  0
 41109  1  0  0  0
 41 48  1  0  0  0
 42 43  1  0  0  0
 42 66  1  0  0  0
 42110  1  0  0  0
 42111  1  0  0  0
 43 44  1  0  0  0
 44112  1  0  0  0
 45 46  2  0  0  0
 45113  1  0  0  0
 46114  1  0  0  0
 47115  1  0  0  0
 47116  1  0  0  0
 48 56  1  0  0  0
 48 65  1  0  0  0
 48117  1  0  0  0
 49 50  1  0  0  0
 49 53  1  0  0  0
 49 64  1  0  0  0
 49118  1  0  0  0
 50 51  1  0  0  0
 50119  1  0  0  0
 50120  1  0  0  0
 51 52  1  0  0  0
 51121  1  0  0  0
 51122  1  0  0  0
 52123  1  0  0  0
 52124  1  0  0  0
 53 54  1  0  0  0
 54 55  2  0  0  0
 54125  1  0  0  0
 55 57  1  0  0  0
 55126  1  0  0  0
 56 69  2  0  0  0
 57 58  2  0  0  0
 57127  1  0  0  0
 58128  1  0  0  0
 59 60  1  0  0  0
 59 61  1  0  0  0
 59 62  1  0  0  0
 60129  1  0  0  0
 60130  1  0  0  0
 60131  1  0  0  0
 61132  1  0  0  0
 61133  1  0  0  0
 61134  1  0  0  0
 62135  1  0  0  0
 62136  1  0  0  0
 62137  1  0  0  0
 63 65  1  0  0  0
 63138  1  0  0  0
 63139  1  0  0  0
 63140  1  0  0  0
 64141  1  0  0  0
 65142  1  0  0  0
 68 79  1  0  0  0
 71 73  2  0  0  0
 71 76  1  0  0  0
 71143  1  0  0  0
 72 74  1  0  0  0
 72 76  2  0  0  0
 72144  1  0  0  0
 73 75  1  0  0  0
 73 77  1  0  0  0
 74 75  2  0  0  0
 74 81  1  0  0  0
 75 82  1  0  0  0
 76 83  1  0  0  0
 77145  1  0  0  0
 77146  1  0  0  0
 77147  1  0  0  0
 78 79  1  0  0  0
 78 80  1  0  0  0
 78148  1  0  0  0
 78149  1  0  0  0
 79150  1  0  0  0
 79151  1  0  0  0
 80 83  1  0  0  0
 80152  1  0  0  0
 80153  1  0  0  0
 81154  1  0  0  0
 81155  1  0  0  0
 82156  1  0  0  0
M  ISO  4   1 100  68 101  79 101  82 100
M  END
> <chiral flag>
0

> <version>
0

> <s_m_source_file>
/data/baiqing/PycharmProjects/Reinvent-master-3.2/result/LINK_invent/BTK/process_docking_weight1_custom_product_contain_oxygen_bond_distance_aromatic_linkinvent_7_9_3/rearranged_h_0106.sdf

> <i_m_source_file_index>
34

> <r_mmod_Potential_Energy-OPLS-2005>
-31.2455310821533

> <r_mmod_Stretch_Energy-OPLS-2005>
79.584114074707

> <r_mmod_Bend_Energy-OPLS-2005>
152.975784301758

> <r_mmod_Torsional_Energy-OPLS-2005>
225.633193969727

> <r_mmod_Improper_Torsional_Energy-OPLS-2005>
8.42003917694092

> <r_mmod_Van_der_Waal_Energy-OPLS-2005>
158.905380249023

> <r_mmod_Electrostatic_Energy-OPLS-2005>
-493.854827880859

> <r_mmod_Solvation_Energy-OPLS-2005>
-210.676986694336

> <b_mmod_Minimization_Converged-OPLS-2005>
0

> <r_mmod_RMS_Derivative-OPLS-2005>
0.877310812473297

$$$$
34
                    3D
 Structure written by MMmdl.
157165  0  0  1  0            999 V2000
  -30.7175  -14.5304   20.4890 C   0  0  0  0  0  0
  -30.4092  -12.3064   19.4509 C   0  0  0  0  0  0
  -29.4864  -12.4273   18.2198 C   0  0  0  0  0  0
  -28.0176  -12.2236   18.6431 C   0  0  0  0  0  0
  -27.6234  -13.1409   19.8230 C   0  0  2  0  0  0
  -28.6748  -13.0885   20.9616 C   0  0  0  0  0  0
  -25.2552  -13.7953   20.5646 C   0  0  0  0  0  0
  -24.1766  -13.0329   20.9206 C   0  0  0  0  0  0
  -24.6254  -11.6765   20.8825 C   0  0  0  0  0  0
  -23.8930  -10.4200   21.0499 C   0  0  0  0  0  0
  -24.3513   -9.4110   21.9256 C   0  0  0  0  0  0
  -23.6206   -8.2148   22.0776 C   0  0  0  0  0  0
  -22.4204   -8.0207   21.3543 C   0  0  0  0  0  0
  -21.9826   -9.0189   20.4651 C   0  0  0  0  0  0
  -22.7139  -10.2060   20.3093 C   0  0  0  0  0  0
  -21.6801   -6.0695   22.5287 C   0  0  0  0  0  0
  -21.3969   -6.5614   23.8219 C   0  0  0  0  0  0
  -21.3651   -5.6772   24.9197 C   0  0  0  0  0  0
  -21.6052   -4.3043   24.7245 C   0  0  0  0  0  0
  -21.8817   -3.8111   23.4375 C   0  0  0  0  0  0
  -21.9170   -4.6927   22.3412 C   0  0  0  0  0  0
  -22.7803  -13.5198   21.1898 C   0  0  0  0  0  0
  -22.1641   -4.2103   21.0988 F   0  0  0  0  0  0
  -21.5645   -3.4543   25.7774 F   0  0  0  0  0  0
  -30.0107  -13.3608   20.3988 N   0  0  0  0  0  0
  -26.2817  -12.8944   20.3185 N   0  0  0  0  0  0
  -25.9128  -11.6203   20.5789 N   0  0  0  0  0  0
  -22.0421  -12.8236   22.0458 N   0  0  0  0  0  0
  -25.4446  -15.1652   20.4031 N   0  0  0  0  0  0
  -31.9075  -14.6132   20.1813 O   0  0  0  0  0  0
  -21.6568   -6.8823   21.4235 O   0  0  0  0  0  0
  -22.3536  -14.5538   20.6745 O   0  0  0  0  0  0
  -24.6189  -31.8636   23.2064 C   0  0  0  0  0  0
  -25.9075  -32.4781   23.8335 C   0  0  1  0  0  0
  -27.2163  -27.3999   20.0903 C   0  0  0  0  0  0
  -25.5937  -33.8575   24.2285 N   0  0  0  0  0  0
  -23.4035  -30.4938   21.5447 C   0  0  2  0  0  0
  -24.8424  -28.9585   20.1025 C   0  0  0  0  0  0
  -22.7400  -29.4693   22.4928 C   0  0  0  0  0  0
  -18.0285  -28.1361   22.8487 C   0  0  0  0  0  0
  -24.1466  -36.7285   23.2643 C   0  0  0  0  0  0
  -25.9359  -30.8145   21.3633 C   0  0  0  0  0  0
  -26.0002  -29.4461   20.7171 C   0  0  0  0  0  0
  -27.1838  -28.6693   20.7169 C   0  0  0  0  0  0
  -26.0442  -26.9518   19.4317 C   0  0  0  0  0  0
  -24.8617  -27.7146   19.4533 C   0  0  0  0  0  0
  -23.6065  -29.8298   20.1561 C   0  0  0  0  0  0
  -25.4083  -36.3063   24.0333 C   0  0  1  0  0  0
  -20.5875  -28.3668   23.1270 C   0  0  2  0  0  0
  -20.6749  -26.9389   22.5391 C   0  0  0  0  0  0
  -19.5739  -26.6375   21.5179 C   0  0  0  0  0  0
  -18.1921  -26.7913   22.1592 C   0  0  0  0  0  0
  -19.1534  -28.8825   23.2897 C   0  0  0  0  0  0
  -18.9469  -30.1423   23.8915 C   0  0  0  0  0  0
  -17.6473  -30.6573   24.0567 C   0  0  0  0  0  0
  -25.9025  -34.9454   23.5101 C   0  0  0  0  0  0
  -16.5363  -29.9069   23.6342 C   0  0  0  0  0  0
  -16.7276  -28.6484   23.0369 C   0  0  0  0  0  0
  -26.4494  -31.6576   25.0684 C   0  0  0  0  0  0
  -25.3792  -31.3696   26.1467 C   0  0  0  0  0  0
  -27.0318  -30.3008   24.6070 C   0  0  0  0  0  0
  -27.6068  -32.4307   25.7451 C   0  0  0  0  0  0
  -27.5556  -37.1778   24.8478 C   0  0  0  0  0  0
  -21.4133  -29.3058   22.3670 N   0  0  0  0  0  0
  -26.4252  -37.3772   23.9443 N   0  0  0  0  0  0
  -24.6711  -31.0729   22.0957 N   0  0  0  0  0  0
  -23.4160  -28.8205   23.2961 O   0  0  0  0  0  0
  -28.3955  -26.6714   20.1393 O   0  0  0  0  0  0
  -26.5583  -34.8926   22.4657 O   0  0  0  0  0  0
  -23.5385  -32.1399   23.7459 O   0  0  0  0  0  0
  -31.5534  -18.2714   23.1110 C   0  0  0  0  0  0
  -31.1374  -19.5065   22.5744 C   0  0  0  0  0  0
  -30.0229  -18.3089   20.7995 C   0  0  0  0  0  0
  -30.4143  -17.0386   21.3185 C   0  0  0  0  0  0
  -31.1870  -17.0361   22.5221 C   0  0  0  0  0  0
  -30.3439  -19.5320   21.4123 C   0  0  0  0  0  0
  -29.8980  -15.8384   20.5584 C   0  0  0  0  0  0
  -29.1124  -22.9093   20.5695 C   0  0  0  0  0  0
  -29.0429  -24.4072   20.9682 C   0  0  0  0  0  0
  -29.9522  -21.9492   21.4474 C   0  0  0  0  0  0
  -28.3999  -25.2574   19.8407 C   0  0  0  0  0  0
  -28.8556  -15.9831   19.8507 N   0  0  0  0  0  0
  -31.5929  -15.8776   23.1981 N   0  0  0  0  0  0
  -29.8457  -20.6722   20.8111 O   0  0  0  0  0  0
  -31.4569  -12.3731   19.1556 H   0  0  0  0  0  0
  -30.2907  -11.3261   19.9147 H   0  0  0  0  0  0
  -29.7605  -11.6753   17.4785 H   0  0  0  0  0  0
  -29.6166  -13.3981   17.7382 H   0  0  0  0  0  0
  -27.9046  -11.1807   18.9406 H   0  0  0  0  0  0
  -27.3466  -12.3684   17.7950 H   0  0  0  0  0  0
  -27.5603  -14.1095   19.3562 H   0  0  0  0  0  0
  -28.6657  -12.1074   21.4364 H   0  0  0  0  0  0
  -28.4166  -13.7994   21.7486 H   0  0  0  0  0  0
  -25.2654   -9.5573   22.4837 H   0  0  0  0  0  0
  -23.9911   -7.4515   22.7465 H   0  0  0  0  0  0
  -21.0774   -8.8701   19.8932 H   0  0  0  0  0  0
  -22.3639  -10.9619   19.6197 H   0  0  0  0  0  0
  -21.1931   -7.6122   23.9715 H   0  0  0  0  0  0
  -21.1488   -6.0508   25.9096 H   0  0  0  0  0  0
  -22.0603   -2.7572   23.2892 H   0  0  0  0  0  0
  -22.3957  -11.9850   22.4849 H   0  0  0  0  0  0
  -21.1063  -13.1312   22.2679 H   0  0  0  0  0  0
  -24.6906  -15.8388   20.4904 H   0  0  0  0  0  0
  -26.3305  -15.5904   20.1473 H   0  0  0  0  0  0
  -26.7161  -32.5442   23.1087 H   0  0  0  0  0  0
  -25.0134  -33.9726   25.0466 H   0  0  0  0  0  0
  -22.6989  -31.3169   21.4060 H   0  0  0  0  0  0
  -23.3719  -35.9631   23.3303 H   0  0  0  0  0  0
  -24.3574  -36.8879   22.2060 H   0  0  0  0  0  0
  -23.7222  -37.6494   23.6656 H   0  0  0  0  0  0
  -26.0518  -31.5686   20.5837 H   0  0  0  0  0  0
  -26.8285  -30.8686   21.9733 H   0  0  0  0  0  0
  -28.0713  -29.0328   21.2125 H   0  0  0  0  0  0
  -26.0048  -26.0324   18.8672 H   0  0  0  0  0  0
  -23.9783  -27.3547   18.9419 H   0  0  0  0  0  0
  -23.7084  -30.6053   19.3949 H   0  0  0  0  0  0
  -22.7283  -29.2510   19.8633 H   0  0  0  0  0  0
  -25.1249  -36.1907   25.0822 H   0  0  0  0  0  0
  -21.0005  -28.3236   24.1374 H   0  0  0  0  0  0
  -20.5584  -26.2290   23.3592 H   0  0  0  0  0  0
  -21.6626  -26.7376   22.1213 H   0  0  0  0  0  0
  -19.6889  -25.6295   21.1190 H   0  0  0  0  0  0
  -19.6664  -27.3206   20.6732 H   0  0  0  0  0  0
  -17.4177  -26.6688   21.4001 H   0  0  0  0  0  0
  -18.0322  -26.0030   22.8964 H   0  0  0  0  0  0
  -19.7958  -30.7228   24.2267 H   0  0  0  0  0  0
  -17.5047  -31.6251   24.5172 H   0  0  0  0  0  0
  -15.5369  -30.2988   23.7661 H   0  0  0  0  0  0
  -15.8665  -28.0802   22.7104 H   0  0  0  0  0  0
  -24.5995  -30.6963   25.7870 H   0  0  0  0  0  0
  -24.8957  -32.2861   26.4876 H   0  0  0  0  0  0
  -25.8202  -30.8945   27.0239 H   0  0  0  0  0  0
  -26.2816  -29.6738   24.1226 H   0  0  0  0  0  0
  -27.4193  -29.7275   25.4500 H   0  0  0  0  0  0
  -27.8614  -30.4296   23.9111 H   0  0  0  0  0  0
  -27.2663  -33.3606   26.2014 H   0  0  0  0  0  0
  -28.3889  -32.6857   25.0292 H   0  0  0  0  0  0
  -28.0719  -31.8435   26.5373 H   0  0  0  0  0  0
  -28.2587  -38.0067   24.7519 H   0  0  0  0  0  0
  -28.1016  -36.2594   24.6271 H   0  0  0  0  0  0
  -27.2290  -37.1400   25.8887 H   0  0  0  0  0  0
  -20.9261  -29.8795   21.6922 H   0  0  0  0  0  0
  -26.0111  -38.2829   24.1489 H   0  0  0  0  0  0
  -32.1528  -18.2926   24.0109 H   0  0  0  0  0  0
  -31.4306  -20.4217   23.0657 H   0  0  0  0  0  0
  -29.4238  -18.3728   19.9004 H   0  0  0  0  0  0
  -29.5050  -22.8423   19.5544 H   0  0  0  0  0  0
  -28.0946  -22.5222   20.5134 H   0  0  0  0  0  0
  -30.0400  -24.7884   21.1918 H   0  0  0  0  0  0
  -28.4576  -24.5134   21.8827 H   0  0  0  0  0  0
  -29.5725  -21.9139   22.4696 H   0  0  0  0  0  0
  -30.9979  -22.2623   21.4839 H   0  0  0  0  0  0
  -27.4206  -24.8240   19.6516 H   0  0  0  0  0  0
  -28.9684  -25.1178   18.9188 H   0  0  0  0  0  0
  -28.6979  -15.1401   19.3119 H   0  0  0  0  0  0
  -31.9470  -15.9646   24.1468 H   0  0  0  0  0  0
  -31.1187  -14.9938   23.0502 H   0  0  0  0  0  0
  1 25  1  0  0  0
  1 30  2  0  0  0
  1 77  1  0  0  0
  2  3  1  0  0  0
  2 25  1  0  0  0
  2 85  1  0  0  0
  2 86  1  0  0  0
  3  4  1  0  0  0
  3 87  1  0  0  0
  3 88  1  0  0  0
  4  5  1  0  0  0
  4 89  1  0  0  0
  4 90  1  0  0  0
  5  6  1  0  0  0
  5 26  1  0  0  0
  5 91  1  0  0  0
  6 25  1  0  0  0
  6 92  1  0  0  0
  6 93  1  0  0  0
  7  8  2  0  0  0
  7 26  1  0  0  0
  7 29  1  0  0  0
  8  9  1  0  0  0
  8 22  1  0  0  0
  9 10  1  0  0  0
  9 27  2  0  0  0
 10 11  2  0  0  0
 10 15  1  0  0  0
 11 12  1  0  0  0
 11 94  1  0  0  0
 12 13  2  0  0  0
 12 95  1  0  0  0
 13 14  1  0  0  0
 13 31  1  0  0  0
 14 15  2  0  0  0
 14 96  1  0  0  0
 15 97  1  0  0  0
 16 17  2  0  0  0
 16 21  1  0  0  0
 16 31  1  0  0  0
 17 18  1  0  0  0
 17 98  1  0  0  0
 18 19  2  0  0  0
 18 99  1  0  0  0
 19 20  1  0  0  0
 19 24  1  0  0  0
 20 21  2  0  0  0
 20100  1  0  0  0
 21 23  1  0  0  0
 22 28  1  0  0  0
 22 32  2  0  0  0
 26 27  1  0  0  0
 28101  1  0  0  0
 28102  1  0  0  0
 29103  1  0  0  0
 29104  1  0  0  0
 33 34  1  0  0  0
 33 66  1  0  0  0
 33 70  2  0  0  0
 34 36  1  0  0  0
 34 59  1  0  0  0
 34105  1  0  0  0
 35 44  2  0  0  0
 35 45  1  0  0  0
 35 68  1  0  0  0
 36 56  1  0  0  0
 36106  1  0  0  0
 37 39  1  0  0  0
 37 47  1  0  0  0
 37 66  1  0  0  0
 37107  1  0  0  0
 38 43  2  0  0  0
 38 46  1  0  0  0
 38 47  1  0  0  0
 39 64  1  0  0  0
 39 67  2  0  0  0
 40 52  1  0  0  0
 40 53  2  0  0  0
 40 58  1  0  0  0
 41108  1  0  0  0
 41109  1  0  0  0
 41110  1  0  0  0
 41 48  1  0  0  0
 42 43  1  0  0  0
 42 66  1  0  0  0
 42111  1  0  0  0
 42112  1  0  0  0
 43 44  1  0  0  0
 44113  1  0  0  0
 45 46  2  0  0  0
 45114  1  0  0  0
 46115  1  0  0  0
 47116  1  0  0  0
 47117  1  0  0  0
 48 56  1  0  0  0
 48 65  1  0  0  0
 48118  1  0  0  0
 49 50  1  0  0  0
 49 53  1  0  0  0
 49 64  1  0  0  0
 49119  1  0  0  0
 50 51  1  0  0  0
 50120  1  0  0  0
 50121  1  0  0  0
 51 52  1  0  0  0
 51122  1  0  0  0
 51123  1  0  0  0
 52124  1  0  0  0
 52125  1  0  0  0
 53 54  1  0  0  0
 54 55  2  0  0  0
 54126  1  0  0  0
 55 57  1  0  0  0
 55127  1  0  0  0
 56 69  2  0  0  0
 57 58  2  0  0  0
 57128  1  0  0  0
 58129  1  0  0  0
 59 60  1  0  0  0
 59 61  1  0  0  0
 59 62  1  0  0  0
 60130  1  0  0  0
 60131  1  0  0  0
 60132  1  0  0  0
 61133  1  0  0  0
 61134  1  0  0  0
 61135  1  0  0  0
 62136  1  0  0  0
 62137  1  0  0  0
 62138  1  0  0  0
 63 65  1  0  0  0
 63139  1  0  0  0
 63140  1  0  0  0
 63141  1  0  0  0
 64142  1  0  0  0
 65143  1  0  0  0
 68 81  1  0  0  0
 71 72  2  0  0  0
 71 75  1  0  0  0
 71144  1  0  0  0
 72 76  1  0  0  0
 72145  1  0  0  0
 73 74  1  0  0  0
 73 76  2  0  0  0
 73146  1  0  0  0
 74 75  2  0  0  0
 74 77  1  0  0  0
 75 83  1  0  0  0
 76 84  1  0  0  0
 77 82  2  0  0  0
 78 79  1  0  0  0
 78 80  1  0  0  0
 78147  1  0  0  0
 78148  1  0  0  0
 79 81  1  0  0  0
 79149  1  0  0  0
 79150  1  0  0  0
 80 84  1  0  0  0
 80151  1  0  0  0
 80152  1  0  0  0
 81153  1  0  0  0
 81154  1  0  0  0
 82155  1  0  0  0
 83156  1  0  0  0
 83157  1  0  0  0
M  ISO  4   1 100  68 101  77 100  81 101
M  END
> <chiral flag>
0

> <version>
0

> <s_m_source_file>
/data/baiqing/PycharmProjects/Reinvent-master-3.2/result/LINK_invent/BTK/process_docking_weight1_custom_product_contain_oxygen_bond_distance_aromatic_linkinvent_7_9_3/rearranged_h_0106.sdf

> <i_m_source_file_index>
35

> <r_mmod_Potential_Energy-OPLS-2005>
172.251586914062

> <r_mmod_Stretch_Energy-OPLS-2005>
47.1577339172363

> <r_mmod_Bend_Energy-OPLS-2005>
143.449172973633

> <r_mmod_Torsional_Energy-OPLS-2005>
208.498352050781

> <r_mmod_Improper_Torsional_Energy-OPLS-2005>
14.5609312057495

> <r_mmod_Van_der_Waal_Energy-OPLS-2005>
178.037200927734

> <r_mmod_Electrostatic_Energy-OPLS-2005>
-245.374160766602

> <r_mmod_Solvation_Energy-OPLS-2005>
-208.010864257812

> <b_mmod_Minimization_Converged-OPLS-2005>
0

> <r_mmod_RMS_Derivative-OPLS-2005>
4.22738695144653

$$$$
35
                    3D
 Structure written by MMmdl.
160169  0  0  1  0            999 V2000
  -30.6265  -14.6301   20.4872 C   0  0  0  0  0  0
  -30.4402  -12.3847   19.4438 C   0  0  0  0  0  0
  -29.5059  -12.5027   18.2191 C   0  0  0  0  0  0
  -28.0288  -12.3418   18.6341 C   0  0  0  0  0  0
  -27.6530  -13.2140   19.8618 C   0  0  2  0  0  0
  -28.7019  -13.0707   20.9882 C   0  0  0  0  0  0
  -25.2568  -13.8176   20.5716 C   0  0  0  0  0  0
  -24.1827  -13.0429   20.9173 C   0  0  0  0  0  0
  -24.6395  -11.6902   20.8723 C   0  0  0  0  0  0
  -23.9065  -10.4286   21.0395 C   0  0  0  0  0  0
  -24.3616   -9.4205   21.9179 C   0  0  0  0  0  0
  -23.6289   -8.2242   22.0753 C   0  0  0  0  0  0
  -22.4272   -8.0279   21.3546 C   0  0  0  0  0  0
  -21.9907   -9.0250   20.4646 C   0  0  0  0  0  0
  -22.7235  -10.2127   20.3049 C   0  0  0  0  0  0
  -21.6853   -6.0736   22.5280 C   0  0  0  0  0  0
  -21.4012   -6.5641   23.8213 C   0  0  0  0  0  0
  -21.3659   -5.6793   24.9175 C   0  0  0  0  0  0
  -21.6045   -4.3056   24.7225 C   0  0  0  0  0  0
  -21.8819   -3.8148   23.4346 C   0  0  0  0  0  0
  -21.9191   -4.6964   22.3403 C   0  0  0  0  0  0
  -22.7849  -13.5222   21.1846 C   0  0  0  0  0  0
  -22.1661   -4.2152   21.0981 F   0  0  0  0  0  0
  -21.5629   -3.4539   25.7736 F   0  0  0  0  0  0
  -30.0165  -13.4066   20.4183 N   0  0  0  0  0  0
  -26.2997  -12.9352   20.3337 N   0  0  0  0  0  0
  -25.9326  -11.6504   20.5753 N   0  0  0  0  0  0
  -22.0496  -12.8210   22.0403 N   0  0  0  0  0  0
  -25.4213  -15.1921   20.4246 N   0  0  0  0  0  0
  -31.8047  -14.7886   20.1553 O   0  0  0  0  0  0
  -21.6639   -6.8877   21.4242 O   0  0  0  0  0  0
  -22.3526  -14.5533   20.6708 O   0  0  0  0  0  0
  -24.6259  -31.8608   23.2035 C   0  0  0  0  0  0
  -25.9110  -32.4784   23.8359 C   0  0  1  0  0  0
  -27.2240  -27.3275   20.1087 C   0  0  0  0  0  0
  -25.5927  -33.8584   24.2286 N   0  0  0  0  0  0
  -23.4182  -30.4857   21.5468 C   0  0  2  0  0  0
  -24.8630  -28.9431   20.1122 C   0  0  0  0  0  0
  -22.7472  -29.4631   22.4946 C   0  0  0  0  0  0
  -18.0287  -28.1384   22.8488 C   0  0  0  0  0  0
  -24.1490  -36.7295   23.2638 C   0  0  0  0  0  0
  -25.9594  -30.7936   21.3734 C   0  0  0  0  0  0
  -26.0329  -29.4225   20.7141 C   0  0  0  0  0  0
  -27.2159  -28.6265   20.7024 C   0  0  0  0  0  0
  -26.0255  -26.8974   19.4902 C   0  0  0  0  0  0
  -24.8607  -27.6852   19.4932 C   0  0  0  0  0  0
  -23.6314  -29.8224   20.1615 C   0  0  0  0  0  0
  -25.4114  -36.3087   24.0330 C   0  0  1  0  0  0
  -20.5885  -28.3687   23.1289 C   0  0  2  0  0  0
  -20.6775  -26.9410   22.5413 C   0  0  0  0  0  0
  -19.5751  -26.6384   21.5214 C   0  0  0  0  0  0
  -18.1929  -26.7930   22.1622 C   0  0  0  0  0  0
  -19.1538  -28.8851   23.2885 C   0  0  0  0  0  0
  -18.9461  -30.1453   23.8902 C   0  0  0  0  0  0
  -17.6461  -30.6587   24.0565 C   0  0  0  0  0  0
  -25.9049  -34.9456   23.5106 C   0  0  0  0  0  0
  -16.5352  -29.9085   23.6331 C   0  0  0  0  0  0
  -16.7274  -28.6502   23.0351 C   0  0  0  0  0  0
  -26.4492  -31.6591   25.0727 C   0  0  0  0  0  0
  -25.3730  -31.3728   26.1457 C   0  0  0  0  0  0
  -27.0330  -30.3015   24.6171 C   0  0  0  0  0  0
  -27.6061  -32.4319   25.7492 C   0  0  0  0  0  0
  -27.5581  -37.1803   24.8463 C   0  0  0  0  0  0
  -21.4187  -29.3046   22.3689 N   0  0  0  0  0  0
  -26.4292  -37.3781   23.9409 N   0  0  0  0  0  0
  -24.6868  -31.0628   22.0983 N   0  0  0  0  0  0
  -23.4201  -28.8168   23.3018 O   0  0  0  0  0  0
  -28.3518  -26.4920   20.1506 O   0  0  0  0  0  0
  -26.5615  -34.8922   22.4672 O   0  0  0  0  0  0
  -23.5424  -32.1404   23.7370 O   0  0  0  0  0  0
  -28.9214  -19.3183   20.0071 C   0  0  0  0  0  0
  -31.0812  -17.8494   21.0339 C   0  0  0  0  0  0
  -30.0569  -20.0616   20.4313 C   0  0  0  0  0  0
  -28.8758  -17.8905   20.0706 C   0  0  0  0  0  0
  -29.9551  -17.1231   20.5837 C   0  0  0  0  0  0
  -31.1282  -19.2720   20.9686 C   0  0  0  0  0  0
  -30.4901  -24.2623   19.1538 C   0  0  0  0  0  0
  -31.3942  -23.0818   18.8055 C   0  0  0  0  0  0
  -31.4647  -22.0415   19.9334 C   0  0  0  0  0  0
  -28.9930  -22.4560   20.1863 C   0  0  0  0  0  0
  -29.3631  -24.0190   20.1729 C   0  0  2  0  0  0
  -28.1606  -25.0378   19.9373 C   0  0  0  0  0  0
  -30.1475  -21.5026   20.2931 N   0  0  0  0  0  0
  -27.7567  -17.2098   19.5858 N   0  0  0  0  0  0
  -29.7885  -15.6818   20.7218 N   0  0  0  0  0  0
  -30.6790  -25.3627   18.6252 O   0  0  0  0  0  0
  -32.2360  -19.8770   21.4658 F   0  0  0  0  0  0
  -31.4806  -12.5125   19.1399 H   0  0  0  0  0  0
  -30.3759  -11.3891   19.8858 H   0  0  0  0  0  0
  -29.7673  -11.7520   17.4724 H   0  0  0  0  0  0
  -29.6481  -13.4725   17.7395 H   0  0  0  0  0  0
  -27.8658  -11.2887   18.8665 H   0  0  0  0  0  0
  -27.3731  -12.5708   17.7931 H   0  0  0  0  0  0
  -27.6659  -14.2470   19.5168 H   0  0  0  0  0  0
  -28.7114  -12.0514   21.3773 H   0  0  0  0  0  0
  -28.4549  -13.7113   21.8367 H   0  0  0  0  0  0
  -25.2762   -9.5683   22.4751 H   0  0  0  0  0  0
  -24.0000   -7.4637   22.7474 H   0  0  0  0  0  0
  -21.0837   -8.8764   19.8955 H   0  0  0  0  0  0
  -22.3692  -10.9663   19.6155 H   0  0  0  0  0  0
  -21.2004   -7.6148   23.9716 H   0  0  0  0  0  0
  -21.1483   -6.0525   25.9079 H   0  0  0  0  0  0
  -22.0598   -2.7610   23.2846 H   0  0  0  0  0  0
  -22.4113  -11.9861   22.4774 H   0  0  0  0  0  0
  -21.1117  -13.1234   22.2621 H   0  0  0  0  0  0
  -24.6477  -15.8311   20.5675 H   0  0  0  0  0  0
  -26.2812  -15.6827   20.1896 H   0  0  0  0  0  0
  -26.7180  -32.5451   23.1109 H   0  0  0  0  0  0
  -25.0082  -33.9730   25.0436 H   0  0  0  0  0  0
  -22.7114  -31.3060   21.4049 H   0  0  0  0  0  0
  -23.3752  -35.9628   23.3304 H   0  0  0  0  0  0
  -24.3583  -36.8908   22.2052 H   0  0  0  0  0  0
  -23.7241  -37.6497   23.6658 H   0  0  0  0  0  0
  -26.0894  -31.5574   20.6058 H   0  0  0  0  0  0
  -26.8409  -30.8411   22.0013 H   0  0  0  0  0  0
  -28.1144  -28.9911   21.1803 H   0  0  0  0  0  0
  -25.9513  -25.9376   19.0029 H   0  0  0  0  0  0
  -23.9628  -27.3114   19.0207 H   0  0  0  0  0  0
  -23.7498  -30.5997   19.4056 H   0  0  0  0  0  0
  -22.7513  -29.2518   19.8596 H   0  0  0  0  0  0
  -25.1293  -36.1940   25.0821 H   0  0  0  0  0  0
  -20.9974  -28.3258   24.1410 H   0  0  0  0  0  0
  -20.5673  -26.2296   23.3612 H   0  0  0  0  0  0
  -21.6643  -26.7439   22.1204 H   0  0  0  0  0  0
  -19.6913  -25.6295   21.1239 H   0  0  0  0  0  0
  -19.6692  -27.3201   20.6750 H   0  0  0  0  0  0
  -17.4200  -26.6689   21.4020 H   0  0  0  0  0  0
  -18.0324  -26.0066   22.9010 H   0  0  0  0  0  0
  -19.7938  -30.7270   24.2272 H   0  0  0  0  0  0
  -17.5015  -31.6269   24.5165 H   0  0  0  0  0  0
  -15.5351  -30.2987   23.7655 H   0  0  0  0  0  0
  -15.8673  -28.0822   22.7063 H   0  0  0  0  0  0
  -24.5913  -30.7062   25.7789 H   0  0  0  0  0  0
  -24.8910  -32.2893   26.4872 H   0  0  0  0  0  0
  -25.8058  -30.8917   27.0237 H   0  0  0  0  0  0
  -26.2897  -29.6769   24.1199 H   0  0  0  0  0  0
  -27.4035  -29.7261   25.4665 H   0  0  0  0  0  0
  -27.8765  -30.4297   23.9385 H   0  0  0  0  0  0
  -27.2684  -33.3629   26.2057 H   0  0  0  0  0  0
  -28.3881  -32.6860   25.0325 H   0  0  0  0  0  0
  -28.0720  -31.8450   26.5416 H   0  0  0  0  0  0
  -28.2598  -38.0101   24.7506 H   0  0  0  0  0  0
  -28.1079  -36.2631   24.6292 H   0  0  0  0  0  0
  -27.2301  -37.1447   25.8867 H   0  0  0  0  0  0
  -20.9366  -29.8774   21.6906 H   0  0  0  0  0  0
  -26.0174  -38.2858   24.1407 H   0  0  0  0  0  0
  -28.0794  -19.8504   19.5910 H   0  0  0  0  0  0
  -31.9194  -17.3231   21.4648 H   0  0  0  0  0  0
  -32.3936  -23.4570   18.5849 H   0  0  0  0  0  0
  -31.0220  -22.6203   17.8911 H   0  0  0  0  0  0
  -31.9276  -22.4796   20.8196 H   0  0  0  0  0  0
  -32.1345  -21.2531   19.5893 H   0  0  0  0  0  0
  -28.4342  -22.2193   19.2795 H   0  0  0  0  0  0
  -28.3131  -22.2625   21.0169 H   0  0  0  0  0  0
  -29.7874  -24.2508   21.1496 H   0  0  0  0  0  0
  -27.3417  -24.7160   20.5825 H   0  0  0  0  0  0
  -27.8189  -24.8840   18.9128 H   0  0  0  0  0  0
  -27.0907  -17.7888   19.0850 H   0  0  0  0  0  0
  -27.9945  -16.4036   19.0199 H   0  0  0  0  0  0
  -28.8252  -15.4075   20.8376 H   0  0  0  0  0  0
  1 25  1  0  0  0
  1 30  2  0  0  0
  1 85  1  0  0  0
  2  3  1  0  0  0
  2 25  1  0  0  0
  2 88  1  0  0  0
  2 89  1  0  0  0
  3  4  1  0  0  0
  3 90  1  0  0  0
  3 91  1  0  0  0
  4  5  1  0  0  0
  4 92  1  0  0  0
  4 93  1  0  0  0
  5  6  1  0  0  0
  5 26  1  0  0  0
  5 94  1  0  0  0
  6 25  1  0  0  0
  6 95  1  0  0  0
  6 96  1  0  0  0
  7  8  2  0  0  0
  7 26  1  0  0  0
  7 29  1  0  0  0
  8  9  1  0  0  0
  8 22  1  0  0  0
  9 10  1  0  0  0
  9 27  2  0  0  0
 10 11  2  0  0  0
 10 15  1  0  0  0
 11 12  1  0  0  0
 11 97  1  0  0  0
 12 13  2  0  0  0
 12 98  1  0  0  0
 13 14  1  0  0  0
 13 31  1  0  0  0
 14 15  2  0  0  0
 14 99  1  0  0  0
 15100  1  0  0  0
 16 17  2  0  0  0
 16 21  1  0  0  0
 16 31  1  0  0  0
 17 18  1  0  0  0
 17101  1  0  0  0
 18 19  2  0  0  0
 18102  1  0  0  0
 19 20  1  0  0  0
 19 24  1  0  0  0
 20 21  2  0  0  0
 20103  1  0  0  0
 21 23  1  0  0  0
 22 28  1  0  0  0
 22 32  2  0  0  0
 26 27  1  0  0  0
 28104  1  0  0  0
 28105  1  0  0  0
 29106  1  0  0  0
 29107  1  0  0  0
 33 34  1  0  0  0
 33 66  1  0  0  0
 33 70  2  0  0  0
 34 36  1  0  0  0
 34 59  1  0  0  0
 34108  1  0  0  0
 35 44  2  0  0  0
 35 45  1  0  0  0
 35 68  1  0  0  0
 36 56  1  0  0  0
 36109  1  0  0  0
 37 39  1  0  0  0
 37 47  1  0  0  0
 37 66  1  0  0  0
 37110  1  0  0  0
 38 43  2  0  0  0
 38 46  1  0  0  0
 38 47  1  0  0  0
 39 64  1  0  0  0
 39 67  2  0  0  0
 40 52  1  0  0  0
 40 53  2  0  0  0
 40 58  1  0  0  0
 41111  1  0  0  0
 41112  1  0  0  0
 41113  1  0  0  0
 41 48  1  0  0  0
 42 43  1  0  0  0
 42 66  1  0  0  0
 42114  1  0  0  0
 42115  1  0  0  0
 43 44  1  0  0  0
 44116  1  0  0  0
 45 46  2  0  0  0
 45117  1  0  0  0
 46118  1  0  0  0
 47119  1  0  0  0
 47120  1  0  0  0
 48 56  1  0  0  0
 48 65  1  0  0  0
 48121  1  0  0  0
 49 50  1  0  0  0
 49 53  1  0  0  0
 49 64  1  0  0  0
 49122  1  0  0  0
 50 51  1  0  0  0
 50123  1  0  0  0
 50124  1  0  0  0
 51 52  1  0  0  0
 51125  1  0  0  0
 51126  1  0  0  0
 52127  1  0  0  0
 52128  1  0  0  0
 53 54  1  0  0  0
 54 55  2  0  0  0
 54129  1  0  0  0
 55 57  1  0  0  0
 55130  1  0  0  0
 56 69  2  0  0  0
 57 58  2  0  0  0
 57131  1  0  0  0
 58132  1  0  0  0
 59 60  1  0  0  0
 59 61  1  0  0  0
 59 62  1  0  0  0
 60133  1  0  0  0
 60134  1  0  0  0
 60135  1  0  0  0
 61136  1  0  0  0
 61137  1  0  0  0
 61138  1  0  0  0
 62139  1  0  0  0
 62140  1  0  0  0
 62141  1  0  0  0
 63 65  1  0  0  0
 63142  1  0  0  0
 63143  1  0  0  0
 63144  1  0  0  0
 64145  1  0  0  0
 65146  1  0  0  0
 68 82  1  0  0  0
 71 73  2  0  0  0
 71 74  1  0  0  0
 71147  1  0  0  0
 72 75  1  0  0  0
 72 76  2  0  0  0
 72148  1  0  0  0
 73 76  1  0  0  0
 73 83  1  0  0  0
 74 75  2  0  0  0
 74 84  1  0  0  0
 75 85  1  0  0  0
 76 87  1  0  0  0
 77 78  1  0  0  0
 77 81  1  0  0  0
 77 86  2  0  0  0
 78 79  1  0  0  0
 78149  1  0  0  0
 78150  1  0  0  0
 79 83  1  0  0  0
 79151  1  0  0  0
 79152  1  0  0  0
 80 81  1  0  0  0
 80 83  1  0  0  0
 80153  1  0  0  0
 80154  1  0  0  0
 81 82  1  0  0  0
 81155  1  0  0  0
 82156  1  0  0  0
 82157  1  0  0  0
 84158  1  0  0  0
 84159  1  0  0  0
 85160  1  0  0  0
M  ISO  4   1 100  68 101  82 101  85 100
M  END
> <chiral flag>
0

> <version>
0

> <s_m_source_file>
/data/baiqing/PycharmProjects/Reinvent-master-3.2/result/LINK_invent/BTK/process_docking_weight1_custom_product_contain_oxygen_bond_distance_aromatic_linkinvent_7_9_3/rearranged_h_0106.sdf

> <i_m_source_file_index>
36

> <r_mmod_Potential_Energy-OPLS-2005>
-12.02698802948

> <r_mmod_Stretch_Energy-OPLS-2005>
81.2448348999023

> <r_mmod_Bend_Energy-OPLS-2005>
144.568710327148

> <r_mmod_Torsional_Energy-OPLS-2005>
214.024063110352

> <r_mmod_Improper_Torsional_Energy-OPLS-2005>
11.7524547576904

> <r_mmod_Van_der_Waal_Energy-OPLS-2005>
162.312133789062

> <r_mmod_Electrostatic_Energy-OPLS-2005>
-431.376159667969

> <r_mmod_Solvation_Energy-OPLS-2005>
-240.394012451172

> <b_mmod_Minimization_Converged-OPLS-2005>
0

> <r_mmod_RMS_Derivative-OPLS-2005>
0.486963450908661

$$$$
36
                    3D
 Structure written by MMmdl.
159167  0  0  1  0            999 V2000
  -30.7069  -14.4871   20.5965 C   0  0  0  0  0  0
  -30.4262  -12.3319   19.4113 C   0  0  0  0  0  0
  -29.4912  -12.5067   18.1979 C   0  0  0  0  0  0
  -28.0134  -12.3608   18.6149 C   0  0  0  0  0  0
  -27.6583  -13.2079   19.8665 C   0  0  2  0  0  0
  -28.7019  -12.9997   20.9846 C   0  0  0  0  0  0
  -25.2569  -13.8155   20.5664 C   0  0  0  0  0  0
  -24.1830  -13.0437   20.9168 C   0  0  0  0  0  0
  -24.6391  -11.6898   20.8727 C   0  0  0  0  0  0
  -23.9058  -10.4288   21.0401 C   0  0  0  0  0  0
  -24.3615   -9.4207   21.9186 C   0  0  0  0  0  0
  -23.6292   -8.2243   22.0755 C   0  0  0  0  0  0
  -22.4274   -8.0281   21.3541 C   0  0  0  0  0  0
  -21.9905   -9.0253   20.4642 C   0  0  0  0  0  0
  -22.7228  -10.2133   20.3053 C   0  0  0  0  0  0
  -21.6852   -6.0733   22.5277 C   0  0  0  0  0  0
  -21.4016   -6.5640   23.8208 C   0  0  0  0  0  0
  -21.3658   -5.6793   24.9174 C   0  0  0  0  0  0
  -21.6042   -4.3055   24.7224 C   0  0  0  0  0  0
  -21.8825   -3.8148   23.4343 C   0  0  0  0  0  0
  -21.9193   -4.6962   22.3401 C   0  0  0  0  0  0
  -22.7849  -13.5227   21.1840 C   0  0  0  0  0  0
  -22.1661   -4.2148   21.0977 F   0  0  0  0  0  0
  -21.5627   -3.4543   25.7738 F   0  0  0  0  0  0
  -30.0253  -13.3205   20.4240 N   0  0  0  0  0  0
  -26.3013  -12.9338   20.3340 N   0  0  0  0  0  0
  -25.9323  -11.6492   20.5751 N   0  0  0  0  0  0
  -22.0498  -12.8225   22.0396 N   0  0  0  0  0  0
  -25.4290  -15.1874   20.4061 N   0  0  0  0  0  0
  -31.8360  -14.6742   20.1370 O   0  0  0  0  0  0
  -21.6634   -6.8880   21.4239 O   0  0  0  0  0  0
  -22.3534  -14.5538   20.6688 O   0  0  0  0  0  0
  -24.6159  -31.8675   23.2084 C   0  0  0  0  0  0
  -25.9051  -32.4815   23.8373 C   0  0  1  0  0  0
  -27.2316  -27.4152   20.0877 C   0  0  0  0  0  0
  -25.5900  -33.8614   24.2299 N   0  0  0  0  0  0
  -23.4053  -30.4922   21.5500 C   0  0  2  0  0  0
  -24.8496  -28.9593   20.1114 C   0  0  0  0  0  0
  -22.7410  -29.4664   22.4968 C   0  0  0  0  0  0
  -18.0281  -28.1378   22.8465 C   0  0  0  0  0  0
  -24.1509  -36.7322   23.2635 C   0  0  0  0  0  0
  -25.9387  -30.8247   21.3678 C   0  0  0  0  0  0
  -26.0133  -29.4605   20.7087 C   0  0  0  0  0  0
  -27.2061  -28.6967   20.6926 C   0  0  0  0  0  0
  -26.0443  -26.9411   19.4786 C   0  0  0  0  0  0
  -24.8612  -27.7003   19.4923 C   0  0  0  0  0  0
  -23.6134  -29.8273   20.1643 C   0  0  0  0  0  0
  -25.4125  -36.3106   24.0334 C   0  0  1  0  0  0
  -20.5872  -28.3672   23.1297 C   0  0  2  0  0  0
  -20.6789  -26.9406   22.5409 C   0  0  0  0  0  0
  -19.5766  -26.6389   21.5202 C   0  0  0  0  0  0
  -18.1930  -26.7921   22.1607 C   0  0  0  0  0  0
  -19.1526  -28.8835   23.2876 C   0  0  0  0  0  0
  -18.9459  -30.1442   23.8884 C   0  0  0  0  0  0
  -17.6470  -30.6578   24.0561 C   0  0  0  0  0  0
  -25.9055  -34.9475   23.5115 C   0  0  0  0  0  0
  -16.5351  -29.9081   23.6337 C   0  0  0  0  0  0
  -16.7267  -28.6505   23.0336 C   0  0  0  0  0  0
  -26.4466  -31.6595   25.0707 C   0  0  0  0  0  0
  -25.3713  -31.3724   26.1445 C   0  0  0  0  0  0
  -27.0295  -30.3031   24.6114 C   0  0  0  0  0  0
  -27.6032  -32.4320   25.7469 C   0  0  0  0  0  0
  -27.5595  -37.1808   24.8454 C   0  0  0  0  0  0
  -21.4140  -29.3036   22.3704 N   0  0  0  0  0  0
  -26.4310  -37.3794   23.9402 N   0  0  0  0  0  0
  -24.6714  -31.0753   22.1002 N   0  0  0  0  0  0
  -23.4165  -28.8207   23.3025 O   0  0  0  0  0  0
  -28.3970  -26.6610   20.1118 O   0  0  0  0  0  0
  -26.5622  -34.8931   22.4685 O   0  0  0  0  0  0
  -23.5356  -32.1450   23.7467 O   0  0  0  0  0  0
  -30.1597  -18.4250   20.2737 C   0  0  0  0  0  0
  -30.5621  -20.4131   22.2133 C   0  0  0  0  0  0
  -30.4509  -18.0301   21.6048 C   0  0  0  0  0  0
  -30.6258  -19.0500   22.5796 C   0  0  0  0  0  0
  -30.0938  -19.7985   19.9148 C   0  0  0  0  0  0
  -30.3171  -20.8083   20.8861 C   0  0  0  0  0  0
  -30.9134  -18.7148   24.0371 C   0  0  0  0  0  0
  -30.6755  -16.5545   22.0129 C   0  0  0  0  0  0
  -29.4969  -24.4038   20.2981 C   0  0  0  0  0  0
  -28.2640  -25.2418   19.8816 C   0  0  0  0  0  0
  -29.2418  -22.8708   20.2416 C   0  0  0  0  0  0
  -29.8677  -20.1639   18.5888 N   0  0  0  0  0  0
  -30.0479  -15.4615   21.2542 N   0  0  0  0  0  0
  -30.4337  -22.1528   20.5720 O   0  0  0  0  0  0
  -31.4674  -12.4454   19.1045 H   0  0  0  0  0  0
  -30.3449  -11.3235   19.8200 H   0  0  0  0  0  0
  -29.7346  -11.7739   17.4269 H   0  0  0  0  0  0
  -29.6505  -13.4891   17.7490 H   0  0  0  0  0  0
  -27.8298  -11.3048   18.8191 H   0  0  0  0  0  0
  -27.3607  -12.6275   17.7824 H   0  0  0  0  0  0
  -27.6984  -14.2549   19.5632 H   0  0  0  0  0  0
  -28.6913  -11.9634   21.3251 H   0  0  0  0  0  0
  -28.4568  -13.5951   21.8650 H   0  0  0  0  0  0
  -25.2765   -9.5683   22.4751 H   0  0  0  0  0  0
  -24.0000   -7.4634   22.7477 H   0  0  0  0  0  0
  -21.0837   -8.8772   19.8949 H   0  0  0  0  0  0
  -22.3693  -10.9673   19.6156 H   0  0  0  0  0  0
  -21.2016   -7.6148   23.9715 H   0  0  0  0  0  0
  -21.1470   -6.0521   25.9074 H   0  0  0  0  0  0
  -22.0604   -2.7608   23.2844 H   0  0  0  0  0  0
  -22.4123  -11.9885   22.4777 H   0  0  0  0  0  0
  -21.1111  -13.1244   22.2607 H   0  0  0  0  0  0
  -24.6643  -15.8438   20.5162 H   0  0  0  0  0  0
  -26.2827  -15.6247   20.0843 H   0  0  0  0  0  0
  -26.7115  -32.5516   23.1122 H   0  0  0  0  0  0
  -25.0012  -33.9761   25.0422 H   0  0  0  0  0  0
  -22.6941  -31.3088   21.4097 H   0  0  0  0  0  0
  -23.3764  -35.9665   23.3301 H   0  0  0  0  0  0
  -24.3594  -36.8943   22.2052 H   0  0  0  0  0  0
  -23.7271  -37.6531   23.6650 H   0  0  0  0  0  0
  -26.0590  -31.5938   20.6038 H   0  0  0  0  0  0
  -26.8239  -30.8697   21.9912 H   0  0  0  0  0  0
  -28.1038  -29.0793   21.1561 H   0  0  0  0  0  0
  -26.0052  -25.9826   18.9815 H   0  0  0  0  0  0
  -23.9691  -27.3109   19.0217 H   0  0  0  0  0  0
  -23.7173  -30.6028   19.4035 H   0  0  0  0  0  0
  -22.7376  -29.2450   19.8718 H   0  0  0  0  0  0
  -25.1298  -36.1974   25.0829 H   0  0  0  0  0  0
  -20.9947  -28.3261   24.1426 H   0  0  0  0  0  0
  -20.5732  -26.2263   23.3597 H   0  0  0  0  0  0
  -21.6657  -26.7488   22.1158 H   0  0  0  0  0  0
  -19.6953  -25.6304   21.1223 H   0  0  0  0  0  0
  -19.6730  -27.3219   20.6743 H   0  0  0  0  0  0
  -17.4213  -26.6661   21.3999 H   0  0  0  0  0  0
  -18.0331  -26.0073   22.9015 H   0  0  0  0  0  0
  -19.7952  -30.7248   24.2254 H   0  0  0  0  0  0
  -17.5037  -31.6273   24.5153 H   0  0  0  0  0  0
  -15.5349  -30.2976   23.7696 H   0  0  0  0  0  0
  -15.8666  -28.0840   22.7031 H   0  0  0  0  0  0
  -24.5889  -30.7071   25.7787 H   0  0  0  0  0  0
  -24.8885  -32.2884   26.4863 H   0  0  0  0  0  0
  -25.8037  -30.8912   27.0223 H   0  0  0  0  0  0
  -26.2852  -29.6792   24.1154 H   0  0  0  0  0  0
  -27.4044  -29.7274   25.4580 H   0  0  0  0  0  0
  -27.8695  -30.4339   23.9285 H   0  0  0  0  0  0
  -27.2652  -33.3625   26.2053 H   0  0  0  0  0  0
  -28.3833  -32.6884   25.0283 H   0  0  0  0  0  0
  -28.0719  -31.8441   26.5381 H   0  0  0  0  0  0
  -28.2583  -38.0128   24.7526 H   0  0  0  0  0  0
  -28.1116  -36.2661   24.6247 H   0  0  0  0  0  0
  -27.2306  -37.1419   25.8850 H   0  0  0  0  0  0
  -20.9315  -29.8716   21.6885 H   0  0  0  0  0  0
  -26.0204  -38.2871   24.1412 H   0  0  0  0  0  0
  -30.0344  -17.6649   19.5153 H   0  0  0  0  0  0
  -30.7339  -21.1758   22.9590 H   0  0  0  0  0  0
  -31.2016  -19.5996   24.6049 H   0  0  0  0  0  0
  -31.7253  -17.9930   24.1307 H   0  0  0  0  0  0
  -30.0254  -18.2976   24.5123 H   0  0  0  0  0  0
  -30.2957  -16.4178   23.0256 H   0  0  0  0  0  0
  -31.7523  -16.3919   22.0910 H   0  0  0  0  0  0
  -29.7970  -24.6797   21.3097 H   0  0  0  0  0  0
  -30.3361  -24.6557   19.6486 H   0  0  0  0  0  0
  -27.4060  -24.8631   20.4403 H   0  0  0  0  0  0
  -28.0672  -25.0669   18.8229 H   0  0  0  0  0  0
  -28.9135  -22.5939   19.2415 H   0  0  0  0  0  0
  -28.4419  -22.6002   20.9324 H   0  0  0  0  0  0
  -30.0167  -19.4716   17.8639 H   0  0  0  0  0  0
  -30.2072  -21.0827   18.3243 H   0  0  0  0  0  0
  -29.0959  -15.2449   21.5060 H   0  0  0  0  0  0
  1 25  1  0  0  0
  1 30  2  0  0  0
  1 83  1  0  0  0
  2  3  1  0  0  0
  2 25  1  0  0  0
  2 85  1  0  0  0
  2 86  1  0  0  0
  3  4  1  0  0  0
  3 87  1  0  0  0
  3 88  1  0  0  0
  4  5  1  0  0  0
  4 89  1  0  0  0
  4 90  1  0  0  0
  5  6  1  0  0  0
  5 26  1  0  0  0
  5 91  1  0  0  0
  6 25  1  0  0  0
  6 92  1  0  0  0
  6 93  1  0  0  0
  7  8  2  0  0  0
  7 26  1  0  0  0
  7 29  1  0  0  0
  8  9  1  0  0  0
  8 22  1  0  0  0
  9 10  1  0  0  0
  9 27  2  0  0  0
 10 11  2  0  0  0
 10 15  1  0  0  0
 11 12  1  0  0  0
 11 94  1  0  0  0
 12 13  2  0  0  0
 12 95  1  0  0  0
 13 14  1  0  0  0
 13 31  1  0  0  0
 14 15  2  0  0  0
 14 96  1  0  0  0
 15 97  1  0  0  0
 16 17  2  0  0  0
 16 21  1  0  0  0
 16 31  1  0  0  0
 17 18  1  0  0  0
 17 98  1  0  0  0
 18 19  2  0  0  0
 18 99  1  0  0  0
 19 20  1  0  0  0
 19 24  1  0  0  0
 20 21  2  0  0  0
 20100  1  0  0  0
 21 23  1  0  0  0
 22 28  1  0  0  0
 22 32  2  0  0  0
 26 27  1  0  0  0
 28101  1  0  0  0
 28102  1  0  0  0
 29103  1  0  0  0
 29104  1  0  0  0
 33 34  1  0  0  0
 33 66  1  0  0  0
 33 70  2  0  0  0
 34 36  1  0  0  0
 34 59  1  0  0  0
 34105  1  0  0  0
 35 44  2  0  0  0
 35 45  1  0  0  0
 35 68  1  0  0  0
 36 56  1  0  0  0
 36106  1  0  0  0
 37 39  1  0  0  0
 37 47  1  0  0  0
 37 66  1  0  0  0
 37107  1  0  0  0
 38 43  2  0  0  0
 38 46  1  0  0  0
 38 47  1  0  0  0
 39 64  1  0  0  0
 39 67  2  0  0  0
 40 52  1  0  0  0
 40 53  2  0  0  0
 40 58  1  0  0  0
 41108  1  0  0  0
 41109  1  0  0  0
 41110  1  0  0  0
 41 48  1  0  0  0
 42 43  1  0  0  0
 42 66  1  0  0  0
 42111  1  0  0  0
 42112  1  0  0  0
 43 44  1  0  0  0
 44113  1  0  0  0
 45 46  2  0  0  0
 45114  1  0  0  0
 46115  1  0  0  0
 47116  1  0  0  0
 47117  1  0  0  0
 48 56  1  0  0  0
 48 65  1  0  0  0
 48118  1  0  0  0
 49 50  1  0  0  0
 49 53  1  0  0  0
 49 64  1  0  0  0
 49119  1  0  0  0
 50 51  1  0  0  0
 50120  1  0  0  0
 50121  1  0  0  0
 51 52  1  0  0  0
 51122  1  0  0  0
 51123  1  0  0  0
 52124  1  0  0  0
 52125  1  0  0  0
 53 54  1  0  0  0
 54 55  2  0  0  0
 54126  1  0  0  0
 55 57  1  0  0  0
 55127  1  0  0  0
 56 69  2  0  0  0
 57 58  2  0  0  0
 57128  1  0  0  0
 58129  1  0  0  0
 59 60  1  0  0  0
 59 61  1  0  0  0
 59 62  1  0  0  0
 60130  1  0  0  0
 60131  1  0  0  0
 60132  1  0  0  0
 61133  1  0  0  0
 61134  1  0  0  0
 61135  1  0  0  0
 62136  1  0  0  0
 62137  1  0  0  0
 62138  1  0  0  0
 63 65  1  0  0  0
 63139  1  0  0  0
 63140  1  0  0  0
 63141  1  0  0  0
 64142  1  0  0  0
 65143  1  0  0  0
 68 80  1  0  0  0
 71 73  2  0  0  0
 71 75  1  0  0  0
 71144  1  0  0  0
 72 74  2  0  0  0
 72 76  1  0  0  0
 72145  1  0  0  0
 73 74  1  0  0  0
 73 78  1  0  0  0
 74 77  1  0  0  0
 75 76  2  0  0  0
 75 82  1  0  0  0
 76 84  1  0  0  0
 77146  1  0  0  0
 77147  1  0  0  0
 77148  1  0  0  0
 78 83  1  0  0  0
 78149  1  0  0  0
 78150  1  0  0  0
 79 80  1  0  0  0
 79 81  1  0  0  0
 79151  1  0  0  0
 79152  1  0  0  0
 80153  1  0  0  0
 80154  1  0  0  0
 81 84  1  0  0  0
 81155  1  0  0  0
 81156  1  0  0  0
 82157  1  0  0  0
 82158  1  0  0  0
 83159  1  0  0  0
M  ISO  4   1 100  68 101  80 101  83 100
M  END
> <chiral flag>
0

> <version>
0

> <s_m_source_file>
/data/baiqing/PycharmProjects/Reinvent-master-3.2/result/LINK_invent/BTK/process_docking_weight1_custom_product_contain_oxygen_bond_distance_aromatic_linkinvent_7_9_3/rearranged_h_0106.sdf

> <i_m_source_file_index>
37

> <r_mmod_Potential_Energy-OPLS-2005>
-125.738906860352

> <r_mmod_Stretch_Energy-OPLS-2005>
41.6724700927734

> <r_mmod_Bend_Energy-OPLS-2005>
105.88077545166

> <r_mmod_Torsional_Energy-OPLS-2005>
230.931289672852

> <r_mmod_Improper_Torsional_Energy-OPLS-2005>
7.47360992431641

> <r_mmod_Van_der_Waal_Energy-OPLS-2005>
157.685958862305

> <r_mmod_Electrostatic_Energy-OPLS-2005>
-463.920684814453

> <r_mmod_Solvation_Energy-OPLS-2005>
-221.347640991211

> <b_mmod_Minimization_Converged-OPLS-2005>
0

> <r_mmod_RMS_Derivative-OPLS-2005>
2.43407273292542

$$$$
37
                    3D
 Structure written by MMmdl.
154162  0  0  1  0            999 V2000
  -30.6840  -14.5823   20.5127 C   0  0  0  0  0  0
  -30.4179  -12.3632   19.4386 C   0  0  0  0  0  0
  -29.4985  -12.5018   18.2091 C   0  0  0  0  0  0
  -28.0200  -12.3600   18.6190 C   0  0  0  0  0  0
  -27.6494  -13.2235   19.8569 C   0  0  2  0  0  0
  -28.6955  -13.0845   20.9842 C   0  0  0  0  0  0
  -25.2549  -13.8200   20.5678 C   0  0  0  0  0  0
  -24.1831  -13.0444   20.9193 C   0  0  0  0  0  0
  -24.6405  -11.6919   20.8744 C   0  0  0  0  0  0
  -23.9076  -10.4306   21.0409 C   0  0  0  0  0  0
  -24.3629   -9.4216   21.9170 C   0  0  0  0  0  0
  -23.6299   -8.2254   22.0748 C   0  0  0  0  0  0
  -22.4273   -8.0294   21.3553 C   0  0  0  0  0  0
  -21.9916   -9.0269   20.4652 C   0  0  0  0  0  0
  -22.7252  -10.2143   20.3058 C   0  0  0  0  0  0
  -21.6859   -6.0734   22.5274 C   0  0  0  0  0  0
  -21.4017   -6.5635   23.8209 C   0  0  0  0  0  0
  -21.3667   -5.6788   24.9173 C   0  0  0  0  0  0
  -21.6045   -4.3050   24.7218 C   0  0  0  0  0  0
  -21.8818   -3.8141   23.4338 C   0  0  0  0  0  0
  -21.9195   -4.6960   22.3397 C   0  0  0  0  0  0
  -22.7850  -13.5224   21.1848 C   0  0  0  0  0  0
  -22.1657   -4.2146   21.0974 F   0  0  0  0  0  0
  -21.5639   -3.4535   25.7733 F   0  0  0  0  0  0
  -30.0075  -13.3995   20.4069 N   0  0  0  0  0  0
  -26.2976  -12.9385   20.3291 N   0  0  0  0  0  0
  -25.9334  -11.6537   20.5744 N   0  0  0  0  0  0
  -22.0484  -12.8254   22.0418 N   0  0  0  0  0  0
  -25.4237  -15.1933   20.4086 N   0  0  0  0  0  0
  -31.8563  -14.6779   20.1457 O   0  0  0  0  0  0
  -21.6650   -6.8881   21.4240 O   0  0  0  0  0  0
  -22.3529  -14.5512   20.6667 O   0  0  0  0  0  0
  -24.6229  -31.8628   23.2045 C   0  0  0  0  0  0
  -25.9082  -32.4806   23.8358 C   0  0  1  0  0  0
  -27.2041  -27.3242   20.1223 C   0  0  0  0  0  0
  -25.5894  -33.8608   24.2279 N   0  0  0  0  0  0
  -23.4140  -30.4886   21.5514 C   0  0  2  0  0  0
  -24.8589  -28.9596   20.1061 C   0  0  0  0  0  0
  -22.7451  -29.4608   22.4960 C   0  0  0  0  0  0
  -18.0263  -28.1365   22.8489 C   0  0  0  0  0  0
  -24.1484  -36.7299   23.2631 C   0  0  0  0  0  0
  -25.9555  -30.7977   21.3747 C   0  0  0  0  0  0
  -26.0290  -29.4283   20.7168 C   0  0  0  0  0  0
  -27.2053  -28.6213   20.7223 C   0  0  0  0  0  0
  -26.0176  -26.9312   19.4535 C   0  0  0  0  0  0
  -24.8558  -27.7166   19.4631 C   0  0  0  0  0  0
  -23.6246  -29.8339   20.1628 C   0  0  0  0  0  0
  -25.4105  -36.3111   24.0334 C   0  0  1  0  0  0
  -20.5864  -28.3645   23.1304 C   0  0  2  0  0  0
  -20.6764  -26.9373   22.5413 C   0  0  0  0  0  0
  -19.5734  -26.6357   21.5222 C   0  0  0  0  0  0
  -18.1913  -26.7904   22.1633 C   0  0  0  0  0  0
  -19.1523  -28.8829   23.2889 C   0  0  0  0  0  0
  -18.9448  -30.1439   23.8880 C   0  0  0  0  0  0
  -17.6449  -30.6580   24.0552 C   0  0  0  0  0  0
  -25.9041  -34.9481   23.5117 C   0  0  0  0  0  0
  -16.5337  -29.9066   23.6340 C   0  0  0  0  0  0
  -16.7248  -28.6489   23.0354 C   0  0  0  0  0  0
  -26.4461  -31.6605   25.0714 C   0  0  0  0  0  0
  -25.3671  -31.3767   26.1419 C   0  0  0  0  0  0
  -27.0283  -30.3026   24.6150 C   0  0  0  0  0  0
  -27.6028  -32.4324   25.7490 C   0  0  0  0  0  0
  -27.5588  -37.1795   24.8451 C   0  0  0  0  0  0
  -21.4166  -29.3009   22.3715 N   0  0  0  0  0  0
  -26.4289  -37.3801   23.9419 N   0  0  0  0  0  0
  -24.6833  -31.0649   22.1011 N   0  0  0  0  0  0
  -23.4195  -28.8138   23.3023 O   0  0  0  0  0  0
  -28.2906  -26.4374   20.2194 O   0  0  0  0  0  0
  -26.5623  -34.8951   22.4693 O   0  0  0  0  0  0
  -23.5396  -32.1420   23.7382 O   0  0  0  0  0  0
  -28.0946  -19.9349   20.6174 C   0  0  0  0  0  0
  -28.5686  -18.6157   20.8562 C   0  0  0  0  0  0
  -28.9922  -21.0098   20.3582 C   0  0  0  0  0  0
  -29.9572  -18.3695   20.8392 C   0  0  0  0  0  0
  -30.3587  -20.6467   20.3499 C   0  0  0  0  0  0
  -28.4234  -22.4081   19.9203 C   0  0  0  0  0  0
  -30.6245  -17.0087   21.2042 C   0  0  0  0  0  0
  -28.8743  -23.8063   20.5307 C   0  0  0  0  0  0
  -27.9984  -25.0065   19.9759 C   0  0  0  0  0  0
  -30.8158  -19.3941   20.5893 N   0  0  0  0  0  0
  -31.3508  -21.5600   20.0455 N   0  0  0  0  0  0
  -29.9895  -15.6909   20.8928 N   0  0  0  0  0  0
  -31.4632  -12.4568   19.1389 H   0  0  0  0  0  0
  -30.3200  -11.3693   19.8776 H   0  0  0  0  0  0
  -29.7508  -11.7520   17.4587 H   0  0  0  0  0  0
  -29.6605  -13.4724   17.7368 H   0  0  0  0  0  0
  -27.8387  -11.3064   18.8359 H   0  0  0  0  0  0
  -27.3720  -12.6121   17.7782 H   0  0  0  0  0  0
  -27.6676  -14.2600   19.5221 H   0  0  0  0  0  0
  -28.6984  -12.0707   21.3859 H   0  0  0  0  0  0
  -28.4560  -13.7407   21.8218 H   0  0  0  0  0  0
  -25.2776   -9.5693   22.4738 H   0  0  0  0  0  0
  -24.0020   -7.4647   22.7464 H   0  0  0  0  0  0
  -21.0844   -8.8783   19.8966 H   0  0  0  0  0  0
  -22.3700  -10.9678   19.6175 H   0  0  0  0  0  0
  -21.2004   -7.6142   23.9715 H   0  0  0  0  0  0
  -21.1496   -6.0514   25.9079 H   0  0  0  0  0  0
  -22.0591   -2.7601   23.2837 H   0  0  0  0  0  0
  -22.4087  -11.9935   22.4864 H   0  0  0  0  0  0
  -21.1094  -13.1290   22.2583 H   0  0  0  0  0  0
  -24.6515  -15.8424   20.5178 H   0  0  0  0  0  0
  -26.2642  -15.6364   20.0591 H   0  0  0  0  0  0
  -26.7143  -32.5486   23.1099 H   0  0  0  0  0  0
  -25.0017  -33.9750   25.0408 H   0  0  0  0  0  0
  -22.7053  -31.3087   21.4156 H   0  0  0  0  0  0
  -23.3778  -35.9593   23.3267 H   0  0  0  0  0  0
  -24.3581  -36.8936   22.2049 H   0  0  0  0  0  0
  -23.7198  -37.6479   23.6663 H   0  0  0  0  0  0
  -26.0795  -31.5624   20.6065 H   0  0  0  0  0  0
  -26.8379  -30.8494   21.9988 H   0  0  0  0  0  0
  -28.0966  -28.9713   21.2259 H   0  0  0  0  0  0
  -25.9421  -25.9930   18.9255 H   0  0  0  0  0  0
  -23.9632  -27.3572   18.9685 H   0  0  0  0  0  0
  -23.7295  -30.6124   19.4061 H   0  0  0  0  0  0
  -22.7469  -29.2565   19.8700 H   0  0  0  0  0  0
  -25.1292  -36.1967   25.0824 H   0  0  0  0  0  0
  -20.9945  -28.3199   24.1429 H   0  0  0  0  0  0
  -20.5681  -26.2241   23.3596 H   0  0  0  0  0  0
  -21.6637  -26.7406   22.1207 H   0  0  0  0  0  0
  -19.6898  -25.6269   21.1249 H   0  0  0  0  0  0
  -19.6701  -27.3181   20.6769 H   0  0  0  0  0  0
  -17.4191  -26.6634   21.4031 H   0  0  0  0  0  0
  -18.0315  -26.0053   22.9042 H   0  0  0  0  0  0
  -19.7929  -30.7268   24.2237 H   0  0  0  0  0  0
  -17.5002  -31.6268   24.5138 H   0  0  0  0  0  0
  -15.5341  -30.2965   23.7680 H   0  0  0  0  0  0
  -15.8640  -28.0809   22.7063 H   0  0  0  0  0  0
  -24.5844  -30.7122   25.7732 H   0  0  0  0  0  0
  -24.8856  -32.2953   26.4795 H   0  0  0  0  0  0
  -25.7947  -30.8963   27.0222 H   0  0  0  0  0  0
  -26.2860  -29.6806   24.1126 H   0  0  0  0  0  0
  -27.3936  -29.7254   25.4652 H   0  0  0  0  0  0
  -27.8750  -30.4319   23.9397 H   0  0  0  0  0  0
  -27.2643  -33.3619   26.2076 H   0  0  0  0  0  0
  -28.3832  -32.6878   25.0311 H   0  0  0  0  0  0
  -28.0684  -31.8427   26.5387 H   0  0  0  0  0  0
  -28.2585  -38.0122   24.7573 H   0  0  0  0  0  0
  -28.1122  -36.2667   24.6203 H   0  0  0  0  0  0
  -27.2310  -37.1336   25.8850 H   0  0  0  0  0  0
  -20.9320  -29.8748   21.6952 H   0  0  0  0  0  0
  -26.0181  -38.2866   24.1475 H   0  0  0  0  0  0
  -27.0274  -20.1109   20.6055 H   0  0  0  0  0  0
  -27.8707  -17.8165   21.0667 H   0  0  0  0  0  0
  -27.3404  -22.3487   20.0404 H   0  0  0  0  0  0
  -28.5809  -22.4609   18.8429 H   0  0  0  0  0  0
  -30.7899  -17.0147   22.2821 H   0  0  0  0  0  0
  -31.6246  -17.0369   20.7726 H   0  0  0  0  0  0
  -29.9240  -23.9906   20.3137 H   0  0  0  0  0  0
  -28.7818  -23.7775   21.6173 H   0  0  0  0  0  0
  -27.0043  -24.7874   20.3714 H   0  0  0  0  0  0
  -27.9378  -24.8893   18.8939 H   0  0  0  0  0  0
  -31.1563  -22.5502   19.9872 H   0  0  0  0  0  0
  -32.3267  -21.3078   20.1403 H   0  0  0  0  0  0
  -29.0059  -15.5916   21.0909 H   0  0  0  0  0  0
  1 25  1  0  0  0
  1 30  2  0  0  0
  1 82  1  0  0  0
  2  3  1  0  0  0
  2 25  1  0  0  0
  2 83  1  0  0  0
  2 84  1  0  0  0
  3  4  1  0  0  0
  3 85  1  0  0  0
  3 86  1  0  0  0
  4  5  1  0  0  0
  4 87  1  0  0  0
  4 88  1  0  0  0
  5  6  1  0  0  0
  5 26  1  0  0  0
  5 89  1  0  0  0
  6 25  1  0  0  0
  6 90  1  0  0  0
  6 91  1  0  0  0
  7  8  2  0  0  0
  7 26  1  0  0  0
  7 29  1  0  0  0
  8  9  1  0  0  0
  8 22  1  0  0  0
  9 10  1  0  0  0
  9 27  2  0  0  0
 10 11  2  0  0  0
 10 15  1  0  0  0
 11 12  1  0  0  0
 11 92  1  0  0  0
 12 13  2  0  0  0
 12 93  1  0  0  0
 13 14  1  0  0  0
 13 31  1  0  0  0
 14 15  2  0  0  0
 14 94  1  0  0  0
 15 95  1  0  0  0
 16 17  2  0  0  0
 16 21  1  0  0  0
 16 31  1  0  0  0
 17 18  1  0  0  0
 17 96  1  0  0  0
 18 19  2  0  0  0
 18 97  1  0  0  0
 19 20  1  0  0  0
 19 24  1  0  0  0
 20 21  2  0  0  0
 20 98  1  0  0  0
 21 23  1  0  0  0
 22 28  1  0  0  0
 22 32  2  0  0  0
 26 27  1  0  0  0
 28 99  1  0  0  0
 28100  1  0  0  0
 29101  1  0  0  0
 29102  1  0  0  0
 33 34  1  0  0  0
 33 66  1  0  0  0
 33 70  2  0  0  0
 34 36  1  0  0  0
 34 59  1  0  0  0
 34103  1  0  0  0
 35 44  2  0  0  0
 35 45  1  0  0  0
 35 68  1  0  0  0
 36 56  1  0  0  0
 36104  1  0  0  0
 37 39  1  0  0  0
 37 47  1  0  0  0
 37 66  1  0  0  0
 37105  1  0  0  0
 38 43  2  0  0  0
 38 46  1  0  0  0
 38 47  1  0  0  0
 39 64  1  0  0  0
 39 67  2  0  0  0
 40 52  1  0  0  0
 40 53  2  0  0  0
 40 58  1  0  0  0
 41106  1  0  0  0
 41107  1  0  0  0
 41108  1  0  0  0
 41 48  1  0  0  0
 42 43  1  0  0  0
 42 66  1  0  0  0
 42109  1  0  0  0
 42110  1  0  0  0
 43 44  1  0  0  0
 44111  1  0  0  0
 45 46  2  0  0  0
 45112  1  0  0  0
 46113  1  0  0  0
 47114  1  0  0  0
 47115  1  0  0  0
 48 56  1  0  0  0
 48 65  1  0  0  0
 48116  1  0  0  0
 49 50  1  0  0  0
 49 53  1  0  0  0
 49 64  1  0  0  0
 49117  1  0  0  0
 50 51  1  0  0  0
 50118  1  0  0  0
 50119  1  0  0  0
 51 52  1  0  0  0
 51120  1  0  0  0
 51121  1  0  0  0
 52122  1  0  0  0
 52123  1  0  0  0
 53 54  1  0  0  0
 54 55  2  0  0  0
 54124  1  0  0  0
 55 57  1  0  0  0
 55125  1  0  0  0
 56 69  2  0  0  0
 57 58  2  0  0  0
 57126  1  0  0  0
 58127  1  0  0  0
 59 60  1  0  0  0
 59 61  1  0  0  0
 59 62  1  0  0  0
 60128  1  0  0  0
 60129  1  0  0  0
 60130  1  0  0  0
 61131  1  0  0  0
 61132  1  0  0  0
 61133  1  0  0  0
 62134  1  0  0  0
 62135  1  0  0  0
 62136  1  0  0  0
 63 65  1  0  0  0
 63137  1  0  0  0
 63138  1  0  0  0
 63139  1  0  0  0
 64140  1  0  0  0
 65141  1  0  0  0
 68 79  1  0  0  0
 71 72  2  0  0  0
 71 73  1  0  0  0
 71142  1  0  0  0
 72 74  1  0  0  0
 72143  1  0  0  0
 73 75  2  0  0  0
 73 76  1  0  0  0
 74 77  1  0  0  0
 74 80  2  0  0  0
 75 80  1  0  0  0
 75 81  1  0  0  0
 76 78  1  0  0  0
 76144  1  0  0  0
 76145  1  0  0  0
 77 82  1  0  0  0
 77146  1  0  0  0
 77147  1  0  0  0
 78 79  1  0  0  0
 78148  1  0  0  0
 78149  1  0  0  0
 79150  1  0  0  0
 79151  1  0  0  0
 81152  1  0  0  0
 81153  1  0  0  0
 82154  1  0  0  0
M  ISO  4   1 100  68 101  79 101  82 100
M  END
> <chiral flag>
0

> <version>
0

> <s_m_source_file>
/data/baiqing/PycharmProjects/Reinvent-master-3.2/result/LINK_invent/BTK/process_docking_weight1_custom_product_contain_oxygen_bond_distance_aromatic_linkinvent_7_9_3/rearranged_h_0106.sdf

> <i_m_source_file_index>
38

> <r_mmod_Potential_Energy-OPLS-2005>
-350.762145996094

> <r_mmod_Stretch_Energy-OPLS-2005>
68.0782470703125

> <r_mmod_Bend_Energy-OPLS-2005>
154.684204101562

> <r_mmod_Torsional_Energy-OPLS-2005>
200.060089111328

> <r_mmod_Improper_Torsional_Energy-OPLS-2005>
5.30021715164185

> <r_mmod_Van_der_Waal_Energy-OPLS-2005>
157.467468261719

> <r_mmod_Electrostatic_Energy-OPLS-2005>
-746.970336914062

> <r_mmod_Solvation_Energy-OPLS-2005>
-235.697845458984

> <b_mmod_Minimization_Converged-OPLS-2005>
0

> <r_mmod_RMS_Derivative-OPLS-2005>
2.74371314048767

$$$$
38
                    3D
 Structure written by MMmdl.
155163  0  0  1  0            999 V2000
  -30.5708  -14.9989   20.3815 C   0  0  0  0  0  0
  -30.4283  -12.6199   19.5027 C   0  0  0  0  0  0
  -29.5172  -12.5324   18.2579 C   0  0  0  0  0  0
  -28.0533  -12.3173   18.6787 C   0  0  0  0  0  0
  -27.6234  -13.2633   19.8304 C   0  0  2  0  0  0
  -28.6675  -13.3423   20.9642 C   0  0  0  0  0  0
  -25.2432  -13.8258   20.5740 C   0  0  0  0  0  0
  -24.1773  -13.0460   20.9256 C   0  0  0  0  0  0
  -24.6412  -11.6951   20.8775 C   0  0  0  0  0  0
  -23.9103  -10.4311   21.0423 C   0  0  0  0  0  0
  -24.3647   -9.4217   21.9199 C   0  0  0  0  0  0
  -23.6310   -8.2258   22.0765 C   0  0  0  0  0  0
  -22.4285   -8.0303   21.3557 C   0  0  0  0  0  0
  -21.9933   -9.0282   20.4654 C   0  0  0  0  0  0
  -22.7275  -10.2157   20.3063 C   0  0  0  0  0  0
  -21.6848   -6.0744   22.5283 C   0  0  0  0  0  0
  -21.4017   -6.5647   23.8219 C   0  0  0  0  0  0
  -21.3659   -5.6798   24.9179 C   0  0  0  0  0  0
  -21.6041   -4.3059   24.7228 C   0  0  0  0  0  0
  -21.8822   -3.8150   23.4347 C   0  0  0  0  0  0
  -21.9194   -4.6969   22.3402 C   0  0  0  0  0  0
  -22.7786  -13.5208   21.1908 C   0  0  0  0  0  0
  -22.1669   -4.2155   21.0981 F   0  0  0  0  0  0
  -21.5619   -3.4552   25.7744 F   0  0  0  0  0  0
  -29.9352  -13.7520   20.3468 N   0  0  0  0  0  0
  -26.2865  -12.9523   20.3236 N   0  0  0  0  0  0
  -25.9347  -11.6638   20.5758 N   0  0  0  0  0  0
  -22.0442  -12.8182   22.0449 N   0  0  0  0  0  0
  -25.4096  -15.1992   20.4194 N   0  0  0  0  0  0
  -31.7911  -14.9472   20.2091 O   0  0  0  0  0  0
  -21.6645   -6.8898   21.4251 O   0  0  0  0  0  0
  -22.3458  -14.5506   20.6741 O   0  0  0  0  0  0
  -24.6460  -31.8407   23.1847 C   0  0  0  0  0  0
  -25.9206  -32.4671   23.8268 C   0  0  1  0  0  0
  -27.2186  -27.1046   20.1514 C   0  0  0  0  0  0
  -25.5937  -33.8481   24.2172 N   0  0  0  0  0  0
  -23.4528  -30.4588   21.5318 C   0  0  2  0  0  0
  -24.9036  -28.8815   20.1065 C   0  0  0  0  0  0
  -22.7586  -29.4534   22.4855 C   0  0  0  0  0  0
  -18.0303  -28.1414   22.8471 C   0  0  0  0  0  0
  -24.1493  -36.7263   23.2649 C   0  0  0  0  0  0
  -26.0095  -30.7045   21.3886 C   0  0  0  0  0  0
  -26.0808  -29.3122   20.7310 C   0  0  0  0  0  0
  -27.2366  -28.4397   20.7362 C   0  0  0  0  0  0
  -26.0198  -26.7903   19.4739 C   0  0  0  0  0  0
  -24.8888  -27.6369   19.4596 C   0  0  0  0  0  0
  -23.6796  -29.7836   20.1529 C   0  0  0  0  0  0
  -25.4125  -36.3029   24.0309 C   0  0  1  0  0  0
  -20.5922  -28.3742   23.1227 C   0  0  2  0  0  0
  -20.6794  -26.9443   22.5408 C   0  0  0  0  0  0
  -19.5769  -26.6395   21.5220 C   0  0  0  0  0  0
  -18.1947  -26.7951   22.1624 C   0  0  0  0  0  0
  -19.1562  -28.8897   23.2843 C   0  0  0  0  0  0
  -18.9473  -30.1493   23.8869 C   0  0  0  0  0  0
  -17.6468  -30.6602   24.0568 C   0  0  0  0  0  0
  -25.9066  -34.9394   23.5052 C   0  0  0  0  0  0
  -16.5360  -29.9094   23.6342 C   0  0  0  0  0  0
  -16.7289  -28.6520   23.0352 C   0  0  0  0  0  0
  -26.4517  -31.6553   25.0726 C   0  0  0  0  0  0
  -25.3689  -31.3741   26.1412 C   0  0  0  0  0  0
  -27.0371  -30.2939   24.6324 C   0  0  0  0  0  0
  -27.6044  -32.4335   25.7501 C   0  0  0  0  0  0
  -27.5572  -37.1792   24.8465 C   0  0  0  0  0  0
  -21.4277  -29.3050   22.3586 N   0  0  0  0  0  0
  -26.4291  -37.3736   23.9382 N   0  0  0  0  0  0
  -24.7231  -31.0228   22.0903 N   0  0  0  0  0  0
  -23.4204  -28.8081   23.3030 O   0  0  0  0  0  0
  -28.2601  -26.0986   20.2456 O   0  0  0  0  0  0
  -26.5671  -34.8900   22.4642 O   0  0  0  0  0  0
  -23.5567  -32.1296   23.7037 O   0  0  0  0  0  0
  -30.9510  -18.3231   17.8268 C   0  0  0  0  0  0
  -28.7494  -19.0266   18.5858 C   0  0  0  0  0  0
  -29.6502  -18.7844   17.5283 C   0  0  0  0  0  0
  -31.2467  -17.8399   19.1217 C   0  0  0  0  0  0
  -30.1876  -17.7367   20.0649 C   0  0  0  0  0  0
  -29.2492  -18.9163   19.9022 C   0  0  0  0  0  0
  -28.8820  -23.1966   20.5069 C   0  0  0  0  0  0
  -28.0325  -24.5695   19.9506 C   0  0  0  0  0  0
  -28.7035  -21.5866   19.9658 C   0  0  0  0  0  0
  -29.3063  -19.1290   16.2195 N   0  0  0  0  0  0
  -32.5295  -17.3642   19.3843 N   0  0  0  0  0  0
  -29.8587  -16.2540   20.4397 N   0  0  0  0  0  0
  -29.3138  -20.2514   20.5384 O   0  0  0  0  0  0
  -31.4636  -12.7581   19.1855 H   0  0  0  0  0  0
  -30.4148  -11.6818   20.0611 H   0  0  0  0  0  0
  -29.8409  -11.7237   17.6014 H   0  0  0  0  0  0
  -29.6022  -13.4511   17.6755 H   0  0  0  0  0  0
  -27.9516  -11.2786   18.9966 H   0  0  0  0  0  0
  -27.3907  -12.4398   17.8213 H   0  0  0  0  0  0
  -27.5690  -14.2554   19.3802 H   0  0  0  0  0  0
  -28.7651  -12.3881   21.4833 H   0  0  0  0  0  0
  -28.3639  -14.0737   21.7135 H   0  0  0  0  0  0
  -25.2800   -9.5676   22.4781 H   0  0  0  0  0  0
  -24.0008   -7.4638   22.7479 H   0  0  0  0  0  0
  -21.0869   -8.8801   19.8962 H   0  0  0  0  0  0
  -22.3738  -10.9694   19.6170 H   0  0  0  0  0  0
  -21.2018   -7.6159   23.9717 H   0  0  0  0  0  0
  -21.1471   -6.0537   25.9082 H   0  0  0  0  0  0
  -22.0595   -2.7611   23.2845 H   0  0  0  0  0  0
  -22.4076  -11.9836   22.4799 H   0  0  0  0  0  0
  -21.1057  -13.1194   22.2668 H   0  0  0  0  0  0
  -24.6391  -15.8481   20.5370 H   0  0  0  0  0  0
  -26.2511  -15.6404   20.0729 H   0  0  0  0  0  0
  -26.7270  -32.5271   23.0998 H   0  0  0  0  0  0
  -25.0037  -33.9585   25.0290 H   0  0  0  0  0  0
  -22.7573  -31.2855   21.3747 H   0  0  0  0  0  0
  -23.3745  -35.9605   23.3319 H   0  0  0  0  0  0
  -24.3577  -36.8893   22.2063 H   0  0  0  0  0  0
  -23.7263  -37.6468   23.6682 H   0  0  0  0  0  0
  -26.1649  -31.4545   20.6122 H   0  0  0  0  0  0
  -26.8787  -30.7602   22.0313 H   0  0  0  0  0  0
  -28.1309  -28.7632   21.2502 H   0  0  0  0  0  0
  -25.9214  -25.8431   18.9663 H   0  0  0  0  0  0
  -23.9928  -27.3072   18.9508 H   0  0  0  0  0  0
  -23.8088  -30.5540   19.3927 H   0  0  0  0  0  0
  -22.7942  -29.2215   19.8489 H   0  0  0  0  0  0
  -25.1315  -36.1876   25.0804 H   0  0  0  0  0  0
  -21.0005  -28.3352   24.1359 H   0  0  0  0  0  0
  -20.5719  -26.2355   23.3635 H   0  0  0  0  0  0
  -21.6656  -26.7467   22.1197 H   0  0  0  0  0  0
  -19.6936  -25.6301   21.1271 H   0  0  0  0  0  0
  -19.6709  -27.3187   20.6737 H   0  0  0  0  0  0
  -17.4220  -26.6696   21.4028 H   0  0  0  0  0  0
  -18.0344  -26.0108   22.9035 H   0  0  0  0  0  0
  -19.7945  -30.7324   24.2231 H   0  0  0  0  0  0
  -17.5013  -31.6276   24.5180 H   0  0  0  0  0  0
  -15.5358  -30.2979   23.7690 H   0  0  0  0  0  0
  -15.8697  -28.0833   22.7074 H   0  0  0  0  0  0
  -24.5884  -30.7068   25.7731 H   0  0  0  0  0  0
  -24.8856  -32.2912   26.4785 H   0  0  0  0  0  0
  -25.7970  -30.8958   27.0230 H   0  0  0  0  0  0
  -26.2983  -29.6665   24.1319 H   0  0  0  0  0  0
  -27.3944  -29.7243   25.4912 H   0  0  0  0  0  0
  -27.8913  -30.4155   23.9662 H   0  0  0  0  0  0
  -27.2634  -33.3662   26.2001 H   0  0  0  0  0  0
  -28.3879  -32.6847   25.0340 H   0  0  0  0  0  0
  -28.0678  -31.8520   26.5477 H   0  0  0  0  0  0
  -28.2596  -38.0086   24.7477 H   0  0  0  0  0  0
  -28.1068  -36.2603   24.6343 H   0  0  0  0  0  0
  -27.2280  -37.1506   25.8873 H   0  0  0  0  0  0
  -20.9510  -29.8738   21.6727 H   0  0  0  0  0  0
  -26.0171  -38.2810   24.1369 H   0  0  0  0  0  0
  -31.7009  -18.2859   17.0494 H   0  0  0  0  0  0
  -27.8819  -19.6344   18.3718 H   0  0  0  0  0  0
  -28.7224  -23.1697   21.5841 H   0  0  0  0  0  0
  -29.9409  -23.4324   20.3985 H   0  0  0  0  0  0
  -26.9981  -24.3656   20.2265 H   0  0  0  0  0  0
  -28.0451  -24.5018   18.8623 H   0  0  0  0  0  0
  -29.0293  -21.6269   18.9263 H   0  0  0  0  0  0
  -27.6298  -21.4104   19.9135 H   0  0  0  0  0  0
  -30.0327  -19.2460   15.5187 H   0  0  0  0  0  0
  -28.4831  -19.6978   16.0446 H   0  0  0  0  0  0
  -33.1297  -17.2510   18.5749 H   0  0  0  0  0  0
  -32.5010  -16.4824   19.9099 H   0  0  0  0  0  0
  -28.8868  -16.1182   20.6667 H   0  0  0  0  0  0
  1 25  1  0  0  0
  1 30  2  0  0  0
  1 82  1  0  0  0
  2  3  1  0  0  0
  2 25  1  0  0  0
  2 84  1  0  0  0
  2 85  1  0  0  0
  3  4  1  0  0  0
  3 86  1  0  0  0
  3 87  1  0  0  0
  4  5  1  0  0  0
  4 88  1  0  0  0
  4 89  1  0  0  0
  5  6  1  0  0  0
  5 26  1  0  0  0
  5 90  1  0  0  0
  6 25  1  0  0  0
  6 91  1  0  0  0
  6 92  1  0  0  0
  7  8  2  0  0  0
  7 26  1  0  0  0
  7 29  1  0  0  0
  8  9  1  0  0  0
  8 22  1  0  0  0
  9 10  1  0  0  0
  9 27  2  0  0  0
 10 11  2  0  0  0
 10 15  1  0  0  0
 11 12  1  0  0  0
 11 93  1  0  0  0
 12 13  2  0  0  0
 12 94  1  0  0  0
 13 14  1  0  0  0
 13 31  1  0  0  0
 14 15  2  0  0  0
 14 95  1  0  0  0
 15 96  1  0  0  0
 16 17  2  0  0  0
 16 21  1  0  0  0
 16 31  1  0  0  0
 17 18  1  0  0  0
 17 97  1  0  0  0
 18 19  2  0  0  0
 18 98  1  0  0  0
 19 20  1  0  0  0
 19 24  1  0  0  0
 20 21  2  0  0  0
 20 99  1  0  0  0
 21 23  1  0  0  0
 22 28  1  0  0  0
 22 32  2  0  0  0
 26 27  1  0  0  0
 28100  1  0  0  0
 28101  1  0  0  0
 29102  1  0  0  0
 29103  1  0  0  0
 33 34  1  0  0  0
 33 66  1  0  0  0
 33 70  2  0  0  0
 34 36  1  0  0  0
 34 59  1  0  0  0
 34104  1  0  0  0
 35 44  2  0  0  0
 35 45  1  0  0  0
 35 68  1  0  0  0
 36 56  1  0  0  0
 36105  1  0  0  0
 37 39  1  0  0  0
 37 47  1  0  0  0
 37 66  1  0  0  0
 37106  1  0  0  0
 38 43  2  0  0  0
 38 46  1  0  0  0
 38 47  1  0  0  0
 39 64  1  0  0  0
 39 67  2  0  0  0
 40 52  1  0  0  0
 40 53  2  0  0  0
 40 58  1  0  0  0
 41107  1  0  0  0
 41108  1  0  0  0
 41109  1  0  0  0
 41 48  1  0  0  0
 42 43  1  0  0  0
 42 66  1  0  0  0
 42110  1  0  0  0
 42111  1  0  0  0
 43 44  1  0  0  0
 44112  1  0  0  0
 45 46  2  0  0  0
 45113  1  0  0  0
 46114  1  0  0  0
 47115  1  0  0  0
 47116  1  0  0  0
 48 56  1  0  0  0
 48 65  1  0  0  0
 48117  1  0  0  0
 49 50  1  0  0  0
 49 53  1  0  0  0
 49 64  1  0  0  0
 49118  1  0  0  0
 50 51  1  0  0  0
 50119  1  0  0  0
 50120  1  0  0  0
 51 52  1  0  0  0
 51121  1  0  0  0
 51122  1  0  0  0
 52123  1  0  0  0
 52124  1  0  0  0
 53 54  1  0  0  0
 54 55  2  0  0  0
 54125  1  0  0  0
 55 57  1  0  0  0
 55126  1  0  0  0
 56 69  2  0  0  0
 57 58  2  0  0  0
 57127  1  0  0  0
 58128  1  0  0  0
 59 60  1  0  0  0
 59 61  1  0  0  0
 59 62  1  0  0  0
 60129  1  0  0  0
 60130  1  0  0  0
 60131  1  0  0  0
 61132  1  0  0  0
 61133  1  0  0  0
 61134  1  0  0  0
 62135  1  0  0  0
 62136  1  0  0  0
 62137  1  0  0  0
 63 65  1  0  0  0
 63138  1  0  0  0
 63139  1  0  0  0
 63140  1  0  0  0
 64141  1  0  0  0
 65142  1  0  0  0
 68 78  1  0  0  0
 71 73  2  0  0  0
 71 74  1  0  0  0
 71143  1  0  0  0
 72 73  1  0  0  0
 72 76  2  0  0  0
 72144  1  0  0  0
 73 80  1  0  0  0
 74 75  2  0  0  0
 74 81  1  0  0  0
 75 76  1  0  0  0
 75 82  1  0  0  0
 76 83  1  0  0  0
 77 78  1  0  0  0
 77 79  1  0  0  0
 77145  1  0  0  0
 77146  1  0  0  0
 78147  1  0  0  0
 78148  1  0  0  0
 79 83  1  0  0  0
 79149  1  0  0  0
 79150  1  0  0  0
 80151  1  0  0  0
 80152  1  0  0  0
 81153  1  0  0  0
 81154  1  0  0  0
 82155  1  0  0  0
M  ISO  4   1 100  68 101  78 101  82 100
M  END
> <chiral flag>
0

> <version>
0

> <s_m_source_file>
/data/baiqing/PycharmProjects/Reinvent-master-3.2/result/LINK_invent/BTK/process_docking_weight1_custom_product_contain_oxygen_bond_distance_aromatic_linkinvent_7_9_3/rearranged_h_0106.sdf

> <i_m_source_file_index>
39

> <r_mmod_Potential_Energy-OPLS-2005>
858.407348632812

> <r_mmod_Stretch_Energy-OPLS-2005>
330.319610595703

> <r_mmod_Bend_Energy-OPLS-2005>
309.681365966797

> <r_mmod_Torsional_Energy-OPLS-2005>
469.567504882812

> <r_mmod_Improper_Torsional_Energy-OPLS-2005>
36.439037322998

> <r_mmod_Van_der_Waal_Energy-OPLS-2005>
157.267883300781

> <r_mmod_Electrostatic_Energy-OPLS-2005>
-443.211090087891

> <r_mmod_Solvation_Energy-OPLS-2005>
-228.272491455078

> <b_mmod_Minimization_Converged-OPLS-2005>
0

> <r_mmod_RMS_Derivative-OPLS-2005>
1.9523092508316

$$$$
39
                    3D
 Structure written by MMmdl.
156164  0  0  1  0            999 V2000
  -30.6260  -14.6308   20.5100 C   0  0  0  0  0  0
  -30.4386  -12.3877   19.4548 C   0  0  0  0  0  0
  -29.5089  -12.5115   18.2267 C   0  0  0  0  0  0
  -28.0312  -12.3507   18.6364 C   0  0  0  0  0  0
  -27.6558  -13.2168   19.8683 C   0  0  2  0  0  0
  -28.6993  -13.0611   20.9981 C   0  0  0  0  0  0
  -25.2553  -13.8162   20.5657 C   0  0  0  0  0  0
  -24.1828  -13.0432   20.9190 C   0  0  0  0  0  0
  -24.6401  -11.6905   20.8746 C   0  0  0  0  0  0
  -23.9068  -10.4290   21.0409 C   0  0  0  0  0  0
  -24.3617   -9.4204   21.9186 C   0  0  0  0  0  0
  -23.6291   -8.2241   22.0755 C   0  0  0  0  0  0
  -22.4274   -8.0280   21.3545 C   0  0  0  0  0  0
  -21.9910   -9.0255   20.4648 C   0  0  0  0  0  0
  -22.7240  -10.2134   20.3058 C   0  0  0  0  0  0
  -21.6852   -6.0735   22.5279 C   0  0  0  0  0  0
  -21.4014   -6.5639   23.8212 C   0  0  0  0  0  0
  -21.3659   -5.6792   24.9174 C   0  0  0  0  0  0
  -21.6044   -4.3055   24.7225 C   0  0  0  0  0  0
  -21.8819   -3.8146   23.4346 C   0  0  0  0  0  0
  -21.9193   -4.6963   22.3402 C   0  0  0  0  0  0
  -22.7851  -13.5228   21.1851 C   0  0  0  0  0  0
  -22.1661   -4.2149   21.0980 F   0  0  0  0  0  0
  -21.5629   -3.4539   25.7738 F   0  0  0  0  0  0
  -30.0183  -13.4037   20.4407 N   0  0  0  0  0  0
  -26.2999  -12.9353   20.3334 N   0  0  0  0  0  0
  -25.9333  -11.6507   20.5774 N   0  0  0  0  0  0
  -22.0493  -12.8224   22.0410 N   0  0  0  0  0  0
  -25.4230  -15.1872   20.3992 N   0  0  0  0  0  0
  -31.7759  -14.7999   20.0933 O   0  0  0  0  0  0
  -21.6638   -6.8878   21.4240 O   0  0  0  0  0  0
  -22.3535  -14.5534   20.6698 O   0  0  0  0  0  0
  -24.6249  -31.8607   23.2034 C   0  0  0  0  0  0
  -25.9100  -32.4785   23.8361 C   0  0  1  0  0  0
  -27.2254  -27.3312   20.1215 C   0  0  0  0  0  0
  -25.5919  -33.8586   24.2288 N   0  0  0  0  0  0
  -23.4186  -30.4839   21.5456 C   0  0  2  0  0  0
  -24.8667  -28.9400   20.1124 C   0  0  0  0  0  0
  -22.7469  -29.4627   22.4942 C   0  0  0  0  0  0
  -18.0285  -28.1383   22.8488 C   0  0  0  0  0  0
  -24.1488  -36.7298   23.2639 C   0  0  0  0  0  0
  -25.9584  -30.7957   21.3730 C   0  0  0  0  0  0
  -26.0347  -29.4234   20.7169 C   0  0  0  0  0  0
  -27.2198  -28.6310   20.7109 C   0  0  0  0  0  0
  -26.0404  -26.9012   19.4847 C   0  0  0  0  0  0
  -24.8708  -27.6837   19.4866 C   0  0  0  0  0  0
  -23.6335  -29.8181   20.1611 C   0  0  0  0  0  0
  -25.4113  -36.3089   24.0331 C   0  0  1  0  0  0
  -20.5884  -28.3686   23.1287 C   0  0  2  0  0  0
  -20.6774  -26.9411   22.5411 C   0  0  0  0  0  0
  -19.5750  -26.6385   21.5212 C   0  0  0  0  0  0
  -18.1930  -26.7927   22.1625 C   0  0  0  0  0  0
  -19.1537  -28.8851   23.2883 C   0  0  0  0  0  0
  -18.9460  -30.1454   23.8899 C   0  0  0  0  0  0
  -17.6460  -30.6586   24.0563 C   0  0  0  0  0  0
  -25.9047  -34.9456   23.5110 C   0  0  0  0  0  0
  -16.5352  -29.9085   23.6329 C   0  0  0  0  0  0
  -16.7273  -28.6502   23.0351 C   0  0  0  0  0  0
  -26.4490  -31.6590   25.0725 C   0  0  0  0  0  0
  -25.3729  -31.3720   26.1455 C   0  0  0  0  0  0
  -27.0333  -30.3018   24.6167 C   0  0  0  0  0  0
  -27.6052  -32.4322   25.7495 C   0  0  0  0  0  0
  -27.5579  -37.1805   24.8466 C   0  0  0  0  0  0
  -21.4184  -29.3042   22.3684 N   0  0  0  0  0  0
  -26.4293  -37.3780   23.9406 N   0  0  0  0  0  0
  -24.6860  -31.0629   22.0979 N   0  0  0  0  0  0
  -23.4198  -28.8165   23.3018 O   0  0  0  0  0  0
  -28.3329  -26.4766   20.1499 O   0  0  0  0  0  0
  -26.5615  -34.8921   22.4676 O   0  0  0  0  0  0
  -23.5415  -32.1399   23.7368 O   0  0  0  0  0  0
  -28.8677  -19.3570   21.2122 C   0  0  0  0  0  0
  -30.7649  -17.7879   19.8630 C   0  0  0  0  0  0
  -28.9295  -17.9434   21.4237 C   0  0  0  0  0  0
  -29.7469  -20.0220   20.3228 C   0  0  0  0  0  0
  -29.8774  -17.1159   20.7473 C   0  0  0  0  0  0
  -30.6973  -19.1990   19.6538 C   0  0  0  0  0  0
  -29.0476  -23.9634   20.1437 C   0  0  0  0  0  0
  -27.9512  -17.3190   22.4051 C   0  0  0  0  0  0
  -28.8167  -22.4706   20.6224 C   0  0  0  0  0  0
  -28.0667  -25.0988   20.6288 C   0  0  0  0  0  0
  -31.5687  -19.7994   18.7413 N   0  0  0  0  0  0
  -29.8401  -15.6627   20.9503 N   0  0  0  0  0  0
  -29.7425  -21.4340   20.0669 N   0  0  0  0  0  0
  -29.9964  -24.2243   19.3945 O   0  0  0  0  0  0
  -31.4804  -12.5107   19.1535 H   0  0  0  0  0  0
  -30.3711  -11.3895   19.8900 H   0  0  0  0  0  0
  -29.7719  -11.7637   17.4774 H   0  0  0  0  0  0
  -29.6537  -13.4834   17.7522 H   0  0  0  0  0  0
  -27.8650  -11.2969   18.8627 H   0  0  0  0  0  0
  -27.3779  -12.5869   17.7957 H   0  0  0  0  0  0
  -27.6781  -14.2547   19.5352 H   0  0  0  0  0  0
  -28.7076  -12.0362   21.3719 H   0  0  0  0  0  0
  -28.4422  -13.6841   21.8560 H   0  0  0  0  0  0
  -25.2762   -9.5679   22.4761 H   0  0  0  0  0  0
  -24.0000   -7.4631   22.7473 H   0  0  0  0  0  0
  -21.0841   -8.8775   19.8953 H   0  0  0  0  0  0
  -22.3700  -10.9674   19.6167 H   0  0  0  0  0  0
  -21.2007   -7.6147   23.9715 H   0  0  0  0  0  0
  -21.1481   -6.0523   25.9077 H   0  0  0  0  0  0
  -22.0599   -2.7609   23.2847 H   0  0  0  0  0  0
  -22.4106  -11.9885   22.4800 H   0  0  0  0  0  0
  -21.1112  -13.1253   22.2616 H   0  0  0  0  0  0
  -24.6484  -15.8353   20.4898 H   0  0  0  0  0  0
  -26.2591  -15.6203   20.0287 H   0  0  0  0  0  0
  -26.7170  -32.5463   23.1114 H   0  0  0  0  0  0
  -25.0066  -33.9733   25.0432 H   0  0  0  0  0  0
  -22.7118  -31.3039   21.4025 H   0  0  0  0  0  0
  -23.3748  -35.9634   23.3308 H   0  0  0  0  0  0
  -24.3580  -36.8911   22.2052 H   0  0  0  0  0  0
  -23.7245  -37.6504   23.6655 H   0  0  0  0  0  0
  -26.0870  -31.5591   20.6044 H   0  0  0  0  0  0
  -26.8398  -30.8460   22.0007 H   0  0  0  0  0  0
  -28.1166  -28.9968   21.1913 H   0  0  0  0  0  0
  -26.0062  -25.9459   18.9811 H   0  0  0  0  0  0
  -23.9782  -27.3110   19.0031 H   0  0  0  0  0  0
  -23.7512  -30.5942   19.4040 H   0  0  0  0  0  0
  -22.7543  -29.2458   19.8595 H   0  0  0  0  0  0
  -25.1293  -36.1945   25.0824 H   0  0  0  0  0  0
  -20.9977  -28.3259   24.1408 H   0  0  0  0  0  0
  -20.5677  -26.2295   23.3609 H   0  0  0  0  0  0
  -21.6643  -26.7443   22.1203 H   0  0  0  0  0  0
  -19.6912  -25.6296   21.1240 H   0  0  0  0  0  0
  -19.6687  -27.3196   20.6743 H   0  0  0  0  0  0
  -17.4200  -26.6674   21.4028 H   0  0  0  0  0  0
  -18.0333  -26.0068   22.9022 H   0  0  0  0  0  0
  -19.7936  -30.7270   24.2269 H   0  0  0  0  0  0
  -17.5015  -31.6267   24.5164 H   0  0  0  0  0  0
  -15.5352  -30.2988   23.7651 H   0  0  0  0  0  0
  -15.8673  -28.0822   22.7065 H   0  0  0  0  0  0
  -24.5905  -30.7068   25.7784 H   0  0  0  0  0  0
  -24.8919  -32.2883   26.4887 H   0  0  0  0  0  0
  -25.8059  -30.8895   27.0226 H   0  0  0  0  0  0
  -26.2903  -29.6770   24.1195 H   0  0  0  0  0  0
  -27.4043  -29.7270   25.4663 H   0  0  0  0  0  0
  -27.8767  -30.4311   23.9380 H   0  0  0  0  0  0
  -27.2664  -33.3620   26.2077 H   0  0  0  0  0  0
  -28.3860  -32.6887   25.0321 H   0  0  0  0  0  0
  -28.0724  -31.8445   26.5407 H   0  0  0  0  0  0
  -28.2602  -38.0097   24.7506 H   0  0  0  0  0  0
  -28.1070  -36.2628   24.6301 H   0  0  0  0  0  0
  -27.2296  -37.1467   25.8869 H   0  0  0  0  0  0
  -20.9360  -29.8766   21.6897 H   0  0  0  0  0  0
  -26.0177  -38.2858   24.1400 H   0  0  0  0  0  0
  -28.1304  -19.9365   21.7483 H   0  0  0  0  0  0
  -31.4969  -17.2148   19.3133 H   0  0  0  0  0  0
  -27.3156  -18.0705   22.8742 H   0  0  0  0  0  0
  -28.4868  -16.7975   23.1990 H   0  0  0  0  0  0
  -27.3015  -16.6046   21.9015 H   0  0  0  0  0  0
  -27.7909  -22.1962   20.3738 H   0  0  0  0  0  0
  -28.8847  -22.4567   21.7107 H   0  0  0  0  0  0
  -28.1026  -25.1175   21.7181 H   0  0  0  0  0  0
  -27.0610  -24.7698   20.3748 H   0  0  0  0  0  0
  -32.0206  -19.1816   18.0761 H   0  0  0  0  0  0
  -31.1932  -20.6203   18.2803 H   0  0  0  0  0  0
  -28.9942  -15.3325   21.3877 H   0  0  0  0  0  0
  -30.5611  -21.8025   19.5906 H   0  0  0  0  0  0
  1 25  1  0  0  0
  1 30  2  0  0  0
  1 82  1  0  0  0
  2  3  1  0  0  0
  2 25  1  0  0  0
  2 85  1  0  0  0
  2 86  1  0  0  0
  3  4  1  0  0  0
  3 87  1  0  0  0
  3 88  1  0  0  0
  4  5  1  0  0  0
  4 89  1  0  0  0
  4 90  1  0  0  0
  5  6  1  0  0  0
  5 26  1  0  0  0
  5 91  1  0  0  0
  6 25  1  0  0  0
  6 92  1  0  0  0
  6 93  1  0  0  0
  7  8  2  0  0  0
  7 26  1  0  0  0
  7 29  1  0  0  0
  8  9  1  0  0  0
  8 22  1  0  0  0
  9 10  1  0  0  0
  9 27  2  0  0  0
 10 11  2  0  0  0
 10 15  1  0  0  0
 11 12  1  0  0  0
 11 94  1  0  0  0
 12 13  2  0  0  0
 12 95  1  0  0  0
 13 14  1  0  0  0
 13 31  1  0  0  0
 14 15  2  0  0  0
 14 96  1  0  0  0
 15 97  1  0  0  0
 16 17  2  0  0  0
 16 21  1  0  0  0
 16 31  1  0  0  0
 17 18  1  0  0  0
 17 98  1  0  0  0
 18 19  2  0  0  0
 18 99  1  0  0  0
 19 20  1  0  0  0
 19 24  1  0  0  0
 20 21  2  0  0  0
 20100  1  0  0  0
 21 23  1  0  0  0
 22 28  1  0  0  0
 22 32  2  0  0  0
 26 27  1  0  0  0
 28101  1  0  0  0
 28102  1  0  0  0
 29103  1  0  0  0
 29104  1  0  0  0
 33 34  1  0  0  0
 33 66  1  0  0  0
 33 70  2  0  0  0
 34 36  1  0  0  0
 34 59  1  0  0  0
 34105  1  0  0  0
 35 44  2  0  0  0
 35 45  1  0  0  0
 35 68  1  0  0  0
 36 56  1  0  0  0
 36106  1  0  0  0
 37 39  1  0  0  0
 37 47  1  0  0  0
 37 66  1  0  0  0
 37107  1  0  0  0
 38 43  2  0  0  0
 38 46  1  0  0  0
 38 47  1  0  0  0
 39 64  1  0  0  0
 39 67  2  0  0  0
 40 52  1  0  0  0
 40 53  2  0  0  0
 40 58  1  0  0  0
 41108  1  0  0  0
 41109  1  0  0  0
 41110  1  0  0  0
 41 48  1  0  0  0
 42 43  1  0  0  0
 42 66  1  0  0  0
 42111  1  0  0  0
 42112  1  0  0  0
 43 44  1  0  0  0
 44113  1  0  0  0
 45 46  2  0  0  0
 45114  1  0  0  0
 46115  1  0  0  0
 47116  1  0  0  0
 47117  1  0  0  0
 48 56  1  0  0  0
 48 65  1  0  0  0
 48118  1  0  0  0
 49 50  1  0  0  0
 49 53  1  0  0  0
 49 64  1  0  0  0
 49119  1  0  0  0
 50 51  1  0  0  0
 50120  1  0  0  0
 50121  1  0  0  0
 51 52  1  0  0  0
 51122  1  0  0  0
 51123  1  0  0  0
 52124  1  0  0  0
 52125  1  0  0  0
 53 54  1  0  0  0
 54 55  2  0  0  0
 54126  1  0  0  0
 55 57  1  0  0  0
 55127  1  0  0  0
 56 69  2  0  0  0
 57 58  2  0  0  0
 57128  1  0  0  0
 58129  1  0  0  0
 59 60  1  0  0  0
 59 61  1  0  0  0
 59 62  1  0  0  0
 60130  1  0  0  0
 60131  1  0  0  0
 60132  1  0  0  0
 61133  1  0  0  0
 61134  1  0  0  0
 61135  1  0  0  0
 62136  1  0  0  0
 62137  1  0  0  0
 62138  1  0  0  0
 63 65  1  0  0  0
 63139  1  0  0  0
 63140  1  0  0  0
 63141  1  0  0  0
 64142  1  0  0  0
 65143  1  0  0  0
 68 80  1  0  0  0
 71 73  2  0  0  0
 71 74  1  0  0  0
 71144  1  0  0  0
 72 75  2  0  0  0
 72 76  1  0  0  0
 72145  1  0  0  0
 73 75  1  0  0  0
 73 78  1  0  0  0
 74 76  2  0  0  0
 74 83  1  0  0  0
 75 82  1  0  0  0
 76 81  1  0  0  0
 77 79  1  0  0  0
 77 80  1  0  0  0
 77 84  2  0  0  0
 78146  1  0  0  0
 78147  1  0  0  0
 78148  1  0  0  0
 79 83  1  0  0  0
 79149  1  0  0  0
 79150  1  0  0  0
 80151  1  0  0  0
 80152  1  0  0  0
 81153  1  0  0  0
 81154  1  0  0  0
 82155  1  0  0  0
 83156  1  0  0  0
M  ISO  4   1 100  68 101  80 101  82 100
M  END
> <chiral flag>
0

> <version>
0

> <s_m_source_file>
/data/baiqing/PycharmProjects/Reinvent-master-3.2/result/LINK_invent/BTK/process_docking_weight1_custom_product_contain_oxygen_bond_distance_aromatic_linkinvent_7_9_3/rearranged_h_0106.sdf

> <i_m_source_file_index>
40

> <r_mmod_Potential_Energy-OPLS-2005>
-25.0659599304199

> <r_mmod_Stretch_Energy-OPLS-2005>
76.5393753051758

> <r_mmod_Bend_Energy-OPLS-2005>
141.500900268555

> <r_mmod_Torsional_Energy-OPLS-2005>
222.618469238281

> <r_mmod_Improper_Torsional_Energy-OPLS-2005>
8.58198356628418

> <r_mmod_Van_der_Waal_Energy-OPLS-2005>
145.923492431641

> <r_mmod_Electrostatic_Energy-OPLS-2005>
-417.39306640625

> <r_mmod_Solvation_Energy-OPLS-2005>
-247.357177734375

> <b_mmod_Minimization_Converged-OPLS-2005>
0

> <r_mmod_RMS_Derivative-OPLS-2005>
0.0582317821681499

$$$$
40
                    3D
 Structure written by MMmdl.
159167  0  0  1  0            999 V2000
  -30.5120  -14.9731   20.4041 C   0  0  0  0  0  0
  -30.4535  -12.5871   19.5193 C   0  0  0  0  0  0
  -29.5354  -12.5084   18.2757 C   0  0  0  0  0  0
  -28.0749  -12.2509   18.6962 C   0  0  0  0  0  0
  -27.6320  -13.2048   19.8326 C   0  0  2  0  0  0
  -28.6723  -13.2386   20.9752 C   0  0  0  0  0  0
  -25.2542  -13.8086   20.5704 C   0  0  0  0  0  0
  -24.1788  -13.0374   20.9213 C   0  0  0  0  0  0
  -24.6338  -11.6851   20.8740 C   0  0  0  0  0  0
  -23.8996  -10.4256   21.0416 C   0  0  0  0  0  0
  -24.3552   -9.4183   21.9187 C   0  0  0  0  0  0
  -23.6248   -8.2220   22.0758 C   0  0  0  0  0  0
  -22.4242   -8.0236   21.3541 C   0  0  0  0  0  0
  -21.9864   -9.0202   20.4635 C   0  0  0  0  0  0
  -22.7180  -10.2103   20.3054 C   0  0  0  0  0  0
  -21.6834   -6.0701   22.5287 C   0  0  0  0  0  0
  -21.3983   -6.5606   23.8217 C   0  0  0  0  0  0
  -21.3675   -5.6775   24.9186 C   0  0  0  0  0  0
  -21.6063   -4.3038   24.7244 C   0  0  0  0  0  0
  -21.8822   -3.8119   23.4364 C   0  0  0  0  0  0
  -21.9189   -4.6930   22.3408 C   0  0  0  0  0  0
  -22.7845  -13.5214   21.1914 C   0  0  0  0  0  0
  -22.1659   -4.2113   21.0993 F   0  0  0  0  0  0
  -21.5666   -3.4527   25.7757 F   0  0  0  0  0  0
  -29.9454  -13.6883   20.3920 N   0  0  0  0  0  0
  -26.2890  -12.9222   20.3209 N   0  0  0  0  0  0
  -25.9262  -11.6394   20.5719 N   0  0  0  0  0  0
  -22.0473  -12.8198   22.0469 N   0  0  0  0  0  0
  -25.4378  -15.1770   20.4203 N   0  0  0  0  0  0
  -31.7155  -15.0345   20.1169 O   0  0  0  0  0  0
  -21.6623   -6.8827   21.4236 O   0  0  0  0  0  0
  -22.3538  -14.5527   20.6780 O   0  0  0  0  0  0
  -24.6478  -31.8392   23.1908 C   0  0  0  0  0  0
  -25.9244  -32.4670   23.8296 C   0  0  1  0  0  0
  -27.2366  -27.1272   20.1604 C   0  0  0  0  0  0
  -25.5982  -33.8480   24.2199 N   0  0  0  0  0  0
  -23.4539  -30.4586   21.5302 C   0  0  2  0  0  0
  -24.9084  -28.8758   20.1160 C   0  0  0  0  0  0
  -22.7580  -29.4536   22.4822 C   0  0  0  0  0  0
  -18.0262  -28.1409   22.8416 C   0  0  0  0  0  0
  -24.1454  -36.7221   23.2654 C   0  0  0  0  0  0
  -26.0113  -30.7101   21.3945 C   0  0  0  0  0  0
  -26.0846  -29.3198   20.7341 C   0  0  0  0  0  0
  -27.2492  -28.4623   20.7386 C   0  0  0  0  0  0
  -26.0365  -26.7871   19.5002 C   0  0  0  0  0  0
  -24.8954  -27.6201   19.4884 C   0  0  0  0  0  0
  -23.6879  -29.7841   20.1513 C   0  0  0  0  0  0
  -25.4112  -36.3018   24.0308 C   0  0  1  0  0  0
  -20.5891  -28.3769   23.1153 C   0  0  2  0  0  0
  -20.6773  -26.9460   22.5376 C   0  0  0  0  0  0
  -19.5768  -26.6365   21.5172 C   0  0  0  0  0  0
  -18.1929  -26.7936   22.1553 C   0  0  0  0  0  0
  -19.1530  -28.8894   23.2762 C   0  0  0  0  0  0
  -18.9477  -30.1457   23.8833 C   0  0  0  0  0  0
  -17.6494  -30.6615   24.0534 C   0  0  0  0  0  0
  -25.9071  -34.9388   23.5058 C   0  0  0  0  0  0
  -16.5368  -29.9121   23.6344 C   0  0  0  0  0  0
  -16.7247  -28.6527   23.0368 C   0  0  0  0  0  0
  -26.4567  -31.6573   25.0767 C   0  0  0  0  0  0
  -25.3750  -31.3765   26.1458 C   0  0  0  0  0  0
  -27.0468  -30.2943   24.6458 C   0  0  0  0  0  0
  -27.6042  -32.4420   25.7570 C   0  0  0  0  0  0
  -27.5556  -37.1758   24.8487 C   0  0  0  0  0  0
  -21.4272  -29.3086   22.3540 N   0  0  0  0  0  0
  -26.4267  -37.3749   23.9426 N   0  0  0  0  0  0
  -24.7222  -31.0271   22.0912 N   0  0  0  0  0  0
  -23.4186  -28.8080   23.3005 O   0  0  0  0  0  0
  -28.2943  -26.1424   20.2374 O   0  0  0  0  0  0
  -26.5660  -34.8891   22.4640 O   0  0  0  0  0  0
  -23.5593  -32.1251   23.7123 O   0  0  0  0  0  0
  -31.6780  -19.6197   21.4741 C   0  0  0  0  0  0
  -30.0543  -17.9493   20.6226 C   0  0  0  0  0  0
  -29.2590  -19.1845   20.2569 C   0  0  0  0  0  0
  -31.3083  -18.2814   21.2164 C   0  0  0  0  0  0
  -30.8732  -20.7428   21.1949 C   0  0  0  0  0  0
  -29.6178  -20.6109   20.5412 C   0  0  0  0  0  0
  -29.5762  -16.3799   20.5588 C   0  0  0  0  0  0
  -26.6951  -19.1413   20.3359 C   0  0  0  0  0  0
  -27.9574  -19.0284   19.4704 C   0  0  0  0  0  0
  -28.0400  -24.6065   20.0603 C   0  0  0  0  0  0
  -29.0585  -23.3087   20.4405 C   0  0  0  0  0  0
  -28.3223  -16.2429   20.6484 N   0  0  0  0  0  0
  -32.2487  -17.3336   21.6215 N   0  0  0  0  0  0
  -31.3967  -21.9711   21.5978 N   0  0  0  0  0  0
  -28.7892  -21.7893   20.2009 O   0  0  0  0  0  0
  -31.4874  -12.7496   19.2160 H   0  0  0  0  0  0
  -30.4586  -11.6375   20.0577 H   0  0  0  0  0  0
  -29.8796  -11.7261   17.5969 H   0  0  0  0  0  0
  -29.5981  -13.4477   17.7259 H   0  0  0  0  0  0
  -28.0133  -11.2187   19.0439 H   0  0  0  0  0  0
  -27.4070  -12.3218   17.8377 H   0  0  0  0  0  0
  -27.5892  -14.1835   19.3597 H   0  0  0  0  0  0
  -28.7745  -12.2540   21.4348 H   0  0  0  0  0  0
  -28.3601  -13.9043   21.7790 H   0  0  0  0  0  0
  -25.2684   -9.5679   22.4783 H   0  0  0  0  0  0
  -23.9962   -7.4606   22.7474 H   0  0  0  0  0  0
  -21.0825   -8.8704   19.8905 H   0  0  0  0  0  0
  -22.3619  -10.9646   19.6179 H   0  0  0  0  0  0
  -21.1922   -7.6108   23.9696 H   0  0  0  0  0  0
  -21.1522   -6.0515   25.9098 H   0  0  0  0  0  0
  -22.0581   -2.7579   23.2893 H   0  0  0  0  0  0
  -22.4045  -11.9849   22.4877 H   0  0  0  0  0  0
  -21.1104  -13.1271   22.2679 H   0  0  0  0  0  0
  -24.7188  -15.8654   20.6065 H   0  0  0  0  0  0
  -26.3655  -15.5807   20.2964 H   0  0  0  0  0  0
  -26.7318  -32.5264   23.1028 H   0  0  0  0  0  0
  -25.0159  -33.9580   25.0369 H   0  0  0  0  0  0
  -22.7572  -31.2833   21.3698 H   0  0  0  0  0  0
  -23.3746  -35.9520   23.3315 H   0  0  0  0  0  0
  -24.3509  -36.8897   22.2070 H   0  0  0  0  0  0
  -23.7172  -37.6382   23.6724 H   0  0  0  0  0  0
  -26.1884  -31.4655   20.6270 H   0  0  0  0  0  0
  -26.8706  -30.7491   22.0530 H   0  0  0  0  0  0
  -28.1416  -28.8019   21.2452 H   0  0  0  0  0  0
  -25.9537  -25.8297   19.0076 H   0  0  0  0  0  0
  -23.9962  -27.2663   19.0031 H   0  0  0  0  0  0
  -23.8485  -30.5589   19.3999 H   0  0  0  0  0  0
  -22.8009  -29.2372   19.8248 H   0  0  0  0  0  0
  -25.1297  -36.1842   25.0798 H   0  0  0  0  0  0
  -20.9921  -28.3407   24.1296 H   0  0  0  0  0  0
  -20.5659  -26.2416   23.3634 H   0  0  0  0  0  0
  -21.6649  -26.7468   22.1205 H   0  0  0  0  0  0
  -19.6979  -25.6251   21.1284 H   0  0  0  0  0  0
  -19.6734  -27.3088   20.6643 H   0  0  0  0  0  0
  -17.4209  -26.6599   21.3947 H   0  0  0  0  0  0
  -18.0337  -26.0087   22.8970 H   0  0  0  0  0  0
  -19.7969  -30.7213   24.2255 H   0  0  0  0  0  0
  -17.5090  -31.6299   24.5143 H   0  0  0  0  0  0
  -15.5384  -30.3047   23.7743 H   0  0  0  0  0  0
  -15.8606  -28.0846   22.7206 H   0  0  0  0  0  0
  -24.5913  -30.7141   25.7775 H   0  0  0  0  0  0
  -24.8968  -32.2946   26.4854 H   0  0  0  0  0  0
  -25.8013  -30.8944   27.0265 H   0  0  0  0  0  0
  -26.3108  -29.6608   24.1493 H   0  0  0  0  0  0
  -27.4026  -29.7322   25.5110 H   0  0  0  0  0  0
  -27.9045  -30.4103   23.9833 H   0  0  0  0  0  0
  -27.2544  -33.3734   26.2032 H   0  0  0  0  0  0
  -28.3887  -32.7004   25.0448 H   0  0  0  0  0  0
  -28.0683  -31.8681   26.5598 H   0  0  0  0  0  0
  -28.2594  -38.0037   24.7533 H   0  0  0  0  0  0
  -28.1028  -36.2568   24.6333 H   0  0  0  0  0  0
  -27.2258  -37.1438   25.8886 H   0  0  0  0  0  0
  -20.9548  -29.8830   21.6696 H   0  0  0  0  0  0
  -26.0129  -38.2797   24.1507 H   0  0  0  0  0  0
  -32.6384  -19.7944   21.9439 H   0  0  0  0  0  0
  -25.7989  -18.9834   19.7348 H   0  0  0  0  0  0
  -26.6185  -20.1337   20.7809 H   0  0  0  0  0  0
  -26.6755  -18.4115   21.1439 H   0  0  0  0  0  0
  -27.9530  -18.1018   18.8996 H   0  0  0  0  0  0
  -27.9263  -19.8072   18.7072 H   0  0  0  0  0  0
  -27.1117  -24.4030   20.5928 H   0  0  0  0  0  0
  -27.7954  -24.4762   19.0064 H   0  0  0  0  0  0
  -29.2282  -23.4044   21.5115 H   0  0  0  0  0  0
  -30.0082  -23.5251   19.9527 H   0  0  0  0  0  0
  -27.8901  -17.1549   20.7328 H   0  0  0  0  0  0
  -33.2090  -17.6625   21.6631 H   0  0  0  0  0  0
  -32.2134  -16.4238   21.1581 H   0  0  0  0  0  0
  -32.1572  -21.9623   22.2710 H   0  0  0  0  0  0
  -30.7524  -22.7367   21.7464 H   0  0  0  0  0  0
  1 25  1  0  0  0
  1 30  2  0  0  0
  1 77  1  0  0  0
  2  3  1  0  0  0
  2 25  1  0  0  0
  2 86  1  0  0  0
  2 87  1  0  0  0
  3  4  1  0  0  0
  3 88  1  0  0  0
  3 89  1  0  0  0
  4  5  1  0  0  0
  4 90  1  0  0  0
  4 91  1  0  0  0
  5  6  1  0  0  0
  5 26  1  0  0  0
  5 92  1  0  0  0
  6 25  1  0  0  0
  6 93  1  0  0  0
  6 94  1  0  0  0
  7  8  2  0  0  0
  7 26  1  0  0  0
  7 29  1  0  0  0
  8  9  1  0  0  0
  8 22  1  0  0  0
  9 10  1  0  0  0
  9 27  2  0  0  0
 10 11  2  0  0  0
 10 15  1  0  0  0
 11 12  1  0  0  0
 11 95  1  0  0  0
 12 13  2  0  0  0
 12 96  1  0  0  0
 13 14  1  0  0  0
 13 31  1  0  0  0
 14 15  2  0  0  0
 14 97  1  0  0  0
 15 98  1  0  0  0
 16 17  2  0  0  0
 16 21  1  0  0  0
 16 31  1  0  0  0
 17 18  1  0  0  0
 17 99  1  0  0  0
 18 19  2  0  0  0
 18100  1  0  0  0
 19 20  1  0  0  0
 19 24  1  0  0  0
 20 21  2  0  0  0
 20101  1  0  0  0
 21 23  1  0  0  0
 22 28  1  0  0  0
 22 32  2  0  0  0
 26 27  1  0  0  0
 28102  1  0  0  0
 28103  1  0  0  0
 29104  1  0  0  0
 29105  1  0  0  0
 33 34  1  0  0  0
 33 66  1  0  0  0
 33 70  2  0  0  0
 34 36  1  0  0  0
 34 59  1  0  0  0
 34106  1  0  0  0
 35 44  2  0  0  0
 35 45  1  0  0  0
 35 68  1  0  0  0
 36 56  1  0  0  0
 36107  1  0  0  0
 37 39  1  0  0  0
 37 47  1  0  0  0
 37 66  1  0  0  0
 37108  1  0  0  0
 38 43  2  0  0  0
 38 46  1  0  0  0
 38 47  1  0  0  0
 39 64  1  0  0  0
 39 67  2  0  0  0
 40 52  1  0  0  0
 40 53  2  0  0  0
 40 58  1  0  0  0
 41109  1  0  0  0
 41110  1  0  0  0
 41111  1  0  0  0
 41 48  1  0  0  0
 42 43  1  0  0  0
 42 66  1  0  0  0
 42112  1  0  0  0
 42113  1  0  0  0
 43 44  1  0  0  0
 44114  1  0  0  0
 45 46  2  0  0  0
 45115  1  0  0  0
 46116  1  0  0  0
 47117  1  0  0  0
 47118  1  0  0  0
 48 56  1  0  0  0
 48 65  1  0  0  0
 48119  1  0  0  0
 49 50  1  0  0  0
 49 53  1  0  0  0
 49 64  1  0  0  0
 49120  1  0  0  0
 50 51  1  0  0  0
 50121  1  0  0  0
 50122  1  0  0  0
 51 52  1  0  0  0
 51123  1  0  0  0
 51124  1  0  0  0
 52125  1  0  0  0
 52126  1  0  0  0
 53 54  1  0  0  0
 54 55  2  0  0  0
 54127  1  0  0  0
 55 57  1  0  0  0
 55128  1  0  0  0
 56 69  2  0  0  0
 57 58  2  0  0  0
 57129  1  0  0  0
 58130  1  0  0  0
 59 60  1  0  0  0
 59 61  1  0  0  0
 59 62  1  0  0  0
 60131  1  0  0  0
 60132  1  0  0  0
 60133  1  0  0  0
 61134  1  0  0  0
 61135  1  0  0  0
 61136  1  0  0  0
 62137  1  0  0  0
 62138  1  0  0  0
 62139  1  0  0  0
 63 65  1  0  0  0
 63140  1  0  0  0
 63141  1  0  0  0
 63142  1  0  0  0
 64143  1  0  0  0
 65144  1  0  0  0
 68 80  1  0  0  0
 71 74  2  0  0  0
 71 75  1  0  0  0
 71145  1  0  0  0
 72 73  2  0  0  0
 72 74  1  0  0  0
 72 77  1  0  0  0
 73 76  1  0  0  0
 73 79  1  0  0  0
 74 83  1  0  0  0
 75 76  2  0  0  0
 75 84  1  0  0  0
 76 85  1  0  0  0
 77 82  2  0  0  0
 78 79  1  0  0  0
 78146  1  0  0  0
 78147  1  0  0  0
 78148  1  0  0  0
 79149  1  0  0  0
 79150  1  0  0  0
 80 81  1  0  0  0
 80151  1  0  0  0
 80152  1  0  0  0
 81 85  1  0  0  0
 81153  1  0  0  0
 81154  1  0  0  0
 82155  1  0  0  0
 83156  1  0  0  0
 83157  1  0  0  0
 84158  1  0  0  0
 84159  1  0  0  0
M  ISO  4   1 100  68 101  77 100  80 101
M  END
> <chiral flag>
0

> <version>
0

> <s_m_source_file>
/data/baiqing/PycharmProjects/Reinvent-master-3.2/result/LINK_invent/BTK/process_docking_weight1_custom_product_contain_oxygen_bond_distance_aromatic_linkinvent_7_9_3/rearranged_h_0106.sdf

> <i_m_source_file_index>
41

> <r_mmod_Potential_Energy-OPLS-2005>
768.159301757812

> <r_mmod_Stretch_Energy-OPLS-2005>
324.027557373047

> <r_mmod_Bend_Energy-OPLS-2005>
289.892700195312

> <r_mmod_Torsional_Energy-OPLS-2005>
199.442840576172

> <r_mmod_Improper_Torsional_Energy-OPLS-2005>
13.1441278457642

> <r_mmod_Van_der_Waal_Energy-OPLS-2005>
160.6865234375

> <r_mmod_Electrostatic_Energy-OPLS-2005>
-223.077346801758

> <r_mmod_Solvation_Energy-OPLS-2005>
-200.777877807617

> <b_mmod_Minimization_Converged-OPLS-2005>
0

> <r_mmod_RMS_Derivative-OPLS-2005>
4.0719141960144

$$$$
41
                    3D
 Structure written by MMmdl.
160168  0  0  1  0            999 V2000
  -30.7068  -14.6586   20.4964 C   0  0  0  0  0  0
  -30.4107  -12.4129   19.4659 C   0  0  0  0  0  0
  -29.4960  -12.4971   18.2283 C   0  0  0  0  0  0
  -28.0248  -12.3344   18.6483 C   0  0  0  0  0  0
  -27.6402  -13.2363   19.8514 C   0  0  2  0  0  0
  -28.6884  -13.1781   20.9859 C   0  0  0  0  0  0
  -25.2498  -13.8206   20.5714 C   0  0  0  0  0  0
  -24.1794  -13.0440   20.9218 C   0  0  0  0  0  0
  -24.6398  -11.6925   20.8761 C   0  0  0  0  0  0
  -23.9076  -10.4293   21.0413 C   0  0  0  0  0  0
  -24.3630   -9.4208   21.9185 C   0  0  0  0  0  0
  -23.6306   -8.2241   22.0749 C   0  0  0  0  0  0
  -22.4282   -8.0285   21.3543 C   0  0  0  0  0  0
  -21.9925   -9.0258   20.4643 C   0  0  0  0  0  0
  -22.7250  -10.2137   20.3058 C   0  0  0  0  0  0
  -21.6853   -6.0741   22.5276 C   0  0  0  0  0  0
  -21.4009   -6.5643   23.8213 C   0  0  0  0  0  0
  -21.3661   -5.6796   24.9176 C   0  0  0  0  0  0
  -21.6050   -4.3058   24.7223 C   0  0  0  0  0  0
  -21.8815   -3.8152   23.4344 C   0  0  0  0  0  0
  -21.9193   -4.6968   22.3400 C   0  0  0  0  0  0
  -22.7815  -13.5225   21.1869 C   0  0  0  0  0  0
  -22.1662   -4.2152   21.0978 F   0  0  0  0  0  0
  -21.5633   -3.4543   25.7737 F   0  0  0  0  0  0
  -29.9939  -13.4887   20.3943 N   0  0  0  0  0  0
  -26.2939  -12.9432   20.3325 N   0  0  0  0  0  0
  -25.9338  -11.6568   20.5795 N   0  0  0  0  0  0
  -22.0466  -12.8208   22.0426 N   0  0  0  0  0  0
  -25.4169  -15.1924   20.4112 N   0  0  0  0  0  0
  -31.8975  -14.6437   20.1741 O   0  0  0  0  0  0
  -21.6645   -6.8882   21.4240 O   0  0  0  0  0  0
  -22.3498  -14.5541   20.6732 O   0  0  0  0  0  0
  -24.6287  -31.8596   23.2068 C   0  0  0  0  0  0
  -25.9136  -32.4774   23.8378 C   0  0  1  0  0  0
  -27.2001  -27.2958   20.1092 C   0  0  0  0  0  0
  -25.5963  -33.8584   24.2298 N   0  0  0  0  0  0
  -23.4214  -30.4902   21.5494 C   0  0  2  0  0  0
  -24.8624  -28.9567   20.1078 C   0  0  0  0  0  0
  -22.7479  -29.4642   22.4934 C   0  0  0  0  0  0
  -18.0286  -28.1394   22.8474 C   0  0  0  0  0  0
  -24.1492  -36.7293   23.2633 C   0  0  0  0  0  0
  -25.9678  -30.7816   21.3851 C   0  0  0  0  0  0
  -26.0366  -29.4123   20.7202 C   0  0  0  0  0  0
  -27.2098  -28.5933   20.7166 C   0  0  0  0  0  0
  -26.0022  -26.9234   19.4473 C   0  0  0  0  0  0
  -24.8488  -27.7182   19.4617 C   0  0  0  0  0  0
  -23.6358  -29.8394   20.1612 C   0  0  0  0  0  0
  -25.4118  -36.3085   24.0325 C   0  0  1  0  0  0
  -20.5887  -28.3702   23.1270 C   0  0  2  0  0  0
  -20.6775  -26.9422   22.5406 C   0  0  0  0  0  0
  -19.5763  -26.6388   21.5207 C   0  0  0  0  0  0
  -18.1940  -26.7939   22.1608 C   0  0  0  0  0  0
  -19.1537  -28.8863   23.2867 C   0  0  0  0  0  0
  -18.9460  -30.1460   23.8895 C   0  0  0  0  0  0
  -17.6462  -30.6595   24.0564 C   0  0  0  0  0  0
  -25.9051  -34.9453   23.5098 C   0  0  0  0  0  0
  -16.5350  -29.9092   23.6339 C   0  0  0  0  0  0
  -16.7272  -28.6509   23.0352 C   0  0  0  0  0  0
  -26.4512  -31.6591   25.0756 C   0  0  0  0  0  0
  -25.3749  -31.3743   26.1488 C   0  0  0  0  0  0
  -27.0345  -30.3001   24.6237 C   0  0  0  0  0  0
  -27.6084  -32.4321   25.7509 C   0  0  0  0  0  0
  -27.5584  -37.1803   24.8463 C   0  0  0  0  0  0
  -21.4193  -29.3065   22.3670 N   0  0  0  0  0  0
  -26.4288  -37.3782   23.9412 N   0  0  0  0  0  0
  -24.6916  -31.0607   22.1027 N   0  0  0  0  0  0
  -23.4194  -28.8152   23.2994 O   0  0  0  0  0  0
  -28.2723  -26.3776   20.1831 O   0  0  0  0  0  0
  -26.5608  -34.8911   22.4655 O   0  0  0  0  0  0
  -23.5453  -32.1404   23.7388 O   0  0  0  0  0  0
  -29.9688  -20.8188   19.7921 C   0  0  0  0  0  0
  -28.3250  -20.2469   21.4273 C   0  0  0  0  0  0
  -29.9055  -18.4642   20.6920 C   0  0  0  0  0  0
  -30.4581  -19.4762   19.8230 C   0  0  0  0  0  0
  -28.8951  -21.2513   20.5997 C   0  0  0  0  0  0
  -28.8027  -18.8906   21.5079 C   0  0  0  0  0  0
  -28.8106  -23.7143   20.2667 C   0  0  0  0  0  0
  -30.6427  -17.0984   20.8405 C   0  0  0  0  0  0
  -27.1272  -18.4214   23.3117 C   0  0  0  0  0  0
  -31.6163  -19.1750   18.8681 C   0  0  0  0  0  0
  -27.9016  -24.9552   19.9235 C   0  0  0  0  0  0
  -28.2784  -22.5484   20.5179 N   0  0  0  0  0  0
  -28.1976  -17.9947   22.4164 N   0  0  0  0  0  0
  -30.0458  -15.8559   20.7199 N   0  0  0  0  0  0
  -32.9143  -19.4023   19.5174 N   0  3  0  0  0  0
  -31.8577  -17.2156   21.0536 O   0  0  0  0  0  0
  -31.4554  -12.4901   19.1622 H   0  0  0  0  0  0
  -30.3189  -11.4383   19.9471 H   0  0  0  0  0  0
  -29.7639  -11.7261   17.5051 H   0  0  0  0  0  0
  -29.6338  -13.4539   17.7227 H   0  0  0  0  0  0
  -27.8753  -11.2862   18.9117 H   0  0  0  0  0  0
  -27.3645  -12.5308   17.8023 H   0  0  0  0  0  0
  -27.6336  -14.2561   19.4665 H   0  0  0  0  0  0
  -28.7081  -12.1921   21.4524 H   0  0  0  0  0  0
  -28.4415  -13.8870   21.7777 H   0  0  0  0  0  0
  -25.2768   -9.5687   22.4773 H   0  0  0  0  0  0
  -24.0004   -7.4629   22.7470 H   0  0  0  0  0  0
  -21.0852   -8.8786   19.8952 H   0  0  0  0  0  0
  -22.3706  -10.9685   19.6181 H   0  0  0  0  0  0
  -21.1995   -7.6150   23.9716 H   0  0  0  0  0  0
  -21.1486   -6.0527   25.9079 H   0  0  0  0  0  0
  -22.0595   -2.7612   23.2839 H   0  0  0  0  0  0
  -22.4089  -11.9871   22.4809 H   0  0  0  0  0  0
  -21.1087  -13.1224   22.2635 H   0  0  0  0  0  0
  -24.6526  -15.8474   20.5340 H   0  0  0  0  0  0
  -26.2713  -15.6392   20.1061 H   0  0  0  0  0  0
  -26.7206  -32.5434   23.1125 H   0  0  0  0  0  0
  -25.0141  -33.9726   25.0469 H   0  0  0  0  0  0
  -22.7169  -31.3134   21.4123 H   0  0  0  0  0  0
  -23.3762  -35.9620   23.3287 H   0  0  0  0  0  0
  -24.3582  -36.8920   22.2048 H   0  0  0  0  0  0
  -23.7242  -37.6492   23.6659 H   0  0  0  0  0  0
  -26.1081  -31.5464   20.6208 H   0  0  0  0  0  0
  -26.8452  -30.8226   22.0184 H   0  0  0  0  0  0
  -28.1043  -28.9320   21.2203 H   0  0  0  0  0  0
  -25.8963  -25.9904   18.9164 H   0  0  0  0  0  0
  -23.9523  -27.3681   18.9696 H   0  0  0  0  0  0
  -23.7613  -30.6238   19.4146 H   0  0  0  0  0  0
  -22.7546  -29.2765   19.8488 H   0  0  0  0  0  0
  -25.1302  -36.1925   25.0820 H   0  0  0  0  0  0
  -20.9947  -28.3256   24.1401 H   0  0  0  0  0  0
  -20.5672  -26.2312   23.3609 H   0  0  0  0  0  0
  -21.6638  -26.7450   22.1195 H   0  0  0  0  0  0
  -19.6920  -25.6291   21.1247 H   0  0  0  0  0  0
  -19.6709  -27.3188   20.6731 H   0  0  0  0  0  0
  -17.4208  -26.6684   21.4015 H   0  0  0  0  0  0
  -18.0353  -26.0075   22.9000 H   0  0  0  0  0  0
  -19.7934  -30.7276   24.2261 H   0  0  0  0  0  0
  -17.5026  -31.6279   24.5164 H   0  0  0  0  0  0
  -15.5355  -30.3002   23.7686 H   0  0  0  0  0  0
  -15.8664  -28.0835   22.7076 H   0  0  0  0  0  0
  -24.5944  -30.7056   25.7843 H   0  0  0  0  0  0
  -24.8920  -32.2910   26.4897 H   0  0  0  0  0  0
  -25.8096  -30.8961   27.0274 H   0  0  0  0  0  0
  -26.2915  -29.6762   24.1257 H   0  0  0  0  0  0
  -27.3999  -29.7275   25.4770 H   0  0  0  0  0  0
  -27.8818  -30.4257   23.9493 H   0  0  0  0  0  0
  -27.2699  -33.3634   26.2067 H   0  0  0  0  0  0
  -28.3904  -32.6848   25.0338 H   0  0  0  0  0  0
  -28.0735  -31.8451   26.5437 H   0  0  0  0  0  0
  -28.2592  -38.0108   24.7522 H   0  0  0  0  0  0
  -28.1081  -36.2643   24.6262 H   0  0  0  0  0  0
  -27.2307  -37.1415   25.8864 H   0  0  0  0  0  0
  -20.9370  -29.8810   21.6899 H   0  0  0  0  0  0
  -26.0162  -38.2849   24.1440 H   0  0  0  0  0  0
  -30.4132  -21.5251   19.1044 H   0  0  0  0  0  0
  -27.4837  -20.5572   22.0283 H   0  0  0  0  0  0
  -29.8896  -23.8816   20.2144 H   0  0  0  0  0  0
  -26.7962  -17.5815   23.9240 H   0  0  0  0  0  0
  -26.2611  -18.7830   22.7559 H   0  0  0  0  0  0
  -27.4641  -19.2109   23.9856 H   0  0  0  0  0  0
  -31.5414  -19.8195   17.9906 H   0  0  0  0  0  0
  -31.5613  -18.1570   18.4795 H   0  0  0  0  0  0
  -26.9593  -24.7519   20.4353 H   0  0  0  0  0  0
  -27.7081  -24.8683   18.8536 H   0  0  0  0  0  0
  -28.6558  -17.1206   22.6603 H   0  0  0  0  0  0
  -29.0396  -15.8338   20.7137 H   0  0  0  0  0  0
  -32.9849  -20.3465   19.8499 H   0  0  0  0  0  0
  -33.6594  -19.2316   18.8660 H   0  0  0  0  0  0
  -33.0083  -18.7649   20.2921 H   0  0  0  0  0  0
  1 25  1  0  0  0
  1 30  2  0  0  0
  1 84  1  0  0  0
  2  3  1  0  0  0
  2 25  1  0  0  0
  2 87  1  0  0  0
  2 88  1  0  0  0
  3  4  1  0  0  0
  3 89  1  0  0  0
  3 90  1  0  0  0
  4  5  1  0  0  0
  4 91  1  0  0  0
  4 92  1  0  0  0
  5  6  1  0  0  0
  5 26  1  0  0  0
  5 93  1  0  0  0
  6 25  1  0  0  0
  6 94  1  0  0  0
  6 95  1  0  0  0
  7  8  2  0  0  0
  7 26  1  0  0  0
  7 29  1  0  0  0
  8  9  1  0  0  0
  8 22  1  0  0  0
  9 10  1  0  0  0
  9 27  2  0  0  0
 10 11  2  0  0  0
 10 15  1  0  0  0
 11 12  1  0  0  0
 11 96  1  0  0  0
 12 13  2  0  0  0
 12 97  1  0  0  0
 13 14  1  0  0  0
 13 31  1  0  0  0
 14 15  2  0  0  0
 14 98  1  0  0  0
 15 99  1  0  0  0
 16 17  2  0  0  0
 16 21  1  0  0  0
 16 31  1  0  0  0
 17 18  1  0  0  0
 17100  1  0  0  0
 18 19  2  0  0  0
 18101  1  0  0  0
 19 20  1  0  0  0
 19 24  1  0  0  0
 20 21  2  0  0  0
 20102  1  0  0  0
 21 23  1  0  0  0
 22 28  1  0  0  0
 22 32  2  0  0  0
 26 27  1  0  0  0
 28103  1  0  0  0
 28104  1  0  0  0
 29105  1  0  0  0
 29106  1  0  0  0
 33 34  1  0  0  0
 33 66  1  0  0  0
 33 70  2  0  0  0
 34 36  1  0  0  0
 34 59  1  0  0  0
 34107  1  0  0  0
 35 44  2  0  0  0
 35 45  1  0  0  0
 35 68  1  0  0  0
 36 56  1  0  0  0
 36108  1  0  0  0
 37 39  1  0  0  0
 37 47  1  0  0  0
 37 66  1  0  0  0
 37109  1  0  0  0
 38 43  2  0  0  0
 38 46  1  0  0  0
 38 47  1  0  0  0
 39 64  1  0  0  0
 39 67  2  0  0  0
 40 52  1  0  0  0
 40 53  2  0  0  0
 40 58  1  0  0  0
 41110  1  0  0  0
 41111  1  0  0  0
 41112  1  0  0  0
 41 48  1  0  0  0
 42 43  1  0  0  0
 42 66  1  0  0  0
 42113  1  0  0  0
 42114  1  0  0  0
 43 44  1  0  0  0
 44115  1  0  0  0
 45 46  2  0  0  0
 45116  1  0  0  0
 46117  1  0  0  0
 47118  1  0  0  0
 47119  1  0  0  0
 48 56  1  0  0  0
 48 65  1  0  0  0
 48120  1  0  0  0
 49 50  1  0  0  0
 49 53  1  0  0  0
 49 64  1  0  0  0
 49121  1  0  0  0
 50 51  1  0  0  0
 50122  1  0  0  0
 50123  1  0  0  0
 51 52  1  0  0  0
 51124  1  0  0  0
 51125  1  0  0  0
 52126  1  0  0  0
 52127  1  0  0  0
 53 54  1  0  0  0
 54 55  2  0  0  0
 54128  1  0  0  0
 55 57  1  0  0  0
 55129  1  0  0  0
 56 69  2  0  0  0
 57 58  2  0  0  0
 57130  1  0  0  0
 58131  1  0  0  0
 59 60  1  0  0  0
 59 61  1  0  0  0
 59 62  1  0  0  0
 60132  1  0  0  0
 60133  1  0  0  0
 60134  1  0  0  0
 61135  1  0  0  0
 61136  1  0  0  0
 61137  1  0  0  0
 62138  1  0  0  0
 62139  1  0  0  0
 62140  1  0  0  0
 63 65  1  0  0  0
 63141  1  0  0  0
 63142  1  0  0  0
 63143  1  0  0  0
 64144  1  0  0  0
 65145  1  0  0  0
 68 81  1  0  0  0
 71 74  2  0  0  0
 71 75  1  0  0  0
 71146  1  0  0  0
 72 75  2  0  0  0
 72 76  1  0  0  0
 72147  1  0  0  0
 73 74  1  0  0  0
 73 76  2  0  0  0
 73 78  1  0  0  0
 74 80  1  0  0  0
 75 82  1  0  0  0
 76 83  1  0  0  0
 77 81  1  0  0  0
 77 82  2  0  0  0
 77148  1  0  0  0
 78 84  1  0  0  0
 78 86  2  0  0  0
 79 83  1  0  0  0
 79149  1  0  0  0
 79150  1  0  0  0
 79151  1  0  0  0
 80 85  1  0  0  0
 80152  1  0  0  0
 80153  1  0  0  0
 81154  1  0  0  0
 81155  1  0  0  0
 83156  1  0  0  0
 84157  1  0  0  0
 85158  1  0  0  0
 85159  1  0  0  0
 85160  1  0  0  0
M  CHG  1  85   1
M  ISO  4   1 100  68 101  81 101  84 100
M  END
> <chiral flag>
0

> <version>
0

> <s_m_source_file>
/data/baiqing/PycharmProjects/Reinvent-master-3.2/result/LINK_invent/BTK/process_docking_weight1_custom_product_contain_oxygen_bond_distance_aromatic_linkinvent_7_9_3/rearranged_h_0106.sdf

> <i_m_source_file_index>
42

> <r_mmod_Potential_Energy-OPLS-2005>
-122.366363525391

> <r_mmod_Stretch_Energy-OPLS-2005>
96.1538467407227

> <r_mmod_Bend_Energy-OPLS-2005>
186.355651855469

> <r_mmod_Torsional_Energy-OPLS-2005>
221.375122070312

> <r_mmod_Improper_Torsional_Energy-OPLS-2005>
8.0220832824707

> <r_mmod_Van_der_Waal_Energy-OPLS-2005>
177.554794311523

> <r_mmod_Electrostatic_Energy-OPLS-2005>
-388.342041015625

> <r_mmod_Solvation_Energy-OPLS-2005>
-492.443359375

> <b_mmod_Minimization_Converged-OPLS-2005>
0

> <r_mmod_RMS_Derivative-OPLS-2005>
1.78919470310211

$$$$
42
                    3D
 Structure written by MMmdl.
165174  0  0  1  0            999 V2000
  -30.5804  -14.7613   20.3505 C   0  0  0  0  0  0
  -30.4381  -12.4464   19.4415 C   0  0  0  0  0  0
  -29.4986  -12.4845   18.2182 C   0  0  0  0  0  0
  -28.0264  -12.3096   18.6444 C   0  0  0  0  0  0
  -27.6348  -13.2167   19.8436 C   0  0  2  0  0  0
  -28.6997  -13.1691   20.9596 C   0  0  0  0  0  0
  -25.2479  -13.8207   20.5777 C   0  0  0  0  0  0
  -24.1742  -13.0443   20.9225 C   0  0  0  0  0  0
  -24.6321  -11.6939   20.8757 C   0  0  0  0  0  0
  -23.8982  -10.4289   21.0373 C   0  0  0  0  0  0
  -24.3545   -9.4192   21.9138 C   0  0  0  0  0  0
  -23.6269   -8.2206   22.0716 C   0  0  0  0  0  0
  -22.4243   -8.0239   21.3517 C   0  0  0  0  0  0
  -21.9840   -9.0200   20.4635 C   0  0  0  0  0  0
  -22.7135  -10.2109   20.3056 C   0  0  0  0  0  0
  -21.6840   -6.0709   22.5276 C   0  0  0  0  0  0
  -21.4013   -6.5617   23.8204 C   0  0  0  0  0  0
  -21.3683   -5.6785   24.9180 C   0  0  0  0  0  0
  -21.6018   -4.3029   24.7229 C   0  0  0  0  0  0
  -21.8821   -3.8126   23.4336 C   0  0  0  0  0  0
  -21.9184   -4.6940   22.3395 C   0  0  0  0  0  0
  -22.7754  -13.5225   21.1815 C   0  0  0  0  0  0
  -22.1646   -4.2136   21.0974 F   0  0  0  0  0  0
  -21.5605   -3.4505   25.7711 F   0  0  0  0  0  0
  -29.9903  -13.5195   20.3492 N   0  0  0  0  0  0
  -26.2897  -12.9383   20.3314 N   0  0  0  0  0  0
  -25.9233  -11.6538   20.5759 N   0  0  0  0  0  0
  -22.0332  -12.8285   22.0363 N   0  0  0  0  0  0
  -25.4043  -15.1973   20.4274 N   0  0  0  0  0  0
  -31.8007  -14.8812   20.2165 O   0  0  0  0  0  0
  -21.6619   -6.8838   21.4228 O   0  0  0  0  0  0
  -22.3426  -14.5472   20.6568 O   0  0  0  0  0  0
  -24.6331  -31.8506   23.1934 C   0  0  0  0  0  0
  -25.9162  -32.4716   23.8313 C   0  0  1  0  0  0
  -27.2232  -27.2462   20.1128 C   0  0  0  0  0  0
  -25.5951  -33.8522   24.2258 N   0  0  0  0  0  0
  -23.4315  -30.4739   21.5354 C   0  0  2  0  0  0
  -24.8781  -28.9087   20.1125 C   0  0  0  0  0  0
  -22.7479  -29.4608   22.4842 C   0  0  0  0  0  0
  -18.0244  -28.1406   22.8423 C   0  0  0  0  0  0
  -24.1507  -36.7261   23.2638 C   0  0  0  0  0  0
  -25.9766  -30.7499   21.3832 C   0  0  0  0  0  0
  -26.0486  -29.3714   20.7222 C   0  0  0  0  0  0
  -27.2240  -28.5529   20.7141 C   0  0  0  0  0  0
  -26.0282  -26.8513   19.4724 C   0  0  0  0  0  0
  -24.8702  -27.6542   19.4810 C   0  0  0  0  0  0
  -23.6506  -29.7994   20.1566 C   0  0  0  0  0  0
  -25.4127  -36.3053   24.0335 C   0  0  1  0  0  0
  -20.5852  -28.3782   23.1187 C   0  0  2  0  0  0
  -20.6749  -26.9456   22.5445 C   0  0  0  0  0  0
  -19.5739  -26.6313   21.5261 C   0  0  0  0  0  0
  -18.1905  -26.7921   22.1631 C   0  0  0  0  0  0
  -19.1497  -28.8927   23.2756 C   0  0  0  0  0  0
  -18.9373  -30.1527   23.8805 C   0  0  0  0  0  0
  -17.6331  -30.6608   24.0472 C   0  0  0  0  0  0
  -25.9058  -34.9421   23.5089 C   0  0  0  0  0  0
  -16.5227  -29.9100   23.6213 C   0  0  0  0  0  0
  -16.7212  -28.6498   23.0264 C   0  0  0  0  0  0
  -26.4532  -31.6580   25.0731 C   0  0  0  0  0  0
  -25.3744  -31.3749   26.1446 C   0  0  0  0  0  0
  -27.0410  -30.2997   24.6248 C   0  0  0  0  0  0
  -27.6073  -32.4332   25.7505 C   0  0  0  0  0  0
  -27.5565  -37.1790   24.8455 C   0  0  0  0  0  0
  -21.4172  -29.3091   22.3539 N   0  0  0  0  0  0
  -26.4283  -37.3755   23.9413 N   0  0  0  0  0  0
  -24.6995  -31.0479   22.0923 N   0  0  0  0  0  0
  -23.4133  -28.8162   23.2992 O   0  0  0  0  0  0
  -28.3226  -26.3534   20.1038 O   0  0  0  0  0  0
  -26.5610  -34.8890   22.4648 O   0  0  0  0  0  0
  -23.5467  -32.1300   23.7217 O   0  0  0  0  0  0
  -28.7407  -19.6781   21.6895 C   0  0  0  0  0  0
  -29.0395  -17.2516   21.8464 C   0  0  0  0  0  0
  -29.7062  -18.4734   19.8363 C   0  0  0  0  0  0
  -28.6147  -18.4689   22.3928 C   0  0  0  0  0  0
  -29.2749  -19.7734   20.3857 C   0  0  0  0  0  0
  -29.6021  -17.2005   20.5617 C   0  0  0  0  0  0
  -28.8308  -22.3698   20.3439 C   0  0  0  0  0  0
  -28.7296  -23.6352   19.7860 C   0  0  0  0  0  0
  -29.2095  -23.7514   18.3955 C   0  0  0  0  0  0
  -29.9539  -22.5546   17.7672 C   0  0  0  0  0  0
  -29.6282  -21.1413   18.3430 C   0  0  0  0  0  0
  -27.9261  -18.4894   23.7327 C   0  0  0  0  0  0
  -28.0931  -24.9173   20.5182 C   0  0  0  0  0  0
  -26.4027  -18.3663   23.5764 C   0  0  0  0  0  0
  -29.2963  -21.1137   19.7748 N   0  0  0  0  0  0
  -29.7348  -15.8200   20.0487 N   0  0  0  0  0  0
  -25.7313  -18.6178   24.8522 N   0  3  0  0  0  0
  -29.0839  -24.7766   17.7213 O   0  0  0  0  0  0
  -31.4702  -12.5956   19.1156 H   0  0  0  0  0  0
  -30.4054  -11.4761   19.9414 H   0  0  0  0  0  0
  -29.7862  -11.7071   17.5082 H   0  0  0  0  0  0
  -29.6109  -13.4374   17.6990 H   0  0  0  0  0  0
  -27.8920  -11.2602   18.9120 H   0  0  0  0  0  0
  -27.3658  -12.4883   17.7932 H   0  0  0  0  0  0
  -27.6111  -14.2285   19.4486 H   0  0  0  0  0  0
  -28.7433  -12.1806   21.4225 H   0  0  0  0  0  0
  -28.4398  -13.8750   21.7498 H   0  0  0  0  0  0
  -25.2635   -9.5674   22.4754 H   0  0  0  0  0  0
  -23.9942   -7.4633   22.7479 H   0  0  0  0  0  0
  -21.0725   -8.8707   19.9019 H   0  0  0  0  0  0
  -22.3488  -10.9640   19.6229 H   0  0  0  0  0  0
  -21.2017   -7.6134   23.9706 H   0  0  0  0  0  0
  -21.1515   -6.0506   25.9097 H   0  0  0  0  0  0
  -22.0589   -2.7591   23.2843 H   0  0  0  0  0  0
  -22.3875  -11.9959   22.4861 H   0  0  0  0  0  0
  -21.0995  -13.1457   22.2570 H   0  0  0  0  0  0
  -24.6267  -15.8317   20.5739 H   0  0  0  0  0  0
  -26.2347  -15.6652   20.0832 H   0  0  0  0  0  0
  -26.7234  -32.5363   23.1051 H   0  0  0  0  0  0
  -25.0187  -33.9684   25.0464 H   0  0  0  0  0  0
  -22.7287  -31.2969   21.3823 H   0  0  0  0  0  0
  -23.3748  -35.9596   23.3273 H   0  0  0  0  0  0
  -24.3546  -36.8880   22.2033 H   0  0  0  0  0  0
  -23.7257  -37.6465   23.6662 H   0  0  0  0  0  0
  -26.1253  -31.5035   20.6125 H   0  0  0  0  0  0
  -26.8514  -30.7942   22.0199 H   0  0  0  0  0  0
  -28.1247  -28.8970   21.2022 H   0  0  0  0  0  0
  -25.9773  -25.8939   18.9708 H   0  0  0  0  0  0
  -23.9722  -27.2873   19.0026 H   0  0  0  0  0  0
  -23.7874  -30.5686   19.3944 H   0  0  0  0  0  0
  -22.7674  -29.2355   19.8497 H   0  0  0  0  0  0
  -25.1317  -36.1867   25.0818 H   0  0  0  0  0  0
  -20.9912  -28.3449   24.1318 H   0  0  0  0  0  0
  -20.5628  -26.2460   23.3725 H   0  0  0  0  0  0
  -21.6609  -26.7433   22.1250 H   0  0  0  0  0  0
  -19.6914  -25.6177   21.1441 H   0  0  0  0  0  0
  -19.6658  -27.2981   20.6685 H   0  0  0  0  0  0
  -17.4214  -26.6510   21.4028 H   0  0  0  0  0  0
  -18.0363  -26.0150   22.9113 H   0  0  0  0  0  0
  -19.7796  -30.7381   24.2241 H   0  0  0  0  0  0
  -17.4807  -31.6291   24.5053 H   0  0  0  0  0  0
  -15.5201  -30.2939   23.7530 H   0  0  0  0  0  0
  -15.8660  -28.0730   22.7043 H   0  0  0  0  0  0
  -24.5928  -30.7106   25.7755 H   0  0  0  0  0  0
  -24.8968  -32.2961   26.4833 H   0  0  0  0  0  0
  -25.8068  -30.8936   27.0237 H   0  0  0  0  0  0
  -26.3048  -29.6700   24.1252 H   0  0  0  0  0  0
  -27.4073  -29.7292   25.4798 H   0  0  0  0  0  0
  -27.8921  -30.4268   23.9534 H   0  0  0  0  0  0
  -27.2694  -33.3634   26.2070 H   0  0  0  0  0  0
  -28.3905  -32.6870   25.0357 H   0  0  0  0  0  0
  -28.0741  -31.8474   26.5422 H   0  0  0  0  0  0
  -28.2603  -38.0085   24.7511 H   0  0  0  0  0  0
  -28.1075  -36.2607   24.6318 H   0  0  0  0  0  0
  -27.2268  -37.1465   25.8861 H   0  0  0  0  0  0
  -20.9344  -29.8736   21.6662 H   0  0  0  0  0  0
  -26.0137  -38.2804   24.1450 H   0  0  0  0  0  0
  -28.3578  -20.5401   22.2034 H   0  0  0  0  0  0
  -28.8560  -16.3402   22.4029 H   0  0  0  0  0  0
  -30.0964  -18.4366   18.8294 H   0  0  0  0  0  0
  -28.4782  -22.2976   21.3575 H   0  0  0  0  0  0
  -31.0165  -22.7602   17.8970 H   0  0  0  0  0  0
  -29.7899  -22.5562   16.6855 H   0  0  0  0  0  0
  -30.4909  -20.5030   18.1562 H   0  0  0  0  0  0
  -28.7978  -20.7029   17.7843 H   0  0  0  0  0  0
  -28.1817  -19.4133   24.2475 H   0  0  0  0  0  0
  -28.3092  -17.6737   24.3476 H   0  0  0  0  0  0
  -28.4404  -24.8584   21.5505 H   0  0  0  0  0  0
  -27.0246  -24.7194   20.6023 H   0  0  0  0  0  0
  -26.1445  -17.3758   23.1926 H   0  0  0  0  0  0
  -26.0287  -19.0930   22.8518 H   0  0  0  0  0  0
  -28.8337  -15.4249   19.8284 H   0  0  0  0  0  0
  -26.0425  -17.9760   25.5574 H   0  0  0  0  0  0
  -24.7382  -18.5307   24.7473 H   0  0  0  0  0  0
  -25.9320  -19.5545   25.1586 H   0  0  0  0  0  0
  1 25  1  0  0  0
  1 30  2  0  0  0
  1 86  1  0  0  0
  2  3  1  0  0  0
  2 25  1  0  0  0
  2 89  1  0  0  0
  2 90  1  0  0  0
  3  4  1  0  0  0
  3 91  1  0  0  0
  3 92  1  0  0  0
  4  5  1  0  0  0
  4 93  1  0  0  0
  4 94  1  0  0  0
  5  6  1  0  0  0
  5 26  1  0  0  0
  5 95  1  0  0  0
  6 25  1  0  0  0
  6 96  1  0  0  0
  6 97  1  0  0  0
  7  8  2  0  0  0
  7 26  1  0  0  0
  7 29  1  0  0  0
  8  9  1  0  0  0
  8 22  1  0  0  0
  9 10  1  0  0  0
  9 27  2  0  0  0
 10 11  2  0  0  0
 10 15  1  0  0  0
 11 12  1  0  0  0
 11 98  1  0  0  0
 12 13  2  0  0  0
 12 99  1  0  0  0
 13 14  1  0  0  0
 13 31  1  0  0  0
 14 15  2  0  0  0
 14100  1  0  0  0
 15101  1  0  0  0
 16 17  2  0  0  0
 16 21  1  0  0  0
 16 31  1  0  0  0
 17 18  1  0  0  0
 17102  1  0  0  0
 18 19  2  0  0  0
 18103  1  0  0  0
 19 20  1  0  0  0
 19 24  1  0  0  0
 20 21  2  0  0  0
 20104  1  0  0  0
 21 23  1  0  0  0
 22 28  1  0  0  0
 22 32  2  0  0  0
 26 27  1  0  0  0
 28105  1  0  0  0
 28106  1  0  0  0
 29107  1  0  0  0
 29108  1  0  0  0
 33 34  1  0  0  0
 33 66  1  0  0  0
 33 70  2  0  0  0
 34 36  1  0  0  0
 34 59  1  0  0  0
 34109  1  0  0  0
 35 44  2  0  0  0
 35 45  1  0  0  0
 35 68  1  0  0  0
 36 56  1  0  0  0
 36110  1  0  0  0
 37 39  1  0  0  0
 37 47  1  0  0  0
 37 66  1  0  0  0
 37111  1  0  0  0
 38 43  2  0  0  0
 38 46  1  0  0  0
 38 47  1  0  0  0
 39 64  1  0  0  0
 39 67  2  0  0  0
 40 52  1  0  0  0
 40 53  2  0  0  0
 40 58  1  0  0  0
 41112  1  0  0  0
 41113  1  0  0  0
 41114  1  0  0  0
 41 48  1  0  0  0
 42 43  1  0  0  0
 42 66  1  0  0  0
 42115  1  0  0  0
 42116  1  0  0  0
 43 44  1  0  0  0
 44117  1  0  0  0
 45 46  2  0  0  0
 45118  1  0  0  0
 46119  1  0  0  0
 47120  1  0  0  0
 47121  1  0  0  0
 48 56  1  0  0  0
 48 65  1  0  0  0
 48122  1  0  0  0
 49 50  1  0  0  0
 49 53  1  0  0  0
 49 64  1  0  0  0
 49123  1  0  0  0
 50 51  1  0  0  0
 50124  1  0  0  0
 50125  1  0  0  0
 51 52  1  0  0  0
 51126  1  0  0  0
 51127  1  0  0  0
 52128  1  0  0  0
 52129  1  0  0  0
 53 54  1  0  0  0
 54 55  2  0  0  0
 54130  1  0  0  0
 55 57  1  0  0  0
 55131  1  0  0  0
 56 69  2  0  0  0
 57 58  2  0  0  0
 57132  1  0  0  0
 58133  1  0  0  0
 59 60  1  0  0  0
 59 61  1  0  0  0
 59 62  1  0  0  0
 60134  1  0  0  0
 60135  1  0  0  0
 60136  1  0  0  0
 61137  1  0  0  0
 61138  1  0  0  0
 61139  1  0  0  0
 62140  1  0  0  0
 62141  1  0  0  0
 62142  1  0  0  0
 63 65  1  0  0  0
 63143  1  0  0  0
 63144  1  0  0  0
 63145  1  0  0  0
 64146  1  0  0  0
 65147  1  0  0  0
 68 83  1  0  0  0
 71 74  2  0  0  0
 71 75  1  0  0  0
 71148  1  0  0  0
 72 74  1  0  0  0
 72 76  2  0  0  0
 72149  1  0  0  0
 73 75  2  0  0  0
 73 76  1  0  0  0
 73150  1  0  0  0
 74 82  1  0  0  0
 75 85  1  0  0  0
 76 86  1  0  0  0
 77 78  2  0  0  0
 77 85  1  0  0  0
 77151  1  0  0  0
 78 79  1  0  0  0
 78 83  1  0  0  0
 79 80  1  0  0  0
 79 88  2  0  0  0
 80 81  1  0  0  0
 80152  1  0  0  0
 80153  1  0  0  0
 81 85  1  0  0  0
 81154  1  0  0  0
 81155  1  0  0  0
 82 84  1  0  0  0
 82156  1  0  0  0
 82157  1  0  0  0
 83158  1  0  0  0
 83159  1  0  0  0
 84 87  1  0  0  0
 84160  1  0  0  0
 84161  1  0  0  0
 86162  1  0  0  0
 87163  1  0  0  0
 87164  1  0  0  0
 87165  1  0  0  0
M  CHG  1  87   1
M  ISO  4   1 100  68 101  83 101  86 100
M  END
> <chiral flag>
0

> <version>
0

> <s_m_source_file>
/data/baiqing/PycharmProjects/Reinvent-master-3.2/result/LINK_invent/BTK/process_docking_weight1_custom_product_contain_oxygen_bond_distance_aromatic_linkinvent_7_9_3/rearranged_h_0106.sdf

> <i_m_source_file_index>
43

> <r_mmod_Potential_Energy-OPLS-2005>
30.8344039916992

> <r_mmod_Stretch_Energy-OPLS-2005>
136.56298828125

> <r_mmod_Bend_Energy-OPLS-2005>
190.387313842773

> <r_mmod_Torsional_Energy-OPLS-2005>
252.7783203125

> <r_mmod_Improper_Torsional_Energy-OPLS-2005>
18.6283721923828

> <r_mmod_Van_der_Waal_Energy-OPLS-2005>
144.507385253906

> <r_mmod_Electrostatic_Energy-OPLS-2005>
-243.299438476562

> <r_mmod_Solvation_Energy-OPLS-2005>
-569.046264648438

> <b_mmod_Minimization_Converged-OPLS-2005>
0

> <r_mmod_RMS_Derivative-OPLS-2005>
7.59661436080933

$$$$
43
                    3D
 Structure written by MMmdl.
166175  0  0  1  0            999 V2000
  -30.6532  -14.5303   20.5745 C   0  0  0  0  0  0
  -30.4356  -12.3373   19.4371 C   0  0  0  0  0  0
  -29.5067  -12.5218   18.2177 C   0  0  0  0  0  0
  -28.0250  -12.3749   18.6211 C   0  0  0  0  0  0
  -27.6639  -13.2077   19.8806 C   0  0  2  0  0  0
  -28.7029  -12.9815   21.0022 C   0  0  0  0  0  0
  -25.2607  -13.8157   20.5702 C   0  0  0  0  0  0
  -24.1852  -13.0427   20.9177 C   0  0  0  0  0  0
  -24.6407  -11.6900   20.8720 C   0  0  0  0  0  0
  -23.9082  -10.4283   21.0392 C   0  0  0  0  0  0
  -24.3639   -9.4204   21.9172 C   0  0  0  0  0  0
  -23.6303   -8.2246   22.0748 C   0  0  0  0  0  0
  -22.4282   -8.0285   21.3546 C   0  0  0  0  0  0
  -21.9926   -9.0247   20.4641 C   0  0  0  0  0  0
  -22.7256  -10.2123   20.3038 C   0  0  0  0  0  0
  -21.6858   -6.0750   22.5285 C   0  0  0  0  0  0
  -21.4012   -6.5643   23.8221 C   0  0  0  0  0  0
  -21.3668   -5.6791   24.9181 C   0  0  0  0  0  0
  -21.6047   -4.3053   24.7223 C   0  0  0  0  0  0
  -21.8817   -3.8154   23.4340 C   0  0  0  0  0  0
  -21.9192   -4.6978   22.3404 C   0  0  0  0  0  0
  -22.7878  -13.5228   21.1842 C   0  0  0  0  0  0
  -22.1653   -4.2174   21.0979 F   0  0  0  0  0  0
  -21.5639   -3.4533   25.7736 F   0  0  0  0  0  0
  -30.0353  -13.3167   20.4636 N   0  0  0  0  0  0
  -26.3035  -12.9322   20.3375 N   0  0  0  0  0  0
  -25.9333  -11.6484   20.5749 N   0  0  0  0  0  0
  -22.0517  -12.8211   22.0390 N   0  0  0  0  0  0
  -25.4363  -15.1883   20.4198 N   0  0  0  0  0  0
  -31.7551  -14.7580   20.0619 O   0  0  0  0  0  0
  -21.6637   -6.8891   21.4249 O   0  0  0  0  0  0
  -22.3570  -14.5537   20.6704 O   0  0  0  0  0  0
  -24.6226  -31.8649   23.2087 C   0  0  0  0  0  0
  -25.9098  -32.4807   23.8397 C   0  0  1  0  0  0
  -27.2246  -27.3678   20.0997 C   0  0  0  0  0  0
  -25.5937  -33.8604   24.2329 N   0  0  0  0  0  0
  -23.4141  -30.4906   21.5491 C   0  0  2  0  0  0
  -24.8600  -28.9585   20.1082 C   0  0  0  0  0  0
  -22.7457  -29.4645   22.4941 C   0  0  0  0  0  0
  -18.0278  -28.1385   22.8471 C   0  0  0  0  0  0
  -24.1490  -36.7297   23.2636 C   0  0  0  0  0  0
  -25.9535  -30.8059   21.3792 C   0  0  0  0  0  0
  -26.0255  -29.4405   20.7164 C   0  0  0  0  0  0
  -27.2096  -28.6538   20.7089 C   0  0  0  0  0  0
  -26.0407  -26.9415   19.4487 C   0  0  0  0  0  0
  -24.8669  -27.7125   19.4675 C   0  0  0  0  0  0
  -23.6276  -29.8333   20.1609 C   0  0  0  0  0  0
  -25.4117  -36.3107   24.0337 C   0  0  1  0  0  0
  -20.5878  -28.3683   23.1278 C   0  0  2  0  0  0
  -20.6767  -26.9410   22.5392 C   0  0  0  0  0  0
  -19.5752  -26.6383   21.5191 C   0  0  0  0  0  0
  -18.1930  -26.7931   22.1609 C   0  0  0  0  0  0
  -19.1532  -28.8850   23.2876 C   0  0  0  0  0  0
  -18.9461  -30.1449   23.8898 C   0  0  0  0  0  0
  -17.6460  -30.6590   24.0556 C   0  0  0  0  0  0
  -25.9048  -34.9468   23.5128 C   0  0  0  0  0  0
  -16.5347  -29.9091   23.6318 C   0  0  0  0  0  0
  -16.7265  -28.6505   23.0345 C   0  0  0  0  0  0
  -26.4488  -31.6598   25.0745 C   0  0  0  0  0  0
  -25.3722  -31.3724   26.1472 C   0  0  0  0  0  0
  -27.0320  -30.3025   24.6180 C   0  0  0  0  0  0
  -27.6071  -32.4306   25.7513 C   0  0  0  0  0  0
  -27.5591  -37.1807   24.8466 C   0  0  0  0  0  0
  -21.4175  -29.3058   22.3690 N   0  0  0  0  0  0
  -26.4300  -37.3794   23.9408 N   0  0  0  0  0  0
  -24.6813  -31.0693   22.1028 N   0  0  0  0  0  0
  -23.4204  -28.8169   23.2992 O   0  0  0  0  0  0
  -28.3543  -26.5466   20.1680 O   0  0  0  0  0  0
  -26.5604  -34.8919   22.4686 O   0  0  0  0  0  0
  -23.5398  -32.1440   23.7431 O   0  0  0  0  0  0
  -30.2621  -17.6514   20.0794 C   0  0  0  0  0  0
  -29.7879  -18.9634   20.4523 C   0  0  0  0  0  0
  -29.8914  -16.8361   21.1230 C   0  0  0  0  0  0
  -30.0283  -23.5525   22.8933 C   0  0  0  0  0  0
  -28.8895  -22.6086   20.0123 C   0  0  0  0  0  0
  -30.4220  -22.0899   22.6990 C   0  0  0  0  0  0
  -28.8516  -24.0883   22.0837 C   0  0  0  0  0  0
  -30.8743  -21.7722   21.2600 C   0  0  0  0  0  0
  -29.1155  -24.0666   20.5628 C   0  0  2  0  0  0
  -30.7977  -20.2691   18.5025 C   0  0  0  0  0  0
  -28.6861  -17.2911   23.3441 C   0  0  0  0  0  0
  -28.1744  -25.1223   19.8728 C   0  0  0  0  0  0
  -29.7302  -20.2598   19.6125 C   0  0  2  0  0  0
  -29.2209  -18.9288   21.6551 N   0  0  0  0  0  0
  -29.2763  -17.6379   22.0661 N   0  0  0  0  0  0
  -29.7544  -21.5871   20.3210 N   0  0  0  0  0  0
  -29.9498  -15.4691   21.2486 N   0  0  0  0  0  0
  -30.6354  -24.2736   23.6869 O   0  0  0  0  0  0
  -27.9216  -22.4202   19.2694 O   0  0  0  0  0  0
  -31.4804  -12.4509   19.1419 H   0  0  0  0  0  0
  -30.3507  -11.3234   19.8317 H   0  0  0  0  0  0
  -29.7568  -11.7997   17.4396 H   0  0  0  0  0  0
  -29.6698  -13.5086   17.7823 H   0  0  0  0  0  0
  -27.8342  -11.3179   18.8078 H   0  0  0  0  0  0
  -27.3790  -12.6553   17.7876 H   0  0  0  0  0  0
  -27.7088  -14.2579   19.5926 H   0  0  0  0  0  0
  -28.6887  -11.9381   21.3205 H   0  0  0  0  0  0
  -28.4457  -13.5541   21.8942 H   0  0  0  0  0  0
  -25.2788   -9.5685   22.4740 H   0  0  0  0  0  0
  -24.0023   -7.4647   22.7464 H   0  0  0  0  0  0
  -21.0862   -8.8758   19.8946 H   0  0  0  0  0  0
  -22.3712  -10.9661   19.6143 H   0  0  0  0  0  0
  -21.1992   -7.6145   23.9742 H   0  0  0  0  0  0
  -21.1499   -6.0509   25.9091 H   0  0  0  0  0  0
  -22.0594   -2.7618   23.2827 H   0  0  0  0  0  0
  -22.4098  -11.9847   22.4757 H   0  0  0  0  0  0
  -21.1150  -13.1252   22.2616 H   0  0  0  0  0  0
  -24.6779  -15.8490   20.5493 H   0  0  0  0  0  0
  -26.3018  -15.6322   20.1371 H   0  0  0  0  0  0
  -26.7165  -32.5481   23.1148 H   0  0  0  0  0  0
  -25.0093  -33.9766   25.0483 H   0  0  0  0  0  0
  -22.7054  -31.3096   21.4104 H   0  0  0  0  0  0
  -23.3765  -35.9615   23.3296 H   0  0  0  0  0  0
  -24.3575  -36.8912   22.2047 H   0  0  0  0  0  0
  -23.7219  -37.6492   23.6644 H   0  0  0  0  0  0
  -26.0861  -31.5756   20.6182 H   0  0  0  0  0  0
  -26.8331  -30.8473   22.0093 H   0  0  0  0  0  0
  -28.1035  -29.0165   21.1963 H   0  0  0  0  0  0
  -25.9846  -26.0041   18.9157 H   0  0  0  0  0  0
  -23.9780  -27.3441   18.9753 H   0  0  0  0  0  0
  -23.7482  -30.6147   19.4094 H   0  0  0  0  0  0
  -22.7484  -29.2634   19.8551 H   0  0  0  0  0  0
  -25.1293  -36.1971   25.0829 H   0  0  0  0  0  0
  -20.9955  -28.3243   24.1408 H   0  0  0  0  0  0
  -20.5636  -26.2303   23.3586 H   0  0  0  0  0  0
  -21.6637  -26.7431   22.1203 H   0  0  0  0  0  0
  -19.6906  -25.6287   21.1239 H   0  0  0  0  0  0
  -19.6693  -27.3172   20.6705 H   0  0  0  0  0  0
  -17.4189  -26.6660   21.4022 H   0  0  0  0  0  0
  -18.0347  -26.0077   22.9012 H   0  0  0  0  0  0
  -19.7936  -30.7261   24.2280 H   0  0  0  0  0  0
  -17.5017  -31.6271   24.5157 H   0  0  0  0  0  0
  -15.5352  -30.2998   23.7645 H   0  0  0  0  0  0
  -15.8663  -28.0825   22.7071 H   0  0  0  0  0  0
  -24.5877  -30.7116   25.7773 H   0  0  0  0  0  0
  -24.8943  -32.2889   26.4941 H   0  0  0  0  0  0
  -25.8031  -30.8840   27.0222 H   0  0  0  0  0  0
  -26.2893  -29.6795   24.1189 H   0  0  0  0  0  0
  -27.4011  -29.7262   25.4676 H   0  0  0  0  0  0
  -27.8768  -30.4324   23.9412 H   0  0  0  0  0  0
  -27.2715  -33.3597   26.2135 H   0  0  0  0  0  0
  -28.3869  -32.6880   25.0332 H   0  0  0  0  0  0
  -28.0761  -31.8398   26.5395 H   0  0  0  0  0  0
  -28.2604  -38.0112   24.7530 H   0  0  0  0  0  0
  -28.1100  -36.2642   24.6279 H   0  0  0  0  0  0
  -27.2307  -37.1443   25.8870 H   0  0  0  0  0  0
  -20.9339  -29.8824   21.6946 H   0  0  0  0  0  0
  -26.0194  -38.2873   24.1410 H   0  0  0  0  0  0
  -30.7333  -17.3516   19.1541 H   0  0  0  0  0  0
  -29.5938  -21.4450   22.9919 H   0  0  0  0  0  0
  -31.2384  -21.8698   23.3863 H   0  0  0  0  0  0
  -28.6639  -25.1128   22.4079 H   0  0  0  0  0  0
  -27.9561  -23.5165   22.3301 H   0  0  0  0  0  0
  -31.4961  -20.8775   21.2900 H   0  0  0  0  0  0
  -31.5363  -22.5539   20.8838 H   0  0  0  0  0  0
  -30.1444  -24.3593   20.3488 H   0  0  0  0  0  0
  -30.6938  -19.4073   17.8452 H   0  0  0  0  0  0
  -31.8068  -20.2537   18.9150 H   0  0  0  0  0  0
  -30.7067  -21.1595   17.8801 H   0  0  0  0  0  0
  -28.8268  -16.2341   23.5672 H   0  0  0  0  0  0
  -27.6173  -17.5059   23.3256 H   0  0  0  0  0  0
  -29.1548  -17.8784   24.1342 H   0  0  0  0  0  0
  -27.1737  -24.8106   20.1718 H   0  0  0  0  0  0
  -28.2294  -25.0098   18.7886 H   0  0  0  0  0  0
  -28.7809  -20.1850   19.0812 H   0  0  0  0  0  0
  -29.2087  -15.0772   21.8081 H   0  0  0  0  0  0
  1 25  1  0  0  0
  1 30  2  0  0  0
  1 87  1  0  0  0
  2  3  1  0  0  0
  2 25  1  0  0  0
  2 90  1  0  0  0
  2 91  1  0  0  0
  3  4  1  0  0  0
  3 92  1  0  0  0
  3 93  1  0  0  0
  4  5  1  0  0  0
  4 94  1  0  0  0
  4 95  1  0  0  0
  5  6  1  0  0  0
  5 26  1  0  0  0
  5 96  1  0  0  0
  6 25  1  0  0  0
  6 97  1  0  0  0
  6 98  1  0  0  0
  7  8  2  0  0  0
  7 26  1  0  0  0
  7 29  1  0  0  0
  8  9  1  0  0  0
  8 22  1  0  0  0
  9 10  1  0  0  0
  9 27  2  0  0  0
 10 11  2  0  0  0
 10 15  1  0  0  0
 11 12  1  0  0  0
 11 99  1  0  0  0
 12 13  2  0  0  0
 12100  1  0  0  0
 13 14  1  0  0  0
 13 31  1  0  0  0
 14 15  2  0  0  0
 14101  1  0  0  0
 15102  1  0  0  0
 16 17  2  0  0  0
 16 21  1  0  0  0
 16 31  1  0  0  0
 17 18  1  0  0  0
 17103  1  0  0  0
 18 19  2  0  0  0
 18104  1  0  0  0
 19 20  1  0  0  0
 19 24  1  0  0  0
 20 21  2  0  0  0
 20105  1  0  0  0
 21 23  1  0  0  0
 22 28  1  0  0  0
 22 32  2  0  0  0
 26 27  1  0  0  0
 28106  1  0  0  0
 28107  1  0  0  0
 29108  1  0  0  0
 29109  1  0  0  0
 33 34  1  0  0  0
 33 66  1  0  0  0
 33 70  2  0  0  0
 34 36  1  0  0  0
 34 59  1  0  0  0
 34110  1  0  0  0
 35 44  2  0  0  0
 35 45  1  0  0  0
 35 68  1  0  0  0
 36 56  1  0  0  0
 36111  1  0  0  0
 37 39  1  0  0  0
 37 47  1  0  0  0
 37 66  1  0  0  0
 37112  1  0  0  0
 38 43  2  0  0  0
 38 46  1  0  0  0
 38 47  1  0  0  0
 39 64  1  0  0  0
 39 67  2  0  0  0
 40 52  1  0  0  0
 40 53  2  0  0  0
 40 58  1  0  0  0
 41113  1  0  0  0
 41114  1  0  0  0
 41115  1  0  0  0
 41 48  1  0  0  0
 42 43  1  0  0  0
 42 66  1  0  0  0
 42116  1  0  0  0
 42117  1  0  0  0
 43 44  1  0  0  0
 44118  1  0  0  0
 45 46  2  0  0  0
 45119  1  0  0  0
 46120  1  0  0  0
 47121  1  0  0  0
 47122  1  0  0  0
 48 56  1  0  0  0
 48 65  1  0  0  0
 48123  1  0  0  0
 49 50  1  0  0  0
 49 53  1  0  0  0
 49 64  1  0  0  0
 49124  1  0  0  0
 50 51  1  0  0  0
 50125  1  0  0  0
 50126  1  0  0  0
 51 52  1  0  0  0
 51127  1  0  0  0
 51128  1  0  0  0
 52129  1  0  0  0
 52130  1  0  0  0
 53 54  1  0  0  0
 54 55  2  0  0  0
 54131  1  0  0  0
 55 57  1  0  0  0
 55132  1  0  0  0
 56 69  2  0  0  0
 57 58  2  0  0  0
 57133  1  0  0  0
 58134  1  0  0  0
 59 60  1  0  0  0
 59 61  1  0  0  0
 59 62  1  0  0  0
 60135  1  0  0  0
 60136  1  0  0  0
 60137  1  0  0  0
 61138  1  0  0  0
 61139  1  0  0  0
 61140  1  0  0  0
 62141  1  0  0  0
 62142  1  0  0  0
 62143  1  0  0  0
 63 65  1  0  0  0
 63144  1  0  0  0
 63145  1  0  0  0
 63146  1  0  0  0
 64147  1  0  0  0
 65148  1  0  0  0
 68 82  1  0  0  0
 71 72  1  0  0  0
 71 73  2  0  0  0
 71149  1  0  0  0
 72 83  1  0  0  0
 72 84  2  0  0  0
 73 85  1  0  0  0
 73 87  1  0  0  0
 74 76  1  0  0  0
 74 77  1  0  0  0
 74 88  2  0  0  0
 75 79  1  0  0  0
 75 86  1  0  0  0
 75 89  2  0  0  0
 76 78  1  0  0  0
 76150  1  0  0  0
 76151  1  0  0  0
 77 79  1  0  0  0
 77152  1  0  0  0
 77153  1  0  0  0
 78 86  1  0  0  0
 78154  1  0  0  0
 78155  1  0  0  0
 79 82  1  0  0  0
 79156  1  0  0  0
 80157  1  0  0  0
 80158  1  0  0  0
 80159  1  0  0  0
 80 83  1  0  0  0
 81 85  1  0  0  0
 81160  1  0  0  0
 81161  1  0  0  0
 81162  1  0  0  0
 82163  1  0  0  0
 82164  1  0  0  0
 83 86  1  0  0  0
 83165  1  0  0  0
 84 85  1  0  0  0
 87166  1  0  0  0
M  ISO  4   1 100  68 101  82 101  87 100
M  END
> <chiral flag>
0

> <version>
0

> <s_m_source_file>
/data/baiqing/PycharmProjects/Reinvent-master-3.2/result/LINK_invent/BTK/process_docking_weight1_custom_product_contain_oxygen_bond_distance_aromatic_linkinvent_7_9_3/rearranged_h_0106.sdf

> <i_m_source_file_index>
44

> <r_mmod_Potential_Energy-OPLS-2005>
-155.274032592773

> <r_mmod_Stretch_Energy-OPLS-2005>
60.182071685791

> <r_mmod_Bend_Energy-OPLS-2005>
136.084625244141

> <r_mmod_Torsional_Energy-OPLS-2005>
254.641296386719

> <r_mmod_Improper_Torsional_Energy-OPLS-2005>
3.87899851799011

> <r_mmod_Van_der_Waal_Energy-OPLS-2005>
144.428329467773

> <r_mmod_Electrostatic_Energy-OPLS-2005>
-536.558349609375

> <r_mmod_Solvation_Energy-OPLS-2005>
-244.119384765625

> <b_mmod_Minimization_Converged-OPLS-2005>
0

> <r_mmod_RMS_Derivative-OPLS-2005>
1.72805786132812

$$$$
44
                    3D
 Structure written by MMmdl.
158166  0  0  1  0            999 V2000
  -30.6583  -14.6122   20.5320 C   0  0  0  0  0  0
  -30.4200  -12.3832   19.4572 C   0  0  0  0  0  0
  -29.4989  -12.5001   18.2241 C   0  0  0  0  0  0
  -28.0229  -12.3456   18.6400 C   0  0  0  0  0  0
  -27.6453  -13.2203   19.8682 C   0  0  2  0  0  0
  -28.6898  -13.0803   20.9987 C   0  0  0  0  0  0
  -25.2452  -13.8114   20.5660 C   0  0  0  0  0  0
  -24.1766  -13.0381   20.9218 C   0  0  0  0  0  0
  -24.6375  -11.6871   20.8790 C   0  0  0  0  0  0
  -23.9028  -10.4282   21.0452 C   0  0  0  0  0  0
  -24.3575   -9.4194   21.9232 C   0  0  0  0  0  0
  -23.6262   -8.2229   22.0786 C   0  0  0  0  0  0
  -22.4260   -8.0265   21.3550 C   0  0  0  0  0  0
  -21.9883   -9.0239   20.4664 C   0  0  0  0  0  0
  -22.7197  -10.2127   20.3078 C   0  0  0  0  0  0
  -21.6817   -6.0738   22.5301 C   0  0  0  0  0  0
  -21.4017   -6.5645   23.8238 C   0  0  0  0  0  0
  -21.3652   -5.6792   24.9188 C   0  0  0  0  0  0
  -21.6043   -4.3063   24.7220 C   0  0  0  0  0  0
  -21.8820   -3.8158   23.4346 C   0  0  0  0  0  0
  -21.9191   -4.6982   22.3412 C   0  0  0  0  0  0
  -22.7791  -13.5222   21.1866 C   0  0  0  0  0  0
  -22.1649   -4.2180   21.0978 F   0  0  0  0  0  0
  -21.5610   -3.4536   25.7728 F   0  0  0  0  0  0
  -29.9924  -13.4197   20.4227 N   0  0  0  0  0  0
  -26.2947  -12.9355   20.3380 N   0  0  0  0  0  0
  -25.9300  -11.6502   20.5825 N   0  0  0  0  0  0
  -22.0383  -12.8275   22.0426 N   0  0  0  0  0  0
  -25.4004  -15.1830   20.3964 N   0  0  0  0  0  0
  -31.8334  -14.7037   20.1749 O   0  0  0  0  0  0
  -21.6608   -6.8878   21.4259 O   0  0  0  0  0  0
  -22.3535  -14.5530   20.6672 O   0  0  0  0  0  0
  -24.6222  -31.8617   23.2034 C   0  0  0  0  0  0
  -25.9081  -32.4780   23.8362 C   0  0  1  0  0  0
  -27.2327  -27.3557   20.0928 C   0  0  0  0  0  0
  -25.5932  -33.8587   24.2297 N   0  0  0  0  0  0
  -23.4123  -30.4859   21.5446 C   0  0  2  0  0  0
  -24.8587  -28.9412   20.1125 C   0  0  0  0  0  0
  -22.7436  -29.4639   22.4954 C   0  0  0  0  0  0
  -18.0261  -28.1369   22.8501 C   0  0  0  0  0  0
  -24.1468  -36.7297   23.2648 C   0  0  0  0  0  0
  -25.9493  -30.8032   21.3661 C   0  0  0  0  0  0
  -26.0235  -29.4321   20.7111 C   0  0  0  0  0  0
  -27.2086  -28.6462   20.6999 C   0  0  0  0  0  0
  -26.0340  -26.8943   19.4974 C   0  0  0  0  0  0
  -24.8607  -27.6733   19.5064 C   0  0  0  0  0  0
  -23.6251  -29.8178   20.1603 C   0  0  0  0  0  0
  -25.4093  -36.3093   24.0329 C   0  0  1  0  0  0
  -20.5860  -28.3666   23.1301 C   0  0  2  0  0  0
  -20.6758  -26.9402   22.5400 C   0  0  0  0  0  0
  -19.5729  -26.6371   21.5201 C   0  0  0  0  0  0
  -18.1902  -26.7924   22.1611 C   0  0  0  0  0  0
  -19.1522  -28.8835   23.2904 C   0  0  0  0  0  0
  -18.9463  -30.1449   23.8896 C   0  0  0  0  0  0
  -17.6473  -30.6592   24.0568 C   0  0  0  0  0  0
  -25.9041  -34.9451   23.5108 C   0  0  0  0  0  0
  -16.5359  -29.9082   23.6341 C   0  0  0  0  0  0
  -16.7262  -28.6494   23.0372 C   0  0  0  0  0  0
  -26.4486  -31.6600   25.0733 C   0  0  0  0  0  0
  -25.3766  -31.3731   26.1504 C   0  0  0  0  0  0
  -27.0342  -30.3041   24.6147 C   0  0  0  0  0  0
  -27.6040  -32.4350   25.7506 C   0  0  0  0  0  0
  -27.5562  -37.1807   24.8471 C   0  0  0  0  0  0
  -21.4161  -29.3038   22.3722 N   0  0  0  0  0  0
  -26.4267  -37.3790   23.9428 N   0  0  0  0  0  0
  -24.6797  -31.0670   22.0943 N   0  0  0  0  0  0
  -23.4200  -28.8187   23.3016 O   0  0  0  0  0  0
  -28.3988  -26.5861   20.1277 O   0  0  0  0  0  0
  -26.5615  -34.8903   22.4670 O   0  0  0  0  0  0
  -23.5407  -32.1397   23.7409 O   0  0  0  0  0  0
  -29.3395  -19.1438   20.9529 C   0  0  0  0  0  0
  -27.2313  -17.9934   21.3072 C   0  0  0  0  0  0
  -28.6406  -17.9188   21.2378 C   0  0  0  0  0  0
  -27.2567  -20.4203   20.9586 C   0  0  0  0  0  0
  -28.6678  -20.4072   20.7949 C   0  0  0  0  0  0
  -26.5512  -19.2183   21.1701 C   0  0  0  0  0  0
  -28.7048  -24.0494   20.3552 C   0  0  0  0  0  0
  -30.2850  -16.7873   22.8131 C   0  0  0  0  0  0
  -28.5151  -25.2994   19.4281 C   0  0  0  0  0  0
  -28.9332  -22.6419   19.6911 C   0  0  0  0  0  0
  -29.3194  -16.5582   21.6315 C   0  0  2  0  0  0
  -26.5415  -21.6168   21.0375 N   0  0  0  0  0  0
  -29.9233  -15.7640   20.5231 N   0  0  0  0  0  0
  -28.6749  -24.1668   21.5849 O   0  0  0  0  0  0
  -29.3974  -21.5922   20.6096 O   0  0  0  0  0  0
  -25.2031  -19.2544   21.3198 F   0  0  0  0  0  0
  -31.4640  -12.4933   19.1580 H   0  0  0  0  0  0
  -30.3425  -11.3885   19.8997 H   0  0  0  0  0  0
  -29.7632  -11.7471   17.4821 H   0  0  0  0  0  0
  -29.6479  -13.4713   17.7456 H   0  0  0  0  0  0
  -27.8622  -11.2926   18.8831 H   0  0  0  0  0  0
  -27.3669  -12.5673   17.7963 H   0  0  0  0  0  0
  -27.6614  -14.2592   19.5358 H   0  0  0  0  0  0
  -28.7074  -12.0575   21.3801 H   0  0  0  0  0  0
  -28.4478  -13.7180   21.8465 H   0  0  0  0  0  0
  -25.2695   -9.5707   22.4845 H   0  0  0  0  0  0
  -23.9992   -7.4625   22.7512 H   0  0  0  0  0  0
  -21.0823   -8.8737   19.8964 H   0  0  0  0  0  0
  -22.3646  -10.9667   19.6220 H   0  0  0  0  0  0
  -21.1999   -7.6153   23.9756 H   0  0  0  0  0  0
  -21.1461   -6.0516   25.9102 H   0  0  0  0  0  0
  -22.0597   -2.7618   23.2829 H   0  0  0  0  0  0
  -22.3875  -11.9926   22.4913 H   0  0  0  0  0  0
  -21.0999  -13.1391   22.2524 H   0  0  0  0  0  0
  -24.6146  -15.8145   20.5017 H   0  0  0  0  0  0
  -26.2327  -15.6334   20.0396 H   0  0  0  0  0  0
  -26.7162  -32.5454   23.1135 H   0  0  0  0  0  0
  -25.0141  -33.9753   25.0482 H   0  0  0  0  0  0
  -22.7012  -31.3035   21.4026 H   0  0  0  0  0  0
  -23.3732  -35.9640   23.3319 H   0  0  0  0  0  0
  -24.3585  -36.8899   22.2070 H   0  0  0  0  0  0
  -23.7177  -37.6479   23.6656 H   0  0  0  0  0  0
  -26.0767  -31.5654   20.5982 H   0  0  0  0  0  0
  -26.8321  -30.8567   21.9911 H   0  0  0  0  0  0
  -28.1033  -29.0265   21.1701 H   0  0  0  0  0  0
  -25.9532  -25.9213   19.0388 H   0  0  0  0  0  0
  -23.9600  -27.2885   19.0501 H   0  0  0  0  0  0
  -23.7425  -30.5918   19.4004 H   0  0  0  0  0  0
  -22.7449  -29.2465   19.8594 H   0  0  0  0  0  0
  -25.1258  -36.1964   25.0821 H   0  0  0  0  0  0
  -20.9961  -28.3218   24.1422 H   0  0  0  0  0  0
  -20.5603  -26.2303   23.3596 H   0  0  0  0  0  0
  -21.6636  -26.7400   22.1234 H   0  0  0  0  0  0
  -19.6898  -25.6268   21.1242 H   0  0  0  0  0  0
  -19.6667  -27.3174   20.6712 H   0  0  0  0  0  0
  -17.4185  -26.6683   21.3994 H   0  0  0  0  0  0
  -18.0320  -26.0025   22.8963 H   0  0  0  0  0  0
  -19.7946  -30.7255   24.2262 H   0  0  0  0  0  0
  -17.5031  -31.6273   24.5168 H   0  0  0  0  0  0
  -15.5361  -30.3010   23.7654 H   0  0  0  0  0  0
  -15.8647  -28.0806   22.7125 H   0  0  0  0  0  0
  -24.5910  -30.7093   25.7872 H   0  0  0  0  0  0
  -24.9018  -32.2911   26.4980 H   0  0  0  0  0  0
  -25.8161  -30.8887   27.0236 H   0  0  0  0  0  0
  -26.2908  -29.6790   24.1191 H   0  0  0  0  0  0
  -27.4102  -29.7280   25.4610 H   0  0  0  0  0  0
  -27.8734  -30.4358   23.9319 H   0  0  0  0  0  0
  -27.2615  -33.3622   26.2108 H   0  0  0  0  0  0
  -28.3844  -32.6961   25.0351 H   0  0  0  0  0  0
  -28.0720  -31.8475   26.5412 H   0  0  0  0  0  0
  -28.2595  -38.0093   24.7543 H   0  0  0  0  0  0
  -28.1032  -36.2630   24.6262 H   0  0  0  0  0  0
  -27.2324  -37.1434   25.8888 H   0  0  0  0  0  0
  -20.9339  -29.8803   21.6973 H   0  0  0  0  0  0
  -26.0146  -38.2861   24.1461 H   0  0  0  0  0  0
  -30.4191  -19.1239   20.9074 H   0  0  0  0  0  0
  -26.6491  -17.1200   21.5525 H   0  0  0  0  0  0
  -29.7527  -17.2286   23.6607 H   0  0  0  0  0  0
  -31.0960  -17.4678   22.5528 H   0  0  0  0  0  0
  -30.7327  -15.8619   23.1754 H   0  0  0  0  0  0
  -27.7175  -25.1074   18.7162 H   0  0  0  0  0  0
  -29.4140  -25.3672   18.8170 H   0  0  0  0  0  0
  -29.6980  -22.7605   18.9211 H   0  0  0  0  0  0
  -28.0386  -22.3324   19.1506 H   0  0  0  0  0  0
  -28.5248  -15.9240   22.0271 H   0  0  0  0  0  0
  -27.0581  -22.3679   21.4847 H   0  0  0  0  0  0
  -25.6302  -21.5022   21.4685 H   0  0  0  0  0  0
  -30.3399  -16.4049   19.8641 H   0  0  0  0  0  0
  1 25  1  0  0  0
  1 30  2  0  0  0
  1 83  1  0  0  0
  2  3  1  0  0  0
  2 25  1  0  0  0
  2 87  1  0  0  0
  2 88  1  0  0  0
  3  4  1  0  0  0
  3 89  1  0  0  0
  3 90  1  0  0  0
  4  5  1  0  0  0
  4 91  1  0  0  0
  4 92  1  0  0  0
  5  6  1  0  0  0
  5 26  1  0  0  0
  5 93  1  0  0  0
  6 25  1  0  0  0
  6 94  1  0  0  0
  6 95  1  0  0  0
  7  8  2  0  0  0
  7 26  1  0  0  0
  7 29  1  0  0  0
  8  9  1  0  0  0
  8 22  1  0  0  0
  9 10  1  0  0  0
  9 27  2  0  0  0
 10 11  2  0  0  0
 10 15  1  0  0  0
 11 12  1  0  0  0
 11 96  1  0  0  0
 12 13  2  0  0  0
 12 97  1  0  0  0
 13 14  1  0  0  0
 13 31  1  0  0  0
 14 15  2  0  0  0
 14 98  1  0  0  0
 15 99  1  0  0  0
 16 17  2  0  0  0
 16 21  1  0  0  0
 16 31  1  0  0  0
 17 18  1  0  0  0
 17100  1  0  0  0
 18 19  2  0  0  0
 18101  1  0  0  0
 19 20  1  0  0  0
 19 24  1  0  0  0
 20 21  2  0  0  0
 20102  1  0  0  0
 21 23  1  0  0  0
 22 28  1  0  0  0
 22 32  2  0  0  0
 26 27  1  0  0  0
 28103  1  0  0  0
 28104  1  0  0  0
 29105  1  0  0  0
 29106  1  0  0  0
 33 34  1  0  0  0
 33 66  1  0  0  0
 33 70  2  0  0  0
 34 36  1  0  0  0
 34 59  1  0  0  0
 34107  1  0  0  0
 35 44  2  0  0  0
 35 45  1  0  0  0
 35 68  1  0  0  0
 36 56  1  0  0  0
 36108  1  0  0  0
 37 39  1  0  0  0
 37 47  1  0  0  0
 37 66  1  0  0  0
 37109  1  0  0  0
 38 43  2  0  0  0
 38 46  1  0  0  0
 38 47  1  0  0  0
 39 64  1  0  0  0
 39 67  2  0  0  0
 40 52  1  0  0  0
 40 53  2  0  0  0
 40 58  1  0  0  0
 41110  1  0  0  0
 41111  1  0  0  0
 41112  1  0  0  0
 41 48  1  0  0  0
 42 43  1  0  0  0
 42 66  1  0  0  0
 42113  1  0  0  0
 42114  1  0  0  0
 43 44  1  0  0  0
 44115  1  0  0  0
 45 46  2  0  0  0
 45116  1  0  0  0
 46117  1  0  0  0
 47118  1  0  0  0
 47119  1  0  0  0
 48 56  1  0  0  0
 48 65  1  0  0  0
 48120  1  0  0  0
 49 50  1  0  0  0
 49 53  1  0  0  0
 49 64  1  0  0  0
 49121  1  0  0  0
 50 51  1  0  0  0
 50122  1  0  0  0
 50123  1  0  0  0
 51 52  1  0  0  0
 51124  1  0  0  0
 51125  1  0  0  0
 52126  1  0  0  0
 52127  1  0  0  0
 53 54  1  0  0  0
 54 55  2  0  0  0
 54128  1  0  0  0
 55 57  1  0  0  0
 55129  1  0  0  0
 56 69  2  0  0  0
 57 58  2  0  0  0
 57130  1  0  0  0
 58131  1  0  0  0
 59 60  1  0  0  0
 59 61  1  0  0  0
 59 62  1  0  0  0
 60132  1  0  0  0
 60133  1  0  0  0
 60134  1  0  0  0
 61135  1  0  0  0
 61136  1  0  0  0
 61137  1  0  0  0
 62138  1  0  0  0
 62139  1  0  0  0
 62140  1  0  0  0
 63 65  1  0  0  0
 63141  1  0  0  0
 63142  1  0  0  0
 63143  1  0  0  0
 64144  1  0  0  0
 65145  1  0  0  0
 68 79  1  0  0  0
 71 73  2  0  0  0
 71 75  1  0  0  0
 71146  1  0  0  0
 72 73  1  0  0  0
 72 76  2  0  0  0
 72147  1  0  0  0
 73 81  1  0  0  0
 74 75  2  0  0  0
 74 76  1  0  0  0
 74 82  1  0  0  0
 75 85  1  0  0  0
 76 86  1  0  0  0
 77 79  1  0  0  0
 77 80  1  0  0  0
 77 84  2  0  0  0
 78148  1  0  0  0
 78149  1  0  0  0
 78150  1  0  0  0
 78 81  1  0  0  0
 79151  1  0  0  0
 79152  1  0  0  0
 80 85  1  0  0  0
 80153  1  0  0  0
 80154  1  0  0  0
 81 83  1  0  0  0
 81155  1  0  0  0
 82156  1  0  0  0
 82157  1  0  0  0
 83158  1  0  0  0
M  ISO  4   1 100  68 101  79 101  83 100
M  END
> <chiral flag>
0

> <version>
0

> <s_m_source_file>
/data/baiqing/PycharmProjects/Reinvent-master-3.2/result/LINK_invent/BTK/process_docking_weight1_custom_product_contain_oxygen_bond_distance_aromatic_linkinvent_7_9_3/rearranged_h_0106.sdf

> <i_m_source_file_index>
45

> <r_mmod_Potential_Energy-OPLS-2005>
71.5539321899414

> <r_mmod_Stretch_Energy-OPLS-2005>
71.4978408813477

> <r_mmod_Bend_Energy-OPLS-2005>
154.103622436523

> <r_mmod_Torsional_Energy-OPLS-2005>
281.773498535156

> <r_mmod_Improper_Torsional_Energy-OPLS-2005>
27.4570026397705

> <r_mmod_Van_der_Waal_Energy-OPLS-2005>
143.900650024414

> <r_mmod_Electrostatic_Energy-OPLS-2005>
-416.605834960938

> <r_mmod_Solvation_Energy-OPLS-2005>
-227.027465820312

> <b_mmod_Minimization_Converged-OPLS-2005>
0

> <r_mmod_RMS_Derivative-OPLS-2005>
4.24950933456421

$$$$
45
                    3D
 Structure written by MMmdl.
158166  0  0  1  0            999 V2000
  -30.6679  -14.6180   20.5777 C   0  0  0  0  0  0
  -30.4313  -12.4023   19.4588 C   0  0  0  0  0  0
  -29.5089  -12.5313   18.2272 C   0  0  0  0  0  0
  -28.0309  -12.3595   18.6283 C   0  0  0  0  0  0
  -27.6546  -13.2154   19.8652 C   0  0  2  0  0  0
  -28.6896  -13.0424   20.9955 C   0  0  0  0  0  0
  -25.2569  -13.8172   20.5684 C   0  0  0  0  0  0
  -24.1826  -13.0440   20.9179 C   0  0  0  0  0  0
  -24.6387  -11.6908   20.8724 C   0  0  0  0  0  0
  -23.9052  -10.4294   21.0395 C   0  0  0  0  0  0
  -24.3607   -9.4212   21.9177 C   0  0  0  0  0  0
  -23.6282   -8.2250   22.0762 C   0  0  0  0  0  0
  -22.4265   -8.0285   21.3549 C   0  0  0  0  0  0
  -21.9892   -9.0257   20.4652 C   0  0  0  0  0  0
  -22.7222  -10.2133   20.3048 C   0  0  0  0  0  0
  -21.6854   -6.0729   22.5280 C   0  0  0  0  0  0
  -21.4019   -6.5636   23.8211 C   0  0  0  0  0  0
  -21.3657   -5.6791   24.9175 C   0  0  0  0  0  0
  -21.6048   -4.3054   24.7224 C   0  0  0  0  0  0
  -21.8819   -3.8141   23.4346 C   0  0  0  0  0  0
  -21.9196   -4.6957   22.3401 C   0  0  0  0  0  0
  -22.7856  -13.5251   21.1849 C   0  0  0  0  0  0
  -22.1667   -4.2144   21.0976 F   0  0  0  0  0  0
  -21.5628   -3.4536   25.7734 F   0  0  0  0  0  0
  -30.0143  -13.4090   20.4620 N   0  0  0  0  0  0
  -26.2986  -12.9346   20.3292 N   0  0  0  0  0  0
  -25.9313  -11.6500   20.5723 N   0  0  0  0  0  0
  -22.0494  -12.8249   22.0403 N   0  0  0  0  0  0
  -25.4301  -15.1897   20.4152 N   0  0  0  0  0  0
  -31.7491  -14.8065   20.0093 O   0  0  0  0  0  0
  -21.6638   -6.8874   21.4242 O   0  0  0  0  0  0
  -22.3542  -14.5558   20.6705 O   0  0  0  0  0  0
  -24.6251  -31.8603   23.2018 C   0  0  0  0  0  0
  -25.9103  -32.4781   23.8351 C   0  0  1  0  0  0
  -27.2263  -27.3317   20.1192 C   0  0  0  0  0  0
  -25.5923  -33.8583   24.2282 N   0  0  0  0  0  0
  -23.4181  -30.4823   21.5442 C   0  0  2  0  0  0
  -24.8659  -28.9358   20.1118 C   0  0  0  0  0  0
  -22.7469  -29.4625   22.4945 C   0  0  0  0  0  0
  -18.0298  -28.1379   22.8480 C   0  0  0  0  0  0
  -24.1489  -36.7298   23.2637 C   0  0  0  0  0  0
  -25.9574  -30.7950   21.3699 C   0  0  0  0  0  0
  -26.0335  -29.4214   20.7162 C   0  0  0  0  0  0
  -27.2192  -28.6310   20.7094 C   0  0  0  0  0  0
  -26.0429  -26.8968   19.4857 C   0  0  0  0  0  0
  -24.8715  -27.6780   19.4872 C   0  0  0  0  0  0
  -23.6325  -29.8141   20.1599 C   0  0  0  0  0  0
  -25.4109  -36.3088   24.0330 C   0  0  1  0  0  0
  -20.5889  -28.3683   23.1295 C   0  0  2  0  0  0
  -20.6786  -26.9416   22.5404 C   0  0  0  0  0  0
  -19.5770  -26.6399   21.5200 C   0  0  0  0  0  0
  -18.1940  -26.7929   22.1603 C   0  0  0  0  0  0
  -19.1543  -28.8846   23.2889 C   0  0  0  0  0  0
  -18.9459  -30.1442   23.8905 C   0  0  0  0  0  0
  -17.6459  -30.6571   24.0563 C   0  0  0  0  0  0
  -25.9043  -34.9455   23.5104 C   0  0  0  0  0  0
  -16.5357  -29.9069   23.6324 C   0  0  0  0  0  0
  -16.7281  -28.6493   23.0337 C   0  0  0  0  0  0
  -26.4495  -31.6584   25.0711 C   0  0  0  0  0  0
  -25.3733  -31.3718   26.1438 C   0  0  0  0  0  0
  -27.0333  -30.3012   24.6142 C   0  0  0  0  0  0
  -27.6060  -32.4311   25.7483 C   0  0  0  0  0  0
  -27.5579  -37.1801   24.8465 C   0  0  0  0  0  0
  -21.4182  -29.3052   22.3702 N   0  0  0  0  0  0
  -26.4294  -37.3776   23.9405 N   0  0  0  0  0  0
  -24.6854  -31.0622   22.0961 N   0  0  0  0  0  0
  -23.4200  -28.8154   23.3011 O   0  0  0  0  0  0
  -28.3450  -26.4920   20.1301 O   0  0  0  0  0  0
  -26.5617  -34.8923   22.4673 O   0  0  0  0  0  0
  -23.5416  -32.1412   23.7347 O   0  0  0  0  0  0
  -30.4105  -17.7328   19.8241 C   0  0  0  0  0  0
  -28.9557  -19.5510   21.3492 C   0  0  0  0  0  0
  -29.8360  -17.2099   21.0158 C   0  0  0  0  0  0
  -29.0614  -18.1840   21.7501 C   0  0  0  0  0  0
  -30.2661  -19.0867   19.3934 C   0  0  0  0  0  0
  -29.5621  -20.0562   20.1748 C   0  0  0  0  0  0
  -30.0781  -15.7429   21.5057 C   0  0  0  0  0  0
  -30.1829  -20.2589   17.3076 C   0  0  0  0  0  0
  -28.9585  -23.9238   19.9103 C   0  0  0  0  0  0
  -28.1522  -25.1027   20.6036 C   0  0  0  0  0  0
  -28.8011  -22.4542   20.5108 C   0  0  0  0  0  0
  -29.8661  -15.4471   22.7216 N   0  0  0  0  0  0
  -28.3523  -17.8650   22.9147 N   0  0  0  0  0  0
  -30.8758  -19.3883   18.1961 O   0  0  0  0  0  0
  -29.5191  -21.4120   19.7768 O   0  0  0  0  0  0
  -31.4751  -12.5181   19.1624 H   0  0  0  0  0  0
  -30.3608  -11.3998   19.8836 H   0  0  0  0  0  0
  -29.7808  -11.7921   17.4726 H   0  0  0  0  0  0
  -29.6534  -13.5091   17.7645 H   0  0  0  0  0  0
  -27.8664  -11.3037   18.8466 H   0  0  0  0  0  0
  -27.3806  -12.6016   17.7866 H   0  0  0  0  0  0
  -27.6852  -14.2576   19.5470 H   0  0  0  0  0  0
  -28.7033  -12.0088   21.3440 H   0  0  0  0  0  0
  -28.3854  -13.6253   21.8607 H   0  0  0  0  0  0
  -25.2757   -9.5692   22.4747 H   0  0  0  0  0  0
  -23.9995   -7.4645   22.7486 H   0  0  0  0  0  0
  -21.0820   -8.8769   19.8962 H   0  0  0  0  0  0
  -22.3679  -10.9670   19.6153 H   0  0  0  0  0  0
  -21.2015   -7.6149   23.9708 H   0  0  0  0  0  0
  -21.1479   -6.0527   25.9076 H   0  0  0  0  0  0
  -22.0595   -2.7603   23.2853 H   0  0  0  0  0  0
  -22.4100  -11.9900   22.4776 H   0  0  0  0  0  0
  -21.1117  -13.1287   22.2612 H   0  0  0  0  0  0
  -24.6684  -15.8487   20.5342 H   0  0  0  0  0  0
  -26.2889  -15.6303   20.1117 H   0  0  0  0  0  0
  -26.7171  -32.5460   23.1102 H   0  0  0  0  0  0
  -25.0073  -33.9723   25.0432 H   0  0  0  0  0  0
  -22.7111  -31.3020   21.3999 H   0  0  0  0  0  0
  -23.3743  -35.9639   23.3303 H   0  0  0  0  0  0
  -24.3585  -36.8913   22.2052 H   0  0  0  0  0  0
  -23.7254  -37.6504   23.6658 H   0  0  0  0  0  0
  -26.0830  -31.5561   20.5985 H   0  0  0  0  0  0
  -26.8392  -30.8487   21.9963 H   0  0  0  0  0  0
  -28.1180  -28.9983   21.1849 H   0  0  0  0  0  0
  -26.0172  -25.9375   18.9886 H   0  0  0  0  0  0
  -23.9797  -27.3033   19.0030 H   0  0  0  0  0  0
  -23.7501  -30.5892   19.4021 H   0  0  0  0  0  0
  -22.7534  -29.2415   19.8599 H   0  0  0  0  0  0
  -25.1288  -36.1940   25.0824 H   0  0  0  0  0  0
  -20.9988  -28.3243   24.1409 H   0  0  0  0  0  0
  -20.5690  -26.2283   23.3589 H   0  0  0  0  0  0
  -21.6653  -26.7457   22.1190 H   0  0  0  0  0  0
  -19.6934  -25.6324   21.1192 H   0  0  0  0  0  0
  -19.6716  -27.3245   20.6761 H   0  0  0  0  0  0
  -17.4218  -26.6698   21.3992 H   0  0  0  0  0  0
  -18.0345  -26.0061   22.8991 H   0  0  0  0  0  0
  -19.7933  -30.7263   24.2277 H   0  0  0  0  0  0
  -17.5013  -31.6250   24.5172 H   0  0  0  0  0  0
  -15.5355  -30.2969   23.7643 H   0  0  0  0  0  0
  -15.8682  -28.0816   22.7034 H   0  0  0  0  0  0
  -24.5910  -30.7062   25.7771 H   0  0  0  0  0  0
  -24.8916  -32.2879   26.4864 H   0  0  0  0  0  0
  -25.8061  -30.8901   27.0213 H   0  0  0  0  0  0
  -26.2898  -29.6758   24.1179 H   0  0  0  0  0  0
  -27.4060  -29.7270   25.4635 H   0  0  0  0  0  0
  -27.8758  -30.4304   23.9343 H   0  0  0  0  0  0
  -27.2673  -33.3606   26.2070 H   0  0  0  0  0  0
  -28.3867  -32.6869   25.0309 H   0  0  0  0  0  0
  -28.0725  -31.8422   26.5389 H   0  0  0  0  0  0
  -28.2596  -38.0098   24.7497 H   0  0  0  0  0  0
  -28.1075  -36.2624   24.6305 H   0  0  0  0  0  0
  -27.2297  -37.1472   25.8871 H   0  0  0  0  0  0
  -20.9348  -29.8809   21.6948 H   0  0  0  0  0  0
  -26.0175  -38.2854   24.1393 H   0  0  0  0  0  0
  -30.9973  -17.0806   19.1962 H   0  0  0  0  0  0
  -28.3883  -20.2309   21.9675 H   0  0  0  0  0  0
  -30.4766  -21.2974   17.4626 H   0  0  0  0  0  0
  -29.0983  -20.1761   17.3990 H   0  0  0  0  0  0
  -30.4395  -20.0001   16.2802 H   0  0  0  0  0  0
  -30.0169  -24.1832   19.9204 H   0  0  0  0  0  0
  -28.6738  -23.8957   18.8590 H   0  0  0  0  0  0
  -28.4291  -25.1092   21.6579 H   0  0  0  0  0  0
  -27.0994  -24.8226   20.6033 H   0  0  0  0  0  0
  -27.7428  -22.1913   20.5335 H   0  0  0  0  0  0
  -29.1466  -22.4574   21.5446 H   0  0  0  0  0  0
  -29.5365  -16.2836   23.2002 H   0  0  0  0  0  0
  -27.7179  -18.5726   23.2710 H   0  0  0  0  0  0
  -27.9239  -16.9452   22.9567 H   0  0  0  0  0  0
  1 25  1  0  0  0
  1 30  2  0  0  0
  1 77  1  0  0  0
  2  3  1  0  0  0
  2 25  1  0  0  0
  2 86  1  0  0  0
  2 87  1  0  0  0
  3  4  1  0  0  0
  3 88  1  0  0  0
  3 89  1  0  0  0
  4  5  1  0  0  0
  4 90  1  0  0  0
  4 91  1  0  0  0
  5  6  1  0  0  0
  5 26  1  0  0  0
  5 92  1  0  0  0
  6 25  1  0  0  0
  6 93  1  0  0  0
  6 94  1  0  0  0
  7  8  2  0  0  0
  7 26  1  0  0  0
  7 29  1  0  0  0
  8  9  1  0  0  0
  8 22  1  0  0  0
  9 10  1  0  0  0
  9 27  2  0  0  0
 10 11  2  0  0  0
 10 15  1  0  0  0
 11 12  1  0  0  0
 11 95  1  0  0  0
 12 13  2  0  0  0
 12 96  1  0  0  0
 13 14  1  0  0  0
 13 31  1  0  0  0
 14 15  2  0  0  0
 14 97  1  0  0  0
 15 98  1  0  0  0
 16 17  2  0  0  0
 16 21  1  0  0  0
 16 31  1  0  0  0
 17 18  1  0  0  0
 17 99  1  0  0  0
 18 19  2  0  0  0
 18100  1  0  0  0
 19 20  1  0  0  0
 19 24  1  0  0  0
 20 21  2  0  0  0
 20101  1  0  0  0
 21 23  1  0  0  0
 22 28  1  0  0  0
 22 32  2  0  0  0
 26 27  1  0  0  0
 28102  1  0  0  0
 28103  1  0  0  0
 29104  1  0  0  0
 29105  1  0  0  0
 33 34  1  0  0  0
 33 66  1  0  0  0
 33 70  2  0  0  0
 34 36  1  0  0  0
 34 59  1  0  0  0
 34106  1  0  0  0
 35 44  2  0  0  0
 35 45  1  0  0  0
 35 68  1  0  0  0
 36 56  1  0  0  0
 36107  1  0  0  0
 37 39  1  0  0  0
 37 47  1  0  0  0
 37 66  1  0  0  0
 37108  1  0  0  0
 38 43  2  0  0  0
 38 46  1  0  0  0
 38 47  1  0  0  0
 39 64  1  0  0  0
 39 67  2  0  0  0
 40 52  1  0  0  0
 40 53  2  0  0  0
 40 58  1  0  0  0
 41109  1  0  0  0
 41110  1  0  0  0
 41111  1  0  0  0
 41 48  1  0  0  0
 42 43  1  0  0  0
 42 66  1  0  0  0
 42112  1  0  0  0
 42113  1  0  0  0
 43 44  1  0  0  0
 44114  1  0  0  0
 45 46  2  0  0  0
 45115  1  0  0  0
 46116  1  0  0  0
 47117  1  0  0  0
 47118  1  0  0  0
 48 56  1  0  0  0
 48 65  1  0  0  0
 48119  1  0  0  0
 49 50  1  0  0  0
 49 53  1  0  0  0
 49 64  1  0  0  0
 49120  1  0  0  0
 50 51  1  0  0  0
 50121  1  0  0  0
 50122  1  0  0  0
 51 52  1  0  0  0
 51123  1  0  0  0
 51124  1  0  0  0
 52125  1  0  0  0
 52126  1  0  0  0
 53 54  1  0  0  0
 54 55  2  0  0  0
 54127  1  0  0  0
 55 57  1  0  0  0
 55128  1  0  0  0
 56 69  2  0  0  0
 57 58  2  0  0  0
 57129  1  0  0  0
 58130  1  0  0  0
 59 60  1  0  0  0
 59 61  1  0  0  0
 59 62  1  0  0  0
 60131  1  0  0  0
 60132  1  0  0  0
 60133  1  0  0  0
 61134  1  0  0  0
 61135  1  0  0  0
 61136  1  0  0  0
 62137  1  0  0  0
 62138  1  0  0  0
 62139  1  0  0  0
 63 65  1  0  0  0
 63140  1  0  0  0
 63141  1  0  0  0
 63142  1  0  0  0
 64143  1  0  0  0
 65144  1  0  0  0
 68 80  1  0  0  0
 71 73  2  0  0  0
 71 75  1  0  0  0
 71145  1  0  0  0
 72 74  2  0  0  0
 72 76  1  0  0  0
 72146  1  0  0  0
 73 74  1  0  0  0
 73 77  1  0  0  0
 74 83  1  0  0  0
 75 76  2  0  0  0
 75 84  1  0  0  0
 76 85  1  0  0  0
 77 82  2  0  0  0
 78 84  1  0  0  0
 78147  1  0  0  0
 78148  1  0  0  0
 78149  1  0  0  0
 79 80  1  0  0  0
 79 81  1  0  0  0
 79150  1  0  0  0
 79151  1  0  0  0
 80152  1  0  0  0
 80153  1  0  0  0
 81 85  1  0  0  0
 81154  1  0  0  0
 81155  1  0  0  0
 82156  1  0  0  0
 83157  1  0  0  0
 83158  1  0  0  0
M  ISO  4   1 100  68 101  77 100  80 101
M  END
> <chiral flag>
0

> <version>
0

> <s_m_source_file>
/data/baiqing/PycharmProjects/Reinvent-master-3.2/result/LINK_invent/BTK/process_docking_weight1_custom_product_contain_oxygen_bond_distance_aromatic_linkinvent_7_9_3/rearranged_h_0106.sdf

> <i_m_source_file_index>
46

> <r_mmod_Potential_Energy-OPLS-2005>
276.766479492188

> <r_mmod_Stretch_Energy-OPLS-2005>
94.3682632446289

> <r_mmod_Bend_Energy-OPLS-2005>
161.502349853516

> <r_mmod_Torsional_Energy-OPLS-2005>
232.429840087891

> <r_mmod_Improper_Torsional_Energy-OPLS-2005>
6.9382472038269

> <r_mmod_Van_der_Waal_Energy-OPLS-2005>
163.131912231445

> <r_mmod_Electrostatic_Energy-OPLS-2005>
-211.016342163086

> <r_mmod_Solvation_Energy-OPLS-2005>
-211.04621887207

> <b_mmod_Minimization_Converged-OPLS-2005>
0

> <r_mmod_RMS_Derivative-OPLS-2005>
1.15936076641083

$$$$
46
                    3D
 Structure written by MMmdl.
162170  0  0  1  0            999 V2000
  -30.6619  -14.5353   20.4787 C   0  0  0  0  0  0
  -30.4202  -12.3201   19.4513 C   0  0  0  0  0  0
  -29.5030  -12.4916   18.2209 C   0  0  0  0  0  0
  -28.0212  -12.3543   18.6256 C   0  0  0  0  0  0
  -27.6516  -13.2141   19.8652 C   0  0  2  0  0  0
  -28.6927  -13.0503   20.9976 C   0  0  0  0  0  0
  -25.2535  -13.8186   20.5694 C   0  0  0  0  0  0
  -24.1792  -13.0445   20.9160 C   0  0  0  0  0  0
  -24.6371  -11.6915   20.8731 C   0  0  0  0  0  0
  -23.9033  -10.4300   21.0394 C   0  0  0  0  0  0
  -24.3593   -9.4217   21.9171 C   0  0  0  0  0  0
  -23.6280   -8.2245   22.0743 C   0  0  0  0  0  0
  -22.4257   -8.0276   21.3536 C   0  0  0  0  0  0
  -21.9890   -9.0239   20.4637 C   0  0  0  0  0  0
  -22.7208  -10.2126   20.3045 C   0  0  0  0  0  0
  -21.6850   -6.0731   22.5273 C   0  0  0  0  0  0
  -21.4018   -6.5636   23.8214 C   0  0  0  0  0  0
  -21.3669   -5.6786   24.9174 C   0  0  0  0  0  0
  -21.6039   -4.3045   24.7216 C   0  0  0  0  0  0
  -21.8821   -3.8141   23.4332 C   0  0  0  0  0  0
  -21.9194   -4.6962   22.3399 C   0  0  0  0  0  0
  -22.7815  -13.5238   21.1825 C   0  0  0  0  0  0
  -22.1664   -4.2151   21.0971 F   0  0  0  0  0  0
  -21.5627   -3.4531   25.7725 F   0  0  0  0  0  0
  -30.0192  -13.3368   20.4356 N   0  0  0  0  0  0
  -26.2962  -12.9359   20.3342 N   0  0  0  0  0  0
  -25.9297  -11.6511   20.5762 N   0  0  0  0  0  0
  -22.0446  -12.8263   22.0395 N   0  0  0  0  0  0
  -25.4238  -15.1916   20.4231 N   0  0  0  0  0  0
  -31.8424  -14.6603   20.1421 O   0  0  0  0  0  0
  -21.6639   -6.8860   21.4227 O   0  0  0  0  0  0
  -22.3502  -14.5536   20.6656 O   0  0  0  0  0  0
  -24.6190  -31.8666   23.2070 C   0  0  0  0  0  0
  -25.9070  -32.4822   23.8374 C   0  0  1  0  0  0
  -27.2340  -27.4038   20.1141 C   0  0  0  0  0  0
  -25.5922  -33.8621   24.2320 N   0  0  0  0  0  0
  -23.4086  -30.4905   21.5445 C   0  0  2  0  0  0
  -24.8578  -28.9496   20.1135 C   0  0  0  0  0  0
  -22.7436  -29.4676   22.4933 C   0  0  0  0  0  0
  -18.0282  -28.1393   22.8508 C   0  0  0  0  0  0
  -24.1481  -36.7308   23.2643 C   0  0  0  0  0  0
  -25.9394  -30.8253   21.3623 C   0  0  0  0  0  0
  -26.0191  -29.4548   20.7146 C   0  0  0  0  0  0
  -27.2132  -28.6900   20.7129 C   0  0  0  0  0  0
  -26.0598  -26.9204   19.5041 C   0  0  0  0  0  0
  -24.8745  -27.6818   19.5045 C   0  0  0  0  0  0
  -23.6207  -29.8217   20.1594 C   0  0  0  0  0  0
  -25.4112  -36.3114   24.0333 C   0  0  1  0  0  0
  -20.5886  -28.3699   23.1300 C   0  0  2  0  0  0
  -20.6777  -26.9424   22.5422 C   0  0  0  0  0  0
  -19.5743  -26.6390   21.5231 C   0  0  0  0  0  0
  -18.1917  -26.7941   22.1640 C   0  0  0  0  0  0
  -19.1541  -28.8861   23.2896 C   0  0  0  0  0  0
  -18.9466  -30.1464   23.8909 C   0  0  0  0  0  0
  -17.6468  -30.6598   24.0589 C   0  0  0  0  0  0
  -25.9047  -34.9481   23.5131 C   0  0  0  0  0  0
  -16.5360  -29.9110   23.6321 C   0  0  0  0  0  0
  -16.7273  -28.6524   23.0346 C   0  0  0  0  0  0
  -26.4481  -31.6608   25.0722 C   0  0  0  0  0  0
  -25.3733  -31.3733   26.1464 C   0  0  0  0  0  0
  -27.0309  -30.3051   24.6109 C   0  0  0  0  0  0
  -27.6046  -32.4333   25.7488 C   0  0  0  0  0  0
  -27.5570  -37.1817   24.8467 C   0  0  0  0  0  0
  -21.4157  -29.3068   22.3691 N   0  0  0  0  0  0
  -26.4288  -37.3802   23.9406 N   0  0  0  0  0  0
  -24.6735  -31.0749   22.0968 N   0  0  0  0  0  0
  -23.4198  -28.8223   23.2992 O   0  0  0  0  0  0
  -28.3603  -26.6018   20.1055 O   0  0  0  0  0  0
  -26.5598  -34.8945   22.4684 O   0  0  0  0  0  0
  -23.5377  -32.1436   23.7451 O   0  0  0  0  0  0
  -30.3699  -19.4225   20.1731 C   0  0  0  0  0  0
  -28.3155  -19.7302   22.0074 C   0  0  0  0  0  0
  -29.6717  -18.2573   20.5808 C   0  0  0  0  0  0
  -29.0521  -20.8831   21.6382 C   0  0  0  0  0  0
  -28.6198  -18.4340   21.5188 C   0  0  0  0  0  0
  -30.1118  -20.7166   20.7126 C   0  0  0  0  0  0
  -28.7382  -23.2946   22.1369 C   0  0  0  0  0  0
  -29.4543  -16.8340   18.5019 C   0  0  0  0  0  0
  -32.2327  -21.5539   19.9977 C   0  0  0  0  0  0
  -28.6463  -24.1268   20.8420 C   0  0  0  0  0  0
  -28.4332  -25.6471   21.1917 C   0  0  0  0  0  0
  -30.0858  -16.9159   19.9044 C   0  0  2  0  0  0
  -28.8507  -22.0430   22.4255 N   0  0  0  0  0  0
  -27.8798  -17.3595   22.0125 N   0  0  0  0  0  0
  -29.8550  -15.6192   20.5972 N   0  0  0  0  0  0
  -30.8982  -21.8078   20.4213 O   0  0  0  0  0  0
  -31.4686  -12.4094   19.1586 H   0  0  0  0  0  0
  -30.3138  -11.3217   19.8770 H   0  0  0  0  0  0
  -29.7545  -11.7515   17.4595 H   0  0  0  0  0  0
  -29.6693  -13.4679   17.7669 H   0  0  0  0  0  0
  -27.8351  -11.3002   18.8355 H   0  0  0  0  0  0
  -27.3781  -12.6138   17.7834 H   0  0  0  0  0  0
  -27.6737  -14.2525   19.5344 H   0  0  0  0  0  0
  -28.6703  -12.0350   21.3984 H   0  0  0  0  0  0
  -28.4617  -13.7092   21.8366 H   0  0  0  0  0  0
  -25.2730   -9.5718   22.4750 H   0  0  0  0  0  0
  -23.9998   -7.4648   22.7478 H   0  0  0  0  0  0
  -21.0815   -8.8744   19.8961 H   0  0  0  0  0  0
  -22.3642  -10.9650   19.6163 H   0  0  0  0  0  0
  -21.2016   -7.6147   23.9712 H   0  0  0  0  0  0
  -21.1492   -6.0520   25.9078 H   0  0  0  0  0  0
  -22.0593   -2.7602   23.2828 H   0  0  0  0  0  0
  -22.4041  -11.9954   22.4847 H   0  0  0  0  0  0
  -21.1062  -13.1304   22.2548 H   0  0  0  0  0  0
  -24.6638  -15.8435   20.5864 H   0  0  0  0  0  0
  -26.3100  -15.6585   20.2663 H   0  0  0  0  0  0
  -26.7157  -32.5526   23.1149 H   0  0  0  0  0  0
  -25.0099  -33.9775   25.0488 H   0  0  0  0  0  0
  -22.6999  -31.3088   21.4017 H   0  0  0  0  0  0
  -23.3733  -35.9643   23.3329 H   0  0  0  0  0  0
  -24.3587  -36.8906   22.2053 H   0  0  0  0  0  0
  -23.7234  -37.6521   23.6644 H   0  0  0  0  0  0
  -26.0557  -31.5872   20.5889 H   0  0  0  0  0  0
  -26.8280  -30.8837   21.9785 H   0  0  0  0  0  0
  -28.1082  -29.0775   21.1807 H   0  0  0  0  0  0
  -26.0605  -25.9447   19.0391 H   0  0  0  0  0  0
  -23.9825  -27.2859   19.0399 H   0  0  0  0  0  0
  -23.7392  -30.5982   19.4015 H   0  0  0  0  0  0
  -22.7421  -29.2490   19.8560 H   0  0  0  0  0  0
  -25.1285  -36.1970   25.0817 H   0  0  0  0  0  0
  -20.9998  -28.3278   24.1412 H   0  0  0  0  0  0
  -20.5697  -26.2317   23.3618 H   0  0  0  0  0  0
  -21.6636  -26.7462   22.1204 H   0  0  0  0  0  0
  -19.6904  -25.6305   21.1248 H   0  0  0  0  0  0
  -19.6674  -27.3217   20.6768 H   0  0  0  0  0  0
  -17.4198  -26.6721   21.4021 H   0  0  0  0  0  0
  -18.0301  -26.0077   22.9029 H   0  0  0  0  0  0
  -19.7944  -30.7283   24.2275 H   0  0  0  0  0  0
  -17.5026  -31.6271   24.5208 H   0  0  0  0  0  0
  -15.5367  -30.3029   23.7621 H   0  0  0  0  0  0
  -15.8671  -28.0851   22.7042 H   0  0  0  0  0  0
  -24.5896  -30.7096   25.7800 H   0  0  0  0  0  0
  -24.8935  -32.2903   26.4893 H   0  0  0  0  0  0
  -25.8088  -30.8909   27.0226 H   0  0  0  0  0  0
  -26.2868  -29.6813   24.1152 H   0  0  0  0  0  0
  -27.4081  -29.7291   25.4561 H   0  0  0  0  0  0
  -27.8694  -30.4367   23.9267 H   0  0  0  0  0  0
  -27.2655  -33.3627   26.2068 H   0  0  0  0  0  0
  -28.3850  -32.6916   25.0319 H   0  0  0  0  0  0
  -28.0715  -31.8459   26.5398 H   0  0  0  0  0  0
  -28.2613  -38.0094   24.7505 H   0  0  0  0  0  0
  -28.1050  -36.2635   24.6303 H   0  0  0  0  0  0
  -27.2302  -37.1472   25.8878 H   0  0  0  0  0  0
  -20.9322  -29.8807   21.6924 H   0  0  0  0  0  0
  -26.0174  -38.2875   24.1415 H   0  0  0  0  0  0
  -31.1479  -19.2985   19.4364 H   0  0  0  0  0  0
  -27.5394  -19.8367   22.7512 H   0  0  0  0  0  0
  -28.6630  -23.9618   23.0002 H   0  0  0  0  0  0
  -29.7268  -17.6964   17.8913 H   0  0  0  0  0  0
  -28.3663  -16.8030   18.5569 H   0  0  0  0  0  0
  -29.7799  -15.9447   17.9595 H   0  0  0  0  0  0
  -32.2717  -21.2152   18.9619 H   0  0  0  0  0  0
  -32.7221  -20.8144   20.6335 H   0  0  0  0  0  0
  -32.8108  -22.4745   20.0659 H   0  0  0  0  0  0
  -27.8183  -23.7544   20.2380 H   0  0  0  0  0  0
  -29.5599  -24.0044   20.2625 H   0  0  0  0  0  0
  -27.5519  -25.7387   21.8293 H   0  0  0  0  0  0
  -29.2650  -25.9774   21.8156 H   0  0  0  0  0  0
  -31.1624  -17.0076   19.7577 H   0  0  0  0  0  0
  -27.2383  -17.5886   22.7645 H   0  0  0  0  0  0
  -28.4376  -16.5587   22.2834 H   0  0  0  0  0  0
  -28.8972  -15.4284   20.8453 H   0  0  0  0  0  0
  1 25  1  0  0  0
  1 30  2  0  0  0
  1 85  1  0  0  0
  2  3  1  0  0  0
  2 25  1  0  0  0
  2 87  1  0  0  0
  2 88  1  0  0  0
  3  4  1  0  0  0
  3 89  1  0  0  0
  3 90  1  0  0  0
  4  5  1  0  0  0
  4 91  1  0  0  0
  4 92  1  0  0  0
  5  6  1  0  0  0
  5 26  1  0  0  0
  5 93  1  0  0  0
  6 25  1  0  0  0
  6 94  1  0  0  0
  6 95  1  0  0  0
  7  8  2  0  0  0
  7 26  1  0  0  0
  7 29  1  0  0  0
  8  9  1  0  0  0
  8 22  1  0  0  0
  9 10  1  0  0  0
  9 27  2  0  0  0
 10 11  2  0  0  0
 10 15  1  0  0  0
 11 12  1  0  0  0
 11 96  1  0  0  0
 12 13  2  0  0  0
 12 97  1  0  0  0
 13 14  1  0  0  0
 13 31  1  0  0  0
 14 15  2  0  0  0
 14 98  1  0  0  0
 15 99  1  0  0  0
 16 17  2  0  0  0
 16 21  1  0  0  0
 16 31  1  0  0  0
 17 18  1  0  0  0
 17100  1  0  0  0
 18 19  2  0  0  0
 18101  1  0  0  0
 19 20  1  0  0  0
 19 24  1  0  0  0
 20 21  2  0  0  0
 20102  1  0  0  0
 21 23  1  0  0  0
 22 28  1  0  0  0
 22 32  2  0  0  0
 26 27  1  0  0  0
 28103  1  0  0  0
 28104  1  0  0  0
 29105  1  0  0  0
 29106  1  0  0  0
 33 34  1  0  0  0
 33 66  1  0  0  0
 33 70  2  0  0  0
 34 36  1  0  0  0
 34 59  1  0  0  0
 34107  1  0  0  0
 35 44  2  0  0  0
 35 45  1  0  0  0
 35 68  1  0  0  0
 36 56  1  0  0  0
 36108  1  0  0  0
 37 39  1  0  0  0
 37 47  1  0  0  0
 37 66  1  0  0  0
 37109  1  0  0  0
 38 43  2  0  0  0
 38 46  1  0  0  0
 38 47  1  0  0  0
 39 64  1  0  0  0
 39 67  2  0  0  0
 40 52  1  0  0  0
 40 53  2  0  0  0
 40 58  1  0  0  0
 41110  1  0  0  0
 41111  1  0  0  0
 41112  1  0  0  0
 41 48  1  0  0  0
 42 43  1  0  0  0
 42 66  1  0  0  0
 42113  1  0  0  0
 42114  1  0  0  0
 43 44  1  0  0  0
 44115  1  0  0  0
 45 46  2  0  0  0
 45116  1  0  0  0
 46117  1  0  0  0
 47118  1  0  0  0
 47119  1  0  0  0
 48 56  1  0  0  0
 48 65  1  0  0  0
 48120  1  0  0  0
 49 50  1  0  0  0
 49 53  1  0  0  0
 49 64  1  0  0  0
 49121  1  0  0  0
 50 51  1  0  0  0
 50122  1  0  0  0
 50123  1  0  0  0
 51 52  1  0  0  0
 51124  1  0  0  0
 51125  1  0  0  0
 52126  1  0  0  0
 52127  1  0  0  0
 53 54  1  0  0  0
 54 55  2  0  0  0
 54128  1  0  0  0
 55 57  1  0  0  0
 55129  1  0  0  0
 56 69  2  0  0  0
 57 58  2  0  0  0
 57130  1  0  0  0
 58131  1  0  0  0
 59 60  1  0  0  0
 59 61  1  0  0  0
 59 62  1  0  0  0
 60132  1  0  0  0
 60133  1  0  0  0
 60134  1  0  0  0
 61135  1  0  0  0
 61136  1  0  0  0
 61137  1  0  0  0
 62138  1  0  0  0
 62139  1  0  0  0
 62140  1  0  0  0
 63 65  1  0  0  0
 63141  1  0  0  0
 63142  1  0  0  0
 63143  1  0  0  0
 64144  1  0  0  0
 65145  1  0  0  0
 68 81  1  0  0  0
 71 73  2  0  0  0
 71 76  1  0  0  0
 71146  1  0  0  0
 72 74  1  0  0  0
 72 75  2  0  0  0
 72147  1  0  0  0
 73 75  1  0  0  0
 73 82  1  0  0  0
 74 76  2  0  0  0
 74 83  1  0  0  0
 75 84  1  0  0  0
 76 86  1  0  0  0
 77 80  1  0  0  0
 77 83  2  0  0  0
 77148  1  0  0  0
 78149  1  0  0  0
 78150  1  0  0  0
 78151  1  0  0  0
 78 82  1  0  0  0
 79 86  1  0  0  0
 79152  1  0  0  0
 79153  1  0  0  0
 79154  1  0  0  0
 80 81  1  0  0  0
 80155  1  0  0  0
 80156  1  0  0  0
 81157  1  0  0  0
 81158  1  0  0  0
 82 85  1  0  0  0
 82159  1  0  0  0
 84160  1  0  0  0
 84161  1  0  0  0
 85162  1  0  0  0
M  ISO  4   1 100  68 101  81 101  85 100
M  END
> <chiral flag>
0

> <version>
0

> <s_m_source_file>
/data/baiqing/PycharmProjects/Reinvent-master-3.2/result/LINK_invent/BTK/process_docking_weight1_custom_product_contain_oxygen_bond_distance_aromatic_linkinvent_7_9_3/rearranged_h_0106.sdf

> <i_m_source_file_index>
47

> <r_mmod_Potential_Energy-OPLS-2005>
40.8647994995117

> <r_mmod_Stretch_Energy-OPLS-2005>
51.080020904541

> <r_mmod_Bend_Energy-OPLS-2005>
164.698318481445

> <r_mmod_Torsional_Energy-OPLS-2005>
268.274993896484

> <r_mmod_Improper_Torsional_Energy-OPLS-2005>
17.1023464202881

> <r_mmod_Van_der_Waal_Energy-OPLS-2005>
147.910339355469

> <r_mmod_Electrostatic_Energy-OPLS-2005>
-414.048828125

> <r_mmod_Solvation_Energy-OPLS-2005>
-218.247848510742

> <b_mmod_Minimization_Converged-OPLS-2005>
0

> <r_mmod_RMS_Derivative-OPLS-2005>
2.82087326049805

$$$$
47
                    3D
 Structure written by MMmdl.
156164  0  0  1  0            999 V2000
  -30.5926  -14.6614   20.4908 C   0  0  0  0  0  0
  -30.4447  -12.4035   19.4625 C   0  0  0  0  0  0
  -29.5143  -12.4952   18.2316 C   0  0  0  0  0  0
  -28.0354  -12.3252   18.6385 C   0  0  0  0  0  0
  -27.6462  -13.2082   19.8528 C   0  0  2  0  0  0
  -28.6867  -13.0818   20.9876 C   0  0  0  0  0  0
  -25.2512  -13.8136   20.5628 C   0  0  0  0  0  0
  -24.1791  -13.0423   20.9189 C   0  0  0  0  0  0
  -24.6346  -11.6889   20.8733 C   0  0  0  0  0  0
  -23.9020  -10.4286   21.0406 C   0  0  0  0  0  0
  -24.3582   -9.4210   21.9186 C   0  0  0  0  0  0
  -23.6268   -8.2236   22.0747 C   0  0  0  0  0  0
  -22.4257   -8.0264   21.3532 C   0  0  0  0  0  0
  -21.9878   -9.0236   20.4640 C   0  0  0  0  0  0
  -22.7189  -10.2120   20.3055 C   0  0  0  0  0  0
  -21.6850   -6.0726   22.5287 C   0  0  0  0  0  0
  -21.4015   -6.5634   23.8215 C   0  0  0  0  0  0
  -21.3657   -5.6784   24.9178 C   0  0  0  0  0  0
  -21.6038   -4.3048   24.7229 C   0  0  0  0  0  0
  -21.8818   -3.8139   23.4353 C   0  0  0  0  0  0
  -21.9191   -4.6953   22.3409 C   0  0  0  0  0  0
  -22.7821  -13.5224   21.1878 C   0  0  0  0  0  0
  -22.1661   -4.2140   21.0982 F   0  0  0  0  0  0
  -21.5628   -3.4534   25.7743 F   0  0  0  0  0  0
  -30.0028  -13.4276   20.4256 N   0  0  0  0  0  0
  -26.2929  -12.9309   20.3231 N   0  0  0  0  0  0
  -25.9267  -11.6479   20.5720 N   0  0  0  0  0  0
  -22.0447  -12.8239   22.0440 N   0  0  0  0  0  0
  -25.4179  -15.1862   20.3993 N   0  0  0  0  0  0
  -31.7744  -14.8320   20.1742 O   0  0  0  0  0  0
  -21.6627   -6.8860   21.4239 O   0  0  0  0  0  0
  -22.3511  -14.5523   20.6703 O   0  0  0  0  0  0
  -24.6278  -31.8614   23.2044 C   0  0  0  0  0  0
  -25.9129  -32.4787   23.8368 C   0  0  1  0  0  0
  -27.2204  -27.3218   20.1074 C   0  0  0  0  0  0
  -25.5952  -33.8588   24.2301 N   0  0  0  0  0  0
  -23.4192  -30.4879   21.5472 C   0  0  2  0  0  0
  -24.8623  -28.9457   20.1059 C   0  0  0  0  0  0
  -22.7480  -29.4646   22.4939 C   0  0  0  0  0  0
  -18.0301  -28.1407   22.8491 C   0  0  0  0  0  0
  -24.1493  -36.7278   23.2634 C   0  0  0  0  0  0
  -25.9606  -30.7894   21.3764 C   0  0  0  0  0  0
  -26.0304  -29.4192   20.7152 C   0  0  0  0  0  0
  -27.2104  -28.6183   20.7087 C   0  0  0  0  0  0
  -26.0314  -26.9100   19.4586 C   0  0  0  0  0  0
  -24.8648  -27.6967   19.4689 C   0  0  0  0  0  0
  -23.6318  -29.8271   20.1596 C   0  0  0  0  0  0
  -25.4117  -36.3084   24.0338 C   0  0  1  0  0  0
  -20.5902  -28.3724   23.1275 C   0  0  2  0  0  0
  -20.6804  -26.9453   22.5397 C   0  0  0  0  0  0
  -19.5768  -26.6419   21.5212 C   0  0  0  0  0  0
  -18.1948  -26.7948   22.1633 C   0  0  0  0  0  0
  -19.1555  -28.8881   23.2876 C   0  0  0  0  0  0
  -18.9469  -30.1482   23.8894 C   0  0  0  0  0  0
  -17.6471  -30.6605   24.0581 C   0  0  0  0  0  0
  -25.9053  -34.9460   23.5110 C   0  0  0  0  0  0
  -16.5364  -29.9108   23.6336 C   0  0  0  0  0  0
  -16.7286  -28.6528   23.0347 C   0  0  0  0  0  0
  -26.4506  -31.6593   25.0736 C   0  0  0  0  0  0
  -25.3740  -31.3728   26.1462 C   0  0  0  0  0  0
  -27.0334  -30.3017   24.6181 C   0  0  0  0  0  0
  -27.6078  -32.4319   25.7495 C   0  0  0  0  0  0
  -27.5576  -37.1807   24.8475 C   0  0  0  0  0  0
  -21.4199  -29.3070   22.3660 N   0  0  0  0  0  0
  -26.4296  -37.3781   23.9411 N   0  0  0  0  0  0
  -24.6878  -31.0634   22.0988 N   0  0  0  0  0  0
  -23.4201  -28.8181   23.3020 O   0  0  0  0  0  0
  -28.3390  -26.4734   20.1771 O   0  0  0  0  0  0
  -26.5609  -34.8927   22.4667 O   0  0  0  0  0  0
  -23.5449  -32.1418   23.7383 O   0  0  0  0  0  0
  -29.0885  -19.3683   19.7582 C   0  0  0  0  0  0
  -30.5241  -17.8789   21.6564 C   0  0  0  0  0  0
  -29.1343  -17.9365   19.6837 C   0  0  0  0  0  0
  -29.8557  -17.1548   20.6386 C   0  0  0  0  0  0
  -30.4602  -19.3016   21.7359 C   0  0  0  0  0  0
  -29.7438  -20.0914   20.7917 C   0  0  0  0  0  0
  -28.3910  -17.2439   18.5519 C   0  0  0  0  0  0
  -29.1632  -23.9716   20.5389 C   0  0  0  0  0  0
  -28.1520  -25.0265   19.9169 C   0  0  0  0  0  0
  -28.9139  -22.4266   20.2081 C   0  0  0  0  0  0
  -31.0900  -19.9531   22.7974 N   0  0  0  0  0  0
  -29.7211  -15.6996   20.6947 N   0  0  0  0  0  0
  -29.7559  -21.4963   20.9592 O   0  0  0  0  0  0
  -31.4850  -12.5469   19.1655 H   0  0  0  0  0  0
  -30.3962  -11.4137   19.9175 H   0  0  0  0  0  0
  -29.7925  -11.7415   17.4945 H   0  0  0  0  0  0
  -29.6486  -13.4619   17.7459 H   0  0  0  0  0  0
  -27.8790  -11.2744   18.8832 H   0  0  0  0  0  0
  -27.3834  -12.5379   17.7904 H   0  0  0  0  0  0
  -27.6554  -14.2352   19.4910 H   0  0  0  0  0  0
  -28.6994  -12.0670   21.3864 H   0  0  0  0  0  0
  -28.4224  -13.7280   21.8271 H   0  0  0  0  0  0
  -25.2725   -9.5704   22.4759 H   0  0  0  0  0  0
  -23.9993   -7.4625   22.7458 H   0  0  0  0  0  0
  -21.0816   -8.8732   19.8941 H   0  0  0  0  0  0
  -22.3636  -10.9652   19.6164 H   0  0  0  0  0  0
  -21.2010   -7.6142   23.9721 H   0  0  0  0  0  0
  -21.1481   -6.0516   25.9080 H   0  0  0  0  0  0
  -22.0600   -2.7605   23.2855 H   0  0  0  0  0  0
  -22.4042  -11.9903   22.4865 H   0  0  0  0  0  0
  -21.1059  -13.1273   22.2620 H   0  0  0  0  0  0
  -24.6352  -15.8262   20.4783 H   0  0  0  0  0  0
  -26.2490  -15.6262   20.0317 H   0  0  0  0  0  0
  -26.7179  -32.5438   23.1102 H   0  0  0  0  0  0
  -25.0157  -33.9738   25.0486 H   0  0  0  0  0  0
  -22.7148  -31.3107   21.4074 H   0  0  0  0  0  0
  -23.3761  -35.9601   23.3324 H   0  0  0  0  0  0
  -24.3559  -36.8864   22.2033 H   0  0  0  0  0  0
  -23.7254  -37.6499   23.6624 H   0  0  0  0  0  0
  -26.0982  -31.5545   20.6115 H   0  0  0  0  0  0
  -26.8386  -30.8295   22.0079 H   0  0  0  0  0  0
  -28.1045  -28.9764   21.1986 H   0  0  0  0  0  0
  -25.9706  -25.9656   18.9376 H   0  0  0  0  0  0
  -23.9730  -27.3366   18.9745 H   0  0  0  0  0  0
  -23.7498  -30.6070   19.4063 H   0  0  0  0  0  0
  -22.7495  -29.2607   19.8551 H   0  0  0  0  0  0
  -25.1296  -36.1929   25.0833 H   0  0  0  0  0  0
  -20.9995  -28.3295   24.1395 H   0  0  0  0  0  0
  -20.5736  -26.2328   23.3592 H   0  0  0  0  0  0
  -21.6665  -26.7504   22.1162 H   0  0  0  0  0  0
  -19.6935  -25.6329   21.1237 H   0  0  0  0  0  0
  -19.6698  -27.3235   20.6741 H   0  0  0  0  0  0
  -17.4219  -26.6703   21.4036 H   0  0  0  0  0  0
  -18.0355  -26.0089   22.9029 H   0  0  0  0  0  0
  -19.7942  -30.7311   24.2251 H   0  0  0  0  0  0
  -17.5023  -31.6271   24.5209 H   0  0  0  0  0  0
  -15.5364  -30.3018   23.7660 H   0  0  0  0  0  0
  -15.8682  -28.0853   22.7056 H   0  0  0  0  0  0
  -24.5936  -30.7046   25.7797 H   0  0  0  0  0  0
  -24.8900  -32.2884   26.4873 H   0  0  0  0  0  0
  -25.8075  -30.8928   27.0247 H   0  0  0  0  0  0
  -26.2886  -29.6785   24.1210 H   0  0  0  0  0  0
  -27.4036  -29.7263   25.4680 H   0  0  0  0  0  0
  -27.8771  -30.4315   23.9397 H   0  0  0  0  0  0
  -27.2717  -33.3648   26.2042 H   0  0  0  0  0  0
  -28.3902  -32.6837   25.0317 H   0  0  0  0  0  0
  -28.0726  -31.8452   26.5436 H   0  0  0  0  0  0
  -28.2626  -38.0075   24.7488 H   0  0  0  0  0  0
  -28.1048  -36.2608   24.6348 H   0  0  0  0  0  0
  -27.2276  -37.1497   25.8876 H   0  0  0  0  0  0
  -20.9385  -29.8759   21.6827 H   0  0  0  0  0  0
  -26.0181  -38.2863   24.1392 H   0  0  0  0  0  0
  -28.5298  -19.9108   19.0086 H   0  0  0  0  0  0
  -31.0580  -17.3294   22.4184 H   0  0  0  0  0  0
  -28.1000  -17.9515   17.7750 H   0  0  0  0  0  0
  -27.4878  -16.7529   18.9130 H   0  0  0  0  0  0
  -29.0258  -16.4903   18.0847 H   0  0  0  0  0  0
  -30.1766  -24.2354   20.2346 H   0  0  0  0  0  0
  -29.1434  -24.0933   21.6230 H   0  0  0  0  0  0
  -28.1326  -24.8887   18.8344 H   0  0  0  0  0  0
  -27.1720  -24.7212   20.2844 H   0  0  0  0  0  0
  -29.0608  -22.2625   19.1397 H   0  0  0  0  0  0
  -27.8724  -22.1851   20.4225 H   0  0  0  0  0  0
  -30.7491  -20.8926   22.9805 H   0  0  0  0  0  0
  -31.2293  -19.4270   23.6546 H   0  0  0  0  0  0
  -28.7711  -15.3802   20.8014 H   0  0  0  0  0  0
  1 25  1  0  0  0
  1 30  2  0  0  0
  1 82  1  0  0  0
  2  3  1  0  0  0
  2 25  1  0  0  0
  2 84  1  0  0  0
  2 85  1  0  0  0
  3  4  1  0  0  0
  3 86  1  0  0  0
  3 87  1  0  0  0
  4  5  1  0  0  0
  4 88  1  0  0  0
  4 89  1  0  0  0
  5  6  1  0  0  0
  5 26  1  0  0  0
  5 90  1  0  0  0
  6 25  1  0  0  0
  6 91  1  0  0  0
  6 92  1  0  0  0
  7  8  2  0  0  0
  7 26  1  0  0  0
  7 29  1  0  0  0
  8  9  1  0  0  0
  8 22  1  0  0  0
  9 10  1  0  0  0
  9 27  2  0  0  0
 10 11  2  0  0  0
 10 15  1  0  0  0
 11 12  1  0  0  0
 11 93  1  0  0  0
 12 13  2  0  0  0
 12 94  1  0  0  0
 13 14  1  0  0  0
 13 31  1  0  0  0
 14 15  2  0  0  0
 14 95  1  0  0  0
 15 96  1  0  0  0
 16 17  2  0  0  0
 16 21  1  0  0  0
 16 31  1  0  0  0
 17 18  1  0  0  0
 17 97  1  0  0  0
 18 19  2  0  0  0
 18 98  1  0  0  0
 19 20  1  0  0  0
 19 24  1  0  0  0
 20 21  2  0  0  0
 20 99  1  0  0  0
 21 23  1  0  0  0
 22 28  1  0  0  0
 22 32  2  0  0  0
 26 27  1  0  0  0
 28100  1  0  0  0
 28101  1  0  0  0
 29102  1  0  0  0
 29103  1  0  0  0
 33 34  1  0  0  0
 33 66  1  0  0  0
 33 70  2  0  0  0
 34 36  1  0  0  0
 34 59  1  0  0  0
 34104  1  0  0  0
 35 44  2  0  0  0
 35 45  1  0  0  0
 35 68  1  0  0  0
 36 56  1  0  0  0
 36105  1  0  0  0
 37 39  1  0  0  0
 37 47  1  0  0  0
 37 66  1  0  0  0
 37106  1  0  0  0
 38 43  2  0  0  0
 38 46  1  0  0  0
 38 47  1  0  0  0
 39 64  1  0  0  0
 39 67  2  0  0  0
 40 52  1  0  0  0
 40 53  2  0  0  0
 40 58  1  0  0  0
 41107  1  0  0  0
 41108  1  0  0  0
 41109  1  0  0  0
 41 48  1  0  0  0
 42 43  1  0  0  0
 42 66  1  0  0  0
 42110  1  0  0  0
 42111  1  0  0  0
 43 44  1  0  0  0
 44112  1  0  0  0
 45 46  2  0  0  0
 45113  1  0  0  0
 46114  1  0  0  0
 47115  1  0  0  0
 47116  1  0  0  0
 48 56  1  0  0  0
 48 65  1  0  0  0
 48117  1  0  0  0
 49 50  1  0  0  0
 49 53  1  0  0  0
 49 64  1  0  0  0
 49118  1  0  0  0
 50 51  1  0  0  0
 50119  1  0  0  0
 50120  1  0  0  0
 51 52  1  0  0  0
 51121  1  0  0  0
 51122  1  0  0  0
 52123  1  0  0  0
 52124  1  0  0  0
 53 54  1  0  0  0
 54 55  2  0  0  0
 54125  1  0  0  0
 55 57  1  0  0  0
 55126  1  0  0  0
 56 69  2  0  0  0
 57 58  2  0  0  0
 57127  1  0  0  0
 58128  1  0  0  0
 59 60  1  0  0  0
 59 61  1  0  0  0
 59 62  1  0  0  0
 60129  1  0  0  0
 60130  1  0  0  0
 60131  1  0  0  0
 61132  1  0  0  0
 61133  1  0  0  0
 61134  1  0  0  0
 62135  1  0  0  0
 62136  1  0  0  0
 62137  1  0  0  0
 63 65  1  0  0  0
 63138  1  0  0  0
 63139  1  0  0  0
 63140  1  0  0  0
 64141  1  0  0  0
 65142  1  0  0  0
 68 79  1  0  0  0
 71 73  2  0  0  0
 71 76  1  0  0  0
 71143  1  0  0  0
 72 74  2  0  0  0
 72 75  1  0  0  0
 72144  1  0  0  0
 73 74  1  0  0  0
 73 77  1  0  0  0
 74 82  1  0  0  0
 75 76  2  0  0  0
 75 81  1  0  0  0
 76 83  1  0  0  0
 77145  1  0  0  0
 77146  1  0  0  0
 77147  1  0  0  0
 78 79  1  0  0  0
 78 80  1  0  0  0
 78148  1  0  0  0
 78149  1  0  0  0
 79150  1  0  0  0
 79151  1  0  0  0
 80 83  1  0  0  0
 80152  1  0  0  0
 80153  1  0  0  0
 81154  1  0  0  0
 81155  1  0  0  0
 82156  1  0  0  0
M  ISO  4   1 100  68 101  79 101  82 100
M  END
> <chiral flag>
0

> <version>
0

> <s_m_source_file>
/data/baiqing/PycharmProjects/Reinvent-master-3.2/result/LINK_invent/BTK/process_docking_weight1_custom_product_contain_oxygen_bond_distance_aromatic_linkinvent_7_9_3/rearranged_h_0106.sdf

> <i_m_source_file_index>
48

> <r_mmod_Potential_Energy-OPLS-2005>
40.5813636779785

> <r_mmod_Stretch_Energy-OPLS-2005>
77.9691390991211

> <r_mmod_Bend_Energy-OPLS-2005>
141.757217407227

> <r_mmod_Torsional_Energy-OPLS-2005>
240.031539916992

> <r_mmod_Improper_Torsional_Energy-OPLS-2005>
11.209813117981

> <r_mmod_Van_der_Waal_Energy-OPLS-2005>
140.483016967773

> <r_mmod_Electrostatic_Energy-OPLS-2005>
-397.081329345703

> <r_mmod_Solvation_Energy-OPLS-2005>
-229.394943237305

> <b_mmod_Minimization_Converged-OPLS-2005>
0

> <r_mmod_RMS_Derivative-OPLS-2005>
2.329922914505

$$$$
48
                    3D
 Structure written by MMmdl.
162170  0  0  1  0            999 V2000
  -30.7016  -14.6683   20.5680 C   0  0  0  0  0  0
  -30.4360  -12.4290   19.4999 C   0  0  0  0  0  0
  -29.5160  -12.5258   18.2614 C   0  0  0  0  0  0
  -28.0459  -12.3305   18.6731 C   0  0  0  0  0  0
  -27.6569  -13.2267   19.8760 C   0  0  2  0  0  0
  -28.7033  -13.1433   21.0175 C   0  0  0  0  0  0
  -25.2353  -13.7871   20.5307 C   0  0  0  0  0  0
  -24.1770  -13.0244   20.9098 C   0  0  0  0  0  0
  -24.6416  -11.6748   20.8795 C   0  0  0  0  0  0
  -23.9105  -10.4164   21.0464 C   0  0  0  0  0  0
  -24.3636   -9.4092   21.9218 C   0  0  0  0  0  0
  -23.6255   -8.2176   22.0814 C   0  0  0  0  0  0
  -22.4219   -8.0260   21.3623 C   0  0  0  0  0  0
  -21.9889   -9.0245   20.4751 C   0  0  0  0  0  0
  -22.7273  -10.2076   20.3120 C   0  0  0  0  0  0
  -21.6853   -6.0702   22.5267 C   0  0  0  0  0  0
  -21.4057   -6.5637   23.8207 C   0  0  0  0  0  0
  -21.3624   -5.6783   24.9159 C   0  0  0  0  0  0
  -21.6000   -4.3051   24.7221 C   0  0  0  0  0  0
  -21.8842   -3.8134   23.4354 C   0  0  0  0  0  0
  -21.9198   -4.6920   22.3403 C   0  0  0  0  0  0
  -22.7784  -13.5067   21.1753 C   0  0  0  0  0  0
  -22.1659   -4.2126   21.0981 F   0  0  0  0  0  0
  -21.5568   -3.4543   25.7734 F   0  0  0  0  0  0
  -30.0319  -13.4682   20.4735 N   0  0  0  0  0  0
  -26.3032  -12.9270   20.3442 N   0  0  0  0  0  0
  -25.9417  -11.6416   20.5973 N   0  0  0  0  0  0
  -22.0475  -12.8227   22.0470 N   0  0  0  0  0  0
  -25.3617  -15.1442   20.2853 N   0  0  0  0  0  0
  -31.7626  -14.8334   19.9604 O   0  0  0  0  0  0
  -21.6603   -6.8859   21.4253 O   0  0  0  0  0  0
  -22.3517  -14.5352   20.6520 O   0  0  0  0  0  0
  -24.6353  -31.8606   23.1939 C   0  0  0  0  0  0
  -25.9169  -32.4795   23.8285 C   0  0  1  0  0  0
  -27.2279  -27.2662   20.1278 C   0  0  0  0  0  0
  -25.5974  -33.8590   24.2236 N   0  0  0  0  0  0
  -23.4289  -30.4793   21.5414 C   0  0  2  0  0  0
  -24.8724  -28.9256   20.1087 C   0  0  0  0  0  0
  -22.7507  -29.4620   22.4929 C   0  0  0  0  0  0
  -18.0330  -28.1389   22.8512 C   0  0  0  0  0  0
  -24.1484  -36.7243   23.2635 C   0  0  0  0  0  0
  -25.9730  -30.7741   21.3716 C   0  0  0  0  0  0
  -26.0452  -29.3972   20.7119 C   0  0  0  0  0  0
  -27.2252  -28.5837   20.7010 C   0  0  0  0  0  0
  -26.0200  -26.8595   19.5131 C   0  0  0  0  0  0
  -24.8632  -27.6639   19.5005 C   0  0  0  0  0  0
  -23.6448  -29.8174   20.1542 C   0  0  0  0  0  0
  -25.4122  -36.3071   24.0338 C   0  0  1  0  0  0
  -20.5923  -28.3688   23.1312 C   0  0  2  0  0  0
  -20.6813  -26.9422   22.5425 C   0  0  0  0  0  0
  -19.5769  -26.6399   21.5236 C   0  0  0  0  0  0
  -18.1952  -26.7951   22.1646 C   0  0  0  0  0  0
  -19.1579  -28.8854   23.2913 C   0  0  0  0  0  0
  -18.9492  -30.1464   23.8918 C   0  0  0  0  0  0
  -17.6472  -30.6599   24.0550 C   0  0  0  0  0  0
  -25.9086  -34.9462   23.5094 C   0  0  0  0  0  0
  -16.5371  -29.9090   23.6304 C   0  0  0  0  0  0
  -16.7313  -28.6500   23.0368 C   0  0  0  0  0  0
  -26.4498  -31.6621   25.0689 C   0  0  0  0  0  0
  -25.3694  -31.3813   26.1395 C   0  0  0  0  0  0
  -27.0289  -30.3033   24.6131 C   0  0  0  0  0  0
  -27.6055  -32.4352   25.7472 C   0  0  0  0  0  0
  -27.5584  -37.1787   24.8470 C   0  0  0  0  0  0
  -21.4215  -29.3048   22.3685 N   0  0  0  0  0  0
  -26.4283  -37.3787   23.9438 N   0  0  0  0  0  0
  -24.6984  -31.0547   22.0926 N   0  0  0  0  0  0
  -23.4230  -28.8210   23.3052 O   0  0  0  0  0  0
  -28.3448  -26.3905   20.1614 O   0  0  0  0  0  0
  -26.5643  -34.8941   22.4655 O   0  0  0  0  0  0
  -23.5515  -32.1427   23.7230 O   0  0  0  0  0  0
  -28.0687  -16.4060   22.0668 C   0  0  0  0  0  0
  -27.8969  -18.4671   20.2117 C   0  0  0  0  0  0
  -26.8869  -17.1724   21.9858 C   0  0  0  0  0  0
  -29.1761  -16.6230   21.2131 C   0  0  0  0  0  0
  -26.7393  -18.0641   20.8979 C   0  0  0  0  0  0
  -29.1597  -17.8575   20.4526 C   0  0  0  0  0  0
  -25.8728  -17.0607   23.0894 C   0  0  0  0  0  0
  -29.8116  -21.0741   20.4160 C   0  0  0  0  0  0
  -28.8694  -22.2514   19.9349 C   0  0  0  0  0  0
  -30.2211  -19.8883   19.4506 C   0  0  0  0  0  0
  -29.2765  -23.7915   20.1798 C   0  0  0  0  0  0
  -28.1086  -24.9062   20.2038 C   0  0  0  0  0  0
  -25.5112  -18.5964   20.4808 N   0  0  0  0  0  0
  -24.8758  -16.2137   22.9043 N   0  0  0  0  0  0
  -30.2523  -15.6579   21.3997 N   0  0  0  0  0  0
  -25.9731  -17.7352   24.1143 O   0  0  0  0  0  0
  -30.1767  -21.0487   21.5939 O   0  0  0  0  0  0
  -30.3084  -18.5418   20.0537 O   0  0  0  0  0  0
  -31.4821  -12.5254   19.2055 H   0  0  0  0  0  0
  -30.3593  -11.4536   19.9817 H   0  0  0  0  0  0
  -29.7970  -11.7711   17.5289 H   0  0  0  0  0  0
  -29.6383  -13.4974   17.7776 H   0  0  0  0  0  0
  -27.9218  -11.2779   18.9443 H   0  0  0  0  0  0
  -27.3777  -12.5048   17.8324 H   0  0  0  0  0  0
  -27.6572  -14.2526   19.5050 H   0  0  0  0  0  0
  -28.7273  -12.1510   21.4693 H   0  0  0  0  0  0
  -28.4259  -13.8136   21.8218 H   0  0  0  0  0  0
  -25.2814   -9.5514   22.4752 H   0  0  0  0  0  0
  -23.9951   -7.4547   22.7509 H   0  0  0  0  0  0
  -21.0804   -8.8791   19.9051 H   0  0  0  0  0  0
  -22.3777  -10.9610   19.6212 H   0  0  0  0  0  0
  -21.2153   -7.6179   23.9713 H   0  0  0  0  0  0
  -21.1372   -6.0532   25.9059 H   0  0  0  0  0  0
  -22.0660   -2.7606   23.2869 H   0  0  0  0  0  0
  -22.4022  -11.9931   22.4982 H   0  0  0  0  0  0
  -21.1131  -13.1376   22.2702 H   0  0  0  0  0  0
  -24.5131  -15.5849   19.9473 H   0  0  0  0  0  0
  -26.1668  -15.4636   19.7634 H   0  0  0  0  0  0
  -26.7231  -32.5398   23.1011 H   0  0  0  0  0  0
  -25.0163  -33.9729   25.0403 H   0  0  0  0  0  0
  -22.7240  -31.3022   21.4049 H   0  0  0  0  0  0
  -23.3789  -35.9529   23.3303 H   0  0  0  0  0  0
  -24.3559  -36.8852   22.2038 H   0  0  0  0  0  0
  -23.7189  -37.6443   23.6630 H   0  0  0  0  0  0
  -26.1119  -31.5390   20.6047 H   0  0  0  0  0  0
  -26.8515  -30.8209   22.0023 H   0  0  0  0  0  0
  -28.1247  -28.9486   21.1777 H   0  0  0  0  0  0
  -25.9227  -25.9004   19.0348 H   0  0  0  0  0  0
  -23.9651  -27.2964   19.0234 H   0  0  0  0  0  0
  -23.7635  -30.6022   19.4051 H   0  0  0  0  0  0
  -22.7623  -29.2563   19.8467 H   0  0  0  0  0  0
  -25.1304  -36.1904   25.0833 H   0  0  0  0  0  0
  -21.0020  -28.3257   24.1438 H   0  0  0  0  0  0
  -20.5713  -26.2316   23.3627 H   0  0  0  0  0  0
  -21.6684  -26.7455   22.1214 H   0  0  0  0  0  0
  -19.6894  -25.6307   21.1281 H   0  0  0  0  0  0
  -19.6679  -27.3202   20.6751 H   0  0  0  0  0  0
  -17.4225  -26.6728   21.4049 H   0  0  0  0  0  0
  -18.0312  -26.0103   22.9042 H   0  0  0  0  0  0
  -19.7974  -30.7288   24.2302 H   0  0  0  0  0  0
  -17.5039  -31.6290   24.5150 H   0  0  0  0  0  0
  -15.5380  -30.2986   23.7620 H   0  0  0  0  0  0
  -15.8735  -28.0795   22.7088 H   0  0  0  0  0  0
  -24.5885  -30.7152   25.7713 H   0  0  0  0  0  0
  -24.8867  -32.3008   26.4729 H   0  0  0  0  0  0
  -25.8013  -30.9057   27.0207 H   0  0  0  0  0  0
  -26.2846  -29.6877   24.1090 H   0  0  0  0  0  0
  -27.3910  -29.7207   25.4608 H   0  0  0  0  0  0
  -27.8746  -30.4322   23.9384 H   0  0  0  0  0  0
  -27.2681  -33.3684   26.1997 H   0  0  0  0  0  0
  -28.3899  -32.6891   25.0326 H   0  0  0  0  0  0
  -28.0651  -31.8510   26.5446 H   0  0  0  0  0  0
  -28.2618  -38.0064   24.7575 H   0  0  0  0  0  0
  -28.1087  -36.2642   24.6251 H   0  0  0  0  0  0
  -27.2345  -37.1374   25.8876 H   0  0  0  0  0  0
  -20.9399  -29.8759   21.6871 H   0  0  0  0  0  0
  -26.0167  -38.2867   24.1450 H   0  0  0  0  0  0
  -28.1362  -15.6599   22.8430 H   0  0  0  0  0  0
  -27.7840  -19.3126   19.5474 H   0  0  0  0  0  0
  -27.9526  -22.0555   20.4935 H   0  0  0  0  0  0
  -28.5935  -22.0794   18.8923 H   0  0  0  0  0  0
  -31.2452  -20.0726   19.1208 H   0  0  0  0  0  0
  -29.6256  -19.8902   18.5345 H   0  0  0  0  0  0
  -29.9971  -24.0521   19.4062 H   0  0  0  0  0  0
  -29.8308  -23.8372   21.1154 H   0  0  0  0  0  0
  -27.5367  -24.7248   21.1140 H   0  0  0  0  0  0
  -27.4570  -24.6187   19.3855 H   0  0  0  0  0  0
  -24.6869  -18.1486   20.8747 H   0  0  0  0  0  0
  -25.4063  -18.6624   19.4696 H   0  0  0  0  0  0
  -24.8657  -15.6591   22.0450 H   0  0  0  0  0  0
  -24.1149  -16.1845   23.5646 H   0  0  0  0  0  0
  -30.2760  -15.3080   22.3481 H   0  0  0  0  0  0
  1 25  1  0  0  0
  1 30  2  0  0  0
  1 85  1  0  0  0
  2  3  1  0  0  0
  2 25  1  0  0  0
  2 89  1  0  0  0
  2 90  1  0  0  0
  3  4  1  0  0  0
  3 91  1  0  0  0
  3 92  1  0  0  0
  4  5  1  0  0  0
  4 93  1  0  0  0
  4 94  1  0  0  0
  5  6  1  0  0  0
  5 26  1  0  0  0
  5 95  1  0  0  0
  6 25  1  0  0  0
  6 96  1  0  0  0
  6 97  1  0  0  0
  7  8  2  0  0  0
  7 26  1  0  0  0
  7 29  1  0  0  0
  8  9  1  0  0  0
  8 22  1  0  0  0
  9 10  1  0  0  0
  9 27  2  0  0  0
 10 11  2  0  0  0
 10 15  1  0  0  0
 11 12  1  0  0  0
 11 98  1  0  0  0
 12 13  2  0  0  0
 12 99  1  0  0  0
 13 14  1  0  0  0
 13 31  1  0  0  0
 14 15  2  0  0  0
 14100  1  0  0  0
 15101  1  0  0  0
 16 17  2  0  0  0
 16 21  1  0  0  0
 16 31  1  0  0  0
 17 18  1  0  0  0
 17102  1  0  0  0
 18 19  2  0  0  0
 18103  1  0  0  0
 19 20  1  0  0  0
 19 24  1  0  0  0
 20 21  2  0  0  0
 20104  1  0  0  0
 21 23  1  0  0  0
 22 28  1  0  0  0
 22 32  2  0  0  0
 26 27  1  0  0  0
 28105  1  0  0  0
 28106  1  0  0  0
 29107  1  0  0  0
 29108  1  0  0  0
 33 34  1  0  0  0
 33 66  1  0  0  0
 33 70  2  0  0  0
 34 36  1  0  0  0
 34 59  1  0  0  0
 34109  1  0  0  0
 35 44  2  0  0  0
 35 45  1  0  0  0
 35 68  1  0  0  0
 36 56  1  0  0  0
 36110  1  0  0  0
 37 39  1  0  0  0
 37 47  1  0  0  0
 37 66  1  0  0  0
 37111  1  0  0  0
 38 43  2  0  0  0
 38 46  1  0  0  0
 38 47  1  0  0  0
 39 64  1  0  0  0
 39 67  2  0  0  0
 40 52  1  0  0  0
 40 53  2  0  0  0
 40 58  1  0  0  0
 41112  1  0  0  0
 41113  1  0  0  0
 41114  1  0  0  0
 41 48  1  0  0  0
 42 43  1  0  0  0
 42 66  1  0  0  0
 42115  1  0  0  0
 42116  1  0  0  0
 43 44  1  0  0  0
 44117  1  0  0  0
 45 46  2  0  0  0
 45118  1  0  0  0
 46119  1  0  0  0
 47120  1  0  0  0
 47121  1  0  0  0
 48 56  1  0  0  0
 48 65  1  0  0  0
 48122  1  0  0  0
 49 50  1  0  0  0
 49 53  1  0  0  0
 49 64  1  0  0  0
 49123  1  0  0  0
 50 51  1  0  0  0
 50124  1  0  0  0
 50125  1  0  0  0
 51 52  1  0  0  0
 51126  1  0  0  0
 51127  1  0  0  0
 52128  1  0  0  0
 52129  1  0  0  0
 53 54  1  0  0  0
 54 55  2  0  0  0
 54130  1  0  0  0
 55 57  1  0  0  0
 55131  1  0  0  0
 56 69  2  0  0  0
 57 58  2  0  0  0
 57132  1  0  0  0
 58133  1  0  0  0
 59 60  1  0  0  0
 59 61  1  0  0  0
 59 62  1  0  0  0
 60134  1  0  0  0
 60135  1  0  0  0
 60136  1  0  0  0
 61137  1  0  0  0
 61138  1  0  0  0
 61139  1  0  0  0
 62140  1  0  0  0
 62141  1  0  0  0
 62142  1  0  0  0
 63 65  1  0  0  0
 63143  1  0  0  0
 63144  1  0  0  0
 63145  1  0  0  0
 64146  1  0  0  0
 65147  1  0  0  0
 68 82  1  0  0  0
 71 73  2  0  0  0
 71 74  1  0  0  0
 71148  1  0  0  0
 72 75  2  0  0  0
 72 76  1  0  0  0
 72149  1  0  0  0
 73 75  1  0  0  0
 73 77  1  0  0  0
 74 76  2  0  0  0
 74 85  1  0  0  0
 75 83  1  0  0  0
 76 88  1  0  0  0
 77 84  1  0  0  0
 77 86  2  0  0  0
 78 79  1  0  0  0
 78 80  1  0  0  0
 78 87  2  0  0  0
 79 81  1  0  0  0
 79150  1  0  0  0
 79151  1  0  0  0
 80 88  1  0  0  0
 80152  1  0  0  0
 80153  1  0  0  0
 81 82  1  0  0  0
 81154  1  0  0  0
 81155  1  0  0  0
 82156  1  0  0  0
 82157  1  0  0  0
 83158  1  0  0  0
 83159  1  0  0  0
 84160  1  0  0  0
 84161  1  0  0  0
 85162  1  0  0  0
M  ISO  4   1 100  68 101  82 101  85 100
M  END
> <chiral flag>
0

> <version>
0

> <s_m_source_file>
/data/baiqing/PycharmProjects/Reinvent-master-3.2/result/LINK_invent/BTK/process_docking_weight1_custom_product_contain_oxygen_bond_distance_aromatic_linkinvent_7_9_3/rearranged_h_0106.sdf

> <i_m_source_file_index>
49

> <r_mmod_Potential_Energy-OPLS-2005>
161.685165405273

> <r_mmod_Stretch_Energy-OPLS-2005>
104.94637298584

> <r_mmod_Bend_Energy-OPLS-2005>
186.919647216797

> <r_mmod_Torsional_Energy-OPLS-2005>
375.563354492188

> <r_mmod_Improper_Torsional_Energy-OPLS-2005>
17.7014007568359

> <r_mmod_Van_der_Waal_Energy-OPLS-2005>
148.003768920898

> <r_mmod_Electrostatic_Energy-OPLS-2005>
-462.864807128906

> <r_mmod_Solvation_Energy-OPLS-2005>
-278.298858642578

> <b_mmod_Minimization_Converged-OPLS-2005>
0

> <r_mmod_RMS_Derivative-OPLS-2005>
9.60349559783936

$$$$
49
                    3D
 Structure written by MMmdl.
168176  0  0  1  0            999 V2000
  -30.7270  -14.4014   20.6624 C   0  0  0  0  0  0
  -30.4176  -12.3039   19.3910 C   0  0  0  0  0  0
  -29.4811  -12.5527   18.1917 C   0  0  0  0  0  0
  -28.0081  -12.3836   18.6105 C   0  0  0  0  0  0
  -27.6643  -13.2015   19.8845 C   0  0  2  0  0  0
  -28.7070  -12.9398   20.9977 C   0  0  0  0  0  0
  -25.2581  -13.8150   20.5668 C   0  0  0  0  0  0
  -24.1821  -13.0423   20.9140 C   0  0  0  0  0  0
  -24.6373  -11.6895   20.8688 C   0  0  0  0  0  0
  -23.9033  -10.4283   21.0367 C   0  0  0  0  0  0
  -24.3588   -9.4207   21.9160 C   0  0  0  0  0  0
  -23.6271   -8.2242   22.0754 C   0  0  0  0  0  0
  -22.4251   -8.0270   21.3538 C   0  0  0  0  0  0
  -21.9881   -9.0234   20.4637 C   0  0  0  0  0  0
  -22.7207  -10.2113   20.3032 C   0  0  0  0  0  0
  -21.6846   -6.0714   22.5260 C   0  0  0  0  0  0
  -21.4015   -6.5626   23.8194 C   0  0  0  0  0  0
  -21.3675   -5.6794   24.9155 C   0  0  0  0  0  0
  -21.6046   -4.3054   24.7209 C   0  0  0  0  0  0
  -21.8827   -3.8131   23.4333 C   0  0  0  0  0  0
  -21.9180   -4.6941   22.3381 C   0  0  0  0  0  0
  -22.7849  -13.5213   21.1840 C   0  0  0  0  0  0
  -22.1661   -4.2128   21.0951 F   0  0  0  0  0  0
  -21.5648   -3.4547   25.7733 F   0  0  0  0  0  0
  -30.0403  -13.2463   20.4544 N   0  0  0  0  0  0
  -26.3025  -12.9317   20.3393 N   0  0  0  0  0  0
  -25.9290  -11.6475   20.5717 N   0  0  0  0  0  0
  -22.0529  -12.8174   22.0411 N   0  0  0  0  0  0
  -25.4307  -15.1872   20.4092 N   0  0  0  0  0  0
  -31.8122  -14.6212   20.1131 O   0  0  0  0  0  0
  -21.6632   -6.8851   21.4222 O   0  0  0  0  0  0
  -22.3515  -14.5534   20.6738 O   0  0  0  0  0  0
  -24.6119  -31.8734   23.2135 C   0  0  0  0  0  0
  -25.9035  -32.4859   23.8426 C   0  0  1  0  0  0
  -27.2562  -27.4694   20.0987 C   0  0  0  0  0  0
  -25.5913  -33.8664   24.2387 N   0  0  0  0  0  0
  -23.4006  -30.4927   21.5546 C   0  0  2  0  0  0
  -24.8498  -28.9592   20.1216 C   0  0  0  0  0  0
  -22.7405  -29.4674   22.5039 C   0  0  0  0  0  0
  -18.0267  -28.1398   22.8493 C   0  0  0  0  0  0
  -24.1486  -36.7324   23.2637 C   0  0  0  0  0  0
  -25.9215  -30.8483   21.3614 C   0  0  0  0  0  0
  -26.0035  -29.4807   20.7201 C   0  0  0  0  0  0
  -27.2045  -28.7428   20.7172 C   0  0  0  0  0  0
  -26.0825  -26.9544   19.5104 C   0  0  0  0  0  0
  -24.8803  -27.6882   19.5197 C   0  0  0  0  0  0
  -23.6098  -29.8226   20.1689 C   0  0  0  0  0  0
  -25.4122  -36.3158   24.0348 C   0  0  1  0  0  0
  -20.5852  -28.3684   23.1345 C   0  0  2  0  0  0
  -20.6769  -26.9421   22.5457 C   0  0  0  0  0  0
  -19.5758  -26.6389   21.5246 C   0  0  0  0  0  0
  -18.1903  -26.7974   22.1584 C   0  0  0  0  0  0
  -19.1512  -28.8854   23.2910 C   0  0  0  0  0  0
  -18.9435  -30.1473   23.8900 C   0  0  0  0  0  0
  -17.6433  -30.6600   24.0571 C   0  0  0  0  0  0
  -25.9050  -34.9510   23.5159 C   0  0  0  0  0  0
  -16.5339  -29.9092   23.6327 C   0  0  0  0  0  0
  -16.7260  -28.6522   23.0330 C   0  0  0  0  0  0
  -26.4485  -31.6596   25.0719 C   0  0  0  0  0  0
  -25.3764  -31.3642   26.1450 C   0  0  0  0  0  0
  -27.0302  -30.3053   24.6041 C   0  0  0  0  0  0
  -27.6085  -32.4269   25.7500 C   0  0  0  0  0  0
  -27.5619  -37.1825   24.8461 C   0  0  0  0  0  0
  -21.4133  -29.3046   22.3773 N   0  0  0  0  0  0
  -26.4322  -37.3828   23.9417 N   0  0  0  0  0  0
  -24.6624  -31.0847   22.1033 N   0  0  0  0  0  0
  -23.4183  -28.8206   23.3061 O   0  0  0  0  0  0
  -28.3880  -26.6837   20.0218 O   0  0  0  0  0  0
  -26.5584  -34.8942   22.4700 O   0  0  0  0  0  0
  -23.5319  -32.1449   23.7555 O   0  0  0  0  0  0
  -32.7661  -20.0117   18.7022 C   0  0  0  0  0  0
  -31.0664  -21.0644   20.0864 C   0  0  0  0  0  0
  -32.1893  -21.1842   19.2367 C   0  0  0  0  0  0
  -32.2310  -18.7413   19.0079 C   0  0  0  0  0  0
  -30.4987  -19.8064   20.3709 C   0  0  0  0  0  0
  -31.0989  -18.6287   19.8484 C   0  0  0  0  0  0
  -32.8049  -22.5285   18.9482 C   0  0  0  0  0  0
  -32.1754  -24.8642   18.7660 C   0  0  0  0  0  0
  -32.8883  -17.4956   18.4436 C   0  0  0  0  0  0
  -28.2559  -19.0977   20.6146 C   0  0  0  0  0  0
  -30.1117  -15.4955   21.5571 C   0  0  0  0  0  0
  -30.9623  -25.7833   18.9181 C   0  0  0  0  0  0
  -30.7227  -26.1357   20.4001 C   0  0  0  0  0  0
  -30.7737  -16.8850   21.4243 C   0  0  0  0  0  0
  -29.5867  -27.1454   20.6325 C   0  0  0  0  0  0
  -31.9308  -23.5473   18.8874 N   0  0  0  0  0  0
  -34.0243  -22.6149   18.7645 O   0  0  0  0  0  0
  -33.2849  -25.3718   18.5712 O   0  0  0  0  0  0
  -29.3722  -19.7919   21.1561 O   0  0  0  0  0  0
  -30.5863  -17.3779   20.0978 O   0  0  0  0  0  0
  -31.4601  -12.4099   19.0853 H   0  0  0  0  0  0
  -30.3169  -11.2762   19.7451 H   0  0  0  0  0  0
  -29.7244  -11.8822   17.3681 H   0  0  0  0  0  0
  -29.6320  -13.5650   17.8138 H   0  0  0  0  0  0
  -27.8324  -11.3218   18.7911 H   0  0  0  0  0  0
  -27.3463  -12.6681   17.7907 H   0  0  0  0  0  0
  -27.7194  -14.2551   19.6103 H   0  0  0  0  0  0
  -28.6752  -11.8912   21.2980 H   0  0  0  0  0  0
  -28.4703  -13.5041   21.8998 H   0  0  0  0  0  0
  -25.2733   -9.5690   22.4720 H   0  0  0  0  0  0
  -23.9992   -7.4636   22.7491 H   0  0  0  0  0  0
  -21.0813   -8.8703   19.8940 H   0  0  0  0  0  0
  -22.3643  -10.9625   19.6128 H   0  0  0  0  0  0
  -21.2009   -7.6140   23.9671 H   0  0  0  0  0  0
  -21.1529   -6.0537   25.9057 H   0  0  0  0  0  0
  -22.0590   -2.7597   23.2827 H   0  0  0  0  0  0
  -22.4188  -11.9811   22.4719 H   0  0  0  0  0  0
  -21.1148  -13.1159   22.2690 H   0  0  0  0  0  0
  -24.6608  -15.8408   20.5033 H   0  0  0  0  0  0
  -26.2920  -15.6293   20.1159 H   0  0  0  0  0  0
  -26.7131  -32.5617   23.1224 H   0  0  0  0  0  0
  -25.0110  -33.9861   25.0568 H   0  0  0  0  0  0
  -22.6868  -31.3071   21.4138 H   0  0  0  0  0  0
  -23.3807  -35.9591   23.3213 H   0  0  0  0  0  0
  -24.3604  -36.9035   22.2074 H   0  0  0  0  0  0
  -23.7135  -37.6458   23.6701 H   0  0  0  0  0  0
  -26.0198  -31.6075   20.5854 H   0  0  0  0  0  0
  -26.8157  -30.9189   21.9680 H   0  0  0  0  0  0
  -28.0778  -29.1706   21.1865 H   0  0  0  0  0  0
  -26.1013  -25.9785   19.0451 H   0  0  0  0  0  0
  -23.9912  -27.2751   19.0638 H   0  0  0  0  0  0
  -23.7211  -30.5984   19.4103 H   0  0  0  0  0  0
  -22.7354  -29.2432   19.8696 H   0  0  0  0  0  0
  -25.1295  -36.2053   25.0843 H   0  0  0  0  0  0
  -20.9932  -28.3246   24.1468 H   0  0  0  0  0  0
  -20.5704  -26.2292   23.3639 H   0  0  0  0  0  0
  -21.6640  -26.7468   22.1237 H   0  0  0  0  0  0
  -19.6909  -25.6283   21.1312 H   0  0  0  0  0  0
  -19.6748  -27.3186   20.6765 H   0  0  0  0  0  0
  -17.4239  -26.6837   21.3903 H   0  0  0  0  0  0
  -18.0163  -26.0100   22.8913 H   0  0  0  0  0  0
  -19.7893  -30.7325   24.2265 H   0  0  0  0  0  0
  -17.4958  -31.6288   24.5151 H   0  0  0  0  0  0
  -15.5336  -30.2992   23.7626 H   0  0  0  0  0  0
  -15.8671  -28.0865   22.6999 H   0  0  0  0  0  0
  -24.5996  -30.6946   25.7739 H   0  0  0  0  0  0
  -24.8890  -32.2764   26.4898 H   0  0  0  0  0  0
  -25.8135  -30.8803   27.0192 H   0  0  0  0  0  0
  -26.2816  -29.6828   24.1123 H   0  0  0  0  0  0
  -27.4107  -29.7281   25.4476 H   0  0  0  0  0  0
  -27.8638  -30.4389   23.9147 H   0  0  0  0  0  0
  -27.2756  -33.3566   26.2123 H   0  0  0  0  0  0
  -28.3904  -32.6809   25.0334 H   0  0  0  0  0  0
  -28.0729  -31.8327   26.5383 H   0  0  0  0  0  0
  -28.2617  -38.0143   24.7566 H   0  0  0  0  0  0
  -28.1140  -36.2682   24.6219 H   0  0  0  0  0  0
  -27.2347  -37.1407   25.8863 H   0  0  0  0  0  0
  -20.9297  -29.8808   21.7029 H   0  0  0  0  0  0
  -26.0227  -38.2912   24.1423 H   0  0  0  0  0  0
  -33.6324  -20.0927   18.0577 H   0  0  0  0  0  0
  -30.6094  -21.9439   20.5177 H   0  0  0  0  0  0
  -33.6943  -17.7398   17.7520 H   0  0  0  0  0  0
  -32.1588  -16.8832   17.9120 H   0  0  0  0  0  0
  -33.3088  -16.8963   19.2524 H   0  0  0  0  0  0
  -27.3386  -19.4999   21.0436 H   0  0  0  0  0  0
  -28.2827  -18.0352   20.8516 H   0  0  0  0  0  0
  -28.1914  -19.2141   19.5324 H   0  0  0  0  0  0
  -29.0516  -15.6094   21.3296 H   0  0  0  0  0  0
  -30.1752  -15.1602   22.5934 H   0  0  0  0  0  0
  -30.0800  -25.3094   18.4879 H   0  0  0  0  0  0
  -31.1338  -26.6923   18.3398 H   0  0  0  0  0  0
  -31.6402  -26.5455   20.8289 H   0  0  0  0  0  0
  -30.5183  -25.2222   20.9610 H   0  0  0  0  0  0
  -31.8345  -16.8379   21.6731 H   0  0  0  0  0  0
  -30.3159  -17.5629   22.1465 H   0  0  0  0  0  0
  -29.8725  -28.1196   20.2352 H   0  0  0  0  0  0
  -29.4256  -27.2527   21.7074 H   0  0  0  0  0  0
  -30.9670  -23.2863   19.0050 H   0  0  0  0  0  0
  1 25  1  0  0  0
  1 30  2  0  0  0
  1 81  1  0  0  0
  2  3  1  0  0  0
  2 25  1  0  0  0
  2 91  1  0  0  0
  2 92  1  0  0  0
  3  4  1  0  0  0
  3 93  1  0  0  0
  3 94  1  0  0  0
  4  5  1  0  0  0
  4 95  1  0  0  0
  4 96  1  0  0  0
  5  6  1  0  0  0
  5 26  1  0  0  0
  5 97  1  0  0  0
  6 25  1  0  0  0
  6 98  1  0  0  0
  6 99  1  0  0  0
  7  8  2  0  0  0
  7 26  1  0  0  0
  7 29  1  0  0  0
  8  9  1  0  0  0
  8 22  1  0  0  0
  9 10  1  0  0  0
  9 27  2  0  0  0
 10 11  2  0  0  0
 10 15  1  0  0  0
 11 12  1  0  0  0
 11100  1  0  0  0
 12 13  2  0  0  0
 12101  1  0  0  0
 13 14  1  0  0  0
 13 31  1  0  0  0
 14 15  2  0  0  0
 14102  1  0  0  0
 15103  1  0  0  0
 16 17  2  0  0  0
 16 21  1  0  0  0
 16 31  1  0  0  0
 17 18  1  0  0  0
 17104  1  0  0  0
 18 19  2  0  0  0
 18105  1  0  0  0
 19 20  1  0  0  0
 19 24  1  0  0  0
 20 21  2  0  0  0
 20106  1  0  0  0
 21 23  1  0  0  0
 22 28  1  0  0  0
 22 32  2  0  0  0
 26 27  1  0  0  0
 28107  1  0  0  0
 28108  1  0  0  0
 29109  1  0  0  0
 29110  1  0  0  0
 33 34  1  0  0  0
 33 66  1  0  0  0
 33 70  2  0  0  0
 34 36  1  0  0  0
 34 59  1  0  0  0
 34111  1  0  0  0
 35 44  2  0  0  0
 35 45  1  0  0  0
 35 68  1  0  0  0
 36 56  1  0  0  0
 36112  1  0  0  0
 37 39  1  0  0  0
 37 47  1  0  0  0
 37 66  1  0  0  0
 37113  1  0  0  0
 38 43  2  0  0  0
 38 46  1  0  0  0
 38 47  1  0  0  0
 39 64  1  0  0  0
 39 67  2  0  0  0
 40 52  1  0  0  0
 40 53  2  0  0  0
 40 58  1  0  0  0
 41114  1  0  0  0
 41115  1  0  0  0
 41116  1  0  0  0
 41 48  1  0  0  0
 42 43  1  0  0  0
 42 66  1  0  0  0
 42117  1  0  0  0
 42118  1  0  0  0
 43 44  1  0  0  0
 44119  1  0  0  0
 45 46  2  0  0  0
 45120  1  0  0  0
 46121  1  0  0  0
 47122  1  0  0  0
 47123  1  0  0  0
 48 56  1  0  0  0
 48 65  1  0  0  0
 48124  1  0  0  0
 49 50  1  0  0  0
 49 53  1  0  0  0
 49 64  1  0  0  0
 49125  1  0  0  0
 50 51  1  0  0  0
 50126  1  0  0  0
 50127  1  0  0  0
 51 52  1  0  0  0
 51128  1  0  0  0
 51129  1  0  0  0
 52130  1  0  0  0
 52131  1  0  0  0
 53 54  1  0  0  0
 54 55  2  0  0  0
 54132  1  0  0  0
 55 57  1  0  0  0
 55133  1  0  0  0
 56 69  2  0  0  0
 57 58  2  0  0  0
 57134  1  0  0  0
 58135  1  0  0  0
 59 60  1  0  0  0
 59 61  1  0  0  0
 59 62  1  0  0  0
 60136  1  0  0  0
 60137  1  0  0  0
 60138  1  0  0  0
 61139  1  0  0  0
 61140  1  0  0  0
 61141  1  0  0  0
 62142  1  0  0  0
 62143  1  0  0  0
 62144  1  0  0  0
 63 65  1  0  0  0
 63145  1  0  0  0
 63146  1  0  0  0
 63147  1  0  0  0
 64148  1  0  0  0
 65149  1  0  0  0
 68 85  1  0  0  0
 71 73  2  0  0  0
 71 74  1  0  0  0
 71150  1  0  0  0
 72 73  1  0  0  0
 72 75  2  0  0  0
 72151  1  0  0  0
 73 77  1  0  0  0
 74 76  2  0  0  0
 74 79  1  0  0  0
 75 76  1  0  0  0
 75 89  1  0  0  0
 76 90  1  0  0  0
 77 86  1  0  0  0
 77 87  2  0  0  0
 78 82  1  0  0  0
 78 86  1  0  0  0
 78 88  2  0  0  0
 79152  1  0  0  0
 79153  1  0  0  0
 79154  1  0  0  0
 80 89  1  0  0  0
 80155  1  0  0  0
 80156  1  0  0  0
 80157  1  0  0  0
 81 84  1  0  0  0
 81158  1  0  0  0
 81159  1  0  0  0
 82 83  1  0  0  0
 82160  1  0  0  0
 82161  1  0  0  0
 83 85  1  0  0  0
 83162  1  0  0  0
 83163  1  0  0  0
 84 90  1  0  0  0
 84164  1  0  0  0
 84165  1  0  0  0
 85166  1  0  0  0
 85167  1  0  0  0
 86168  1  0  0  0
M  ISO  4   1 100  68 101  81 100  85 101
M  END
> <chiral flag>
0

> <version>
0

> <s_m_source_file>
/data/baiqing/PycharmProjects/Reinvent-master-3.2/result/LINK_invent/BTK/process_docking_weight1_custom_product_contain_oxygen_bond_distance_aromatic_linkinvent_7_9_3/rearranged_h_0106.sdf

> <i_m_source_file_index>
50

> <r_mmod_Potential_Energy-OPLS-2005>
-224.197113037109

> <r_mmod_Stretch_Energy-OPLS-2005>
34.8097610473633

> <r_mmod_Bend_Energy-OPLS-2005>
103.917678833008

> <r_mmod_Torsional_Energy-OPLS-2005>
222.968612670898

> <r_mmod_Improper_Torsional_Energy-OPLS-2005>
2.20516014099121

> <r_mmod_Van_der_Waal_Energy-OPLS-2005>
157.764511108398

> <r_mmod_Electrostatic_Energy-OPLS-2005>
-495.750671386719

> <r_mmod_Solvation_Energy-OPLS-2005>
-257.270416259766

> <b_mmod_Minimization_Converged-OPLS-2005>
0

> <r_mmod_RMS_Derivative-OPLS-2005>
3.13766884803772

$$$$
50
                    3D
 Structure written by MMmdl.
157165  0  0  1  0            999 V2000
  -29.4952  -16.7939   20.6426 C   0  0  0  0  0  0
  -30.1740  -14.1549   19.6642 C   0  0  0  0  0  0
  -29.5610  -13.1831   18.5664 C   0  0  0  0  0  0
  -28.2916  -12.4697   19.0242 C   0  0  0  0  0  0
  -27.5195  -13.4652   19.8921 C   0  0  2  0  0  0
  -28.3102  -14.2162   21.0153 C   0  0  0  0  0  0
  -25.1749  -13.8594   20.5997 C   0  0  0  0  0  0
  -24.1441  -13.0361   20.9270 C   0  0  0  0  0  0
  -24.6486  -11.6985   20.8659 C   0  0  0  0  0  0
  -23.9240  -10.4292   21.0472 C   0  0  0  0  0  0
  -24.3730   -9.4197   21.9202 C   0  0  0  0  0  0
  -23.6390   -8.2296   22.0752 C   0  0  0  0  0  0
  -22.4306   -8.0327   21.3618 C   0  0  0  0  0  0
  -22.0012   -9.0299   20.4641 C   0  0  0  0  0  0
  -22.7409  -10.2174   20.3063 C   0  0  0  0  0  0
  -21.6901   -6.0811   22.5274 C   0  0  0  0  0  0
  -21.4045   -6.5686   23.8177 C   0  0  0  0  0  0
  -21.3643   -5.6891   24.9141 C   0  0  0  0  0  0
  -21.6022   -4.3124   24.7237 C   0  0  0  0  0  0
  -21.8835   -3.8185   23.4325 C   0  0  0  0  0  0
  -21.9199   -4.7042   22.3371 C   0  0  0  0  0  0
  -22.7448  -13.4986   21.1856 C   0  0  0  0  0  0
  -22.1684   -4.2174   21.0950 F   0  0  0  0  0  0
  -21.5612   -3.4520   25.7734 F   0  0  0  0  0  0
  -29.2313  -15.2516   20.3799 N   0  0  0  0  0  0
  -26.2423  -13.0132   20.3730 N   0  0  0  0  0  0
  -25.9388  -11.6944   20.5768 N   0  0  0  0  0  0
  -22.0162  -12.7878   22.0415 N   0  0  0  0  0  0
  -25.3051  -15.2355   20.4375 N   0  0  0  0  0  0
  -30.7469  -16.7172   20.4904 O   0  0  0  0  0  0
  -21.6618   -6.8924   21.4264 O   0  0  0  0  0  0
  -22.3000  -14.5330   20.6802 O   0  0  0  0  0  0
  -24.7282  -31.8956   23.1637 C   0  0  0  0  0  0
  -25.9868  -32.4822   23.8573 C   0  0  1  0  0  0
  -27.1859  -27.3452   19.7621 C   0  0  0  0  0  0
  -25.5968  -33.8562   24.2063 N   0  0  0  0  0  0
  -23.8306  -30.2305   21.5449 C   0  0  2  0  0  0
  -25.3020  -29.3457   19.7156 C   0  0  0  0  0  0
  -22.8505  -29.4810   22.6962 C   0  0  0  0  0  0
  -18.0878  -28.2072   22.8945 C   0  0  0  0  0  0
  -24.1583  -36.6546   23.2891 C   0  0  0  0  0  0
  -26.3614  -30.8393   21.5405 C   0  0  0  0  0  0
  -26.3743  -29.5692   20.6358 C   0  0  0  0  0  0
  -27.2223  -28.3269   20.7869 C   0  0  0  0  0  0
  -26.5191  -27.7429   18.6263 C   0  0  0  0  0  0
  -25.4318  -28.5140   18.6713 C   0  0  0  0  0  0
  -24.0116  -29.6564   20.1872 C   0  0  0  0  0  0
  -25.4195  -36.2596   24.0463 C   0  0  1  0  0  0
  -20.6272  -28.3875   23.1571 C   0  0  2  0  0  0
  -20.5212  -26.8533   22.8023 C   0  0  0  0  0  0
  -19.5646  -26.6085   21.6588 C   0  0  0  0  0  0
  -18.1569  -26.8330   22.1949 C   0  0  0  0  0  0
  -19.2049  -28.9403   23.2682 C   0  0  0  0  0  0
  -18.9865  -30.1355   23.8906 C   0  0  0  0  0  0
  -17.6777  -30.6837   24.0486 C   0  0  0  0  0  0
  -25.9076  -34.9136   23.4938 C   0  0  0  0  0  0
  -16.5324  -29.9452   23.6306 C   0  0  0  0  0  0
  -16.7776  -28.6916   23.0300 C   0  0  0  0  0  0
  -26.4852  -31.6702   25.1250 C   0  0  0  0  0  0
  -25.4073  -31.4081   26.1753 C   0  0  0  0  0  0
  -27.1675  -30.3152   24.7944 C   0  0  0  0  0  0
  -27.5991  -32.5384   25.7509 C   0  0  0  0  0  0
  -27.5250  -37.1355   24.8412 C   0  0  0  0  0  0
  -21.5213  -29.3616   22.4655 N   0  0  0  0  0  0
  -26.4014  -37.3267   23.9369 N   0  0  0  0  0  0
  -24.9572  -31.1942   22.0493 N   0  0  0  0  0  0
  -23.3668  -28.6609   23.4984 O   0  0  0  0  0  0
  -26.5751  -26.1755   19.8835 O   0  0  0  0  0  0
  -26.6213  -34.8929   22.4842 O   0  0  0  0  0  0
  -23.5892  -32.0997   23.6736 O   0  0  0  0  0  0
  -24.5907  -23.6864   21.8905 C   0  0  0  0  0  0
  -25.2434  -22.3121   21.8520 C   0  0  0  0  0  0
  -26.6356  -21.8772   21.4972 C   0  0  0  0  0  0
  -25.1727  -24.9211   21.5021 C   0  0  0  0  0  0
  -23.2462  -26.4795   20.5831 C   0  0  0  0  0  0
  -24.0293  -21.6188   22.1020 C   0  0  0  0  0  0
  -27.9738  -20.3251   21.2035 C   0  0  0  0  0  0
  -22.6607  -26.0846   19.2052 C   0  0  0  0  0  0
  -23.6954  -25.1281   18.8007 C   0  0  0  0  0  0
  -25.3703  -25.5658   18.7979 C   0  0  0  0  0  0
  -24.4392  -26.2577   21.3624 N   0  0  0  0  0  0
  -28.5497  -18.3070   20.9033 N   0  0  0  0  0  0
  -22.2596  -27.1595   20.9395 O   0  0  0  0  0  0
  -26.8890  -23.9010   21.4989 S   0  0  0  0  0  0
  -30.9459  -14.7917   19.2161 H   0  0  0  0  0  0
  -30.6710  -13.6065   20.4475 H   0  0  0  0  0  0
  -30.2968  -12.4787   18.2190 H   0  0  0  0  0  0
  -29.3464  -13.7614   17.6573 H   0  0  0  0  0  0
  -28.5354  -11.5719   19.6127 H   0  0  0  0  0  0
  -27.6958  -12.1473   18.1614 H   0  0  0  0  0  0
  -27.2902  -14.2273   19.1445 H   0  0  0  0  0  0
  -28.8582  -13.5576   21.6622 H   0  0  0  0  0  0
  -27.6525  -14.7725   21.6812 H   0  0  0  0  0  0
  -25.2831   -9.5701   22.4684 H   0  0  0  0  0  0
  -24.0079   -7.4724   22.7427 H   0  0  0  0  0  0
  -21.0929   -8.8808   19.8907 H   0  0  0  0  0  0
  -22.3854  -10.9685   19.6105 H   0  0  0  0  0  0
  -21.2078   -7.6134   23.9738 H   0  0  0  0  0  0
  -21.1436   -6.0507   25.9078 H   0  0  0  0  0  0
  -22.0620   -2.7550   23.2763 H   0  0  0  0  0  0
  -22.3875  -11.9703   22.4944 H   0  0  0  0  0  0
  -21.0767  -13.0809   22.2849 H   0  0  0  0  0  0
  -24.5216  -15.8635   20.5432 H   0  0  0  0  0  0
  -26.1481  -15.6997   20.1289 H   0  0  0  0  0  0
  -26.8256  -32.5373   23.1973 H   0  0  0  0  0  0
  -24.8490  -33.8682   24.8505 H   0  0  0  0  0  0
  -24.4371  -29.7876   22.2344 H   0  0  0  0  0  0
  -23.3631  -35.8606   23.3357 H   0  0  0  0  0  0
  -24.3286  -36.8252   22.1939 H   0  0  0  0  0  0
  -23.6855  -37.5881   23.6846 H   0  0  0  0  0  0
  -26.9519  -31.6303   21.0381 H   0  0  0  0  0  0
  -27.0575  -30.7227   22.2917 H   0  0  0  0  0  0
  -27.8687  -28.1071   21.6811 H   0  0  0  0  0  0
  -27.0911  -27.2963   17.7515 H   0  0  0  0  0  0
  -25.3604  -28.9940   17.7385 H   0  0  0  0  0  0
  -23.1471  -29.3505   19.4996 H   0  0  0  0  0  0
  -24.2856  -28.6216   20.5397 H   0  0  0  0  0  0
  -25.1239  -36.1175   25.0720 H   0  0  0  0  0  0
  -20.9697  -28.2898   24.1981 H   0  0  0  0  0  0
  -20.1373  -26.2757   23.5522 H   0  0  0  0  0  0
  -21.4270  -26.3341   22.6468 H   0  0  0  0  0  0
  -19.6387  -25.5729   21.2346 H   0  0  0  0  0  0
  -19.6775  -27.3310   20.8393 H   0  0  0  0  0  0
  -17.3869  -26.7204   21.3373 H   0  0  0  0  0  0
  -17.9187  -26.0205   22.9267 H   0  0  0  0  0  0
  -19.8118  -30.7310   24.2109 H   0  0  0  0  0  0
  -17.5460  -31.6745   24.5117 H   0  0  0  0  0  0
  -15.5661  -30.3432   23.7617 H   0  0  0  0  0  0
  -15.8654  -28.1078   22.6705 H   0  0  0  0  0  0
  -24.7088  -30.6490   25.8886 H   0  0  0  0  0  0
  -24.8475  -32.2946   26.4377 H   0  0  0  0  0  0
  -25.8649  -31.0678   27.0931 H   0  0  0  0  0  0
  -26.4777  -29.5759   24.4220 H   0  0  0  0  0  0
  -27.6086  -29.9195   25.7141 H   0  0  0  0  0  0
  -28.0149  -30.4081   24.1358 H   0  0  0  0  0  0
  -27.2005  -33.4949   26.0942 H   0  0  0  0  0  0
  -28.3825  -32.7615   25.0358 H   0  0  0  0  0  0
  -28.0924  -32.0986   26.6218 H   0  0  0  0  0  0
  -28.2565  -37.9641   24.7305 H   0  0  0  0  0  0
  -28.0894  -36.1931   24.6649 H   0  0  0  0  0  0
  -27.1890  -37.1230   25.9020 H   0  0  0  0  0  0
  -21.3179  -29.3613   21.4055 H   0  0  0  0  0  0
  -26.0034  -38.2375   24.1219 H   0  0  0  0  0  0
  -23.5761  -23.8974   22.1000 H   0  0  0  0  0  0
  -23.3145  -22.0210   22.8765 H   0  0  0  0  0  0
  -24.5469  -20.7389   22.3687 H   0  0  0  0  0  0
  -23.5809  -21.6258   21.1514 H   0  0  0  0  0  0
  -28.4887  -20.6143   22.1418 H   0  0  0  0  0  0
  -28.6708  -20.9336   20.5729 H   0  0  0  0  0  0
  -22.3689  -26.9059   18.5101 H   0  0  0  0  0  0
  -21.6890  -25.5511   19.0455 H   0  0  0  0  0  0
  -23.3729  -24.5819   17.8380 H   0  0  0  0  0  0
  -23.4852  -24.4017   19.5871 H   0  0  0  0  0  0
  -25.7214  -25.5232   17.7447 H   0  0  0  0  0  0
  -25.5022  -24.6182   19.0797 H   0  0  0  0  0  0
  -24.5441  -26.8772   22.1199 H   0  0  0  0  0  0
  -29.3771  -18.8561   20.8980 H   0  0  0  0  0  0
  1 25  1  0  0  0
  1 30  2  0  0  0
  1 82  1  0  0  0
  2  3  1  0  0  0
  2 25  1  0  0  0
  2 85  1  0  0  0
  2 86  1  0  0  0
  3  4  1  0  0  0
  3 87  1  0  0  0
  3 88  1  0  0  0
  4  5  1  0  0  0
  4 89  1  0  0  0
  4 90  1  0  0  0
  5  6  1  0  0  0
  5 26  1  0  0  0
  5 91  1  0  0  0
  6 25  1  0  0  0
  6 92  1  0  0  0
  6 93  1  0  0  0
  7  8  2  0  0  0
  7 26  1  0  0  0
  7 29  1  0  0  0
  8  9  1  0  0  0
  8 22  1  0  0  0
  9 10  1  0  0  0
  9 27  2  0  0  0
 10 11  2  0  0  0
 10 15  1  0  0  0
 11 12  1  0  0  0
 11 94  1  0  0  0
 12 13  2  0  0  0
 12 95  1  0  0  0
 13 14  1  0  0  0
 13 31  1  0  0  0
 14 15  2  0  0  0
 14 96  1  0  0  0
 15 97  1  0  0  0
 16 17  2  0  0  0
 16 21  1  0  0  0
 16 31  1  0  0  0
 17 18  1  0  0  0
 17 98  1  0  0  0
 18 19  2  0  0  0
 18 99  1  0  0  0
 19 20  1  0  0  0
 19 24  1  0  0  0
 20 21  2  0  0  0
 20100  1  0  0  0
 21 23  1  0  0  0
 22 28  1  0  0  0
 22 32  2  0  0  0
 26 27  1  0  0  0
 28101  1  0  0  0
 28102  1  0  0  0
 29103  1  0  0  0
 29104  1  0  0  0
 33 34  1  0  0  0
 33 66  1  0  0  0
 33 70  2  0  0  0
 34 36  1  0  0  0
 34 59  1  0  0  0
 34105  1  0  0  0
 35 44  2  0  0  0
 35 45  1  0  0  0
 35 68  1  0  0  0
 36 56  1  0  0  0
 36106  1  0  0  0
 37 39  1  0  0  0
 37 47  1  0  0  0
 37 66  1  0  0  0
 37107  1  0  0  0
 38 43  2  0  0  0
 38 46  1  0  0  0
 38 47  1  0  0  0
 39 64  1  0  0  0
 39 67  2  0  0  0
 40 52  1  0  0  0
 40 53  2  0  0  0
 40 58  1  0  0  0
 41108  1  0  0  0
 41109  1  0  0  0
 41110  1  0  0  0
 41 48  1  0  0  0
 42 43  1  0  0  0
 42 66  1  0  0  0
 42111  1  0  0  0
 42112  1  0  0  0
 43 44  1  0  0  0
 44113  1  0  0  0
 45 46  2  0  0  0
 45114  1  0  0  0
 46115  1  0  0  0
 47116  1  0  0  0
 47117  1  0  0  0
 48 56  1  0  0  0
 48 65  1  0  0  0
 48118  1  0  0  0
 49 50  1  0  0  0
 49 53  1  0  0  0
 49 64  1  0  0  0
 49119  1  0  0  0
 50 51  1  0  0  0
 50120  1  0  0  0
 50121  1  0  0  0
 51 52  1  0  0  0
 51122  1  0  0  0
 51123  1  0  0  0
 52124  1  0  0  0
 52125  1  0  0  0
 53 54  1  0  0  0
 54 55  2  0  0  0
 54126  1  0  0  0
 55 57  1  0  0  0
 55127  1  0  0  0
 56 69  2  0  0  0
 57 58  2  0  0  0
 57128  1  0  0  0
 58129  1  0  0  0
 59 60  1  0  0  0
 59 61  1  0  0  0
 59 62  1  0  0  0
 60130  1  0  0  0
 60131  1  0  0  0
 60132  1  0  0  0
 61133  1  0  0  0
 61134  1  0  0  0
 61135  1  0  0  0
 62136  1  0  0  0
 62137  1  0  0  0
 62138  1  0  0  0
 63 65  1  0  0  0
 63139  1  0  0  0
 63140  1  0  0  0
 63141  1  0  0  0
 64142  1  0  0  0
 65143  1  0  0  0
 68 80  1  0  0  0
 71 72  1  0  0  0
 71 74  2  0  0  0
 71144  1  0  0  0
 72 73  2  0  0  0
 72 76  1  0  0  0
 73 77  1  0  0  0
 73 84  1  0  0  0
 74 81  1  0  0  0
 74 84  1  0  0  0
 75 78  1  0  0  0
 75 81  1  0  0  0
 75 83  2  0  0  0
 76145  1  0  0  0
 76146  1  0  0  0
 76147  1  0  0  0
 77 82  1  0  0  0
 77148  1  0  0  0
 77149  1  0  0  0
 78 79  1  0  0  0
 78150  1  0  0  0
 78151  1  0  0  0
 79 80  1  0  0  0
 79152  1  0  0  0
 79153  1  0  0  0
 80154  1  0  0  0
 80155  1  0  0  0
 81156  1  0  0  0
 82157  1  0  0  0
M  ISO  4   1 100  68 101  80 101  82 100
M  END
> <chiral flag>
0

> <version>
0

> <s_m_source_file>
/data/baiqing/PycharmProjects/Reinvent-master-3.2/result/LINK_invent/BTK/process_docking_weight1_custom_product_contain_oxygen_bond_distance_aromatic_linkinvent_7_9_3/rearranged_h_0106.sdf

> <i_m_source_file_index>
51

> <r_mmod_Potential_Energy-OPLS-2005>
8290.376953125

> <r_mmod_Stretch_Energy-OPLS-2005>
2470.44970703125

> <r_mmod_Bend_Energy-OPLS-2005>
2057.79296875

> <r_mmod_Torsional_Energy-OPLS-2005>
603.935119628906

> <r_mmod_Improper_Torsional_Energy-OPLS-2005>
62.7631072998047

> <r_mmod_Van_der_Waal_Energy-OPLS-2005>
445.645263671875

> <r_mmod_Electrostatic_Energy-OPLS-2005>
-495.692535400391

> <r_mmod_Solvation_Energy-OPLS-2005>
-205.565856933594

> <b_mmod_Minimization_Converged-OPLS-2005>
0

> <r_mmod_RMS_Derivative-OPLS-2005>
99.9990005493164

$$$$
51
                    3D
 Structure written by MMmdl.
160169  0  0  1  0            999 V2000
  -30.6944  -14.4970   20.5483 C   0  0  0  0  0  0
  -30.4253  -12.3196   19.4191 C   0  0  0  0  0  0
  -29.4950  -12.5035   18.2022 C   0  0  0  0  0  0
  -28.0173  -12.3590   18.6196 C   0  0  0  0  0  0
  -27.6586  -13.2082   19.8684 C   0  0  2  0  0  0
  -28.7042  -13.0088   20.9892 C   0  0  0  0  0  0
  -25.2585  -13.8177   20.5724 C   0  0  0  0  0  0
  -24.1830  -13.0438   20.9166 C   0  0  0  0  0  0
  -24.6383  -11.6906   20.8701 C   0  0  0  0  0  0
  -23.9055  -10.4296   21.0384 C   0  0  0  0  0  0
  -24.3614   -9.4220   21.9170 C   0  0  0  0  0  0
  -23.6291   -8.2256   22.0753 C   0  0  0  0  0  0
  -22.4266   -8.0289   21.3555 C   0  0  0  0  0  0
  -21.9896   -9.0258   20.4653 C   0  0  0  0  0  0
  -22.7223  -10.2137   20.3042 C   0  0  0  0  0  0
  -21.6850   -6.0736   22.5281 C   0  0  0  0  0  0
  -21.4016   -6.5641   23.8221 C   0  0  0  0  0  0
  -21.3660   -5.6793   24.9179 C   0  0  0  0  0  0
  -21.6036   -4.3055   24.7228 C   0  0  0  0  0  0
  -21.8821   -3.8151   23.4351 C   0  0  0  0  0  0
  -21.9193   -4.6967   22.3406 C   0  0  0  0  0  0
  -22.7853  -13.5234   21.1842 C   0  0  0  0  0  0
  -22.1663   -4.2155   21.0983 F   0  0  0  0  0  0
  -21.5624   -3.4539   25.7742 F   0  0  0  0  0  0
  -30.0313  -13.3135   20.4293 N   0  0  0  0  0  0
  -26.3017  -12.9347   20.3345 N   0  0  0  0  0  0
  -25.9309  -11.6500   20.5716 N   0  0  0  0  0  0
  -22.0497  -12.8226   22.0401 N   0  0  0  0  0  0
  -25.4278  -15.1921   20.4317 N   0  0  0  0  0  0
  -31.8449  -14.6617   20.1333 O   0  0  0  0  0  0
  -21.6640   -6.8877   21.4242 O   0  0  0  0  0  0
  -22.3540  -14.5547   20.6710 O   0  0  0  0  0  0
  -24.6178  -31.8679   23.2111 C   0  0  0  0  0  0
  -25.9056  -32.4823   23.8412 C   0  0  1  0  0  0
  -27.2259  -27.4131   20.0873 C   0  0  0  0  0  0
  -25.5904  -33.8622   24.2341 N   0  0  0  0  0  0
  -23.4054  -30.4951   21.5527 C   0  0  2  0  0  0
  -24.8483  -28.9653   20.1135 C   0  0  0  0  0  0
  -22.7419  -29.4671   22.4979 C   0  0  0  0  0  0
  -18.0277  -28.1379   22.8490 C   0  0  0  0  0  0
  -24.1485  -36.7315   23.2635 C   0  0  0  0  0  0
  -25.9387  -30.8273   21.3671 C   0  0  0  0  0  0
  -26.0138  -29.4628   20.7084 C   0  0  0  0  0  0
  -27.2064  -28.6966   20.6894 C   0  0  0  0  0  0
  -26.0327  -26.9428   19.4862 C   0  0  0  0  0  0
  -24.8542  -27.7053   19.4985 C   0  0  0  0  0  0
  -23.6130  -29.8345   20.1656 C   0  0  0  0  0  0
  -25.4102  -36.3113   24.0339 C   0  0  1  0  0  0
  -20.5870  -28.3674   23.1305 C   0  0  2  0  0  0
  -20.6769  -26.9410   22.5410 C   0  0  0  0  0  0
  -19.5749  -26.6388   21.5206 C   0  0  0  0  0  0
  -18.1927  -26.7924   22.1618 C   0  0  0  0  0  0
  -19.1528  -28.8841   23.2897 C   0  0  0  0  0  0
  -18.9449  -30.1445   23.8914 C   0  0  0  0  0  0
  -17.6452  -30.6585   24.0567 C   0  0  0  0  0  0
  -25.9031  -34.9476   23.5134 C   0  0  0  0  0  0
  -16.5343  -29.9087   23.6326 C   0  0  0  0  0  0
  -16.7264  -28.6503   23.0344 C   0  0  0  0  0  0
  -26.4482  -31.6595   25.0740 C   0  0  0  0  0  0
  -25.3758  -31.3682   26.1495 C   0  0  0  0  0  0
  -27.0299  -30.3036   24.6099 C   0  0  0  0  0  0
  -27.6065  -32.4313   25.7491 C   0  0  0  0  0  0
  -27.5583  -37.1810   24.8464 C   0  0  0  0  0  0
  -21.4145  -29.3047   22.3716 N   0  0  0  0  0  0
  -26.4293  -37.3796   23.9410 N   0  0  0  0  0  0
  -24.6726  -31.0771   22.1017 N   0  0  0  0  0  0
  -23.4184  -28.8197   23.3017 O   0  0  0  0  0  0
  -28.3821  -26.6448   20.1048 O   0  0  0  0  0  0
  -26.5588  -34.8927   22.4695 O   0  0  0  0  0  0
  -23.5365  -32.1431   23.7499 O   0  0  0  0  0  0
  -31.6806  -18.8410   21.4871 C   0  0  0  0  0  0
  -31.4708  -17.4448   21.4362 C   0  0  0  0  0  0
  -29.4708  -19.2290   20.5585 C   0  0  0  0  0  0
  -30.6871  -19.7555   21.0564 C   0  0  0  0  0  0
  -30.2505  -16.9245   20.9501 C   0  0  0  0  0  0
  -29.2578  -17.8298   20.5035 C   0  0  0  0  0  0
  -30.9295  -21.2465   21.2004 C   0  0  0  0  0  0
  -30.4019  -24.2152   19.1457 C   0  0  0  0  0  0
  -31.2091  -22.9537   19.4765 C   0  0  0  0  0  0
  -29.1646  -22.8792   20.6747 C   0  0  0  0  0  0
  -29.4525  -24.3601   20.3262 C   0  0  2  0  0  0
  -28.1905  -25.2136   20.0391 C   0  0  0  0  0  0
  -30.3565  -22.0918   20.3099 N   0  0  0  0  0  0
  -28.0648  -17.3291   19.9841 N   0  0  0  0  0  0
  -29.9421  -15.5287   20.9777 N   0  0  0  0  0  0
  -31.7373  -21.6496   22.0441 O   0  0  0  0  0  0
  -31.4692  -12.4230   19.1175 H   0  0  0  0  0  0
  -30.3299  -11.3113   19.8253 H   0  0  0  0  0  0
  -29.7378  -11.7738   17.4297 H   0  0  0  0  0  0
  -29.6567  -13.4856   17.7537 H   0  0  0  0  0  0
  -27.8359  -11.3042   18.8285 H   0  0  0  0  0  0
  -27.3625  -12.6196   17.7869 H   0  0  0  0  0  0
  -27.6933  -14.2512   19.5550 H   0  0  0  0  0  0
  -28.6847  -11.9794   21.3494 H   0  0  0  0  0  0
  -28.4678  -13.6276   21.8566 H   0  0  0  0  0  0
  -25.2764   -9.5703   22.4730 H   0  0  0  0  0  0
  -24.0019   -7.4642   22.7456 H   0  0  0  0  0  0
  -21.0835   -8.8760   19.8947 H   0  0  0  0  0  0
  -22.3679  -10.9672   19.6141 H   0  0  0  0  0  0
  -21.2018   -7.6148   23.9723 H   0  0  0  0  0  0
  -21.1469   -6.0523   25.9080 H   0  0  0  0  0  0
  -22.0597   -2.7614   23.2846 H   0  0  0  0  0  0
  -22.4120  -11.9903   22.4810 H   0  0  0  0  0  0
  -21.1103  -13.1239   22.2577 H   0  0  0  0  0  0
  -24.6651  -15.8372   20.6026 H   0  0  0  0  0  0
  -26.3028  -15.6718   20.2484 H   0  0  0  0  0  0
  -26.7120  -32.5525   23.1170 H   0  0  0  0  0  0
  -25.0095  -33.9785   25.0514 H   0  0  0  0  0  0
  -22.6955  -31.3136   21.4165 H   0  0  0  0  0  0
  -23.3746  -35.9651   23.3308 H   0  0  0  0  0  0
  -24.3587  -36.8916   22.2049 H   0  0  0  0  0  0
  -23.7237  -37.6524   23.6640 H   0  0  0  0  0  0
  -26.0540  -31.5955   20.6018 H   0  0  0  0  0  0
  -26.8258  -30.8768   21.9866 H   0  0  0  0  0  0
  -28.1054  -29.0774   21.1530 H   0  0  0  0  0  0
  -25.9784  -25.9846   18.9946 H   0  0  0  0  0  0
  -23.9587  -27.3178   19.0325 H   0  0  0  0  0  0
  -23.7249  -30.6125   19.4095 H   0  0  0  0  0  0
  -22.7350  -29.2587   19.8669 H   0  0  0  0  0  0
  -25.1275  -36.1987   25.0833 H   0  0  0  0  0  0
  -20.9963  -28.3240   24.1424 H   0  0  0  0  0  0
  -20.5674  -26.2277   23.3593 H   0  0  0  0  0  0
  -21.6637  -26.7456   22.1202 H   0  0  0  0  0  0
  -19.6911  -25.6300   21.1231 H   0  0  0  0  0  0
  -19.6688  -27.3201   20.6735 H   0  0  0  0  0  0
  -17.4195  -26.6675   21.4022 H   0  0  0  0  0  0
  -18.0334  -26.0064   22.9013 H   0  0  0  0  0  0
  -19.7922  -30.7258   24.2290 H   0  0  0  0  0  0
  -17.5004  -31.6267   24.5164 H   0  0  0  0  0  0
  -15.5344  -30.2992   23.7634 H   0  0  0  0  0  0
  -15.8662  -28.0825   22.7048 H   0  0  0  0  0  0
  -24.5942  -30.7008   25.7841 H   0  0  0  0  0  0
  -24.8938  -32.2824   26.4971 H   0  0  0  0  0  0
  -25.8140  -30.8848   27.0235 H   0  0  0  0  0  0
  -26.2824  -29.6806   24.1169 H   0  0  0  0  0  0
  -27.4082  -29.7264   25.4546 H   0  0  0  0  0  0
  -27.8666  -30.4355   23.9233 H   0  0  0  0  0  0
  -27.2689  -33.3607   26.2091 H   0  0  0  0  0  0
  -28.3858  -32.6876   25.0301 H   0  0  0  0  0  0
  -28.0747  -31.8421   26.5386 H   0  0  0  0  0  0
  -28.2602  -38.0107   24.7517 H   0  0  0  0  0  0
  -28.1077  -36.2639   24.6280 H   0  0  0  0  0  0
  -27.2308  -37.1454   25.8870 H   0  0  0  0  0  0
  -20.9295  -29.8777   21.6949 H   0  0  0  0  0  0
  -26.0186  -38.2877   24.1413 H   0  0  0  0  0  0
  -32.6167  -19.2123   21.8828 H   0  0  0  0  0  0
  -32.2436  -16.7814   21.7973 H   0  0  0  0  0  0
  -28.6974  -19.9063   20.2237 H   0  0  0  0  0  0
  -29.8345  -24.0489   18.2274 H   0  0  0  0  0  0
  -31.0273  -25.0958   18.9926 H   0  0  0  0  0  0
  -32.1189  -23.2356   20.0115 H   0  0  0  0  0  0
  -31.5164  -22.4290   18.5712 H   0  0  0  0  0  0
  -28.3233  -22.5054   20.0900 H   0  0  0  0  0  0
  -28.8963  -22.7688   21.7276 H   0  0  0  0  0  0
  -29.9947  -24.7993   21.1656 H   0  0  0  0  0  0
  -27.4229  -24.9360   20.7638 H   0  0  0  0  0  0
  -27.8157  -24.9307   19.0550 H   0  0  0  0  0  0
  -27.4905  -18.0096   19.4979 H   0  0  0  0  0  0
  -28.1906  -16.5065   19.4077 H   0  0  0  0  0  0
  -28.9706  -15.3177   21.1473 H   0  0  0  0  0  0
  1 25  1  0  0  0
  1 30  2  0  0  0
  1 85  1  0  0  0
  2  3  1  0  0  0
  2 25  1  0  0  0
  2 87  1  0  0  0
  2 88  1  0  0  0
  3  4  1  0  0  0
  3 89  1  0  0  0
  3 90  1  0  0  0
  4  5  1  0  0  0
  4 91  1  0  0  0
  4 92  1  0  0  0
  5  6  1  0  0  0
  5 26  1  0  0  0
  5 93  1  0  0  0
  6 25  1  0  0  0
  6 94  1  0  0  0
  6 95  1  0  0  0
  7  8  2  0  0  0
  7 26  1  0  0  0
  7 29  1  0  0  0
  8  9  1  0  0  0
  8 22  1  0  0  0
  9 10  1  0  0  0
  9 27  2  0  0  0
 10 11  2  0  0  0
 10 15  1  0  0  0
 11 12  1  0  0  0
 11 96  1  0  0  0
 12 13  2  0  0  0
 12 97  1  0  0  0
 13 14  1  0  0  0
 13 31  1  0  0  0
 14 15  2  0  0  0
 14 98  1  0  0  0
 15 99  1  0  0  0
 16 17  2  0  0  0
 16 21  1  0  0  0
 16 31  1  0  0  0
 17 18  1  0  0  0
 17100  1  0  0  0
 18 19  2  0  0  0
 18101  1  0  0  0
 19 20  1  0  0  0
 19 24  1  0  0  0
 20 21  2  0  0  0
 20102  1  0  0  0
 21 23  1  0  0  0
 22 28  1  0  0  0
 22 32  2  0  0  0
 26 27  1  0  0  0
 28103  1  0  0  0
 28104  1  0  0  0
 29105  1  0  0  0
 29106  1  0  0  0
 33 34  1  0  0  0
 33 66  1  0  0  0
 33 70  2  0  0  0
 34 36  1  0  0  0
 34 59  1  0  0  0
 34107  1  0  0  0
 35 44  2  0  0  0
 35 45  1  0  0  0
 35 68  1  0  0  0
 36 56  1  0  0  0
 36108  1  0  0  0
 37 39  1  0  0  0
 37 47  1  0  0  0
 37 66  1  0  0  0
 37109  1  0  0  0
 38 43  2  0  0  0
 38 46  1  0  0  0
 38 47  1  0  0  0
 39 64  1  0  0  0
 39 67  2  0  0  0
 40 52  1  0  0  0
 40 53  2  0  0  0
 40 58  1  0  0  0
 41110  1  0  0  0
 41111  1  0  0  0
 41112  1  0  0  0
 41 48  1  0  0  0
 42 43  1  0  0  0
 42 66  1  0  0  0
 42113  1  0  0  0
 42114  1  0  0  0
 43 44  1  0  0  0
 44115  1  0  0  0
 45 46  2  0  0  0
 45116  1  0  0  0
 46117  1  0  0  0
 47118  1  0  0  0
 47119  1  0  0  0
 48 56  1  0  0  0
 48 65  1  0  0  0
 48120  1  0  0  0
 49 50  1  0  0  0
 49 53  1  0  0  0
 49 64  1  0  0  0
 49121  1  0  0  0
 50 51  1  0  0  0
 50122  1  0  0  0
 50123  1  0  0  0
 51 52  1  0  0  0
 51124  1  0  0  0
 51125  1  0  0  0
 52126  1  0  0  0
 52127  1  0  0  0
 53 54  1  0  0  0
 54 55  2  0  0  0
 54128  1  0  0  0
 55 57  1  0  0  0
 55129  1  0  0  0
 56 69  2  0  0  0
 57 58  2  0  0  0
 57130  1  0  0  0
 58131  1  0  0  0
 59 60  1  0  0  0
 59 61  1  0  0  0
 59 62  1  0  0  0
 60132  1  0  0  0
 60133  1  0  0  0
 60134  1  0  0  0
 61135  1  0  0  0
 61136  1  0  0  0
 61137  1  0  0  0
 62138  1  0  0  0
 62139  1  0  0  0
 62140  1  0  0  0
 63 65  1  0  0  0
 63141  1  0  0  0
 63142  1  0  0  0
 63143  1  0  0  0
 64144  1  0  0  0
 65145  1  0  0  0
 68 82  1  0  0  0
 71 72  2  0  0  0
 71 74  1  0  0  0
 71146  1  0  0  0
 72 75  1  0  0  0
 72147  1  0  0  0
 73 74  2  0  0  0
 73 76  1  0  0  0
 73148  1  0  0  0
 74 77  1  0  0  0
 75 76  2  0  0  0
 75 85  1  0  0  0
 76 84  1  0  0  0
 77 83  1  0  0  0
 77 86  2  0  0  0
 78 79  1  0  0  0
 78 81  1  0  0  0
 78149  1  0  0  0
 78150  1  0  0  0
 79 83  1  0  0  0
 79151  1  0  0  0
 79152  1  0  0  0
 80 81  1  0  0  0
 80 83  1  0  0  0
 80153  1  0  0  0
 80154  1  0  0  0
 81 82  1  0  0  0
 81155  1  0  0  0
 82156  1  0  0  0
 82157  1  0  0  0
 84158  1  0  0  0
 84159  1  0  0  0
 85160  1  0  0  0
M  ISO  4   1 100  68 101  82 101  85 100
M  END
> <chiral flag>
0

> <version>
0

> <s_m_source_file>
/data/baiqing/PycharmProjects/Reinvent-master-3.2/result/LINK_invent/BTK/process_docking_weight1_custom_product_contain_oxygen_bond_distance_aromatic_linkinvent_7_9_3/rearranged_h_0106.sdf

> <i_m_source_file_index>
52

> <r_mmod_Potential_Energy-OPLS-2005>
20.3552589416504

> <r_mmod_Stretch_Energy-OPLS-2005>
41.6380386352539

> <r_mmod_Bend_Energy-OPLS-2005>
120.574867248535

> <r_mmod_Torsional_Energy-OPLS-2005>
370.711303710938

> <r_mmod_Improper_Torsional_Energy-OPLS-2005>
15.1045684814453

> <r_mmod_Van_der_Waal_Energy-OPLS-2005>
157.45964050293

> <r_mmod_Electrostatic_Energy-OPLS-2005>
-476.136444091797

> <r_mmod_Solvation_Energy-OPLS-2005>
-226.32177734375

> <b_mmod_Minimization_Converged-OPLS-2005>
0

> <r_mmod_RMS_Derivative-OPLS-2005>
1.45426309108734

$$$$
52
                    3D
 Structure written by MMmdl.
161169  0  0  1  0            999 V2000
  -30.6515  -14.7252   20.3637 C   0  0  0  0  0  0
  -30.4477  -12.4198   19.4309 C   0  0  0  0  0  0
  -29.4863  -12.3490   18.2216 C   0  0  0  0  0  0
  -28.0142  -12.2526   18.6658 C   0  0  0  0  0  0
  -27.6364  -13.2002   19.8346 C   0  0  2  0  0  0
  -28.7095  -13.1928   20.9436 C   0  0  0  0  0  0
  -25.2553  -13.8144   20.5759 C   0  0  0  0  0  0
  -24.1796  -13.0429   20.9221 C   0  0  0  0  0  0
  -24.6350  -11.6894   20.8806 C   0  0  0  0  0  0
  -23.9041  -10.4269   21.0436 C   0  0  0  0  0  0
  -24.3615   -9.4188   21.9196 C   0  0  0  0  0  0
  -23.6303   -8.2220   22.0760 C   0  0  0  0  0  0
  -22.4285   -8.0263   21.3550 C   0  0  0  0  0  0
  -21.9909   -9.0234   20.4652 C   0  0  0  0  0  0
  -22.7231  -10.2116   20.3067 C   0  0  0  0  0  0
  -21.6838   -6.0725   22.5270 C   0  0  0  0  0  0
  -21.3981   -6.5631   23.8199 C   0  0  0  0  0  0
  -21.3665   -5.6792   24.9170 C   0  0  0  0  0  0
  -21.6062   -4.3057   24.7221 C   0  0  0  0  0  0
  -21.8816   -3.8143   23.4338 C   0  0  0  0  0  0
  -21.9178   -4.6956   22.3391 C   0  0  0  0  0  0
  -22.7816  -13.5248   21.1857 C   0  0  0  0  0  0
  -22.1651   -4.2141   21.0972 F   0  0  0  0  0  0
  -21.5662   -3.4548   25.7742 F   0  0  0  0  0  0
  -29.9969  -13.5145   20.3085 N   0  0  0  0  0  0
  -26.2944  -12.9286   20.3371 N   0  0  0  0  0  0
  -25.9281  -11.6476   20.5890 N   0  0  0  0  0  0
  -22.0438  -12.8238   22.0397 N   0  0  0  0  0  0
  -25.4337  -15.1854   20.4223 N   0  0  0  0  0  0
  -31.8839  -14.7555   20.3245 O   0  0  0  0  0  0
  -21.6650   -6.8866   21.4232 O   0  0  0  0  0  0
  -22.3535  -14.5565   20.6706 O   0  0  0  0  0  0
  -24.6242  -31.8596   23.2029 C   0  0  0  0  0  0
  -25.9094  -32.4782   23.8364 C   0  0  1  0  0  0
  -27.2367  -27.3216   20.1398 C   0  0  0  0  0  0
  -25.5923  -33.8581   24.2289 N   0  0  0  0  0  0
  -23.4203  -30.4795   21.5453 C   0  0  2  0  0  0
  -24.8721  -28.9342   20.1162 C   0  0  0  0  0  0
  -22.7477  -29.4604   22.4955 C   0  0  0  0  0  0
  -18.0276  -28.1386   22.8491 C   0  0  0  0  0  0
  -24.1492  -36.7286   23.2638 C   0  0  0  0  0  0
  -25.9597  -30.7944   21.3735 C   0  0  0  0  0  0
  -26.0391  -29.4214   20.7180 C   0  0  0  0  0  0
  -27.2242  -28.6283   20.7160 C   0  0  0  0  0  0
  -26.0444  -26.8844   19.5143 C   0  0  0  0  0  0
  -24.8768  -27.6715   19.5048 C   0  0  0  0  0  0
  -23.6371  -29.8099   20.1627 C   0  0  0  0  0  0
  -25.4113  -36.3083   24.0332 C   0  0  1  0  0  0
  -20.5882  -28.3677   23.1301 C   0  0  2  0  0  0
  -20.6773  -26.9406   22.5414 C   0  0  0  0  0  0
  -19.5749  -26.6384   21.5214 C   0  0  0  0  0  0
  -18.1924  -26.7928   22.1620 C   0  0  0  0  0  0
  -19.1528  -28.8851   23.2886 C   0  0  0  0  0  0
  -18.9451  -30.1459   23.8888 C   0  0  0  0  0  0
  -17.6450  -30.6596   24.0552 C   0  0  0  0  0  0
  -25.9049  -34.9452   23.5106 C   0  0  0  0  0  0
  -16.5340  -29.9082   23.6341 C   0  0  0  0  0  0
  -16.7265  -28.6503   23.0359 C   0  0  0  0  0  0
  -26.4492  -31.6588   25.0728 C   0  0  0  0  0  0
  -25.3735  -31.3724   26.1466 C   0  0  0  0  0  0
  -27.0329  -30.3012   24.6178 C   0  0  0  0  0  0
  -27.6059  -32.4321   25.7499 C   0  0  0  0  0  0
  -27.5589  -37.1791   24.8456 C   0  0  0  0  0  0
  -21.4189  -29.3026   22.3698 N   0  0  0  0  0  0
  -26.4294  -37.3782   23.9426 N   0  0  0  0  0  0
  -24.6867  -31.0611   22.0974 N   0  0  0  0  0  0
  -23.4205  -28.8147   23.3032 O   0  0  0  0  0  0
  -28.3609  -26.4817   20.2063 O   0  0  0  0  0  0
  -26.5606  -34.8919   22.4668 O   0  0  0  0  0  0
  -23.5405  -32.1382   23.7356 O   0  0  0  0  0  0
  -31.1910  -18.0274   20.1328 C   0  0  0  0  0  0
  -28.9813  -17.9102   21.0649 C   0  0  0  0  0  0
  -31.1815  -19.4441   20.2914 C   0  0  0  0  0  0
  -30.0744  -17.2178   20.4672 C   0  0  0  0  0  0
  -28.9560  -19.3339   21.2149 C   0  0  0  0  0  0
  -30.0479  -20.1534   20.7855 C   0  0  0  0  0  0
  -29.5661  -15.8889   18.6257 C   0  0  0  0  0  0
  -32.4118  -20.2247   19.8636 C   0  0  0  0  0  0
  -28.3237  -16.6923   18.2358 C   0  0  0  0  0  0
  -29.3391  -24.0331   20.5796 C   0  0  0  0  0  0
  -28.1303  -25.0193   20.2683 C   0  0  0  0  0  0
  -28.9906  -22.4876   20.7838 C   0  0  0  0  0  0
  -27.8231  -19.9055   21.7916 N   0  0  0  0  0  0
  -29.9481  -15.8495   19.9338 N   0  0  0  0  0  0
  -30.2505  -15.4404   17.6991 O   0  0  0  0  0  0
  -30.1320  -21.5684   20.8340 O   0  0  0  0  0  0
  -31.4707  -12.5733   19.0793 H   0  0  0  0  0  0
  -30.4475  -11.4760   19.9781 H   0  0  0  0  0  0
  -29.7385  -11.4741   17.6195 H   0  0  0  0  0  0
  -29.6139  -13.1857   17.5450 H   0  0  0  0  0  0
  -27.8578  -11.2183   18.9748 H   0  0  0  0  0  0
  -27.3473  -12.4145   17.8176 H   0  0  0  0  0  0
  -27.6000  -14.1970   19.4086 H   0  0  0  0  0  0
  -28.7555  -12.2210   21.4370 H   0  0  0  0  0  0
  -28.4709  -13.9265   21.7163 H   0  0  0  0  0  0
  -25.2753   -9.5699   22.4776 H   0  0  0  0  0  0
  -24.0014   -7.4622   22.7491 H   0  0  0  0  0  0
  -21.0823   -8.8760   19.8976 H   0  0  0  0  0  0
  -22.3673  -10.9667   19.6197 H   0  0  0  0  0  0
  -21.1942   -7.6135   23.9692 H   0  0  0  0  0  0
  -21.1512   -6.0530   25.9079 H   0  0  0  0  0  0
  -22.0592   -2.7603   23.2838 H   0  0  0  0  0  0
  -22.4046  -11.9892   22.4778 H   0  0  0  0  0  0
  -21.1064  -13.1287   22.2629 H   0  0  0  0  0  0
  -24.6784  -15.8495   20.5545 H   0  0  0  0  0  0
  -26.3089  -15.6250   20.1747 H   0  0  0  0  0  0
  -26.7164  -32.5469   23.1115 H   0  0  0  0  0  0
  -25.0085  -33.9752   25.0448 H   0  0  0  0  0  0
  -22.7119  -31.2974   21.3997 H   0  0  0  0  0  0
  -23.3771  -35.9595   23.3259 H   0  0  0  0  0  0
  -24.3591  -36.8947   22.2058 H   0  0  0  0  0  0
  -23.7222  -37.6470   23.6678 H   0  0  0  0  0  0
  -26.0875  -31.5586   20.6058 H   0  0  0  0  0  0
  -26.8400  -30.8447   22.0023 H   0  0  0  0  0  0
  -28.1198  -28.9961   21.1982 H   0  0  0  0  0  0
  -25.9854  -25.9172   19.0389 H   0  0  0  0  0  0
  -23.9815  -27.2895   19.0343 H   0  0  0  0  0  0
  -23.7526  -30.5817   19.4016 H   0  0  0  0  0  0
  -22.7603  -29.2331   19.8638 H   0  0  0  0  0  0
  -25.1289  -36.1928   25.0823 H   0  0  0  0  0  0
  -20.9958  -28.3240   24.1429 H   0  0  0  0  0  0
  -20.5690  -26.2271   23.3602 H   0  0  0  0  0  0
  -21.6640  -26.7457   22.1190 H   0  0  0  0  0  0
  -19.6906  -25.6291   21.1251 H   0  0  0  0  0  0
  -19.6702  -27.3190   20.6738 H   0  0  0  0  0  0
  -17.4202  -26.6682   21.4012 H   0  0  0  0  0  0
  -18.0319  -26.0078   22.9022 H   0  0  0  0  0  0
  -19.7930  -30.7271   24.2257 H   0  0  0  0  0  0
  -17.5010  -31.6283   24.5142 H   0  0  0  0  0  0
  -15.5336  -30.2966   23.7692 H   0  0  0  0  0  0
  -15.8666  -28.0813   22.7076 H   0  0  0  0  0  0
  -24.5877  -30.7119   25.7787 H   0  0  0  0  0  0
  -24.8956  -32.2884   26.4946 H   0  0  0  0  0  0
  -25.8056  -30.8849   27.0211 H   0  0  0  0  0  0
  -26.2884  -29.6777   24.1203 H   0  0  0  0  0  0
  -27.4025  -29.7271   25.4688 H   0  0  0  0  0  0
  -27.8765  -30.4303   23.9389 H   0  0  0  0  0  0
  -27.2685  -33.3628   26.2071 H   0  0  0  0  0  0
  -28.3867  -32.6871   25.0324 H   0  0  0  0  0  0
  -28.0723  -31.8446   26.5418 H   0  0  0  0  0  0
  -28.2564  -38.0133   24.7562 H   0  0  0  0  0  0
  -28.1128  -36.2661   24.6194 H   0  0  0  0  0  0
  -27.2316  -37.1340   25.8862 H   0  0  0  0  0  0
  -20.9368  -29.8730   21.6891 H   0  0  0  0  0  0
  -26.0162  -38.2849   24.1454 H   0  0  0  0  0  0
  -32.0486  -17.5622   19.6639 H   0  0  0  0  0  0
  -28.1043  -17.3415   21.3419 H   0  0  0  0  0  0
  -33.2479  -19.5671   19.6229 H   0  0  0  0  0  0
  -32.7349  -20.8931   20.6616 H   0  0  0  0  0  0
  -32.1888  -20.8246   18.9817 H   0  0  0  0  0  0
  -27.5404  -16.5977   18.9856 H   0  0  0  0  0  0
  -27.9247  -16.3300   17.2885 H   0  0  0  0  0  0
  -28.5727  -17.7467   18.1174 H   0  0  0  0  0  0
  -29.8550  -24.3894   21.4727 H   0  0  0  0  0  0
  -30.0653  -24.1202   19.7711 H   0  0  0  0  0  0
  -27.3539  -24.8344   21.0145 H   0  0  0  0  0  0
  -27.7215  -24.6937   19.3118 H   0  0  0  0  0  0
  -28.3176  -22.1611   19.9909 H   0  0  0  0  0  0
  -28.4409  -22.4141   21.7222 H   0  0  0  0  0  0
  -27.2253  -19.3126   22.3569 H   0  0  0  0  0  0
  -27.9302  -20.8341   22.1835 H   0  0  0  0  0  0
  1 25  1  0  0  0
  1 30  2  0  0  0
  1 84  1  0  0  0
  2  3  1  0  0  0
  2 25  1  0  0  0
  2 87  1  0  0  0
  2 88  1  0  0  0
  3  4  1  0  0  0
  3 89  1  0  0  0
  3 90  1  0  0  0
  4  5  1  0  0  0
  4 91  1  0  0  0
  4 92  1  0  0  0
  5  6  1  0  0  0
  5 26  1  0  0  0
  5 93  1  0  0  0
  6 25  1  0  0  0
  6 94  1  0  0  0
  6 95  1  0  0  0
  7  8  2  0  0  0
  7 26  1  0  0  0
  7 29  1  0  0  0
  8  9  1  0  0  0
  8 22  1  0  0  0
  9 10  1  0  0  0
  9 27  2  0  0  0
 10 11  2  0  0  0
 10 15  1  0  0  0
 11 12  1  0  0  0
 11 96  1  0  0  0
 12 13  2  0  0  0
 12 97  1  0  0  0
 13 14  1  0  0  0
 13 31  1  0  0  0
 14 15  2  0  0  0
 14 98  1  0  0  0
 15 99  1  0  0  0
 16 17  2  0  0  0
 16 21  1  0  0  0
 16 31  1  0  0  0
 17 18  1  0  0  0
 17100  1  0  0  0
 18 19  2  0  0  0
 18101  1  0  0  0
 19 20  1  0  0  0
 19 24  1  0  0  0
 20 21  2  0  0  0
 20102  1  0  0  0
 21 23  1  0  0  0
 22 28  1  0  0  0
 22 32  2  0  0  0
 26 27  1  0  0  0
 28103  1  0  0  0
 28104  1  0  0  0
 29105  1  0  0  0
 29106  1  0  0  0
 33 34  1  0  0  0
 33 66  1  0  0  0
 33 70  2  0  0  0
 34 36  1  0  0  0
 34 59  1  0  0  0
 34107  1  0  0  0
 35 44  2  0  0  0
 35 45  1  0  0  0
 35 68  1  0  0  0
 36 56  1  0  0  0
 36108  1  0  0  0
 37 39  1  0  0  0
 37 47  1  0  0  0
 37 66  1  0  0  0
 37109  1  0  0  0
 38 43  2  0  0  0
 38 46  1  0  0  0
 38 47  1  0  0  0
 39 64  1  0  0  0
 39 67  2  0  0  0
 40 52  1  0  0  0
 40 53  2  0  0  0
 40 58  1  0  0  0
 41110  1  0  0  0
 41111  1  0  0  0
 41112  1  0  0  0
 41 48  1  0  0  0
 42 43  1  0  0  0
 42 66  1  0  0  0
 42113  1  0  0  0
 42114  1  0  0  0
 43 44  1  0  0  0
 44115  1  0  0  0
 45 46  2  0  0  0
 45116  1  0  0  0
 46117  1  0  0  0
 47118  1  0  0  0
 47119  1  0  0  0
 48 56  1  0  0  0
 48 65  1  0  0  0
 48120  1  0  0  0
 49 50  1  0  0  0
 49 53  1  0  0  0
 49 64  1  0  0  0
 49121  1  0  0  0
 50 51  1  0  0  0
 50122  1  0  0  0
 50123  1  0  0  0
 51 52  1  0  0  0
 51124  1  0  0  0
 51125  1  0  0  0
 52126  1  0  0  0
 52127  1  0  0  0
 53 54  1  0  0  0
 54 55  2  0  0  0
 54128  1  0  0  0
 55 57  1  0  0  0
 55129  1  0  0  0
 56 69  2  0  0  0
 57 58  2  0  0  0
 57130  1  0  0  0
 58131  1  0  0  0
 59 60  1  0  0  0
 59 61  1  0  0  0
 59 62  1  0  0  0
 60132  1  0  0  0
 60133  1  0  0  0
 60134  1  0  0  0
 61135  1  0  0  0
 61136  1  0  0  0
 61137  1  0  0  0
 62138  1  0  0  0
 62139  1  0  0  0
 62140  1  0  0  0
 63 65  1  0  0  0
 63141  1  0  0  0
 63142  1  0  0  0
 63143  1  0  0  0
 64144  1  0  0  0
 65145  1  0  0  0
 68 81  1  0  0  0
 71 73  2  0  0  0
 71 74  1  0  0  0
 71146  1  0  0  0
 72 74  2  0  0  0
 72 75  1  0  0  0
 72147  1  0  0  0
 73 76  1  0  0  0
 73 78  1  0  0  0
 74 84  1  0  0  0
 75 76  2  0  0  0
 75 83  1  0  0  0
 76 86  1  0  0  0
 77 79  1  0  0  0
 77 84  1  0  0  0
 77 85  2  0  0  0
 78148  1  0  0  0
 78149  1  0  0  0
 78150  1  0  0  0
 79151  1  0  0  0
 79152  1  0  0  0
 79153  1  0  0  0
 80 81  1  0  0  0
 80 82  1  0  0  0
 80154  1  0  0  0
 80155  1  0  0  0
 81156  1  0  0  0
 81157  1  0  0  0
 82 86  1  0  0  0
 82158  1  0  0  0
 82159  1  0  0  0
 83160  1  0  0  0
 83161  1  0  0  0
M  ISO  4   1 100  68 101  81 101  84 100
M  END
> <chiral flag>
0

> <version>
0

> <s_m_source_file>
/data/baiqing/PycharmProjects/Reinvent-master-3.2/result/LINK_invent/BTK/process_docking_weight1_custom_product_contain_oxygen_bond_distance_aromatic_linkinvent_7_9_3/rearranged_h_0106.sdf

> <i_m_source_file_index>
53

> <r_mmod_Potential_Energy-OPLS-2005>
307.715026855469

> <r_mmod_Stretch_Energy-OPLS-2005>
89.3066864013672

> <r_mmod_Bend_Energy-OPLS-2005>
157.01708984375

> <r_mmod_Torsional_Energy-OPLS-2005>
365.231170654297

> <r_mmod_Improper_Torsional_Energy-OPLS-2005>
26.8082962036133

> <r_mmod_Van_der_Waal_Energy-OPLS-2005>
154.221115112305

> <r_mmod_Electrostatic_Energy-OPLS-2005>
-359.285614013672

> <r_mmod_Solvation_Energy-OPLS-2005>
-210.736953735352

> <b_mmod_Minimization_Converged-OPLS-2005>
0

> <r_mmod_RMS_Derivative-OPLS-2005>
2.35088729858398

$$$$
53
                    3D
 Structure written by MMmdl.
166175  0  0  1  0            999 V2000
  -30.5762  -14.6768   20.5924 C   0  0  0  0  0  0
  -30.4689  -12.4615   19.4165 C   0  0  0  0  0  0
  -29.5125  -12.5566   18.1993 C   0  0  0  0  0  0
  -28.0297  -12.3782   18.5975 C   0  0  0  0  0  0
  -27.6642  -13.1893   19.8666 C   0  0  2  0  0  0
  -28.7159  -12.8785   20.9465 C   0  0  0  0  0  0
  -25.2655  -13.8127   20.5621 C   0  0  0  0  0  0
  -24.1865  -13.0438   20.9121 C   0  0  0  0  0  0
  -24.6380  -11.6892   20.8690 C   0  0  0  0  0  0
  -23.9037  -10.4301   21.0368 C   0  0  0  0  0  0
  -24.3612   -9.4224   21.9145 C   0  0  0  0  0  0
  -23.6286   -8.2269   22.0721 C   0  0  0  0  0  0
  -22.4257   -8.0308   21.3539 C   0  0  0  0  0  0
  -21.9875   -9.0288   20.4649 C   0  0  0  0  0  0
  -22.7202  -10.2165   20.3047 C   0  0  0  0  0  0
  -21.6869   -6.0757   22.5259 C   0  0  0  0  0  0
  -21.4023   -6.5642   23.8192 C   0  0  0  0  0  0
  -21.3664   -5.6788   24.9150 C   0  0  0  0  0  0
  -21.6042   -4.3053   24.7193 C   0  0  0  0  0  0
  -21.8827   -3.8152   23.4307 C   0  0  0  0  0  0
  -21.9198   -4.6985   22.3369 C   0  0  0  0  0  0
  -22.7917  -13.5291   21.1811 C   0  0  0  0  0  0
  -22.1670   -4.2177   21.0950 F   0  0  0  0  0  0
  -21.5627   -3.4522   25.7701 F   0  0  0  0  0  0
  -29.9999  -13.4163   20.4533 N   0  0  0  0  0  0
  -26.3038  -12.9228   20.3286 N   0  0  0  0  0  0
  -25.9293  -11.6410   20.5679 N   0  0  0  0  0  0
  -22.0565  -12.8351   22.0406 N   0  0  0  0  0  0
  -25.4393  -15.1840   20.4028 N   0  0  0  0  0  0
  -31.7144  -14.8512   20.1354 O   0  0  0  0  0  0
  -21.6639   -6.8900   21.4220 O   0  0  0  0  0  0
  -22.3622  -14.5604   20.6660 O   0  0  0  0  0  0
  -24.6241  -31.8582   23.2008 C   0  0  0  0  0  0
  -25.9089  -32.4780   23.8353 C   0  0  1  0  0  0
  -27.2483  -27.3280   20.1357 C   0  0  0  0  0  0
  -25.5889  -33.8574   24.2260 N   0  0  0  0  0  0
  -23.4219  -30.4735   21.5417 C   0  0  2  0  0  0
  -24.8770  -28.9196   20.1205 C   0  0  0  0  0  0
  -22.7477  -29.4594   22.4954 C   0  0  0  0  0  0
  -18.0278  -28.1396   22.8499 C   0  0  0  0  0  0
  -24.1485  -36.7297   23.2649 C   0  0  0  0  0  0
  -25.9610  -30.7868   21.3772 C   0  0  0  0  0  0
  -26.0410  -29.4149   20.7231 C   0  0  0  0  0  0
  -27.2308  -28.6332   20.7142 C   0  0  0  0  0  0
  -26.0611  -26.8668   19.5263 C   0  0  0  0  0  0
  -24.8882  -27.6496   19.5140 C   0  0  0  0  0  0
  -23.6411  -29.7978   20.1617 C   0  0  0  0  0  0
  -25.4117  -36.3088   24.0324 C   0  0  1  0  0  0
  -20.5884  -28.3686   23.1299 C   0  0  2  0  0  0
  -20.6774  -26.9410   22.5426 C   0  0  0  0  0  0
  -19.5748  -26.6376   21.5235 C   0  0  0  0  0  0
  -18.1923  -26.7936   22.1638 C   0  0  0  0  0  0
  -19.1538  -28.8860   23.2886 C   0  0  0  0  0  0
  -18.9454  -30.1466   23.8884 C   0  0  0  0  0  0
  -17.6455  -30.6594   24.0564 C   0  0  0  0  0  0
  -25.9045  -34.9450   23.5106 C   0  0  0  0  0  0
  -16.5344  -29.9086   23.6356 C   0  0  0  0  0  0
  -16.7262  -28.6516   23.0357 C   0  0  0  0  0  0
  -26.4466  -31.6623   25.0753 C   0  0  0  0  0  0
  -25.3698  -31.3783   26.1493 C   0  0  0  0  0  0
  -27.0329  -30.3032   24.6270 C   0  0  0  0  0  0
  -27.6001  -32.4405   25.7519 C   0  0  0  0  0  0
  -27.5577  -37.1813   24.8463 C   0  0  0  0  0  0
  -21.4192  -29.3022   22.3691 N   0  0  0  0  0  0
  -26.4296  -37.3774   23.9398 N   0  0  0  0  0  0
  -24.6868  -31.0567   22.0960 N   0  0  0  0  0  0
  -23.4200  -28.8160   23.3070 O   0  0  0  0  0  0
  -28.3957  -26.5249   20.1103 O   0  0  0  0  0  0
  -26.5621  -34.8919   22.4676 O   0  0  0  0  0  0
  -23.5402  -32.1364   23.7313 O   0  0  0  0  0  0
  -30.0569  -19.6230   21.1554 C   0  0  0  0  0  0
  -30.2710  -18.2537   21.5047 C   0  0  0  0  0  0
  -29.4029  -18.9250   18.9741 C   0  0  0  0  0  0
  -29.6010  -20.0272   19.8731 C   0  0  0  0  0  0
  -29.9551  -17.1627   20.6418 C   0  0  0  0  0  0
  -29.5608  -17.5487   19.3345 C   0  0  0  0  0  0
  -28.6057  -24.0778   18.4521 C   0  0  0  0  0  0
  -28.7840  -23.9560   19.7776 C   0  0  0  0  0  0
  -28.9631  -22.9990   17.5266 C   0  0  0  0  0  0
  -29.6272  -21.7205   18.0684 C   0  0  0  0  0  0
  -29.3873  -22.6206   20.3918 C   0  0  2  0  0  0
  -30.8420  -22.9058   20.8074 C   0  0  0  0  0  0
  -28.4235  -16.6676   23.1556 C   0  0  0  0  0  0
  -28.3410  -25.1588   20.6872 C   0  0  0  0  0  0
  -28.9176  -15.5218   22.2514 C   0  0  0  0  0  0
  -29.3598  -21.4126   19.4866 N   0  0  0  0  0  0
  -29.8552  -15.7605   21.1188 N   0  0  0  0  0  0
  -28.7566  -23.0961   16.3155 O   0  0  0  0  0  0
  -29.2639  -16.5858   18.4098 O   0  0  0  0  0  0
  -31.4931  -12.6630   19.0972 H   0  0  0  0  0  0
  -30.4978  -11.4407   19.8033 H   0  0  0  0  0  0
  -29.7910  -11.8214   17.4430 H   0  0  0  0  0  0
  -29.6334  -13.5352   17.7314 H   0  0  0  0  0  0
  -27.8581  -11.3179   18.7778 H   0  0  0  0  0  0
  -27.3755  -12.6515   17.7704 H   0  0  0  0  0  0
  -27.7209  -14.2468   19.6106 H   0  0  0  0  0  0
  -28.7779  -11.7928   21.0456 H   0  0  0  0  0  0
  -28.4244  -13.1389   21.9563 H   0  0  0  0  0  0
  -25.2790   -9.5722   22.4665 H   0  0  0  0  0  0
  -24.0047   -7.4659   22.7410 H   0  0  0  0  0  0
  -21.0803   -8.8805   19.8963 H   0  0  0  0  0  0
  -22.3650  -10.9708   19.6154 H   0  0  0  0  0  0
  -21.2025   -7.6146   23.9711 H   0  0  0  0  0  0
  -21.1474   -6.0501   25.9057 H   0  0  0  0  0  0
  -22.0600   -2.7613   23.2777 H   0  0  0  0  0  0
  -22.4208  -12.0026   22.4815 H   0  0  0  0  0  0
  -21.1210  -13.1440   22.2676 H   0  0  0  0  0  0
  -24.6762  -15.8436   20.5151 H   0  0  0  0  0  0
  -26.3047  -15.6213   20.1114 H   0  0  0  0  0  0
  -26.7160  -32.5444   23.1108 H   0  0  0  0  0  0
  -25.0049  -33.9731   25.0412 H   0  0  0  0  0  0
  -22.7161  -31.2909   21.3928 H   0  0  0  0  0  0
  -23.3746  -35.9633   23.3335 H   0  0  0  0  0  0
  -24.3558  -36.8899   22.2059 H   0  0  0  0  0  0
  -23.7246  -37.6502   23.6664 H   0  0  0  0  0  0
  -26.1031  -31.5495   20.6118 H   0  0  0  0  0  0
  -26.8344  -30.8259   22.0158 H   0  0  0  0  0  0
  -28.1287  -29.0158   21.1767 H   0  0  0  0  0  0
  -26.0448  -25.8916   19.0616 H   0  0  0  0  0  0
  -23.9980  -27.2625   19.0388 H   0  0  0  0  0  0
  -23.7594  -30.5672   19.3973 H   0  0  0  0  0  0
  -22.7633  -29.2182   19.8665 H   0  0  0  0  0  0
  -25.1310  -36.1944   25.0812 H   0  0  0  0  0  0
  -20.9949  -28.3268   24.1433 H   0  0  0  0  0  0
  -20.5702  -26.2298   23.3629 H   0  0  0  0  0  0
  -21.6644  -26.7461   22.1211 H   0  0  0  0  0  0
  -19.6912  -25.6281   21.1281 H   0  0  0  0  0  0
  -19.6697  -27.3181   20.6765 H   0  0  0  0  0  0
  -17.4205  -26.6688   21.4026 H   0  0  0  0  0  0
  -18.0302  -26.0076   22.9030 H   0  0  0  0  0  0
  -19.7917  -30.7290   24.2248 H   0  0  0  0  0  0
  -17.4997  -31.6270   24.5162 H   0  0  0  0  0  0
  -15.5342  -30.2973   23.7678 H   0  0  0  0  0  0
  -15.8664  -28.0813   22.7082 H   0  0  0  0  0  0
  -24.5813  -30.7211   25.7823 H   0  0  0  0  0  0
  -24.8976  -32.2970   26.4973 H   0  0  0  0  0  0
  -25.8008  -30.8896   27.0241 H   0  0  0  0  0  0
  -26.2926  -29.6772   24.1277 H   0  0  0  0  0  0
  -27.3968  -29.7313   25.4821 H   0  0  0  0  0  0
  -27.8819  -30.4300   23.9550 H   0  0  0  0  0  0
  -27.2553  -33.3674   26.2111 H   0  0  0  0  0  0
  -28.3774  -32.7041   25.0341 H   0  0  0  0  0  0
  -28.0717  -31.8565   26.5427 H   0  0  0  0  0  0
  -28.2618  -38.0087   24.7479 H   0  0  0  0  0  0
  -28.1049  -36.2617   24.6333 H   0  0  0  0  0  0
  -27.2286  -37.1513   25.8864 H   0  0  0  0  0  0
  -20.9385  -29.8709   21.6854 H   0  0  0  0  0  0
  -26.0187  -38.2855   24.1369 H   0  0  0  0  0  0
  -30.2391  -20.3573   21.9241 H   0  0  0  0  0  0
  -30.6241  -18.0479   22.5029 H   0  0  0  0  0  0
  -29.0504  -19.1006   17.9726 H   0  0  0  0  0  0
  -28.1790  -24.9799   18.0320 H   0  0  0  0  0  0
  -30.7028  -21.8137   17.9220 H   0  0  0  0  0  0
  -29.2960  -20.9406   17.3899 H   0  0  0  0  0  0
  -28.7993  -22.3784   21.2789 H   0  0  0  0  0  0
  -31.3294  -22.0507   21.2700 H   0  0  0  0  0  0
  -30.9067  -23.7242   21.5242 H   0  0  0  0  0  0
  -31.4477  -23.1775   19.9418 H   0  0  0  0  0  0
  -27.9372  -17.4694   22.6012 H   0  0  0  0  0  0
  -29.2160  -17.0818   23.7761 H   0  0  0  0  0  0
  -27.6733  -16.2815   23.8475 H   0  0  0  0  0  0
  -27.3512  -24.9482   21.0928 H   0  0  0  0  0  0
  -29.0151  -25.1740   21.5449 H   0  0  0  0  0  0
  -27.9905  -15.1569   21.8151 H   0  0  0  0  0  0
  -29.3411  -14.7643   22.9137 H   0  0  0  0  0  0
  -29.0929  -16.9537   17.5500 H   0  0  0  0  0  0
  1 25  1  0  0  0
  1 30  2  0  0  0
  1 87  1  0  0  0
  2  3  1  0  0  0
  2 25  1  0  0  0
  2 90  1  0  0  0
  2 91  1  0  0  0
  3  4  1  0  0  0
  3 92  1  0  0  0
  3 93  1  0  0  0
  4  5  1  0  0  0
  4 94  1  0  0  0
  4 95  1  0  0  0
  5  6  1  0  0  0
  5 26  1  0  0  0
  5 96  1  0  0  0
  6 25  1  0  0  0
  6 97  1  0  0  0
  6 98  1  0  0  0
  7  8  2  0  0  0
  7 26  1  0  0  0
  7 29  1  0  0  0
  8  9  1  0  0  0
  8 22  1  0  0  0
  9 10  1  0  0  0
  9 27  2  0  0  0
 10 11  2  0  0  0
 10 15  1  0  0  0
 11 12  1  0  0  0
 11 99  1  0  0  0
 12 13  2  0  0  0
 12100  1  0  0  0
 13 14  1  0  0  0
 13 31  1  0  0  0
 14 15  2  0  0  0
 14101  1  0  0  0
 15102  1  0  0  0
 16 17  2  0  0  0
 16 21  1  0  0  0
 16 31  1  0  0  0
 17 18  1  0  0  0
 17103  1  0  0  0
 18 19  2  0  0  0
 18104  1  0  0  0
 19 20  1  0  0  0
 19 24  1  0  0  0
 20 21  2  0  0  0
 20105  1  0  0  0
 21 23  1  0  0  0
 22 28  1  0  0  0
 22 32  2  0  0  0
 26 27  1  0  0  0
 28106  1  0  0  0
 28107  1  0  0  0
 29108  1  0  0  0
 29109  1  0  0  0
 33 34  1  0  0  0
 33 66  1  0  0  0
 33 70  2  0  0  0
 34 36  1  0  0  0
 34 59  1  0  0  0
 34110  1  0  0  0
 35 44  2  0  0  0
 35 45  1  0  0  0
 35 68  1  0  0  0
 36 56  1  0  0  0
 36111  1  0  0  0
 37 39  1  0  0  0
 37 47  1  0  0  0
 37 66  1  0  0  0
 37112  1  0  0  0
 38 43  2  0  0  0
 38 46  1  0  0  0
 38 47  1  0  0  0
 39 64  1  0  0  0
 39 67  2  0  0  0
 40 52  1  0  0  0
 40 53  2  0  0  0
 40 58  1  0  0  0
 41113  1  0  0  0
 41114  1  0  0  0
 41115  1  0  0  0
 41 48  1  0  0  0
 42 43  1  0  0  0
 42 66  1  0  0  0
 42116  1  0  0  0
 42117  1  0  0  0
 43 44  1  0  0  0
 44118  1  0  0  0
 45 46  2  0  0  0
 45119  1  0  0  0
 46120  1  0  0  0
 47121  1  0  0  0
 47122  1  0  0  0
 48 56  1  0  0  0
 48 65  1  0  0  0
 48123  1  0  0  0
 49 50  1  0  0  0
 49 53  1  0  0  0
 49 64  1  0  0  0
 49124  1  0  0  0
 50 51  1  0  0  0
 50125  1  0  0  0
 50126  1  0  0  0
 51 52  1  0  0  0
 51127  1  0  0  0
 51128  1  0  0  0
 52129  1  0  0  0
 52130  1  0  0  0
 53 54  1  0  0  0
 54 55  2  0  0  0
 54131  1  0  0  0
 55 57  1  0  0  0
 55132  1  0  0  0
 56 69  2  0  0  0
 57 58  2  0  0  0
 57133  1  0  0  0
 58134  1  0  0  0
 59 60  1  0  0  0
 59 61  1  0  0  0
 59 62  1  0  0  0
 60135  1  0  0  0
 60136  1  0  0  0
 60137  1  0  0  0
 61138  1  0  0  0
 61139  1  0  0  0
 61140  1  0  0  0
 62141  1  0  0  0
 62142  1  0  0  0
 62143  1  0  0  0
 63 65  1  0  0  0
 63144  1  0  0  0
 63145  1  0  0  0
 63146  1  0  0  0
 64147  1  0  0  0
 65148  1  0  0  0
 68 84  1  0  0  0
 71 72  2  0  0  0
 71 74  1  0  0  0
 71149  1  0  0  0
 72 75  1  0  0  0
 72150  1  0  0  0
 73 74  2  0  0  0
 73 76  1  0  0  0
 73151  1  0  0  0
 74 86  1  0  0  0
 75 76  2  0  0  0
 75 87  1  0  0  0
 76 89  1  0  0  0
 77 78  2  0  0  0
 77 79  1  0  0  0
 77152  1  0  0  0
 78 81  1  0  0  0
 78 84  1  0  0  0
 79 80  1  0  0  0
 79 88  2  0  0  0
 80 86  1  0  0  0
 80153  1  0  0  0
 80154  1  0  0  0
 81 82  1  0  0  0
 81 86  1  0  0  0
 81155  1  0  0  0
 82156  1  0  0  0
 82157  1  0  0  0
 82158  1  0  0  0
 83 85  1  0  0  0
 83159  1  0  0  0
 83160  1  0  0  0
 83161  1  0  0  0
 84162  1  0  0  0
 84163  1  0  0  0
 85 87  1  0  0  0
 85164  1  0  0  0
 85165  1  0  0  0
 89166  1  0  0  0
M  ISO  4   1 100  68 101  84 101  87 100
M  END
> <chiral flag>
0

> <version>
0

> <s_m_source_file>
/data/baiqing/PycharmProjects/Reinvent-master-3.2/result/LINK_invent/BTK/process_docking_weight1_custom_product_contain_oxygen_bond_distance_aromatic_linkinvent_7_9_3/rearranged_h_0106.sdf

> <i_m_source_file_index>
54

> <r_mmod_Potential_Energy-OPLS-2005>
297.451354980469

> <r_mmod_Stretch_Energy-OPLS-2005>
110.610458374023

> <r_mmod_Bend_Energy-OPLS-2005>
193.566192626953

> <r_mmod_Torsional_Energy-OPLS-2005>
312.206481933594

> <r_mmod_Improper_Torsional_Energy-OPLS-2005>
5.40600824356079

> <r_mmod_Van_der_Waal_Energy-OPLS-2005>
176.339279174805

> <r_mmod_Electrostatic_Energy-OPLS-2005>
-320.761688232422

> <r_mmod_Solvation_Energy-OPLS-2005>
-230.164840698242

> <b_mmod_Minimization_Converged-OPLS-2005>
0

> <r_mmod_RMS_Derivative-OPLS-2005>
4.9097318649292

$$$$
54
                    3D
 Structure written by MMmdl.
157165  0  0  1  0            999 V2000
  -30.6391  -14.7099   20.4000 C   0  0  0  0  0  0
  -30.4340  -12.4147   19.4627 C   0  0  0  0  0  0
  -29.5085  -12.4247   18.2265 C   0  0  0  0  0  0
  -28.0276  -12.3183   18.6407 C   0  0  0  0  0  0
  -27.6393  -13.2344   19.8359 C   0  0  2  0  0  0
  -28.6916  -13.1853   20.9625 C   0  0  0  0  0  0
  -25.2507  -13.8189   20.5732 C   0  0  0  0  0  0
  -24.1818  -13.0425   20.9200 C   0  0  0  0  0  0
  -24.6420  -11.6903   20.8736 C   0  0  0  0  0  0
  -23.9076  -10.4300   21.0398 C   0  0  0  0  0  0
  -24.3629   -9.4216   21.9174 C   0  0  0  0  0  0
  -23.6303   -8.2258   22.0764 C   0  0  0  0  0  0
  -22.4291   -8.0273   21.3544 C   0  0  0  0  0  0
  -21.9913   -9.0249   20.4660 C   0  0  0  0  0  0
  -22.7245  -10.2132   20.3047 C   0  0  0  0  0  0
  -21.6866   -6.0739   22.5274 C   0  0  0  0  0  0
  -21.4033   -6.5644   23.8212 C   0  0  0  0  0  0
  -21.3661   -5.6787   24.9162 C   0  0  0  0  0  0
  -21.6052   -4.3057   24.7226 C   0  0  0  0  0  0
  -21.8822   -3.8145   23.4353 C   0  0  0  0  0  0
  -21.9217   -4.6963   22.3398 C   0  0  0  0  0  0
  -22.7842  -13.5181   21.1881 C   0  0  0  0  0  0
  -22.1687   -4.2145   21.0974 F   0  0  0  0  0  0
  -21.5610   -3.4539   25.7753 F   0  0  0  0  0  0
  -29.9868  -13.5014   20.3561 N   0  0  0  0  0  0
  -26.2949  -12.9435   20.3259 N   0  0  0  0  0  0
  -25.9349  -11.6562   20.5727 N   0  0  0  0  0  0
  -22.0516  -12.8157   22.0447 N   0  0  0  0  0  0
  -25.4104  -15.1932   20.4213 N   0  0  0  0  0  0
  -31.8656  -14.7491   20.2897 O   0  0  0  0  0  0
  -21.6651   -6.8882   21.4253 O   0  0  0  0  0  0
  -22.3507  -14.5472   20.6717 O   0  0  0  0  0  0
  -24.6313  -31.8620   23.2065 C   0  0  0  0  0  0
  -25.9156  -32.4793   23.8397 C   0  0  1  0  0  0
  -27.1989  -27.2895   20.1107 C   0  0  0  0  0  0
  -25.5993  -33.8596   24.2343 N   0  0  0  0  0  0
  -23.4231  -30.4880   21.5505 C   0  0  2  0  0  0
  -24.8635  -28.9483   20.1066 C   0  0  0  0  0  0
  -22.7503  -29.4642   22.4978 C   0  0  0  0  0  0
  -18.0291  -28.1357   22.8508 C   0  0  0  0  0  0
  -24.1493  -36.7270   23.2636 C   0  0  0  0  0  0
  -25.9691  -30.7772   21.3872 C   0  0  0  0  0  0
  -26.0364  -29.4053   20.7218 C   0  0  0  0  0  0
  -27.2075  -28.5859   20.7188 C   0  0  0  0  0  0
  -26.0113  -26.9086   19.4439 C   0  0  0  0  0  0
  -24.8566  -27.7080   19.4538 C   0  0  0  0  0  0
  -23.6377  -29.8363   20.1602 C   0  0  0  0  0  0
  -25.4124  -36.3101   24.0356 C   0  0  1  0  0  0
  -20.5891  -28.3690   23.1302 C   0  0  2  0  0  0
  -20.6796  -26.9429   22.5413 C   0  0  0  0  0  0
  -19.5754  -26.6383   21.5226 C   0  0  0  0  0  0
  -18.1929  -26.7917   22.1633 C   0  0  0  0  0  0
  -19.1541  -28.8848   23.2884 C   0  0  0  0  0  0
  -18.9459  -30.1448   23.8899 C   0  0  0  0  0  0
  -17.6456  -30.6579   24.0561 C   0  0  0  0  0  0
  -25.9079  -34.9466   23.5143 C   0  0  0  0  0  0
  -16.5347  -29.9067   23.6318 C   0  0  0  0  0  0
  -16.7277  -28.6462   23.0379 C   0  0  0  0  0  0
  -26.4513  -31.6571   25.0750 C   0  0  0  0  0  0
  -25.3737  -31.3669   26.1461 C   0  0  0  0  0  0
  -27.0368  -30.3019   24.6170 C   0  0  0  0  0  0
  -27.6110  -32.4263   25.7489 C   0  0  0  0  0  0
  -27.5600  -37.1801   24.8483 C   0  0  0  0  0  0
  -21.4219  -29.3042   22.3715 N   0  0  0  0  0  0
  -26.4313  -37.3799   23.9421 N   0  0  0  0  0  0
  -24.6923  -31.0601   22.1038 N   0  0  0  0  0  0
  -23.4223  -28.8189   23.3070 O   0  0  0  0  0  0
  -28.2783  -26.3883   20.1811 O   0  0  0  0  0  0
  -26.5602  -34.8921   22.4687 O   0  0  0  0  0  0
  -23.5469  -32.1461   23.7350 O   0  0  0  0  0  0
  -29.7500  -17.1745   20.4168 C   0  0  0  0  0  0
  -30.6954  -17.9427   21.1579 C   0  0  0  0  0  0
  -28.6311  -17.9635   20.0180 C   0  0  0  0  0  0
  -29.5224  -19.9353   20.7975 C   0  0  0  0  0  0
  -31.9550  -17.3669   21.7747 C   0  0  0  0  0  0
  -30.0056  -15.8234   18.4070 C   0  0  0  0  0  0
  -28.9715  -23.8014   20.5162 C   0  0  0  0  0  0
  -27.9842  -24.9360   19.9789 C   0  0  0  0  0  0
  -28.5781  -22.2458   20.3564 C   0  0  0  0  0  0
  -30.5699  -19.2918   21.3176 N   0  0  0  0  0  0
  -28.5140  -19.3069   20.1916 N   0  0  0  0  0  0
  -27.5549  -17.3714   19.3750 N   0  0  0  0  0  0
  -29.9364  -15.7947   19.8866 N   0  0  0  0  0  0
  -29.5683  -21.3152   20.9170 O   0  0  0  0  0  0
  -31.4738  -12.5360   19.1519 H   0  0  0  0  0  0
  -30.3817  -11.4558   19.9768 H   0  0  0  0  0  0
  -29.7700  -11.6019   17.5606 H   0  0  0  0  0  0
  -29.6606  -13.3215   17.6320 H   0  0  0  0  0  0
  -27.8551  -11.2767   18.9113 H   0  0  0  0  0  0
  -27.3818  -12.5196   17.7856 H   0  0  0  0  0  0
  -27.6240  -14.2515   19.4429 H   0  0  0  0  0  0
  -28.7139  -12.2017   21.4343 H   0  0  0  0  0  0
  -28.4457  -13.9102   21.7420 H   0  0  0  0  0  0
  -25.2788   -9.5679   22.4719 H   0  0  0  0  0  0
  -24.0035   -7.4627   22.7443 H   0  0  0  0  0  0
  -21.0870   -8.8773   19.8921 H   0  0  0  0  0  0
  -22.3738  -10.9664   19.6137 H   0  0  0  0  0  0
  -21.2040   -7.6166   23.9726 H   0  0  0  0  0  0
  -21.1472   -6.0513   25.9059 H   0  0  0  0  0  0
  -22.0608   -2.7621   23.2863 H   0  0  0  0  0  0
  -22.4179  -11.9827   22.4815 H   0  0  0  0  0  0
  -21.1124  -13.1105   22.2642 H   0  0  0  0  0  0
  -24.6296  -15.8291   20.5346 H   0  0  0  0  0  0
  -26.2592  -15.6789   20.1444 H   0  0  0  0  0  0
  -26.7220  -32.5434   23.1134 H   0  0  0  0  0  0
  -25.0257  -33.9751   25.0563 H   0  0  0  0  0  0
  -22.7176  -31.3087   21.4170 H   0  0  0  0  0  0
  -23.3799  -35.9561   23.3302 H   0  0  0  0  0  0
  -24.3594  -36.8870   22.2051 H   0  0  0  0  0  0
  -23.7187  -37.6456   23.6631 H   0  0  0  0  0  0
  -26.1160  -31.5429   20.6231 H   0  0  0  0  0  0
  -26.8476  -30.8163   22.0211 H   0  0  0  0  0  0
  -28.1001  -28.9269   21.2238 H   0  0  0  0  0  0
  -25.9370  -25.9712   18.9118 H   0  0  0  0  0  0
  -23.9671  -27.3630   18.9413 H   0  0  0  0  0  0
  -23.7674  -30.6241   19.4179 H   0  0  0  0  0  0
  -22.7515  -29.2801   19.8488 H   0  0  0  0  0  0
  -25.1286  -36.1992   25.0857 H   0  0  0  0  0  0
  -20.9957  -28.3238   24.1429 H   0  0  0  0  0  0
  -20.5732  -26.2295   23.3610 H   0  0  0  0  0  0
  -21.6656  -26.7476   22.1183 H   0  0  0  0  0  0
  -19.6931  -25.6291   21.1256 H   0  0  0  0  0  0
  -19.6666  -27.3193   20.6759 H   0  0  0  0  0  0
  -17.4218  -26.6698   21.4014 H   0  0  0  0  0  0
  -18.0302  -26.0023   22.8992 H   0  0  0  0  0  0
  -19.7924  -30.7266   24.2277 H   0  0  0  0  0  0
  -17.4998  -31.6250   24.5165 H   0  0  0  0  0  0
  -15.5348  -30.2972   23.7620 H   0  0  0  0  0  0
  -15.8685  -28.0768   22.7126 H   0  0  0  0  0  0
  -24.5952  -30.6983   25.7766 H   0  0  0  0  0  0
  -24.8859  -32.2800   26.4882 H   0  0  0  0  0  0
  -25.8065  -30.8846   27.0241 H   0  0  0  0  0  0
  -26.2942  -29.6751   24.1230 H   0  0  0  0  0  0
  -27.4159  -29.7271   25.4631 H   0  0  0  0  0  0
  -27.8773  -30.4353   23.9360 H   0  0  0  0  0  0
  -27.2814  -33.3602   26.2050 H   0  0  0  0  0  0
  -28.3918  -32.6754   25.0287 H   0  0  0  0  0  0
  -28.0788  -31.8379   26.5390 H   0  0  0  0  0  0
  -28.2629  -38.0087   24.7558 H   0  0  0  0  0  0
  -28.1086  -36.2632   24.6289 H   0  0  0  0  0  0
  -27.2318  -37.1425   25.8883 H   0  0  0  0  0  0
  -20.9442  -29.8752   21.6904 H   0  0  0  0  0  0
  -26.0211  -38.2899   24.1379 H   0  0  0  0  0  0
  -32.6978  -17.1566   21.0069 H   0  0  0  0  0  0
  -31.7283  -16.4539   22.3195 H   0  0  0  0  0  0
  -32.3986  -18.0560   22.4941 H   0  0  0  0  0  0
  -30.2507  -16.8158   18.0270 H   0  0  0  0  0  0
  -29.0545  -15.5370   17.9629 H   0  0  0  0  0  0
  -30.7727  -15.1720   17.9837 H   0  0  0  0  0  0
  -29.1273  -23.9925   21.5791 H   0  0  0  0  0  0
  -29.9441  -23.9539   20.0462 H   0  0  0  0  0  0
  -27.0175  -24.7118   20.4292 H   0  0  0  0  0  0
  -27.8626  -24.7770   18.9060 H   0  0  0  0  0  0
  -28.4267  -22.0127   19.3023 H   0  0  0  0  0  0
  -27.6214  -22.0673   20.8492 H   0  0  0  0  0  0
  -26.9583  -17.9905   18.8454 H   0  0  0  0  0  0
  -27.8009  -16.5311   18.8749 H   0  0  0  0  0  0
  1 25  1  0  0  0
  1 30  2  0  0  0
  1 83  1  0  0  0
  2  3  1  0  0  0
  2 25  1  0  0  0
  2 85  1  0  0  0
  2 86  1  0  0  0
  3  4  1  0  0  0
  3 87  1  0  0  0
  3 88  1  0  0  0
  4  5  1  0  0  0
  4 89  1  0  0  0
  4 90  1  0  0  0
  5  6  1  0  0  0
  5 26  1  0  0  0
  5 91  1  0  0  0
  6 25  1  0  0  0
  6 92  1  0  0  0
  6 93  1  0  0  0
  7  8  2  0  0  0
  7 26  1  0  0  0
  7 29  1  0  0  0
  8  9  1  0  0  0
  8 22  1  0  0  0
  9 10  1  0  0  0
  9 27  2  0  0  0
 10 11  2  0  0  0
 10 15  1  0  0  0
 11 12  1  0  0  0
 11 94  1  0  0  0
 12 13  2  0  0  0
 12 95  1  0  0  0
 13 14  1  0  0  0
 13 31  1  0  0  0
 14 15  2  0  0  0
 14 96  1  0  0  0
 15 97  1  0  0  0
 16 17  2  0  0  0
 16 21  1  0  0  0
 16 31  1  0  0  0
 17 18  1  0  0  0
 17 98  1  0  0  0
 18 19  2  0  0  0
 18 99  1  0  0  0
 19 20  1  0  0  0
 19 24  1  0  0  0
 20 21  2  0  0  0
 20100  1  0  0  0
 21 23  1  0  0  0
 22 28  1  0  0  0
 22 32  2  0  0  0
 26 27  1  0  0  0
 28101  1  0  0  0
 28102  1  0  0  0
 29103  1  0  0  0
 29104  1  0  0  0
 33 34  1  0  0  0
 33 66  1  0  0  0
 33 70  2  0  0  0
 34 36  1  0  0  0
 34 59  1  0  0  0
 34105  1  0  0  0
 35 44  2  0  0  0
 35 45  1  0  0  0
 35 68  1  0  0  0
 36 56  1  0  0  0
 36106  1  0  0  0
 37 39  1  0  0  0
 37 47  1  0  0  0
 37 66  1  0  0  0
 37107  1  0  0  0
 38 43  2  0  0  0
 38 46  1  0  0  0
 38 47  1  0  0  0
 39 64  1  0  0  0
 39 67  2  0  0  0
 40 52  1  0  0  0
 40 53  2  0  0  0
 40 58  1  0  0  0
 41108  1  0  0  0
 41109  1  0  0  0
 41110  1  0  0  0
 41 48  1  0  0  0
 42 43  1  0  0  0
 42 66  1  0  0  0
 42111  1  0  0  0
 42112  1  0  0  0
 43 44  1  0  0  0
 44113  1  0  0  0
 45 46  2  0  0  0
 45114  1  0  0  0
 46115  1  0  0  0
 47116  1  0  0  0
 47117  1  0  0  0
 48 56  1  0  0  0
 48 65  1  0  0  0
 48118  1  0  0  0
 49 50  1  0  0  0
 49 53  1  0  0  0
 49 64  1  0  0  0
 49119  1  0  0  0
 50 51  1  0  0  0
 50120  1  0  0  0
 50121  1  0  0  0
 51 52  1  0  0  0
 51122  1  0  0  0
 51123  1  0  0  0
 52124  1  0  0  0
 52125  1  0  0  0
 53 54  1  0  0  0
 54 55  2  0  0  0
 54126  1  0  0  0
 55 57  1  0  0  0
 55127  1  0  0  0
 56 69  2  0  0  0
 57 58  2  0  0  0
 57128  1  0  0  0
 58129  1  0  0  0
 59 60  1  0  0  0
 59 61  1  0  0  0
 59 62  1  0  0  0
 60130  1  0  0  0
 60131  1  0  0  0
 60132  1  0  0  0
 61133  1  0  0  0
 61134  1  0  0  0
 61135  1  0  0  0
 62136  1  0  0  0
 62137  1  0  0  0
 62138  1  0  0  0
 63 65  1  0  0  0
 63139  1  0  0  0
 63140  1  0  0  0
 63141  1  0  0  0
 64142  1  0  0  0
 65143  1  0  0  0
 68 78  1  0  0  0
 71 72  2  0  0  0
 71 73  1  0  0  0
 71 83  1  0  0  0
 72 75  1  0  0  0
 72 80  1  0  0  0
 73 81  2  0  0  0
 73 82  1  0  0  0
 74 80  2  0  0  0
 74 81  1  0  0  0
 74 84  1  0  0  0
 75144  1  0  0  0
 75145  1  0  0  0
 75146  1  0  0  0
 76 83  1  0  0  0
 76147  1  0  0  0
 76148  1  0  0  0
 76149  1  0  0  0
 77 78  1  0  0  0
 77 79  1  0  0  0
 77150  1  0  0  0
 77151  1  0  0  0
 78152  1  0  0  0
 78153  1  0  0  0
 79 84  1  0  0  0
 79154  1  0  0  0
 79155  1  0  0  0
 82156  1  0  0  0
 82157  1  0  0  0
M  ISO  4   1 100  68 101  78 101  83 100
M  END
> <chiral flag>
0

> <version>
0

> <s_m_source_file>
/data/baiqing/PycharmProjects/Reinvent-master-3.2/result/LINK_invent/BTK/process_docking_weight1_custom_product_contain_oxygen_bond_distance_aromatic_linkinvent_7_9_3/rearranged_h_0106.sdf

> <i_m_source_file_index>
55

> <r_mmod_Potential_Energy-OPLS-2005>
-228.155151367188

> <r_mmod_Stretch_Energy-OPLS-2005>
95.5310592651367

> <r_mmod_Bend_Energy-OPLS-2005>
182.755584716797

> <r_mmod_Torsional_Energy-OPLS-2005>
323.020233154297

> <r_mmod_Improper_Torsional_Energy-OPLS-2005>
33.2090187072754

> <r_mmod_Van_der_Waal_Energy-OPLS-2005>
162.992904663086

> <r_mmod_Electrostatic_Energy-OPLS-2005>
-903.659545898438

> <r_mmod_Solvation_Energy-OPLS-2005>
-206.906875610352

> <b_mmod_Minimization_Converged-OPLS-2005>
0

> <r_mmod_RMS_Derivative-OPLS-2005>
4.46518135070801

$$$$
55
                    3D
 Structure written by MMmdl.
166175  0  0  1  0            999 V2000
  -30.6011  -14.6563   20.5022 C   0  0  0  0  0  0
  -30.4402  -12.3995   19.4595 C   0  0  0  0  0  0
  -29.5120  -12.5196   18.2282 C   0  0  0  0  0  0
  -28.0343  -12.3473   18.6383 C   0  0  0  0  0  0
  -27.6529  -13.2171   19.8670 C   0  0  2  0  0  0
  -28.6967  -13.0631   20.9966 C   0  0  0  0  0  0
  -25.2533  -13.8166   20.5682 C   0  0  0  0  0  0
  -24.1800  -13.0420   20.9178 C   0  0  0  0  0  0
  -24.6372  -11.6889   20.8726 C   0  0  0  0  0  0
  -23.9047  -10.4276   21.0401 C   0  0  0  0  0  0
  -24.3611   -9.4201   21.9189 C   0  0  0  0  0  0
  -23.6277   -8.2234   22.0761 C   0  0  0  0  0  0
  -22.4266   -8.0274   21.3550 C   0  0  0  0  0  0
  -21.9904   -9.0237   20.4642 C   0  0  0  0  0  0
  -22.7224  -10.2109   20.3047 C   0  0  0  0  0  0
  -21.6847   -6.0732   22.5278 C   0  0  0  0  0  0
  -21.4008   -6.5627   23.8212 C   0  0  0  0  0  0
  -21.3658   -5.6783   24.9172 C   0  0  0  0  0  0
  -21.6045   -4.3046   24.7223 C   0  0  0  0  0  0
  -21.8818   -3.8136   23.4337 C   0  0  0  0  0  0
  -21.9184   -4.6957   22.3399 C   0  0  0  0  0  0
  -22.7818  -13.5220   21.1851 C   0  0  0  0  0  0
  -22.1650   -4.2148   21.0973 F   0  0  0  0  0  0
  -21.5635   -3.4528   25.7732 F   0  0  0  0  0  0
  -30.0118  -13.4180   20.4377 N   0  0  0  0  0  0
  -26.2972  -12.9346   20.3337 N   0  0  0  0  0  0
  -25.9314  -11.6501   20.5772 N   0  0  0  0  0  0
  -22.0463  -12.8227   22.0421 N   0  0  0  0  0  0
  -25.4175  -15.1894   20.4080 N   0  0  0  0  0  0
  -31.7549  -14.8389   20.0988 O   0  0  0  0  0  0
  -21.6628   -6.8871   21.4241 O   0  0  0  0  0  0
  -22.3501  -14.5529   20.6694 O   0  0  0  0  0  0
  -24.6266  -31.8611   23.2018 C   0  0  0  0  0  0
  -25.9108  -32.4799   23.8341 C   0  0  1  0  0  0
  -27.2189  -27.3176   20.1062 C   0  0  0  0  0  0
  -25.5919  -33.8600   24.2265 N   0  0  0  0  0  0
  -23.4196  -30.4862   21.5447 C   0  0  2  0  0  0
  -24.8647  -28.9454   20.1057 C   0  0  0  0  0  0
  -22.7465  -29.4634   22.4926 C   0  0  0  0  0  0
  -18.0277  -28.1411   22.8510 C   0  0  0  0  0  0
  -24.1464  -36.7280   23.2648 C   0  0  0  0  0  0
  -25.9611  -30.7890   21.3737 C   0  0  0  0  0  0
  -26.0339  -29.4179   20.7144 C   0  0  0  0  0  0
  -27.2138  -28.6149   20.7093 C   0  0  0  0  0  0
  -26.0273  -26.9082   19.4614 C   0  0  0  0  0  0
  -24.8644  -27.6974   19.4679 C   0  0  0  0  0  0
  -23.6324  -29.8235   20.1587 C   0  0  0  0  0  0
  -25.4103  -36.3097   24.0334 C   0  0  1  0  0  0
  -20.5885  -28.3697   23.1289 C   0  0  2  0  0  0
  -20.6777  -26.9418   22.5408 C   0  0  0  0  0  0
  -19.5733  -26.6380   21.5239 C   0  0  0  0  0  0
  -18.1909  -26.7965   22.1638 C   0  0  0  0  0  0
  -19.1540  -28.8866   23.2903 C   0  0  0  0  0  0
  -18.9490  -30.1490   23.8898 C   0  0  0  0  0  0
  -17.6489  -30.6622   24.0574 C   0  0  0  0  0  0
  -25.9050  -34.9474   23.5098 C   0  0  0  0  0  0
  -16.5369  -29.9126   23.6363 C   0  0  0  0  0  0
  -16.7268  -28.6547   23.0374 C   0  0  0  0  0  0
  -26.4461  -31.6618   25.0725 C   0  0  0  0  0  0
  -25.3660  -31.3775   26.1423 C   0  0  0  0  0  0
  -27.0313  -30.3052   24.6164 C   0  0  0  0  0  0
  -27.5988  -32.4363   25.7538 C   0  0  0  0  0  0
  -27.5563  -37.1802   24.8480 C   0  0  0  0  0  0
  -21.4179  -29.3076   22.3692 N   0  0  0  0  0  0
  -26.4273  -37.3796   23.9421 N   0  0  0  0  0  0
  -24.6884  -31.0612   22.0975 N   0  0  0  0  0  0
  -23.4197  -28.8164   23.2992 O   0  0  0  0  0  0
  -28.3294  -26.4557   20.1666 O   0  0  0  0  0  0
  -26.5622  -34.8946   22.4666 O   0  0  0  0  0  0
  -23.5434  -32.1396   23.7359 O   0  0  0  0  0  0
  -29.8178  -19.3397   21.9934 C   0  0  0  0  0  0
  -29.7904  -19.2906   19.5970 C   0  0  0  0  0  0
  -29.8773  -17.9152   22.0355 C   0  0  0  0  0  0
  -29.7632  -20.0799   20.7805 C   0  0  0  0  0  0
  -29.8999  -17.1356   20.8436 C   0  0  0  0  0  0
  -29.8328  -17.8504   19.6088 C   0  0  0  0  0  0
  -29.1033  -23.8999   20.4138 C   0  0  0  0  0  0
  -28.9242  -22.5269   20.2739 C   0  0  0  0  0  0
  -30.3509  -24.3617   21.0692 C   0  0  0  0  0  0
  -31.4879  -23.3499   21.1504 C   0  0  0  0  0  0
  -30.9601  -21.9803   21.5995 C   0  0  0  0  0  0
  -29.9174  -17.2244   23.3904 C   0  0  0  0  0  0
  -27.6740  -21.9759   19.5940 C   0  0  0  0  0  0
  -29.6839  -17.7471   17.1996 C   0  0  0  0  0  0
  -28.0924  -25.0079   19.9225 C   0  0  0  0  0  0
  -29.8258  -21.5276   20.7848 N   0  0  0  0  0  0
  -29.7904  -15.6772   20.9254 N   0  0  0  0  0  0
  -30.5271  -25.4861   21.5449 O   0  0  0  0  0  0
  -29.7722  -17.0859   18.4596 O   0  0  0  0  0  0
  -31.4849  -12.5241   19.1682 H   0  0  0  0  0  0
  -30.3711  -11.4019   19.8967 H   0  0  0  0  0  0
  -29.7847  -11.7752   17.4788 H   0  0  0  0  0  0
  -29.6499  -13.4949   17.7589 H   0  0  0  0  0  0
  -27.8792  -11.2935   18.8726 H   0  0  0  0  0  0
  -27.3776  -12.5699   17.7963 H   0  0  0  0  0  0
  -27.6719  -14.2542   19.5336 H   0  0  0  0  0  0
  -28.7093  -12.0358   21.3634 H   0  0  0  0  0  0
  -28.4370  -13.6777   21.8596 H   0  0  0  0  0  0
  -25.2758   -9.5681   22.4757 H   0  0  0  0  0  0
  -23.9985   -7.4632   22.7483 H   0  0  0  0  0  0
  -21.0838   -8.8730   19.8944 H   0  0  0  0  0  0
  -22.3684  -10.9640   19.6137 H   0  0  0  0  0  0
  -21.1995   -7.6135   23.9723 H   0  0  0  0  0  0
  -21.1483   -6.0505   25.9080 H   0  0  0  0  0  0
  -22.0600   -2.7602   23.2829 H   0  0  0  0  0  0
  -22.4051  -11.9882   22.4826 H   0  0  0  0  0  0
  -21.1092  -13.1291   22.2637 H   0  0  0  0  0  0
  -24.6380  -15.8330   20.4987 H   0  0  0  0  0  0
  -26.2657  -15.6429   20.0914 H   0  0  0  0  0  0
  -26.7184  -32.5448   23.1097 H   0  0  0  0  0  0
  -25.0069  -33.9762   25.0415 H   0  0  0  0  0  0
  -22.7157  -31.3098   21.4034 H   0  0  0  0  0  0
  -23.3764  -35.9575   23.3307 H   0  0  0  0  0  0
  -24.3537  -36.8902   22.2056 H   0  0  0  0  0  0
  -23.7171  -37.6466   23.6664 H   0  0  0  0  0  0
  -26.0893  -31.5528   20.6057 H   0  0  0  0  0  0
  -26.8442  -30.8384   21.9983 H   0  0  0  0  0  0
  -28.1088  -28.9698   21.2002 H   0  0  0  0  0  0
  -25.9591  -25.9616   18.9451 H   0  0  0  0  0  0
  -23.9729  -27.3352   18.9746 H   0  0  0  0  0  0
  -23.7450  -30.5999   19.4006 H   0  0  0  0  0  0
  -22.7536  -29.2496   19.8595 H   0  0  0  0  0  0
  -25.1291  -36.1926   25.0829 H   0  0  0  0  0  0
  -21.0000  -28.3268   24.1403 H   0  0  0  0  0  0
  -20.5706  -26.2315   23.3619 H   0  0  0  0  0  0
  -21.6636  -26.7455   22.1176 H   0  0  0  0  0  0
  -19.6874  -25.6279   21.1306 H   0  0  0  0  0  0
  -19.6684  -27.3173   20.6766 H   0  0  0  0  0  0
  -17.4194  -26.6777   21.4015 H   0  0  0  0  0  0
  -18.0238  -26.0084   22.8999 H   0  0  0  0  0  0
  -19.7972  -30.7320   24.2227 H   0  0  0  0  0  0
  -17.5059  -31.6314   24.5152 H   0  0  0  0  0  0
  -15.5386  -30.3051   23.7693 H   0  0  0  0  0  0
  -15.8653  -28.0883   22.7078 H   0  0  0  0  0  0
  -24.5888  -30.7057   25.7760 H   0  0  0  0  0  0
  -24.8789  -32.2950   26.4736 H   0  0  0  0  0  0
  -25.7962  -30.9055   27.0262 H   0  0  0  0  0  0
  -26.2898  -29.6829   24.1137 H   0  0  0  0  0  0
  -27.3988  -29.7269   25.4652 H   0  0  0  0  0  0
  -27.8761  -30.4383   23.9401 H   0  0  0  0  0  0
  -27.2550  -33.3667   26.2063 H   0  0  0  0  0  0
  -28.3840  -32.6907   25.0414 H   0  0  0  0  0  0
  -28.0574  -31.8509   26.5508 H   0  0  0  0  0  0
  -28.2593  -38.0093   24.7540 H   0  0  0  0  0  0
  -28.1051  -36.2629   24.6293 H   0  0  0  0  0  0
  -27.2283  -37.1422   25.8886 H   0  0  0  0  0  0
  -20.9321  -29.8855   21.6969 H   0  0  0  0  0  0
  -26.0155  -38.2869   24.1446 H   0  0  0  0  0  0
  -29.8131  -19.8814   22.9298 H   0  0  0  0  0  0
  -29.7868  -19.8312   18.6637 H   0  0  0  0  0  0
  -32.2576  -23.7048   21.8342 H   0  0  0  0  0  0
  -31.9428  -23.2736   20.1622 H   0  0  0  0  0  0
  -30.6440  -22.0487   22.6410 H   0  0  0  0  0  0
  -31.7794  -21.2597   21.5639 H   0  0  0  0  0  0
  -29.9678  -17.9379   24.2132 H   0  0  0  0  0  0
  -30.7937  -16.5800   23.4629 H   0  0  0  0  0  0
  -29.0288  -16.6115   23.5393 H   0  0  0  0  0  0
  -26.8567  -21.9028   20.3120 H   0  0  0  0  0  0
  -27.8178  -20.9891   19.1613 H   0  0  0  0  0  0
  -27.3500  -22.6196   18.7754 H   0  0  0  0  0  0
  -29.5024  -17.0097   16.4174 H   0  0  0  0  0  0
  -30.6169  -18.2590   16.9572 H   0  0  0  0  0  0
  -28.8603  -18.4623   17.1563 H   0  0  0  0  0  0
  -27.1426  -24.7312   20.3818 H   0  0  0  0  0  0
  -27.9800  -24.8745   18.8458 H   0  0  0  0  0  0
  -28.9167  -15.3503   21.3070 H   0  0  0  0  0  0
  1 25  1  0  0  0
  1 30  2  0  0  0
  1 87  1  0  0  0
  2  3  1  0  0  0
  2 25  1  0  0  0
  2 90  1  0  0  0
  2 91  1  0  0  0
  3  4  1  0  0  0
  3 92  1  0  0  0
  3 93  1  0  0  0
  4  5  1  0  0  0
  4 94  1  0  0  0
  4 95  1  0  0  0
  5  6  1  0  0  0
  5 26  1  0  0  0
  5 96  1  0  0  0
  6 25  1  0  0  0
  6 97  1  0  0  0
  6 98  1  0  0  0
  7  8  2  0  0  0
  7 26  1  0  0  0
  7 29  1  0  0  0
  8  9  1  0  0  0
  8 22  1  0  0  0
  9 10  1  0  0  0
  9 27  2  0  0  0
 10 11  2  0  0  0
 10 15  1  0  0  0
 11 12  1  0  0  0
 11 99  1  0  0  0
 12 13  2  0  0  0
 12100  1  0  0  0
 13 14  1  0  0  0
 13 31  1  0  0  0
 14 15  2  0  0  0
 14101  1  0  0  0
 15102  1  0  0  0
 16 17  2  0  0  0
 16 21  1  0  0  0
 16 31  1  0  0  0
 17 18  1  0  0  0
 17103  1  0  0  0
 18 19  2  0  0  0
 18104  1  0  0  0
 19 20  1  0  0  0
 19 24  1  0  0  0
 20 21  2  0  0  0
 20105  1  0  0  0
 21 23  1  0  0  0
 22 28  1  0  0  0
 22 32  2  0  0  0
 26 27  1  0  0  0
 28106  1  0  0  0
 28107  1  0  0  0
 29108  1  0  0  0
 29109  1  0  0  0
 33 34  1  0  0  0
 33 66  1  0  0  0
 33 70  2  0  0  0
 34 36  1  0  0  0
 34 59  1  0  0  0
 34110  1  0  0  0
 35 44  2  0  0  0
 35 45  1  0  0  0
 35 68  1  0  0  0
 36 56  1  0  0  0
 36111  1  0  0  0
 37 39  1  0  0  0
 37 47  1  0  0  0
 37 66  1  0  0  0
 37112  1  0  0  0
 38 43  2  0  0  0
 38 46  1  0  0  0
 38 47  1  0  0  0
 39 64  1  0  0  0
 39 67  2  0  0  0
 40 52  1  0  0  0
 40 53  2  0  0  0
 40 58  1  0  0  0
 41113  1  0  0  0
 41114  1  0  0  0
 41115  1  0  0  0
 41 48  1  0  0  0
 42 43  1  0  0  0
 42 66  1  0  0  0
 42116  1  0  0  0
 42117  1  0  0  0
 43 44  1  0  0  0
 44118  1  0  0  0
 45 46  2  0  0  0
 45119  1  0  0  0
 46120  1  0  0  0
 47121  1  0  0  0
 47122  1  0  0  0
 48 56  1  0  0  0
 48 65  1  0  0  0
 48123  1  0  0  0
 49 50  1  0  0  0
 49 53  1  0  0  0
 49 64  1  0  0  0
 49124  1  0  0  0
 50 51  1  0  0  0
 50125  1  0  0  0
 50126  1  0  0  0
 51 52  1  0  0  0
 51127  1  0  0  0
 51128  1  0  0  0
 52129  1  0  0  0
 52130  1  0  0  0
 53 54  1  0  0  0
 54 55  2  0  0  0
 54131  1  0  0  0
 55 57  1  0  0  0
 55132  1  0  0  0
 56 69  2  0  0  0
 57 58  2  0  0  0
 57133  1  0  0  0
 58134  1  0  0  0
 59 60  1  0  0  0
 59 61  1  0  0  0
 59 62  1  0  0  0
 60135  1  0  0  0
 60136  1  0  0  0
 60137  1  0  0  0
 61138  1  0  0  0
 61139  1  0  0  0
 61140  1  0  0  0
 62141  1  0  0  0
 62142  1  0  0  0
 62143  1  0  0  0
 63 65  1  0  0  0
 63144  1  0  0  0
 63145  1  0  0  0
 63146  1  0  0  0
 64147  1  0  0  0
 65148  1  0  0  0
 68 85  1  0  0  0
 71 73  2  0  0  0
 71 74  1  0  0  0
 71149  1  0  0  0
 72 74  2  0  0  0
 72 76  1  0  0  0
 72150  1  0  0  0
 73 75  1  0  0  0
 73 82  1  0  0  0
 74 86  1  0  0  0
 75 76  2  0  0  0
 75 87  1  0  0  0
 76 89  1  0  0  0
 77 78  2  0  0  0
 77 79  1  0  0  0
 77 85  1  0  0  0
 78 83  1  0  0  0
 78 86  1  0  0  0
 79 80  1  0  0  0
 79 88  2  0  0  0
 80 81  1  0  0  0
 80151  1  0  0  0
 80152  1  0  0  0
 81 86  1  0  0  0
 81153  1  0  0  0
 81154  1  0  0  0
 82155  1  0  0  0
 82156  1  0  0  0
 82157  1  0  0  0
 83158  1  0  0  0
 83159  1  0  0  0
 83160  1  0  0  0
 84 89  1  0  0  0
 84161  1  0  0  0
 84162  1  0  0  0
 84163  1  0  0  0
 85164  1  0  0  0
 85165  1  0  0  0
 87166  1  0  0  0
M  ISO  4   1 100  68 101  85 101  87 100
M  END
> <chiral flag>
0

> <version>
0

> <s_m_source_file>
/data/baiqing/PycharmProjects/Reinvent-master-3.2/result/LINK_invent/BTK/process_docking_weight1_custom_product_contain_oxygen_bond_distance_aromatic_linkinvent_7_9_3/rearranged_h_0106.sdf

> <i_m_source_file_index>
56

> <r_mmod_Potential_Energy-OPLS-2005>
70.3696975708008

> <r_mmod_Stretch_Energy-OPLS-2005>
92.4244384765625

> <r_mmod_Bend_Energy-OPLS-2005>
143.761505126953

> <r_mmod_Torsional_Energy-OPLS-2005>
237.835891723633

> <r_mmod_Improper_Torsional_Energy-OPLS-2005>
4.66083431243896

> <r_mmod_Van_der_Waal_Energy-OPLS-2005>
169.607757568359

> <r_mmod_Electrostatic_Energy-OPLS-2005>
-398.983337402344

> <r_mmod_Solvation_Energy-OPLS-2005>
-231.992614746094

> <b_mmod_Minimization_Converged-OPLS-2005>
0

> <r_mmod_RMS_Derivative-OPLS-2005>
2.28668332099915

$$$$
56
                    3D
 Structure written by MMmdl.
158167  0  0  1  0            999 V2000
  -30.5008  -14.9044   20.4134 C   0  0  0  0  0  0
  -30.4545  -12.5525   19.4816 C   0  0  0  0  0  0
  -29.5224  -12.5134   18.2456 C   0  0  0  0  0  0
  -28.0490  -12.3159   18.6593 C   0  0  0  0  0  0
  -27.6357  -13.2313   19.8408 C   0  0  2  0  0  0
  -28.6832  -13.2030   20.9752 C   0  0  0  0  0  0
  -25.2494  -13.8190   20.5701 C   0  0  0  0  0  0
  -24.1792  -13.0443   20.9257 C   0  0  0  0  0  0
  -24.6375  -11.6921   20.8763 C   0  0  0  0  0  0
  -23.9044  -10.4305   21.0420 C   0  0  0  0  0  0
  -24.3605   -9.4220   21.9190 C   0  0  0  0  0  0
  -23.6295   -8.2245   22.0743 C   0  0  0  0  0  0
  -22.4276   -8.0277   21.3535 C   0  0  0  0  0  0
  -21.9905   -9.0245   20.4633 C   0  0  0  0  0  0
  -22.7220  -10.2138   20.3056 C   0  0  0  0  0  0
  -21.6843   -6.0736   22.5280 C   0  0  0  0  0  0
  -21.4014   -6.5642   23.8214 C   0  0  0  0  0  0
  -21.3660   -5.6791   24.9177 C   0  0  0  0  0  0
  -21.6037   -4.3051   24.7222 C   0  0  0  0  0  0
  -21.8820   -3.8150   23.4344 C   0  0  0  0  0  0
  -21.9195   -4.6969   22.3405 C   0  0  0  0  0  0
  -22.7810  -13.5221   21.1916 C   0  0  0  0  0  0
  -22.1657   -4.2163   21.0978 F   0  0  0  0  0  0
  -21.5632   -3.4530   25.7734 F   0  0  0  0  0  0
  -29.9636  -13.6231   20.3880 N   0  0  0  0  0  0
  -26.2899  -12.9383   20.3224 N   0  0  0  0  0  0
  -25.9298  -11.6536   20.5727 N   0  0  0  0  0  0
  -22.0441  -12.8193   22.0450 N   0  0  0  0  0  0
  -25.4172  -15.1914   20.4071 N   0  0  0  0  0  0
  -31.6951  -15.0461   20.1278 O   0  0  0  0  0  0
  -21.6629   -6.8879   21.4240 O   0  0  0  0  0  0
  -22.3498  -14.5529   20.6764 O   0  0  0  0  0  0
  -24.6434  -31.8477   23.1911 C   0  0  0  0  0  0
  -25.9234  -32.4697   23.8296 C   0  0  1  0  0  0
  -27.2164  -27.1551   20.1352 C   0  0  0  0  0  0
  -25.6012  -33.8497   24.2248 N   0  0  0  0  0  0
  -23.4436  -30.4691   21.5366 C   0  0  2  0  0  0
  -24.8913  -28.8980   20.1133 C   0  0  0  0  0  0
  -22.7548  -29.4588   22.4874 C   0  0  0  0  0  0
  -18.0304  -28.1377   22.8499 C   0  0  0  0  0  0
  -24.1497  -36.7228   23.2638 C   0  0  0  0  0  0
  -25.9991  -30.7249   21.3884 C   0  0  0  0  0  0
  -26.0692  -29.3382   20.7275 C   0  0  0  0  0  0
  -27.2343  -28.4831   20.7215 C   0  0  0  0  0  0
  -26.0111  -26.8149   19.4842 C   0  0  0  0  0  0
  -24.8731  -27.6490   19.4780 C   0  0  0  0  0  0
  -23.6687  -29.8007   20.1553 C   0  0  0  0  0  0
  -25.4124  -36.3027   24.0332 C   0  0  1  0  0  0
  -20.5915  -28.3724   23.1231 C   0  0  2  0  0  0
  -20.6778  -26.9433   22.5388 C   0  0  0  0  0  0
  -19.5749  -26.6405   21.5192 C   0  0  0  0  0  0
  -18.1941  -26.7927   22.1625 C   0  0  0  0  0  0
  -19.1560  -28.8867   23.2864 C   0  0  0  0  0  0
  -18.9474  -30.1454   23.8907 C   0  0  0  0  0  0
  -17.6470  -30.6580   24.0570 C   0  0  0  0  0  0
  -25.9080  -34.9400   23.5089 C   0  0  0  0  0  0
  -16.5363  -29.9079   23.6326 C   0  0  0  0  0  0
  -16.7289  -28.6478   23.0391 C   0  0  0  0  0  0
  -26.4572  -31.6514   25.0696 C   0  0  0  0  0  0
  -25.3783  -31.3684   26.1408 C   0  0  0  0  0  0
  -27.0433  -30.2909   24.6251 C   0  0  0  0  0  0
  -27.6129  -32.4244   25.7473 C   0  0  0  0  0  0
  -27.5580  -37.1771   24.8482 C   0  0  0  0  0  0
  -21.4248  -29.3060   22.3605 N   0  0  0  0  0  0
  -26.4295  -37.3740   23.9420 N   0  0  0  0  0  0
  -24.7148  -31.0348   22.0938 N   0  0  0  0  0  0
  -23.4201  -28.8142   23.3022 O   0  0  0  0  0  0
  -28.2836  -26.1894   20.1636 O   0  0  0  0  0  0
  -26.5628  -34.8898   22.4644 O   0  0  0  0  0  0
  -23.5557  -32.1356   23.7142 O   0  0  0  0  0  0
  -30.4046  -19.9077   20.2996 C   0  0  0  0  0  0
  -30.6033  -18.4604   20.2970 C   0  0  0  0  0  0
  -28.2822  -18.1757   20.6034 C   0  0  0  0  0  0
  -28.0765  -19.6117   20.6294 C   0  0  0  0  0  0
  -29.1366  -20.5715   20.4946 C   0  0  0  0  0  0
  -29.5459  -17.5060   20.4748 C   0  0  0  0  0  0
  -29.3154  -22.3018   22.1496 C   0  0  0  0  0  0
  -30.1268  -23.5793   22.2950 C   0  0  0  0  0  0
  -30.3798  -23.9792   20.8463 C   0  0  0  0  0  0
  -29.1519  -23.4245   20.1281 C   0  0  2  0  0  0
  -26.6702  -20.1180   20.9052 C   0  0  0  0  0  0
  -28.0128  -24.6585   20.2244 C   0  0  0  0  0  0
  -28.9613  -22.0495   20.8727 N   0  0  0  0  0  0
  -29.6003  -15.9814   20.5730 N   0  0  0  0  0  0
  -29.0577  -21.5899   23.1273 O   0  0  0  0  0  0
  -31.4851  -12.7302   19.1685 H   0  0  0  0  0  0
  -30.4601  -11.5902   19.9961 H   0  0  0  0  0  0
  -29.8298  -11.7149   17.5682 H   0  0  0  0  0  0
  -29.6199  -13.4440   17.6851 H   0  0  0  0  0  0
  -27.9221  -11.2697   18.9409 H   0  0  0  0  0  0
  -27.3918  -12.4779   17.8054 H   0  0  0  0  0  0
  -27.6122  -14.2417   19.4341 H   0  0  0  0  0  0
  -28.7641  -12.2020   21.4023 H   0  0  0  0  0  0
  -28.3914  -13.8611   21.7962 H   0  0  0  0  0  0
  -25.2745   -9.5699   22.4761 H   0  0  0  0  0  0
  -24.0010   -7.4628   22.7438 H   0  0  0  0  0  0
  -21.0846   -8.8747   19.8922 H   0  0  0  0  0  0
  -22.3667  -10.9675   19.6163 H   0  0  0  0  0  0
  -21.1998   -7.6149   23.9726 H   0  0  0  0  0  0
  -21.1478   -6.0516   25.9081 H   0  0  0  0  0  0
  -22.0602   -2.7615   23.2836 H   0  0  0  0  0  0
  -22.4047  -11.9859   22.4859 H   0  0  0  0  0  0
  -21.1042  -13.1192   22.2627 H   0  0  0  0  0  0
  -24.6407  -15.8345   20.5157 H   0  0  0  0  0  0
  -26.2131  -15.6103   19.9460 H   0  0  0  0  0  0
  -26.7288  -32.5323   23.1012 H   0  0  0  0  0  0
  -25.0219  -33.9620   25.0438 H   0  0  0  0  0  0
  -22.7454  -31.2952   21.3846 H   0  0  0  0  0  0
  -23.3781  -35.9543   23.3292 H   0  0  0  0  0  0
  -24.3586  -36.8850   22.2054 H   0  0  0  0  0  0
  -23.7225  -37.6418   23.6658 H   0  0  0  0  0  0
  -26.1590  -31.4849   20.6227 H   0  0  0  0  0  0
  -26.8658  -30.7688   22.0356 H   0  0  0  0  0  0
  -28.1348  -28.8199   21.2157 H   0  0  0  0  0  0
  -25.9090  -25.8754   18.9657 H   0  0  0  0  0  0
  -23.9777  -27.3065   18.9792 H   0  0  0  0  0  0
  -23.8108  -30.5789   19.4036 H   0  0  0  0  0  0
  -22.7815  -29.2476   19.8406 H   0  0  0  0  0  0
  -25.1302  -36.1871   25.0824 H   0  0  0  0  0  0
  -21.0020  -28.3318   24.1350 H   0  0  0  0  0  0
  -20.5659  -26.2349   23.3614 H   0  0  0  0  0  0
  -21.6646  -26.7446   22.1195 H   0  0  0  0  0  0
  -19.6922  -25.6328   21.1204 H   0  0  0  0  0  0
  -19.6656  -27.3229   20.6728 H   0  0  0  0  0  0
  -17.4208  -26.6698   21.4028 H   0  0  0  0  0  0
  -18.0350  -26.0035   22.8983 H   0  0  0  0  0  0
  -19.7949  -30.7256   24.2302 H   0  0  0  0  0  0
  -17.5028  -31.6265   24.5167 H   0  0  0  0  0  0
  -15.5367  -30.2995   23.7623 H   0  0  0  0  0  0
  -15.8690  -28.0774   22.7157 H   0  0  0  0  0  0
  -24.6017  -30.6953   25.7752 H   0  0  0  0  0  0
  -24.8913  -32.2845   26.4752 H   0  0  0  0  0  0
  -25.8111  -30.8948   27.0227 H   0  0  0  0  0  0
  -26.3052  -29.6615   24.1269 H   0  0  0  0  0  0
  -27.4067  -29.7209   25.4810 H   0  0  0  0  0  0
  -27.8951  -30.4123   23.9559 H   0  0  0  0  0  0
  -27.2781  -33.3585   26.1991 H   0  0  0  0  0  0
  -28.3991  -32.6715   25.0324 H   0  0  0  0  0  0
  -28.0742  -31.8382   26.5436 H   0  0  0  0  0  0
  -28.2604  -38.0058   24.7531 H   0  0  0  0  0  0
  -28.1075  -36.2596   24.6321 H   0  0  0  0  0  0
  -27.2295  -37.1424   25.8883 H   0  0  0  0  0  0
  -20.9451  -29.8781   21.6791 H   0  0  0  0  0  0
  -26.0171  -38.2817   24.1408 H   0  0  0  0  0  0
  -31.2890  -20.5260   20.2291 H   0  0  0  0  0  0
  -31.6122  -18.0840   20.1977 H   0  0  0  0  0  0
  -27.4068  -17.5543   20.7364 H   0  0  0  0  0  0
  -31.0557  -23.3980   22.8354 H   0  0  0  0  0  0
  -29.5427  -24.3294   22.8288 H   0  0  0  0  0  0
  -31.2827  -23.4973   20.4701 H   0  0  0  0  0  0
  -30.5101  -25.0540   20.7206 H   0  0  0  0  0  0
  -29.3981  -23.2440   19.0818 H   0  0  0  0  0  0
  -25.9133  -19.4284   20.5312 H   0  0  0  0  0  0
  -26.5222  -20.2385   21.9788 H   0  0  0  0  0  0
  -26.4931  -21.0844   20.4330 H   0  0  0  0  0  0
  -27.4637  -24.5105   21.1535 H   0  0  0  0  0  0
  -27.2921  -24.4039   19.4501 H   0  0  0  0  0  0
  -28.6908  -15.5962   20.7742 H   0  0  0  0  0  0
  1 25  1  0  0  0
  1 30  2  0  0  0
  1 84  1  0  0  0
  2  3  1  0  0  0
  2 25  1  0  0  0
  2 86  1  0  0  0
  2 87  1  0  0  0
  3  4  1  0  0  0
  3 88  1  0  0  0
  3 89  1  0  0  0
  4  5  1  0  0  0
  4 90  1  0  0  0
  4 91  1  0  0  0
  5  6  1  0  0  0
  5 26  1  0  0  0
  5 92  1  0  0  0
  6 25  1  0  0  0
  6 93  1  0  0  0
  6 94  1  0  0  0
  7  8  2  0  0  0
  7 26  1  0  0  0
  7 29  1  0  0  0
  8  9  1  0  0  0
  8 22  1  0  0  0
  9 10  1  0  0  0
  9 27  2  0  0  0
 10 11  2  0  0  0
 10 15  1  0  0  0
 11 12  1  0  0  0
 11 95  1  0  0  0
 12 13  2  0  0  0
 12 96  1  0  0  0
 13 14  1  0  0  0
 13 31  1  0  0  0
 14 15  2  0  0  0
 14 97  1  0  0  0
 15 98  1  0  0  0
 16 17  2  0  0  0
 16 21  1  0  0  0
 16 31  1  0  0  0
 17 18  1  0  0  0
 17 99  1  0  0  0
 18 19  2  0  0  0
 18100  1  0  0  0
 19 20  1  0  0  0
 19 24  1  0  0  0
 20 21  2  0  0  0
 20101  1  0  0  0
 21 23  1  0  0  0
 22 28  1  0  0  0
 22 32  2  0  0  0
 26 27  1  0  0  0
 28102  1  0  0  0
 28103  1  0  0  0
 29104  1  0  0  0
 29105  1  0  0  0
 33 34  1  0  0  0
 33 66  1  0  0  0
 33 70  2  0  0  0
 34 36  1  0  0  0
 34 59  1  0  0  0
 34106  1  0  0  0
 35 44  2  0  0  0
 35 45  1  0  0  0
 35 68  1  0  0  0
 36 56  1  0  0  0
 36107  1  0  0  0
 37 39  1  0  0  0
 37 47  1  0  0  0
 37 66  1  0  0  0
 37108  1  0  0  0
 38 43  2  0  0  0
 38 46  1  0  0  0
 38 47  1  0  0  0
 39 64  1  0  0  0
 39 67  2  0  0  0
 40 52  1  0  0  0
 40 53  2  0  0  0
 40 58  1  0  0  0
 41109  1  0  0  0
 41110  1  0  0  0
 41111  1  0  0  0
 41 48  1  0  0  0
 42 43  1  0  0  0
 42 66  1  0  0  0
 42112  1  0  0  0
 42113  1  0  0  0
 43 44  1  0  0  0
 44114  1  0  0  0
 45 46  2  0  0  0
 45115  1  0  0  0
 46116  1  0  0  0
 47117  1  0  0  0
 47118  1  0  0  0
 48 56  1  0  0  0
 48 65  1  0  0  0
 48119  1  0  0  0
 49 50  1  0  0  0
 49 53  1  0  0  0
 49 64  1  0  0  0
 49120  1  0  0  0
 50 51  1  0  0  0
 50121  1  0  0  0
 50122  1  0  0  0
 51 52  1  0  0  0
 51123  1  0  0  0
 51124  1  0  0  0
 52125  1  0  0  0
 52126  1  0  0  0
 53 54  1  0  0  0
 54 55  2  0  0  0
 54127  1  0  0  0
 55 57  1  0  0  0
 55128  1  0  0  0
 56 69  2  0  0  0
 57 58  2  0  0  0
 57129  1  0  0  0
 58130  1  0  0  0
 59 60  1  0  0  0
 59 61  1  0  0  0
 59 62  1  0  0  0
 60131  1  0  0  0
 60132  1  0  0  0
 60133  1  0  0  0
 61134  1  0  0  0
 61135  1  0  0  0
 61136  1  0  0  0
 62137  1  0  0  0
 62138  1  0  0  0
 62139  1  0  0  0
 63 65  1  0  0  0
 63140  1  0  0  0
 63141  1  0  0  0
 63142  1  0  0  0
 64143  1  0  0  0
 65144  1  0  0  0
 68 82  1  0  0  0
 71 72  2  0  0  0
 71 75  1  0  0  0
 71145  1  0  0  0
 72 76  1  0  0  0
 72146  1  0  0  0
 73 74  1  0  0  0
 73 76  2  0  0  0
 73147  1  0  0  0
 74 75  2  0  0  0
 74 81  1  0  0  0
 75 83  1  0  0  0
 76 84  1  0  0  0
 77 78  1  0  0  0
 77 83  1  0  0  0
 77 85  2  0  0  0
 78 79  1  0  0  0
 78148  1  0  0  0
 78149  1  0  0  0
 79 80  1  0  0  0
 79150  1  0  0  0
 79151  1  0  0  0
 80 82  1  0  0  0
 80 83  1  0  0  0
 80152  1  0  0  0
 81153  1  0  0  0
 81154  1  0  0  0
 81155  1  0  0  0
 82156  1  0  0  0
 82157  1  0  0  0
 84158  1  0  0  0
M  ISO  4   1 100  68 101  82 101  84 100
M  END
> <chiral flag>
0

> <version>
0

> <s_m_source_file>
/data/baiqing/PycharmProjects/Reinvent-master-3.2/result/LINK_invent/BTK/process_docking_weight1_custom_product_contain_oxygen_bond_distance_aromatic_linkinvent_7_9_3/rearranged_h_0106.sdf

> <i_m_source_file_index>
57

> <r_mmod_Potential_Energy-OPLS-2005>
564.841796875

> <r_mmod_Stretch_Energy-OPLS-2005>
222.240341186523

> <r_mmod_Bend_Energy-OPLS-2005>
293.079742431641

> <r_mmod_Torsional_Energy-OPLS-2005>
328.039337158203

> <r_mmod_Improper_Torsional_Energy-OPLS-2005>
9.47400951385498

> <r_mmod_Van_der_Waal_Energy-OPLS-2005>
127.467895507812

> <r_mmod_Electrostatic_Energy-OPLS-2005>
-360.124084472656

> <r_mmod_Solvation_Energy-OPLS-2005>
-223.625610351562

> <b_mmod_Minimization_Converged-OPLS-2005>
0

> <r_mmod_RMS_Derivative-OPLS-2005>
2.49202346801758

$$$$
57
                    3D
 Structure written by MMmdl.
169178  0  0  1  0            999 V2000
  -30.6293  -14.7358   20.3068 C   0  0  0  0  0  0
  -30.4524  -12.3907   19.4855 C   0  0  0  0  0  0
  -29.5226  -12.2647   18.2575 C   0  0  0  0  0  0
  -28.0217  -12.2767   18.6494 C   0  0  0  0  0  0
  -27.6333  -13.2053   19.8427 C   0  0  2  0  0  0
  -28.7022  -13.2017   20.9525 C   0  0  0  0  0  0
  -25.2535  -13.8122   20.5780 C   0  0  0  0  0  0
  -24.1784  -13.0409   20.9248 C   0  0  0  0  0  0
  -24.6341  -11.6878   20.8821 C   0  0  0  0  0  0
  -23.9012  -10.4277   21.0448 C   0  0  0  0  0  0
  -24.3578   -9.4187   21.9207 C   0  0  0  0  0  0
  -23.6271   -8.2213   22.0750 C   0  0  0  0  0  0
  -22.4256   -8.0261   21.3539 C   0  0  0  0  0  0
  -21.9884   -9.0235   20.4646 C   0  0  0  0  0  0
  -22.7197  -10.2123   20.3075 C   0  0  0  0  0  0
  -21.6847   -6.0719   22.5271 C   0  0  0  0  0  0
  -21.4009   -6.5625   23.8201 C   0  0  0  0  0  0
  -21.3658   -5.6782   24.9165 C   0  0  0  0  0  0
  -21.6046   -4.3045   24.7223 C   0  0  0  0  0  0
  -21.8825   -3.8136   23.4344 C   0  0  0  0  0  0
  -21.9195   -4.6950   22.3397 C   0  0  0  0  0  0
  -22.7809  -13.5225   21.1872 C   0  0  0  0  0  0
  -22.1668   -4.2134   21.0975 F   0  0  0  0  0  0
  -21.5631   -3.4532   25.7738 F   0  0  0  0  0  0
  -29.9858  -13.5182   20.3135 N   0  0  0  0  0  0
  -26.2929  -12.9253   20.3408 N   0  0  0  0  0  0
  -25.9274  -11.6441   20.5908 N   0  0  0  0  0  0
  -22.0428  -12.8232   22.0418 N   0  0  0  0  0  0
  -25.4278  -15.1847   20.4196 N   0  0  0  0  0  0
  -31.8609  -14.7803   20.2987 O   0  0  0  0  0  0
  -21.6627   -6.8857   21.4231 O   0  0  0  0  0  0
  -22.3521  -14.5537   20.6707 O   0  0  0  0  0  0
  -24.6258  -31.8608   23.2047 C   0  0  0  0  0  0
  -25.9118  -32.4781   23.8366 C   0  0  1  0  0  0
  -27.2229  -27.3267   20.1246 C   0  0  0  0  0  0
  -25.5937  -33.8582   24.2290 N   0  0  0  0  0  0
  -23.4183  -30.4860   21.5474 C   0  0  2  0  0  0
  -24.8652  -28.9475   20.1079 C   0  0  0  0  0  0
  -22.7474  -29.4627   22.4945 C   0  0  0  0  0  0
  -18.0283  -28.1382   22.8482 C   0  0  0  0  0  0
  -24.1490  -36.7296   23.2633 C   0  0  0  0  0  0
  -25.9588  -30.7951   21.3759 C   0  0  0  0  0  0
  -26.0326  -29.4243   20.7169 C   0  0  0  0  0  0
  -27.2133  -28.6254   20.7174 C   0  0  0  0  0  0
  -26.0356  -26.9110   19.4736 C   0  0  0  0  0  0
  -24.8687  -27.6960   19.4758 C   0  0  0  0  0  0
  -23.6321  -29.8254   20.1603 C   0  0  0  0  0  0
  -25.4112  -36.3080   24.0327 C   0  0  1  0  0  0
  -20.5883  -28.3685   23.1288 C   0  0  2  0  0  0
  -20.6775  -26.9410   22.5413 C   0  0  0  0  0  0
  -19.5755  -26.6383   21.5212 C   0  0  0  0  0  0
  -18.1930  -26.7929   22.1617 C   0  0  0  0  0  0
  -19.1533  -28.8851   23.2880 C   0  0  0  0  0  0
  -18.9457  -30.1453   23.8896 C   0  0  0  0  0  0
  -17.6456  -30.6586   24.0561 C   0  0  0  0  0  0
  -25.9050  -34.9450   23.5104 C   0  0  0  0  0  0
  -16.5348  -29.9081   23.6331 C   0  0  0  0  0  0
  -16.7269  -28.6501   23.0349 C   0  0  0  0  0  0
  -26.4500  -31.6585   25.0733 C   0  0  0  0  0  0
  -25.3741  -31.3732   26.1466 C   0  0  0  0  0  0
  -27.0334  -30.3004   24.6189 C   0  0  0  0  0  0
  -27.6064  -32.4317   25.7505 C   0  0  0  0  0  0
  -27.5580  -37.1797   24.8458 C   0  0  0  0  0  0
  -21.4189  -29.3038   22.3687 N   0  0  0  0  0  0
  -26.4287  -37.3775   23.9408 N   0  0  0  0  0  0
  -24.6861  -31.0636   22.0992 N   0  0  0  0  0  0
  -23.4202  -28.8161   23.3018 O   0  0  0  0  0  0
  -28.3345  -26.4720   20.2112 O   0  0  0  0  0  0
  -26.5612  -34.8917   22.4667 O   0  0  0  0  0  0
  -23.5426  -32.1404   23.7384 O   0  0  0  0  0  0
  -29.7738  -19.6742   19.5218 C   0  0  0  0  0  0
  -29.8904  -18.3008   19.2048 C   0  0  0  0  0  0
  -29.9769  -17.7171   21.5206 C   0  0  0  0  0  0
  -29.7485  -20.1371   20.8497 C   0  0  0  0  0  0
  -29.9680  -17.2494   20.1768 C   0  0  0  0  0  0
  -29.8783  -19.1123   21.8474 C   0  0  0  0  0  0
  -29.0721  -23.9195   20.5994 C   0  0  0  0  0  0
  -28.8561  -22.5493   20.5044 C   0  0  0  0  0  0
  -30.2804  -24.3799   21.3315 C   0  0  0  0  0  0
  -27.5203  -22.2426   18.4511 C   0  0  0  0  0  0
  -27.6913  -22.0758   19.7726 C   0  0  0  0  0  0
  -31.3230  -23.3263   21.7072 C   0  0  0  0  0  0
  -30.6789  -21.9892   22.1029 C   0  0  0  0  0  0
  -30.2856  -15.7253   15.8913 C   0  0  0  0  0  0
  -28.1010  -25.0213   20.0152 C   0  0  0  0  0  0
  -30.7489  -15.7092   17.3509 C   0  0  0  0  0  0
  -29.5556  -15.6515   18.3323 C   0  0  0  0  0  0
  -29.6868  -21.5577   21.1180 N   0  0  0  0  0  0
  -29.9369  -15.8193   19.7579 N   0  0  0  0  0  0
  -30.5110  -25.5538   21.6362 O   0  0  0  0  0  0
  -29.8864  -19.4583   23.1589 F   0  0  0  0  0  0
  -31.4858  -12.5228   19.1593 H   0  0  0  0  0  0
  -30.4376  -11.4718   20.0728 H   0  0  0  0  0  0
  -29.7377  -11.3149   17.7659 H   0  0  0  0  0  0
  -29.7666  -12.9904   17.4871 H   0  0  0  0  0  0
  -27.7843  -11.2464   18.9144 H   0  0  0  0  0  0
  -27.4049  -12.5015   17.7787 H   0  0  0  0  0  0
  -27.5704  -14.2182   19.4642 H   0  0  0  0  0  0
  -28.7451  -12.2337   21.4539 H   0  0  0  0  0  0
  -28.4662  -13.9447   21.7157 H   0  0  0  0  0  0
  -25.2718   -9.5671   22.4788 H   0  0  0  0  0  0
  -23.9992   -7.4597   22.7451 H   0  0  0  0  0  0
  -21.0822   -8.8745   19.8945 H   0  0  0  0  0  0
  -22.3650  -10.9665   19.6196 H   0  0  0  0  0  0
  -21.1996   -7.6131   23.9698 H   0  0  0  0  0  0
  -21.1478   -6.0512   25.9066 H   0  0  0  0  0  0
  -22.0611   -2.7599   23.2844 H   0  0  0  0  0  0
  -22.4026  -11.9894   22.4823 H   0  0  0  0  0  0
  -21.1043  -13.1271   22.2606 H   0  0  0  0  0  0
  -24.6698  -15.8475   20.5375 H   0  0  0  0  0  0
  -26.2929  -15.6204   20.1255 H   0  0  0  0  0  0
  -26.7187  -32.5458   23.1117 H   0  0  0  0  0  0
  -25.0094  -33.9725   25.0442 H   0  0  0  0  0  0
  -22.7108  -31.3060   21.4083 H   0  0  0  0  0  0
  -23.3749  -35.9631   23.3288 H   0  0  0  0  0  0
  -24.3587  -36.8926   22.2051 H   0  0  0  0  0  0
  -23.7250  -37.6497   23.6668 H   0  0  0  0  0  0
  -26.0912  -31.5599   20.6093 H   0  0  0  0  0  0
  -26.8390  -30.8415   22.0051 H   0  0  0  0  0  0
  -28.1050  -28.9830   21.2122 H   0  0  0  0  0  0
  -25.9752  -25.9596   18.9664 H   0  0  0  0  0  0
  -23.9765  -27.3279   18.9879 H   0  0  0  0  0  0
  -23.7498  -30.6053   19.4070 H   0  0  0  0  0  0
  -22.7521  -29.2553   19.8574 H   0  0  0  0  0  0
  -25.1289  -36.1922   25.0817 H   0  0  0  0  0  0
  -20.9965  -28.3257   24.1414 H   0  0  0  0  0  0
  -20.5682  -26.2288   23.3607 H   0  0  0  0  0  0
  -21.6645  -26.7448   22.1206 H   0  0  0  0  0  0
  -19.6916  -25.6292   21.1246 H   0  0  0  0  0  0
  -19.6697  -27.3189   20.6739 H   0  0  0  0  0  0
  -17.4202  -26.6676   21.4014 H   0  0  0  0  0  0
  -18.0324  -26.0074   22.9013 H   0  0  0  0  0  0
  -19.7932  -30.7272   24.2264 H   0  0  0  0  0  0
  -17.5010  -31.6268   24.5159 H   0  0  0  0  0  0
  -15.5347  -30.2978   23.7666 H   0  0  0  0  0  0
  -15.8668  -28.0822   22.7062 H   0  0  0  0  0  0
  -24.5904  -30.7089   25.7807 H   0  0  0  0  0  0
  -24.8947  -32.2903   26.4899 H   0  0  0  0  0  0
  -25.8069  -30.8908   27.0239 H   0  0  0  0  0  0
  -26.2899  -29.6764   24.1216 H   0  0  0  0  0  0
  -27.4021  -29.7254   25.4693 H   0  0  0  0  0  0
  -27.8778  -30.4276   23.9412 H   0  0  0  0  0  0
  -27.2670  -33.3605   26.2102 H   0  0  0  0  0  0
  -28.3863  -32.6897   25.0330 H   0  0  0  0  0  0
  -28.0748  -31.8435   26.5404 H   0  0  0  0  0  0
  -28.2584  -38.0106   24.7514 H   0  0  0  0  0  0
  -28.1084  -36.2637   24.6259 H   0  0  0  0  0  0
  -27.2307  -37.1423   25.8862 H   0  0  0  0  0  0
  -20.9361  -29.8762   21.6901 H   0  0  0  0  0  0
  -26.0164  -38.2846   24.1419 H   0  0  0  0  0  0
  -29.7190  -20.3859   18.7111 H   0  0  0  0  0  0
  -29.9046  -18.1099   18.1447 H   0  0  0  0  0  0
  -30.0332  -17.0069   22.3320 H   0  0  0  0  0  0
  -26.6320  -21.8781   17.9551 H   0  0  0  0  0  0
  -28.2626  -22.7401   17.8428 H   0  0  0  0  0  0
  -26.9149  -21.5642   20.3267 H   0  0  0  0  0  0
  -31.9476  -23.6976   22.5194 H   0  0  0  0  0  0
  -31.9751  -23.1798   20.8463 H   0  0  0  0  0  0
  -30.1936  -22.0825   23.0756 H   0  0  0  0  0  0
  -31.4724  -21.2489   22.2197 H   0  0  0  0  0  0
  -31.1383  -15.7536   15.2128 H   0  0  0  0  0  0
  -29.6694  -16.6012   15.6827 H   0  0  0  0  0  0
  -29.6994  -14.8368   15.6518 H   0  0  0  0  0  0
  -27.1315  -24.7640   20.4444 H   0  0  0  0  0  0
  -28.0281  -24.8619   18.9402 H   0  0  0  0  0  0
  -31.3717  -16.5841   17.5383 H   0  0  0  0  0  0
  -31.4007  -14.8478   17.5029 H   0  0  0  0  0  0
  -29.0200  -14.7426   18.1512 H   0  0  0  0  0  0
  -28.7785  -16.3639   18.0561 H   0  0  0  0  0  0
  1 25  1  0  0  0
  1 30  2  0  0  0
  1 89  1  0  0  0
  2  3  1  0  0  0
  2 25  1  0  0  0
  2 92  1  0  0  0
  2 93  1  0  0  0
  3  4  1  0  0  0
  3 94  1  0  0  0
  3 95  1  0  0  0
  4  5  1  0  0  0
  4 96  1  0  0  0
  4 97  1  0  0  0
  5  6  1  0  0  0
  5 26  1  0  0  0
  5 98  1  0  0  0
  6 25  1  0  0  0
  6 99  1  0  0  0
  6100  1  0  0  0
  7  8  2  0  0  0
  7 26  1  0  0  0
  7 29  1  0  0  0
  8  9  1  0  0  0
  8 22  1  0  0  0
  9 10  1  0  0  0
  9 27  2  0  0  0
 10 11  2  0  0  0
 10 15  1  0  0  0
 11 12  1  0  0  0
 11101  1  0  0  0
 12 13  2  0  0  0
 12102  1  0  0  0
 13 14  1  0  0  0
 13 31  1  0  0  0
 14 15  2  0  0  0
 14103  1  0  0  0
 15104  1  0  0  0
 16 17  2  0  0  0
 16 21  1  0  0  0
 16 31  1  0  0  0
 17 18  1  0  0  0
 17105  1  0  0  0
 18 19  2  0  0  0
 18106  1  0  0  0
 19 20  1  0  0  0
 19 24  1  0  0  0
 20 21  2  0  0  0
 20107  1  0  0  0
 21 23  1  0  0  0
 22 28  1  0  0  0
 22 32  2  0  0  0
 26 27  1  0  0  0
 28108  1  0  0  0
 28109  1  0  0  0
 29110  1  0  0  0
 29111  1  0  0  0
 33 34  1  0  0  0
 33 66  1  0  0  0
 33 70  2  0  0  0
 34 36  1  0  0  0
 34 59  1  0  0  0
 34112  1  0  0  0
 35 44  2  0  0  0
 35 45  1  0  0  0
 35 68  1  0  0  0
 36 56  1  0  0  0
 36113  1  0  0  0
 37 39  1  0  0  0
 37 47  1  0  0  0
 37 66  1  0  0  0
 37114  1  0  0  0
 38 43  2  0  0  0
 38 46  1  0  0  0
 38 47  1  0  0  0
 39 64  1  0  0  0
 39 67  2  0  0  0
 40 52  1  0  0  0
 40 53  2  0  0  0
 40 58  1  0  0  0
 41115  1  0  0  0
 41116  1  0  0  0
 41117  1  0  0  0
 41 48  1  0  0  0
 42 43  1  0  0  0
 42 66  1  0  0  0
 42118  1  0  0  0
 42119  1  0  0  0
 43 44  1  0  0  0
 44120  1  0  0  0
 45 46  2  0  0  0
 45121  1  0  0  0
 46122  1  0  0  0
 47123  1  0  0  0
 47124  1  0  0  0
 48 56  1  0  0  0
 48 65  1  0  0  0
 48125  1  0  0  0
 49 50  1  0  0  0
 49 53  1  0  0  0
 49 64  1  0  0  0
 49126  1  0  0  0
 50 51  1  0  0  0
 50127  1  0  0  0
 50128  1  0  0  0
 51 52  1  0  0  0
 51129  1  0  0  0
 51130  1  0  0  0
 52131  1  0  0  0
 52132  1  0  0  0
 53 54  1  0  0  0
 54 55  2  0  0  0
 54133  1  0  0  0
 55 57  1  0  0  0
 55134  1  0  0  0
 56 69  2  0  0  0
 57 58  2  0  0  0
 57135  1  0  0  0
 58136  1  0  0  0
 59 60  1  0  0  0
 59 61  1  0  0  0
 59 62  1  0  0  0
 60137  1  0  0  0
 60138  1  0  0  0
 60139  1  0  0  0
 61140  1  0  0  0
 61141  1  0  0  0
 61142  1  0  0  0
 62143  1  0  0  0
 62144  1  0  0  0
 62145  1  0  0  0
 63 65  1  0  0  0
 63146  1  0  0  0
 63147  1  0  0  0
 63148  1  0  0  0
 64149  1  0  0  0
 65150  1  0  0  0
 68 85  1  0  0  0
 71 72  2  0  0  0
 71 74  1  0  0  0
 71151  1  0  0  0
 72 75  1  0  0  0
 72152  1  0  0  0
 73 75  2  0  0  0
 73 76  1  0  0  0
 73153  1  0  0  0
 74 76  2  0  0  0
 74 88  1  0  0  0
 75 89  1  0  0  0
 76 91  1  0  0  0
 77 78  2  0  0  0
 77 79  1  0  0  0
 77 85  1  0  0  0
 78 81  1  0  0  0
 78 88  1  0  0  0
 79 82  1  0  0  0
 79 90  2  0  0  0
 80 81  2  0  0  0
 80154  1  0  0  0
 80155  1  0  0  0
 81156  1  0  0  0
 82 83  1  0  0  0
 82157  1  0  0  0
 82158  1  0  0  0
 83 88  1  0  0  0
 83159  1  0  0  0
 83160  1  0  0  0
 84 86  1  0  0  0
 84161  1  0  0  0
 84162  1  0  0  0
 84163  1  0  0  0
 85164  1  0  0  0
 85165  1  0  0  0
 86 87  1  0  0  0
 86166  1  0  0  0
 86167  1  0  0  0
 87 89  1  0  0  0
 87168  1  0  0  0
 87169  1  0  0  0
M  ISO  4   1 100  68 101  85 101  89 100
M  END
> <chiral flag>
0

> <version>
0

> <s_m_source_file>
/data/baiqing/PycharmProjects/Reinvent-master-3.2/result/LINK_invent/BTK/process_docking_weight1_custom_product_contain_oxygen_bond_distance_aromatic_linkinvent_7_9_3/rearranged_h_0106.sdf

> <i_m_source_file_index>
58

> <r_mmod_Potential_Energy-OPLS-2005>
414.659393310547

> <r_mmod_Stretch_Energy-OPLS-2005>
101.373924255371

> <r_mmod_Bend_Energy-OPLS-2005>
159.975936889648

> <r_mmod_Torsional_Energy-OPLS-2005>
317.602264404297

> <r_mmod_Improper_Torsional_Energy-OPLS-2005>
19.9835643768311

> <r_mmod_Van_der_Waal_Energy-OPLS-2005>
191.016586303711

> <r_mmod_Electrostatic_Energy-OPLS-2005>
-262.708984375

> <r_mmod_Solvation_Energy-OPLS-2005>
-206.208862304688

> <b_mmod_Minimization_Converged-OPLS-2005>
0

> <r_mmod_RMS_Derivative-OPLS-2005>
1.18527615070343

$$$$
58
                    3D
 Structure written by MMmdl.
159167  0  0  1  0            999 V2000
  -30.6283  -14.7070   20.3226 C   0  0  0  0  0  0
  -30.4344  -12.3934   19.4488 C   0  0  0  0  0  0
  -29.4850  -12.3514   18.2292 C   0  0  0  0  0  0
  -28.0150  -12.2495   18.6691 C   0  0  0  0  0  0
  -27.6388  -13.1990   19.8391 C   0  0  2  0  0  0
  -28.7022  -13.1746   20.9556 C   0  0  0  0  0  0
  -25.2517  -13.8138   20.5859 C   0  0  0  0  0  0
  -24.1751  -13.0403   20.9227 C   0  0  0  0  0  0
  -24.6332  -11.6886   20.8814 C   0  0  0  0  0  0
  -23.9023  -10.4294   21.0469 C   0  0  0  0  0  0
  -24.3575   -9.4197   21.9239 C   0  0  0  0  0  0
  -23.6265   -8.2230   22.0779 C   0  0  0  0  0  0
  -22.4243   -8.0288   21.3579 C   0  0  0  0  0  0
  -21.9879   -9.0264   20.4683 C   0  0  0  0  0  0
  -22.7197  -10.2149   20.3114 C   0  0  0  0  0  0
  -21.6821   -6.0741   22.5300 C   0  0  0  0  0  0
  -21.3995   -6.5646   23.8234 C   0  0  0  0  0  0
  -21.3661   -5.6788   24.9188 C   0  0  0  0  0  0
  -21.6033   -4.3051   24.7220 C   0  0  0  0  0  0
  -21.8822   -3.8153   23.4339 C   0  0  0  0  0  0
  -21.9178   -4.6975   22.3396 C   0  0  0  0  0  0
  -22.7776  -13.5249   21.1774 C   0  0  0  0  0  0
  -22.1655   -4.2186   21.0965 F   0  0  0  0  0  0
  -21.5631   -3.4515   25.7719 F   0  0  0  0  0  0
  -29.9897  -13.4922   20.3266 N   0  0  0  0  0  0
  -26.2939  -12.9310   20.3404 N   0  0  0  0  0  0
  -25.9253  -11.6484   20.5838 N   0  0  0  0  0  0
  -22.0331  -12.8376   22.0353 N   0  0  0  0  0  0
  -25.4173  -15.1881   20.4543 N   0  0  0  0  0  0
  -31.8602  -14.7524   20.2614 O   0  0  0  0  0  0
  -21.6599   -6.8886   21.4283 O   0  0  0  0  0  0
  -22.3527  -14.5533   20.6522 O   0  0  0  0  0  0
  -24.6258  -31.8622   23.2006 C   0  0  0  0  0  0
  -25.9089  -32.4777   23.8350 C   0  0  1  0  0  0
  -27.2182  -27.3116   20.0939 C   0  0  0  0  0  0
  -25.5888  -33.8594   24.2264 N   0  0  0  0  0  0
  -23.4172  -30.4870   21.5482 C   0  0  2  0  0  0
  -24.8592  -28.9405   20.1053 C   0  0  0  0  0  0
  -22.7473  -29.4633   22.4963 C   0  0  0  0  0  0
  -18.0307  -28.1374   22.8509 C   0  0  0  0  0  0
  -24.1479  -36.7287   23.2642 C   0  0  0  0  0  0
  -25.9619  -30.7757   21.3820 C   0  0  0  0  0  0
  -26.0278  -29.4060   20.7202 C   0  0  0  0  0  0
  -27.2037  -28.6004   20.7151 C   0  0  0  0  0  0
  -26.0323  -26.9133   19.4316 C   0  0  0  0  0  0
  -24.8639  -27.7009   19.4511 C   0  0  0  0  0  0
  -23.6254  -29.8187   20.1637 C   0  0  0  0  0  0
  -25.4109  -36.3103   24.0333 C   0  0  1  0  0  0
  -20.5913  -28.3657   23.1293 C   0  0  2  0  0  0
  -20.6794  -26.9389   22.5390 C   0  0  0  0  0  0
  -19.5756  -26.6377   21.5214 C   0  0  0  0  0  0
  -18.1944  -26.7962   22.1625 C   0  0  0  0  0  0
  -19.1567  -28.8828   23.2924 C   0  0  0  0  0  0
  -18.9489  -30.1440   23.8910 C   0  0  0  0  0  0
  -17.6498  -30.6577   24.0595 C   0  0  0  0  0  0
  -25.9063  -34.9463   23.5119 C   0  0  0  0  0  0
  -16.5389  -29.9085   23.6360 C   0  0  0  0  0  0
  -16.7303  -28.6507   23.0370 C   0  0  0  0  0  0
  -26.4446  -31.6618   25.0760 C   0  0  0  0  0  0
  -25.3642  -31.3773   26.1460 C   0  0  0  0  0  0
  -27.0298  -30.3039   24.6257 C   0  0  0  0  0  0
  -27.6018  -32.4387   25.7501 C   0  0  0  0  0  0
  -27.5579  -37.1791   24.8467 C   0  0  0  0  0  0
  -21.4198  -29.3045   22.3714 N   0  0  0  0  0  0
  -26.4286  -37.3788   23.9423 N   0  0  0  0  0  0
  -24.6864  -31.0622   22.0951 N   0  0  0  0  0  0
  -23.4221  -28.8126   23.3010 O   0  0  0  0  0  0
  -28.3485  -26.4757   20.1655 O   0  0  0  0  0  0
  -26.5659  -34.8937   22.4706 O   0  0  0  0  0  0
  -23.5422  -32.1439   23.7330 O   0  0  0  0  0  0
  -28.5128  -19.3170   19.9756 C   0  0  0  0  0  0
  -28.6042  -17.9197   19.7207 C   0  0  0  0  0  0
  -29.7253  -17.1446   20.1826 C   0  0  0  0  0  0
  -29.5233  -19.9774   20.6981 C   0  0  0  0  0  0
  -30.6790  -17.9137   20.9141 C   0  0  0  0  0  0
  -27.4911  -17.3326   18.8731 C   0  0  0  0  0  0
  -29.9940  -15.6945   18.2449 C   0  0  0  0  0  0
  -29.0048  -23.9427   20.6213 C   0  0  0  0  0  0
  -28.8845  -22.4285   20.1215 C   0  0  0  0  0  0
  -28.2907  -25.0533   19.7390 C   0  0  0  0  0  0
  -30.5681  -19.2510   21.1725 N   0  0  0  0  0  0
  -31.8779  -17.3717   21.3554 N   0  0  0  0  0  0
  -29.5243  -21.3784   20.9731 N   0  0  0  0  0  0
  -29.9324  -15.7518   19.7229 N   0  0  0  0  0  0
  -31.4663  -12.5217   19.1126 H   0  0  0  0  0  0
  -30.4071  -11.4474   19.9884 H   0  0  0  0  0  0
  -29.7290  -11.4911   17.6094 H   0  0  0  0  0  0
  -29.6175  -13.2026   17.5709 H   0  0  0  0  0  0
  -27.8609  -11.2179   18.9823 H   0  0  0  0  0  0
  -27.3493  -12.4025   17.8208 H   0  0  0  0  0  0
  -27.6237  -14.1958   19.4164 H   0  0  0  0  0  0
  -28.7349  -12.1939   21.4373 H   0  0  0  0  0  0
  -28.4630  -13.9080   21.7289 H   0  0  0  0  0  0
  -25.2710   -9.5662   22.4816 H   0  0  0  0  0  0
  -23.9980   -7.4612   22.7459 H   0  0  0  0  0  0
  -21.0820   -8.8775   19.8974 H   0  0  0  0  0  0
  -22.3668  -10.9696   19.6219 H   0  0  0  0  0  0
  -21.2002   -7.6157   23.9762 H   0  0  0  0  0  0
  -21.1463   -6.0495   25.9093 H   0  0  0  0  0  0
  -22.0598   -2.7624   23.2803 H   0  0  0  0  0  0
  -22.3860  -12.0119   22.4928 H   0  0  0  0  0  0
  -21.0992  -13.1613   22.2462 H   0  0  0  0  0  0
  -24.6594  -15.8326   20.6596 H   0  0  0  0  0  0
  -26.3065  -15.6463   20.3231 H   0  0  0  0  0  0
  -26.7166  -32.5414   23.1102 H   0  0  0  0  0  0
  -24.9957  -33.9743   25.0349 H   0  0  0  0  0  0
  -22.7099  -31.3081   21.4085 H   0  0  0  0  0  0
  -23.3764  -35.9603   23.3321 H   0  0  0  0  0  0
  -24.3563  -36.8889   22.2056 H   0  0  0  0  0  0
  -23.7200  -37.6481   23.6661 H   0  0  0  0  0  0
  -26.1195  -31.5393   20.6208 H   0  0  0  0  0  0
  -26.8343  -30.8098   22.0223 H   0  0  0  0  0  0
  -28.0920  -28.9533   21.2170 H   0  0  0  0  0  0
  -25.9646  -25.9953   18.8687 H   0  0  0  0  0  0
  -23.9712  -27.3544   18.9452 H   0  0  0  0  0  0
  -23.7249  -30.5943   19.4031 H   0  0  0  0  0  0
  -22.7441  -29.2440   19.8723 H   0  0  0  0  0  0
  -25.1289  -36.1956   25.0825 H   0  0  0  0  0  0
  -21.0044  -28.3188   24.1395 H   0  0  0  0  0  0
  -20.5688  -26.2287   23.3579 H   0  0  0  0  0  0
  -21.6664  -26.7393   22.1210 H   0  0  0  0  0  0
  -19.6872  -25.6279   21.1220 H   0  0  0  0  0  0
  -19.6670  -27.3190   20.6743 H   0  0  0  0  0  0
  -17.4211  -26.6763   21.4021 H   0  0  0  0  0  0
  -18.0328  -26.0093   22.9012 H   0  0  0  0  0  0
  -19.7973  -30.7247   24.2265 H   0  0  0  0  0  0
  -17.5089  -31.6247   24.5220 H   0  0  0  0  0  0
  -15.5418  -30.2994   23.7738 H   0  0  0  0  0  0
  -15.8698  -28.0840   22.7100 H   0  0  0  0  0  0
  -24.5801  -30.7150   25.7747 H   0  0  0  0  0  0
  -24.8830  -32.2949   26.4879 H   0  0  0  0  0  0
  -25.7907  -30.8915   27.0236 H   0  0  0  0  0  0
  -26.2893  -29.6807   24.1221 H   0  0  0  0  0  0
  -27.3917  -29.7294   25.4791 H   0  0  0  0  0  0
  -27.8809  -30.4350   23.9564 H   0  0  0  0  0  0
  -27.2629  -33.3698   26.2056 H   0  0  0  0  0  0
  -28.3785  -32.6923   25.0275 H   0  0  0  0  0  0
  -28.0727  -31.8524   26.5393 H   0  0  0  0  0  0
  -28.2602  -38.0080   24.7543 H   0  0  0  0  0  0
  -28.1064  -36.2622   24.6273 H   0  0  0  0  0  0
  -27.2309  -37.1424   25.8867 H   0  0  0  0  0  0
  -20.9358  -29.8839   21.7019 H   0  0  0  0  0  0
  -26.0175  -38.2873   24.1414 H   0  0  0  0  0  0
  -27.6639  -19.8700   19.5943 H   0  0  0  0  0  0
  -26.5252  -17.7668   19.1382 H   0  0  0  0  0  0
  -27.4090  -16.2606   18.9875 H   0  0  0  0  0  0
  -27.6770  -17.5318   17.8167 H   0  0  0  0  0  0
  -30.2248  -16.6673   17.8089 H   0  0  0  0  0  0
  -29.0435  -15.3678   17.8235 H   0  0  0  0  0  0
  -30.7700  -15.0304   17.8587 H   0  0  0  0  0  0
  -30.0591  -24.2090   20.7233 H   0  0  0  0  0  0
  -28.5921  -24.0013   21.6294 H   0  0  0  0  0  0
  -29.3232  -22.3547   19.1247 H   0  0  0  0  0  0
  -27.8280  -22.1843   20.0102 H   0  0  0  0  0  0
  -27.2739  -24.6855   19.6427 H   0  0  0  0  0  0
  -28.7150  -25.0201   18.7324 H   0  0  0  0  0  0
  -32.1743  -16.4911   20.9292 H   0  0  0  0  0  0
  -32.6454  -18.0030   21.5573 H   0  0  0  0  0  0
  -30.2734  -21.6999   21.5781 H   0  0  0  0  0  0
  1 25  1  0  0  0
  1 30  2  0  0  0
  1 84  1  0  0  0
  2  3  1  0  0  0
  2 25  1  0  0  0
  2 85  1  0  0  0
  2 86  1  0  0  0
  3  4  1  0  0  0
  3 87  1  0  0  0
  3 88  1  0  0  0
  4  5  1  0  0  0
  4 89  1  0  0  0
  4 90  1  0  0  0
  5  6  1  0  0  0
  5 26  1  0  0  0
  5 91  1  0  0  0
  6 25  1  0  0  0
  6 92  1  0  0  0
  6 93  1  0  0  0
  7  8  2  0  0  0
  7 26  1  0  0  0
  7 29  1  0  0  0
  8  9  1  0  0  0
  8 22  1  0  0  0
  9 10  1  0  0  0
  9 27  2  0  0  0
 10 11  2  0  0  0
 10 15  1  0  0  0
 11 12  1  0  0  0
 11 94  1  0  0  0
 12 13  2  0  0  0
 12 95  1  0  0  0
 13 14  1  0  0  0
 13 31  1  0  0  0
 14 15  2  0  0  0
 14 96  1  0  0  0
 15 97  1  0  0  0
 16 17  2  0  0  0
 16 21  1  0  0  0
 16 31  1  0  0  0
 17 18  1  0  0  0
 17 98  1  0  0  0
 18 19  2  0  0  0
 18 99  1  0  0  0
 19 20  1  0  0  0
 19 24  1  0  0  0
 20 21  2  0  0  0
 20100  1  0  0  0
 21 23  1  0  0  0
 22 28  1  0  0  0
 22 32  2  0  0  0
 26 27  1  0  0  0
 28101  1  0  0  0
 28102  1  0  0  0
 29103  1  0  0  0
 29104  1  0  0  0
 33 34  1  0  0  0
 33 66  1  0  0  0
 33 70  2  0  0  0
 34 36  1  0  0  0
 34 59  1  0  0  0
 34105  1  0  0  0
 35 44  2  0  0  0
 35 45  1  0  0  0
 35 68  1  0  0  0
 36 56  1  0  0  0
 36106  1  0  0  0
 37 39  1  0  0  0
 37 47  1  0  0  0
 37 66  1  0  0  0
 37107  1  0  0  0
 38 43  2  0  0  0
 38 46  1  0  0  0
 38 47  1  0  0  0
 39 64  1  0  0  0
 39 67  2  0  0  0
 40 52  1  0  0  0
 40 53  2  0  0  0
 40 58  1  0  0  0
 41108  1  0  0  0
 41109  1  0  0  0
 41110  1  0  0  0
 41 48  1  0  0  0
 42 43  1  0  0  0
 42 66  1  0  0  0
 42111  1  0  0  0
 42112  1  0  0  0
 43 44  1  0  0  0
 44113  1  0  0  0
 45 46  2  0  0  0
 45114  1  0  0  0
 46115  1  0  0  0
 47116  1  0  0  0
 47117  1  0  0  0
 48 56  1  0  0  0
 48 65  1  0  0  0
 48118  1  0  0  0
 49 50  1  0  0  0
 49 53  1  0  0  0
 49 64  1  0  0  0
 49119  1  0  0  0
 50 51  1  0  0  0
 50120  1  0  0  0
 50121  1  0  0  0
 51 52  1  0  0  0
 51122  1  0  0  0
 51123  1  0  0  0
 52124  1  0  0  0
 52125  1  0  0  0
 53 54  1  0  0  0
 54 55  2  0  0  0
 54126  1  0  0  0
 55 57  1  0  0  0
 55127  1  0  0  0
 56 69  2  0  0  0
 57 58  2  0  0  0
 57128  1  0  0  0
 58129  1  0  0  0
 59 60  1  0  0  0
 59 61  1  0  0  0
 59 62  1  0  0  0
 60130  1  0  0  0
 60131  1  0  0  0
 60132  1  0  0  0
 61133  1  0  0  0
 61134  1  0  0  0
 61135  1  0  0  0
 62136  1  0  0  0
 62137  1  0  0  0
 62138  1  0  0  0
 63 65  1  0  0  0
 63139  1  0  0  0
 63140  1  0  0  0
 63141  1  0  0  0
 64142  1  0  0  0
 65143  1  0  0  0
 68 80  1  0  0  0
 71 72  2  0  0  0
 71 74  1  0  0  0
 71144  1  0  0  0
 72 73  1  0  0  0
 72 76  1  0  0  0
 73 75  2  0  0  0
 73 84  1  0  0  0
 74 81  2  0  0  0
 74 83  1  0  0  0
 75 81  1  0  0  0
 75 82  1  0  0  0
 76145  1  0  0  0
 76146  1  0  0  0
 76147  1  0  0  0
 77 84  1  0  0  0
 77148  1  0  0  0
 77149  1  0  0  0
 77150  1  0  0  0
 78 79  1  0  0  0
 78 80  1  0  0  0
 78151  1  0  0  0
 78152  1  0  0  0
 79 83  1  0  0  0
 79153  1  0  0  0
 79154  1  0  0  0
 80155  1  0  0  0
 80156  1  0  0  0
 82157  1  0  0  0
 82158  1  0  0  0
 83159  1  0  0  0
M  ISO  4   1 100  68 101  80 101  84 100
M  END
> <chiral flag>
0

> <version>
0

> <s_m_source_file>
/data/baiqing/PycharmProjects/Reinvent-master-3.2/result/LINK_invent/BTK/process_docking_weight1_custom_product_contain_oxygen_bond_distance_aromatic_linkinvent_7_9_3/rearranged_h_0106.sdf

> <i_m_source_file_index>
59

> <r_mmod_Potential_Energy-OPLS-2005>
-25.8985538482666

> <r_mmod_Stretch_Energy-OPLS-2005>
86.261116027832

> <r_mmod_Bend_Energy-OPLS-2005>
172.297592163086

> <r_mmod_Torsional_Energy-OPLS-2005>
313.314239501953

> <r_mmod_Improper_Torsional_Energy-OPLS-2005>
33.1061019897461

> <r_mmod_Van_der_Waal_Energy-OPLS-2005>
164.152450561523

> <r_mmod_Electrostatic_Energy-OPLS-2005>
-659.501525878906

> <r_mmod_Solvation_Energy-OPLS-2005>
-218.002563476562

> <b_mmod_Minimization_Converged-OPLS-2005>
0

> <r_mmod_RMS_Derivative-OPLS-2005>
5.476806640625

$$$$
59
                    3D
 Structure written by MMmdl.
174182  0  0  1  0            999 V2000
  -30.7004  -14.4863   20.5896 C   0  0  0  0  0  0
  -30.4261  -12.3252   19.4182 C   0  0  0  0  0  0
  -29.4938  -12.5072   18.2031 C   0  0  0  0  0  0
  -28.0157  -12.3633   18.6175 C   0  0  0  0  0  0
  -27.6594  -13.2066   19.8710 C   0  0  2  0  0  0
  -28.7030  -12.9999   20.9913 C   0  0  0  0  0  0
  -25.2591  -13.8162   20.5677 C   0  0  0  0  0  0
  -24.1842  -13.0443   20.9174 C   0  0  0  0  0  0
  -24.6390  -11.6906   20.8734 C   0  0  0  0  0  0
  -23.9056  -10.4295   21.0404 C   0  0  0  0  0  0
  -24.3607   -9.4214   21.9188 C   0  0  0  0  0  0
  -23.6283   -8.2250   22.0762 C   0  0  0  0  0  0
  -22.4270   -8.0284   21.3545 C   0  0  0  0  0  0
  -21.9906   -9.0259   20.4648 C   0  0  0  0  0  0
  -22.7227  -10.2141   20.3055 C   0  0  0  0  0  0
  -21.6852   -6.0735   22.5277 C   0  0  0  0  0  0
  -21.4014   -6.5637   23.8211 C   0  0  0  0  0  0
  -21.3660   -5.6790   24.9174 C   0  0  0  0  0  0
  -21.6046   -4.3053   24.7223 C   0  0  0  0  0  0
  -21.8818   -3.8148   23.4343 C   0  0  0  0  0  0
  -21.9191   -4.6965   22.3400 C   0  0  0  0  0  0
  -22.7867  -13.5247   21.1839 C   0  0  0  0  0  0
  -22.1659   -4.2148   21.0978 F   0  0  0  0  0  0
  -21.5632   -3.4538   25.7739 F   0  0  0  0  0  0
  -30.0278  -13.3137   20.4319 N   0  0  0  0  0  0
  -26.3016  -12.9326   20.3344 N   0  0  0  0  0  0
  -25.9316  -11.6487   20.5757 N   0  0  0  0  0  0
  -22.0514  -12.8237   22.0393 N   0  0  0  0  0  0
  -25.4324  -15.1885   20.4088 N   0  0  0  0  0  0
  -31.8419  -14.6635   20.1543 O   0  0  0  0  0  0
  -21.6637   -6.8879   21.4241 O   0  0  0  0  0  0
  -22.3561  -14.5563   20.6701 O   0  0  0  0  0  0
  -24.6186  -31.8677   23.2114 C   0  0  0  0  0  0
  -25.9070  -32.4820   23.8412 C   0  0  1  0  0  0
  -27.2222  -27.4055   20.0908 C   0  0  0  0  0  0
  -25.5920  -33.8618   24.2337 N   0  0  0  0  0  0
  -23.4061  -30.4951   21.5540 C   0  0  2  0  0  0
  -24.8482  -28.9658   20.1126 C   0  0  0  0  0  0
  -22.7428  -29.4669   22.4991 C   0  0  0  0  0  0
  -18.0273  -28.1385   22.8499 C   0  0  0  0  0  0
  -24.1489  -36.7313   23.2640 C   0  0  0  0  0  0
  -25.9404  -30.8238   21.3697 C   0  0  0  0  0  0
  -26.0143  -29.4593   20.7109 C   0  0  0  0  0  0
  -27.2043  -28.6881   20.6960 C   0  0  0  0  0  0
  -26.0338  -26.9489   19.4689 C   0  0  0  0  0  0
  -24.8548  -27.7105   19.4881 C   0  0  0  0  0  0
  -23.6129  -29.8355   20.1668 C   0  0  0  0  0  0
  -25.4112  -36.3112   24.0340 C   0  0  1  0  0  0
  -20.5867  -28.3683   23.1311 C   0  0  2  0  0  0
  -20.6763  -26.9413   22.5418 C   0  0  0  0  0  0
  -19.5737  -26.6389   21.5220 C   0  0  0  0  0  0
  -18.1918  -26.7933   22.1627 C   0  0  0  0  0  0
  -19.1523  -28.8848   23.2901 C   0  0  0  0  0  0
  -18.9449  -30.1457   23.8905 C   0  0  0  0  0  0
  -17.6452  -30.6594   24.0569 C   0  0  0  0  0  0
  -25.9044  -34.9473   23.5134 C   0  0  0  0  0  0
  -16.5343  -29.9097   23.6323 C   0  0  0  0  0  0
  -16.7262  -28.6507   23.0356 C   0  0  0  0  0  0
  -26.4482  -31.6601   25.0742 C   0  0  0  0  0  0
  -25.3737  -31.3690   26.1477 C   0  0  0  0  0  0
  -27.0322  -30.3046   24.6132 C   0  0  0  0  0  0
  -27.6059  -32.4313   25.7504 C   0  0  0  0  0  0
  -27.5580  -37.1814   24.8468 C   0  0  0  0  0  0
  -21.4154  -29.3049   22.3722 N   0  0  0  0  0  0
  -26.4301  -37.3794   23.9399 N   0  0  0  0  0  0
  -24.6739  -31.0762   22.1029 N   0  0  0  0  0  0
  -23.4185  -28.8198   23.3036 O   0  0  0  0  0  0
  -28.3680  -26.6189   20.1328 O   0  0  0  0  0  0
  -26.5606  -34.8923   22.4694 O   0  0  0  0  0  0
  -23.5372  -32.1441   23.7492 O   0  0  0  0  0  0
  -31.2262  -19.3643   22.3756 C   0  0  0  0  0  0
  -31.4440  -16.9335   22.4352 C   0  0  0  0  0  0
  -31.8274  -18.2049   22.9067 C   0  0  0  0  0  0
  -30.2291  -19.2763   21.3755 C   0  0  0  0  0  0
  -30.4389  -16.8077   21.4523 C   0  0  0  0  0  0
  -29.8274  -17.9844   20.9303 C   0  0  0  0  0  0
  -29.9335  -21.7397   20.8568 C   0  0  0  0  0  0
  -32.3696  -20.0593   25.7313 C   0  0  0  0  0  0
  -31.7397  -21.9575   27.3633 C   0  0  0  0  0  0
  -31.4873  -17.7639   26.0097 C   0  0  0  0  0  0
  -29.3073  -17.6897   18.6754 C   0  0  0  0  0  0
  -32.8537  -18.3307   24.0234 C   0  0  0  0  0  0
  -28.9367  -22.7567   20.2598 C   0  0  0  0  0  0
  -31.6532  -20.4558   27.0355 C   0  0  0  0  0  0
  -29.3051  -24.2671   20.4264 C   0  0  0  0  0  0
  -28.1727  -25.1988   19.9301 C   0  0  0  0  0  0
  -29.5675  -20.4351   20.8381 N   0  0  0  0  0  0
  -29.9715  -15.5085   21.0838 N   0  0  0  0  0  0
  -32.2527  -18.7849   25.2866 N   0  0  0  0  0  0
  -31.0120  -22.1437   21.2964 O   0  0  0  0  0  0
  -33.0252  -20.9132   25.1258 O   0  0  0  0  0  0
  -28.8256  -17.8848   19.9983 O   0  0  0  0  0  0
  -31.4686  -12.4342   19.1143 H   0  0  0  0  0  0
  -30.3380  -11.3163   19.8242 H   0  0  0  0  0  0
  -29.7363  -11.7775   17.4291 H   0  0  0  0  0  0
  -29.6554  -13.4909   17.7591 H   0  0  0  0  0  0
  -27.8293  -11.3072   18.8169 H   0  0  0  0  0  0
  -27.3637  -12.6337   17.7860 H   0  0  0  0  0  0
  -27.6990  -14.2522   19.5654 H   0  0  0  0  0  0
  -28.6878  -11.9658   21.3404 H   0  0  0  0  0  0
  -28.4632  -13.6063   21.8662 H   0  0  0  0  0  0
  -25.2755   -9.5693   22.4761 H   0  0  0  0  0  0
  -23.9993   -7.4645   22.7485 H   0  0  0  0  0  0
  -21.0844   -8.8772   19.8954 H   0  0  0  0  0  0
  -22.3684  -10.9678   19.6164 H   0  0  0  0  0  0
  -21.2007   -7.6147   23.9711 H   0  0  0  0  0  0
  -21.1483   -6.0525   25.9076 H   0  0  0  0  0  0
  -22.0598   -2.7610   23.2842 H   0  0  0  0  0  0
  -22.4118  -11.9869   22.4739 H   0  0  0  0  0  0
  -21.1148  -13.1278   22.2628 H   0  0  0  0  0  0
  -24.6694  -15.8462   20.5256 H   0  0  0  0  0  0
  -26.2857  -15.6297   20.0890 H   0  0  0  0  0  0
  -26.7139  -32.5524   23.1170 H   0  0  0  0  0  0
  -25.0085  -33.9783   25.0493 H   0  0  0  0  0  0
  -22.6961  -31.3137   21.4194 H   0  0  0  0  0  0
  -23.3758  -35.9640   23.3306 H   0  0  0  0  0  0
  -24.3572  -36.8930   22.2051 H   0  0  0  0  0  0
  -23.7239  -37.6516   23.6655 H   0  0  0  0  0  0
  -26.0587  -31.5909   20.6033 H   0  0  0  0  0  0
  -26.8269  -30.8729   21.9898 H   0  0  0  0  0  0
  -28.1006  -29.0632   21.1696 H   0  0  0  0  0  0
  -25.9838  -25.9964   18.9628 H   0  0  0  0  0  0
  -23.9607  -27.3256   19.0165 H   0  0  0  0  0  0
  -23.7236  -30.6149   19.4125 H   0  0  0  0  0  0
  -22.7345  -29.2602   19.8684 H   0  0  0  0  0  0
  -25.1287  -36.1986   25.0838 H   0  0  0  0  0  0
  -20.9960  -28.3254   24.1431 H   0  0  0  0  0  0
  -20.5683  -26.2291   23.3612 H   0  0  0  0  0  0
  -21.6631  -26.7454   22.1208 H   0  0  0  0  0  0
  -19.6903  -25.6303   21.1242 H   0  0  0  0  0  0
  -19.6679  -27.3200   20.6753 H   0  0  0  0  0  0
  -17.4195  -26.6705   21.4015 H   0  0  0  0  0  0
  -18.0294  -26.0060   22.9008 H   0  0  0  0  0  0
  -19.7925  -30.7270   24.2277 H   0  0  0  0  0  0
  -17.5007  -31.6270   24.5183 H   0  0  0  0  0  0
  -15.5344  -30.3005   23.7636 H   0  0  0  0  0  0
  -15.8664  -28.0829   22.7067 H   0  0  0  0  0  0
  -24.5938  -30.7006   25.7804 H   0  0  0  0  0  0
  -24.8888  -32.2831   26.4911 H   0  0  0  0  0  0
  -25.8091  -30.8874   27.0244 H   0  0  0  0  0  0
  -26.2876  -29.6800   24.1182 H   0  0  0  0  0  0
  -27.4088  -29.7287   25.4597 H   0  0  0  0  0  0
  -27.8711  -30.4365   23.9293 H   0  0  0  0  0  0
  -27.2692  -33.3614   26.2095 H   0  0  0  0  0  0
  -28.3861  -32.6870   25.0319 H   0  0  0  0  0  0
  -28.0737  -31.8425   26.5404 H   0  0  0  0  0  0
  -28.2617  -38.0094   24.7503 H   0  0  0  0  0  0
  -28.1063  -36.2625   24.6325 H   0  0  0  0  0  0
  -27.2288  -37.1511   25.8872 H   0  0  0  0  0  0
  -20.9325  -29.8787   21.6953 H   0  0  0  0  0  0
  -26.0198  -38.2878   24.1395 H   0  0  0  0  0  0
  -31.5310  -20.3194   22.7759 H   0  0  0  0  0  0
  -31.8932  -16.0488   22.8655 H   0  0  0  0  0  0
  -31.1894  -22.1868   28.2757 H   0  0  0  0  0  0
  -31.3151  -22.5639   26.5622 H   0  0  0  0  0  0
  -32.7727  -22.2741   27.5131 H   0  0  0  0  0  0
  -31.8580  -17.6437   27.0283 H   0  0  0  0  0  0
  -31.5492  -16.7867   25.5297 H   0  0  0  0  0  0
  -30.4306  -18.0303   26.0554 H   0  0  0  0  0  0
  -28.4835  -17.7862   17.9681 H   0  0  0  0  0  0
  -29.7416  -16.6976   18.5482 H   0  0  0  0  0  0
  -30.0605  -18.4335   18.4101 H   0  0  0  0  0  0
  -33.6484  -18.9987   23.6869 H   0  0  0  0  0  0
  -33.3497  -17.3728   24.1858 H   0  0  0  0  0  0
  -27.9689  -22.5740   20.7285 H   0  0  0  0  0  0
  -28.8120  -22.5301   19.2003 H   0  0  0  0  0  0
  -32.0791  -19.8823   27.8592 H   0  0  0  0  0  0
  -30.6016  -20.1776   26.9628 H   0  0  0  0  0  0
  -30.2240  -24.4869   19.8814 H   0  0  0  0  0  0
  -29.5084  -24.4793   21.4764 H   0  0  0  0  0  0
  -27.2688  -24.8818   20.4545 H   0  0  0  0  0  0
  -28.0110  -25.0154   18.8666 H   0  0  0  0  0  0
  -28.7024  -20.2349   20.3540 H   0  0  0  0  0  0
  -28.9840  -15.3392   21.1963 H   0  0  0  0  0  0
  1 25  1  0  0  0
  1 30  2  0  0  0
  1 88  1  0  0  0
  2  3  1  0  0  0
  2 25  1  0  0  0
  2 93  1  0  0  0
  2 94  1  0  0  0
  3  4  1  0  0  0
  3 95  1  0  0  0
  3 96  1  0  0  0
  4  5  1  0  0  0
  4 97  1  0  0  0
  4 98  1  0  0  0
  5  6  1  0  0  0
  5 26  1  0  0  0
  5 99  1  0  0  0
  6 25  1  0  0  0
  6100  1  0  0  0
  6101  1  0  0  0
  7  8  2  0  0  0
  7 26  1  0  0  0
  7 29  1  0  0  0
  8  9  1  0  0  0
  8 22  1  0  0  0
  9 10  1  0  0  0
  9 27  2  0  0  0
 10 11  2  0  0  0
 10 15  1  0  0  0
 11 12  1  0  0  0
 11102  1  0  0  0
 12 13  2  0  0  0
 12103  1  0  0  0
 13 14  1  0  0  0
 13 31  1  0  0  0
 14 15  2  0  0  0
 14104  1  0  0  0
 15105  1  0  0  0
 16 17  2  0  0  0
 16 21  1  0  0  0
 16 31  1  0  0  0
 17 18  1  0  0  0
 17106  1  0  0  0
 18 19  2  0  0  0
 18107  1  0  0  0
 19 20  1  0  0  0
 19 24  1  0  0  0
 20 21  2  0  0  0
 20108  1  0  0  0
 21 23  1  0  0  0
 22 28  1  0  0  0
 22 32  2  0  0  0
 26 27  1  0  0  0
 28109  1  0  0  0
 28110  1  0  0  0
 29111  1  0  0  0
 29112  1  0  0  0
 33 34  1  0  0  0
 33 66  1  0  0  0
 33 70  2  0  0  0
 34 36  1  0  0  0
 34 59  1  0  0  0
 34113  1  0  0  0
 35 44  2  0  0  0
 35 45  1  0  0  0
 35 68  1  0  0  0
 36 56  1  0  0  0
 36114  1  0  0  0
 37 39  1  0  0  0
 37 47  1  0  0  0
 37 66  1  0  0  0
 37115  1  0  0  0
 38 43  2  0  0  0
 38 46  1  0  0  0
 38 47  1  0  0  0
 39 64  1  0  0  0
 39 67  2  0  0  0
 40 52  1  0  0  0
 40 53  2  0  0  0
 40 58  1  0  0  0
 41116  1  0  0  0
 41117  1  0  0  0
 41118  1  0  0  0
 41 48  1  0  0  0
 42 43  1  0  0  0
 42 66  1  0  0  0
 42119  1  0  0  0
 42120  1  0  0  0
 43 44  1  0  0  0
 44121  1  0  0  0
 45 46  2  0  0  0
 45122  1  0  0  0
 46123  1  0  0  0
 47124  1  0  0  0
 47125  1  0  0  0
 48 56  1  0  0  0
 48 65  1  0  0  0
 48126  1  0  0  0
 49 50  1  0  0  0
 49 53  1  0  0  0
 49 64  1  0  0  0
 49127  1  0  0  0
 50 51  1  0  0  0
 50128  1  0  0  0
 50129  1  0  0  0
 51 52  1  0  0  0
 51130  1  0  0  0
 51131  1  0  0  0
 52132  1  0  0  0
 52133  1  0  0  0
 53 54  1  0  0  0
 54 55  2  0  0  0
 54134  1  0  0  0
 55 57  1  0  0  0
 55135  1  0  0  0
 56 69  2  0  0  0
 57 58  2  0  0  0
 57136  1  0  0  0
 58137  1  0  0  0
 59 60  1  0  0  0
 59 61  1  0  0  0
 59 62  1  0  0  0
 60138  1  0  0  0
 60139  1  0  0  0
 60140  1  0  0  0
 61141  1  0  0  0
 61142  1  0  0  0
 61143  1  0  0  0
 62144  1  0  0  0
 62145  1  0  0  0
 62146  1  0  0  0
 63 65  1  0  0  0
 63147  1  0  0  0
 63148  1  0  0  0
 63149  1  0  0  0
 64150  1  0  0  0
 65151  1  0  0  0
 68 86  1  0  0  0
 71 73  2  0  0  0
 71 74  1  0  0  0
 71152  1  0  0  0
 72 73  1  0  0  0
 72 75  2  0  0  0
 72153  1  0  0  0
 73 82  1  0  0  0
 74 76  2  0  0  0
 74 87  1  0  0  0
 75 76  1  0  0  0
 75 88  1  0  0  0
 76 92  1  0  0  0
 77 83  1  0  0  0
 77 87  1  0  0  0
 77 90  2  0  0  0
 78 84  1  0  0  0
 78 89  1  0  0  0
 78 91  2  0  0  0
 79 84  1  0  0  0
 79154  1  0  0  0
 79155  1  0  0  0
 79156  1  0  0  0
 80 89  1  0  0  0
 80157  1  0  0  0
 80158  1  0  0  0
 80159  1  0  0  0
 81 92  1  0  0  0
 81160  1  0  0  0
 81161  1  0  0  0
 81162  1  0  0  0
 82 89  1  0  0  0
 82163  1  0  0  0
 82164  1  0  0  0
 83 85  1  0  0  0
 83165  1  0  0  0
 83166  1  0  0  0
 84167  1  0  0  0
 84168  1  0  0  0
 85 86  1  0  0  0
 85169  1  0  0  0
 85170  1  0  0  0
 86171  1  0  0  0
 86172  1  0  0  0
 87173  1  0  0  0
 88174  1  0  0  0
M  ISO  4   1 100  68 101  86 101  88 100
M  END
> <chiral flag>
0

> <version>
0

> <s_m_source_file>
/data/baiqing/PycharmProjects/Reinvent-master-3.2/result/LINK_invent/BTK/process_docking_weight1_custom_product_contain_oxygen_bond_distance_aromatic_linkinvent_7_9_3/rearranged_h_0106.sdf

> <i_m_source_file_index>
60

> <r_mmod_Potential_Energy-OPLS-2005>
-133.626190185547

> <r_mmod_Stretch_Energy-OPLS-2005>
45.8548812866211

> <r_mmod_Bend_Energy-OPLS-2005>
104.774879455566

> <r_mmod_Torsional_Energy-OPLS-2005>
281.378967285156

> <r_mmod_Improper_Torsional_Energy-OPLS-2005>
4.36475896835327

> <r_mmod_Van_der_Waal_Energy-OPLS-2005>
166.242767333984

> <r_mmod_Electrostatic_Energy-OPLS-2005>
-494.104431152344

> <r_mmod_Solvation_Energy-OPLS-2005>
-260.157440185547

> <b_mmod_Minimization_Converged-OPLS-2005>
0

> <r_mmod_RMS_Derivative-OPLS-2005>
0.939056515693665

$$$$
60
                    3D
 Structure written by MMmdl.
162170  0  0  1  0            999 V2000
  -30.6937  -14.6147   20.5871 C   0  0  0  0  0  0
  -30.4271  -12.4009   19.4683 C   0  0  0  0  0  0
  -29.5068  -12.5338   18.2355 C   0  0  0  0  0  0
  -28.0296  -12.3678   18.6369 C   0  0  0  0  0  0
  -27.6558  -13.2237   19.8759 C   0  0  2  0  0  0
  -28.6943  -13.0626   21.0078 C   0  0  0  0  0  0
  -25.2448  -13.8091   20.5481 C   0  0  0  0  0  0
  -24.1767  -13.0360   20.9094 C   0  0  0  0  0  0
  -24.6407  -11.6864   20.8742 C   0  0  0  0  0  0
  -23.9082  -10.4252   21.0416 C   0  0  0  0  0  0
  -24.3622   -9.4175   21.9201 C   0  0  0  0  0  0
  -23.6286   -8.2220   22.0773 C   0  0  0  0  0  0
  -22.4274   -8.0265   21.3553 C   0  0  0  0  0  0
  -21.9913   -9.0236   20.4655 C   0  0  0  0  0  0
  -22.7252  -10.2106   20.3063 C   0  0  0  0  0  0
  -21.6847   -6.0724   22.5275 C   0  0  0  0  0  0
  -21.4008   -6.5632   23.8208 C   0  0  0  0  0  0
  -21.3658   -5.6790   24.9172 C   0  0  0  0  0  0
  -21.6044   -4.3052   24.7225 C   0  0  0  0  0  0
  -21.8820   -3.8140   23.4347 C   0  0  0  0  0  0
  -21.9189   -4.6952   22.3399 C   0  0  0  0  0  0
  -22.7802  -13.5171   21.1782 C   0  0  0  0  0  0
  -22.1658   -4.2137   21.0979 F   0  0  0  0  0  0
  -21.5631   -3.4537   25.7742 F   0  0  0  0  0  0
  -30.0218  -13.4148   20.4708 N   0  0  0  0  0  0
  -26.2994  -12.9359   20.3378 N   0  0  0  0  0  0
  -25.9364  -11.6504   20.5849 N   0  0  0  0  0  0
  -22.0484  -12.8190   22.0390 N   0  0  0  0  0  0
  -25.3927  -15.1749   20.3583 N   0  0  0  0  0  0
  -31.7588  -14.7972   19.9905 O   0  0  0  0  0  0
  -21.6635   -6.8867   21.4241 O   0  0  0  0  0  0
  -22.3481  -14.5490   20.6662 O   0  0  0  0  0  0
  -24.6247  -31.8587   23.2001 C   0  0  0  0  0  0
  -25.9101  -32.4767   23.8332 C   0  0  1  0  0  0
  -27.2355  -27.3327   20.1319 C   0  0  0  0  0  0
  -25.5932  -33.8564   24.2273 N   0  0  0  0  0  0
  -23.4179  -30.4785   21.5421 C   0  0  2  0  0  0
  -24.8673  -28.9254   20.1168 C   0  0  0  0  0  0
  -22.7462  -29.4612   22.4947 C   0  0  0  0  0  0
  -18.0272  -28.1379   22.8469 C   0  0  0  0  0  0
  -24.1492  -36.7289   23.2640 C   0  0  0  0  0  0
  -25.9531  -30.7978   21.3630 C   0  0  0  0  0  0
  -26.0331  -29.4212   20.7152 C   0  0  0  0  0  0
  -27.2225  -28.6380   20.7072 C   0  0  0  0  0  0
  -26.0495  -26.8747   19.5210 C   0  0  0  0  0  0
  -24.8757  -27.6566   19.5104 C   0  0  0  0  0  0
  -23.6328  -29.8044   20.1599 C   0  0  0  0  0  0
  -25.4111  -36.3067   24.0330 C   0  0  1  0  0  0
  -20.5868  -28.3677   23.1285 C   0  0  2  0  0  0
  -20.6770  -26.9410   22.5401 C   0  0  0  0  0  0
  -19.5751  -26.6384   21.5197 C   0  0  0  0  0  0
  -18.1920  -26.7913   22.1607 C   0  0  0  0  0  0
  -19.1524  -28.8844   23.2866 C   0  0  0  0  0  0
  -18.9460  -30.1446   23.8884 C   0  0  0  0  0  0
  -17.6464  -30.6584   24.0558 C   0  0  0  0  0  0
  -25.9050  -34.9442   23.5098 C   0  0  0  0  0  0
  -16.5352  -29.9086   23.6332 C   0  0  0  0  0  0
  -16.7262  -28.6504   23.0345 C   0  0  0  0  0  0
  -26.4501  -31.6565   25.0690 C   0  0  0  0  0  0
  -25.3749  -31.3676   26.1425 C   0  0  0  0  0  0
  -27.0350  -30.3003   24.6096 C   0  0  0  0  0  0
  -27.6056  -32.4293   25.7474 C   0  0  0  0  0  0
  -27.5573  -37.1792   24.8465 C   0  0  0  0  0  0
  -21.4178  -29.3032   22.3691 N   0  0  0  0  0  0
  -26.4285  -37.3768   23.9414 N   0  0  0  0  0  0
  -24.6842  -31.0612   22.0936 N   0  0  0  0  0  0
  -23.4187  -28.8172   23.3038 O   0  0  0  0  0  0
  -28.3726  -26.5204   20.1229 O   0  0  0  0  0  0
  -26.5622  -34.8920   22.4667 O   0  0  0  0  0  0
  -23.5417  -32.1377   23.7348 O   0  0  0  0  0  0
  -30.6320  -19.5563   20.5806 C   0  0  0  0  0  0
  -28.2948  -19.0408   20.6331 C   0  0  0  0  0  0
  -29.9286  -17.1925   21.0594 C   0  0  0  0  0  0
  -30.9506  -18.1868   20.8715 C   0  0  0  0  0  0
  -29.2970  -20.0193   20.4490 C   0  0  0  0  0  0
  -28.5920  -17.6861   20.9748 C   0  0  0  0  0  0
  -30.1571  -15.7382   21.5448 C   0  0  0  0  0  0
  -29.2503  -22.5982   20.5465 C   0  0  0  0  0  0
  -33.1628  -17.8531   19.6749 C   0  0  0  0  0  0
  -26.6426  -17.3320   22.2495 C   0  0  0  0  0  0
  -32.4298  -17.8497   21.0214 C   0  0  0  0  0  0
  -28.7441  -23.9150   19.8248 C   0  0  0  0  0  0
  -28.2835  -25.1625   20.7008 C   0  0  0  0  0  0
  -29.9322  -15.4764   22.7672 N   0  0  0  0  0  0
  -28.9187  -21.3722   20.0374 N   0  0  0  0  0  0
  -29.9631  -22.7010   21.5474 O   0  0  0  0  0  0
  -27.5635  -16.8301   21.2820 O   0  0  0  0  0  0
  -31.4720  -12.5011   19.1698 H   0  0  0  0  0  0
  -30.3453  -11.4005   19.8960 H   0  0  0  0  0  0
  -29.7749  -11.7907   17.4828 H   0  0  0  0  0  0
  -29.6540  -13.5094   17.7691 H   0  0  0  0  0  0
  -27.8587  -11.3121   18.8506 H   0  0  0  0  0  0
  -27.3792  -12.6154   17.7975 H   0  0  0  0  0  0
  -27.6800  -14.2660   19.5572 H   0  0  0  0  0  0
  -28.7052  -12.0348   21.3726 H   0  0  0  0  0  0
  -28.4002  -13.6654   21.8641 H   0  0  0  0  0  0
  -25.2768   -9.5639   22.4777 H   0  0  0  0  0  0
  -23.9978   -7.4616   22.7501 H   0  0  0  0  0  0
  -21.0843   -8.8764   19.8961 H   0  0  0  0  0  0
  -22.3728  -10.9645   19.6164 H   0  0  0  0  0  0
  -21.2008   -7.6141   23.9705 H   0  0  0  0  0  0
  -21.1480   -6.0522   25.9072 H   0  0  0  0  0  0
  -22.0606   -2.7603   23.2852 H   0  0  0  0  0  0
  -22.4110  -11.9833   22.4739 H   0  0  0  0  0  0
  -21.1130  -13.1246   22.2671 H   0  0  0  0  0  0
  -24.6185  -15.8184   20.4697 H   0  0  0  0  0  0
  -26.2833  -15.6441   20.2297 H   0  0  0  0  0  0
  -26.7180  -32.5461   23.1095 H   0  0  0  0  0  0
  -25.0080  -33.9686   25.0416 H   0  0  0  0  0  0
  -22.7111  -31.2969   21.3956 H   0  0  0  0  0  0
  -23.3748  -35.9632   23.3295 H   0  0  0  0  0  0
  -24.3584  -36.8917   22.2060 H   0  0  0  0  0  0
  -23.7256  -37.6490   23.6669 H   0  0  0  0  0  0
  -26.0669  -31.5573   20.5879 H   0  0  0  0  0  0
  -26.8392  -30.8591   21.9830 H   0  0  0  0  0  0
  -28.1239  -29.0177   21.1680 H   0  0  0  0  0  0
  -26.0314  -25.9008   19.0528 H   0  0  0  0  0  0
  -23.9823  -27.2701   19.0398 H   0  0  0  0  0  0
  -23.7492  -30.5757   19.3973 H   0  0  0  0  0  0
  -22.7540  -29.2288   19.8640 H   0  0  0  0  0  0
  -25.1286  -36.1911   25.0822 H   0  0  0  0  0  0
  -20.9934  -28.3255   24.1416 H   0  0  0  0  0  0
  -20.5670  -26.2292   23.3600 H   0  0  0  0  0  0
  -21.6642  -26.7452   22.1198 H   0  0  0  0  0  0
  -19.6932  -25.6300   21.1222 H   0  0  0  0  0  0
  -19.6694  -27.3208   20.6734 H   0  0  0  0  0  0
  -17.4193  -26.6647   21.4010 H   0  0  0  0  0  0
  -18.0330  -26.0059   22.9013 H   0  0  0  0  0  0
  -19.7955  -30.7236   24.2263 H   0  0  0  0  0  0
  -17.5043  -31.6268   24.5159 H   0  0  0  0  0  0
  -15.5360  -30.2993   23.7671 H   0  0  0  0  0  0
  -15.8656  -28.0832   22.7065 H   0  0  0  0  0  0
  -24.5948  -30.6993   25.7761 H   0  0  0  0  0  0
  -24.8917  -32.2829   26.4845 H   0  0  0  0  0  0
  -25.8099  -30.8871   27.0198 H   0  0  0  0  0  0
  -26.2901  -29.6737   24.1175 H   0  0  0  0  0  0
  -27.4140  -29.7260   25.4558 H   0  0  0  0  0  0
  -27.8725  -30.4310   23.9241 H   0  0  0  0  0  0
  -27.2663  -33.3606   26.2020 H   0  0  0  0  0  0
  -28.3894  -32.6818   25.0322 H   0  0  0  0  0  0
  -28.0691  -31.8430   26.5419 H   0  0  0  0  0  0
  -28.2569  -38.0109   24.7514 H   0  0  0  0  0  0
  -28.1083  -36.2628   24.6280 H   0  0  0  0  0  0
  -27.2285  -37.1424   25.8868 H   0  0  0  0  0  0
  -20.9363  -29.8756   21.6895 H   0  0  0  0  0  0
  -26.0158  -38.2836   24.1432 H   0  0  0  0  0  0
  -31.4380  -20.2634   20.4412 H   0  0  0  0  0  0
  -27.2630  -19.3441   20.5338 H   0  0  0  0  0  0
  -34.2167  -17.6077   19.8077 H   0  0  0  0  0  0
  -33.1084  -18.8305   19.1958 H   0  0  0  0  0  0
  -32.7349  -17.1227   18.9880 H   0  0  0  0  0  0
  -27.1510  -17.8569   23.0597 H   0  0  0  0  0  0
  -26.0944  -16.5042   22.6990 H   0  0  0  0  0  0
  -25.9124  -18.0025   21.7957 H   0  0  0  0  0  0
  -32.5830  -16.8948   21.5214 H   0  0  0  0  0  0
  -32.8892  -18.5889   21.6795 H   0  0  0  0  0  0
  -27.9465  -23.6593   19.1276 H   0  0  0  0  0  0
  -29.5777  -24.2403   19.2025 H   0  0  0  0  0  0
  -28.9027  -25.1914   21.5974 H   0  0  0  0  0  0
  -27.2751  -24.9709   21.0736 H   0  0  0  0  0  0
  -29.6089  -16.3028   23.2549 H   0  0  0  0  0  0
  -28.2402  -21.4116   19.2881 H   0  0  0  0  0  0
  1 25  1  0  0  0
  1 30  2  0  0  0
  1 77  1  0  0  0
  2  3  1  0  0  0
  2 25  1  0  0  0
  2 88  1  0  0  0
  2 89  1  0  0  0
  3  4  1  0  0  0
  3 90  1  0  0  0
  3 91  1  0  0  0
  4  5  1  0  0  0
  4 92  1  0  0  0
  4 93  1  0  0  0
  5  6  1  0  0  0
  5 26  1  0  0  0
  5 94  1  0  0  0
  6 25  1  0  0  0
  6 95  1  0  0  0
  6 96  1  0  0  0
  7  8  2  0  0  0
  7 26  1  0  0  0
  7 29  1  0  0  0
  8  9  1  0  0  0
  8 22  1  0  0  0
  9 10  1  0  0  0
  9 27  2  0  0  0
 10 11  2  0  0  0
 10 15  1  0  0  0
 11 12  1  0  0  0
 11 97  1  0  0  0
 12 13  2  0  0  0
 12 98  1  0  0  0
 13 14  1  0  0  0
 13 31  1  0  0  0
 14 15  2  0  0  0
 14 99  1  0  0  0
 15100  1  0  0  0
 16 17  2  0  0  0
 16 21  1  0  0  0
 16 31  1  0  0  0
 17 18  1  0  0  0
 17101  1  0  0  0
 18 19  2  0  0  0
 18102  1  0  0  0
 19 20  1  0  0  0
 19 24  1  0  0  0
 20 21  2  0  0  0
 20103  1  0  0  0
 21 23  1  0  0  0
 22 28  1  0  0  0
 22 32  2  0  0  0
 26 27  1  0  0  0
 28104  1  0  0  0
 28105  1  0  0  0
 29106  1  0  0  0
 29107  1  0  0  0
 33 34  1  0  0  0
 33 66  1  0  0  0
 33 70  2  0  0  0
 34 36  1  0  0  0
 34 59  1  0  0  0
 34108  1  0  0  0
 35 44  2  0  0  0
 35 45  1  0  0  0
 35 68  1  0  0  0
 36 56  1  0  0  0
 36109  1  0  0  0
 37 39  1  0  0  0
 37 47  1  0  0  0
 37 66  1  0  0  0
 37110  1  0  0  0
 38 43  2  0  0  0
 38 46  1  0  0  0
 38 47  1  0  0  0
 39 64  1  0  0  0
 39 67  2  0  0  0
 40 52  1  0  0  0
 40 53  2  0  0  0
 40 58  1  0  0  0
 41111  1  0  0  0
 41112  1  0  0  0
 41113  1  0  0  0
 41 48  1  0  0  0
 42 43  1  0  0  0
 42 66  1  0  0  0
 42114  1  0  0  0
 42115  1  0  0  0
 43 44  1  0  0  0
 44116  1  0  0  0
 45 46  2  0  0  0
 45117  1  0  0  0
 46118  1  0  0  0
 47119  1  0  0  0
 47120  1  0  0  0
 48 56  1  0  0  0
 48 65  1  0  0  0
 48121  1  0  0  0
 49 50  1  0  0  0
 49 53  1  0  0  0
 49 64  1  0  0  0
 49122  1  0  0  0
 50 51  1  0  0  0
 50123  1  0  0  0
 50124  1  0  0  0
 51 52  1  0  0  0
 51125  1  0  0  0
 51126  1  0  0  0
 52127  1  0  0  0
 52128  1  0  0  0
 53 54  1  0  0  0
 54 55  2  0  0  0
 54129  1  0  0  0
 55 57  1  0  0  0
 55130  1  0  0  0
 56 69  2  0  0  0
 57 58  2  0  0  0
 57131  1  0  0  0
 58132  1  0  0  0
 59 60  1  0  0  0
 59 61  1  0  0  0
 59 62  1  0  0  0
 60133  1  0  0  0
 60134  1  0  0  0
 60135  1  0  0  0
 61136  1  0  0  0
 61137  1  0  0  0
 61138  1  0  0  0
 62139  1  0  0  0
 62140  1  0  0  0
 62141  1  0  0  0
 63 65  1  0  0  0
 63142  1  0  0  0
 63143  1  0  0  0
 63144  1  0  0  0
 64145  1  0  0  0
 65146  1  0  0  0
 68 83  1  0  0  0
 71 74  2  0  0  0
 71 75  1  0  0  0
 71147  1  0  0  0
 72 75  2  0  0  0
 72 76  1  0  0  0
 72148  1  0  0  0
 73 74  1  0  0  0
 73 76  2  0  0  0
 73 77  1  0  0  0
 74 81  1  0  0  0
 75 85  1  0  0  0
 76 87  1  0  0  0
 77 84  2  0  0  0
 78 82  1  0  0  0
 78 85  1  0  0  0
 78 86  2  0  0  0
 79 81  1  0  0  0
 79149  1  0  0  0
 79150  1  0  0  0
 79151  1  0  0  0
 80 87  1  0  0  0
 80152  1  0  0  0
 80153  1  0  0  0
 80154  1  0  0  0
 81155  1  0  0  0
 81156  1  0  0  0
 82 83  1  0  0  0
 82157  1  0  0  0
 82158  1  0  0  0
 83159  1  0  0  0
 83160  1  0  0  0
 84161  1  0  0  0
 85162  1  0  0  0
M  ISO  4   1 100  68 101  77 100  83 101
M  END
> <chiral flag>
0

> <version>
0

> <s_m_source_file>
/data/baiqing/PycharmProjects/Reinvent-master-3.2/result/LINK_invent/BTK/process_docking_weight1_custom_product_contain_oxygen_bond_distance_aromatic_linkinvent_7_9_3/rearranged_h_0106.sdf

> <i_m_source_file_index>
61

> <r_mmod_Potential_Energy-OPLS-2005>
249.145370483398

> <r_mmod_Stretch_Energy-OPLS-2005>
89.2882690429688

> <r_mmod_Bend_Energy-OPLS-2005>
149.014694213867

> <r_mmod_Torsional_Energy-OPLS-2005>
284.968597412109

> <r_mmod_Improper_Torsional_Energy-OPLS-2005>
4.03355932235718

> <r_mmod_Van_der_Waal_Energy-OPLS-2005>
139.237380981445

> <r_mmod_Electrostatic_Energy-OPLS-2005>
-243.305313110352

> <r_mmod_Solvation_Energy-OPLS-2005>
-212.994583129883

> <b_mmod_Minimization_Converged-OPLS-2005>
0

> <r_mmod_RMS_Derivative-OPLS-2005>
1.49886608123779

$$$$
61
                    3D
 Structure written by MMmdl.
162171  0  0  1  0            999 V2000
  -30.7231  -14.4266   20.6076 C   0  0  0  0  0  0
  -30.4274  -12.2892   19.4131 C   0  0  0  0  0  0
  -29.4975  -12.5011   18.2007 C   0  0  0  0  0  0
  -28.0172  -12.3674   18.6121 C   0  0  0  0  0  0
  -27.6661  -13.2016   19.8744 C   0  0  2  0  0  0
  -28.7049  -12.9553   20.9920 C   0  0  0  0  0  0
  -25.2599  -13.8147   20.5651 C   0  0  0  0  0  0
  -24.1849  -13.0438   20.9170 C   0  0  0  0  0  0
  -24.6390  -11.6896   20.8730 C   0  0  0  0  0  0
  -23.9054  -10.4294   21.0400 C   0  0  0  0  0  0
  -24.3610   -9.4211   21.9177 C   0  0  0  0  0  0
  -23.6288   -8.2246   22.0756 C   0  0  0  0  0  0
  -22.4272   -8.0284   21.3547 C   0  0  0  0  0  0
  -21.9902   -9.0250   20.4648 C   0  0  0  0  0  0
  -22.7231  -10.2125   20.3051 C   0  0  0  0  0  0
  -21.6844   -6.0740   22.5284 C   0  0  0  0  0  0
  -21.4005   -6.5640   23.8221 C   0  0  0  0  0  0
  -21.3662   -5.6785   24.9177 C   0  0  0  0  0  0
  -21.6052   -4.3056   24.7224 C   0  0  0  0  0  0
  -21.8816   -3.8151   23.4345 C   0  0  0  0  0  0
  -21.9190   -4.6967   22.3401 C   0  0  0  0  0  0
  -22.7870  -13.5247   21.1832 C   0  0  0  0  0  0
  -22.1659   -4.2159   21.0976 F   0  0  0  0  0  0
  -21.5631   -3.4536   25.7736 F   0  0  0  0  0  0
  -30.0431  -13.2592   20.4500 N   0  0  0  0  0  0
  -26.3044  -12.9313   20.3340 N   0  0  0  0  0  0
  -25.9318  -11.6486   20.5741 N   0  0  0  0  0  0
  -22.0487  -12.8248   22.0394 N   0  0  0  0  0  0
  -25.4298  -15.1863   20.4029 N   0  0  0  0  0  0
  -31.8168  -14.6371   20.0778 O   0  0  0  0  0  0
  -21.6633   -6.8882   21.4249 O   0  0  0  0  0  0
  -22.3570  -14.5557   20.6679 O   0  0  0  0  0  0
  -24.6089  -31.8712   23.2140 C   0  0  0  0  0  0
  -25.9005  -32.4827   23.8428 C   0  0  1  0  0  0
  -27.2474  -27.4781   20.1003 C   0  0  0  0  0  0
  -25.5894  -33.8623   24.2376 N   0  0  0  0  0  0
  -23.3943  -30.4953   21.5497 C   0  0  2  0  0  0
  -24.8453  -28.9659   20.1161 C   0  0  0  0  0  0
  -22.7386  -29.4679   22.4985 C   0  0  0  0  0  0
  -18.0269  -28.1382   22.8485 C   0  0  0  0  0  0
  -24.1497  -36.7309   23.2638 C   0  0  0  0  0  0
  -25.9159  -30.8542   21.3585 C   0  0  0  0  0  0
  -25.9973  -29.4879   20.7161 C   0  0  0  0  0  0
  -27.1993  -28.7525   20.7129 C   0  0  0  0  0  0
  -26.0838  -26.9683   19.4906 C   0  0  0  0  0  0
  -24.8803  -27.7010   19.5024 C   0  0  0  0  0  0
  -23.6030  -29.8251   20.1644 C   0  0  0  0  0  0
  -25.4101  -36.3106   24.0362 C   0  0  1  0  0  0
  -20.5861  -28.3644   23.1331 C   0  0  2  0  0  0
  -20.6764  -26.9383   22.5427 C   0  0  0  0  0  0
  -19.5756  -26.6387   21.5218 C   0  0  0  0  0  0
  -18.1919  -26.7933   22.1606 C   0  0  0  0  0  0
  -19.1521  -28.8822   23.2915 C   0  0  0  0  0  0
  -18.9445  -30.1432   23.8923 C   0  0  0  0  0  0
  -17.6446  -30.6571   24.0567 C   0  0  0  0  0  0
  -25.9020  -34.9467   23.5154 C   0  0  0  0  0  0
  -16.5338  -29.9079   23.6308 C   0  0  0  0  0  0
  -16.7258  -28.6502   23.0314 C   0  0  0  0  0  0
  -26.4467  -31.6565   25.0714 C   0  0  0  0  0  0
  -25.3762  -31.3651   26.1475 C   0  0  0  0  0  0
  -27.0263  -30.3021   24.6004 C   0  0  0  0  0  0
  -27.6064  -32.4249   25.7465 C   0  0  0  0  0  0
  -27.5583  -37.1800   24.8465 C   0  0  0  0  0  0
  -21.4115  -29.3023   22.3730 N   0  0  0  0  0  0
  -26.4289  -37.3789   23.9422 N   0  0  0  0  0  0
  -24.6565  -31.0880   22.0994 N   0  0  0  0  0  0
  -23.4194  -28.8223   23.3001 O   0  0  0  0  0  0
  -28.3725  -26.6885   20.0493 O   0  0  0  0  0  0
  -26.5565  -34.8909   22.4704 O   0  0  0  0  0  0
  -23.5299  -32.1414   23.7595 O   0  0  0  0  0  0
  -29.4152  -19.0133   21.7773 C   0  0  0  0  0  0
  -29.2295  -17.6218   21.6398 C   0  0  0  0  0  0
  -31.6244  -17.3303   21.3442 C   0  0  0  0  0  0
  -30.7100  -19.5787   21.7061 C   0  0  0  0  0  0
  -30.3289  -16.7643   21.4156 C   0  0  0  0  0  0
  -31.8142  -18.7205   21.4885 C   0  0  0  0  0  0
  -30.9249  -21.0390   21.9308 C   0  0  0  0  0  0
  -30.8675  -25.1755   19.7361 C   0  0  0  0  0  0
  -31.1686  -23.6928   20.0159 C   0  0  0  0  0  0
  -29.6667  -24.4964   21.6992 C   0  0  0  0  0  0
  -30.3369  -25.7210   21.0677 C   0  0  2  0  0  0
  -29.8769  -22.0141   21.3768 C   0  0  0  0  0  0
  -29.4307  -26.9622   20.9604 C   0  0  0  0  0  0
  -30.0661  -15.3647   21.3153 N   0  0  0  0  0  0
  -30.5149  -23.3523   21.3040 N   0  3  1  0  0  0
  -31.9085  -21.4990   22.5261 O   0  0  0  0  0  0
  -33.0732  -19.2170   21.3997 F   0  0  0  0  0  0
  -31.4727  -12.3900   19.1121 H   0  0  0  0  0  0
  -30.3314  -11.2725   19.7982 H   0  0  0  0  0  0
  -29.7332  -11.7763   17.4207 H   0  0  0  0  0  0
  -29.6737  -13.4869   17.7684 H   0  0  0  0  0  0
  -27.8231  -11.3114   18.8019 H   0  0  0  0  0  0
  -27.3698  -12.6467   17.7799 H   0  0  0  0  0  0
  -27.7193  -14.2521   19.5904 H   0  0  0  0  0  0
  -28.6744  -11.9108   21.3055 H   0  0  0  0  0  0
  -28.4594  -13.5266   21.8875 H   0  0  0  0  0  0
  -25.2750   -9.5688   22.4755 H   0  0  0  0  0  0
  -24.0004   -7.4633   22.7459 H   0  0  0  0  0  0
  -21.0843   -8.8754   19.8943 H   0  0  0  0  0  0
  -22.3690  -10.9657   19.6162 H   0  0  0  0  0  0
  -21.1988   -7.6150   23.9732 H   0  0  0  0  0  0
  -21.1489   -6.0514   25.9083 H   0  0  0  0  0  0
  -22.0595   -2.7619   23.2833 H   0  0  0  0  0  0
  -22.4062  -11.9912   22.4810 H   0  0  0  0  0  0
  -21.1107  -13.1293   22.2546 H   0  0  0  0  0  0
  -24.6530  -15.8335   20.4896 H   0  0  0  0  0  0
  -26.2718  -15.6256   20.0524 H   0  0  0  0  0  0
  -26.7079  -32.5584   23.1207 H   0  0  0  0  0  0
  -25.0094  -33.9798   25.0551 H   0  0  0  0  0  0
  -22.6786  -31.3080   21.4104 H   0  0  0  0  0  0
  -23.3759  -35.9646   23.3300 H   0  0  0  0  0  0
  -24.3599  -36.8906   22.2054 H   0  0  0  0  0  0
  -23.7254  -37.6526   23.6618 H   0  0  0  0  0  0
  -26.0126  -31.6163   20.5837 H   0  0  0  0  0  0
  -26.8099  -30.9208   21.9652 H   0  0  0  0  0  0
  -28.0763  -29.1784   21.1769 H   0  0  0  0  0  0
  -26.1101  -25.9985   19.0134 H   0  0  0  0  0  0
  -23.9953  -27.2938   19.0340 H   0  0  0  0  0  0
  -23.7049  -30.5950   19.3996 H   0  0  0  0  0  0
  -22.7295  -29.2407   19.8698 H   0  0  0  0  0  0
  -25.1282  -36.1971   25.0868 H   0  0  0  0  0  0
  -20.9948  -28.3197   24.1457 H   0  0  0  0  0  0
  -20.5656  -26.2253   23.3607 H   0  0  0  0  0  0
  -21.6632  -26.7426   22.1225 H   0  0  0  0  0  0
  -19.6922  -25.6311   21.1208 H   0  0  0  0  0  0
  -19.6710  -27.3210   20.6774 H   0  0  0  0  0  0
  -17.4206  -26.6685   21.3995 H   0  0  0  0  0  0
  -18.0306  -26.0067   22.8995 H   0  0  0  0  0  0
  -19.7927  -30.7244   24.2300 H   0  0  0  0  0  0
  -17.5001  -31.6248   24.5172 H   0  0  0  0  0  0
  -15.5333  -30.2992   23.7637 H   0  0  0  0  0  0
  -15.8660  -28.0845   22.7003 H   0  0  0  0  0  0
  -24.5963  -30.6950   25.7839 H   0  0  0  0  0  0
  -24.8919  -32.2803   26.4905 H   0  0  0  0  0  0
  -25.8165  -30.8861   27.0231 H   0  0  0  0  0  0
  -26.2766  -29.6809   24.1079 H   0  0  0  0  0  0
  -27.4100  -29.7217   25.4409 H   0  0  0  0  0  0
  -27.8585  -30.4383   23.9084 H   0  0  0  0  0  0
  -27.2697  -33.3542   26.2073 H   0  0  0  0  0  0
  -28.3854  -32.6799   25.0264 H   0  0  0  0  0  0
  -28.0726  -31.8327   26.5347 H   0  0  0  0  0  0
  -28.2591  -38.0099   24.7488 H   0  0  0  0  0  0
  -28.1090  -36.2629   24.6305 H   0  0  0  0  0  0
  -27.2307  -37.1466   25.8870 H   0  0  0  0  0  0
  -20.9247  -29.8740   21.6960 H   0  0  0  0  0  0
  -26.0191  -38.2879   24.1412 H   0  0  0  0  0  0
  -28.5497  -19.6338   21.9617 H   0  0  0  0  0  0
  -28.2279  -17.2195   21.7096 H   0  0  0  0  0  0
  -32.4997  -16.7165   21.1908 H   0  0  0  0  0  0
  -30.1064  -25.2433   18.9586 H   0  0  0  0  0  0
  -31.7425  -25.7201   19.3779 H   0  0  0  0  0  0
  -32.2428  -23.5284   20.1114 H   0  0  0  0  0  0
  -30.8096  -23.0746   19.1906 H   0  0  0  0  0  0
  -28.6602  -24.3664   21.2969 H   0  0  0  0  0  0
  -29.5807  -24.5846   22.7837 H   0  0  0  0  0  0
  -31.1957  -25.9841   21.6877 H   0  0  0  0  0  0
  -29.0347  -22.0364   22.0690 H   0  0  0  0  0  0
  -29.5043  -21.6825   20.4071 H   0  0  0  0  0  0
  -30.0041  -27.8241   20.6131 H   0  0  0  0  0  0
  -29.0407  -27.1993   21.9532 H   0  0  0  0  0  0
  -29.1706  -15.0594   21.6639 H   0  0  0  0  0  0
  -31.2635  -23.2787   21.9844 H   0  0  0  0  0  0
  1 25  1  0  0  0
  1 30  2  0  0  0
  1 84  1  0  0  0
  2  3  1  0  0  0
  2 25  1  0  0  0
  2 88  1  0  0  0
  2 89  1  0  0  0
  3  4  1  0  0  0
  3 90  1  0  0  0
  3 91  1  0  0  0
  4  5  1  0  0  0
  4 92  1  0  0  0
  4 93  1  0  0  0
  5  6  1  0  0  0
  5 26  1  0  0  0
  5 94  1  0  0  0
  6 25  1  0  0  0
  6 95  1  0  0  0
  6 96  1  0  0  0
  7  8  2  0  0  0
  7 26  1  0  0  0
  7 29  1  0  0  0
  8  9  1  0  0  0
  8 22  1  0  0  0
  9 10  1  0  0  0
  9 27  2  0  0  0
 10 11  2  0  0  0
 10 15  1  0  0  0
 11 12  1  0  0  0
 11 97  1  0  0  0
 12 13  2  0  0  0
 12 98  1  0  0  0
 13 14  1  0  0  0
 13 31  1  0  0  0
 14 15  2  0  0  0
 14 99  1  0  0  0
 15100  1  0  0  0
 16 17  2  0  0  0
 16 21  1  0  0  0
 16 31  1  0  0  0
 17 18  1  0  0  0
 17101  1  0  0  0
 18 19  2  0  0  0
 18102  1  0  0  0
 19 20  1  0  0  0
 19 24  1  0  0  0
 20 21  2  0  0  0
 20103  1  0  0  0
 21 23  1  0  0  0
 22 28  1  0  0  0
 22 32  2  0  0  0
 26 27  1  0  0  0
 28104  1  0  0  0
 28105  1  0  0  0
 29106  1  0  0  0
 29107  1  0  0  0
 33 34  1  0  0  0
 33 66  1  0  0  0
 33 70  2  0  0  0
 34 36  1  0  0  0
 34 59  1  0  0  0
 34108  1  0  0  0
 35 44  2  0  0  0
 35 45  1  0  0  0
 35 68  1  0  0  0
 36 56  1  0  0  0
 36109  1  0  0  0
 37 39  1  0  0  0
 37 47  1  0  0  0
 37 66  1  0  0  0
 37110  1  0  0  0
 38 43  2  0  0  0
 38 46  1  0  0  0
 38 47  1  0  0  0
 39 64  1  0  0  0
 39 67  2  0  0  0
 40 52  1  0  0  0
 40 53  2  0  0  0
 40 58  1  0  0  0
 41111  1  0  0  0
 41112  1  0  0  0
 41113  1  0  0  0
 41 48  1  0  0  0
 42 43  1  0  0  0
 42 66  1  0  0  0
 42114  1  0  0  0
 42115  1  0  0  0
 43 44  1  0  0  0
 44116  1  0  0  0
 45 46  2  0  0  0
 45117  1  0  0  0
 46118  1  0  0  0
 47119  1  0  0  0
 47120  1  0  0  0
 48 56  1  0  0  0
 48 65  1  0  0  0
 48121  1  0  0  0
 49 50  1  0  0  0
 49 53  1  0  0  0
 49 64  1  0  0  0
 49122  1  0  0  0
 50 51  1  0  0  0
 50123  1  0  0  0
 50124  1  0  0  0
 51 52  1  0  0  0
 51125  1  0  0  0
 51126  1  0  0  0
 52127  1  0  0  0
 52128  1  0  0  0
 53 54  1  0  0  0
 54 55  2  0  0  0
 54129  1  0  0  0
 55 57  1  0  0  0
 55130  1  0  0  0
 56 69  2  0  0  0
 57 58  2  0  0  0
 57131  1  0  0  0
 58132  1  0  0  0
 59 60  1  0  0  0
 59 61  1  0  0  0
 59 62  1  0  0  0
 60133  1  0  0  0
 60134  1  0  0  0
 60135  1  0  0  0
 61136  1  0  0  0
 61137  1  0  0  0
 61138  1  0  0  0
 62139  1  0  0  0
 62140  1  0  0  0
 62141  1  0  0  0
 63 65  1  0  0  0
 63142  1  0  0  0
 63143  1  0  0  0
 63144  1  0  0  0
 64145  1  0  0  0
 65146  1  0  0  0
 68 83  1  0  0  0
 71 72  2  0  0  0
 71 74  1  0  0  0
 71147  1  0  0  0
 72 75  1  0  0  0
 72148  1  0  0  0
 73 75  2  0  0  0
 73 76  1  0  0  0
 73149  1  0  0  0
 74 76  2  0  0  0
 74 77  1  0  0  0
 75 84  1  0  0  0
 76 87  1  0  0  0
 77 82  1  0  0  0
 77 86  2  0  0  0
 78 79  1  0  0  0
 78 81  1  0  0  0
 78150  1  0  0  0
 78151  1  0  0  0
 79 85  1  0  0  0
 79152  1  0  0  0
 79153  1  0  0  0
 80 81  1  0  0  0
 80 85  1  0  0  0
 80154  1  0  0  0
 80155  1  0  0  0
 81 83  1  0  0  0
 81156  1  0  0  0
 82157  1  0  0  0
 82158  1  0  0  0
 82 85  1  0  0  0
 83159  1  0  0  0
 83160  1  0  0  0
 84161  1  0  0  0
 85162  1  0  0  0
M  CHG  1  85   1
M  ISO  4   1 100  68 101  83 101  84 100
M  END
> <chiral flag>
0

> <version>
0

> <s_m_source_file>
/data/baiqing/PycharmProjects/Reinvent-master-3.2/result/LINK_invent/BTK/process_docking_weight1_custom_product_contain_oxygen_bond_distance_aromatic_linkinvent_7_9_3/rearranged_h_0106.sdf

> <i_m_source_file_index>
62

> <r_mmod_Potential_Energy-OPLS-2005>
-145.464691162109

> <r_mmod_Stretch_Energy-OPLS-2005>
34.4238624572754

> <r_mmod_Bend_Energy-OPLS-2005>
122.469467163086

> <r_mmod_Torsional_Energy-OPLS-2005>
308.292633056641

> <r_mmod_Improper_Torsional_Energy-OPLS-2005>
3.12731122970581

> <r_mmod_Van_der_Waal_Energy-OPLS-2005>
161.271545410156

> <r_mmod_Electrostatic_Energy-OPLS-2005>
-334.995361328125

> <r_mmod_Solvation_Energy-OPLS-2005>
-447.721618652344

> <b_mmod_Minimization_Converged-OPLS-2005>
0

> <r_mmod_RMS_Derivative-OPLS-2005>
2.48928022384644

$$$$
62
                    3D
 Structure written by MMmdl.
156164  0  0  1  0            999 V2000
  -30.6183  -14.7509   20.5386 C   0  0  0  0  0  0
  -30.4264  -12.4738   19.4997 C   0  0  0  0  0  0
  -29.5102  -12.5270   18.2582 C   0  0  0  0  0  0
  -28.0409  -12.3322   18.6711 C   0  0  0  0  0  0
  -27.6434  -13.2299   19.8720 C   0  0  2  0  0  0
  -28.6786  -13.1464   21.0166 C   0  0  0  0  0  0
  -25.2444  -13.8156   20.5637 C   0  0  0  0  0  0
  -24.1759  -13.0408   20.9225 C   0  0  0  0  0  0
  -24.6370  -11.6901   20.8781 C   0  0  0  0  0  0
  -23.9056  -10.4272   21.0429 C   0  0  0  0  0  0
  -24.3601   -9.4186   21.9201 C   0  0  0  0  0  0
  -23.6279   -8.2220   22.0758 C   0  0  0  0  0  0
  -22.4264   -8.0263   21.3546 C   0  0  0  0  0  0
  -21.9903   -9.0242   20.4650 C   0  0  0  0  0  0
  -22.7233  -10.2122   20.3067 C   0  0  0  0  0  0
  -21.6845   -6.0714   22.5280 C   0  0  0  0  0  0
  -21.4007   -6.5625   23.8213 C   0  0  0  0  0  0
  -21.3660   -5.6787   24.9182 C   0  0  0  0  0  0
  -21.6051   -4.3048   24.7243 C   0  0  0  0  0  0
  -21.8819   -3.8130   23.4364 C   0  0  0  0  0  0
  -21.9191   -4.6941   22.3412 C   0  0  0  0  0  0
  -22.7784  -13.5202   21.1903 C   0  0  0  0  0  0
  -22.1656   -4.2124   21.0989 F   0  0  0  0  0  0
  -21.5639   -3.4531   25.7755 F   0  0  0  0  0  0
  -29.9854  -13.5212   20.4587 N   0  0  0  0  0  0
  -26.2913  -12.9388   20.3347 N   0  0  0  0  0  0
  -25.9310  -11.6534   20.5822 N   0  0  0  0  0  0
  -22.0439  -12.8182   22.0464 N   0  0  0  0  0  0
  -25.4055  -15.1835   20.3855 N   0  0  0  0  0  0
  -31.7069  -14.9071   19.9728 O   0  0  0  0  0  0
  -21.6635   -6.8853   21.4240 O   0  0  0  0  0  0
  -22.3458  -14.5498   20.6757 O   0  0  0  0  0  0
  -24.6274  -31.8523   23.1974 C   0  0  0  0  0  0
  -25.9097  -32.4722   23.8308 C   0  0  1  0  0  0
  -27.2202  -27.2344   20.1481 C   0  0  0  0  0  0
  -25.5921  -33.8541   24.2243 N   0  0  0  0  0  0
  -23.4269  -30.4662   21.5420 C   0  0  2  0  0  0
  -24.8787  -28.9091   20.1091 C   0  0  0  0  0  0
  -22.7494  -29.4543   22.4941 C   0  0  0  0  0  0
  -18.0281  -28.1349   22.8470 C   0  0  0  0  0  0
  -24.1505  -36.7269   23.2637 C   0  0  0  0  0  0
  -25.9737  -30.7553   21.3847 C   0  0  0  0  0  0
  -26.0456  -29.3753   20.7264 C   0  0  0  0  0  0
  -27.2142  -28.5491   20.7344 C   0  0  0  0  0  0
  -26.0347  -26.8370   19.4951 C   0  0  0  0  0  0
  -24.8817  -27.6518   19.4795 C   0  0  0  0  0  0
  -23.6458  -29.7926   20.1594 C   0  0  0  0  0  0
  -25.4142  -36.3055   24.0308 C   0  0  1  0  0  0
  -20.5894  -28.3656   23.1298 C   0  0  2  0  0  0
  -20.6795  -26.9381   22.5425 C   0  0  0  0  0  0
  -19.5770  -26.6369   21.5221 C   0  0  0  0  0  0
  -18.1941  -26.7890   22.1613 C   0  0  0  0  0  0
  -19.1536  -28.8824   23.2855 C   0  0  0  0  0  0
  -18.9462  -30.1440   23.8836 C   0  0  0  0  0  0
  -17.6471  -30.6562   24.0545 C   0  0  0  0  0  0
  -25.9074  -34.9417   23.5086 C   0  0  0  0  0  0
  -16.5354  -29.9059   23.6338 C   0  0  0  0  0  0
  -16.7274  -28.6476   23.0349 C   0  0  0  0  0  0
  -26.4485  -31.6533   25.0668 C   0  0  0  0  0  0
  -25.3692  -31.3687   26.1371 C   0  0  0  0  0  0
  -27.0330  -30.2931   24.6166 C   0  0  0  0  0  0
  -27.6046  -32.4299   25.7409 C   0  0  0  0  0  0
  -27.5602  -37.1789   24.8459 C   0  0  0  0  0  0
  -21.4209  -29.2985   22.3676 N   0  0  0  0  0  0
  -26.4314  -37.3757   23.9395 N   0  0  0  0  0  0
  -24.6942  -31.0444   22.0965 N   0  0  0  0  0  0
  -23.4182  -28.8110   23.3070 O   0  0  0  0  0  0
  -28.3274  -26.3608   20.2686 O   0  0  0  0  0  0
  -26.5665  -34.8866   22.4668 O   0  0  0  0  0  0
  -23.5430  -32.1400   23.7261 O   0  0  0  0  0  0
  -27.8900  -17.1223   21.4317 C   0  0  0  0  0  0
  -29.6995  -18.5438   20.6951 C   0  0  0  0  0  0
  -27.4954  -19.5194   21.0833 C   0  0  0  0  0  0
  -29.2567  -17.2035   21.0864 C   0  0  0  0  0  0
  -27.0193  -18.2327   21.4488 C   0  0  0  0  0  0
  -28.8347  -19.7322   20.6894 C   0  0  0  0  0  0
  -30.0823  -15.9240   21.4895 C   0  0  0  0  0  0
  -24.8857  -19.0663   22.2012 C   0  0  0  0  0  0
  -27.9226  -23.5784   20.4837 C   0  0  0  0  0  0
  -28.4216  -24.9454   19.7418 C   0  0  0  0  0  0
  -28.8634  -22.3236   20.9774 C   0  0  0  0  0  0
  -30.3358  -15.7955   22.7265 N   0  0  0  0  0  0
  -25.7242  -17.9734   21.8480 O   0  0  0  0  0  0
  -29.2095  -21.0476   20.2497 O   0  0  0  0  0  0
  -31.4694  -12.5920   19.2045 H   0  0  0  0  0  0
  -30.3708  -11.4902   19.9694 H   0  0  0  0  0  0
  -29.8010  -11.7567   17.5436 H   0  0  0  0  0  0
  -29.6307  -13.4847   17.7502 H   0  0  0  0  0  0
  -27.9170  -11.2828   18.9432 H   0  0  0  0  0  0
  -27.3764  -12.5083   17.8252 H   0  0  0  0  0  0
  -27.6478  -14.2572   19.5067 H   0  0  0  0  0  0
  -28.7168  -12.1370   21.4292 H   0  0  0  0  0  0
  -28.3881  -13.7913   21.8447 H   0  0  0  0  0  0
  -25.2736   -9.5666   22.4787 H   0  0  0  0  0  0
  -23.9992   -7.4604   22.7457 H   0  0  0  0  0  0
  -21.0844   -8.8765   19.8937 H   0  0  0  0  0  0
  -22.3697  -10.9670   19.6183 H   0  0  0  0  0  0
  -21.1986   -7.6127   23.9716 H   0  0  0  0  0  0
  -21.1490   -6.0509   25.9087 H   0  0  0  0  0  0
  -22.0596   -2.7587   23.2880 H   0  0  0  0  0  0
  -22.4061  -11.9840   22.4832 H   0  0  0  0  0  0
  -21.1064  -13.1210   22.2699 H   0  0  0  0  0  0
  -24.6538  -15.8451   20.5472 H   0  0  0  0  0  0
  -26.2476  -15.6279   20.0452 H   0  0  0  0  0  0
  -26.7117  -32.5333   23.1007 H   0  0  0  0  0  0
  -25.0007  -33.9707   25.0342 H   0  0  0  0  0  0
  -22.7171  -31.2826   21.3937 H   0  0  0  0  0  0
  -23.3765  -35.9602   23.3292 H   0  0  0  0  0  0
  -24.3576  -36.8924   22.2051 H   0  0  0  0  0  0
  -23.7272  -37.6460   23.6684 H   0  0  0  0  0  0
  -26.1224  -31.5174   20.6193 H   0  0  0  0  0  0
  -26.8488  -30.8042   22.0212 H   0  0  0  0  0  0
  -28.1045  -28.8965   21.2403 H   0  0  0  0  0  0
  -25.9723  -25.8678   19.0244 H   0  0  0  0  0  0
  -23.9864  -27.2892   18.9932 H   0  0  0  0  0  0
  -23.7594  -30.5628   19.3958 H   0  0  0  0  0  0
  -22.7676  -29.2150   19.8615 H   0  0  0  0  0  0
  -25.1337  -36.1913   25.0803 H   0  0  0  0  0  0
  -20.9942  -28.3242   24.1442 H   0  0  0  0  0  0
  -20.5788  -26.2232   23.3608 H   0  0  0  0  0  0
  -21.6650  -26.7488   22.1162 H   0  0  0  0  0  0
  -19.6947  -25.6302   21.1210 H   0  0  0  0  0  0
  -19.6697  -27.3192   20.6759 H   0  0  0  0  0  0
  -17.4234  -26.6630   21.3990 H   0  0  0  0  0  0
  -18.0309  -26.0027   22.8994 H   0  0  0  0  0  0
  -19.7951  -30.7265   24.2148 H   0  0  0  0  0  0
  -17.5036  -31.6223   24.5169 H   0  0  0  0  0  0
  -15.5355  -30.2950   23.7705 H   0  0  0  0  0  0
  -15.8660  -28.0797   22.7104 H   0  0  0  0  0  0
  -24.5879  -30.7016   25.7691 H   0  0  0  0  0  0
  -24.8827  -32.2846   26.4727 H   0  0  0  0  0  0
  -25.7992  -30.8893   27.0173 H   0  0  0  0  0  0
  -26.2907  -29.6632   24.1229 H   0  0  0  0  0  0
  -27.4043  -29.7220   25.4687 H   0  0  0  0  0  0
  -27.8775  -30.4168   23.9380 H   0  0  0  0  0  0
  -27.2659  -33.3635   26.1910 H   0  0  0  0  0  0
  -28.3857  -32.6832   25.0218 H   0  0  0  0  0  0
  -28.0678  -31.8450   26.5356 H   0  0  0  0  0  0
  -28.2621  -38.0099   24.7547 H   0  0  0  0  0  0
  -28.1126  -36.2630   24.6283 H   0  0  0  0  0  0
  -27.2282  -37.1415   25.8853 H   0  0  0  0  0  0
  -20.9419  -29.8626   21.6794 H   0  0  0  0  0  0
  -26.0183  -38.2820   24.1428 H   0  0  0  0  0  0
  -27.4977  -16.1770   21.7833 H   0  0  0  0  0  0
  -30.7452  -18.6694   20.4522 H   0  0  0  0  0  0
  -26.8220  -20.3627   21.0686 H   0  0  0  0  0  0
  -23.9489  -18.6803   22.6075 H   0  0  0  0  0  0
  -24.6347  -19.6837   21.3381 H   0  0  0  0  0  0
  -25.3484  -19.6855   22.9713 H   0  0  0  0  0  0
  -27.0974  -23.1662   19.9019 H   0  0  0  0  0  0
  -27.4286  -23.9340   21.3877 H   0  0  0  0  0  0
  -28.0024  -24.9513   18.7360 H   0  0  0  0  0  0
  -29.4872  -24.8040   19.5656 H   0  0  0  0  0  0
  -28.4509  -22.0034   21.9346 H   0  0  0  0  0  0
  -29.8235  -22.7574   21.2566 H   0  0  0  0  0  0
  -29.9610  -16.5714   23.2596 H   0  0  0  0  0  0
  1 25  1  0  0  0
  1 30  2  0  0  0
  1 77  1  0  0  0
  2  3  1  0  0  0
  2 25  1  0  0  0
  2 85  1  0  0  0
  2 86  1  0  0  0
  3  4  1  0  0  0
  3 87  1  0  0  0
  3 88  1  0  0  0
  4  5  1  0  0  0
  4 89  1  0  0  0
  4 90  1  0  0  0
  5  6  1  0  0  0
  5 26  1  0  0  0
  5 91  1  0  0  0
  6 25  1  0  0  0
  6 92  1  0  0  0
  6 93  1  0  0  0
  7  8  2  0  0  0
  7 26  1  0  0  0
  7 29  1  0  0  0
  8  9  1  0  0  0
  8 22  1  0  0  0
  9 10  1  0  0  0
  9 27  2  0  0  0
 10 11  2  0  0  0
 10 15  1  0  0  0
 11 12  1  0  0  0
 11 94  1  0  0  0
 12 13  2  0  0  0
 12 95  1  0  0  0
 13 14  1  0  0  0
 13 31  1  0  0  0
 14 15  2  0  0  0
 14 96  1  0  0  0
 15 97  1  0  0  0
 16 17  2  0  0  0
 16 21  1  0  0  0
 16 31  1  0  0  0
 17 18  1  0  0  0
 17 98  1  0  0  0
 18 19  2  0  0  0
 18 99  1  0  0  0
 19 20  1  0  0  0
 19 24  1  0  0  0
 20 21  2  0  0  0
 20100  1  0  0  0
 21 23  1  0  0  0
 22 28  1  0  0  0
 22 32  2  0  0  0
 26 27  1  0  0  0
 28101  1  0  0  0
 28102  1  0  0  0
 29103  1  0  0  0
 29104  1  0  0  0
 33 34  1  0  0  0
 33 66  1  0  0  0
 33 70  2  0  0  0
 34 36  1  0  0  0
 34 59  1  0  0  0
 34105  1  0  0  0
 35 44  2  0  0  0
 35 45  1  0  0  0
 35 68  1  0  0  0
 36 56  1  0  0  0
 36106  1  0  0  0
 37 39  1  0  0  0
 37 47  1  0  0  0
 37 66  1  0  0  0
 37107  1  0  0  0
 38 43  2  0  0  0
 38 46  1  0  0  0
 38 47  1  0  0  0
 39 64  1  0  0  0
 39 67  2  0  0  0
 40 52  1  0  0  0
 40 53  2  0  0  0
 40 58  1  0  0  0
 41108  1  0  0  0
 41109  1  0  0  0
 41110  1  0  0  0
 41 48  1  0  0  0
 42 43  1  0  0  0
 42 66  1  0  0  0
 42111  1  0  0  0
 42112  1  0  0  0
 43 44  1  0  0  0
 44113  1  0  0  0
 45 46  2  0  0  0
 45114  1  0  0  0
 46115  1  0  0  0
 47116  1  0  0  0
 47117  1  0  0  0
 48 56  1  0  0  0
 48 65  1  0  0  0
 48118  1  0  0  0
 49 50  1  0  0  0
 49 53  1  0  0  0
 49 64  1  0  0  0
 49119  1  0  0  0
 50 51  1  0  0  0
 50120  1  0  0  0
 50121  1  0  0  0
 51 52  1  0  0  0
 51122  1  0  0  0
 51123  1  0  0  0
 52124  1  0  0  0
 52125  1  0  0  0
 53 54  1  0  0  0
 54 55  2  0  0  0
 54126  1  0  0  0
 55 57  1  0  0  0
 55127  1  0  0  0
 56 69  2  0  0  0
 57 58  2  0  0  0
 57128  1  0  0  0
 58129  1  0  0  0
 59 60  1  0  0  0
 59 61  1  0  0  0
 59 62  1  0  0  0
 60130  1  0  0  0
 60131  1  0  0  0
 60132  1  0  0  0
 61133  1  0  0  0
 61134  1  0  0  0
 61135  1  0  0  0
 62136  1  0  0  0
 62137  1  0  0  0
 62138  1  0  0  0
 63 65  1  0  0  0
 63139  1  0  0  0
 63140  1  0  0  0
 63141  1  0  0  0
 64142  1  0  0  0
 65143  1  0  0  0
 68 80  1  0  0  0
 71 74  2  0  0  0
 71 75  1  0  0  0
 71144  1  0  0  0
 72 74  1  0  0  0
 72 76  2  0  0  0
 72145  1  0  0  0
 73 75  2  0  0  0
 73 76  1  0  0  0
 73146  1  0  0  0
 74 77  1  0  0  0
 75 83  1  0  0  0
 76 84  1  0  0  0
 77 82  2  0  0  0
 78 83  1  0  0  0
 78147  1  0  0  0
 78148  1  0  0  0
 78149  1  0  0  0
 79 80  1  0  0  0
 79 81  1  0  0  0
 79150  1  0  0  0
 79151  1  0  0  0
 80152  1  0  0  0
 80153  1  0  0  0
 81 84  1  0  0  0
 81154  1  0  0  0
 81155  1  0  0  0
 82156  1  0  0  0
M  ISO  4   1 100  68 101  77 100  80 101
M  END
> <chiral flag>
0

> <version>
0

> <s_m_source_file>
/data/baiqing/PycharmProjects/Reinvent-master-3.2/result/LINK_invent/BTK/process_docking_weight1_custom_product_contain_oxygen_bond_distance_aromatic_linkinvent_7_9_3/rearranged_h_0106.sdf

> <i_m_source_file_index>
63

> <r_mmod_Potential_Energy-OPLS-2005>
474.862091064453

> <r_mmod_Stretch_Energy-OPLS-2005>
160.807479858398

> <r_mmod_Bend_Energy-OPLS-2005>
273.994567871094

> <r_mmod_Torsional_Energy-OPLS-2005>
265.721557617188

> <r_mmod_Improper_Torsional_Energy-OPLS-2005>
6.03783798217773

> <r_mmod_Van_der_Waal_Energy-OPLS-2005>
130.589019775391

> <r_mmod_Electrostatic_Energy-OPLS-2005>
-250.596878051758

> <r_mmod_Solvation_Energy-OPLS-2005>
-206.650268554688

> <b_mmod_Minimization_Converged-OPLS-2005>
0

> <r_mmod_RMS_Derivative-OPLS-2005>
2.99479818344116

$$$$
63
                    3D
 Structure written by MMmdl.
155163  0  0  1  0            999 V2000
  -30.7499  -14.4719   20.5679 C   0  0  0  0  0  0
  -30.4097  -12.3089   19.4372 C   0  0  0  0  0  0
  -29.4934  -12.4985   18.2141 C   0  0  0  0  0  0
  -28.0142  -12.3634   18.6225 C   0  0  0  0  0  0
  -27.6549  -13.2166   19.8688 C   0  0  2  0  0  0
  -28.6984  -13.0440   20.9973 C   0  0  0  0  0  0
  -25.2550  -13.8184   20.5699 C   0  0  0  0  0  0
  -24.1827  -13.0445   20.9205 C   0  0  0  0  0  0
  -24.6406  -11.6917   20.8759 C   0  0  0  0  0  0
  -23.9081  -10.4302   21.0421 C   0  0  0  0  0  0
  -24.3631   -9.4204   21.9189 C   0  0  0  0  0  0
  -23.6302   -8.2239   22.0747 C   0  0  0  0  0  0
  -22.4277   -8.0296   21.3546 C   0  0  0  0  0  0
  -21.9926   -9.0270   20.4642 C   0  0  0  0  0  0
  -22.7257  -10.2146   20.3059 C   0  0  0  0  0  0
  -21.6852   -6.0747   22.5284 C   0  0  0  0  0  0
  -21.4012   -6.5647   23.8219 C   0  0  0  0  0  0
  -21.3657   -5.6794   24.9181 C   0  0  0  0  0  0
  -21.6042   -4.3056   24.7228 C   0  0  0  0  0  0
  -21.8817   -3.8154   23.4346 C   0  0  0  0  0  0
  -21.9188   -4.6976   22.3405 C   0  0  0  0  0  0
  -22.7845  -13.5231   21.1861 C   0  0  0  0  0  0
  -22.1655   -4.2161   21.0982 F   0  0  0  0  0  0
  -21.5633   -3.4542   25.7739 F   0  0  0  0  0  0
  -30.0284  -13.3236   20.4336 N   0  0  0  0  0  0
  -26.2991  -12.9374   20.3354 N   0  0  0  0  0  0
  -25.9336  -11.6526   20.5786 N   0  0  0  0  0  0
  -22.0488  -12.8226   22.0419 N   0  0  0  0  0  0
  -25.4230  -15.1899   20.4089 N   0  0  0  0  0  0
  -31.9059  -14.5505   20.1433 O   0  0  0  0  0  0
  -21.6634   -6.8894   21.4246 O   0  0  0  0  0  0
  -22.3532  -14.5533   20.6701 O   0  0  0  0  0  0
  -24.6170  -31.8693   23.2129 C   0  0  0  0  0  0
  -25.9058  -32.4831   23.8420 C   0  0  1  0  0  0
  -27.2233  -27.4202   20.0979 C   0  0  0  0  0  0
  -25.5916  -33.8632   24.2350 N   0  0  0  0  0  0
  -23.4050  -30.4977   21.5535 C   0  0  2  0  0  0
  -24.8491  -28.9738   20.1106 C   0  0  0  0  0  0
  -22.7417  -29.4679   22.4979 C   0  0  0  0  0  0
  -18.0281  -28.1369   22.8488 C   0  0  0  0  0  0
  -24.1491  -36.7321   23.2638 C   0  0  0  0  0  0
  -25.9384  -30.8314   21.3717 C   0  0  0  0  0  0
  -26.0128  -29.4683   20.7136 C   0  0  0  0  0  0
  -27.2024  -28.6992   20.7066 C   0  0  0  0  0  0
  -26.0420  -26.9698   19.4542 C   0  0  0  0  0  0
  -24.8607  -27.7252   19.4758 C   0  0  0  0  0  0
  -23.6130  -29.8398   20.1658 C   0  0  0  0  0  0
  -25.4110  -36.3121   24.0344 C   0  0  1  0  0  0
  -20.5866  -28.3683   23.1305 C   0  0  2  0  0  0
  -20.6779  -26.9410   22.5425 C   0  0  0  0  0  0
  -19.5765  -26.6374   21.5222 C   0  0  0  0  0  0
  -18.1942  -26.7916   22.1624 C   0  0  0  0  0  0
  -19.1519  -28.8842   23.2895 C   0  0  0  0  0  0
  -18.9436  -30.1448   23.8902 C   0  0  0  0  0  0
  -17.6430  -30.6574   24.0551 C   0  0  0  0  0  0
  -25.9036  -34.9483   23.5138 C   0  0  0  0  0  0
  -16.5336  -29.9060   23.6301 C   0  0  0  0  0  0
  -16.7264  -28.6476   23.0341 C   0  0  0  0  0  0
  -26.4469  -31.6608   25.0749 C   0  0  0  0  0  0
  -25.3732  -31.3715   26.1498 C   0  0  0  0  0  0
  -27.0304  -30.3050   24.6136 C   0  0  0  0  0  0
  -27.6055  -32.4318   25.7505 C   0  0  0  0  0  0
  -27.5585  -37.1820   24.8468 C   0  0  0  0  0  0
  -21.4140  -29.3056   22.3706 N   0  0  0  0  0  0
  -26.4299  -37.3801   23.9407 N   0  0  0  0  0  0
  -24.6714  -31.0800   22.1033 N   0  0  0  0  0  0
  -23.4180  -28.8209   23.3016 O   0  0  0  0  0  0
  -28.3636  -26.6305   20.1657 O   0  0  0  0  0  0
  -26.5591  -34.8922   22.4693 O   0  0  0  0  0  0
  -23.5361  -32.1445   23.7514 O   0  0  0  0  0  0
  -28.5302  -17.7223   19.9053 C   0  0  0  0  0  0
  -27.9856  -20.0889   19.7751 C   0  0  0  0  0  0
  -29.6393  -17.9835   20.7440 C   0  0  0  0  0  0
  -29.8983  -19.3544   21.1024 C   0  0  0  0  0  0
  -29.0958  -20.4140   20.5923 C   0  0  0  0  0  0
  -27.7060  -18.7564   19.4396 C   0  0  0  0  0  0
  -30.5703  -16.8214   21.0763 C   0  0  0  0  0  0
  -29.1503  -24.2248   20.5942 C   0  0  0  0  0  0
  -28.1464  -25.2175   19.9647 C   0  0  0  0  0  0
  -28.6807  -22.7781   20.2935 C   0  0  0  0  0  0
  -30.9467  -19.7450   21.9407 N   0  0  0  0  0  0
  -30.0658  -15.5652   20.9749 N   0  0  0  0  0  0
  -31.7460  -17.0495   21.3923 O   0  0  0  0  0  0
  -29.4525  -21.7284   20.8949 O   0  0  0  0  0  0
  -26.3687  -18.3883   18.4130 Cl  0  0  0  0  0  0
  -31.4561  -12.3808   19.1362 H   0  0  0  0  0  0
  -30.2918  -11.3079   19.8556 H   0  0  0  0  0  0
  -29.7375  -11.7661   17.4438 H   0  0  0  0  0  0
  -29.6679  -13.4792   17.7686 H   0  0  0  0  0  0
  -27.8216  -11.3097   18.8266 H   0  0  0  0  0  0
  -27.3679  -12.6299   17.7850 H   0  0  0  0  0  0
  -27.6838  -14.2573   19.5476 H   0  0  0  0  0  0
  -28.6734  -12.0247   21.3852 H   0  0  0  0  0  0
  -28.4659  -13.6897   21.8457 H   0  0  0  0  0  0
  -25.2784   -9.5668   22.4765 H   0  0  0  0  0  0
  -24.0009   -7.4622   22.7460 H   0  0  0  0  0  0
  -21.0857   -8.8797   19.8950 H   0  0  0  0  0  0
  -22.3726  -10.9691   19.6169 H   0  0  0  0  0  0
  -21.2001   -7.6154   23.9730 H   0  0  0  0  0  0
  -21.1480   -6.0523   25.9083 H   0  0  0  0  0  0
  -22.0595   -2.7620   23.2843 H   0  0  0  0  0  0
  -22.4099  -11.9896   22.4829 H   0  0  0  0  0  0
  -21.1101  -13.1250   22.2608 H   0  0  0  0  0  0
  -24.6447  -15.8338   20.5023 H   0  0  0  0  0  0
  -26.2513  -15.6309   20.0370 H   0  0  0  0  0  0
  -26.7136  -32.5533   23.1195 H   0  0  0  0  0  0
  -25.0102  -33.9799   25.0518 H   0  0  0  0  0  0
  -22.6947  -31.3159   21.4194 H   0  0  0  0  0  0
  -23.3750  -35.9659   23.3320 H   0  0  0  0  0  0
  -24.3591  -36.8909   22.2049 H   0  0  0  0  0  0
  -23.7243  -37.6534   23.6629 H   0  0  0  0  0  0
  -26.0596  -31.5998   20.6065 H   0  0  0  0  0  0
  -26.8240  -30.8767   21.9941 H   0  0  0  0  0  0
  -28.0940  -29.0730   21.1913 H   0  0  0  0  0  0
  -25.9983  -26.0265   18.9297 H   0  0  0  0  0  0
  -23.9711  -27.3448   18.9936 H   0  0  0  0  0  0
  -23.7225  -30.6184   19.4105 H   0  0  0  0  0  0
  -22.7360  -29.2634   19.8651 H   0  0  0  0  0  0
  -25.1283  -36.2000   25.0839 H   0  0  0  0  0  0
  -20.9948  -28.3277   24.1433 H   0  0  0  0  0  0
  -20.5698  -26.2291   23.3621 H   0  0  0  0  0  0
  -21.6649  -26.7462   22.1210 H   0  0  0  0  0  0
  -19.6913  -25.6273   21.1271 H   0  0  0  0  0  0
  -19.6715  -27.3182   20.6750 H   0  0  0  0  0  0
  -17.4211  -26.6629   21.4030 H   0  0  0  0  0  0
  -18.0361  -26.0056   22.9017 H   0  0  0  0  0  0
  -19.7912  -30.7263   24.2270 H   0  0  0  0  0  0
  -17.4974  -31.6261   24.5140 H   0  0  0  0  0  0
  -15.5328  -30.2957   23.7597 H   0  0  0  0  0  0
  -15.8677  -28.0786   22.7038 H   0  0  0  0  0  0
  -24.5910  -30.7053   25.7840 H   0  0  0  0  0  0
  -24.8914  -32.2870   26.4943 H   0  0  0  0  0  0
  -25.8086  -30.8890   27.0258 H   0  0  0  0  0  0
  -26.2853  -29.6820   24.1172 H   0  0  0  0  0  0
  -27.4057  -29.7278   25.4597 H   0  0  0  0  0  0
  -27.8698  -30.4384   23.9309 H   0  0  0  0  0  0
  -27.2687  -33.3614   26.2110 H   0  0  0  0  0  0
  -28.3844  -32.6883   25.0310 H   0  0  0  0  0  0
  -28.0747  -31.8422   26.5393 H   0  0  0  0  0  0
  -28.2617  -38.0102   24.7501 H   0  0  0  0  0  0
  -28.1060  -36.2632   24.6307 H   0  0  0  0  0  0
  -27.2302  -37.1498   25.8871 H   0  0  0  0  0  0
  -20.9309  -29.8760   21.6900 H   0  0  0  0  0  0
  -26.0197  -38.2888   24.1379 H   0  0  0  0  0  0
  -28.3109  -16.7212   19.5672 H   0  0  0  0  0  0
  -27.3312  -20.8434   19.3678 H   0  0  0  0  0  0
  -29.1931  -24.3781   21.6725 H   0  0  0  0  0  0
  -30.1530  -24.3920   20.2016 H   0  0  0  0  0  0
  -27.1855  -24.9331   20.3980 H   0  0  0  0  0  0
  -28.0855  -25.0362   18.8909 H   0  0  0  0  0  0
  -28.6774  -22.6467   19.2094 H   0  0  0  0  0  0
  -27.6498  -22.6779   20.6382 H   0  0  0  0  0  0
  -31.2038  -20.7278   21.9109 H   0  0  0  0  0  0
  -31.7461  -19.1203   22.0123 H   0  0  0  0  0  0
  -29.0682  -15.4702   21.0420 H   0  0  0  0  0  0
  1 25  1  0  0  0
  1 30  2  0  0  0
  1 82  1  0  0  0
  2  3  1  0  0  0
  2 25  1  0  0  0
  2 86  1  0  0  0
  2 87  1  0  0  0
  3  4  1  0  0  0
  3 88  1  0  0  0
  3 89  1  0  0  0
  4  5  1  0  0  0
  4 90  1  0  0  0
  4 91  1  0  0  0
  5  6  1  0  0  0
  5 26  1  0  0  0
  5 92  1  0  0  0
  6 25  1  0  0  0
  6 93  1  0  0  0
  6 94  1  0  0  0
  7  8  2  0  0  0
  7 26  1  0  0  0
  7 29  1  0  0  0
  8  9  1  0  0  0
  8 22  1  0  0  0
  9 10  1  0  0  0
  9 27  2  0  0  0
 10 11  2  0  0  0
 10 15  1  0  0  0
 11 12  1  0  0  0
 11 95  1  0  0  0
 12 13  2  0  0  0
 12 96  1  0  0  0
 13 14  1  0  0  0
 13 31  1  0  0  0
 14 15  2  0  0  0
 14 97  1  0  0  0
 15 98  1  0  0  0
 16 17  2  0  0  0
 16 21  1  0  0  0
 16 31  1  0  0  0
 17 18  1  0  0  0
 17 99  1  0  0  0
 18 19  2  0  0  0
 18100  1  0  0  0
 19 20  1  0  0  0
 19 24  1  0  0  0
 20 21  2  0  0  0
 20101  1  0  0  0
 21 23  1  0  0  0
 22 28  1  0  0  0
 22 32  2  0  0  0
 26 27  1  0  0  0
 28102  1  0  0  0
 28103  1  0  0  0
 29104  1  0  0  0
 29105  1  0  0  0
 33 34  1  0  0  0
 33 66  1  0  0  0
 33 70  2  0  0  0
 34 36  1  0  0  0
 34 59  1  0  0  0
 34106  1  0  0  0
 35 44  2  0  0  0
 35 45  1  0  0  0
 35 68  1  0  0  0
 36 56  1  0  0  0
 36107  1  0  0  0
 37 39  1  0  0  0
 37 47  1  0  0  0
 37 66  1  0  0  0
 37108  1  0  0  0
 38 43  2  0  0  0
 38 46  1  0  0  0
 38 47  1  0  0  0
 39 64  1  0  0  0
 39 67  2  0  0  0
 40 52  1  0  0  0
 40 53  2  0  0  0
 40 58  1  0  0  0
 41109  1  0  0  0
 41110  1  0  0  0
 41111  1  0  0  0
 41 48  1  0  0  0
 42 43  1  0  0  0
 42 66  1  0  0  0
 42112  1  0  0  0
 42113  1  0  0  0
 43 44  1  0  0  0
 44114  1  0  0  0
 45 46  2  0  0  0
 45115  1  0  0  0
 46116  1  0  0  0
 47117  1  0  0  0
 47118  1  0  0  0
 48 56  1  0  0  0
 48 65  1  0  0  0
 48119  1  0  0  0
 49 50  1  0  0  0
 49 53  1  0  0  0
 49 64  1  0  0  0
 49120  1  0  0  0
 50 51  1  0  0  0
 50121  1  0  0  0
 50122  1  0  0  0
 51 52  1  0  0  0
 51123  1  0  0  0
 51124  1  0  0  0
 52125  1  0  0  0
 52126  1  0  0  0
 53 54  1  0  0  0
 54 55  2  0  0  0
 54127  1  0  0  0
 55 57  1  0  0  0
 55128  1  0  0  0
 56 69  2  0  0  0
 57 58  2  0  0  0
 57129  1  0  0  0
 58130  1  0  0  0
 59 60  1  0  0  0
 59 61  1  0  0  0
 59 62  1  0  0  0
 60131  1  0  0  0
 60132  1  0  0  0
 60133  1  0  0  0
 61134  1  0  0  0
 61135  1  0  0  0
 61136  1  0  0  0
 62137  1  0  0  0
 62138  1  0  0  0
 62139  1  0  0  0
 63 65  1  0  0  0
 63140  1  0  0  0
 63141  1  0  0  0
 63142  1  0  0  0
 64143  1  0  0  0
 65144  1  0  0  0
 68 79  1  0  0  0
 71 73  2  0  0  0
 71 76  1  0  0  0
 71145  1  0  0  0
 72 75  1  0  0  0
 72 76  2  0  0  0
 72146  1  0  0  0
 73 74  1  0  0  0
 73 77  1  0  0  0
 74 75  2  0  0  0
 74 81  1  0  0  0
 75 84  1  0  0  0
 76 85  1  0  0  0
 77 82  1  0  0  0
 77 83  2  0  0  0
 78 79  1  0  0  0
 78 80  1  0  0  0
 78147  1  0  0  0
 78148  1  0  0  0
 79149  1  0  0  0
 79150  1  0  0  0
 80 84  1  0  0  0
 80151  1  0  0  0
 80152  1  0  0  0
 81153  1  0  0  0
 81154  1  0  0  0
 82155  1  0  0  0
M  ISO  4   1 100  68 101  79 101  82 100
M  END
> <chiral flag>
0

> <version>
0

> <s_m_source_file>
/data/baiqing/PycharmProjects/Reinvent-master-3.2/result/LINK_invent/BTK/process_docking_weight1_custom_product_contain_oxygen_bond_distance_aromatic_linkinvent_7_9_3/rearranged_h_0106.sdf

> <i_m_source_file_index>
64

> <r_mmod_Potential_Energy-OPLS-2005>
-67.2095260620117

> <r_mmod_Stretch_Energy-OPLS-2005>
45.3417778015137

> <r_mmod_Bend_Energy-OPLS-2005>
109.799797058105

> <r_mmod_Torsional_Energy-OPLS-2005>
230.485260009766

> <r_mmod_Improper_Torsional_Energy-OPLS-2005>
9.72152900695801

> <r_mmod_Van_der_Waal_Energy-OPLS-2005>
183.52685546875

> <r_mmod_Electrostatic_Energy-OPLS-2005>
-435.378784179688

> <r_mmod_Solvation_Energy-OPLS-2005>
-231.777557373047

> <b_mmod_Minimization_Converged-OPLS-2005>
0

> <r_mmod_RMS_Derivative-OPLS-2005>
1.47680234909058

$$$$
64
                    3D
 Structure written by MMmdl.
162171  0  0  1  0            999 V2000
  -30.6411  -14.7024   20.3822 C   0  0  0  0  0  0
  -30.4307  -12.4011   19.4616 C   0  0  0  0  0  0
  -29.4995  -12.4065   18.2285 C   0  0  0  0  0  0
  -28.0234  -12.2903   18.6557 C   0  0  0  0  0  0
  -27.6401  -13.2120   19.8457 C   0  0  2  0  0  0
  -28.6973  -13.1792   20.9706 C   0  0  0  0  0  0
  -25.2556  -13.8165   20.5706 C   0  0  0  0  0  0
  -24.1812  -13.0461   20.9214 C   0  0  0  0  0  0
  -24.6368  -11.6924   20.8783 C   0  0  0  0  0  0
  -23.9034  -10.4319   21.0420 C   0  0  0  0  0  0
  -24.3615   -9.4244   21.9187 C   0  0  0  0  0  0
  -23.6309   -8.2274   22.0755 C   0  0  0  0  0  0
  -22.4286   -8.0306   21.3546 C   0  0  0  0  0  0
  -21.9904   -9.0270   20.4648 C   0  0  0  0  0  0
  -22.7220  -10.2159   20.3063 C   0  0  0  0  0  0
  -21.6875   -6.0753   22.5260 C   0  0  0  0  0  0
  -21.4023   -6.5651   23.8196 C   0  0  0  0  0  0
  -21.3639   -5.6796   24.9148 C   0  0  0  0  0  0
  -21.6045   -4.3058   24.7190 C   0  0  0  0  0  0
  -21.8844   -3.8164   23.4309 C   0  0  0  0  0  0
  -21.9215   -4.6985   22.3375 C   0  0  0  0  0  0
  -22.7843  -13.5267   21.1830 C   0  0  0  0  0  0
  -22.1691   -4.2179   21.0951 F   0  0  0  0  0  0
  -21.5611   -3.4537   25.7694 F   0  0  0  0  0  0
  -29.9927  -13.4912   20.3564 N   0  0  0  0  0  0
  -26.2955  -12.9321   20.3345 N   0  0  0  0  0  0
  -25.9291  -11.6492   20.5835 N   0  0  0  0  0  0
  -22.0467  -12.8276   22.0381 N   0  0  0  0  0  0
  -25.4300  -15.1872   20.4052 N   0  0  0  0  0  0
  -31.8673  -14.7397   20.2424 O   0  0  0  0  0  0
  -21.6669   -6.8891   21.4225 O   0  0  0  0  0  0
  -22.3536  -14.5558   20.6642 O   0  0  0  0  0  0
  -24.6260  -31.8593   23.2000 C   0  0  0  0  0  0
  -25.9108  -32.4767   23.8341 C   0  0  1  0  0  0
  -27.2238  -27.3163   20.1176 C   0  0  0  0  0  0
  -25.5924  -33.8569   24.2274 N   0  0  0  0  0  0
  -23.4174  -30.4801   21.5433 C   0  0  2  0  0  0
  -24.8620  -28.9299   20.1098 C   0  0  0  0  0  0
  -22.7475  -29.4614   22.4951 C   0  0  0  0  0  0
  -18.0292  -28.1369   22.8503 C   0  0  0  0  0  0
  -24.1484  -36.7296   23.2641 C   0  0  0  0  0  0
  -25.9570  -30.7885   21.3691 C   0  0  0  0  0  0
  -26.0280  -29.4152   20.7123 C   0  0  0  0  0  0
  -27.2084  -28.6185   20.7050 C   0  0  0  0  0  0
  -26.0313  -26.8733   19.5028 C   0  0  0  0  0  0
  -24.8662  -27.6667   19.4960 C   0  0  0  0  0  0
  -23.6274  -29.8069   20.1597 C   0  0  0  0  0  0
  -25.4112  -36.3083   24.0329 C   0  0  1  0  0  0
  -20.5892  -28.3674   23.1297 C   0  0  2  0  0  0
  -20.6764  -26.9395   22.5411 C   0  0  0  0  0  0
  -19.5739  -26.6372   21.5215 C   0  0  0  0  0  0
  -18.1924  -26.7915   22.1631 C   0  0  0  0  0  0
  -19.1543  -28.8840   23.2890 C   0  0  0  0  0  0
  -18.9457  -30.1445   23.8902 C   0  0  0  0  0  0
  -17.6453  -30.6570   24.0559 C   0  0  0  0  0  0
  -25.9046  -34.9448   23.5104 C   0  0  0  0  0  0
  -16.5349  -29.9059   23.6327 C   0  0  0  0  0  0
  -16.7278  -28.6470   23.0366 C   0  0  0  0  0  0
  -26.4487  -31.6589   25.0724 C   0  0  0  0  0  0
  -25.3712  -31.3738   26.1449 C   0  0  0  0  0  0
  -27.0335  -30.3011   24.6185 C   0  0  0  0  0  0
  -27.6045  -32.4342   25.7486 C   0  0  0  0  0  0
  -27.5581  -37.1799   24.8466 C   0  0  0  0  0  0
  -21.4191  -29.3031   22.3700 N   0  0  0  0  0  0
  -26.4297  -37.3774   23.9403 N   0  0  0  0  0  0
  -24.6856  -31.0603   22.0940 N   0  0  0  0  0  0
  -23.4211  -28.8176   23.3036 O   0  0  0  0  0  0
  -28.3806  -26.5276   20.1748 O   0  0  0  0  0  0
  -26.5617  -34.8916   22.4670 O   0  0  0  0  0  0
  -23.5426  -32.1395   23.7330 O   0  0  0  0  0  0
  -28.3443  -19.2120   20.5720 C   0  0  0  0  0  0
  -28.5169  -17.8091   20.3666 C   0  0  0  0  0  0
  -30.7026  -19.4051   20.9788 C   0  0  0  0  0  0
  -29.4371  -20.0621   20.8870 C   0  0  0  0  0  0
  -29.7790  -17.1532   20.4572 C   0  0  0  0  0  0
  -30.8812  -18.0029   20.7702 C   0  0  0  0  0  0
  -29.8116  -21.9298   22.3758 C   0  0  0  0  0  0
  -28.6862  -22.4421   20.3537 C   0  0  0  0  0  0
  -30.1781  -23.4040   22.5499 C   0  0  0  0  0  0
  -29.0177  -24.3174   22.1597 C   0  0  0  0  0  0
  -28.3371  -23.9356   20.8255 C   0  0  2  0  0  0
  -29.7783  -15.8282   18.4525 C   0  0  0  0  0  0
  -28.4570  -25.1089   19.7451 C   0  0  0  0  0  0
  -29.2882  -21.5084   21.1917 N   0  0  0  0  0  0
  -32.1810  -17.5049   20.8099 N   0  0  0  0  0  0
  -29.9033  -15.7865   19.9220 N   0  0  0  0  0  0
  -30.0165  -21.1721   23.3333 O   0  0  0  0  0  0
  -28.3711  -22.1337   19.1982 O   0  0  0  0  0  0
  -31.4710  -12.5116   19.1503 H   0  0  0  0  0  0
  -30.3712  -11.4435   19.9817 H   0  0  0  0  0  0
  -29.7535  -11.5715   17.5739 H   0  0  0  0  0  0
  -29.6449  -13.2971   17.6239 H   0  0  0  0  0  0
  -27.8640  -11.2492   18.9397 H   0  0  0  0  0  0
  -27.3649  -12.4742   17.8061 H   0  0  0  0  0  0
  -27.6167  -14.2231   19.4522 H   0  0  0  0  0  0
  -28.7269  -12.2062   21.4609 H   0  0  0  0  0  0
  -28.4568  -13.9137   21.7408 H   0  0  0  0  0  0
  -25.2765   -9.5755   22.4744 H   0  0  0  0  0  0
  -24.0051   -7.4672   22.7469 H   0  0  0  0  0  0
  -21.0841   -8.8781   19.8939 H   0  0  0  0  0  0
  -22.3676  -10.9704   19.6177 H   0  0  0  0  0  0
  -21.2031   -7.6165   23.9694 H   0  0  0  0  0  0
  -21.1412   -6.0521   25.9044 H   0  0  0  0  0  0
  -22.0639   -2.7632   23.2789 H   0  0  0  0  0  0
  -22.4104  -11.9977   22.4824 H   0  0  0  0  0  0
  -21.1061  -13.1274   22.2508 H   0  0  0  0  0  0
  -24.6637  -15.8439   20.4998 H   0  0  0  0  0  0
  -26.2853  -15.6133   20.0744 H   0  0  0  0  0  0
  -26.7182  -32.5424   23.1099 H   0  0  0  0  0  0
  -25.0075  -33.9710   25.0420 H   0  0  0  0  0  0
  -22.7125  -31.3003   21.3977 H   0  0  0  0  0  0
  -23.3746  -35.9630   23.3308 H   0  0  0  0  0  0
  -24.3583  -36.8913   22.2058 H   0  0  0  0  0  0
  -23.7231  -37.6495   23.6659 H   0  0  0  0  0  0
  -26.0902  -31.5529   20.6020 H   0  0  0  0  0  0
  -26.8377  -30.8365   21.9976 H   0  0  0  0  0  0
  -28.1071  -28.9878   21.1789 H   0  0  0  0  0  0
  -25.9617  -25.9036   19.0345 H   0  0  0  0  0  0
  -23.9683  -27.2925   19.0233 H   0  0  0  0  0  0
  -23.7339  -30.5768   19.3945 H   0  0  0  0  0  0
  -22.7491  -29.2275   19.8691 H   0  0  0  0  0  0
  -25.1288  -36.1950   25.0823 H   0  0  0  0  0  0
  -20.9989  -28.3222   24.1414 H   0  0  0  0  0  0
  -20.5656  -26.2274   23.3600 H   0  0  0  0  0  0
  -21.6629  -26.7400   22.1207 H   0  0  0  0  0  0
  -19.6887  -25.6282   21.1237 H   0  0  0  0  0  0
  -19.6672  -27.3185   20.6747 H   0  0  0  0  0  0
  -17.4189  -26.6698   21.4025 H   0  0  0  0  0  0
  -18.0307  -26.0042   22.9012 H   0  0  0  0  0  0
  -19.7931  -30.7268   24.2266 H   0  0  0  0  0  0
  -17.4996  -31.6253   24.5158 H   0  0  0  0  0  0
  -15.5342  -30.2954   23.7629 H   0  0  0  0  0  0
  -15.8687  -28.0764   22.7100 H   0  0  0  0  0  0
  -24.5872  -30.7110   25.7770 H   0  0  0  0  0  0
  -24.8914  -32.2909   26.4882 H   0  0  0  0  0  0
  -25.8021  -30.8899   27.0225 H   0  0  0  0  0  0
  -26.2909  -29.6768   24.1200 H   0  0  0  0  0  0
  -27.4022  -29.7269   25.4697 H   0  0  0  0  0  0
  -27.8782  -30.4300   23.9415 H   0  0  0  0  0  0
  -27.2648  -33.3644   26.2061 H   0  0  0  0  0  0
  -28.3842  -32.6921   25.0303 H   0  0  0  0  0  0
  -28.0737  -31.8484   26.5404 H   0  0  0  0  0  0
  -28.2600  -38.0094   24.7508 H   0  0  0  0  0  0
  -28.1076  -36.2627   24.6295 H   0  0  0  0  0  0
  -27.2301  -37.1449   25.8869 H   0  0  0  0  0  0
  -20.9374  -29.8759   21.6914 H   0  0  0  0  0  0
  -26.0189  -38.2856   24.1388 H   0  0  0  0  0  0
  -27.3523  -19.6333   20.4788 H   0  0  0  0  0  0
  -27.6533  -17.2301   20.0765 H   0  0  0  0  0  0
  -31.5744  -20.0009   21.2127 H   0  0  0  0  0  0
  -31.0500  -23.6097   21.9286 H   0  0  0  0  0  0
  -30.4808  -23.5933   23.5803 H   0  0  0  0  0  0
  -29.3877  -25.3423   22.1291 H   0  0  0  0  0  0
  -28.2730  -24.3019   22.9571 H   0  0  0  0  0  0
  -27.2713  -23.8837   21.0527 H   0  0  0  0  0  0
  -28.8159  -15.4412   18.1262 H   0  0  0  0  0  0
  -30.5702  -15.2771   17.9413 H   0  0  0  0  0  0
  -29.8504  -16.8463   18.0653 H   0  0  0  0  0  0
  -27.7921  -24.9085   18.9074 H   0  0  0  0  0  0
  -29.4493  -25.0162   19.3041 H   0  0  0  0  0  0
  -32.9365  -18.1466   20.5935 H   0  0  0  0  0  0
  -32.3250  -16.5762   20.4081 H   0  0  0  0  0  0
  1 25  1  0  0  0
  1 30  2  0  0  0
  1 86  1  0  0  0
  2  3  1  0  0  0
  2 25  1  0  0  0
  2 89  1  0  0  0
  2 90  1  0  0  0
  3  4  1  0  0  0
  3 91  1  0  0  0
  3 92  1  0  0  0
  4  5  1  0  0  0
  4 93  1  0  0  0
  4 94  1  0  0  0
  5  6  1  0  0  0
  5 26  1  0  0  0
  5 95  1  0  0  0
  6 25  1  0  0  0
  6 96  1  0  0  0
  6 97  1  0  0  0
  7  8  2  0  0  0
  7 26  1  0  0  0
  7 29  1  0  0  0
  8  9  1  0  0  0
  8 22  1  0  0  0
  9 10  1  0  0  0
  9 27  2  0  0  0
 10 11  2  0  0  0
 10 15  1  0  0  0
 11 12  1  0  0  0
 11 98  1  0  0  0
 12 13  2  0  0  0
 12 99  1  0  0  0
 13 14  1  0  0  0
 13 31  1  0  0  0
 14 15  2  0  0  0
 14100  1  0  0  0
 15101  1  0  0  0
 16 17  2  0  0  0
 16 21  1  0  0  0
 16 31  1  0  0  0
 17 18  1  0  0  0
 17102  1  0  0  0
 18 19  2  0  0  0
 18103  1  0  0  0
 19 20  1  0  0  0
 19 24  1  0  0  0
 20 21  2  0  0  0
 20104  1  0  0  0
 21 23  1  0  0  0
 22 28  1  0  0  0
 22 32  2  0  0  0
 26 27  1  0  0  0
 28105  1  0  0  0
 28106  1  0  0  0
 29107  1  0  0  0
 29108  1  0  0  0
 33 34  1  0  0  0
 33 66  1  0  0  0
 33 70  2  0  0  0
 34 36  1  0  0  0
 34 59  1  0  0  0
 34109  1  0  0  0
 35 44  2  0  0  0
 35 45  1  0  0  0
 35 68  1  0  0  0
 36 56  1  0  0  0
 36110  1  0  0  0
 37 39  1  0  0  0
 37 47  1  0  0  0
 37 66  1  0  0  0
 37111  1  0  0  0
 38 43  2  0  0  0
 38 46  1  0  0  0
 38 47  1  0  0  0
 39 64  1  0  0  0
 39 67  2  0  0  0
 40 52  1  0  0  0
 40 53  2  0  0  0
 40 58  1  0  0  0
 41112  1  0  0  0
 41113  1  0  0  0
 41114  1  0  0  0
 41 48  1  0  0  0
 42 43  1  0  0  0
 42 66  1  0  0  0
 42115  1  0  0  0
 42116  1  0  0  0
 43 44  1  0  0  0
 44117  1  0  0  0
 45 46  2  0  0  0
 45118  1  0  0  0
 46119  1  0  0  0
 47120  1  0  0  0
 47121  1  0  0  0
 48 56  1  0  0  0
 48 65  1  0  0  0
 48122  1  0  0  0
 49 50  1  0  0  0
 49 53  1  0  0  0
 49 64  1  0  0  0
 49123  1  0  0  0
 50 51  1  0  0  0
 50124  1  0  0  0
 50125  1  0  0  0
 51 52  1  0  0  0
 51126  1  0  0  0
 51127  1  0  0  0
 52128  1  0  0  0
 52129  1  0  0  0
 53 54  1  0  0  0
 54 55  2  0  0  0
 54130  1  0  0  0
 55 57  1  0  0  0
 55131  1  0  0  0
 56 69  2  0  0  0
 57 58  2  0  0  0
 57132  1  0  0  0
 58133  1  0  0  0
 59 60  1  0  0  0
 59 61  1  0  0  0
 59 62  1  0  0  0
 60134  1  0  0  0
 60135  1  0  0  0
 60136  1  0  0  0
 61137  1  0  0  0
 61138  1  0  0  0
 61139  1  0  0  0
 62140  1  0  0  0
 62141  1  0  0  0
 62142  1  0  0  0
 63 65  1  0  0  0
 63143  1  0  0  0
 63144  1  0  0  0
 63145  1  0  0  0
 64146  1  0  0  0
 65147  1  0  0  0
 68 83  1  0  0  0
 71 72  2  0  0  0
 71 74  1  0  0  0
 71148  1  0  0  0
 72 75  1  0  0  0
 72149  1  0  0  0
 73 74  2  0  0  0
 73 76  1  0  0  0
 73150  1  0  0  0
 74 84  1  0  0  0
 75 76  2  0  0  0
 75 86  1  0  0  0
 76 85  1  0  0  0
 77 79  1  0  0  0
 77 84  1  0  0  0
 77 87  2  0  0  0
 78 81  1  0  0  0
 78 84  1  0  0  0
 78 88  2  0  0  0
 79 80  1  0  0  0
 79151  1  0  0  0
 79152  1  0  0  0
 80 81  1  0  0  0
 80153  1  0  0  0
 80154  1  0  0  0
 81 83  1  0  0  0
 81155  1  0  0  0
 82 86  1  0  0  0
 82156  1  0  0  0
 82157  1  0  0  0
 82158  1  0  0  0
 83159  1  0  0  0
 83160  1  0  0  0
 85161  1  0  0  0
 85162  1  0  0  0
M  ISO  4   1 100  68 101  83 101  86 100
M  END
> <chiral flag>
0

> <version>
0

> <s_m_source_file>
/data/baiqing/PycharmProjects/Reinvent-master-3.2/result/LINK_invent/BTK/process_docking_weight1_custom_product_contain_oxygen_bond_distance_aromatic_linkinvent_7_9_3/rearranged_h_0106.sdf

> <i_m_source_file_index>
65

> <r_mmod_Potential_Energy-OPLS-2005>
351.542572021484

> <r_mmod_Stretch_Energy-OPLS-2005>
100.576698303223

> <r_mmod_Bend_Energy-OPLS-2005>
171.743133544922

> <r_mmod_Torsional_Energy-OPLS-2005>
387.533721923828

> <r_mmod_Improper_Torsional_Energy-OPLS-2005>
32.2257347106934

> <r_mmod_Van_der_Waal_Energy-OPLS-2005>
169.689483642578

> <r_mmod_Electrostatic_Energy-OPLS-2005>
-355.918670654297

> <r_mmod_Solvation_Energy-OPLS-2005>
-223.693283081055

> <b_mmod_Minimization_Converged-OPLS-2005>
0

> <r_mmod_RMS_Derivative-OPLS-2005>
1.99069952964783

$$$$
65
                    3D
 Structure written by MMmdl.
167175  0  0  1  0            999 V2000
  -30.6969  -14.5424   20.5193 C   0  0  0  0  0  0
  -30.4131  -12.3434   19.4225 C   0  0  0  0  0  0
  -29.4932  -12.4871   18.1970 C   0  0  0  0  0  0
  -28.0158  -12.3312   18.6124 C   0  0  0  0  0  0
  -27.6402  -13.2120   19.8370 C   0  0  2  0  0  0
  -28.6873  -13.0902   20.9631 C   0  0  0  0  0  0
  -25.2519  -13.8152   20.5626 C   0  0  0  0  0  0
  -24.1806  -13.0399   20.9157 C   0  0  0  0  0  0
  -24.6400  -11.6887   20.8724 C   0  0  0  0  0  0
  -23.9085  -10.4274   21.0387 C   0  0  0  0  0  0
  -24.3656   -9.4218   21.9172 C   0  0  0  0  0  0
  -23.6346   -8.2240   22.0744 C   0  0  0  0  0  0
  -22.4315   -8.0280   21.3539 C   0  0  0  0  0  0
  -21.9950   -9.0223   20.4631 C   0  0  0  0  0  0
  -22.7258  -10.2115   20.3041 C   0  0  0  0  0  0
  -21.6876   -6.0767   22.5286 C   0  0  0  0  0  0
  -21.4026   -6.5665   23.8222 C   0  0  0  0  0  0
  -21.3648   -5.6803   24.9171 C   0  0  0  0  0  0
  -21.6028   -4.3054   24.7223 C   0  0  0  0  0  0
  -21.8820   -3.8173   23.4336 C   0  0  0  0  0  0
  -21.9201   -4.6997   22.3411 C   0  0  0  0  0  0
  -22.7819  -13.5183   21.1778 C   0  0  0  0  0  0
  -22.1647   -4.2196   21.0976 F   0  0  0  0  0  0
  -21.5640   -3.4537   25.7732 F   0  0  0  0  0  0
  -30.0017  -13.3799   20.3791 N   0  0  0  0  0  0
  -26.2917  -12.9323   20.3175 N   0  0  0  0  0  0
  -25.9328  -11.6491   20.5716 N   0  0  0  0  0  0
  -22.0520  -12.8175   22.0384 N   0  0  0  0  0  0
  -25.4203  -15.1881   20.4062 N   0  0  0  0  0  0
  -31.8967  -14.6062   20.2502 O   0  0  0  0  0  0
  -21.6656   -6.8891   21.4249 O   0  0  0  0  0  0
  -22.3456  -14.5443   20.6579 O   0  0  0  0  0  0
  -24.6191  -31.8689   23.2141 C   0  0  0  0  0  0
  -25.9093  -32.4814   23.8401 C   0  0  1  0  0  0
  -27.1805  -27.3789   20.0762 C   0  0  0  0  0  0
  -25.5945  -33.8610   24.2328 N   0  0  0  0  0  0
  -23.4016  -30.5069   21.5579 C   0  0  2  0  0  0
  -24.8321  -28.9845   20.1101 C   0  0  0  0  0  0
  -22.7402  -29.4704   22.4974 C   0  0  0  0  0  0
  -18.0282  -28.1373   22.8504 C   0  0  0  0  0  0
  -24.1467  -36.7282   23.2641 C   0  0  0  0  0  0
  -25.9426  -30.8129   21.3816 C   0  0  0  0  0  0
  -26.0041  -29.4498   20.7178 C   0  0  0  0  0  0
  -27.1768  -28.6513   20.7101 C   0  0  0  0  0  0
  -25.9889  -26.9766   19.4214 C   0  0  0  0  0  0
  -24.8212  -27.7476   19.4619 C   0  0  0  0  0  0
  -23.6051  -29.8624   20.1657 C   0  0  0  0  0  0
  -25.4094  -36.3075   24.0336 C   0  0  1  0  0  0
  -20.5881  -28.3671   23.1301 C   0  0  2  0  0  0
  -20.6786  -26.9412   22.5402 C   0  0  0  0  0  0
  -19.5751  -26.6389   21.5213 C   0  0  0  0  0  0
  -18.1928  -26.7916   22.1633 C   0  0  0  0  0  0
  -19.1533  -28.8835   23.2905 C   0  0  0  0  0  0
  -18.9471  -30.1443   23.8911 C   0  0  0  0  0  0
  -17.6476  -30.6589   24.0570 C   0  0  0  0  0  0
  -25.9046  -34.9465   23.5121 C   0  0  0  0  0  0
  -16.5364  -29.9101   23.6334 C   0  0  0  0  0  0
  -16.7274  -28.6514   23.0365 C   0  0  0  0  0  0
  -26.4501  -31.6605   25.0754 C   0  0  0  0  0  0
  -25.3765  -31.3753   26.1511 C   0  0  0  0  0  0
  -27.0366  -30.3028   24.6215 C   0  0  0  0  0  0
  -27.6053  -32.4346   25.7526 C   0  0  0  0  0  0
  -27.5559  -37.1798   24.8478 C   0  0  0  0  0  0
  -21.4134  -29.3046   22.3699 N   0  0  0  0  0  0
  -26.4266  -37.3780   23.9429 N   0  0  0  0  0  0
  -24.6732  -31.0765   22.1068 N   0  0  0  0  0  0
  -23.4193  -28.8233   23.2995 O   0  0  0  0  0  0
  -28.3150  -26.5714   20.1294 O   0  0  0  0  0  0
  -26.5593  -34.8930   22.4671 O   0  0  0  0  0  0
  -23.5390  -32.1476   23.7540 O   0  0  0  0  0  0
  -29.5165  -19.9615   19.2346 C   0  0  0  0  0  0
  -29.9662  -18.6078   19.2277 C   0  0  0  0  0  0
  -29.8772  -18.1317   20.5197 C   0  0  0  0  0  0
  -29.1832  -20.2847   20.5151 C   0  0  0  0  0  0
  -30.4072  -16.8589   21.1179 C   0  0  0  0  0  0
  -30.5088  -17.9236   17.9992 C   0  0  0  0  0  0
  -29.2303  -20.1429   25.0044 C   0  0  0  0  0  0
  -29.0149  -25.1313   18.3215 C   0  0  0  0  0  0
  -29.8896  -19.9125   23.6404 C   0  0  0  0  0  0
  -28.6854  -24.1007   20.6714 C   0  0  0  0  0  0
  -28.9585  -19.1094   22.7197 C   0  0  0  0  0  0
  -28.5958  -22.6742   20.0488 C   0  0  0  0  0  0
  -28.2502  -25.1946   19.6511 C   0  0  1  0  0  0
  -29.3426  -19.1618   21.3159 N   0  0  0  0  0  0
  -28.7644  -21.5487   20.9717 N   0  0  0  0  0  0
  -29.9541  -15.6687   20.6610 N   0  0  0  0  0  0
  -31.2442  -16.9479   22.0231 O   0  0  0  0  0  0
  -31.4580  -12.4416   19.1193 H   0  0  0  0  0  0
  -30.3058  -11.3531   19.8720 H   0  0  0  0  0  0
  -29.7614  -11.7475   17.4388 H   0  0  0  0  0  0
  -29.6420  -13.4639   17.7353 H   0  0  0  0  0  0
  -27.8510  -11.2799   18.8474 H   0  0  0  0  0  0
  -27.3612  -12.5536   17.7700 H   0  0  0  0  0  0
  -27.6499  -14.2430   19.4862 H   0  0  0  0  0  0
  -28.6817  -12.0857   21.3900 H   0  0  0  0  0  0
  -28.4550  -13.7737   21.7811 H   0  0  0  0  0  0
  -25.2831   -9.5706   22.4708 H   0  0  0  0  0  0
  -24.0101   -7.4631   22.7451 H   0  0  0  0  0  0
  -21.0894   -8.8693   19.8934 H   0  0  0  0  0  0
  -22.3690  -10.9634   19.6142 H   0  0  0  0  0  0
  -21.2020   -7.6176   23.9739 H   0  0  0  0  0  0
  -21.1456   -6.0525   25.9063 H   0  0  0  0  0  0
  -22.0624   -2.7656   23.2811 H   0  0  0  0  0  0
  -22.4221  -11.9923   22.4856 H   0  0  0  0  0  0
  -21.1118  -13.1099   22.2564 H   0  0  0  0  0  0
  -24.6462  -15.8379   20.5005 H   0  0  0  0  0  0
  -26.2664  -15.6304   20.0689 H   0  0  0  0  0  0
  -26.7163  -32.5476   23.1149 H   0  0  0  0  0  0
  -25.0108  -33.9757   25.0490 H   0  0  0  0  0  0
  -22.6932  -31.3289   21.4303 H   0  0  0  0  0  0
  -23.3726  -35.9614   23.3301 H   0  0  0  0  0  0
  -24.3578  -36.8895   22.2056 H   0  0  0  0  0  0
  -23.7222  -37.6491   23.6660 H   0  0  0  0  0  0
  -26.0785  -31.5834   20.6212 H   0  0  0  0  0  0
  -26.8239  -30.8448   22.0110 H   0  0  0  0  0  0
  -28.0700  -29.0004   21.2103 H   0  0  0  0  0  0
  -25.8842  -26.0766   18.8417 H   0  0  0  0  0  0
  -23.9262  -27.3981   18.9655 H   0  0  0  0  0  0
  -23.7234  -30.6479   19.4167 H   0  0  0  0  0  0
  -22.7218  -29.2965   19.8615 H   0  0  0  0  0  0
  -25.1265  -36.1909   25.0828 H   0  0  0  0  0  0
  -20.9988  -28.3229   24.1412 H   0  0  0  0  0  0
  -20.5717  -26.2272   23.3585 H   0  0  0  0  0  0
  -21.6653  -26.7475   22.1166 H   0  0  0  0  0  0
  -19.6918  -25.6306   21.1223 H   0  0  0  0  0  0
  -19.6676  -27.3219   20.6759 H   0  0  0  0  0  0
  -17.4200  -26.6672   21.4032 H   0  0  0  0  0  0
  -18.0334  -26.0047   22.9021 H   0  0  0  0  0  0
  -19.7962  -30.7242   24.2281 H   0  0  0  0  0  0
  -17.5059  -31.6280   24.5144 H   0  0  0  0  0  0
  -15.5378  -30.3025   23.7646 H   0  0  0  0  0  0
  -15.8667  -28.0843   22.7081 H   0  0  0  0  0  0
  -24.5908  -30.7121   25.7872 H   0  0  0  0  0  0
  -24.9012  -32.2940   26.4954 H   0  0  0  0  0  0
  -25.8127  -30.8929   27.0268 H   0  0  0  0  0  0
  -26.2969  -29.6757   24.1228 H   0  0  0  0  0  0
  -27.4055  -29.7297   25.4732 H   0  0  0  0  0  0
  -27.8826  -30.4315   23.9463 H   0  0  0  0  0  0
  -27.2632  -33.3619   26.2136 H   0  0  0  0  0  0
  -28.3853  -32.6958   25.0360 H   0  0  0  0  0  0
  -28.0735  -31.8463   26.5430 H   0  0  0  0  0  0
  -28.2579  -38.0092   24.7510 H   0  0  0  0  0  0
  -28.1042  -36.2621   24.6293 H   0  0  0  0  0  0
  -27.2293  -37.1447   25.8890 H   0  0  0  0  0  0
  -20.9269  -29.8776   21.6939 H   0  0  0  0  0  0
  -26.0120  -38.2837   24.1467 H   0  0  0  0  0  0
  -29.4872  -20.6266   18.3827 H   0  0  0  0  0  0
  -29.9104  -17.0536   17.7265 H   0  0  0  0  0  0
  -31.5450  -17.6237   18.1554 H   0  0  0  0  0  0
  -30.4900  -18.6184   17.1564 H   0  0  0  0  0  0
  -29.8921  -20.6952   25.6712 H   0  0  0  0  0  0
  -28.9722  -19.2000   25.4875 H   0  0  0  0  0  0
  -28.3133  -20.7243   24.8947 H   0  0  0  0  0  0
  -28.8499  -24.1782   17.8140 H   0  0  0  0  0  0
  -30.0882  -25.2517   18.4691 H   0  0  0  0  0  0
  -28.6734  -25.9096   17.6379 H   0  0  0  0  0  0
  -30.8406  -19.3929   23.7546 H   0  0  0  0  0  0
  -30.1261  -20.8860   23.2069 H   0  0  0  0  0  0
  -29.6971  -24.2980   21.0260 H   0  0  0  0  0  0
  -28.0315  -24.1648   21.5443 H   0  0  0  0  0  0
  -27.9506  -19.5215   22.7791 H   0  0  0  0  0  0
  -28.8728  -18.0751   23.0537 H   0  0  0  0  0  0
  -29.3558  -22.6067   19.2722 H   0  0  0  0  0  0
  -27.6292  -22.5512   19.5580 H   0  0  0  0  0  0
  -27.2458  -24.8542   19.4432 H   0  0  0  0  0  0
  -28.5016  -21.6903   21.9448 H   0  0  0  0  0  0
  -29.0227  -15.6561   20.2852 H   0  0  0  0  0  0
  1 25  1  0  0  0
  1 30  2  0  0  0
  1 86  1  0  0  0
  2  3  1  0  0  0
  2 25  1  0  0  0
  2 88  1  0  0  0
  2 89  1  0  0  0
  3  4  1  0  0  0
  3 90  1  0  0  0
  3 91  1  0  0  0
  4  5  1  0  0  0
  4 92  1  0  0  0
  4 93  1  0  0  0
  5  6  1  0  0  0
  5 26  1  0  0  0
  5 94  1  0  0  0
  6 25  1  0  0  0
  6 95  1  0  0  0
  6 96  1  0  0  0
  7  8  2  0  0  0
  7 26  1  0  0  0
  7 29  1  0  0  0
  8  9  1  0  0  0
  8 22  1  0  0  0
  9 10  1  0  0  0
  9 27  2  0  0  0
 10 11  2  0  0  0
 10 15  1  0  0  0
 11 12  1  0  0  0
 11 97  1  0  0  0
 12 13  2  0  0  0
 12 98  1  0  0  0
 13 14  1  0  0  0
 13 31  1  0  0  0
 14 15  2  0  0  0
 14 99  1  0  0  0
 15100  1  0  0  0
 16 17  2  0  0  0
 16 21  1  0  0  0
 16 31  1  0  0  0
 17 18  1  0  0  0
 17101  1  0  0  0
 18 19  2  0  0  0
 18102  1  0  0  0
 19 20  1  0  0  0
 19 24  1  0  0  0
 20 21  2  0  0  0
 20103  1  0  0  0
 21 23  1  0  0  0
 22 28  1  0  0  0
 22 32  2  0  0  0
 26 27  1  0  0  0
 28104  1  0  0  0
 28105  1  0  0  0
 29106  1  0  0  0
 29107  1  0  0  0
 33 34  1  0  0  0
 33 66  1  0  0  0
 33 70  2  0  0  0
 34 36  1  0  0  0
 34 59  1  0  0  0
 34108  1  0  0  0
 35 44  2  0  0  0
 35 45  1  0  0  0
 35 68  1  0  0  0
 36 56  1  0  0  0
 36109  1  0  0  0
 37 39  1  0  0  0
 37 47  1  0  0  0
 37 66  1  0  0  0
 37110  1  0  0  0
 38 43  2  0  0  0
 38 46  1  0  0  0
 38 47  1  0  0  0
 39 64  1  0  0  0
 39 67  2  0  0  0
 40 52  1  0  0  0
 40 53  2  0  0  0
 40 58  1  0  0  0
 41111  1  0  0  0
 41112  1  0  0  0
 41113  1  0  0  0
 41 48  1  0  0  0
 42 43  1  0  0  0
 42 66  1  0  0  0
 42114  1  0  0  0
 42115  1  0  0  0
 43 44  1  0  0  0
 44116  1  0  0  0
 45 46  2  0  0  0
 45117  1  0  0  0
 46118  1  0  0  0
 47119  1  0  0  0
 47120  1  0  0  0
 48 56  1  0  0  0
 48 65  1  0  0  0
 48121  1  0  0  0
 49 50  1  0  0  0
 49 53  1  0  0  0
 49 64  1  0  0  0
 49122  1  0  0  0
 50 51  1  0  0  0
 50123  1  0  0  0
 50124  1  0  0  0
 51 52  1  0  0  0
 51125  1  0  0  0
 51126  1  0  0  0
 52127  1  0  0  0
 52128  1  0  0  0
 53 54  1  0  0  0
 54 55  2  0  0  0
 54129  1  0  0  0
 55 57  1  0  0  0
 55130  1  0  0  0
 56 69  2  0  0  0
 57 58  2  0  0  0
 57131  1  0  0  0
 58132  1  0  0  0
 59 60  1  0  0  0
 59 61  1  0  0  0
 59 62  1  0  0  0
 60133  1  0  0  0
 60134  1  0  0  0
 60135  1  0  0  0
 61136  1  0  0  0
 61137  1  0  0  0
 61138  1  0  0  0
 62139  1  0  0  0
 62140  1  0  0  0
 62141  1  0  0  0
 63 65  1  0  0  0
 63142  1  0  0  0
 63143  1  0  0  0
 63144  1  0  0  0
 64145  1  0  0  0
 65146  1  0  0  0
 68 83  1  0  0  0
 71 72  1  0  0  0
 71 74  2  0  0  0
 71147  1  0  0  0
 72 73  2  0  0  0
 72 76  1  0  0  0
 73 75  1  0  0  0
 73 84  1  0  0  0
 74 84  1  0  0  0
 74 85  1  0  0  0
 75 86  1  0  0  0
 75 87  2  0  0  0
 76148  1  0  0  0
 76149  1  0  0  0
 76150  1  0  0  0
 77 79  1  0  0  0
 77151  1  0  0  0
 77152  1  0  0  0
 77153  1  0  0  0
 78154  1  0  0  0
 78155  1  0  0  0
 78156  1  0  0  0
 78 83  1  0  0  0
 79 81  1  0  0  0
 79157  1  0  0  0
 79158  1  0  0  0
 80 82  1  0  0  0
 80 83  1  0  0  0
 80159  1  0  0  0
 80160  1  0  0  0
 81 84  1  0  0  0
 81161  1  0  0  0
 81162  1  0  0  0
 82 85  1  0  0  0
 82163  1  0  0  0
 82164  1  0  0  0
 83165  1  0  0  0
 85166  1  0  0  0
 86167  1  0  0  0
M  ISO  4   1 100  68 101  83 101  86 100
M  END
> <chiral flag>
0

> <version>
0

> <s_m_source_file>
/data/baiqing/PycharmProjects/Reinvent-master-3.2/result/LINK_invent/BTK/process_docking_weight1_custom_product_contain_oxygen_bond_distance_aromatic_linkinvent_7_9_3/rearranged_h_0106.sdf

> <i_m_source_file_index>
66

> <r_mmod_Potential_Energy-OPLS-2005>
-19.4921188354492

> <r_mmod_Stretch_Energy-OPLS-2005>
43.5803527832031

> <r_mmod_Bend_Energy-OPLS-2005>
128.384796142578

> <r_mmod_Torsional_Energy-OPLS-2005>
286.823822021484

> <r_mmod_Improper_Torsional_Energy-OPLS-2005>
8.51224613189697

> <r_mmod_Van_der_Waal_Energy-OPLS-2005>
141.641006469727

> <r_mmod_Electrostatic_Energy-OPLS-2005>
-448.742492675781

> <r_mmod_Solvation_Energy-OPLS-2005>
-217.523422241211

> <b_mmod_Minimization_Converged-OPLS-2005>
0

> <r_mmod_RMS_Derivative-OPLS-2005>
5.14226627349854

$$$$
66
                    3D
 Structure written by MMmdl.
163171  0  0  1  0            999 V2000
  -30.7018  -14.8284   20.5050 C   0  0  0  0  0  0
  -30.4307  -12.5314   19.4764 C   0  0  0  0  0  0
  -29.5029  -12.5519   18.2423 C   0  0  0  0  0  0
  -28.0320  -12.3586   18.6568 C   0  0  0  0  0  0
  -27.6474  -13.2313   19.8756 C   0  0  2  0  0  0
  -28.7179  -13.1992   21.0085 C   0  0  0  0  0  0
  -25.2480  -13.8144   20.5755 C   0  0  0  0  0  0
  -24.1769  -13.0374   20.9176 C   0  0  0  0  0  0
  -24.6400  -11.6873   20.8821 C   0  0  0  0  0  0
  -23.9084  -10.4245   21.0471 C   0  0  0  0  0  0
  -24.3584   -9.4140   21.9254 C   0  0  0  0  0  0
  -23.6233   -8.2200   22.0779 C   0  0  0  0  0  0
  -22.4214   -8.0265   21.3569 C   0  0  0  0  0  0
  -21.9921   -9.0263   20.4697 C   0  0  0  0  0  0
  -22.7264  -10.2129   20.3115 C   0  0  0  0  0  0
  -21.6793   -6.0729   22.5253 C   0  0  0  0  0  0
  -21.4025   -6.5644   23.8200 C   0  0  0  0  0  0
  -21.3673   -5.6821   24.9156 C   0  0  0  0  0  0
  -21.6036   -4.3071   24.7216 C   0  0  0  0  0  0
  -21.8810   -3.8168   23.4331 C   0  0  0  0  0  0
  -21.9158   -4.6980   22.3399 C   0  0  0  0  0  0
  -22.7802  -13.5141   21.1848 C   0  0  0  0  0  0
  -22.1606   -4.2180   21.0972 F   0  0  0  0  0  0
  -21.5636   -3.4534   25.7713 F   0  0  0  0  0  0
  -29.9988  -13.6172   20.4146 N   0  0  0  0  0  0
  -26.2979  -12.9369   20.3493 N   0  0  0  0  0  0
  -25.9361  -11.6502   20.5951 N   0  0  0  0  0  0
  -22.0472  -12.8119   22.0417 N   0  0  0  0  0  0
  -25.4168  -15.1872   20.4338 N   0  0  0  0  0  0
  -31.8611  -14.8169   20.0826 O   0  0  0  0  0  0
  -21.6569   -6.8858   21.4215 O   0  0  0  0  0  0
  -22.3493  -14.5487   20.6774 O   0  0  0  0  0  0
  -24.6359  -31.8562   23.1994 C   0  0  0  0  0  0
  -25.9158  -32.4762   23.8350 C   0  0  1  0  0  0
  -27.2083  -27.2310   20.1548 C   0  0  0  0  0  0
  -25.5954  -33.8557   24.2270 N   0  0  0  0  0  0
  -23.4333  -30.4759   21.5442 C   0  0  2  0  0  0
  -24.8821  -28.9215   20.1116 C   0  0  0  0  0  0
  -22.7541  -29.4584   22.4943 C   0  0  0  0  0  0
  -18.0296  -28.1408   22.8502 C   0  0  0  0  0  0
  -24.1495  -36.7260   23.2629 C   0  0  0  0  0  0
  -25.9820  -30.7620   21.3817 C   0  0  0  0  0  0
  -26.0549  -29.3817   20.7227 C   0  0  0  0  0  0
  -27.2251  -28.5504   20.7255 C   0  0  0  0  0  0
  -26.0181  -26.8494   19.4982 C   0  0  0  0  0  0
  -24.8690  -27.6661   19.4852 C   0  0  0  0  0  0
  -23.6530  -29.8115   20.1605 C   0  0  0  0  0  0
  -25.4124  -36.3068   24.0328 C   0  0  1  0  0  0
  -20.5895  -28.3706   23.1302 C   0  0  2  0  0  0
  -20.6786  -26.9428   22.5418 C   0  0  0  0  0  0
  -19.5748  -26.6390   21.5242 C   0  0  0  0  0  0
  -18.1934  -26.7941   22.1663 C   0  0  0  0  0  0
  -19.1550  -28.8883   23.2879 C   0  0  0  0  0  0
  -18.9458  -30.1488   23.8884 C   0  0  0  0  0  0
  -17.6443  -30.6602   24.0555 C   0  0  0  0  0  0
  -25.9083  -34.9426   23.5099 C   0  0  0  0  0  0
  -16.5334  -29.9088   23.6335 C   0  0  0  0  0  0
  -16.7279  -28.6510   23.0364 C   0  0  0  0  0  0
  -26.4499  -31.6596   25.0744 C   0  0  0  0  0  0
  -25.3698  -31.3772   26.1476 C   0  0  0  0  0  0
  -27.0282  -30.2988   24.6245 C   0  0  0  0  0  0
  -27.6098  -32.4308   25.7474 C   0  0  0  0  0  0
  -27.5591  -37.1777   24.8463 C   0  0  0  0  0  0
  -21.4246  -29.3026   22.3673 N   0  0  0  0  0  0
  -26.4292  -37.3785   23.9428 N   0  0  0  0  0  0
  -24.7022  -31.0512   22.0974 N   0  0  0  0  0  0
  -23.4232  -28.8135   23.3061 O   0  0  0  0  0  0
  -28.2799  -26.3050   20.2080 O   0  0  0  0  0  0
  -26.5634  -34.8903   22.4656 O   0  0  0  0  0  0
  -23.5489  -32.1392   23.7249 O   0  0  0  0  0  0
  -33.1816  -17.7833   22.5315 C   0  0  0  0  0  0
  -31.9880  -19.5568   21.4514 C   0  0  0  0  0  0
  -33.1569  -19.0992   22.0630 C   0  0  0  0  0  0
  -32.1069  -16.9044   22.2747 C   0  0  0  0  0  0
  -30.8493  -18.7338   21.1706 C   0  0  0  0  0  0
  -30.9971  -17.2553   21.4195 C   0  0  0  0  0  0
  -29.6435  -20.8754   20.2985 C   0  0  0  0  0  0
  -34.3303  -20.0499   22.2956 C   0  0  0  0  0  0
  -32.1803  -15.5853   23.0469 C   0  0  0  0  0  0
  -28.8223  -16.4492   20.4940 C   0  0  0  0  0  0
  -28.6564  -22.0703   20.7356 C   0  0  0  0  0  0
  -28.9663  -23.6088   20.2468 C   0  0  0  0  0  0
  -28.0023  -24.8707   20.6215 C   0  0  0  0  0  0
  -29.6566  -19.5843   20.8499 N   0  0  0  0  0  0
  -30.1610  -16.0835   20.9333 N   0  0  0  0  0  0
  -30.4202  -21.1350   19.3752 O   0  0  0  0  0  0
  -31.4627  -12.6529   19.1439 H   0  0  0  0  0  0
  -30.4064  -11.5558   19.9672 H   0  0  0  0  0  0
  -29.7939  -11.7828   17.5229 H   0  0  0  0  0  0
  -29.6229  -13.5113   17.7371 H   0  0  0  0  0  0
  -27.8659  -11.3042   18.8717 H   0  0  0  0  0  0
  -27.3680  -12.6088   17.8262 H   0  0  0  0  0  0
  -27.6050  -14.2287   19.4443 H   0  0  0  0  0  0
  -28.8061  -12.1992   21.4349 H   0  0  0  0  0  0
  -28.4497  -13.8395   21.8483 H   0  0  0  0  0  0
  -25.2752   -9.5474   22.4811 H   0  0  0  0  0  0
  -23.9936   -7.4554   22.7464 H   0  0  0  0  0  0
  -21.0870   -8.8791   19.8979 H   0  0  0  0  0  0
  -22.3798  -10.9654   19.6187 H   0  0  0  0  0  0
  -21.2042   -7.6162   23.9660 H   0  0  0  0  0  0
  -21.1496   -6.0588   25.9058 H   0  0  0  0  0  0
  -22.0590   -2.7642   23.2825 H   0  0  0  0  0  0
  -22.4126  -11.9676   22.4604 H   0  0  0  0  0  0
  -21.1181  -13.1237   22.2807 H   0  0  0  0  0  0
  -24.6704  -15.8378   20.6418 H   0  0  0  0  0  0
  -26.2998  -15.6408   20.2456 H   0  0  0  0  0  0
  -26.7227  -32.5405   23.1102 H   0  0  0  0  0  0
  -25.0114  -33.9701   25.0419 H   0  0  0  0  0  0
  -22.7293  -31.2968   21.3996 H   0  0  0  0  0  0
  -23.3789  -35.9566   23.3266 H   0  0  0  0  0  0
  -24.3586  -36.8896   22.2050 H   0  0  0  0  0  0
  -23.7211  -37.6430   23.6669 H   0  0  0  0  0  0
  -26.1218  -31.5246   20.6151 H   0  0  0  0  0  0
  -26.8574  -30.8120   22.0147 H   0  0  0  0  0  0
  -28.1232  -28.8981   21.2135 H   0  0  0  0  0  0
  -25.9505  -25.8957   18.9949 H   0  0  0  0  0  0
  -23.9716  -27.3180   18.9920 H   0  0  0  0  0  0
  -23.7752  -30.5870   19.4055 H   0  0  0  0  0  0
  -22.7722  -29.2440   19.8573 H   0  0  0  0  0  0
  -25.1299  -36.1903   25.0824 H   0  0  0  0  0  0
  -20.9976  -28.3255   24.1431 H   0  0  0  0  0  0
  -20.5756  -26.2285   23.3606 H   0  0  0  0  0  0
  -21.6643  -26.7488   22.1164 H   0  0  0  0  0  0
  -19.6893  -25.6297   21.1285 H   0  0  0  0  0  0
  -19.6685  -27.3190   20.6766 H   0  0  0  0  0  0
  -17.4198  -26.6684   21.4067 H   0  0  0  0  0  0
  -18.0329  -26.0112   22.9095 H   0  0  0  0  0  0
  -19.7923  -30.7327   24.2246 H   0  0  0  0  0  0
  -17.4988  -31.6292   24.5145 H   0  0  0  0  0  0
  -15.5334  -30.2974   23.7687 H   0  0  0  0  0  0
  -15.8679  -28.0822   22.7084 H   0  0  0  0  0  0
  -24.5776  -30.7284   25.7741 H   0  0  0  0  0  0
  -24.9030  -32.2961   26.5037 H   0  0  0  0  0  0
  -25.7963  -30.8763   27.0188 H   0  0  0  0  0  0
  -26.2834  -29.6792   24.1257 H   0  0  0  0  0  0
  -27.3891  -29.7236   25.4787 H   0  0  0  0  0  0
  -27.8784  -30.4226   23.9530 H   0  0  0  0  0  0
  -27.2803  -33.3677   26.2015 H   0  0  0  0  0  0
  -28.3927  -32.6771   25.0262 H   0  0  0  0  0  0
  -28.0789  -31.8443   26.5413 H   0  0  0  0  0  0
  -28.2572  -38.0107   24.7570 H   0  0  0  0  0  0
  -28.1110  -36.2629   24.6224 H   0  0  0  0  0  0
  -27.2303  -37.1356   25.8859 H   0  0  0  0  0  0
  -20.9458  -29.8673   21.6790 H   0  0  0  0  0  0
  -26.0151  -38.2847   24.1457 H   0  0  0  0  0  0
  -34.0305  -17.4562   23.1234 H   0  0  0  0  0  0
  -31.9838  -20.6181   21.2582 H   0  0  0  0  0  0
  -35.1898  -19.5267   22.7137 H   0  0  0  0  0  0
  -34.0624  -20.8596   22.9799 H   0  0  0  0  0  0
  -34.6505  -20.4984   21.3516 H   0  0  0  0  0  0
  -32.7527  -14.8280   22.5154 H   0  0  0  0  0  0
  -31.1894  -15.1980   23.2952 H   0  0  0  0  0  0
  -32.6830  -15.7399   24.0018 H   0  0  0  0  0  0
  -28.7902  -16.6316   19.4144 H   0  0  0  0  0  0
  -28.4633  -17.3416   20.9984 H   0  0  0  0  0  0
  -28.0926  -15.7097   20.7796 H   0  0  0  0  0  0
  -28.6256  -22.0683   21.8270 H   0  0  0  0  0  0
  -27.6440  -21.8054   20.4270 H   0  0  0  0  0  0
  -29.0514  -23.5855   19.1615 H   0  0  0  0  0  0
  -29.9662  -23.8523   20.6041 H   0  0  0  0  0  0
  -27.9641  -24.9068   21.7095 H   0  0  0  0  0  0
  -26.9930  -24.5744   20.3343 H   0  0  0  0  0  0
  -28.8225  -19.3520   21.3774 H   0  0  0  0  0  0
  1 25  1  0  0  0
  1 30  2  0  0  0
  1 85  1  0  0  0
  2  3  1  0  0  0
  2 25  1  0  0  0
  2 87  1  0  0  0
  2 88  1  0  0  0
  3  4  1  0  0  0
  3 89  1  0  0  0
  3 90  1  0  0  0
  4  5  1  0  0  0
  4 91  1  0  0  0
  4 92  1  0  0  0
  5  6  1  0  0  0
  5 26  1  0  0  0
  5 93  1  0  0  0
  6 25  1  0  0  0
  6 94  1  0  0  0
  6 95  1  0  0  0
  7  8  2  0  0  0
  7 26  1  0  0  0
  7 29  1  0  0  0
  8  9  1  0  0  0
  8 22  1  0  0  0
  9 10  1  0  0  0
  9 27  2  0  0  0
 10 11  2  0  0  0
 10 15  1  0  0  0
 11 12  1  0  0  0
 11 96  1  0  0  0
 12 13  2  0  0  0
 12 97  1  0  0  0
 13 14  1  0  0  0
 13 31  1  0  0  0
 14 15  2  0  0  0
 14 98  1  0  0  0
 15 99  1  0  0  0
 16 17  2  0  0  0
 16 21  1  0  0  0
 16 31  1  0  0  0
 17 18  1  0  0  0
 17100  1  0  0  0
 18 19  2  0  0  0
 18101  1  0  0  0
 19 20  1  0  0  0
 19 24  1  0  0  0
 20 21  2  0  0  0
 20102  1  0  0  0
 21 23  1  0  0  0
 22 28  1  0  0  0
 22 32  2  0  0  0
 26 27  1  0  0  0
 28103  1  0  0  0
 28104  1  0  0  0
 29105  1  0  0  0
 29106  1  0  0  0
 33 34  1  0  0  0
 33 66  1  0  0  0
 33 70  2  0  0  0
 34 36  1  0  0  0
 34 59  1  0  0  0
 34107  1  0  0  0
 35 44  2  0  0  0
 35 45  1  0  0  0
 35 68  1  0  0  0
 36 56  1  0  0  0
 36108  1  0  0  0
 37 39  1  0  0  0
 37 47  1  0  0  0
 37 66  1  0  0  0
 37109  1  0  0  0
 38 43  2  0  0  0
 38 46  1  0  0  0
 38 47  1  0  0  0
 39 64  1  0  0  0
 39 67  2  0  0  0
 40 52  1  0  0  0
 40 53  2  0  0  0
 40 58  1  0  0  0
 41110  1  0  0  0
 41111  1  0  0  0
 41112  1  0  0  0
 41 48  1  0  0  0
 42 43  1  0  0  0
 42 66  1  0  0  0
 42113  1  0  0  0
 42114  1  0  0  0
 43 44  1  0  0  0
 44115  1  0  0  0
 45 46  2  0  0  0
 45116  1  0  0  0
 46117  1  0  0  0
 47118  1  0  0  0
 47119  1  0  0  0
 48 56  1  0  0  0
 48 65  1  0  0  0
 48120  1  0  0  0
 49 50  1  0  0  0
 49 53  1  0  0  0
 49 64  1  0  0  0
 49121  1  0  0  0
 50 51  1  0  0  0
 50122  1  0  0  0
 50123  1  0  0  0
 51 52  1  0  0  0
 51124  1  0  0  0
 51125  1  0  0  0
 52126  1  0  0  0
 52127  1  0  0  0
 53 54  1  0  0  0
 54 55  2  0  0  0
 54128  1  0  0  0
 55 57  1  0  0  0
 55129  1  0  0  0
 56 69  2  0  0  0
 57 58  2  0  0  0
 57130  1  0  0  0
 58131  1  0  0  0
 59 60  1  0  0  0
 59 61  1  0  0  0
 59 62  1  0  0  0
 60132  1  0  0  0
 60133  1  0  0  0
 60134  1  0  0  0
 61135  1  0  0  0
 61136  1  0  0  0
 61137  1  0  0  0
 62138  1  0  0  0
 62139  1  0  0  0
 62140  1  0  0  0
 63 65  1  0  0  0
 63141  1  0  0  0
 63142  1  0  0  0
 63143  1  0  0  0
 64144  1  0  0  0
 65145  1  0  0  0
 68 83  1  0  0  0
 71 73  2  0  0  0
 71 74  1  0  0  0
 71146  1  0  0  0
 72 73  1  0  0  0
 72 75  2  0  0  0
 72147  1  0  0  0
 73 78  1  0  0  0
 74 76  2  0  0  0
 74 79  1  0  0  0
 75 76  1  0  0  0
 75 84  1  0  0  0
 76 85  1  0  0  0
 77 81  1  0  0  0
 77 84  1  0  0  0
 77 86  2  0  0  0
 78148  1  0  0  0
 78149  1  0  0  0
 78150  1  0  0  0
 79151  1  0  0  0
 79152  1  0  0  0
 79153  1  0  0  0
 80 85  1  0  0  0
 80154  1  0  0  0
 80155  1  0  0  0
 80156  1  0  0  0
 81 82  1  0  0  0
 81157  1  0  0  0
 81158  1  0  0  0
 82 83  1  0  0  0
 82159  1  0  0  0
 82160  1  0  0  0
 83161  1  0  0  0
 83162  1  0  0  0
 84163  1  0  0  0
M  ISO  4   1 100  68 101  83 101  85 100
M  END
> <chiral flag>
0

> <version>
0

> <s_m_source_file>
/data/baiqing/PycharmProjects/Reinvent-master-3.2/result/LINK_invent/BTK/process_docking_weight1_custom_product_contain_oxygen_bond_distance_aromatic_linkinvent_7_9_3/rearranged_h_0106.sdf

> <i_m_source_file_index>
67

> <r_mmod_Potential_Energy-OPLS-2005>
479.270904541016

> <r_mmod_Stretch_Energy-OPLS-2005>
198.446182250977

> <r_mmod_Bend_Energy-OPLS-2005>
235.201766967773

> <r_mmod_Torsional_Energy-OPLS-2005>
358.367645263672

> <r_mmod_Improper_Torsional_Energy-OPLS-2005>
6.01134920120239

> <r_mmod_Van_der_Waal_Energy-OPLS-2005>
170.59489440918

> <r_mmod_Electrostatic_Energy-OPLS-2005>
-381.846069335938

> <r_mmod_Solvation_Energy-OPLS-2005>
-218.475540161133

> <b_mmod_Minimization_Converged-OPLS-2005>
0

> <r_mmod_RMS_Derivative-OPLS-2005>
7.8810977935791

$$$$
67
                    3D
 Structure written by MMmdl.
164173  0  0  1  0            999 V2000
  -30.7657  -14.4607   20.5487 C   0  0  0  0  0  0
  -30.3995  -12.2992   19.4307 C   0  0  0  0  0  0
  -29.4884  -12.5010   18.2055 C   0  0  0  0  0  0
  -28.0101  -12.3661   18.6162 C   0  0  0  0  0  0
  -27.6528  -13.2220   19.8636 C   0  0  2  0  0  0
  -28.7017  -13.0568   20.9913 C   0  0  0  0  0  0
  -25.2528  -13.8146   20.5666 C   0  0  0  0  0  0
  -24.1822  -13.0397   20.9220 C   0  0  0  0  0  0
  -24.6402  -11.6880   20.8784 C   0  0  0  0  0  0
  -23.9057  -10.4253   21.0438 C   0  0  0  0  0  0
  -24.3584   -9.4156   21.9221 C   0  0  0  0  0  0
  -23.6258   -8.2201   22.0799 C   0  0  0  0  0  0
  -22.4257   -8.0237   21.3568 C   0  0  0  0  0  0
  -21.9888   -9.0213   20.4682 C   0  0  0  0  0  0
  -22.7224  -10.2091   20.3085 C   0  0  0  0  0  0
  -21.6817   -6.0701   22.5279 C   0  0  0  0  0  0
  -21.4008   -6.5624   23.8206 C   0  0  0  0  0  0
  -21.3681   -5.6794   24.9182 C   0  0  0  0  0  0
  -21.6058   -4.3056   24.7245 C   0  0  0  0  0  0
  -21.8814   -3.8128   23.4372 C   0  0  0  0  0  0
  -21.9183   -4.6935   22.3418 C   0  0  0  0  0  0
  -22.7837  -13.5189   21.1845 C   0  0  0  0  0  0
  -22.1647   -4.2110   21.0997 F   0  0  0  0  0  0
  -21.5626   -3.4564   25.7773 F   0  0  0  0  0  0
  -30.0329  -13.3209   20.4244 N   0  0  0  0  0  0
  -26.2996  -12.9362   20.3355 N   0  0  0  0  0  0
  -25.9336  -11.6496   20.5794 N   0  0  0  0  0  0
  -22.0467  -12.8217   22.0433 N   0  0  0  0  0  0
  -25.4115  -15.1856   20.3939 N   0  0  0  0  0  0
  -31.9045  -14.5568   20.0870 O   0  0  0  0  0  0
  -21.6605   -6.8850   21.4242 O   0  0  0  0  0  0
  -22.3516  -14.5461   20.6619 O   0  0  0  0  0  0
  -24.6127  -31.8667   23.2119 C   0  0  0  0  0  0
  -25.9032  -32.4814   23.8417 C   0  0  1  0  0  0
  -27.2302  -27.4240   20.1097 C   0  0  0  0  0  0
  -25.5873  -33.8603   24.2334 N   0  0  0  0  0  0
  -23.4029  -30.4925   21.5488 C   0  0  2  0  0  0
  -24.8515  -28.9557   20.1185 C   0  0  0  0  0  0
  -22.7430  -29.4663   22.4966 C   0  0  0  0  0  0
  -18.0309  -28.1472   22.8507 C   0  0  0  0  0  0
  -24.1473  -36.7318   23.2646 C   0  0  0  0  0  0
  -25.9321  -30.8323   21.3663 C   0  0  0  0  0  0
  -26.0114  -29.4624   20.7206 C   0  0  0  0  0  0
  -27.2058  -28.7006   20.7212 C   0  0  0  0  0  0
  -26.0621  -26.9401   19.4908 C   0  0  0  0  0  0
  -24.8708  -27.6886   19.5086 C   0  0  0  0  0  0
  -23.6127  -29.8219   20.1638 C   0  0  0  0  0  0
  -25.4110  -36.3107   24.0325 C   0  0  1  0  0  0
  -20.5884  -28.3778   23.1378 C   0  0  2  0  0  0
  -20.6823  -26.9466   22.5589 C   0  0  0  0  0  0
  -19.5815  -26.6353   21.5388 C   0  0  0  0  0  0
  -18.1947  -26.7974   22.1700 C   0  0  0  0  0  0
  -19.1549  -28.8936   23.2897 C   0  0  0  0  0  0
  -18.9488  -30.1549   23.8908 C   0  0  0  0  0  0
  -17.6508  -30.6678   24.0594 C   0  0  0  0  0  0
  -25.9032  -34.9463   23.5132 C   0  0  0  0  0  0
  -16.5390  -29.9197   23.6357 C   0  0  0  0  0  0
  -16.7298  -28.6610   23.0373 C   0  0  0  0  0  0
  -26.4473  -31.6593   25.0740 C   0  0  0  0  0  0
  -25.3753  -31.3679   26.1494 C   0  0  0  0  0  0
  -27.0312  -30.3037   24.6124 C   0  0  0  0  0  0
  -27.6035  -32.4327   25.7505 C   0  0  0  0  0  0
  -27.5574  -37.1813   24.8461 C   0  0  0  0  0  0
  -21.4148  -29.3086   22.3734 N   0  0  0  0  0  0
  -26.4302  -37.3788   23.9389 N   0  0  0  0  0  0
  -24.6672  -31.0770   22.1023 N   0  0  0  0  0  0
  -23.4209  -28.8185   23.2990 O   0  0  0  0  0  0
  -28.3752  -26.6592   20.0644 O   0  0  0  0  0  0
  -26.5596  -34.8912   22.4701 O   0  0  0  0  0  0
  -23.5326  -32.1435   23.7526 O   0  0  0  0  0  0
  -30.3995  -19.3132   21.6190 C   0  0  0  0  0  0
  -29.8009  -20.5680   21.3692 C   0  0  0  0  0  0
  -28.4486  -19.5552   19.6395 C   0  0  0  0  0  0
  -30.0487  -18.1593   20.8798 C   0  0  0  0  0  0
  -28.8078  -20.7175   20.3746 C   0  0  0  0  0  0
  -29.0642  -18.2991   19.8681 C   0  0  0  0  0  0
  -28.0078  -24.3016   20.8738 C   0  0  0  0  0  0
  -28.7096  -23.2506   20.3601 C   0  0  0  0  0  0
  -26.6044  -24.0594   21.2573 C   0  0  0  0  0  0
  -25.8620  -23.0373   20.4090 C   0  0  0  0  0  0
  -26.6927  -21.7676   20.1525 C   0  0  0  0  0  0
  -30.1423  -23.4219   19.8696 C   0  0  0  0  0  0
  -30.8396  -16.8632   21.1591 C   0  0  0  0  0  0
  -28.5481  -25.7215   21.1442 C   0  0  0  0  0  0
  -28.1523  -21.9644   20.1696 N   0  0  0  0  0  0
  -28.7057  -17.2162   19.0632 N   0  0  0  0  0  0
  -30.1635  -15.5482   21.0659 N   0  0  0  0  0  0
  -26.0183  -24.6362   22.1776 O   0  0  0  0  0  0
  -31.4485  -12.3469   19.1340 H   0  0  0  0  0  0
  -30.2572  -11.3025   19.8500 H   0  0  0  0  0  0
  -29.7248  -11.7716   17.4306 H   0  0  0  0  0  0
  -29.6712  -13.4835   17.7662 H   0  0  0  0  0  0
  -27.8212  -11.3119   18.8229 H   0  0  0  0  0  0
  -27.3631  -12.6266   17.7761 H   0  0  0  0  0  0
  -27.6771  -14.2643   19.5425 H   0  0  0  0  0  0
  -28.6779  -12.0439   21.3955 H   0  0  0  0  0  0
  -28.4770  -13.7136   21.8310 H   0  0  0  0  0  0
  -25.2726   -9.5601   22.4810 H   0  0  0  0  0  0
  -23.9953   -7.4592   22.7539 H   0  0  0  0  0  0
  -21.0814   -8.8700   19.9013 H   0  0  0  0  0  0
  -22.3662  -10.9596   19.6183 H   0  0  0  0  0  0
  -21.1988   -7.6133   23.9685 H   0  0  0  0  0  0
  -21.1525   -6.0555   25.9074 H   0  0  0  0  0  0
  -22.0579   -2.7582   23.2895 H   0  0  0  0  0  0
  -22.4093  -11.9879   22.4805 H   0  0  0  0  0  0
  -21.1098  -13.1262   22.2637 H   0  0  0  0  0  0
  -24.6035  -15.7994   20.4065 H   0  0  0  0  0  0
  -26.2190  -15.5994   19.9418 H   0  0  0  0  0  0
  -26.7103  -32.5530   23.1190 H   0  0  0  0  0  0
  -24.9971  -33.9767   25.0433 H   0  0  0  0  0  0
  -22.6925  -31.3111   21.4064 H   0  0  0  0  0  0
  -23.3714  -35.9672   23.3340 H   0  0  0  0  0  0
  -24.3563  -36.8907   22.2055 H   0  0  0  0  0  0
  -23.7256  -37.6543   23.6647 H   0  0  0  0  0  0
  -26.0486  -31.5990   20.5983 H   0  0  0  0  0  0
  -26.8164  -30.8906   21.9876 H   0  0  0  0  0  0
  -28.1026  -29.0879   21.1845 H   0  0  0  0  0  0
  -26.0708  -25.9781   18.9991 H   0  0  0  0  0  0
  -23.9788  -27.2940   19.0429 H   0  0  0  0  0  0
  -23.7256  -30.5947   19.4007 H   0  0  0  0  0  0
  -22.7366  -29.2413   19.8683 H   0  0  0  0  0  0
  -25.1293  -36.2005   25.0818 H   0  0  0  0  0  0
  -20.9980  -28.3504   24.1516 H   0  0  0  0  0  0
  -20.5752  -26.2451   23.3882 H   0  0  0  0  0  0
  -21.6715  -26.7482   22.1429 H   0  0  0  0  0  0
  -19.6985  -25.6222   21.1529 H   0  0  0  0  0  0
  -19.6829  -27.3056   20.6842 H   0  0  0  0  0  0
  -17.4237  -26.6675   21.4091 H   0  0  0  0  0  0
  -18.0239  -26.0193   22.9145 H   0  0  0  0  0  0
  -19.7978  -30.7370   24.2246 H   0  0  0  0  0  0
  -17.5103  -31.6350   24.5238 H   0  0  0  0  0  0
  -15.5408  -30.3145   23.7711 H   0  0  0  0  0  0
  -15.8693  -28.0955   22.7131 H   0  0  0  0  0  0
  -24.5920  -30.7038   25.7840 H   0  0  0  0  0  0
  -24.8955  -32.2818   26.4976 H   0  0  0  0  0  0
  -25.8123  -30.8835   27.0232 H   0  0  0  0  0  0
  -26.2866  -29.6801   24.1171 H   0  0  0  0  0  0
  -27.4070  -29.7281   25.4590 H   0  0  0  0  0  0
  -27.8693  -30.4348   23.9291 H   0  0  0  0  0  0
  -27.2629  -33.3604   26.2113 H   0  0  0  0  0  0
  -28.3823  -32.6935   25.0329 H   0  0  0  0  0  0
  -28.0735  -31.8454   26.5403 H   0  0  0  0  0  0
  -28.2609  -38.0092   24.7487 H   0  0  0  0  0  0
  -28.1055  -36.2622   24.6325 H   0  0  0  0  0  0
  -27.2270  -37.1492   25.8859 H   0  0  0  0  0  0
  -20.9300  -29.8856   21.7000 H   0  0  0  0  0  0
  -26.0189  -38.2864   24.1399 H   0  0  0  0  0  0
  -31.1533  -19.2463   22.3911 H   0  0  0  0  0  0
  -30.1007  -21.4158   21.9685 H   0  0  0  0  0  0
  -27.7019  -19.6333   18.8622 H   0  0  0  0  0  0
  -25.6466  -23.5253   19.4603 H   0  0  0  0  0  0
  -24.9038  -22.7828   20.8628 H   0  0  0  0  0  0
  -26.4188  -21.0190   20.8985 H   0  0  0  0  0  0
  -26.4001  -21.3641   19.1827 H   0  0  0  0  0  0
  -30.2365  -24.3408   19.2919 H   0  0  0  0  0  0
  -30.4551  -22.6047   19.2158 H   0  0  0  0  0  0
  -30.8376  -23.4824   20.7075 H   0  0  0  0  0  0
  -31.2912  -16.9315   22.1489 H   0  0  0  0  0  0
  -31.6759  -16.9112   20.4576 H   0  0  0  0  0  0
  -29.6184  -25.6480   21.3378 H   0  0  0  0  0  0
  -28.1273  -26.1245   22.0680 H   0  0  0  0  0  0
  -27.8389  -17.2030   18.5393 H   0  0  0  0  0  0
  -29.1622  -16.3194   19.1736 H   0  0  0  0  0  0
  -29.2175  -15.4709   21.4102 H   0  0  0  0  0  0
  1 25  1  0  0  0
  1 30  2  0  0  0
  1 87  1  0  0  0
  2  3  1  0  0  0
  2 25  1  0  0  0
  2 89  1  0  0  0
  2 90  1  0  0  0
  3  4  1  0  0  0
  3 91  1  0  0  0
  3 92  1  0  0  0
  4  5  1  0  0  0
  4 93  1  0  0  0
  4 94  1  0  0  0
  5  6  1  0  0  0
  5 26  1  0  0  0
  5 95  1  0  0  0
  6 25  1  0  0  0
  6 96  1  0  0  0
  6 97  1  0  0  0
  7  8  2  0  0  0
  7 26  1  0  0  0
  7 29  1  0  0  0
  8  9  1  0  0  0
  8 22  1  0  0  0
  9 10  1  0  0  0
  9 27  2  0  0  0
 10 11  2  0  0  0
 10 15  1  0  0  0
 11 12  1  0  0  0
 11 98  1  0  0  0
 12 13  2  0  0  0
 12 99  1  0  0  0
 13 14  1  0  0  0
 13 31  1  0  0  0
 14 15  2  0  0  0
 14100  1  0  0  0
 15101  1  0  0  0
 16 17  2  0  0  0
 16 21  1  0  0  0
 16 31  1  0  0  0
 17 18  1  0  0  0
 17102  1  0  0  0
 18 19  2  0  0  0
 18103  1  0  0  0
 19 20  1  0  0  0
 19 24  1  0  0  0
 20 21  2  0  0  0
 20104  1  0  0  0
 21 23  1  0  0  0
 22 28  1  0  0  0
 22 32  2  0  0  0
 26 27  1  0  0  0
 28105  1  0  0  0
 28106  1  0  0  0
 29107  1  0  0  0
 29108  1  0  0  0
 33 34  1  0  0  0
 33 66  1  0  0  0
 33 70  2  0  0  0
 34 36  1  0  0  0
 34 59  1  0  0  0
 34109  1  0  0  0
 35 44  2  0  0  0
 35 45  1  0  0  0
 35 68  1  0  0  0
 36 56  1  0  0  0
 36110  1  0  0  0
 37 39  1  0  0  0
 37 47  1  0  0  0
 37 66  1  0  0  0
 37111  1  0  0  0
 38 43  2  0  0  0
 38 46  1  0  0  0
 38 47  1  0  0  0
 39 64  1  0  0  0
 39 67  2  0  0  0
 40 52  1  0  0  0
 40 53  2  0  0  0
 40 58  1  0  0  0
 41112  1  0  0  0
 41113  1  0  0  0
 41114  1  0  0  0
 41 48  1  0  0  0
 42 43  1  0  0  0
 42 66  1  0  0  0
 42115  1  0  0  0
 42116  1  0  0  0
 43 44  1  0  0  0
 44117  1  0  0  0
 45 46  2  0  0  0
 45118  1  0  0  0
 46119  1  0  0  0
 47120  1  0  0  0
 47121  1  0  0  0
 48 56  1  0  0  0
 48 65  1  0  0  0
 48122  1  0  0  0
 49 50  1  0  0  0
 49 53  1  0  0  0
 49 64  1  0  0  0
 49123  1  0  0  0
 50 51  1  0  0  0
 50124  1  0  0  0
 50125  1  0  0  0
 51 52  1  0  0  0
 51126  1  0  0  0
 51127  1  0  0  0
 52128  1  0  0  0
 52129  1  0  0  0
 53 54  1  0  0  0
 54 55  2  0  0  0
 54130  1  0  0  0
 55 57  1  0  0  0
 55131  1  0  0  0
 56 69  2  0  0  0
 57 58  2  0  0  0
 57132  1  0  0  0
 58133  1  0  0  0
 59 60  1  0  0  0
 59 61  1  0  0  0
 59 62  1  0  0  0
 60134  1  0  0  0
 60135  1  0  0  0
 60136  1  0  0  0
 61137  1  0  0  0
 61138  1  0  0  0
 61139  1  0  0  0
 62140  1  0  0  0
 62141  1  0  0  0
 62142  1  0  0  0
 63 65  1  0  0  0
 63143  1  0  0  0
 63144  1  0  0  0
 63145  1  0  0  0
 64146  1  0  0  0
 65147  1  0  0  0
 68 84  1  0  0  0
 71 72  2  0  0  0
 71 74  1  0  0  0
 71148  1  0  0  0
 72 75  1  0  0  0
 72149  1  0  0  0
 73 75  2  0  0  0
 73 76  1  0  0  0
 73150  1  0  0  0
 74 76  2  0  0  0
 74 83  1  0  0  0
 75 85  1  0  0  0
 76 86  1  0  0  0
 77 78  2  0  0  0
 77 79  1  0  0  0
 77 84  1  0  0  0
 78 82  1  0  0  0
 78 85  1  0  0  0
 79 80  1  0  0  0
 79 88  2  0  0  0
 80 81  1  0  0  0
 80151  1  0  0  0
 80152  1  0  0  0
 81 85  1  0  0  0
 81153  1  0  0  0
 81154  1  0  0  0
 82155  1  0  0  0
 82156  1  0  0  0
 82157  1  0  0  0
 83 87  1  0  0  0
 83158  1  0  0  0
 83159  1  0  0  0
 84160  1  0  0  0
 84161  1  0  0  0
 86162  1  0  0  0
 86163  1  0  0  0
 87164  1  0  0  0
M  ISO  4   1 100  68 101  84 101  87 100
M  END
> <chiral flag>
0

> <version>
0

> <s_m_source_file>
/data/baiqing/PycharmProjects/Reinvent-master-3.2/result/LINK_invent/BTK/process_docking_weight1_custom_product_contain_oxygen_bond_distance_aromatic_linkinvent_7_9_3/rearranged_h_0106.sdf

> <i_m_source_file_index>
68

> <r_mmod_Potential_Energy-OPLS-2005>
-18.1241264343262

> <r_mmod_Stretch_Energy-OPLS-2005>
46.1829605102539

> <r_mmod_Bend_Energy-OPLS-2005>
112.683372497559

> <r_mmod_Torsional_Energy-OPLS-2005>
228.590377807617

> <r_mmod_Improper_Torsional_Energy-OPLS-2005>
6.30251455307007

> <r_mmod_Van_der_Waal_Energy-OPLS-2005>
168.280258178711

> <r_mmod_Electrostatic_Energy-OPLS-2005>
-372.443939208984

> <r_mmod_Solvation_Energy-OPLS-2005>
-224.580688476562

> <b_mmod_Minimization_Converged-OPLS-2005>
0

> <r_mmod_RMS_Derivative-OPLS-2005>
4.2989068031311

$$$$
68
                    3D
 Structure written by MMmdl.
162170  0  0  1  0            999 V2000
  -30.6398  -14.6728   20.5779 C   0  0  0  0  0  0
  -30.4274  -12.4330   19.4623 C   0  0  0  0  0  0
  -29.4981  -12.5172   18.2296 C   0  0  0  0  0  0
  -28.0277  -12.3303   18.6463 C   0  0  0  0  0  0
  -27.6452  -13.2149   19.8616 C   0  0  2  0  0  0
  -28.6837  -13.0862   20.9993 C   0  0  0  0  0  0
  -25.2498  -13.8216   20.5652 C   0  0  0  0  0  0
  -24.1782  -13.0479   20.9205 C   0  0  0  0  0  0
  -24.6354  -11.6946   20.8788 C   0  0  0  0  0  0
  -23.9041  -10.4334   21.0435 C   0  0  0  0  0  0
  -24.3611   -9.4261   21.9194 C   0  0  0  0  0  0
  -23.6295   -8.2296   22.0748 C   0  0  0  0  0  0
  -22.4281   -8.0311   21.3539 C   0  0  0  0  0  0
  -21.9897   -9.0297   20.4651 C   0  0  0  0  0  0
  -22.7226  -10.2180   20.3073 C   0  0  0  0  0  0
  -21.6898   -6.0732   22.5258 C   0  0  0  0  0  0
  -21.4044   -6.5631   23.8186 C   0  0  0  0  0  0
  -21.3641   -5.6783   24.9148 C   0  0  0  0  0  0
  -21.6049   -4.3047   24.7218 C   0  0  0  0  0  0
  -21.8839   -3.8136   23.4343 C   0  0  0  0  0  0
  -21.9207   -4.6952   22.3396 C   0  0  0  0  0  0
  -22.7803  -13.5261   21.1881 C   0  0  0  0  0  0
  -22.1686   -4.2120   21.0987 F   0  0  0  0  0  0
  -21.5597   -3.4533   25.7739 F   0  0  0  0  0  0
  -29.9992  -13.4555   20.4511 N   0  0  0  0  0  0
  -26.2915  -12.9384   20.3318 N   0  0  0  0  0  0
  -25.9286  -11.6547   20.5820 N   0  0  0  0  0  0
  -22.0499  -12.8231   22.0450 N   0  0  0  0  0  0
  -25.4207  -15.1930   20.4010 N   0  0  0  0  0  0
  -31.7444  -14.8426   20.0405 O   0  0  0  0  0  0
  -21.6667   -6.8890   21.4226 O   0  0  0  0  0  0
  -22.3489  -14.5547   20.6704 O   0  0  0  0  0  0
  -24.6235  -31.8610   23.2026 C   0  0  0  0  0  0
  -25.9066  -32.4794   23.8358 C   0  0  1  0  0  0
  -27.2326  -27.3200   20.1404 C   0  0  0  0  0  0
  -25.5884  -33.8594   24.2286 N   0  0  0  0  0  0
  -23.4191  -30.4824   21.5441 C   0  0  2  0  0  0
  -24.8705  -28.9267   20.1191 C   0  0  0  0  0  0
  -22.7477  -29.4631   22.4953 C   0  0  0  0  0  0
  -18.0320  -28.1387   22.8426 C   0  0  0  0  0  0
  -24.1475  -36.7302   23.2647 C   0  0  0  0  0  0
  -25.9585  -30.7919   21.3723 C   0  0  0  0  0  0
  -26.0371  -29.4159   20.7199 C   0  0  0  0  0  0
  -27.2236  -28.6274   20.7146 C   0  0  0  0  0  0
  -26.0464  -26.8718   19.5241 C   0  0  0  0  0  0
  -24.8755  -27.6588   19.5097 C   0  0  0  0  0  0
  -23.6379  -29.8062   20.1632 C   0  0  0  0  0  0
  -25.4104  -36.3110   24.0347 C   0  0  1  0  0  0
  -20.5890  -28.3708   23.1254 C   0  0  2  0  0  0
  -20.6814  -26.9400   22.5446 C   0  0  0  0  0  0
  -19.5806  -26.6339   21.5234 C   0  0  0  0  0  0
  -18.1968  -26.7903   22.1615 C   0  0  0  0  0  0
  -19.1562  -28.8866   23.2825 C   0  0  0  0  0  0
  -18.9502  -30.1469   23.8845 C   0  0  0  0  0  0
  -17.6505  -30.6565   24.0572 C   0  0  0  0  0  0
  -25.9042  -34.9471   23.5129 C   0  0  0  0  0  0
  -16.5400  -29.9058   23.6347 C   0  0  0  0  0  0
  -16.7306  -28.6498   23.0327 C   0  0  0  0  0  0
  -26.4471  -31.6609   25.0724 C   0  0  0  0  0  0
  -25.3716  -31.3739   26.1452 C   0  0  0  0  0  0
  -27.0325  -30.3047   24.6161 C   0  0  0  0  0  0
  -27.6043  -32.4346   25.7489 C   0  0  0  0  0  0
  -27.5583  -37.1803   24.8471 C   0  0  0  0  0  0
  -21.4195  -29.3065   22.3677 N   0  0  0  0  0  0
  -26.4293  -37.3802   23.9412 N   0  0  0  0  0  0
  -24.6864  -31.0610   22.0967 N   0  0  0  0  0  0
  -23.4175  -28.8140   23.3020 O   0  0  0  0  0  0
  -28.3600  -26.4914   20.1398 O   0  0  0  0  0  0
  -26.5617  -34.8928   22.4701 O   0  0  0  0  0  0
  -23.5401  -32.1405   23.7359 O   0  0  0  0  0  0
  -30.1300  -19.5813   21.1190 C   0  0  0  0  0  0
  -28.8976  -17.4496   19.8006 C   0  0  0  0  0  0
  -30.4259  -18.2235   21.4890 C   0  0  0  0  0  0
  -29.1962  -19.9195   20.1032 C   0  0  0  0  0  0
  -29.8236  -17.1044   20.8194 C   0  0  0  0  0  0
  -28.5676  -18.8035   19.4695 C   0  0  0  0  0  0
  -29.6113  -15.4158   22.5758 C   0  0  0  0  0  0
  -28.5446  -23.8983   19.8567 C   0  0  0  0  0  0
  -31.4167  -17.9954   22.6209 C   0  0  0  0  0  0
  -26.3885  -18.3773   18.6535 C   0  0  0  0  0  0
  -28.9454  -21.3913   19.5510 C   0  0  0  0  0  0
  -28.2576  -25.1539   20.7778 C   0  0  0  0  0  0
  -28.7956  -22.6457   20.3809 N   0  0  0  0  0  0
  -29.9848  -15.6956   21.2535 N   0  0  0  0  0  0
  -28.7234  -16.1311   23.3062 N   0  3  0  0  0  0
  -28.5189  -24.0619   18.6342 O   0  0  0  0  0  0
  -27.6330  -19.0535   18.4932 O   0  0  0  0  0  0
  -31.4670  -12.5590   19.1581 H   0  0  0  0  0  0
  -30.3722  -11.4383   19.9072 H   0  0  0  0  0  0
  -29.7725  -11.7567   17.4973 H   0  0  0  0  0  0
  -29.6185  -13.4806   17.7311 H   0  0  0  0  0  0
  -27.8888  -11.2790   18.9009 H   0  0  0  0  0  0
  -27.3611  -12.5279   17.8042 H   0  0  0  0  0  0
  -27.6615  -14.2457   19.5113 H   0  0  0  0  0  0
  -28.7138  -12.0627   21.3793 H   0  0  0  0  0  0
  -28.3767  -13.6974   21.8483 H   0  0  0  0  0  0
  -25.2782   -9.5753   22.4722 H   0  0  0  0  0  0
  -24.0033   -7.4680   22.7426 H   0  0  0  0  0  0
  -21.0841   -8.8842   19.8917 H   0  0  0  0  0  0
  -22.3730  -10.9717   19.6151 H   0  0  0  0  0  0
  -21.2083   -7.6146   23.9687 H   0  0  0  0  0  0
  -21.1407   -6.0507   25.9038 H   0  0  0  0  0  0
  -22.0636   -2.7590   23.2869 H   0  0  0  0  0  0
  -22.4163  -11.9849   22.4725 H   0  0  0  0  0  0
  -21.1127  -13.1219   22.2712 H   0  0  0  0  0  0
  -24.6399  -15.8393   20.4595 H   0  0  0  0  0  0
  -26.2662  -15.6243   20.0569 H   0  0  0  0  0  0
  -26.7139  -32.5484   23.1114 H   0  0  0  0  0  0
  -24.9995  -33.9745   25.0409 H   0  0  0  0  0  0
  -22.7096  -31.3004   21.3964 H   0  0  0  0  0  0
  -23.3759  -35.9623   23.3323 H   0  0  0  0  0  0
  -24.3561  -36.8905   22.2066 H   0  0  0  0  0  0
  -23.7199  -37.6494   23.6650 H   0  0  0  0  0  0
  -26.0797  -31.5503   20.5982 H   0  0  0  0  0  0
  -26.8413  -30.8515   21.9969 H   0  0  0  0  0  0
  -28.1203  -29.0040   21.1842 H   0  0  0  0  0  0
  -26.0215  -25.8964   19.0609 H   0  0  0  0  0  0
  -23.9815  -27.2737   19.0376 H   0  0  0  0  0  0
  -23.7523  -30.5740   19.3975 H   0  0  0  0  0  0
  -22.7578  -29.2317   19.8641 H   0  0  0  0  0  0
  -25.1281  -36.1995   25.0849 H   0  0  0  0  0  0
  -20.9959  -28.3288   24.1387 H   0  0  0  0  0  0
  -20.5717  -26.2314   23.3666 H   0  0  0  0  0  0
  -21.6678  -26.7416   22.1270 H   0  0  0  0  0  0
  -19.6984  -25.6217   21.1317 H   0  0  0  0  0  0
  -19.6771  -27.3108   20.6728 H   0  0  0  0  0  0
  -17.4190  -26.6524   21.4086 H   0  0  0  0  0  0
  -18.0452  -26.0110   22.9104 H   0  0  0  0  0  0
  -19.8021  -30.7254   24.2188 H   0  0  0  0  0  0
  -17.5070  -31.6220   24.5231 H   0  0  0  0  0  0
  -15.5401  -30.2911   23.7743 H   0  0  0  0  0  0
  -15.8686  -28.0794   22.7115 H   0  0  0  0  0  0
  -24.5871  -30.7109   25.7775 H   0  0  0  0  0  0
  -24.8917  -32.2901   26.4913 H   0  0  0  0  0  0
  -25.8042  -30.8881   27.0209 H   0  0  0  0  0  0
  -26.2888  -29.6794   24.1197 H   0  0  0  0  0  0
  -27.4048  -29.7314   25.4668 H   0  0  0  0  0  0
  -27.8749  -30.4367   23.9368 H   0  0  0  0  0  0
  -27.2651  -33.3641   26.2086 H   0  0  0  0  0  0
  -28.3832  -32.6923   25.0299 H   0  0  0  0  0  0
  -28.0720  -31.8454   26.5386 H   0  0  0  0  0  0
  -28.2619  -38.0081   24.7517 H   0  0  0  0  0  0
  -28.1053  -36.2618   24.6307 H   0  0  0  0  0  0
  -27.2288  -37.1470   25.8866 H   0  0  0  0  0  0
  -20.9374  -29.8833   21.6914 H   0  0  0  0  0  0
  -26.0197  -38.2889   24.1403 H   0  0  0  0  0  0
  -30.6541  -20.3883   21.6151 H   0  0  0  0  0  0
  -28.4101  -16.6499   19.2681 H   0  0  0  0  0  0
  -30.1079  -14.5618   23.0320 H   0  0  0  0  0  0
  -32.0686  -17.1438   22.4225 H   0  0  0  0  0  0
  -30.8860  -17.8053   23.5524 H   0  0  0  0  0  0
  -32.0619  -18.8634   22.7731 H   0  0  0  0  0  0
  -26.4609  -17.3067   18.4597 H   0  0  0  0  0  0
  -25.6641  -18.7733   17.9432 H   0  0  0  0  0  0
  -25.9863  -18.5315   19.6570 H   0  0  0  0  0  0
  -28.0396  -21.3589   18.9440 H   0  0  0  0  0  0
  -29.7489  -21.5774   18.8379 H   0  0  0  0  0  0
  -27.2843  -25.0223   21.2538 H   0  0  0  0  0  0
  -28.9917  -25.1337   21.5823 H   0  0  0  0  0  0
  -28.8274  -22.5539   21.3875 H   0  0  0  0  0  0
  -28.5353  -15.8752   24.2663 H   0  0  0  0  0  0
  -28.2777  -16.9648   22.9499 H   0  0  0  0  0  0
  1 25  1  0  0  0
  1 30  2  0  0  0
  1 84  1  0  0  0
  2  3  1  0  0  0
  2 25  1  0  0  0
  2 88  1  0  0  0
  2 89  1  0  0  0
  3  4  1  0  0  0
  3 90  1  0  0  0
  3 91  1  0  0  0
  4  5  1  0  0  0
  4 92  1  0  0  0
  4 93  1  0  0  0
  5  6  1  0  0  0
  5 26  1  0  0  0
  5 94  1  0  0  0
  6 25  1  0  0  0
  6 95  1  0  0  0
  6 96  1  0  0  0
  7  8  2  0  0  0
  7 26  1  0  0  0
  7 29  1  0  0  0
  8  9  1  0  0  0
  8 22  1  0  0  0
  9 10  1  0  0  0
  9 27  2  0  0  0
 10 11  2  0  0  0
 10 15  1  0  0  0
 11 12  1  0  0  0
 11 97  1  0  0  0
 12 13  2  0  0  0
 12 98  1  0  0  0
 13 14  1  0  0  0
 13 31  1  0  0  0
 14 15  2  0  0  0
 14 99  1  0  0  0
 15100  1  0  0  0
 16 17  2  0  0  0
 16 21  1  0  0  0
 16 31  1  0  0  0
 17 18  1  0  0  0
 17101  1  0  0  0
 18 19  2  0  0  0
 18102  1  0  0  0
 19 20  1  0  0  0
 19 24  1  0  0  0
 20 21  2  0  0  0
 20103  1  0  0  0
 21 23  1  0  0  0
 22 28  1  0  0  0
 22 32  2  0  0  0
 26 27  1  0  0  0
 28104  1  0  0  0
 28105  1  0  0  0
 29106  1  0  0  0
 29107  1  0  0  0
 33 34  1  0  0  0
 33 66  1  0  0  0
 33 70  2  0  0  0
 34 36  1  0  0  0
 34 59  1  0  0  0
 34108  1  0  0  0
 35 44  2  0  0  0
 35 45  1  0  0  0
 35 68  1  0  0  0
 36 56  1  0  0  0
 36109  1  0  0  0
 37 39  1  0  0  0
 37 47  1  0  0  0
 37 66  1  0  0  0
 37110  1  0  0  0
 38 43  2  0  0  0
 38 46  1  0  0  0
 38 47  1  0  0  0
 39 64  1  0  0  0
 39 67  2  0  0  0
 40 52  1  0  0  0
 40 53  2  0  0  0
 40 58  1  0  0  0
 41111  1  0  0  0
 41112  1  0  0  0
 41113  1  0  0  0
 41 48  1  0  0  0
 42 43  1  0  0  0
 42 66  1  0  0  0
 42114  1  0  0  0
 42115  1  0  0  0
 43 44  1  0  0  0
 44116  1  0  0  0
 45 46  2  0  0  0
 45117  1  0  0  0
 46118  1  0  0  0
 47119  1  0  0  0
 47120  1  0  0  0
 48 56  1  0  0  0
 48 65  1  0  0  0
 48121  1  0  0  0
 49 50  1  0  0  0
 49 53  1  0  0  0
 49 64  1  0  0  0
 49122  1  0  0  0
 50 51  1  0  0  0
 50123  1  0  0  0
 50124  1  0  0  0
 51 52  1  0  0  0
 51125  1  0  0  0
 51126  1  0  0  0
 52127  1  0  0  0
 52128  1  0  0  0
 53 54  1  0  0  0
 54 55  2  0  0  0
 54129  1  0  0  0
 55 57  1  0  0  0
 55130  1  0  0  0
 56 69  2  0  0  0
 57 58  2  0  0  0
 57131  1  0  0  0
 58132  1  0  0  0
 59 60  1  0  0  0
 59 61  1  0  0  0
 59 62  1  0  0  0
 60133  1  0  0  0
 60134  1  0  0  0
 60135  1  0  0  0
 61136  1  0  0  0
 61137  1  0  0  0
 61138  1  0  0  0
 62139  1  0  0  0
 62140  1  0  0  0
 62141  1  0  0  0
 63 65  1  0  0  0
 63142  1  0  0  0
 63143  1  0  0  0
 63144  1  0  0  0
 64145  1  0  0  0
 65146  1  0  0  0
 68 82  1  0  0  0
 71 73  2  0  0  0
 71 74  1  0  0  0
 71147  1  0  0  0
 72 75  2  0  0  0
 72 76  1  0  0  0
 72148  1  0  0  0
 73 75  1  0  0  0
 73 79  1  0  0  0
 74 76  2  0  0  0
 74 81  1  0  0  0
 75 84  1  0  0  0
 76 87  1  0  0  0
 77 84  1  0  0  0
 77 85  2  0  0  0
 77149  1  0  0  0
 78 82  1  0  0  0
 78 83  1  0  0  0
 78 86  2  0  0  0
 79150  1  0  0  0
 79151  1  0  0  0
 79152  1  0  0  0
 80 87  1  0  0  0
 80153  1  0  0  0
 80154  1  0  0  0
 80155  1  0  0  0
 81 83  1  0  0  0
 81156  1  0  0  0
 81157  1  0  0  0
 82158  1  0  0  0
 82159  1  0  0  0
 83160  1  0  0  0
 85161  1  0  0  0
 85162  1  0  0  0
M  CHG  1  85   1
M  ISO  4   1 100  68 101  82 101  84 100
M  END
> <chiral flag>
0

> <version>
0

> <s_m_source_file>
/data/baiqing/PycharmProjects/Reinvent-master-3.2/result/LINK_invent/BTK/process_docking_weight1_custom_product_contain_oxygen_bond_distance_aromatic_linkinvent_7_9_3/rearranged_h_0106.sdf

> <i_m_source_file_index>
69

> <r_mmod_Potential_Energy-OPLS-2005>
199.618637084961

> <r_mmod_Stretch_Energy-OPLS-2005>
98.4361953735352

> <r_mmod_Bend_Energy-OPLS-2005>
152.164886474609

> <r_mmod_Torsional_Energy-OPLS-2005>
353.814483642578

> <r_mmod_Improper_Torsional_Energy-OPLS-2005>
4.03773069381714

> <r_mmod_Van_der_Waal_Energy-OPLS-2005>
134.07177734375

> <r_mmod_Electrostatic_Energy-OPLS-2005>
-95.9944763183594

> <r_mmod_Solvation_Energy-OPLS-2005>
-498.271209716797

> <b_mmod_Minimization_Converged-OPLS-2005>
0

> <r_mmod_RMS_Derivative-OPLS-2005>
4.49732208251953

$$$$
69
                    3D
 Structure written by MMmdl.
161169  0  0  1  0            999 V2000
  -30.5410  -14.7593   20.5776 C   0  0  0  0  0  0
  -30.4570  -12.5138   19.4351 C   0  0  0  0  0  0
  -29.5001  -12.5345   18.2156 C   0  0  0  0  0  0
  -28.0091  -12.4217   18.6108 C   0  0  0  0  0  0
  -27.6519  -13.2136   19.8976 C   0  0  2  0  0  0
  -28.7209  -12.9619   20.9873 C   0  0  0  0  0  0
  -25.2491  -13.8170   20.5694 C   0  0  0  0  0  0
  -24.1844  -13.0470   20.9282 C   0  0  0  0  0  0
  -24.6407  -11.6916   20.8864 C   0  0  0  0  0  0
  -23.9105  -10.4325   21.0458 C   0  0  0  0  0  0
  -24.3650   -9.4220   21.9244 C   0  0  0  0  0  0
  -23.6326   -8.2255   22.0779 C   0  0  0  0  0  0
  -22.4325   -8.0288   21.3532 C   0  0  0  0  0  0
  -21.9960   -9.0280   20.4663 C   0  0  0  0  0  0
  -22.7268  -10.2174   20.3090 C   0  0  0  0  0  0
  -21.6845   -6.0745   22.5264 C   0  0  0  0  0  0
  -21.3970   -6.5640   23.8190 C   0  0  0  0  0  0
  -21.3643   -5.6769   24.9150 C   0  0  0  0  0  0
  -21.6049   -4.3051   24.7192 C   0  0  0  0  0  0
  -21.8801   -3.8150   23.4325 C   0  0  0  0  0  0
  -21.9185   -4.6971   22.3375 C   0  0  0  0  0  0
  -22.7822  -13.5271   21.1922 C   0  0  0  0  0  0
  -22.1651   -4.2150   21.0956 F   0  0  0  0  0  0
  -21.5699   -3.4529   25.7735 F   0  0  0  0  0  0
  -29.9705  -13.4968   20.4378 N   0  0  0  0  0  0
  -26.2983  -12.9340   20.3500 N   0  0  0  0  0  0
  -25.9360  -11.6520   20.5990 N   0  0  0  0  0  0
  -22.0373  -12.8376   22.0489 N   0  0  0  0  0  0
  -25.4119  -15.1903   20.3857 N   0  0  0  0  0  0
  -31.7067  -14.8955   20.1824 O   0  0  0  0  0  0
  -21.6646   -6.8890   21.4235 O   0  0  0  0  0  0
  -22.3580  -14.5585   20.6696 O   0  0  0  0  0  0
  -24.6302  -31.8531   23.1897 C   0  0  0  0  0  0
  -25.9118  -32.4732   23.8243 C   0  0  1  0  0  0
  -27.2712  -27.3200   20.1209 C   0  0  0  0  0  0
  -25.5897  -33.8522   24.2196 N   0  0  0  0  0  0
  -23.4254  -30.4670   21.5383 C   0  0  2  0  0  0
  -24.8763  -28.9029   20.1201 C   0  0  0  0  0  0
  -22.7457  -29.4673   22.5012 C   0  0  0  0  0  0
  -18.0297  -28.1494   22.8558 C   0  0  0  0  0  0
  -24.1484  -36.7252   23.2644 C   0  0  0  0  0  0
  -25.9571  -30.7931   21.3351 C   0  0  0  0  0  0
  -26.0446  -29.4060   20.7084 C   0  0  0  0  0  0
  -27.2371  -28.6233   20.7085 C   0  0  0  0  0  0
  -26.0710  -26.8636   19.5220 C   0  0  0  0  0  0
  -24.8906  -27.6315   19.5235 C   0  0  0  0  0  0
  -23.6300  -29.7640   20.1679 C   0  0  0  0  0  0
  -25.4102  -36.3071   24.0362 C   0  0  1  0  0  0
  -20.5891  -28.3776   23.1340 C   0  0  2  0  0  0
  -20.6805  -26.9514   22.5426 C   0  0  0  0  0  0
  -19.5738  -26.6531   21.5262 C   0  0  0  0  0  0
  -18.1923  -26.8057   22.1683 C   0  0  0  0  0  0
  -19.1545  -28.8946   23.2967 C   0  0  0  0  0  0
  -18.9482  -30.1558   23.8946 C   0  0  0  0  0  0
  -17.6472  -30.6665   24.0663 C   0  0  0  0  0  0
  -25.9038  -34.9437   23.5087 C   0  0  0  0  0  0
  -16.5360  -29.9178   23.6412 C   0  0  0  0  0  0
  -16.7289  -28.6634   23.0366 C   0  0  0  0  0  0
  -26.4486  -31.6505   25.0576 C   0  0  0  0  0  0
  -25.3771  -31.3654   26.1367 C   0  0  0  0  0  0
  -27.0186  -30.2915   24.5858 C   0  0  0  0  0  0
  -27.6081  -32.4240   25.7298 C   0  0  0  0  0  0
  -27.5554  -37.1757   24.8521 C   0  0  0  0  0  0
  -21.4165  -29.3092   22.3699 N   0  0  0  0  0  0
  -26.4242  -37.3770   23.9477 N   0  0  0  0  0  0
  -24.6934  -31.0566   22.0804 N   0  0  0  0  0  0
  -23.4150  -28.8267   23.3176 O   0  0  0  0  0  0
  -28.4316  -26.5168   20.1643 O   0  0  0  0  0  0
  -26.5643  -34.8979   22.4678 O   0  0  0  0  0  0
  -23.5485  -32.1310   23.7232 O   0  0  0  0  0  0
  -29.1313  -18.1214   19.8527 C   0  0  0  0  0  0
  -29.1857  -19.5379   19.8964 C   0  0  0  0  0  0
  -31.2414  -17.9760   20.9983 C   0  0  0  0  0  0
  -30.1036  -17.2892   20.4859 C   0  0  0  0  0  0
  -31.3192  -19.4054   21.0289 C   0  0  0  0  0  0
  -30.2467  -20.2289   20.5325 C   0  0  0  0  0  0
  -28.9869  -16.4593   23.2010 C   0  0  0  0  0  0
  -28.0189  -17.3420   24.0030 C   0  0  0  0  0  0
  -28.5763  -15.9917   21.7885 C   0  0  0  0  0  0
  -29.4466  -24.0602   20.3817 C   0  0  0  0  0  0
  -28.3891  -25.0856   19.7773 C   0  0  0  0  0  0
  -29.2111  -22.5087   20.1113 C   0  0  0  0  0  0
  -32.4727  -19.9720   21.5879 N   0  0  0  0  0  0
  -29.7542  -15.9035   20.8565 N   0  0  0  0  0  0
  -30.0859  -16.1591   23.6697 O   0  0  0  0  0  0
  -30.2512  -21.6328   20.6851 O   0  0  0  0  0  0
  -31.4742  -12.7298   19.0999 H   0  0  0  0  0  0
  -30.5117  -11.5143   19.8685 H   0  0  0  0  0  0
  -29.7553  -11.7254   17.5322 H   0  0  0  0  0  0
  -29.6464  -13.4568   17.6494 H   0  0  0  0  0  0
  -27.7824  -11.3648   18.7464 H   0  0  0  0  0  0
  -27.3801  -12.7598   17.7861 H   0  0  0  0  0  0
  -27.6872  -14.2699   19.6344 H   0  0  0  0  0  0
  -28.8095  -11.8885   21.1599 H   0  0  0  0  0  0
  -28.5053  -13.3198   21.9899 H   0  0  0  0  0  0
  -25.2785   -9.5714   22.4854 H   0  0  0  0  0  0
  -23.9999   -7.4639   22.7522 H   0  0  0  0  0  0
  -21.0866   -8.8820   19.8998 H   0  0  0  0  0  0
  -22.3725  -10.9738   19.6235 H   0  0  0  0  0  0
  -21.1927   -7.6138   23.9693 H   0  0  0  0  0  0
  -21.1490   -6.0515   25.9041 H   0  0  0  0  0  0
  -22.0621   -2.7632   23.2817 H   0  0  0  0  0  0
  -22.3863  -12.0102   22.5054 H   0  0  0  0  0  0
  -21.1002  -13.1526   22.2593 H   0  0  0  0  0  0
  -24.6156  -15.8129   20.4480 H   0  0  0  0  0  0
  -26.2030  -15.6164   19.9238 H   0  0  0  0  0  0
  -26.7189  -32.5469   23.1033 H   0  0  0  0  0  0
  -25.0074  -33.9649   25.0353 H   0  0  0  0  0  0
  -22.7329  -31.2935   21.3721 H   0  0  0  0  0  0
  -23.3739  -35.9587   23.3301 H   0  0  0  0  0  0
  -24.3594  -36.8813   22.2041 H   0  0  0  0  0  0
  -23.7202  -37.6467   23.6612 H   0  0  0  0  0  0
  -26.0208  -31.5278   20.5316 H   0  0  0  0  0  0
  -26.8678  -30.9002   21.9178 H   0  0  0  0  0  0
  -28.1297  -29.0062   21.1868 H   0  0  0  0  0  0
  -26.0142  -25.8911   19.0645 H   0  0  0  0  0  0
  -23.9931  -27.2172   19.0758 H   0  0  0  0  0  0
  -23.7075  -30.5060   19.3769 H   0  0  0  0  0  0
  -22.7651  -29.1506   19.9047 H   0  0  0  0  0  0
  -25.1254  -36.1879   25.0836 H   0  0  0  0  0  0
  -21.0010  -28.3353   24.1465 H   0  0  0  0  0  0
  -20.5852  -26.2369   23.3603 H   0  0  0  0  0  0
  -21.6663  -26.7712   22.1078 H   0  0  0  0  0  0
  -19.6911  -25.6493   21.1185 H   0  0  0  0  0  0
  -19.6594  -27.3499   20.6892 H   0  0  0  0  0  0
  -17.4192  -26.6916   21.4047 H   0  0  0  0  0  0
  -18.0245  -26.0199   22.9061 H   0  0  0  0  0  0
  -19.7941  -30.7454   24.2214 H   0  0  0  0  0  0
  -17.5027  -31.6323   24.5347 H   0  0  0  0  0  0
  -15.5361  -30.3105   23.7756 H   0  0  0  0  0  0
  -15.8694  -28.1043   22.6931 H   0  0  0  0  0  0
  -24.6100  -30.6752   25.7842 H   0  0  0  0  0  0
  -24.8817  -32.2775   26.4676 H   0  0  0  0  0  0
  -25.8261  -30.9078   27.0184 H   0  0  0  0  0  0
  -26.2581  -29.6747   24.1047 H   0  0  0  0  0  0
  -27.4036  -29.7095   25.4227 H   0  0  0  0  0  0
  -27.8426  -30.4141   23.8835 H   0  0  0  0  0  0
  -27.2698  -33.3644   26.1657 H   0  0  0  0  0  0
  -28.3948  -32.6576   25.0115 H   0  0  0  0  0  0
  -28.0605  -31.8458   26.5359 H   0  0  0  0  0  0
  -28.2665  -37.9976   24.7568 H   0  0  0  0  0  0
  -28.0953  -36.2527   24.6340 H   0  0  0  0  0  0
  -27.2310  -37.1418   25.8941 H   0  0  0  0  0  0
  -20.9395  -29.8619   21.6703 H   0  0  0  0  0  0
  -26.0127  -38.2853   24.1515 H   0  0  0  0  0  0
  -28.2388  -17.6927   19.4167 H   0  0  0  0  0  0
  -28.3643  -20.0982   19.4666 H   0  0  0  0  0  0
  -32.0303  -17.3932   21.4579 H   0  0  0  0  0  0
  -27.2689  -16.7535   24.5322 H   0  0  0  0  0  0
  -27.5070  -18.0621   23.3647 H   0  0  0  0  0  0
  -28.5716  -17.9134   24.7466 H   0  0  0  0  0  0
  -27.8510  -16.7331   21.4524 H   0  0  0  0  0  0
  -27.9121  -15.1525   21.8579 H   0  0  0  0  0  0
  -29.5416  -24.2122   21.4581 H   0  0  0  0  0  0
  -30.4215  -24.2928   19.9574 H   0  0  0  0  0  0
  -27.4118  -24.6564   20.0049 H   0  0  0  0  0  0
  -28.5102  -25.0562   18.6922 H   0  0  0  0  0  0
  -29.1800  -22.3746   19.0246 H   0  0  0  0  0  0
  -28.2146  -22.2228   20.4761 H   0  0  0  0  0  0
  -32.7734  -20.8958   21.2900 H   0  0  0  0  0  0
  -33.2546  -19.3622   21.8166 H   0  0  0  0  0  0
  1 25  1  0  0  0
  1 30  2  0  0  0
  1 84  1  0  0  0
  2  3  1  0  0  0
  2 25  1  0  0  0
  2 87  1  0  0  0
  2 88  1  0  0  0
  3  4  1  0  0  0
  3 89  1  0  0  0
  3 90  1  0  0  0
  4  5  1  0  0  0
  4 91  1  0  0  0
  4 92  1  0  0  0
  5  6  1  0  0  0
  5 26  1  0  0  0
  5 93  1  0  0  0
  6 25  1  0  0  0
  6 94  1  0  0  0
  6 95  1  0  0  0
  7  8  2  0  0  0
  7 26  1  0  0  0
  7 29  1  0  0  0
  8  9  1  0  0  0
  8 22  1  0  0  0
  9 10  1  0  0  0
  9 27  2  0  0  0
 10 11  2  0  0  0
 10 15  1  0  0  0
 11 12  1  0  0  0
 11 96  1  0  0  0
 12 13  2  0  0  0
 12 97  1  0  0  0
 13 14  1  0  0  0
 13 31  1  0  0  0
 14 15  2  0  0  0
 14 98  1  0  0  0
 15 99  1  0  0  0
 16 17  2  0  0  0
 16 21  1  0  0  0
 16 31  1  0  0  0
 17 18  1  0  0  0
 17100  1  0  0  0
 18 19  2  0  0  0
 18101  1  0  0  0
 19 20  1  0  0  0
 19 24  1  0  0  0
 20 21  2  0  0  0
 20102  1  0  0  0
 21 23  1  0  0  0
 22 28  1  0  0  0
 22 32  2  0  0  0
 26 27  1  0  0  0
 28103  1  0  0  0
 28104  1  0  0  0
 29105  1  0  0  0
 29106  1  0  0  0
 33 34  1  0  0  0
 33 66  1  0  0  0
 33 70  2  0  0  0
 34 36  1  0  0  0
 34 59  1  0  0  0
 34107  1  0  0  0
 35 44  2  0  0  0
 35 45  1  0  0  0
 35 68  1  0  0  0
 36 56  1  0  0  0
 36108  1  0  0  0
 37 39  1  0  0  0
 37 47  1  0  0  0
 37 66  1  0  0  0
 37109  1  0  0  0
 38 43  2  0  0  0
 38 46  1  0  0  0
 38 47  1  0  0  0
 39 64  1  0  0  0
 39 67  2  0  0  0
 40 52  1  0  0  0
 40 53  2  0  0  0
 40 58  1  0  0  0
 41110  1  0  0  0
 41111  1  0  0  0
 41112  1  0  0  0
 41 48  1  0  0  0
 42 43  1  0  0  0
 42 66  1  0  0  0
 42113  1  0  0  0
 42114  1  0  0  0
 43 44  1  0  0  0
 44115  1  0  0  0
 45 46  2  0  0  0
 45116  1  0  0  0
 46117  1  0  0  0
 47118  1  0  0  0
 47119  1  0  0  0
 48 56  1  0  0  0
 48 65  1  0  0  0
 48120  1  0  0  0
 49 50  1  0  0  0
 49 53  1  0  0  0
 49 64  1  0  0  0
 49121  1  0  0  0
 50 51  1  0  0  0
 50122  1  0  0  0
 50123  1  0  0  0
 51 52  1  0  0  0
 51124  1  0  0  0
 51125  1  0  0  0
 52126  1  0  0  0
 52127  1  0  0  0
 53 54  1  0  0  0
 54 55  2  0  0  0
 54128  1  0  0  0
 55 57  1  0  0  0
 55129  1  0  0  0
 56 69  2  0  0  0
 57 58  2  0  0  0
 57130  1  0  0  0
 58131  1  0  0  0
 59 60  1  0  0  0
 59 61  1  0  0  0
 59 62  1  0  0  0
 60132  1  0  0  0
 60133  1  0  0  0
 60134  1  0  0  0
 61135  1  0  0  0
 61136  1  0  0  0
 61137  1  0  0  0
 62138  1  0  0  0
 62139  1  0  0  0
 62140  1  0  0  0
 63 65  1  0  0  0
 63141  1  0  0  0
 63142  1  0  0  0
 63143  1  0  0  0
 64144  1  0  0  0
 65145  1  0  0  0
 68 81  1  0  0  0
 71 72  2  0  0  0
 71 74  1  0  0  0
 71146  1  0  0  0
 72 76  1  0  0  0
 72147  1  0  0  0
 73 74  2  0  0  0
 73 75  1  0  0  0
 73148  1  0  0  0
 74 84  1  0  0  0
 75 76  2  0  0  0
 75 83  1  0  0  0
 76 86  1  0  0  0
 77 78  1  0  0  0
 77 79  1  0  0  0
 77 85  2  0  0  0
 78149  1  0  0  0
 78150  1  0  0  0
 78151  1  0  0  0
 79 84  1  0  0  0
 79152  1  0  0  0
 79153  1  0  0  0
 80 81  1  0  0  0
 80 82  1  0  0  0
 80154  1  0  0  0
 80155  1  0  0  0
 81156  1  0  0  0
 81157  1  0  0  0
 82 86  1  0  0  0
 82158  1  0  0  0
 82159  1  0  0  0
 83160  1  0  0  0
 83161  1  0  0  0
M  ISO  4   1 100  68 101  81 101  84 100
M  END
> <chiral flag>
0

> <version>
0

> <s_m_source_file>
/data/baiqing/PycharmProjects/Reinvent-master-3.2/result/LINK_invent/BTK/process_docking_weight1_custom_product_contain_oxygen_bond_distance_aromatic_linkinvent_7_9_3/rearranged_h_0106.sdf

> <i_m_source_file_index>
70

> <r_mmod_Potential_Energy-OPLS-2005>
210.129089355469

> <r_mmod_Stretch_Energy-OPLS-2005>
108.086837768555

> <r_mmod_Bend_Energy-OPLS-2005>
192.701675415039

> <r_mmod_Torsional_Energy-OPLS-2005>
310.046569824219

> <r_mmod_Improper_Torsional_Energy-OPLS-2005>
14.4207382202148

> <r_mmod_Van_der_Waal_Energy-OPLS-2005>
159.307022094727

> <r_mmod_Electrostatic_Energy-OPLS-2005>
-416.597412109375

> <r_mmod_Solvation_Energy-OPLS-2005>
-227.845687866211

> <b_mmod_Minimization_Converged-OPLS-2005>
0

> <r_mmod_RMS_Derivative-OPLS-2005>
10.1348972320557

$$$$
70
                    3D
 Structure written by MMmdl.
168177  0  0  1  0            999 V2000
  -30.6635  -14.6636   20.5687 C   0  0  0  0  0  0
  -30.4297  -12.4238   19.4686 C   0  0  0  0  0  0
  -29.5074  -12.5239   18.2355 C   0  0  0  0  0  0
  -28.0323  -12.3580   18.6449 C   0  0  0  0  0  0
  -27.6492  -13.2335   19.8676 C   0  0  2  0  0  0
  -28.6900  -13.1071   20.9989 C   0  0  0  0  0  0
  -25.2497  -13.8183   20.5713 C   0  0  0  0  0  0
  -24.1764  -13.0423   20.9129 C   0  0  0  0  0  0
  -24.6375  -11.6913   20.8712 C   0  0  0  0  0  0
  -23.9054  -10.4295   21.0385 C   0  0  0  0  0  0
  -24.3604   -9.4214   21.9159 C   0  0  0  0  0  0
  -23.6276   -8.2251   22.0748 C   0  0  0  0  0  0
  -22.4247   -8.0283   21.3555 C   0  0  0  0  0  0
  -21.9883   -9.0253   20.4647 C   0  0  0  0  0  0
  -22.7222  -10.2130   20.3047 C   0  0  0  0  0  0
  -21.6856   -6.0726   22.5282 C   0  0  0  0  0  0
  -21.4025   -6.5627   23.8218 C   0  0  0  0  0  0
  -21.3663   -5.6779   24.9175 C   0  0  0  0  0  0
  -21.6046   -4.3043   24.7227 C   0  0  0  0  0  0
  -21.8813   -3.8134   23.4347 C   0  0  0  0  0  0
  -21.9197   -4.6951   22.3407 C   0  0  0  0  0  0
  -22.7792  -13.5224   21.1812 C   0  0  0  0  0  0
  -22.1650   -4.2135   21.0984 F   0  0  0  0  0  0
  -21.5617   -3.4525   25.7739 F   0  0  0  0  0  0
  -30.0092  -13.4557   20.4458 N   0  0  0  0  0  0
  -26.2975  -12.9419   20.3391 N   0  0  0  0  0  0
  -25.9325  -11.6545   20.5766 N   0  0  0  0  0  0
  -22.0460  -12.8228   22.0393 N   0  0  0  0  0  0
  -25.4098  -15.1914   20.4261 N   0  0  0  0  0  0
  -31.7548  -14.8341   20.0162 O   0  0  0  0  0  0
  -21.6634   -6.8868   21.4242 O   0  0  0  0  0  0
  -22.3485  -14.5554   20.6703 O   0  0  0  0  0  0
  -24.6279  -31.8600   23.2008 C   0  0  0  0  0  0
  -25.9118  -32.4783   23.8355 C   0  0  1  0  0  0
  -27.2312  -27.2995   20.1165 C   0  0  0  0  0  0
  -25.5933  -33.8585   24.2264 N   0  0  0  0  0  0
  -23.4225  -30.4809   21.5443 C   0  0  2  0  0  0
  -24.8715  -28.9342   20.1083 C   0  0  0  0  0  0
  -22.7496  -29.4605   22.4943 C   0  0  0  0  0  0
  -18.0284  -28.1380   22.8465 C   0  0  0  0  0  0
  -24.1488  -36.7293   23.2643 C   0  0  0  0  0  0
  -25.9665  -30.7820   21.3802 C   0  0  0  0  0  0
  -26.0392  -29.4092   20.7172 C   0  0  0  0  0  0
  -27.2159  -28.6009   20.7154 C   0  0  0  0  0  0
  -26.0423  -26.8851   19.4892 C   0  0  0  0  0  0
  -24.8763  -27.6755   19.4883 C   0  0  0  0  0  0
  -23.6391  -29.8159   20.1594 C   0  0  0  0  0  0
  -25.4114  -36.3084   24.0325 C   0  0  1  0  0  0
  -20.5891  -28.3667   23.1276 C   0  0  2  0  0  0
  -20.6769  -26.9391   22.5411 C   0  0  0  0  0  0
  -19.5742  -26.6354   21.5213 C   0  0  0  0  0  0
  -18.1915  -26.7916   22.1612 C   0  0  0  0  0  0
  -19.1543  -28.8844   23.2864 C   0  0  0  0  0  0
  -18.9466  -30.1450   23.8880 C   0  0  0  0  0  0
  -17.6465  -30.6581   24.0555 C   0  0  0  0  0  0
  -25.9054  -34.9457   23.5094 C   0  0  0  0  0  0
  -16.5351  -29.9070   23.6357 C   0  0  0  0  0  0
  -16.7267  -28.6499   23.0347 C   0  0  0  0  0  0
  -26.4494  -31.6635   25.0760 C   0  0  0  0  0  0
  -25.3716  -31.3792   26.1494 C   0  0  0  0  0  0
  -27.0371  -30.3053   24.6270 C   0  0  0  0  0  0
  -27.6042  -32.4420   25.7522 C   0  0  0  0  0  0
  -27.5582  -37.1804   24.8453 C   0  0  0  0  0  0
  -21.4212  -29.3017   22.3683 N   0  0  0  0  0  0
  -26.4277  -37.3789   23.9415 N   0  0  0  0  0  0
  -24.6901  -31.0592   22.0969 N   0  0  0  0  0  0
  -23.4210  -28.8146   23.3029 O   0  0  0  0  0  0
  -28.3513  -26.4538   20.2266 O   0  0  0  0  0  0
  -26.5636  -34.8920   22.4670 O   0  0  0  0  0  0
  -23.5437  -32.1413   23.7316 O   0  0  0  0  0  0
  -30.1281  -19.2655   19.8576 C   0  0  0  0  0  0
  -30.5161  -17.9138   20.1649 C   0  0  0  0  0  0
  -28.0868  -18.9300   21.0660 C   0  0  0  0  0  0
  -28.8883  -19.8228   20.2963 C   0  0  0  0  0  0
  -29.6974  -17.0208   20.9220 C   0  0  0  0  0  0
  -28.4561  -17.5807   21.3473 C   0  0  0  0  0  0
  -27.2431  -20.9333   18.9703 C   0  0  0  0  0  0
  -28.6849  -22.4071   20.1969 C   0  0  0  0  0  0
  -26.2743  -22.0739   18.6844 C   0  0  0  0  0  0
  -27.0301  -23.3778   18.5153 C   0  0  0  0  0  0
  -27.8474  -23.7298   19.7753 C   0  0  2  0  0  0
  -30.6802  -17.6813   24.0223 C   0  0  0  0  0  0
  -28.5692  -25.1599   19.5109 C   0  0  0  0  0  0
  -31.2739  -16.3609   23.5066 C   0  0  0  0  0  0
  -30.2607  -15.4221   22.8129 C   0  0  0  0  0  0
  -28.3012  -21.1105   19.8151 N   0  0  0  0  0  0
  -27.5385  -16.8005   22.0466 N   0  0  0  0  0  0
  -30.1038  -15.6563   21.3544 N   0  0  0  0  0  0
  -27.0151  -19.8655   18.3847 O   0  0  0  0  0  0
  -29.6904  -22.5735   20.8935 O   0  0  0  0  0  0
  -31.4738  -12.5313   19.1701 H   0  0  0  0  0  0
  -30.3586  -11.4338   19.9206 H   0  0  0  0  0  0
  -29.7762  -11.7645   17.4996 H   0  0  0  0  0  0
  -29.6455  -13.4885   17.7455 H   0  0  0  0  0  0
  -27.8736  -11.3049   18.8816 H   0  0  0  0  0  0
  -27.3789  -12.5861   17.8018 H   0  0  0  0  0  0
  -27.6585  -14.2699   19.5267 H   0  0  0  0  0  0
  -28.7031  -12.0932   21.4008 H   0  0  0  0  0  0
  -28.4049  -13.7493   21.8309 H   0  0  0  0  0  0
  -25.2751   -9.5695   22.4723 H   0  0  0  0  0  0
  -23.9992   -7.4653   22.7473 H   0  0  0  0  0  0
  -21.0809   -8.8793   19.8960 H   0  0  0  0  0  0
  -22.3681  -10.9669   19.6162 H   0  0  0  0  0  0
  -21.2029   -7.6137   23.9715 H   0  0  0  0  0  0
  -21.1475   -6.0510   25.9081 H   0  0  0  0  0  0
  -22.0588   -2.7592   23.2861 H   0  0  0  0  0  0
  -22.4097  -11.9925   22.4829 H   0  0  0  0  0  0
  -21.1099  -13.1284   22.2633 H   0  0  0  0  0  0
  -24.6376  -15.7987   20.6715 H   0  0  0  0  0  0
  -26.3073  -15.6417   20.6016 H   0  0  0  0  0  0
  -26.7192  -32.5424   23.1112 H   0  0  0  0  0  0
  -25.0084  -33.9729   25.0411 H   0  0  0  0  0  0
  -22.7159  -31.3013   21.4009 H   0  0  0  0  0  0
  -23.3758  -35.9619   23.3282 H   0  0  0  0  0  0
  -24.3557  -36.8936   22.2056 H   0  0  0  0  0  0
  -23.7218  -37.6473   23.6690 H   0  0  0  0  0  0
  -26.1171  -31.5484   20.6181 H   0  0  0  0  0  0
  -26.8397  -30.8172   22.0211 H   0  0  0  0  0  0
  -28.1067  -28.9620   21.2099 H   0  0  0  0  0  0
  -25.9791  -25.9247   19.0263 H   0  0  0  0  0  0
  -23.9803  -27.3012   19.0138 H   0  0  0  0  0  0
  -23.7605  -30.5937   19.4049 H   0  0  0  0  0  0
  -22.7572  -29.2496   19.8554 H   0  0  0  0  0  0
  -25.1305  -36.1926   25.0814 H   0  0  0  0  0  0
  -20.9994  -28.3227   24.1391 H   0  0  0  0  0  0
  -20.5657  -26.2284   23.3609 H   0  0  0  0  0  0
  -21.6637  -26.7410   22.1216 H   0  0  0  0  0  0
  -19.6914  -25.6266   21.1236 H   0  0  0  0  0  0
  -19.6672  -27.3176   20.6750 H   0  0  0  0  0  0
  -17.4201  -26.6669   21.3999 H   0  0  0  0  0  0
  -18.0299  -26.0060   22.9011 H   0  0  0  0  0  0
  -19.7938  -30.7277   24.2230 H   0  0  0  0  0  0
  -17.5009  -31.6257   24.5164 H   0  0  0  0  0  0
  -15.5353  -30.2958   23.7691 H   0  0  0  0  0  0
  -15.8659  -28.0815   22.7065 H   0  0  0  0  0  0
  -24.5858  -30.7186   25.7818 H   0  0  0  0  0  0
  -24.8966  -32.2977   26.4966 H   0  0  0  0  0  0
  -25.8039  -30.8927   27.0248 H   0  0  0  0  0  0
  -26.2987  -29.6773   24.1277 H   0  0  0  0  0  0
  -27.4030  -29.7350   25.4818 H   0  0  0  0  0  0
  -27.8864  -30.4336   23.9551 H   0  0  0  0  0  0
  -27.2642  -33.3740   26.2060 H   0  0  0  0  0  0
  -28.3858  -32.6969   25.0351 H   0  0  0  0  0  0
  -28.0721  -31.8587   26.5461 H   0  0  0  0  0  0
  -28.2613  -38.0098   24.7540 H   0  0  0  0  0  0
  -28.1073  -36.2642   24.6247 H   0  0  0  0  0  0
  -27.2302  -37.1412   25.8852 H   0  0  0  0  0  0
  -20.9406  -29.8747   21.6895 H   0  0  0  0  0  0
  -26.0157  -38.2860   24.1421 H   0  0  0  0  0  0
  -30.7826  -19.8611   19.2353 H   0  0  0  0  0  0
  -31.4769  -17.5644   19.8123 H   0  0  0  0  0  0
  -27.1158  -19.2723   21.3978 H   0  0  0  0  0  0
  -25.5601  -22.1402   19.5068 H   0  0  0  0  0  0
  -25.6992  -21.8547   17.7833 H   0  0  0  0  0  0
  -26.3006  -24.1325   18.2515 H   0  0  0  0  0  0
  -27.6949  -23.3064   17.6524 H   0  0  0  0  0  0
  -27.1532  -23.8897   20.5997 H   0  0  0  0  0  0
  -31.4304  -18.2453   24.5777 H   0  0  0  0  0  0
  -29.8430  -17.4987   24.6993 H   0  0  0  0  0  0
  -30.3314  -18.3276   23.2183 H   0  0  0  0  0  0
  -28.4851  -25.4019   18.4519 H   0  0  0  0  0  0
  -29.6369  -24.9799   19.6371 H   0  0  0  0  0  0
  -31.6838  -15.8377   24.3732 H   0  0  0  0  0  0
  -32.1273  -16.5547   22.8562 H   0  0  0  0  0  0
  -29.3024  -15.4593   23.3296 H   0  0  0  0  0  0
  -30.6036  -14.4001   22.9996 H   0  0  0  0  0  0
  -26.8661  -17.3047   22.6110 H   0  0  0  0  0  0
  -27.9327  -16.0158   22.5500 H   0  0  0  0  0  0
  1 25  1  0  0  0
  1 30  2  0  0  0
  1 88  1  0  0  0
  2  3  1  0  0  0
  2 25  1  0  0  0
  2 91  1  0  0  0
  2 92  1  0  0  0
  3  4  1  0  0  0
  3 93  1  0  0  0
  3 94  1  0  0  0
  4  5  1  0  0  0
  4 95  1  0  0  0
  4 96  1  0  0  0
  5  6  1  0  0  0
  5 26  1  0  0  0
  5 97  1  0  0  0
  6 25  1  0  0  0
  6 98  1  0  0  0
  6 99  1  0  0  0
  7  8  2  0  0  0
  7 26  1  0  0  0
  7 29  1  0  0  0
  8  9  1  0  0  0
  8 22  1  0  0  0
  9 10  1  0  0  0
  9 27  2  0  0  0
 10 11  2  0  0  0
 10 15  1  0  0  0
 11 12  1  0  0  0
 11100  1  0  0  0
 12 13  2  0  0  0
 12101  1  0  0  0
 13 14  1  0  0  0
 13 31  1  0  0  0
 14 15  2  0  0  0
 14102  1  0  0  0
 15103  1  0  0  0
 16 17  2  0  0  0
 16 21  1  0  0  0
 16 31  1  0  0  0
 17 18  1  0  0  0
 17104  1  0  0  0
 18 19  2  0  0  0
 18105  1  0  0  0
 19 20  1  0  0  0
 19 24  1  0  0  0
 20 21  2  0  0  0
 20106  1  0  0  0
 21 23  1  0  0  0
 22 28  1  0  0  0
 22 32  2  0  0  0
 26 27  1  0  0  0
 28107  1  0  0  0
 28108  1  0  0  0
 29109  1  0  0  0
 29110  1  0  0  0
 33 34  1  0  0  0
 33 66  1  0  0  0
 33 70  2  0  0  0
 34 36  1  0  0  0
 34 59  1  0  0  0
 34111  1  0  0  0
 35 44  2  0  0  0
 35 45  1  0  0  0
 35 68  1  0  0  0
 36 56  1  0  0  0
 36112  1  0  0  0
 37 39  1  0  0  0
 37 47  1  0  0  0
 37 66  1  0  0  0
 37113  1  0  0  0
 38 43  2  0  0  0
 38 46  1  0  0  0
 38 47  1  0  0  0
 39 64  1  0  0  0
 39 67  2  0  0  0
 40 52  1  0  0  0
 40 53  2  0  0  0
 40 58  1  0  0  0
 41114  1  0  0  0
 41115  1  0  0  0
 41116  1  0  0  0
 41 48  1  0  0  0
 42 43  1  0  0  0
 42 66  1  0  0  0
 42117  1  0  0  0
 42118  1  0  0  0
 43 44  1  0  0  0
 44119  1  0  0  0
 45 46  2  0  0  0
 45120  1  0  0  0
 46121  1  0  0  0
 47122  1  0  0  0
 47123  1  0  0  0
 48 56  1  0  0  0
 48 65  1  0  0  0
 48124  1  0  0  0
 49 50  1  0  0  0
 49 53  1  0  0  0
 49 64  1  0  0  0
 49125  1  0  0  0
 50 51  1  0  0  0
 50126  1  0  0  0
 50127  1  0  0  0
 51 52  1  0  0  0
 51128  1  0  0  0
 51129  1  0  0  0
 52130  1  0  0  0
 52131  1  0  0  0
 53 54  1  0  0  0
 54 55  2  0  0  0
 54132  1  0  0  0
 55 57  1  0  0  0
 55133  1  0  0  0
 56 69  2  0  0  0
 57 58  2  0  0  0
 57134  1  0  0  0
 58135  1  0  0  0
 59 60  1  0  0  0
 59 61  1  0  0  0
 59 62  1  0  0  0
 60136  1  0  0  0
 60137  1  0  0  0
 60138  1  0  0  0
 61139  1  0  0  0
 61140  1  0  0  0
 61141  1  0  0  0
 62142  1  0  0  0
 62143  1  0  0  0
 62144  1  0  0  0
 63 65  1  0  0  0
 63145  1  0  0  0
 63146  1  0  0  0
 63147  1  0  0  0
 64148  1  0  0  0
 65149  1  0  0  0
 68 83  1  0  0  0
 71 72  2  0  0  0
 71 74  1  0  0  0
 71150  1  0  0  0
 72 75  1  0  0  0
 72151  1  0  0  0
 73 74  2  0  0  0
 73 76  1  0  0  0
 73152  1  0  0  0
 74 86  1  0  0  0
 75 76  2  0  0  0
 75 88  1  0  0  0
 76 87  1  0  0  0
 77 79  1  0  0  0
 77 86  1  0  0  0
 77 89  2  0  0  0
 78 81  1  0  0  0
 78 86  1  0  0  0
 78 90  2  0  0  0
 79 80  1  0  0  0
 79153  1  0  0  0
 79154  1  0  0  0
 80 81  1  0  0  0
 80155  1  0  0  0
 80156  1  0  0  0
 81 83  1  0  0  0
 81157  1  0  0  0
 82 84  1  0  0  0
 82158  1  0  0  0
 82159  1  0  0  0
 82160  1  0  0  0
 83161  1  0  0  0
 83162  1  0  0  0
 84 85  1  0  0  0
 84163  1  0  0  0
 84164  1  0  0  0
 85 88  1  0  0  0
 85165  1  0  0  0
 85166  1  0  0  0
 87167  1  0  0  0
 87168  1  0  0  0
M  ISO  4   1 100  68 101  83 101  88 100
M  END
> <chiral flag>
0

> <version>
0

> <s_m_source_file>
/data/baiqing/PycharmProjects/Reinvent-master-3.2/result/LINK_invent/BTK/process_docking_weight1_custom_product_contain_oxygen_bond_distance_aromatic_linkinvent_7_9_3/rearranged_h_0106.sdf

> <i_m_source_file_index>
71

> <r_mmod_Potential_Energy-OPLS-2005>
377.693176269531

> <r_mmod_Stretch_Energy-OPLS-2005>
126.85661315918

> <r_mmod_Bend_Energy-OPLS-2005>
198.010681152344

> <r_mmod_Torsional_Energy-OPLS-2005>
374.720306396484

> <r_mmod_Improper_Torsional_Energy-OPLS-2005>
11.6655540466309

> <r_mmod_Van_der_Waal_Energy-OPLS-2005>
159.210632324219

> <r_mmod_Electrostatic_Energy-OPLS-2005>
-325.261962890625

> <r_mmod_Solvation_Energy-OPLS-2005>
-224.955810546875

> <b_mmod_Minimization_Converged-OPLS-2005>
0

> <r_mmod_RMS_Derivative-OPLS-2005>
3.00679898262024

$$$$
71
                    3D
 Structure written by MMmdl.
156164  0  0  1  0            999 V2000
  -29.5530  -13.7463   21.3715 C   0  0  0  0  0  0
  -30.5984  -12.5712   19.2999 C   0  0  0  0  0  0
  -29.7609  -12.7210   17.9627 C   0  0  0  0  0  0
  -28.1991  -12.7178   18.0533 C   0  0  0  0  0  0
  -27.8084  -13.2853   19.3996 C   0  0  2  0  0  0
  -28.5765  -12.1555   20.2395 C   0  0  0  0  0  0
  -25.4215  -14.4679   19.7606 C   0  0  0  0  0  0
  -24.2180  -13.8445   19.8865 C   0  0  0  0  0  0
  -24.9968  -12.7434   20.4051 C   0  0  0  0  0  0
  -24.4020  -10.8791   22.5142 C   0  0  0  0  0  0
  -24.8010   -9.4180   22.6334 C   0  0  0  0  0  0
  -24.1217   -8.1700   22.2080 C   0  0  0  0  0  0
  -22.7820   -8.1204   21.7308 C   0  0  0  0  0  0
  -22.1955   -9.3515   21.8638 C   0  0  0  0  0  0
  -22.9475  -10.3134   22.7096 C   0  0  0  0  0  0
  -21.7879   -6.1166   22.5260 C   0  0  0  0  0  0
  -21.4549   -6.5828   23.8207 C   0  0  0  0  0  0
  -21.3579   -5.6854   24.9021 C   0  0  0  0  0  0
  -21.5811   -4.3124   24.7015 C   0  0  0  0  0  0
  -21.8509   -3.8315   23.4079 C   0  0  0  0  0  0
  -21.9408   -4.7258   22.3236 C   0  0  0  0  0  0
  -22.7465  -14.4023   20.2076 C   0  0  0  0  0  0
  -22.1962   -4.2423   21.0843 F   0  0  0  0  0  0
  -21.5318   -3.4569   25.7508 F   0  0  0  0  0  0
  -29.7579  -12.7308   20.4841 N   0  0  0  0  0  0
  -26.4022  -13.4887   19.5733 N   0  0  0  0  0  0
  -25.7199  -12.5036   19.3110 N   0  0  0  0  0  0
  -21.6464  -13.6948   20.6026 N   0  0  0  0  0  0
  -25.7674  -15.7651   19.7637 N   0  0  0  0  0  0
  -30.4621  -14.6408   21.3005 O   0  0  0  0  0  0
  -22.0038   -6.9926   21.4766 O   0  0  0  0  0  0
  -22.5656  -15.5717   20.3472 O   0  0  0  0  0  0
  -24.6991  -31.7739   23.1447 C   0  0  0  0  0  0
  -25.9520  -32.4292   23.8001 C   0  0  1  0  0  0
  -26.7016  -26.2099   20.5527 C   0  0  0  0  0  0
  -25.6047  -33.8162   24.1835 N   0  0  0  0  0  0
  -23.5194  -30.3914   21.5009 C   0  0  2  0  0  0
  -24.9111  -28.6684   20.1201 C   0  0  0  0  0  0
  -22.7756  -29.4219   22.4610 C   0  0  0  0  0  0
  -18.0333  -28.1419   22.8452 C   0  0  0  0  0  0
  -24.1512  -36.7090   23.2653 C   0  0  0  0  0  0
  -26.0966  -30.3429   21.4896 C   0  0  0  0  0  0
  -26.0621  -28.8628   20.8854 C   0  0  0  0  0  0
  -26.9639  -27.6567   21.0645 C   0  0  0  0  0  0
  -25.7015  -26.3646   19.5648 C   0  0  0  0  0  0
  -24.8183  -27.4709   19.3985 C   0  0  0  0  0  0
  -23.7810  -29.7094   20.1226 C   0  0  0  0  0  0
  -25.4170  -36.2808   24.0263 C   0  0  1  0  0  0
  -20.5964  -28.3788   23.1108 C   0  0  2  0  0  0
  -20.6792  -26.9432   22.5410 C   0  0  0  0  0  0
  -19.5774  -26.6355   21.5222 C   0  0  0  0  0  0
  -18.1951  -26.7946   22.1613 C   0  0  0  0  0  0
  -19.1598  -28.8932   23.2763 C   0  0  0  0  0  0
  -18.9505  -30.1511   23.8820 C   0  0  0  0  0  0
  -17.6494  -30.6601   24.0552 C   0  0  0  0  0  0
  -25.9170  -34.9199   23.4898 C   0  0  0  0  0  0
  -16.5384  -29.9083   23.6349 C   0  0  0  0  0  0
  -16.7313  -28.6503   23.0371 C   0  0  0  0  0  0
  -26.4622  -31.6468   25.0750 C   0  0  0  0  0  0
  -25.3617  -31.3889   26.1322 C   0  0  0  0  0  0
  -27.0600  -30.2755   24.6941 C   0  0  0  0  0  0
  -27.6042  -32.4409   25.7530 C   0  0  0  0  0  0
  -27.5568  -37.1706   24.8462 C   0  0  0  0  0  0
  -21.4398  -29.3005   22.3380 N   0  0  0  0  0  0
  -26.4270  -37.3600   23.9403 N   0  0  0  0  0  0
  -24.8021  -30.8868   22.0915 N   0  0  0  0  0  0
  -23.4139  -28.7804   23.2996 O   0  0  0  0  0  0
  -27.1758  -24.6727   20.8494 O   0  0  0  0  0  0
  -26.5828  -34.8811   22.4529 O   0  0  0  0  0  0
  -23.5992  -32.1058   23.6221 O   0  0  0  0  0  0
  -23.5590  -12.9830   22.1863 C   0  0  0  0  0  0
  -23.1465  -11.6041   20.7561 C   0  0  0  0  0  0
  -26.2860  -11.0170   21.1914 C   0  0  0  0  0  0
  -25.1758  -13.7363   22.5353 C   0  0  0  0  0  0
  -24.6378  -10.5165   20.2935 C   0  0  0  0  0  0
  -26.5409  -12.6182   22.1669 C   0  0  0  0  0  0
  -25.3029  -15.6704   22.7241 C   0  0  0  0  0  0
  -26.6281  -20.8924   21.4258 C   0  0  0  0  0  0
  -25.7677   -8.9137   19.0167 C   0  0  0  0  0  0
  -25.7538  -19.1134   22.0256 C   0  0  0  0  0  0
  -26.3312  -22.9315   21.1906 C   0  0  0  0  0  0
  -25.8261  -17.1388   22.0730 N   0  0  0  0  0  0
  -24.6768  -15.9421   23.7485 O   0  0  0  0  0  0
  -27.7800  -20.6311   21.0641 O   0  0  0  0  0  0
  -27.9211  -13.4716   22.2333 O   0  0  0  0  0  0
  -24.5269   -9.4838   19.3974 O   0  0  0  0  0  0
  -31.4298  -13.2771   19.3155 H   0  0  0  0  0  0
  -31.0492  -11.5782   19.3429 H   0  0  0  0  0  0
  -30.0923  -11.9782   17.2356 H   0  0  0  0  0  0
  -30.0419  -13.6807   17.5281 H   0  0  0  0  0  0
  -27.7949  -11.7192   17.8708 H   0  0  0  0  0  0
  -27.7849  -13.3336   17.2546 H   0  0  0  0  0  0
  -28.2170  -14.2995   19.3918 H   0  0  0  0  0  0
  -28.6880  -11.2099   19.6981 H   0  0  0  0  0  0
  -28.4679  -11.6665   21.1942 H   0  0  0  0  0  0
  -25.8349   -9.2507   22.9006 H   0  0  0  0  0  0
  -24.6669   -7.2406   22.2971 H   0  0  0  0  0  0
  -21.1208   -9.4209   21.7639 H   0  0  0  0  0  0
  -22.2446  -11.0548   23.0646 H   0  0  0  0  0  0
  -21.3152   -7.6393   23.9997 H   0  0  0  0  0  0
  -21.1328   -6.0543   25.8926 H   0  0  0  0  0  0
  -21.9998   -2.7754   23.2471 H   0  0  0  0  0  0
  -21.6932  -12.6919   20.6782 H   0  0  0  0  0  0
  -20.7994  -14.1811   20.8594 H   0  0  0  0  0  0
  -25.0148  -16.4119   19.5545 H   0  0  0  0  0  0
  -26.6056  -15.9873   19.2383 H   0  0  0  0  0  0
  -26.7585  -32.4603   23.0671 H   0  0  0  0  0  0
  -25.0086  -33.9186   24.9914 H   0  0  0  0  0  0
  -22.8603  -31.2425   21.3166 H   0  0  0  0  0  0
  -23.3803  -35.9386   23.3228 H   0  0  0  0  0  0
  -24.3579  -36.8854   22.2084 H   0  0  0  0  0  0
  -23.7238  -37.6226   23.6802 H   0  0  0  0  0  0
  -26.3572  -31.0122   20.6684 H   0  0  0  0  0  0
  -26.9444  -30.4055   22.1563 H   0  0  0  0  0  0
  -27.7759  -27.7717   21.7675 H   0  0  0  0  0  0
  -25.4431  -25.4772   19.0042 H   0  0  0  0  0  0
  -23.9755  -27.3360   18.7329 H   0  0  0  0  0  0
  -24.0405  -30.4727   19.3883 H   0  0  0  0  0  0
  -22.8636  -29.2478   19.7539 H   0  0  0  0  0  0
  -25.1385  -36.1553   25.0753 H   0  0  0  0  0  0
  -21.0052  -28.3439   24.1233 H   0  0  0  0  0  0
  -20.5650  -26.2413   23.3684 H   0  0  0  0  0  0
  -21.6649  -26.7360   22.1226 H   0  0  0  0  0  0
  -19.6928  -25.6242   21.1306 H   0  0  0  0  0  0
  -19.6721  -27.3119   20.6715 H   0  0  0  0  0  0
  -17.4223  -26.6700   21.4008 H   0  0  0  0  0  0
  -18.0329  -26.0106   22.9025 H   0  0  0  0  0  0
  -19.7985  -30.7345   24.2151 H   0  0  0  0  0  0
  -17.5047  -31.6273   24.5168 H   0  0  0  0  0  0
  -15.5380  -30.2961   23.7725 H   0  0  0  0  0  0
  -15.8712  -28.0798   22.7134 H   0  0  0  0  0  0
  -24.5863  -30.7158   25.7641 H   0  0  0  0  0  0
  -24.8735  -32.3137   26.4414 H   0  0  0  0  0  0
  -25.7741  -30.9294   27.0316 H   0  0  0  0  0  0
  -26.3345  -29.6214   24.2097 H   0  0  0  0  0  0
  -27.3993  -29.7409   25.5824 H   0  0  0  0  0  0
  -27.9368  -30.3769   24.0543 H   0  0  0  0  0  0
  -27.2575  -33.3839   26.1770 H   0  0  0  0  0  0
  -28.3990  -32.6757   25.0435 H   0  0  0  0  0  0
  -28.0554  -31.8775   26.5710 H   0  0  0  0  0  0
  -28.2524  -38.0058   24.7530 H   0  0  0  0  0  0
  -28.1129  -36.2578   24.6270 H   0  0  0  0  0  0
  -27.2285  -37.1309   25.8863 H   0  0  0  0  0  0
  -20.9710  -29.8685   21.6463 H   0  0  0  0  0  0
  -26.0080  -38.2640   24.1414 H   0  0  0  0  0  0
  -22.7526  -13.5328   22.6556 H   0  0  0  0  0  0
  -22.1664  -11.3412   20.3743 H   0  0  0  0  0  0
  -27.0852  -10.3251   20.9827 H   0  0  0  0  0  0
  -25.6085   -8.1834   18.2241 H   0  0  0  0  0  0
  -26.2418   -8.3977   19.8521 H   0  0  0  0  0  0
  -26.4540   -9.6718   18.6331 H   0  0  0  0  0  0
  -24.7656  -19.2520   21.5856 H   0  0  0  0  0  0
  -25.5834  -19.3305   23.0784 H   0  0  0  0  0  0
  -25.7444  -23.1539   22.0821 H   0  0  0  0  0  0
  -25.5843  -22.9202   20.3964 H   0  0  0  0  0  0
  -26.2333  -16.8360   21.1888 H   0  0  0  0  0  0
  1 25  1  0  0  0
  1 30  2  0  0  0
  1 85  1  0  0  0
  2  3  1  0  0  0
  2 25  1  0  0  0
  2 87  1  0  0  0
  2 88  1  0  0  0
  3  4  1  0  0  0
  3 89  1  0  0  0
  3 90  1  0  0  0
  4  5  1  0  0  0
  4 91  1  0  0  0
  4 92  1  0  0  0
  5  6  1  0  0  0
  5 26  1  0  0  0
  5 93  1  0  0  0
  6 25  1  0  0  0
  6 94  1  0  0  0
  6 95  1  0  0  0
  7  8  2  0  0  0
  7 26  1  0  0  0
  7 29  1  0  0  0
  8  9  1  0  0  0
  8 22  1  0  0  0
  9 10  1  0  0  0
  9 27  2  0  0  0
 10 11  2  0  0  0
 10 15  1  0  0  0
 11 12  1  0  0  0
 11 96  1  0  0  0
 12 13  2  0  0  0
 12 97  1  0  0  0
 13 14  1  0  0  0
 13 31  1  0  0  0
 14 15  2  0  0  0
 14 98  1  0  0  0
 15 99  1  0  0  0
 16 17  2  0  0  0
 16 21  1  0  0  0
 16 31  1  0  0  0
 17 18  1  0  0  0
 17100  1  0  0  0
 18 19  2  0  0  0
 18101  1  0  0  0
 19 20  1  0  0  0
 19 24  1  0  0  0
 20 21  2  0  0  0
 20102  1  0  0  0
 21 23  1  0  0  0
 22 28  1  0  0  0
 22 32  2  0  0  0
 26 27  1  0  0  0
 28103  1  0  0  0
 28104  1  0  0  0
 29105  1  0  0  0
 29106  1  0  0  0
 33 34  1  0  0  0
 33 66  1  0  0  0
 33 70  2  0  0  0
 34 36  1  0  0  0
 34 59  1  0  0  0
 34107  1  0  0  0
 35 44  2  0  0  0
 35 45  1  0  0  0
 35 68  1  0  0  0
 36 56  1  0  0  0
 36108  1  0  0  0
 37 39  1  0  0  0
 37 47  1  0  0  0
 37 66  1  0  0  0
 37109  1  0  0  0
 38 43  2  0  0  0
 38 46  1  0  0  0
 38 47  1  0  0  0
 39 64  1  0  0  0
 39 67  2  0  0  0
 40 52  1  0  0  0
 40 53  2  0  0  0
 40 58  1  0  0  0
 41110  1  0  0  0
 41111  1  0  0  0
 41112  1  0  0  0
 41 48  1  0  0  0
 42 43  1  0  0  0
 42 66  1  0  0  0
 42113  1  0  0  0
 42114  1  0  0  0
 43 44  1  0  0  0
 44115  1  0  0  0
 45 46  2  0  0  0
 45116  1  0  0  0
 46117  1  0  0  0
 47118  1  0  0  0
 47119  1  0  0  0
 48 56  1  0  0  0
 48 65  1  0  0  0
 48120  1  0  0  0
 49 50  1  0  0  0
 49 53  1  0  0  0
 49 64  1  0  0  0
 49121  1  0  0  0
 50 51  1  0  0  0
 50122  1  0  0  0
 50123  1  0  0  0
 51 52  1  0  0  0
 51124  1  0  0  0
 51125  1  0  0  0
 52126  1  0  0  0
 52127  1  0  0  0
 53 54  1  0  0  0
 54 55  2  0  0  0
 54128  1  0  0  0
 55 57  1  0  0  0
 55129  1  0  0  0
 56 69  2  0  0  0
 57 58  2  0  0  0
 57130  1  0  0  0
 58131  1  0  0  0
 59 60  1  0  0  0
 59 61  1  0  0  0
 59 62  1  0  0  0
 60132  1  0  0  0
 60133  1  0  0  0
 60134  1  0  0  0
 61135  1  0  0  0
 61136  1  0  0  0
 61137  1  0  0  0
 62138  1  0  0  0
 62139  1  0  0  0
 62140  1  0  0  0
 63 65  1  0  0  0
 63141  1  0  0  0
 63142  1  0  0  0
 63143  1  0  0  0
 64144  1  0  0  0
 65145  1  0  0  0
 68 81  1  0  0  0
 71 72  2  0  0  0
 71 74  1  0  0  0
 71146  1  0  0  0
 72 75  1  0  0  0
 72147  1  0  0  0
 73 75  2  0  0  0
 73 76  1  0  0  0
 73148  1  0  0  0
 74 76  2  0  0  0
 74 77  1  0  0  0
 75 86  1  0  0  0
 76 85  1  0  0  0
 77 82  1  0  0  0
 77 83  2  0  0  0
 78 80  1  0  0  0
 78 81  1  0  0  0
 78 84  2  0  0  0
 79 86  1  0  0  0
 79149  1  0  0  0
 79150  1  0  0  0
 79151  1  0  0  0
 80 82  1  0  0  0
 80152  1  0  0  0
 80153  1  0  0  0
 81154  1  0  0  0
 81155  1  0  0  0
 82156  1  0  0  0
M  ISO  4   1 100  68 101  81 101  85 100
M  END
> <chiral flag>
0

> <version>
0

> <s_m_source_file>
/data/baiqing/PycharmProjects/Reinvent-master-3.2/result/LINK_invent/BTK/process_docking_weight1_custom_product_contain_oxygen_bond_distance_aromatic_linkinvent_7_9_3/rearranged_h_0106.sdf

> <i_m_source_file_index>
72

> <r_mmod_Potential_Energy-OPLS-2005>
18427.822265625

> <r_mmod_Stretch_Energy-OPLS-2005>
8860.38671875

> <r_mmod_Bend_Energy-OPLS-2005>
1539.41857910156

> <r_mmod_Torsional_Energy-OPLS-2005>
680.68896484375

> <r_mmod_Improper_Torsional_Energy-OPLS-2005>
77.4059295654297

> <r_mmod_Van_der_Waal_Energy-OPLS-2005>
3275.79028320312

> <r_mmod_Electrostatic_Energy-OPLS-2005>
-362.735687255859

> <r_mmod_Solvation_Energy-OPLS-2005>
-261.291625976562

> <b_mmod_Minimization_Converged-OPLS-2005>
0

> <r_mmod_RMS_Derivative-OPLS-2005>
4.10225772857666

$$$$
72
                    3D
 Structure written by MMmdl.
160168  0  0  1  0            999 V2000
  -30.6674  -14.5209   20.4226 C   0  0  0  0  0  0
  -30.4268  -12.2780   19.4621 C   0  0  0  0  0  0
  -29.4989  -12.3891   18.2343 C   0  0  0  0  0  0
  -28.0148  -12.3036   18.6382 C   0  0  0  0  0  0
  -27.6523  -13.1999   19.8538 C   0  0  2  0  0  0
  -28.6971  -13.0560   20.9842 C   0  0  0  0  0  0
  -25.2572  -13.8161   20.5682 C   0  0  0  0  0  0
  -24.1825  -13.0441   20.9205 C   0  0  0  0  0  0
  -24.6374  -11.6903   20.8768 C   0  0  0  0  0  0
  -23.9048  -10.4290   21.0419 C   0  0  0  0  0  0
  -24.3608   -9.4204   21.9193 C   0  0  0  0  0  0
  -23.6290   -8.2235   22.0753 C   0  0  0  0  0  0
  -22.4269   -8.0273   21.3544 C   0  0  0  0  0  0
  -21.9902   -9.0245   20.4646 C   0  0  0  0  0  0
  -22.7224  -10.2131   20.3067 C   0  0  0  0  0  0
  -21.6852   -6.0735   22.5285 C   0  0  0  0  0  0
  -21.4009   -6.5640   23.8220 C   0  0  0  0  0  0
  -21.3660   -5.6792   24.9178 C   0  0  0  0  0  0
  -21.6045   -4.3058   24.7233 C   0  0  0  0  0  0
  -21.8816   -3.8149   23.4354 C   0  0  0  0  0  0
  -21.9190   -4.6965   22.3408 C   0  0  0  0  0  0
  -22.7852  -13.5239   21.1853 C   0  0  0  0  0  0
  -22.1653   -4.2153   21.0986 F   0  0  0  0  0  0
  -21.5628   -3.4537   25.7745 F   0  0  0  0  0  0
  -30.0250  -13.3229   20.4133 N   0  0  0  0  0  0
  -26.2982  -12.9316   20.3307 N   0  0  0  0  0  0
  -25.9295  -11.6490   20.5808 N   0  0  0  0  0  0
  -22.0488  -12.8231   22.0410 N   0  0  0  0  0  0
  -25.4312  -15.1880   20.4082 N   0  0  0  0  0  0
  -31.8737  -14.6379   20.2063 O   0  0  0  0  0  0
  -21.6637   -6.8871   21.4242 O   0  0  0  0  0  0
  -22.3534  -14.5539   20.6688 O   0  0  0  0  0  0
  -24.6130  -31.8687   23.2110 C   0  0  0  0  0  0
  -25.9026  -32.4828   23.8406 C   0  0  1  0  0  0
  -27.2269  -27.4380   20.1153 C   0  0  0  0  0  0
  -25.5889  -33.8628   24.2338 N   0  0  0  0  0  0
  -23.4005  -30.4918   21.5501 C   0  0  2  0  0  0
  -24.8485  -28.9599   20.1117 C   0  0  0  0  0  0
  -22.7403  -29.4657   22.4993 C   0  0  0  0  0  0
  -18.0271  -28.1375   22.8496 C   0  0  0  0  0  0
  -24.1486  -36.7322   23.2636 C   0  0  0  0  0  0
  -25.9276  -30.8394   21.3611 C   0  0  0  0  0  0
  -26.0068  -29.4744   20.7087 C   0  0  0  0  0  0
  -27.2027  -28.7220   20.7035 C   0  0  0  0  0  0
  -26.0581  -26.9370   19.5053 C   0  0  0  0  0  0
  -24.8694  -27.6918   19.5023 C   0  0  0  0  0  0
  -23.6083  -29.8244   20.1634 C   0  0  0  0  0  0
  -25.4105  -36.3122   24.0343 C   0  0  1  0  0  0
  -20.5862  -28.3656   23.1324 C   0  0  2  0  0  0
  -20.6762  -26.9395   22.5419 C   0  0  0  0  0  0
  -19.5746  -26.6385   21.5211 C   0  0  0  0  0  0
  -18.1920  -26.7924   22.1614 C   0  0  0  0  0  0
  -19.1521  -28.8830   23.2910 C   0  0  0  0  0  0
  -18.9447  -30.1440   23.8917 C   0  0  0  0  0  0
  -17.6451  -30.6581   24.0565 C   0  0  0  0  0  0
  -25.9028  -34.9485   23.5140 C   0  0  0  0  0  0
  -16.5342  -29.9085   23.6327 C   0  0  0  0  0  0
  -16.7261  -28.6498   23.0352 C   0  0  0  0  0  0
  -26.4461  -31.6602   25.0726 C   0  0  0  0  0  0
  -25.3744  -31.3705   26.1488 C   0  0  0  0  0  0
  -27.0266  -30.3043   24.6077 C   0  0  0  0  0  0
  -27.6049  -32.4312   25.7477 C   0  0  0  0  0  0
  -27.5590  -37.1807   24.8460 C   0  0  0  0  0  0
  -21.4132  -29.3028   22.3734 N   0  0  0  0  0  0
  -26.4293  -37.3806   23.9421 N   0  0  0  0  0  0
  -24.6652  -31.0804   22.0997 N   0  0  0  0  0  0
  -23.4181  -28.8207   23.3032 O   0  0  0  0  0  0
  -28.3703  -26.6741   20.1439 O   0  0  0  0  0  0
  -26.5591  -34.8930   22.4701 O   0  0  0  0  0  0
  -23.5325  -32.1426   23.7512 O   0  0  0  0  0  0
  -30.3453  -19.4828   18.6621 C   0  0  0  0  0  0
  -29.6498  -18.0398   20.4861 C   0  0  0  0  0  0
  -30.5290  -17.0494   18.4091 C   0  0  0  0  0  0
  -29.7367  -19.3419   19.9250 C   0  0  0  0  0  0
  -30.7272  -18.3688   17.9023 C   0  0  0  0  0  0
  -30.0574  -16.8797   19.7623 C   0  0  0  0  0  0
  -30.7155  -15.8901   17.4594 C   0  0  0  0  0  0
  -28.7333  -21.6200   20.0556 C   0  0  0  0  0  0
  -28.5231  -22.8764   20.9239 C   0  0  0  0  0  0
  -28.5277  -24.2013   20.1026 C   0  0  0  0  0  0
  -28.2665  -25.4752   20.9349 C   0  0  0  0  0  0
  -31.2692  -18.6430   16.6375 N   0  0  0  0  0  0
  -29.6704  -15.6290   16.6810 N   0  0  0  0  0  0
  -29.2648  -20.5082   20.6219 N   0  0  0  0  0  0
  -29.8494  -15.5997   20.4111 N   0  0  0  0  0  0
  -31.7747  -15.2724   17.3545 O   0  0  0  0  0  0
  -28.3785  -21.6582   18.8742 O   0  0  0  0  0  0
  -31.4700  -12.3728   19.1552 H   0  0  0  0  0  0
  -30.3375  -11.2946   19.9270 H   0  0  0  0  0  0
  -29.7331  -11.5981   17.5210 H   0  0  0  0  0  0
  -29.6833  -13.3185   17.7128 H   0  0  0  0  0  0
  -27.8105  -11.2593   18.8783 H   0  0  0  0  0  0
  -27.3763  -12.5425   17.7863 H   0  0  0  0  0  0
  -27.6713  -14.2283   19.4937 H   0  0  0  0  0  0
  -28.6698  -12.0499   21.4049 H   0  0  0  0  0  0
  -28.4762  -13.7361   21.8083 H   0  0  0  0  0  0
  -25.2753   -9.5682   22.4764 H   0  0  0  0  0  0
  -24.0010   -7.4626   22.7463 H   0  0  0  0  0  0
  -21.0839   -8.8752   19.8950 H   0  0  0  0  0  0
  -22.3679  -10.9665   19.6174 H   0  0  0  0  0  0
  -21.2001   -7.6147   23.9723 H   0  0  0  0  0  0
  -21.1476   -6.0521   25.9082 H   0  0  0  0  0  0
  -22.0597   -2.7613   23.2853 H   0  0  0  0  0  0
  -22.4088  -11.9888   22.4806 H   0  0  0  0  0  0
  -21.1108  -13.1255   22.2611 H   0  0  0  0  0  0
  -24.6667  -15.8441   20.5268 H   0  0  0  0  0  0
  -26.2805  -15.6280   20.0785 H   0  0  0  0  0  0
  -26.7099  -32.5544   23.1173 H   0  0  0  0  0  0
  -25.0060  -33.9808   25.0496 H   0  0  0  0  0  0
  -22.6889  -31.3083   21.4119 H   0  0  0  0  0  0
  -23.3756  -35.9644   23.3287 H   0  0  0  0  0  0
  -24.3592  -36.8943   22.2053 H   0  0  0  0  0  0
  -23.7220  -37.6517   23.6654 H   0  0  0  0  0  0
  -26.0376  -31.6073   20.5941 H   0  0  0  0  0  0
  -26.8158  -30.8938   21.9784 H   0  0  0  0  0  0
  -28.0962  -29.1117   21.1709 H   0  0  0  0  0  0
  -26.0659  -25.9608   19.0416 H   0  0  0  0  0  0
  -23.9799  -27.2921   19.0344 H   0  0  0  0  0  0
  -23.7123  -30.6003   19.4039 H   0  0  0  0  0  0
  -22.7331  -29.2415   19.8702 H   0  0  0  0  0  0
  -25.1276  -36.1992   25.0837 H   0  0  0  0  0  0
  -20.9951  -28.3215   24.1443 H   0  0  0  0  0  0
  -20.5657  -26.2265   23.3604 H   0  0  0  0  0  0
  -21.6635  -26.7440   22.1213 H   0  0  0  0  0  0
  -19.6910  -25.6300   21.1233 H   0  0  0  0  0  0
  -19.6692  -27.3205   20.6753 H   0  0  0  0  0  0
  -17.4195  -26.6687   21.4006 H   0  0  0  0  0  0
  -18.0310  -26.0054   22.8996 H   0  0  0  0  0  0
  -19.7924  -30.7252   24.2291 H   0  0  0  0  0  0
  -17.5005  -31.6269   24.5155 H   0  0  0  0  0  0
  -15.5343  -30.2989   23.7645 H   0  0  0  0  0  0
  -15.8659  -28.0823   22.7059 H   0  0  0  0  0  0
  -24.5931  -30.7022   25.7852 H   0  0  0  0  0  0
  -24.8914  -32.2849   26.4941 H   0  0  0  0  0  0
  -25.8118  -30.8896   27.0245 H   0  0  0  0  0  0
  -26.2784  -29.6827   24.1138 H   0  0  0  0  0  0
  -27.4045  -29.7260   25.4518 H   0  0  0  0  0  0
  -27.8626  -30.4366   23.9203 H   0  0  0  0  0  0
  -27.2685  -33.3611   26.2076 H   0  0  0  0  0  0
  -28.3842  -32.6866   25.0286 H   0  0  0  0  0  0
  -28.0729  -31.8417   26.5370 H   0  0  0  0  0  0
  -28.2594  -38.0120   24.7538 H   0  0  0  0  0  0
  -28.1098  -36.2655   24.6234 H   0  0  0  0  0  0
  -27.2322  -37.1396   25.8865 H   0  0  0  0  0  0
  -20.9287  -29.8754   21.6966 H   0  0  0  0  0  0
  -26.0186  -38.2881   24.1440 H   0  0  0  0  0  0
  -30.4917  -20.4689   18.2440 H   0  0  0  0  0  0
  -29.2347  -17.9224   21.4773 H   0  0  0  0  0  0
  -29.3020  -22.9160   21.6855 H   0  0  0  0  0  0
  -27.5738  -22.7701   21.4498 H   0  0  0  0  0  0
  -27.7750  -24.1485   19.3151 H   0  0  0  0  0  0
  -29.4877  -24.3020   19.5952 H   0  0  0  0  0  0
  -29.0019  -25.5438   21.7374 H   0  0  0  0  0  0
  -27.2966  -25.3941   21.4325 H   0  0  0  0  0  0
  -31.2073  -19.5756   16.2397 H   0  0  0  0  0  0
  -31.3756  -17.9084   15.9452 H   0  0  0  0  0  0
  -29.7234  -14.9030   15.9830 H   0  0  0  0  0  0
  -28.8320  -16.1856   16.7614 H   0  0  0  0  0  0
  -29.3401  -20.5033   21.6311 H   0  0  0  0  0  0
  -28.9226  -15.4310   20.7700 H   0  0  0  0  0  0
  1 25  1  0  0  0
  1 30  2  0  0  0
  1 85  1  0  0  0
  2  3  1  0  0  0
  2 25  1  0  0  0
  2 88  1  0  0  0
  2 89  1  0  0  0
  3  4  1  0  0  0
  3 90  1  0  0  0
  3 91  1  0  0  0
  4  5  1  0  0  0
  4 92  1  0  0  0
  4 93  1  0  0  0
  5  6  1  0  0  0
  5 26  1  0  0  0
  5 94  1  0  0  0
  6 25  1  0  0  0
  6 95  1  0  0  0
  6 96  1  0  0  0
  7  8  2  0  0  0
  7 26  1  0  0  0
  7 29  1  0  0  0
  8  9  1  0  0  0
  8 22  1  0  0  0
  9 10  1  0  0  0
  9 27  2  0  0  0
 10 11  2  0  0  0
 10 15  1  0  0  0
 11 12  1  0  0  0
 11 97  1  0  0  0
 12 13  2  0  0  0
 12 98  1  0  0  0
 13 14  1  0  0  0
 13 31  1  0  0  0
 14 15  2  0  0  0
 14 99  1  0  0  0
 15100  1  0  0  0
 16 17  2  0  0  0
 16 21  1  0  0  0
 16 31  1  0  0  0
 17 18  1  0  0  0
 17101  1  0  0  0
 18 19  2  0  0  0
 18102  1  0  0  0
 19 20  1  0  0  0
 19 24  1  0  0  0
 20 21  2  0  0  0
 20103  1  0  0  0
 21 23  1  0  0  0
 22 28  1  0  0  0
 22 32  2  0  0  0
 26 27  1  0  0  0
 28104  1  0  0  0
 28105  1  0  0  0
 29106  1  0  0  0
 29107  1  0  0  0
 33 34  1  0  0  0
 33 66  1  0  0  0
 33 70  2  0  0  0
 34 36  1  0  0  0
 34 59  1  0  0  0
 34108  1  0  0  0
 35 44  2  0  0  0
 35 45  1  0  0  0
 35 68  1  0  0  0
 36 56  1  0  0  0
 36109  1  0  0  0
 37 39  1  0  0  0
 37 47  1  0  0  0
 37 66  1  0  0  0
 37110  1  0  0  0
 38 43  2  0  0  0
 38 46  1  0  0  0
 38 47  1  0  0  0
 39 64  1  0  0  0
 39 67  2  0  0  0
 40 52  1  0  0  0
 40 53  2  0  0  0
 40 58  1  0  0  0
 41111  1  0  0  0
 41112  1  0  0  0
 41113  1  0  0  0
 41 48  1  0  0  0
 42 43  1  0  0  0
 42 66  1  0  0  0
 42114  1  0  0  0
 42115  1  0  0  0
 43 44  1  0  0  0
 44116  1  0  0  0
 45 46  2  0  0  0
 45117  1  0  0  0
 46118  1  0  0  0
 47119  1  0  0  0
 47120  1  0  0  0
 48 56  1  0  0  0
 48 65  1  0  0  0
 48121  1  0  0  0
 49 50  1  0  0  0
 49 53  1  0  0  0
 49 64  1  0  0  0
 49122  1  0  0  0
 50 51  1  0  0  0
 50123  1  0  0  0
 50124  1  0  0  0
 51 52  1  0  0  0
 51125  1  0  0  0
 51126  1  0  0  0
 52127  1  0  0  0
 52128  1  0  0  0
 53 54  1  0  0  0
 54 55  2  0  0  0
 54129  1  0  0  0
 55 57  1  0  0  0
 55130  1  0  0  0
 56 69  2  0  0  0
 57 58  2  0  0  0
 57131  1  0  0  0
 58132  1  0  0  0
 59 60  1  0  0  0
 59 61  1  0  0  0
 59 62  1  0  0  0
 60133  1  0  0  0
 60134  1  0  0  0
 60135  1  0  0  0
 61136  1  0  0  0
 61137  1  0  0  0
 61138  1  0  0  0
 62139  1  0  0  0
 62140  1  0  0  0
 62141  1  0  0  0
 63 65  1  0  0  0
 63142  1  0  0  0
 63143  1  0  0  0
 63144  1  0  0  0
 64145  1  0  0  0
 65146  1  0  0  0
 68 81  1  0  0  0
 71 74  2  0  0  0
 71 75  1  0  0  0
 71147  1  0  0  0
 72 74  1  0  0  0
 72 76  2  0  0  0
 72148  1  0  0  0
 73 75  2  0  0  0
 73 76  1  0  0  0
 73 77  1  0  0  0
 74 84  1  0  0  0
 75 82  1  0  0  0
 76 85  1  0  0  0
 77 83  1  0  0  0
 77 86  2  0  0  0
 78 79  1  0  0  0
 78 84  1  0  0  0
 78 87  2  0  0  0
 79 80  1  0  0  0
 79149  1  0  0  0
 79150  1  0  0  0
 80 81  1  0  0  0
 80151  1  0  0  0
 80152  1  0  0  0
 81153  1  0  0  0
 81154  1  0  0  0
 82155  1  0  0  0
 82156  1  0  0  0
 83157  1  0  0  0
 83158  1  0  0  0
 84159  1  0  0  0
 85160  1  0  0  0
M  ISO  4   1 100  68 101  81 101  85 100
M  END
> <chiral flag>
0

> <version>
0

> <s_m_source_file>
/data/baiqing/PycharmProjects/Reinvent-master-3.2/result/LINK_invent/BTK/process_docking_weight1_custom_product_contain_oxygen_bond_distance_aromatic_linkinvent_7_9_3/rearranged_h_0106.sdf

> <i_m_source_file_index>
73

> <r_mmod_Potential_Energy-OPLS-2005>
83.3472442626953

> <r_mmod_Stretch_Energy-OPLS-2005>
46.9967918395996

> <r_mmod_Bend_Energy-OPLS-2005>
102.758995056152

> <r_mmod_Torsional_Energy-OPLS-2005>
323.683990478516

> <r_mmod_Improper_Torsional_Energy-OPLS-2005>
9.46849918365479

> <r_mmod_Van_der_Waal_Energy-OPLS-2005>
155.819412231445

> <r_mmod_Electrostatic_Energy-OPLS-2005>
-287.021636962891

> <r_mmod_Solvation_Energy-OPLS-2005>
-296.472930908203

> <b_mmod_Minimization_Converged-OPLS-2005>
0

> <r_mmod_RMS_Derivative-OPLS-2005>
1.42891454696655

$$$$
73
                    3D
 Structure written by MMmdl.
158166  0  0  1  0            999 V2000
  -30.6678  -14.5225   20.4790 C   0  0  0  0  0  0
  -30.4265  -12.3039   19.4357 C   0  0  0  0  0  0
  -29.4958  -12.4823   18.2170 C   0  0  0  0  0  0
  -28.0206  -12.3333   18.6382 C   0  0  0  0  0  0
  -27.6583  -13.2012   19.8722 C   0  0  2  0  0  0
  -28.7037  -13.0240   20.9971 C   0  0  0  0  0  0
  -25.2507  -13.8039   20.5673 C   0  0  0  0  0  0
  -24.1768  -13.0319   20.9198 C   0  0  0  0  0  0
  -24.6314  -11.6795   20.8730 C   0  0  0  0  0  0
  -23.8986  -10.4182   21.0389 C   0  0  0  0  0  0
  -24.3526   -9.4095   21.9179 C   0  0  0  0  0  0
  -23.6218   -8.2118   22.0749 C   0  0  0  0  0  0
  -22.4219   -8.0155   21.3528 C   0  0  0  0  0  0
  -21.9819   -9.0131   20.4622 C   0  0  0  0  0  0
  -22.7139  -10.2017   20.3036 C   0  0  0  0  0  0
  -21.6791   -6.0605   22.5273 C   0  0  0  0  0  0
  -21.3974   -6.5545   23.8192 C   0  0  0  0  0  0
  -21.3720   -5.6740   24.9194 C   0  0  0  0  0  0
  -21.6082   -4.2994   24.7261 C   0  0  0  0  0  0
  -21.8798   -3.8034   23.4387 C   0  0  0  0  0  0
  -21.9149   -4.6827   22.3419 C   0  0  0  0  0  0
  -22.7782  -13.5134   21.1887 C   0  0  0  0  0  0
  -22.1617   -4.1976   21.0997 F   0  0  0  0  0  0
  -21.5690   -3.4520   25.7805 F   0  0  0  0  0  0
  -30.0343  -13.3153   20.4340 N   0  0  0  0  0  0
  -26.2976  -12.9236   20.3370 N   0  0  0  0  0  0
  -25.9260  -11.6397   20.5816 N   0  0  0  0  0  0
  -22.0439  -12.8188   22.0481 N   0  0  0  0  0  0
  -25.4172  -15.1754   20.4087 N   0  0  0  0  0  0
  -31.8337  -14.6775   20.1020 O   0  0  0  0  0  0
  -21.6579   -6.8755   21.4229 O   0  0  0  0  0  0
  -22.3513  -14.5466   20.6761 O   0  0  0  0  0  0
  -24.6178  -31.8671   23.2049 C   0  0  0  0  0  0
  -25.9060  -32.4815   23.8340 C   0  0  1  0  0  0
  -27.2094  -27.3863   20.0994 C   0  0  0  0  0  0
  -25.5903  -33.8602   24.2269 N   0  0  0  0  0  0
  -23.4037  -30.4956   21.5499 C   0  0  2  0  0  0
  -24.8446  -28.9581   20.1078 C   0  0  0  0  0  0
  -22.7378  -29.4699   22.4969 C   0  0  0  0  0  0
  -18.0271  -28.1380   22.8496 C   0  0  0  0  0  0
  -24.1493  -36.7329   23.2635 C   0  0  0  0  0  0
  -25.9366  -30.8170   21.3638 C   0  0  0  0  0  0
  -26.0107  -29.4483   20.7116 C   0  0  0  0  0  0
  -27.1971  -28.6656   20.7127 C   0  0  0  0  0  0
  -26.0364  -26.9493   19.4439 C   0  0  0  0  0  0
  -24.8545  -27.7084   19.4701 C   0  0  0  0  0  0
  -23.6085  -29.8286   20.1650 C   0  0  0  0  0  0
  -25.4113  -36.3109   24.0320 C   0  0  1  0  0  0
  -20.5861  -28.3698   23.1289 C   0  0  2  0  0  0
  -20.6770  -26.9437   22.5410 C   0  0  0  0  0  0
  -19.5757  -26.6390   21.5211 C   0  0  0  0  0  0
  -18.1936  -26.7931   22.1620 C   0  0  0  0  0  0
  -19.1520  -28.8835   23.2898 C   0  0  0  0  0  0
  -18.9456  -30.1444   23.8913 C   0  0  0  0  0  0
  -17.6468  -30.6595   24.0564 C   0  0  0  0  0  0
  -25.9040  -34.9486   23.5100 C   0  0  0  0  0  0
  -16.5355  -29.9108   23.6335 C   0  0  0  0  0  0
  -16.7260  -28.6516   23.0352 C   0  0  0  0  0  0
  -26.4446  -31.6594   25.0697 C   0  0  0  0  0  0
  -25.3659  -31.3731   26.1411 C   0  0  0  0  0  0
  -27.0282  -30.3030   24.6112 C   0  0  0  0  0  0
  -27.6007  -32.4300   25.7496 C   0  0  0  0  0  0
  -27.5581  -37.1826   24.8449 C   0  0  0  0  0  0
  -21.4110  -29.3060   22.3660 N   0  0  0  0  0  0
  -26.4292  -37.3801   23.9397 N   0  0  0  0  0  0
  -24.6713  -31.0724   22.0995 N   0  0  0  0  0  0
  -23.4121  -28.8235   23.3015 O   0  0  0  0  0  0
  -28.3168  -26.5460   20.1489 O   0  0  0  0  0  0
  -26.5632  -34.8944   22.4681 O   0  0  0  0  0  0
  -23.5363  -32.1470   23.7423 O   0  0  0  0  0  0
  -29.8282  -19.5243   19.1333 C   0  0  0  0  0  0
  -30.1122  -18.4135   18.3308 C   0  0  0  0  0  0
  -29.6181  -18.0416   21.0537 C   0  0  0  0  0  0
  -29.5518  -19.3613   20.5076 C   0  0  0  0  0  0
  -29.9147  -16.9025   20.2474 C   0  0  0  0  0  0
  -30.0950  -17.0980   18.8497 C   0  0  0  0  0  0
  -28.0623  -25.2244   20.5153 C   0  0  0  0  0  0
  -29.0696  -20.5429   21.3366 C   0  0  0  0  0  0
  -28.9582  -24.2060   20.6394 C   0  0  0  0  0  0
  -28.4641  -22.8915   21.1114 C   0  0  0  0  0  0
  -29.5242  -16.1338   16.7526 C   0  0  0  0  0  0
  -29.8876  -15.5773   20.8180 N   0  0  0  0  0  0
  -29.2215  -21.7975   20.8218 N   0  0  0  0  0  0
  -30.3862  -24.4887   20.3593 N   0  3  0  0  0  0
  -28.5647  -20.3118   22.4436 O   0  0  0  0  0  0
  -27.3918  -22.7895   21.7255 O   0  0  0  0  0  0
  -30.1999  -16.0136   18.0046 O   0  0  0  0  0  0
  -31.4689  -12.3928   19.1250 H   0  0  0  0  0  0
  -30.3259  -11.3001   19.8564 H   0  0  0  0  0  0
  -29.7510  -11.7602   17.4388 H   0  0  0  0  0  0
  -29.6545  -13.4654   17.7757 H   0  0  0  0  0  0
  -27.8540  -11.2847   18.8832 H   0  0  0  0  0  0
  -27.3627  -12.5652   17.8014 H   0  0  0  0  0  0
  -27.6913  -14.2400   19.5450 H   0  0  0  0  0  0
  -28.6788  -12.0016   21.3791 H   0  0  0  0  0  0
  -28.4714  -13.6645   21.8490 H   0  0  0  0  0  0
  -25.2670   -9.5532   22.4769 H   0  0  0  0  0  0
  -23.9874   -7.4499   22.7495 H   0  0  0  0  0  0
  -21.0718   -8.8604   19.8972 H   0  0  0  0  0  0
  -22.3586  -10.9507   19.6110 H   0  0  0  0  0  0
  -21.1942   -7.6049   23.9638 H   0  0  0  0  0  0
  -21.1639   -6.0497   25.9108 H   0  0  0  0  0  0
  -22.0544   -2.7469   23.2945 H   0  0  0  0  0  0
  -22.4141  -11.9952   22.5020 H   0  0  0  0  0  0
  -21.1043  -13.1169   22.2727 H   0  0  0  0  0  0
  -24.6344  -15.8102   20.5282 H   0  0  0  0  0  0
  -26.2536  -15.6202   20.0492 H   0  0  0  0  0  0
  -26.7104  -32.5534   23.1062 H   0  0  0  0  0  0
  -24.9935  -33.9710   25.0341 H   0  0  0  0  0  0
  -22.6998  -31.3192   21.4127 H   0  0  0  0  0  0
  -23.3750  -35.9672   23.3301 H   0  0  0  0  0  0
  -24.3568  -36.8954   22.2046 H   0  0  0  0  0  0
  -23.7253  -37.6538   23.6647 H   0  0  0  0  0  0
  -26.0440  -31.5797   20.5896 H   0  0  0  0  0  0
  -26.8266  -30.8740   21.9793 H   0  0  0  0  0  0
  -28.0916  -29.0233   21.2037 H   0  0  0  0  0  0
  -26.0208  -26.0033   18.9227 H   0  0  0  0  0  0
  -23.9600  -27.3276   18.9919 H   0  0  0  0  0  0
  -23.7051  -30.6040   19.4039 H   0  0  0  0  0  0
  -22.7279  -29.2485   19.8792 H   0  0  0  0  0  0
  -25.1303  -36.1956   25.0816 H   0  0  0  0  0  0
  -20.9980  -28.3293   24.1400 H   0  0  0  0  0  0
  -20.5682  -26.2320   23.3613 H   0  0  0  0  0  0
  -21.6646  -26.7482   22.1215 H   0  0  0  0  0  0
  -19.6939  -25.6301   21.1246 H   0  0  0  0  0  0
  -19.6693  -27.3189   20.6741 H   0  0  0  0  0  0
  -17.4215  -26.6667   21.4020 H   0  0  0  0  0  0
  -18.0358  -26.0045   22.8996 H   0  0  0  0  0  0
  -19.7949  -30.7246   24.2285 H   0  0  0  0  0  0
  -17.5047  -31.6286   24.5164 H   0  0  0  0  0  0
  -15.5368  -30.3029   23.7631 H   0  0  0  0  0  0
  -15.8655  -28.0840   22.7057 H   0  0  0  0  0  0
  -24.5795  -30.7135   25.7712 H   0  0  0  0  0  0
  -24.8882  -32.2907   26.4853 H   0  0  0  0  0  0
  -25.7937  -30.8857   27.0174 H   0  0  0  0  0  0
  -26.2859  -29.6811   24.1083 H   0  0  0  0  0  0
  -27.3943  -29.7245   25.4604 H   0  0  0  0  0  0
  -27.8739  -30.4337   23.9350 H   0  0  0  0  0  0
  -27.2599  -33.3576   26.2097 H   0  0  0  0  0  0
  -28.3816  -32.6874   25.0334 H   0  0  0  0  0  0
  -28.0658  -31.8396   26.5396 H   0  0  0  0  0  0
  -28.2588  -38.0135   24.7512 H   0  0  0  0  0  0
  -28.1078  -36.2664   24.6249 H   0  0  0  0  0  0
  -27.2288  -37.1453   25.8846 H   0  0  0  0  0  0
  -20.9247  -29.8743   21.6872 H   0  0  0  0  0  0
  -26.0187  -38.2888   24.1378 H   0  0  0  0  0  0
  -29.7741  -20.4907   18.6554 H   0  0  0  0  0  0
  -30.3074  -18.5943   17.2867 H   0  0  0  0  0  0
  -29.3964  -17.9004   22.1022 H   0  0  0  0  0  0
  -27.0169  -25.0393   20.7327 H   0  0  0  0  0  0
  -28.4927  -16.4595   16.9084 H   0  0  0  0  0  0
  -29.4833  -15.1737   16.2366 H   0  0  0  0  0  0
  -30.0153  -16.8271   16.0699 H   0  0  0  0  0  0
  -29.0395  -15.3259   21.3016 H   0  0  0  0  0  0
  -29.8779  -21.8532   20.0652 H   0  0  0  0  0  0
  -30.4770  -25.2519   19.7158 H   0  0  0  0  0  0
  -30.8574  -23.6958   19.9702 H   0  0  0  0  0  0
  -30.8668  -24.7458   21.2020 H   0  0  0  0  0  0
  1 25  1  0  0  0
  1 30  2  0  0  0
  1 82  1  0  0  0
  2  3  1  0  0  0
  2 25  1  0  0  0
  2 88  1  0  0  0
  2 89  1  0  0  0
  3  4  1  0  0  0
  3 90  1  0  0  0
  3 91  1  0  0  0
  4  5  1  0  0  0
  4 92  1  0  0  0
  4 93  1  0  0  0
  5  6  1  0  0  0
  5 26  1  0  0  0
  5 94  1  0  0  0
  6 25  1  0  0  0
  6 95  1  0  0  0
  6 96  1  0  0  0
  7  8  2  0  0  0
  7 26  1  0  0  0
  7 29  1  0  0  0
  8  9  1  0  0  0
  8 22  1  0  0  0
  9 10  1  0  0  0
  9 27  2  0  0  0
 10 11  2  0  0  0
 10 15  1  0  0  0
 11 12  1  0  0  0
 11 97  1  0  0  0
 12 13  2  0  0  0
 12 98  1  0  0  0
 13 14  1  0  0  0
 13 31  1  0  0  0
 14 15  2  0  0  0
 14 99  1  0  0  0
 15100  1  0  0  0
 16 17  2  0  0  0
 16 21  1  0  0  0
 16 31  1  0  0  0
 17 18  1  0  0  0
 17101  1  0  0  0
 18 19  2  0  0  0
 18102  1  0  0  0
 19 20  1  0  0  0
 19 24  1  0  0  0
 20 21  2  0  0  0
 20103  1  0  0  0
 21 23  1  0  0  0
 22 28  1  0  0  0
 22 32  2  0  0  0
 26 27  1  0  0  0
 28104  1  0  0  0
 28105  1  0  0  0
 29106  1  0  0  0
 29107  1  0  0  0
 33 34  1  0  0  0
 33 66  1  0  0  0
 33 70  2  0  0  0
 34 36  1  0  0  0
 34 59  1  0  0  0
 34108  1  0  0  0
 35 44  2  0  0  0
 35 45  1  0  0  0
 35 68  1  0  0  0
 36 56  1  0  0  0
 36109  1  0  0  0
 37 39  1  0  0  0
 37 47  1  0  0  0
 37 66  1  0  0  0
 37110  1  0  0  0
 38 43  2  0  0  0
 38 46  1  0  0  0
 38 47  1  0  0  0
 39 64  1  0  0  0
 39 67  2  0  0  0
 40 52  1  0  0  0
 40 53  2  0  0  0
 40 58  1  0  0  0
 41111  1  0  0  0
 41112  1  0  0  0
 41113  1  0  0  0
 41 48  1  0  0  0
 42 43  1  0  0  0
 42 66  1  0  0  0
 42114  1  0  0  0
 42115  1  0  0  0
 43 44  1  0  0  0
 44116  1  0  0  0
 45 46  2  0  0  0
 45117  1  0  0  0
 46118  1  0  0  0
 47119  1  0  0  0
 47120  1  0  0  0
 48 56  1  0  0  0
 48 65  1  0  0  0
 48121  1  0  0  0
 49 50  1  0  0  0
 49 53  1  0  0  0
 49 64  1  0  0  0
 49122  1  0  0  0
 50 51  1  0  0  0
 50123  1  0  0  0
 50124  1  0  0  0
 51 52  1  0  0  0
 51125  1  0  0  0
 51126  1  0  0  0
 52127  1  0  0  0
 52128  1  0  0  0
 53 54  1  0  0  0
 54 55  2  0  0  0
 54129  1  0  0  0
 55 57  1  0  0  0
 55130  1  0  0  0
 56 69  2  0  0  0
 57 58  2  0  0  0
 57131  1  0  0  0
 58132  1  0  0  0
 59 60  1  0  0  0
 59 61  1  0  0  0
 59 62  1  0  0  0
 60133  1  0  0  0
 60134  1  0  0  0
 60135  1  0  0  0
 61136  1  0  0  0
 61137  1  0  0  0
 61138  1  0  0  0
 62139  1  0  0  0
 62140  1  0  0  0
 62141  1  0  0  0
 63 65  1  0  0  0
 63142  1  0  0  0
 63143  1  0  0  0
 63144  1  0  0  0
 64145  1  0  0  0
 65146  1  0  0  0
 68 77  1  0  0  0
 71 72  2  0  0  0
 71 74  1  0  0  0
 71147  1  0  0  0
 72 76  1  0  0  0
 72148  1  0  0  0
 73 74  2  0  0  0
 73 75  1  0  0  0
 73149  1  0  0  0
 74 78  1  0  0  0
 75 76  2  0  0  0
 75 82  1  0  0  0
 76 87  1  0  0  0
 77 79  2  0  0  0
 77150  1  0  0  0
 78 83  1  0  0  0
 78 85  2  0  0  0
 79 80  1  0  0  0
 79 84  1  0  0  0
 80 83  1  0  0  0
 80 86  2  0  0  0
 81 87  1  0  0  0
 81151  1  0  0  0
 81152  1  0  0  0
 81153  1  0  0  0
 82154  1  0  0  0
 83155  1  0  0  0
 84156  1  0  0  0
 84157  1  0  0  0
 84158  1  0  0  0
M  CHG  1  84   1
M  ISO  4   1 100  68 101  77 101  82 100
M  END
> <chiral flag>
0

> <version>
0

> <s_m_source_file>
/data/baiqing/PycharmProjects/Reinvent-master-3.2/result/LINK_invent/BTK/process_docking_weight1_custom_product_contain_oxygen_bond_distance_aromatic_linkinvent_7_9_3/rearranged_h_0106.sdf

> <i_m_source_file_index>
74

> <r_mmod_Potential_Energy-OPLS-2005>
-543.320617675781

> <r_mmod_Stretch_Energy-OPLS-2005>
52.7723007202148

> <r_mmod_Bend_Energy-OPLS-2005>
107.381523132324

> <r_mmod_Torsional_Energy-OPLS-2005>
283.278045654297

> <r_mmod_Improper_Torsional_Energy-OPLS-2005>
6.43521976470947

> <r_mmod_Van_der_Waal_Energy-OPLS-2005>
175.050155639648

> <r_mmod_Electrostatic_Energy-OPLS-2005>
-560.910217285156

> <r_mmod_Solvation_Energy-OPLS-2005>
-634.992858886719

> <b_mmod_Minimization_Converged-OPLS-2005>
0

> <r_mmod_RMS_Derivative-OPLS-2005>
6.01088285446167

$$$$
74
                    3D
 Structure written by MMmdl.
162171  0  0  1  0            999 V2000
  -30.6336  -14.6556   20.6043 C   0  0  0  0  0  0
  -30.4314  -12.4340   19.4572 C   0  0  0  0  0  0
  -29.5082  -12.5372   18.2226 C   0  0  0  0  0  0
  -28.0279  -12.3661   18.6195 C   0  0  0  0  0  0
  -27.6429  -13.2222   19.8536 C   0  0  2  0  0  0
  -28.6726  -13.0620   20.9850 C   0  0  0  0  0  0
  -25.2489  -13.8178   20.5620 C   0  0  0  0  0  0
  -24.1782  -13.0443   20.9198 C   0  0  0  0  0  0
  -24.6340  -11.6911   20.8700 C   0  0  0  0  0  0
  -23.9021  -10.4296   21.0378 C   0  0  0  0  0  0
  -24.3583   -9.4234   21.9172 C   0  0  0  0  0  0
  -23.6274   -8.2265   22.0765 C   0  0  0  0  0  0
  -22.4268   -8.0275   21.3556 C   0  0  0  0  0  0
  -21.9886   -9.0231   20.4658 C   0  0  0  0  0  0
  -22.7190  -10.2124   20.3048 C   0  0  0  0  0  0
  -21.6870   -6.0724   22.5279 C   0  0  0  0  0  0
  -21.4015   -6.5622   23.8214 C   0  0  0  0  0  0
  -21.3663   -5.6778   24.9177 C   0  0  0  0  0  0
  -21.6050   -4.3044   24.7235 C   0  0  0  0  0  0
  -21.8818   -3.8131   23.4360 C   0  0  0  0  0  0
  -21.9189   -4.6945   22.3415 C   0  0  0  0  0  0
  -22.7817  -13.5244   21.1855 C   0  0  0  0  0  0
  -22.1673   -4.2131   21.0995 F   0  0  0  0  0  0
  -21.5620   -3.4521   25.7752 F   0  0  0  0  0  0
  -29.9934  -13.4433   20.4520 N   0  0  0  0  0  0
  -26.2899  -12.9360   20.3204 N   0  0  0  0  0  0
  -25.9256  -11.6503   20.5674 N   0  0  0  0  0  0
  -22.0418  -12.8266   22.0413 N   0  0  0  0  0  0
  -25.4189  -15.1893   20.3998 N   0  0  0  0  0  0
  -31.7431  -14.8360   20.0874 O   0  0  0  0  0  0
  -21.6663   -6.8862   21.4238 O   0  0  0  0  0  0
  -22.3524  -14.5539   20.6690 O   0  0  0  0  0  0
  -24.6272  -31.8588   23.2023 C   0  0  0  0  0  0
  -25.9107  -32.4768   23.8359 C   0  0  1  0  0  0
  -27.2059  -27.3020   20.1198 C   0  0  0  0  0  0
  -25.5930  -33.8581   24.2286 N   0  0  0  0  0  0
  -23.4222  -30.4825   21.5448 C   0  0  2  0  0  0
  -24.8681  -28.9416   20.1053 C   0  0  0  0  0  0
  -22.7475  -29.4613   22.4920 C   0  0  0  0  0  0
  -18.0288  -28.1378   22.8472 C   0  0  0  0  0  0
  -24.1499  -36.7297   23.2629 C   0  0  0  0  0  0
  -25.9653  -30.7816   21.3793 C   0  0  0  0  0  0
  -26.0383  -29.4101   20.7183 C   0  0  0  0  0  0
  -27.2142  -28.5998   20.7204 C   0  0  0  0  0  0
  -26.0263  -26.9046   19.4544 C   0  0  0  0  0  0
  -24.8645  -27.6954   19.4623 C   0  0  0  0  0  0
  -23.6375  -29.8223   20.1592 C   0  0  0  0  0  0
  -25.4114  -36.3079   24.0331 C   0  0  1  0  0  0
  -20.5888  -28.3678   23.1275 C   0  0  2  0  0  0
  -20.6781  -26.9402   22.5405 C   0  0  0  0  0  0
  -19.5761  -26.6376   21.5205 C   0  0  0  0  0  0
  -18.1937  -26.7922   22.1613 C   0  0  0  0  0  0
  -19.1537  -28.8844   23.2863 C   0  0  0  0  0  0
  -18.9467  -30.1447   23.8876 C   0  0  0  0  0  0
  -17.6470  -30.6573   24.0560 C   0  0  0  0  0  0
  -25.9049  -34.9453   23.5101 C   0  0  0  0  0  0
  -16.5360  -29.9075   23.6330 C   0  0  0  0  0  0
  -16.7277  -28.6498   23.0338 C   0  0  0  0  0  0
  -26.4496  -31.6573   25.0726 C   0  0  0  0  0  0
  -25.3745  -31.3720   26.1463 C   0  0  0  0  0  0
  -27.0317  -30.2985   24.6179 C   0  0  0  0  0  0
  -27.6062  -32.4305   25.7478 C   0  0  0  0  0  0
  -27.5589  -37.1789   24.8452 C   0  0  0  0  0  0
  -21.4186  -29.3038   22.3675 N   0  0  0  0  0  0
  -26.4286  -37.3775   23.9426 N   0  0  0  0  0  0
  -24.6905  -31.0583   22.0987 N   0  0  0  0  0  0
  -23.4188  -28.8137   23.2988 O   0  0  0  0  0  0
  -28.2698  -26.3890   20.1688 O   0  0  0  0  0  0
  -26.5611  -34.8915   22.4661 O   0  0  0  0  0  0
  -23.5433  -32.1413   23.7328 O   0  0  0  0  0  0
  -30.6130  -19.3177   20.1885 C   0  0  0  0  0  0
  -28.3263  -19.1252   20.8533 C   0  0  0  0  0  0
  -30.8018  -17.9135   20.3884 C   0  0  0  0  0  0
  -28.5207  -17.7241   21.0836 C   0  0  0  0  0  0
  -30.1058  -22.2057   19.4296 C   0  0  0  0  0  0
  -28.6622  -23.7220   20.3369 C   0  0  0  0  0  0
  -29.3764  -19.9921   20.4271 C   0  0  0  0  0  0
  -29.7661  -17.0671   20.8651 C   0  0  0  0  0  0
  -29.7911  -23.5418   19.4844 C   0  0  0  0  0  0
  -28.3475  -22.4265   20.7634 C   0  0  0  0  0  0
  -27.2285  -22.0425   21.6820 C   0  0  0  0  0  0
  -30.8951  -16.3124   23.5492 C   0  0  0  0  0  0
  -27.9269  -25.0604   20.7518 C   0  0  0  0  0  0
  -29.8678  -15.4789   22.7627 C   0  0  0  0  0  0
  -29.2486  -21.4574   20.2322 N   0  0  0  0  0  0
  -29.9869  -15.6708   21.3018 N   0  0  0  0  0  0
  -30.4611  -24.5348   18.8340 O   0  0  0  0  0  0
  -31.4717  -12.5693   19.1566 H   0  0  0  0  0  0
  -30.3764  -11.4354   19.8945 H   0  0  0  0  0  0
  -29.7892  -11.7865   17.4838 H   0  0  0  0  0  0
  -29.6475  -13.5079   17.7436 H   0  0  0  0  0  0
  -27.8572  -11.3118   18.8339 H   0  0  0  0  0  0
  -27.3829  -12.6154   17.7751 H   0  0  0  0  0  0
  -27.6677  -14.2653   19.5374 H   0  0  0  0  0  0
  -28.6948  -12.0319   21.3408 H   0  0  0  0  0  0
  -28.3488  -13.6544   21.8366 H   0  0  0  0  0  0
  -25.2725   -9.5761   22.4755 H   0  0  0  0  0  0
  -23.9986   -7.4677   22.7495 H   0  0  0  0  0  0
  -21.0819   -8.8736   19.8981 H   0  0  0  0  0  0
  -22.3609  -10.9649   19.6173 H   0  0  0  0  0  0
  -21.2022   -7.6136   23.9711 H   0  0  0  0  0  0
  -21.1490   -6.0524   25.9076 H   0  0  0  0  0  0
  -22.0598   -2.7585   23.2872 H   0  0  0  0  0  0
  -22.3961  -11.9973   22.4937 H   0  0  0  0  0  0
  -21.1022  -13.1338   22.2491 H   0  0  0  0  0  0
  -24.6488  -15.8418   20.4992 H   0  0  0  0  0  0
  -26.2632  -15.6210   20.0482 H   0  0  0  0  0  0
  -26.7163  -32.5432   23.1095 H   0  0  0  0  0  0
  -25.0109  -33.9743   25.0454 H   0  0  0  0  0  0
  -22.7164  -31.3038   21.4014 H   0  0  0  0  0  0
  -23.3772  -35.9615   23.3261 H   0  0  0  0  0  0
  -24.3596  -36.8951   22.2048 H   0  0  0  0  0  0
  -23.7254  -37.6489   23.6673 H   0  0  0  0  0  0
  -26.1034  -31.5444   20.6119 H   0  0  0  0  0  0
  -26.8437  -30.8267   22.0109 H   0  0  0  0  0  0
  -28.1071  -28.9441   21.2248 H   0  0  0  0  0  0
  -25.9928  -25.9544   18.9416 H   0  0  0  0  0  0
  -23.9716  -27.3380   18.9689 H   0  0  0  0  0  0
  -23.7579  -30.6020   19.4063 H   0  0  0  0  0  0
  -22.7582  -29.2522   19.8526 H   0  0  0  0  0  0
  -25.1291  -36.1922   25.0823 H   0  0  0  0  0  0
  -20.9976  -28.3261   24.1395 H   0  0  0  0  0  0
  -20.5683  -26.2285   23.3603 H   0  0  0  0  0  0
  -21.6650  -26.7431   22.1198 H   0  0  0  0  0  0
  -19.6932  -25.6286   21.1230 H   0  0  0  0  0  0
  -19.6714  -27.3188   20.6738 H   0  0  0  0  0  0
  -17.4210  -26.6660   21.4009 H   0  0  0  0  0  0
  -18.0336  -26.0057   22.9002 H   0  0  0  0  0  0
  -19.7944  -30.7264   24.2234 H   0  0  0  0  0  0
  -17.5026  -31.6254   24.5167 H   0  0  0  0  0  0
  -15.5360  -30.2972   23.7670 H   0  0  0  0  0  0
  -15.8675  -28.0826   22.7051 H   0  0  0  0  0  0
  -24.5926  -30.7041   25.7828 H   0  0  0  0  0  0
  -24.8921  -32.2874   26.4881 H   0  0  0  0  0  0
  -25.8082  -30.8927   27.0241 H   0  0  0  0  0  0
  -26.2872  -29.6736   24.1216 H   0  0  0  0  0  0
  -27.4019  -29.7233   25.4676 H   0  0  0  0  0  0
  -27.8752  -30.4252   23.9392 H   0  0  0  0  0  0
  -27.2684  -33.3620   26.2029 H   0  0  0  0  0  0
  -28.3868  -32.6835   25.0294 H   0  0  0  0  0  0
  -28.0718  -31.8442   26.5405 H   0  0  0  0  0  0
  -28.2563  -38.0126   24.7545 H   0  0  0  0  0  0
  -28.1131  -36.2660   24.6209 H   0  0  0  0  0  0
  -27.2313  -37.1354   25.8851 H   0  0  0  0  0  0
  -20.9363  -29.8786   21.6913 H   0  0  0  0  0  0
  -26.0168  -38.2841   24.1459 H   0  0  0  0  0  0
  -31.4747  -19.8843   19.8719 H   0  0  0  0  0  0
  -27.3429  -19.5247   21.0330 H   0  0  0  0  0  0
  -31.7886  -17.5042   20.2293 H   0  0  0  0  0  0
  -27.6869  -17.1507   21.4655 H   0  0  0  0  0  0
  -30.8960  -21.7166   18.8771 H   0  0  0  0  0  0
  -26.8176  -22.9168   22.1898 H   0  0  0  0  0  0
  -27.5646  -21.3524   22.4553 H   0  0  0  0  0  0
  -26.4100  -21.5785   21.1312 H   0  0  0  0  0  0
  -30.7098  -17.3834   23.4480 H   0  0  0  0  0  0
  -31.9127  -16.1103   23.2125 H   0  0  0  0  0  0
  -30.8494  -16.0727   24.6115 H   0  0  0  0  0  0
  -28.0808  -25.1646   21.8255 H   0  0  0  0  0  0
  -26.8632  -24.8433   20.6604 H   0  0  0  0  0  0
  -28.8615  -15.7472   23.0854 H   0  0  0  0  0  0
  -30.0012  -14.4344   23.0477 H   0  0  0  0  0  0
  -31.2095  -24.2243   18.3315 H   0  0  0  0  0  0
  1 25  1  0  0  0
  1 30  2  0  0  0
  1 86  1  0  0  0
  2  3  1  0  0  0
  2 25  1  0  0  0
  2 88  1  0  0  0
  2 89  1  0  0  0
  3  4  1  0  0  0
  3 90  1  0  0  0
  3 91  1  0  0  0
  4  5  1  0  0  0
  4 92  1  0  0  0
  4 93  1  0  0  0
  5  6  1  0  0  0
  5 26  1  0  0  0
  5 94  1  0  0  0
  6 25  1  0  0  0
  6 95  1  0  0  0
  6 96  1  0  0  0
  7  8  2  0  0  0
  7 26  1  0  0  0
  7 29  1  0  0  0
  8  9  1  0  0  0
  8 22  1  0  0  0
  9 10  1  0  0  0
  9 27  2  0  0  0
 10 11  2  0  0  0
 10 15  1  0  0  0
 11 12  1  0  0  0
 11 97  1  0  0  0
 12 13  2  0  0  0
 12 98  1  0  0  0
 13 14  1  0  0  0
 13 31  1  0  0  0
 14 15  2  0  0  0
 14 99  1  0  0  0
 15100  1  0  0  0
 16 17  2  0  0  0
 16 21  1  0  0  0
 16 31  1  0  0  0
 17 18  1  0  0  0
 17101  1  0  0  0
 18 19  2  0  0  0
 18102  1  0  0  0
 19 20  1  0  0  0
 19 24  1  0  0  0
 20 21  2  0  0  0
 20103  1  0  0  0
 21 23  1  0  0  0
 22 28  1  0  0  0
 22 32  2  0  0  0
 26 27  1  0  0  0
 28104  1  0  0  0
 28105  1  0  0  0
 29106  1  0  0  0
 29107  1  0  0  0
 33 34  1  0  0  0
 33 66  1  0  0  0
 33 70  2  0  0  0
 34 36  1  0  0  0
 34 59  1  0  0  0
 34108  1  0  0  0
 35 44  2  0  0  0
 35 45  1  0  0  0
 35 68  1  0  0  0
 36 56  1  0  0  0
 36109  1  0  0  0
 37 39  1  0  0  0
 37 47  1  0  0  0
 37 66  1  0  0  0
 37110  1  0  0  0
 38 43  2  0  0  0
 38 46  1  0  0  0
 38 47  1  0  0  0
 39 64  1  0  0  0
 39 67  2  0  0  0
 40 52  1  0  0  0
 40 53  2  0  0  0
 40 58  1  0  0  0
 41111  1  0  0  0
 41112  1  0  0  0
 41113  1  0  0  0
 41 48  1  0  0  0
 42 43  1  0  0  0
 42 66  1  0  0  0
 42114  1  0  0  0
 42115  1  0  0  0
 43 44  1  0  0  0
 44116  1  0  0  0
 45 46  2  0  0  0
 45117  1  0  0  0
 46118  1  0  0  0
 47119  1  0  0  0
 47120  1  0  0  0
 48 56  1  0  0  0
 48 65  1  0  0  0
 48121  1  0  0  0
 49 50  1  0  0  0
 49 53  1  0  0  0
 49 64  1  0  0  0
 49122  1  0  0  0
 50 51  1  0  0  0
 50123  1  0  0  0
 50124  1  0  0  0
 51 52  1  0  0  0
 51125  1  0  0  0
 51126  1  0  0  0
 52127  1  0  0  0
 52128  1  0  0  0
 53 54  1  0  0  0
 54 55  2  0  0  0
 54129  1  0  0  0
 55 57  1  0  0  0
 55130  1  0  0  0
 56 69  2  0  0  0
 57 58  2  0  0  0
 57131  1  0  0  0
 58132  1  0  0  0
 59 60  1  0  0  0
 59 61  1  0  0  0
 59 62  1  0  0  0
 60133  1  0  0  0
 60134  1  0  0  0
 60135  1  0  0  0
 61136  1  0  0  0
 61137  1  0  0  0
 61138  1  0  0  0
 62139  1  0  0  0
 62140  1  0  0  0
 62141  1  0  0  0
 63 65  1  0  0  0
 63142  1  0  0  0
 63143  1  0  0  0
 63144  1  0  0  0
 64145  1  0  0  0
 65146  1  0  0  0
 68 83  1  0  0  0
 71 73  2  0  0  0
 71 77  1  0  0  0
 71147  1  0  0  0
 72 74  1  0  0  0
 72 77  2  0  0  0
 72148  1  0  0  0
 73 78  1  0  0  0
 73149  1  0  0  0
 74 78  2  0  0  0
 74150  1  0  0  0
 75 79  2  0  0  0
 75 85  1  0  0  0
 75151  1  0  0  0
 76 79  1  0  0  0
 76 80  2  0  0  0
 76 83  1  0  0  0
 77 85  1  0  0  0
 78 86  1  0  0  0
 79 87  1  0  0  0
 80 81  1  0  0  0
 80 85  1  0  0  0
 81152  1  0  0  0
 81153  1  0  0  0
 81154  1  0  0  0
 82 84  1  0  0  0
 82155  1  0  0  0
 82156  1  0  0  0
 82157  1  0  0  0
 83158  1  0  0  0
 83159  1  0  0  0
 84 86  1  0  0  0
 84160  1  0  0  0
 84161  1  0  0  0
 87162  1  0  0  0
M  ISO  4   1 100  68 101  83 101  86 100
M  END
> <chiral flag>
0

> <version>
0

> <s_m_source_file>
/data/baiqing/PycharmProjects/Reinvent-master-3.2/result/LINK_invent/BTK/process_docking_weight1_custom_product_contain_oxygen_bond_distance_aromatic_linkinvent_7_9_3/rearranged_h_0106.sdf

> <i_m_source_file_index>
75

> <r_mmod_Potential_Energy-OPLS-2005>
295.919281005859

> <r_mmod_Stretch_Energy-OPLS-2005>
98.072624206543

> <r_mmod_Bend_Energy-OPLS-2005>
147.791931152344

> <r_mmod_Torsional_Energy-OPLS-2005>
329.468109130859

> <r_mmod_Improper_Torsional_Energy-OPLS-2005>
4.06707191467285

> <r_mmod_Van_der_Waal_Energy-OPLS-2005>
143.946746826172

> <r_mmod_Electrostatic_Energy-OPLS-2005>
-266.931518554688

> <r_mmod_Solvation_Energy-OPLS-2005>
-219.714157104492

> <b_mmod_Minimization_Converged-OPLS-2005>
0

> <r_mmod_RMS_Derivative-OPLS-2005>
3.06131291389465

$$$$
75
                    3D
 Structure written by MMmdl.
160169  0  0  1  0            999 V2000
  -30.5503  -14.9441   20.3502 C   0  0  0  0  0  0
  -30.4462  -12.5660   19.4852 C   0  0  0  0  0  0
  -29.5227  -12.4454   18.2514 C   0  0  0  0  0  0
  -28.0443  -12.2962   18.6710 C   0  0  0  0  0  0
  -27.6245  -13.2374   19.8347 C   0  0  2  0  0  0
  -28.6815  -13.2908   20.9546 C   0  0  0  0  0  0
  -25.2474  -13.8184   20.5767 C   0  0  0  0  0  0
  -24.1761  -13.0418   20.9211 C   0  0  0  0  0  0
  -24.6370  -11.6902   20.8767 C   0  0  0  0  0  0
  -23.9055  -10.4280   21.0414 C   0  0  0  0  0  0
  -24.3611   -9.4198   21.9189 C   0  0  0  0  0  0
  -23.6287   -8.2233   22.0756 C   0  0  0  0  0  0
  -22.4269   -8.0275   21.3544 C   0  0  0  0  0  0
  -21.9905   -9.0247   20.4645 C   0  0  0  0  0  0
  -22.7232  -10.2125   20.3057 C   0  0  0  0  0  0
  -21.6851   -6.0731   22.5279 C   0  0  0  0  0  0
  -21.4012   -6.5636   23.8212 C   0  0  0  0  0  0
  -21.3659   -5.6790   24.9175 C   0  0  0  0  0  0
  -21.6044   -4.3053   24.7227 C   0  0  0  0  0  0
  -21.8820   -3.8143   23.4349 C   0  0  0  0  0  0
  -21.9192   -4.6959   22.3404 C   0  0  0  0  0  0
  -22.7787  -13.5206   21.1864 C   0  0  0  0  0  0
  -22.1661   -4.2146   21.0982 F   0  0  0  0  0  0
  -21.5630   -3.4537   25.7740 F   0  0  0  0  0  0
  -29.9436  -13.6896   20.3191 N   0  0  0  0  0  0
  -26.2889  -12.9385   20.3337 N   0  0  0  0  0  0
  -25.9308  -11.6527   20.5812 N   0  0  0  0  0  0
  -22.0436  -12.8200   22.0426 N   0  0  0  0  0  0
  -25.4166  -15.1918   20.4296 N   0  0  0  0  0  0
  -31.7842  -14.9683   20.2723 O   0  0  0  0  0  0
  -21.6634   -6.8872   21.4240 O   0  0  0  0  0  0
  -22.3472  -14.5513   20.6715 O   0  0  0  0  0  0
  -24.6418  -31.8459   23.1896 C   0  0  0  0  0  0
  -25.9197  -32.4706   23.8280 C   0  0  1  0  0  0
  -27.2176  -27.1540   20.1492 C   0  0  0  0  0  0
  -25.5949  -33.8511   24.2199 N   0  0  0  0  0  0
  -23.4444  -30.4658   21.5354 C   0  0  2  0  0  0
  -24.8930  -28.8947   20.1131 C   0  0  0  0  0  0
  -22.7559  -29.4556   22.4871 C   0  0  0  0  0  0
  -18.0303  -28.1397   22.8476 C   0  0  0  0  0  0
  -24.1492  -36.7260   23.2641 C   0  0  0  0  0  0
  -25.9994  -30.7258   21.3853 C   0  0  0  0  0  0
  -26.0709  -29.3384   20.7276 C   0  0  0  0  0  0
  -27.2354  -28.4850   20.7260 C   0  0  0  0  0  0
  -26.0118  -26.8062   19.5008 C   0  0  0  0  0  0
  -24.8753  -27.6413   19.4848 C   0  0  0  0  0  0
  -23.6695  -29.7953   20.1549 C   0  0  0  0  0  0
  -25.4124  -36.3040   24.0316 C   0  0  1  0  0  0
  -20.5914  -28.3719   23.1241 C   0  0  2  0  0  0
  -20.6788  -26.9425   22.5404 C   0  0  0  0  0  0
  -19.5762  -26.6382   21.5213 C   0  0  0  0  0  0
  -18.1943  -26.7934   22.1624 C   0  0  0  0  0  0
  -19.1559  -28.8876   23.2850 C   0  0  0  0  0  0
  -18.9475  -30.1473   23.8875 C   0  0  0  0  0  0
  -17.6472  -30.6593   24.0559 C   0  0  0  0  0  0
  -25.9072  -34.9414   23.5067 C   0  0  0  0  0  0
  -16.5363  -29.9086   23.6337 C   0  0  0  0  0  0
  -16.7287  -28.6506   23.0354 C   0  0  0  0  0  0
  -26.4521  -31.6567   25.0715 C   0  0  0  0  0  0
  -25.3707  -31.3748   26.1409 C   0  0  0  0  0  0
  -27.0388  -30.2968   24.6285 C   0  0  0  0  0  0
  -27.6051  -32.4331   25.7504 C   0  0  0  0  0  0
  -27.5577  -37.1787   24.8465 C   0  0  0  0  0  0
  -21.4253  -29.3048   22.3616 N   0  0  0  0  0  0
  -26.4289  -37.3751   23.9407 N   0  0  0  0  0  0
  -24.7151  -31.0331   22.0921 N   0  0  0  0  0  0
  -23.4209  -28.8103   23.3015 O   0  0  0  0  0  0
  -28.2835  -26.1885   20.1989 O   0  0  0  0  0  0
  -26.5658  -34.8908   22.4645 O   0  0  0  0  0  0
  -23.5541  -32.1325   23.7126 O   0  0  0  0  0  0
  -30.1258  -20.0510   19.8273 C   0  0  0  0  0  0
  -30.4106  -18.6319   19.6532 C   0  0  0  0  0  0
  -28.4247  -19.4700   21.3490 C   0  0  0  0  0  0
  -29.1098  -20.5651   20.6994 C   0  0  0  0  0  0
  -29.7306  -17.5467   20.3225 C   0  0  0  0  0  0
  -28.7095  -18.0549   21.1859 C   0  0  0  0  0  0
  -28.9123  -22.3478   22.3608 C   0  0  0  0  0  0
  -29.6827  -23.6322   22.6295 C   0  0  0  0  0  0
  -30.2300  -23.9780   21.2525 C   0  0  0  0  0  0
  -29.1429  -23.4218   20.3352 C   0  0  2  0  0  0
  -29.6385  -16.0032   18.4247 C   0  0  0  0  0  0
  -28.0043  -24.6603   20.2478 C   0  0  0  0  0  0
  -28.8334  -22.0465   21.0414 N   0  0  0  0  0  0
  -27.9076  -17.1380   21.8643 N   0  0  0  0  0  0
  -29.8180  -16.0802   19.8866 N   0  0  0  0  0  0
  -28.4454  -21.6928   23.2975 O   0  0  0  0  0  0
  -31.4759  -12.7291   19.1624 H   0  0  0  0  0  0
  -30.4528  -11.6369   20.0572 H   0  0  0  0  0  0
  -29.8197  -11.5828   17.6532 H   0  0  0  0  0  0
  -29.6518  -13.3031   17.5951 H   0  0  0  0  0  0
  -27.9095  -11.2596   18.9812 H   0  0  0  0  0  0
  -27.3889  -12.4392   17.8111 H   0  0  0  0  0  0
  -27.5590  -14.2341   19.4087 H   0  0  0  0  0  0
  -28.7760  -12.3278   21.4581 H   0  0  0  0  0  0
  -28.3957  -14.0185   21.7153 H   0  0  0  0  0  0
  -25.2753   -9.5677   22.4767 H   0  0  0  0  0  0
  -23.9995   -7.4624   22.7474 H   0  0  0  0  0  0
  -21.0838   -8.8765   19.8949 H   0  0  0  0  0  0
  -22.3691  -10.9666   19.6168 H   0  0  0  0  0  0
  -21.2003   -7.6143   23.9716 H   0  0  0  0  0  0
  -21.1481   -6.0520   25.9078 H   0  0  0  0  0  0
  -22.0599   -2.7606   23.2850 H   0  0  0  0  0  0
  -22.4056  -11.9867   22.4822 H   0  0  0  0  0  0
  -21.1053  -13.1225   22.2629 H   0  0  0  0  0  0
  -24.6652  -15.8472   20.6114 H   0  0  0  0  0  0
  -26.3127  -15.6518   20.3083 H   0  0  0  0  0  0
  -26.7263  -32.5317   23.1010 H   0  0  0  0  0  0
  -25.0071  -33.9629   25.0329 H   0  0  0  0  0  0
  -22.7461  -31.2912   21.3822 H   0  0  0  0  0  0
  -23.3760  -35.9585   23.3293 H   0  0  0  0  0  0
  -24.3575  -36.8901   22.2057 H   0  0  0  0  0  0
  -23.7241  -37.6451   23.6683 H   0  0  0  0  0  0
  -26.1528  -31.4809   20.6132 H   0  0  0  0  0  0
  -26.8706  -30.7757   22.0268 H   0  0  0  0  0  0
  -28.1351  -28.8216   21.2217 H   0  0  0  0  0  0
  -25.9121  -25.8534   19.0058 H   0  0  0  0  0  0
  -23.9763  -27.2970   18.9923 H   0  0  0  0  0  0
  -23.8054  -30.5695   19.3989 H   0  0  0  0  0  0
  -22.7846  -29.2364   19.8449 H   0  0  0  0  0  0
  -25.1313  -36.1870   25.0808 H   0  0  0  0  0  0
  -21.0004  -28.3308   24.1363 H   0  0  0  0  0  0
  -20.5687  -26.2332   23.3621 H   0  0  0  0  0  0
  -21.6654  -26.7436   22.1200 H   0  0  0  0  0  0
  -19.6924  -25.6288   21.1257 H   0  0  0  0  0  0
  -19.6701  -27.3181   20.6733 H   0  0  0  0  0  0
  -17.4212  -26.6676   21.4028 H   0  0  0  0  0  0
  -18.0344  -26.0084   22.9029 H   0  0  0  0  0  0
  -19.7951  -30.7296   24.2234 H   0  0  0  0  0  0
  -17.5025  -31.6271   24.5165 H   0  0  0  0  0  0
  -15.5363  -30.2981   23.7675 H   0  0  0  0  0  0
  -15.8687  -28.0819   22.7081 H   0  0  0  0  0  0
  -24.5899  -30.7083   25.7725 H   0  0  0  0  0  0
  -24.8879  -32.2925   26.4777 H   0  0  0  0  0  0
  -25.7990  -30.8959   27.0223 H   0  0  0  0  0  0
  -26.3004  -29.6690   24.1282 H   0  0  0  0  0  0
  -27.3999  -29.7264   25.4854 H   0  0  0  0  0  0
  -27.8912  -30.4211   23.9602 H   0  0  0  0  0  0
  -27.2642  -33.3646   26.2035 H   0  0  0  0  0  0
  -28.3888  -32.6868   25.0353 H   0  0  0  0  0  0
  -28.0691  -31.8488   26.5460 H   0  0  0  0  0  0
  -28.2589  -38.0089   24.7512 H   0  0  0  0  0  0
  -28.1079  -36.2618   24.6296 H   0  0  0  0  0  0
  -27.2291  -37.1438   25.8867 H   0  0  0  0  0  0
  -20.9462  -29.8761   21.6796 H   0  0  0  0  0  0
  -26.0158  -38.2819   24.1410 H   0  0  0  0  0  0
  -30.7279  -20.7587   19.2746 H   0  0  0  0  0  0
  -31.1715  -18.3716   18.9315 H   0  0  0  0  0  0
  -27.6197  -19.7255   22.0227 H   0  0  0  0  0  0
  -30.4758  -23.4819   23.3621 H   0  0  0  0  0  0
  -29.0008  -24.3974   23.0015 H   0  0  0  0  0  0
  -31.1763  -23.4623   21.0793 H   0  0  0  0  0  0
  -30.4097  -25.0456   21.1224 H   0  0  0  0  0  0
  -29.5580  -23.2429   19.3430 H   0  0  0  0  0  0
  -29.2566  -16.9310   17.9974 H   0  0  0  0  0  0
  -28.9087  -15.2532   18.1414 H   0  0  0  0  0  0
  -30.5748  -15.7788   17.9092 H   0  0  0  0  0  0
  -27.3261  -24.5308   21.0919 H   0  0  0  0  0  0
  -27.4047  -24.4103   19.3746 H   0  0  0  0  0  0
  -27.3449  -17.4675   22.6412 H   0  0  0  0  0  0
  -28.2562  -16.1984   22.0008 H   0  0  0  0  0  0
  1 25  1  0  0  0
  1 30  2  0  0  0
  1 85  1  0  0  0
  2  3  1  0  0  0
  2 25  1  0  0  0
  2 87  1  0  0  0
  2 88  1  0  0  0
  3  4  1  0  0  0
  3 89  1  0  0  0
  3 90  1  0  0  0
  4  5  1  0  0  0
  4 91  1  0  0  0
  4 92  1  0  0  0
  5  6  1  0  0  0
  5 26  1  0  0  0
  5 93  1  0  0  0
  6 25  1  0  0  0
  6 94  1  0  0  0
  6 95  1  0  0  0
  7  8  2  0  0  0
  7 26  1  0  0  0
  7 29  1  0  0  0
  8  9  1  0  0  0
  8 22  1  0  0  0
  9 10  1  0  0  0
  9 27  2  0  0  0
 10 11  2  0  0  0
 10 15  1  0  0  0
 11 12  1  0  0  0
 11 96  1  0  0  0
 12 13  2  0  0  0
 12 97  1  0  0  0
 13 14  1  0  0  0
 13 31  1  0  0  0
 14 15  2  0  0  0
 14 98  1  0  0  0
 15 99  1  0  0  0
 16 17  2  0  0  0
 16 21  1  0  0  0
 16 31  1  0  0  0
 17 18  1  0  0  0
 17100  1  0  0  0
 18 19  2  0  0  0
 18101  1  0  0  0
 19 20  1  0  0  0
 19 24  1  0  0  0
 20 21  2  0  0  0
 20102  1  0  0  0
 21 23  1  0  0  0
 22 28  1  0  0  0
 22 32  2  0  0  0
 26 27  1  0  0  0
 28103  1  0  0  0
 28104  1  0  0  0
 29105  1  0  0  0
 29106  1  0  0  0
 33 34  1  0  0  0
 33 66  1  0  0  0
 33 70  2  0  0  0
 34 36  1  0  0  0
 34 59  1  0  0  0
 34107  1  0  0  0
 35 44  2  0  0  0
 35 45  1  0  0  0
 35 68  1  0  0  0
 36 56  1  0  0  0
 36108  1  0  0  0
 37 39  1  0  0  0
 37 47  1  0  0  0
 37 66  1  0  0  0
 37109  1  0  0  0
 38 43  2  0  0  0
 38 46  1  0  0  0
 38 47  1  0  0  0
 39 64  1  0  0  0
 39 67  2  0  0  0
 40 52  1  0  0  0
 40 53  2  0  0  0
 40 58  1  0  0  0
 41110  1  0  0  0
 41111  1  0  0  0
 41112  1  0  0  0
 41 48  1  0  0  0
 42 43  1  0  0  0
 42 66  1  0  0  0
 42113  1  0  0  0
 42114  1  0  0  0
 43 44  1  0  0  0
 44115  1  0  0  0
 45 46  2  0  0  0
 45116  1  0  0  0
 46117  1  0  0  0
 47118  1  0  0  0
 47119  1  0  0  0
 48 56  1  0  0  0
 48 65  1  0  0  0
 48120  1  0  0  0
 49 50  1  0  0  0
 49 53  1  0  0  0
 49 64  1  0  0  0
 49121  1  0  0  0
 50 51  1  0  0  0
 50122  1  0  0  0
 50123  1  0  0  0
 51 52  1  0  0  0
 51124  1  0  0  0
 51125  1  0  0  0
 52126  1  0  0  0
 52127  1  0  0  0
 53 54  1  0  0  0
 54 55  2  0  0  0
 54128  1  0  0  0
 55 57  1  0  0  0
 55129  1  0  0  0
 56 69  2  0  0  0
 57 58  2  0  0  0
 57130  1  0  0  0
 58131  1  0  0  0
 59 60  1  0  0  0
 59 61  1  0  0  0
 59 62  1  0  0  0
 60132  1  0  0  0
 60133  1  0  0  0
 60134  1  0  0  0
 61135  1  0  0  0
 61136  1  0  0  0
 61137  1  0  0  0
 62138  1  0  0  0
 62139  1  0  0  0
 62140  1  0  0  0
 63 65  1  0  0  0
 63141  1  0  0  0
 63142  1  0  0  0
 63143  1  0  0  0
 64144  1  0  0  0
 65145  1  0  0  0
 68 82  1  0  0  0
 71 72  2  0  0  0
 71 74  1  0  0  0
 71146  1  0  0  0
 72 75  1  0  0  0
 72147  1  0  0  0
 73 74  2  0  0  0
 73 76  1  0  0  0
 73148  1  0  0  0
 74 83  1  0  0  0
 75 76  2  0  0  0
 75 85  1  0  0  0
 76 84  1  0  0  0
 77 78  1  0  0  0
 77 83  1  0  0  0
 77 86  2  0  0  0
 78 79  1  0  0  0
 78149  1  0  0  0
 78150  1  0  0  0
 79 80  1  0  0  0
 79151  1  0  0  0
 79152  1  0  0  0
 80 82  1  0  0  0
 80 83  1  0  0  0
 80153  1  0  0  0
 81 85  1  0  0  0
 81154  1  0  0  0
 81155  1  0  0  0
 81156  1  0  0  0
 82157  1  0  0  0
 82158  1  0  0  0
 84159  1  0  0  0
 84160  1  0  0  0
M  ISO  4   1 100  68 101  82 101  85 100
M  END
> <chiral flag>
0

> <version>
0

> <s_m_source_file>
/data/baiqing/PycharmProjects/Reinvent-master-3.2/result/LINK_invent/BTK/process_docking_weight1_custom_product_contain_oxygen_bond_distance_aromatic_linkinvent_7_9_3/rearranged_h_0106.sdf

> <i_m_source_file_index>
76

> <r_mmod_Potential_Energy-OPLS-2005>
746.774780273438

> <r_mmod_Stretch_Energy-OPLS-2005>
235.900634765625

> <r_mmod_Bend_Energy-OPLS-2005>
300.253265380859

> <r_mmod_Torsional_Energy-OPLS-2005>
415.181640625

> <r_mmod_Improper_Torsional_Energy-OPLS-2005>
31.1366348266602

> <r_mmod_Van_der_Waal_Energy-OPLS-2005>
139.35205078125

> <r_mmod_Electrostatic_Energy-OPLS-2005>
-354.936157226562

> <r_mmod_Solvation_Energy-OPLS-2005>
-209.378753662109

> <b_mmod_Minimization_Converged-OPLS-2005>
0

> <r_mmod_RMS_Derivative-OPLS-2005>
0.279085159301758

$$$$
76
                    3D
 Structure written by MMmdl.
157165  0  0  1  0            999 V2000
  -30.6563  -14.6814   20.3512 C   0  0  0  0  0  0
  -30.4383  -12.3802   19.4567 C   0  0  0  0  0  0
  -29.5026  -12.3850   18.2269 C   0  0  0  0  0  0
  -28.0212  -12.2751   18.6473 C   0  0  0  0  0  0
  -27.6316  -13.2038   19.8304 C   0  0  2  0  0  0
  -28.6957  -13.1819   20.9499 C   0  0  0  0  0  0
  -25.2485  -13.8054   20.5775 C   0  0  0  0  0  0
  -24.1763  -13.0341   20.9251 C   0  0  0  0  0  0
  -24.6343  -11.6835   20.8787 C   0  0  0  0  0  0
  -23.9021  -10.4231   21.0420 C   0  0  0  0  0  0
  -24.3581   -9.4155   21.9192 C   0  0  0  0  0  0
  -23.6256   -8.2198   22.0751 C   0  0  0  0  0  0
  -22.4239   -8.0245   21.3543 C   0  0  0  0  0  0
  -21.9876   -9.0215   20.4642 C   0  0  0  0  0  0
  -22.7203  -10.2092   20.3057 C   0  0  0  0  0  0
  -21.6833   -6.0721   22.5282 C   0  0  0  0  0  0
  -21.4003   -6.5627   23.8219 C   0  0  0  0  0  0
  -21.3664   -5.6780   24.9178 C   0  0  0  0  0  0
  -21.6045   -4.3043   24.7220 C   0  0  0  0  0  0
  -21.8820   -3.8136   23.4341 C   0  0  0  0  0  0
  -21.9185   -4.6953   22.3400 C   0  0  0  0  0  0
  -22.7801  -13.5164   21.1886 C   0  0  0  0  0  0
  -22.1656   -4.2147   21.0976 F   0  0  0  0  0  0
  -21.5629   -3.4525   25.7733 F   0  0  0  0  0  0
  -30.0082  -13.4686   20.3511 N   0  0  0  0  0  0
  -26.2897  -12.9240   20.3298 N   0  0  0  0  0  0
  -25.9264  -11.6414   20.5814 N   0  0  0  0  0  0
  -22.0444  -12.8188   22.0464 N   0  0  0  0  0  0
  -25.4118  -15.1761   20.4285 N   0  0  0  0  0  0
  -31.8865  -14.7469   20.3286 O   0  0  0  0  0  0
  -21.6614   -6.8848   21.4237 O   0  0  0  0  0  0
  -22.3508  -14.5473   20.6713 O   0  0  0  0  0  0
  -24.6230  -31.8621   23.2052 C   0  0  0  0  0  0
  -25.9091  -32.4792   23.8364 C   0  0  1  0  0  0
  -27.2321  -27.3514   20.1083 C   0  0  0  0  0  0
  -25.5924  -33.8593   24.2297 N   0  0  0  0  0  0
  -23.4150  -30.4849   21.5474 C   0  0  2  0  0  0
  -24.8625  -28.9462   20.1128 C   0  0  0  0  0  0
  -22.7458  -29.4626   22.4961 C   0  0  0  0  0  0
  -18.0288  -28.1377   22.8499 C   0  0  0  0  0  0
  -24.1493  -36.7301   23.2638 C   0  0  0  0  0  0
  -25.9538  -30.8025   21.3723 C   0  0  0  0  0  0
  -26.0294  -29.4331   20.7139 C   0  0  0  0  0  0
  -27.2164  -28.6464   20.7041 C   0  0  0  0  0  0
  -26.0392  -26.9100   19.4864 C   0  0  0  0  0  0
  -24.8671  -27.6876   19.4944 C   0  0  0  0  0  0
  -23.6275  -29.8204   20.1624 C   0  0  0  0  0  0
  -25.4118  -36.3097   24.0330 C   0  0  1  0  0  0
  -20.5889  -28.3670   23.1319 C   0  0  2  0  0  0
  -20.6790  -26.9408   22.5410 C   0  0  0  0  0  0
  -19.5761  -26.6398   21.5210 C   0  0  0  0  0  0
  -18.1941  -26.7925   22.1622 C   0  0  0  0  0  0
  -19.1540  -28.8838   23.2908 C   0  0  0  0  0  0
  -18.9468  -30.1446   23.8917 C   0  0  0  0  0  0
  -17.6469  -30.6583   24.0578 C   0  0  0  0  0  0
  -25.9044  -34.9459   23.5109 C   0  0  0  0  0  0
  -16.5362  -29.9081   23.6344 C   0  0  0  0  0  0
  -16.7274  -28.6503   23.0348 C   0  0  0  0  0  0
  -26.4486  -31.6586   25.0712 C   0  0  0  0  0  0
  -25.3732  -31.3718   26.1448 C   0  0  0  0  0  0
  -27.0315  -30.3011   24.6144 C   0  0  0  0  0  0
  -27.6052  -32.4318   25.7481 C   0  0  0  0  0  0
  -27.5583  -37.1804   24.8462 C   0  0  0  0  0  0
  -21.4172  -29.3036   22.3717 N   0  0  0  0  0  0
  -26.4301  -37.3784   23.9400 N   0  0  0  0  0  0
  -24.6823  -31.0653   22.0992 N   0  0  0  0  0  0
  -23.4191  -28.8166   23.3030 O   0  0  0  0  0  0
  -28.3685  -26.5319   20.1566 O   0  0  0  0  0  0
  -26.5609  -34.8925   22.4674 O   0  0  0  0  0  0
  -23.5402  -32.1413   23.7399 O   0  0  0  0  0  0
  -30.9522  -17.9734   20.7337 C   0  0  0  0  0  0
  -28.8057  -19.6113   19.9993 C   0  0  0  0  0  0
  -29.8500  -17.3295   20.1079 C   0  0  0  0  0  0
  -28.7524  -18.2070   19.7773 C   0  0  0  0  0  0
  -30.9946  -19.3845   20.9485 C   0  0  0  0  0  0
  -29.9335  -20.2469   20.5590 C   0  0  0  0  0  0
  -29.8993  -15.8605   19.6233 C   0  0  0  0  0  0
  -27.4655  -17.7199   19.1268 C   0  0  0  0  0  0
  -29.3298  -24.0989   20.4174 C   0  0  0  0  0  0
  -28.1790  -25.0846   19.9745 C   0  0  0  0  0  0
  -29.0312  -22.5539   20.2259 C   0  0  0  0  0  0
  -29.4023  -15.6319   18.4800 N   0  0  0  0  0  0
  -32.1262  -19.9532   21.5307 N   0  0  0  0  0  0
  -30.0487  -21.6403   20.7364 O   0  0  0  0  0  0
  -31.4752  -12.4993   19.1380 H   0  0  0  0  0  0
  -30.3870  -11.4236   19.9786 H   0  0  0  0  0  0
  -29.7553  -11.5456   17.5774 H   0  0  0  0  0  0
  -29.6643  -13.2731   17.6194 H   0  0  0  0  0  0
  -27.8511  -11.2358   18.9320 H   0  0  0  0  0  0
  -27.3715  -12.4600   17.7914 H   0  0  0  0  0  0
  -27.5831  -14.2067   19.4205 H   0  0  0  0  0  0
  -28.7155  -12.2132   21.4498 H   0  0  0  0  0  0
  -28.4574  -13.9225   21.7151 H   0  0  0  0  0  0
  -25.2722   -9.5629   22.4777 H   0  0  0  0  0  0
  -23.9967   -7.4576   22.7451 H   0  0  0  0  0  0
  -21.0821   -8.8708   19.8931 H   0  0  0  0  0  0
  -22.3654  -10.9628   19.6162 H   0  0  0  0  0  0
  -21.1998   -7.6139   23.9716 H   0  0  0  0  0  0
  -21.1492   -6.0515   25.9083 H   0  0  0  0  0  0
  -22.0601   -2.7598   23.2836 H   0  0  0  0  0  0
  -22.4034  -11.9842   22.4867 H   0  0  0  0  0  0
  -21.1057  -13.1217   22.2632 H   0  0  0  0  0  0
  -24.6497  -15.8333   20.5510 H   0  0  0  0  0  0
  -26.2720  -15.6126   20.1297 H   0  0  0  0  0  0
  -26.7151  -32.5464   23.1108 H   0  0  0  0  0  0
  -25.0074  -33.9750   25.0443 H   0  0  0  0  0  0
  -22.7082  -31.3051   21.4069 H   0  0  0  0  0  0
  -23.3757  -35.9628   23.3306 H   0  0  0  0  0  0
  -24.3589  -36.8915   22.2052 H   0  0  0  0  0  0
  -23.7242  -37.6506   23.6646 H   0  0  0  0  0  0
  -26.0816  -31.5686   20.6063 H   0  0  0  0  0  0
  -26.8348  -30.8505   22.0000 H   0  0  0  0  0  0
  -28.1109  -29.0160   21.1858 H   0  0  0  0  0  0
  -25.9822  -25.9515   18.9928 H   0  0  0  0  0  0
  -23.9711  -27.3088   19.0238 H   0  0  0  0  0  0
  -23.7404  -30.5967   19.4047 H   0  0  0  0  0  0
  -22.7489  -29.2448   19.8647 H   0  0  0  0  0  0
  -25.1300  -36.1954   25.0820 H   0  0  0  0  0  0
  -20.9979  -28.3221   24.1440 H   0  0  0  0  0  0
  -20.5715  -26.2255   23.3580 H   0  0  0  0  0  0
  -21.6654  -26.7459   22.1189 H   0  0  0  0  0  0
  -19.6917  -25.6318   21.1217 H   0  0  0  0  0  0
  -19.6687  -27.3244   20.6763 H   0  0  0  0  0  0
  -17.4206  -26.6698   21.4017 H   0  0  0  0  0  0
  -18.0339  -26.0056   22.9005 H   0  0  0  0  0  0
  -19.7944  -30.7270   24.2288 H   0  0  0  0  0  0
  -17.5020  -31.6263   24.5186 H   0  0  0  0  0  0
  -15.5365  -30.2978   23.7684 H   0  0  0  0  0  0
  -15.8675  -28.0841   22.7038 H   0  0  0  0  0  0
  -24.5914  -30.7053   25.7789 H   0  0  0  0  0  0
  -24.8911  -32.2880   26.4864 H   0  0  0  0  0  0
  -25.8079  -30.8909   27.0222 H   0  0  0  0  0  0
  -26.2870  -29.6777   24.1178 H   0  0  0  0  0  0
  -27.4033  -29.7252   25.4632 H   0  0  0  0  0  0
  -27.8735  -30.4306   23.9342 H   0  0  0  0  0  0
  -27.2659  -33.3616   26.2064 H   0  0  0  0  0  0
  -28.3858  -32.6890   25.0304 H   0  0  0  0  0  0
  -28.0718  -31.8434   26.5394 H   0  0  0  0  0  0
  -28.2609  -38.0097   24.7514 H   0  0  0  0  0  0
  -28.1083  -36.2631   24.6290 H   0  0  0  0  0  0
  -27.2300  -37.1454   25.8867 H   0  0  0  0  0  0
  -20.9336  -29.8764   21.6941 H   0  0  0  0  0  0
  -26.0191  -38.2863   24.1399 H   0  0  0  0  0  0
  -31.8167  -17.3802   20.9957 H   0  0  0  0  0  0
  -27.9570  -20.2085   19.7011 H   0  0  0  0  0  0
  -26.6167  -18.3496   19.3959 H   0  0  0  0  0  0
  -27.2191  -16.7117   19.4410 H   0  0  0  0  0  0
  -27.5563  -17.7346   18.0404 H   0  0  0  0  0  0
  -29.5510  -24.2793   21.4687 H   0  0  0  0  0  0
  -30.2386  -24.3543   19.8712 H   0  0  0  0  0  0
  -27.2865  -24.7825   20.5259 H   0  0  0  0  0  0
  -27.9713  -24.9015   18.9195 H   0  0  0  0  0  0
  -28.8928  -22.3568   19.1621 H   0  0  0  0  0  0
  -28.0818  -22.3211   20.7103 H   0  0  0  0  0  0
  -29.0108  -16.4791   18.0914 H   0  0  0  0  0  0
  -32.0224  -20.9022   21.8791 H   0  0  0  0  0  0
  -32.7136  -19.3752   22.1233 H   0  0  0  0  0  0
  1 25  1  0  0  0
  1 30  2  0  0  0
  1 77  1  0  0  0
  2  3  1  0  0  0
  2 25  1  0  0  0
  2 85  1  0  0  0
  2 86  1  0  0  0
  3  4  1  0  0  0
  3 87  1  0  0  0
  3 88  1  0  0  0
  4  5  1  0  0  0
  4 89  1  0  0  0
  4 90  1  0  0  0
  5  6  1  0  0  0
  5 26  1  0  0  0
  5 91  1  0  0  0
  6 25  1  0  0  0
  6 92  1  0  0  0
  6 93  1  0  0  0
  7  8  2  0  0  0
  7 26  1  0  0  0
  7 29  1  0  0  0
  8  9  1  0  0  0
  8 22  1  0  0  0
  9 10  1  0  0  0
  9 27  2  0  0  0
 10 11  2  0  0  0
 10 15  1  0  0  0
 11 12  1  0  0  0
 11 94  1  0  0  0
 12 13  2  0  0  0
 12 95  1  0  0  0
 13 14  1  0  0  0
 13 31  1  0  0  0
 14 15  2  0  0  0
 14 96  1  0  0  0
 15 97  1  0  0  0
 16 17  2  0  0  0
 16 21  1  0  0  0
 16 31  1  0  0  0
 17 18  1  0  0  0
 17 98  1  0  0  0
 18 19  2  0  0  0
 18 99  1  0  0  0
 19 20  1  0  0  0
 19 24  1  0  0  0
 20 21  2  0  0  0
 20100  1  0  0  0
 21 23  1  0  0  0
 22 28  1  0  0  0
 22 32  2  0  0  0
 26 27  1  0  0  0
 28101  1  0  0  0
 28102  1  0  0  0
 29103  1  0  0  0
 29104  1  0  0  0
 33 34  1  0  0  0
 33 66  1  0  0  0
 33 70  2  0  0  0
 34 36  1  0  0  0
 34 59  1  0  0  0
 34105  1  0  0  0
 35 44  2  0  0  0
 35 45  1  0  0  0
 35 68  1  0  0  0
 36 56  1  0  0  0
 36106  1  0  0  0
 37 39  1  0  0  0
 37 47  1  0  0  0
 37 66  1  0  0  0
 37107  1  0  0  0
 38 43  2  0  0  0
 38 46  1  0  0  0
 38 47  1  0  0  0
 39 64  1  0  0  0
 39 67  2  0  0  0
 40 52  1  0  0  0
 40 53  2  0  0  0
 40 58  1  0  0  0
 41108  1  0  0  0
 41109  1  0  0  0
 41110  1  0  0  0
 41 48  1  0  0  0
 42 43  1  0  0  0
 42 66  1  0  0  0
 42111  1  0  0  0
 42112  1  0  0  0
 43 44  1  0  0  0
 44113  1  0  0  0
 45 46  2  0  0  0
 45114  1  0  0  0
 46115  1  0  0  0
 47116  1  0  0  0
 47117  1  0  0  0
 48 56  1  0  0  0
 48 65  1  0  0  0
 48118  1  0  0  0
 49 50  1  0  0  0
 49 53  1  0  0  0
 49 64  1  0  0  0
 49119  1  0  0  0
 50 51  1  0  0  0
 50120  1  0  0  0
 50121  1  0  0  0
 51 52  1  0  0  0
 51122  1  0  0  0
 51123  1  0  0  0
 52124  1  0  0  0
 52125  1  0  0  0
 53 54  1  0  0  0
 54 55  2  0  0  0
 54126  1  0  0  0
 55 57  1  0  0  0
 55127  1  0  0  0
 56 69  2  0  0  0
 57 58  2  0  0  0
 57128  1  0  0  0
 58129  1  0  0  0
 59 60  1  0  0  0
 59 61  1  0  0  0
 59 62  1  0  0  0
 60130  1  0  0  0
 60131  1  0  0  0
 60132  1  0  0  0
 61133  1  0  0  0
 61134  1  0  0  0
 61135  1  0  0  0
 62136  1  0  0  0
 62137  1  0  0  0
 62138  1  0  0  0
 63 65  1  0  0  0
 63139  1  0  0  0
 63140  1  0  0  0
 63141  1  0  0  0
 64142  1  0  0  0
 65143  1  0  0  0
 68 80  1  0  0  0
 71 73  2  0  0  0
 71 75  1  0  0  0
 71144  1  0  0  0
 72 74  2  0  0  0
 72 76  1  0  0  0
 72145  1  0  0  0
 73 74  1  0  0  0
 73 77  1  0  0  0
 74 78  1  0  0  0
 75 76  2  0  0  0
 75 83  1  0  0  0
 76 84  1  0  0  0
 77 82  2  0  0  0
 78146  1  0  0  0
 78147  1  0  0  0
 78148  1  0  0  0
 79 80  1  0  0  0
 79 81  1  0  0  0
 79149  1  0  0  0
 79150  1  0  0  0
 80151  1  0  0  0
 80152  1  0  0  0
 81 84  1  0  0  0
 81153  1  0  0  0
 81154  1  0  0  0
 82155  1  0  0  0
 83156  1  0  0  0
 83157  1  0  0  0
M  ISO  4   1 100  68 101  77 100  80 101
M  END
> <chiral flag>
0

> <version>
0

> <s_m_source_file>
/data/baiqing/PycharmProjects/Reinvent-master-3.2/result/LINK_invent/BTK/process_docking_weight1_custom_product_contain_oxygen_bond_distance_aromatic_linkinvent_7_9_3/rearranged_h_0106.sdf

> <i_m_source_file_index>
77

> <r_mmod_Potential_Energy-OPLS-2005>
261.726959228516

> <r_mmod_Stretch_Energy-OPLS-2005>
81.6353073120117

> <r_mmod_Bend_Energy-OPLS-2005>
143.662399291992

> <r_mmod_Torsional_Energy-OPLS-2005>
249.792907714844

> <r_mmod_Improper_Torsional_Energy-OPLS-2005>
29.8967380523682

> <r_mmod_Van_der_Waal_Energy-OPLS-2005>
163.016616821289

> <r_mmod_Electrostatic_Energy-OPLS-2005>
-261.838287353516

> <r_mmod_Solvation_Energy-OPLS-2005>
-213.927780151367

> <b_mmod_Minimization_Converged-OPLS-2005>
0

> <r_mmod_RMS_Derivative-OPLS-2005>
1.77243292331696

$$$$
77
                    3D
 Structure written by MMmdl.
157165  0  0  1  0            999 V2000
  -30.7248  -14.4429   20.5685 C   0  0  0  0  0  0
  -30.4129  -12.2860   19.4300 C   0  0  0  0  0  0
  -29.4911  -12.4881   18.2106 C   0  0  0  0  0  0
  -28.0135  -12.3536   18.6235 C   0  0  0  0  0  0
  -27.6591  -13.2057   19.8722 C   0  0  2  0  0  0
  -28.6984  -13.0044   20.9990 C   0  0  0  0  0  0
  -25.2576  -13.8165   20.5664 C   0  0  0  0  0  0
  -24.1825  -13.0437   20.9152 C   0  0  0  0  0  0
  -24.6370  -11.6907   20.8735 C   0  0  0  0  0  0
  -23.9043  -10.4281   21.0408 C   0  0  0  0  0  0
  -24.3598   -9.4198   21.9187 C   0  0  0  0  0  0
  -23.6272   -8.2241   22.0769 C   0  0  0  0  0  0
  -22.4263   -8.0276   21.3561 C   0  0  0  0  0  0
  -21.9895   -9.0241   20.4669 C   0  0  0  0  0  0
  -22.7213  -10.2117   20.3062 C   0  0  0  0  0  0
  -21.6855   -6.0726   22.5269 C   0  0  0  0  0  0
  -21.4017   -6.5637   23.8197 C   0  0  0  0  0  0
  -21.3659   -5.6800   24.9165 C   0  0  0  0  0  0
  -21.6037   -4.3061   24.7229 C   0  0  0  0  0  0
  -21.8822   -3.8143   23.4356 C   0  0  0  0  0  0
  -21.9188   -4.6953   22.3404 C   0  0  0  0  0  0
  -22.7855  -13.5245   21.1807 C   0  0  0  0  0  0
  -22.1665   -4.2138   21.0984 F   0  0  0  0  0  0
  -21.5616   -3.4545   25.7742 F   0  0  0  0  0  0
  -30.0330  -13.2814   20.4433 N   0  0  0  0  0  0
  -26.3002  -12.9325   20.3346 N   0  0  0  0  0  0
  -25.9295  -11.6493   20.5780 N   0  0  0  0  0  0
  -22.0519  -12.8243   22.0382 N   0  0  0  0  0  0
  -25.4329  -15.1874   20.4061 N   0  0  0  0  0  0
  -31.8478  -14.6116   20.0884 O   0  0  0  0  0  0
  -21.6649   -6.8864   21.4230 O   0  0  0  0  0  0
  -22.3553  -14.5552   20.6653 O   0  0  0  0  0  0
  -24.6127  -31.8684   23.2107 C   0  0  0  0  0  0
  -25.9020  -32.4841   23.8392 C   0  0  1  0  0  0
  -27.2359  -27.4511   20.0953 C   0  0  0  0  0  0
  -25.5866  -33.8636   24.2333 N   0  0  0  0  0  0
  -23.3992  -30.4907   21.5513 C   0  0  2  0  0  0
  -24.8458  -28.9528   20.1187 C   0  0  0  0  0  0
  -22.7380  -29.4674   22.5013 C   0  0  0  0  0  0
  -18.0273  -28.1365   22.8479 C   0  0  0  0  0  0
  -24.1484  -36.7319   23.2639 C   0  0  0  0  0  0
  -25.9243  -30.8427   21.3566 C   0  0  0  0  0  0
  -26.0043  -29.4757   20.7062 C   0  0  0  0  0  0
  -27.2043  -28.7323   20.6874 C   0  0  0  0  0  0
  -26.0626  -26.9321   19.5097 C   0  0  0  0  0  0
  -24.8678  -27.6795   19.5201 C   0  0  0  0  0  0
  -23.6073  -29.8186   20.1675 C   0  0  0  0  0  0
  -25.4102  -36.3122   24.0347 C   0  0  1  0  0  0
  -20.5851  -28.3661   23.1343 C   0  0  2  0  0  0
  -20.6785  -26.9402   22.5452 C   0  0  0  0  0  0
  -19.5780  -26.6362   21.5230 C   0  0  0  0  0  0
  -18.1943  -26.7913   22.1613 C   0  0  0  0  0  0
  -19.1510  -28.8823   23.2906 C   0  0  0  0  0  0
  -18.9431  -30.1438   23.8913 C   0  0  0  0  0  0
  -17.6429  -30.6576   24.0554 C   0  0  0  0  0  0
  -25.9025  -34.9489   23.5137 C   0  0  0  0  0  0
  -16.5326  -29.9065   23.6319 C   0  0  0  0  0  0
  -16.7257  -28.6484   23.0342 C   0  0  0  0  0  0
  -26.4467  -31.6613   25.0709 C   0  0  0  0  0  0
  -25.3740  -31.3705   26.1463 C   0  0  0  0  0  0
  -27.0286  -30.3059   24.6056 C   0  0  0  0  0  0
  -27.6045  -32.4325   25.7468 C   0  0  0  0  0  0
  -27.5585  -37.1812   24.8467 C   0  0  0  0  0  0
  -21.4109  -29.3045   22.3747 N   0  0  0  0  0  0
  -26.4299  -37.3795   23.9412 N   0  0  0  0  0  0
  -24.6639  -31.0801   22.0993 N   0  0  0  0  0  0
  -23.4157  -28.8229   23.3068 O   0  0  0  0  0  0
  -28.4123  -26.7425   20.0638 O   0  0  0  0  0  0
  -26.5601  -34.8934   22.4710 O   0  0  0  0  0  0
  -23.5325  -32.1418   23.7526 O   0  0  0  0  0  0
  -29.8666  -19.2627   21.5434 C   0  0  0  0  0  0
  -28.7685  -20.0674   21.9710 C   0  0  0  0  0  0
  -29.5918  -17.9191   21.4881 C   0  0  0  0  0  0
  -27.6502  -19.3151   22.2469 C   0  0  0  0  0  0
  -26.3341  -19.7816   22.7835 C   0  0  0  0  0  0
  -30.5690  -16.8427   21.1004 C   0  0  0  0  0  0
  -28.5745  -24.3007   19.7192 C   0  0  0  0  0  0
  -29.1216  -23.0063   20.3697 C   0  0  0  0  0  0
  -28.3966  -25.4678   20.7129 C   0  0  0  0  0  0
  -28.1364  -22.2585   21.2888 C   0  0  0  0  0  0
  -30.0580  -15.4685   21.1187 N   0  0  0  0  0  0
  -28.8580  -21.4045   22.1773 O   0  0  0  0  0  0
  -27.9353  -17.6146   21.9504 S   0  0  0  0  0  0
  -31.4608  -12.3643   19.1331 H   0  0  0  0  0  0
  -30.2968  -11.2814   19.8413 H   0  0  0  0  0  0
  -29.7281  -11.7583   17.4352 H   0  0  0  0  0  0
  -29.6617  -13.4714   17.7691 H   0  0  0  0  0  0
  -27.8260  -11.2991   18.8296 H   0  0  0  0  0  0
  -27.3626  -12.6178   17.7894 H   0  0  0  0  0  0
  -27.7002  -14.2509   19.5622 H   0  0  0  0  0  0
  -28.6661  -11.9807   21.3752 H   0  0  0  0  0  0
  -28.4626  -13.6377   21.8559 H   0  0  0  0  0  0
  -25.2743   -9.5677   22.4766 H   0  0  0  0  0  0
  -23.9975   -7.4645   22.7502 H   0  0  0  0  0  0
  -21.0828   -8.8745   19.8992 H   0  0  0  0  0  0
  -22.3661  -10.9647   19.6176 H   0  0  0  0  0  0
  -21.2030   -7.6152   23.9689 H   0  0  0  0  0  0
  -21.1478   -6.0546   25.9064 H   0  0  0  0  0  0
  -22.0609   -2.7607   23.2856 H   0  0  0  0  0  0
  -22.4154  -11.9884   22.4711 H   0  0  0  0  0  0
  -21.1155  -13.1299   22.2655 H   0  0  0  0  0  0
  -24.6712  -15.8469   20.5149 H   0  0  0  0  0  0
  -26.2891  -15.6197   20.0825 H   0  0  0  0  0  0
  -26.7097  -32.5570   23.1164 H   0  0  0  0  0  0
  -24.9976  -33.9796   25.0451 H   0  0  0  0  0  0
  -22.6859  -31.3060   21.4114 H   0  0  0  0  0  0
  -23.3751  -35.9648   23.3318 H   0  0  0  0  0  0
  -24.3570  -36.8915   22.2048 H   0  0  0  0  0  0
  -23.7253  -37.6535   23.6639 H   0  0  0  0  0  0
  -26.0270  -31.6099   20.5877 H   0  0  0  0  0  0
  -26.8150  -30.8994   21.9709 H   0  0  0  0  0  0
  -28.1041  -29.1351   21.1311 H   0  0  0  0  0  0
  -26.0773  -25.9598   19.0354 H   0  0  0  0  0  0
  -23.9728  -27.2725   19.0691 H   0  0  0  0  0  0
  -23.7106  -30.5905   19.4037 H   0  0  0  0  0  0
  -22.7332  -29.2318   19.8809 H   0  0  0  0  0  0
  -25.1294  -36.1982   25.0847 H   0  0  0  0  0  0
  -20.9932  -28.3245   24.1462 H   0  0  0  0  0  0
  -20.5687  -26.2264   23.3622 H   0  0  0  0  0  0
  -21.6662  -26.7470   22.1247 H   0  0  0  0  0  0
  -19.6970  -25.6275   21.1285 H   0  0  0  0  0  0
  -19.6732  -27.3174   20.6755 H   0  0  0  0  0  0
  -17.4212  -26.6633   21.4005 H   0  0  0  0  0  0
  -18.0345  -26.0058   22.9010 H   0  0  0  0  0  0
  -19.7900  -30.7255   24.2303 H   0  0  0  0  0  0
  -17.4959  -31.6265   24.5130 H   0  0  0  0  0  0
  -15.5319  -30.2958   23.7619 H   0  0  0  0  0  0
  -15.8657  -28.0805   22.7063 H   0  0  0  0  0  0
  -24.5892  -30.7086   25.7795 H   0  0  0  0  0  0
  -24.8948  -32.2843   26.4968 H   0  0  0  0  0  0
  -25.8080  -30.8823   27.0192 H   0  0  0  0  0  0
  -26.2813  -29.6836   24.1109 H   0  0  0  0  0  0
  -27.4068  -29.7295   25.4513 H   0  0  0  0  0  0
  -27.8646  -30.4410   23.9185 H   0  0  0  0  0  0
  -27.2667  -33.3597   26.2112 H   0  0  0  0  0  0
  -28.3803  -32.6932   25.0259 H   0  0  0  0  0  0
  -28.0763  -31.8407   26.5321 H   0  0  0  0  0  0
  -28.2619  -38.0097   24.7506 H   0  0  0  0  0  0
  -28.1061  -36.2627   24.6296 H   0  0  0  0  0  0
  -27.2291  -37.1482   25.8866 H   0  0  0  0  0  0
  -20.9262  -29.8678   21.6894 H   0  0  0  0  0  0
  -26.0195  -38.2878   24.1399 H   0  0  0  0  0  0
  -30.8297  -19.6985   21.3145 H   0  0  0  0  0  0
  -25.6142  -18.9645   22.8389 H   0  0  0  0  0  0
  -25.9009  -20.5536   22.1484 H   0  0  0  0  0  0
  -26.4498  -20.1918   23.7872 H   0  0  0  0  0  0
  -30.9399  -17.0676   20.0977 H   0  0  0  0  0  0
  -31.4382  -16.8897   21.7580 H   0  0  0  0  0  0
  -27.6419  -24.1008   19.1907 H   0  0  0  0  0  0
  -29.2881  -24.6137   18.9563 H   0  0  0  0  0  0
  -30.0241  -23.2518   20.9331 H   0  0  0  0  0  0
  -29.4425  -22.3217   19.5843 H   0  0  0  0  0  0
  -27.5028  -25.3238   21.3234 H   0  0  0  0  0  0
  -29.2379  -25.4750   21.4061 H   0  0  0  0  0  0
  -27.3939  -21.7212   20.6977 H   0  0  0  0  0  0
  -27.5874  -22.9684   21.9072 H   0  0  0  0  0  0
  -29.1322  -15.3001   21.4791 H   0  0  0  0  0  0
  1 25  1  0  0  0
  1 30  2  0  0  0
  1 81  1  0  0  0
  2  3  1  0  0  0
  2 25  1  0  0  0
  2 84  1  0  0  0
  2 85  1  0  0  0
  3  4  1  0  0  0
  3 86  1  0  0  0
  3 87  1  0  0  0
  4  5  1  0  0  0
  4 88  1  0  0  0
  4 89  1  0  0  0
  5  6  1  0  0  0
  5 26  1  0  0  0
  5 90  1  0  0  0
  6 25  1  0  0  0
  6 91  1  0  0  0
  6 92  1  0  0  0
  7  8  2  0  0  0
  7 26  1  0  0  0
  7 29  1  0  0  0
  8  9  1  0  0  0
  8 22  1  0  0  0
  9 10  1  0  0  0
  9 27  2  0  0  0
 10 11  2  0  0  0
 10 15  1  0  0  0
 11 12  1  0  0  0
 11 93  1  0  0  0
 12 13  2  0  0  0
 12 94  1  0  0  0
 13 14  1  0  0  0
 13 31  1  0  0  0
 14 15  2  0  0  0
 14 95  1  0  0  0
 15 96  1  0  0  0
 16 17  2  0  0  0
 16 21  1  0  0  0
 16 31  1  0  0  0
 17 18  1  0  0  0
 17 97  1  0  0  0
 18 19  2  0  0  0
 18 98  1  0  0  0
 19 20  1  0  0  0
 19 24  1  0  0  0
 20 21  2  0  0  0
 20 99  1  0  0  0
 21 23  1  0  0  0
 22 28  1  0  0  0
 22 32  2  0  0  0
 26 27  1  0  0  0
 28100  1  0  0  0
 28101  1  0  0  0
 29102  1  0  0  0
 29103  1  0  0  0
 33 34  1  0  0  0
 33 66  1  0  0  0
 33 70  2  0  0  0
 34 36  1  0  0  0
 34 59  1  0  0  0
 34104  1  0  0  0
 35 44  2  0  0  0
 35 45  1  0  0  0
 35 68  1  0  0  0
 36 56  1  0  0  0
 36105  1  0  0  0
 37 39  1  0  0  0
 37 47  1  0  0  0
 37 66  1  0  0  0
 37106  1  0  0  0
 38 43  2  0  0  0
 38 46  1  0  0  0
 38 47  1  0  0  0
 39 64  1  0  0  0
 39 67  2  0  0  0
 40 52  1  0  0  0
 40 53  2  0  0  0
 40 58  1  0  0  0
 41107  1  0  0  0
 41108  1  0  0  0
 41109  1  0  0  0
 41 48  1  0  0  0
 42 43  1  0  0  0
 42 66  1  0  0  0
 42110  1  0  0  0
 42111  1  0  0  0
 43 44  1  0  0  0
 44112  1  0  0  0
 45 46  2  0  0  0
 45113  1  0  0  0
 46114  1  0  0  0
 47115  1  0  0  0
 47116  1  0  0  0
 48 56  1  0  0  0
 48 65  1  0  0  0
 48117  1  0  0  0
 49 50  1  0  0  0
 49 53  1  0  0  0
 49 64  1  0  0  0
 49118  1  0  0  0
 50 51  1  0  0  0
 50119  1  0  0  0
 50120  1  0  0  0
 51 52  1  0  0  0
 51121  1  0  0  0
 51122  1  0  0  0
 52123  1  0  0  0
 52124  1  0  0  0
 53 54  1  0  0  0
 54 55  2  0  0  0
 54125  1  0  0  0
 55 57  1  0  0  0
 55126  1  0  0  0
 56 69  2  0  0  0
 57 58  2  0  0  0
 57127  1  0  0  0
 58128  1  0  0  0
 59 60  1  0  0  0
 59 61  1  0  0  0
 59 62  1  0  0  0
 60129  1  0  0  0
 60130  1  0  0  0
 60131  1  0  0  0
 61132  1  0  0  0
 61133  1  0  0  0
 61134  1  0  0  0
 62135  1  0  0  0
 62136  1  0  0  0
 62137  1  0  0  0
 63 65  1  0  0  0
 63138  1  0  0  0
 63139  1  0  0  0
 63140  1  0  0  0
 64141  1  0  0  0
 65142  1  0  0  0
 68 79  1  0  0  0
 71 72  1  0  0  0
 71 73  2  0  0  0
 71143  1  0  0  0
 72 74  2  0  0  0
 72 82  1  0  0  0
 73 76  1  0  0  0
 73 83  1  0  0  0
 74 75  1  0  0  0
 74 83  1  0  0  0
 75144  1  0  0  0
 75145  1  0  0  0
 75146  1  0  0  0
 76 81  1  0  0  0
 76147  1  0  0  0
 76148  1  0  0  0
 77 78  1  0  0  0
 77 79  1  0  0  0
 77149  1  0  0  0
 77150  1  0  0  0
 78 80  1  0  0  0
 78151  1  0  0  0
 78152  1  0  0  0
 79153  1  0  0  0
 79154  1  0  0  0
 80 82  1  0  0  0
 80155  1  0  0  0
 80156  1  0  0  0
 81157  1  0  0  0
M  ISO  4   1 100  68 101  79 101  81 100
M  END
> <chiral flag>
0

> <version>
0

> <s_m_source_file>
/data/baiqing/PycharmProjects/Reinvent-master-3.2/result/LINK_invent/BTK/process_docking_weight1_custom_product_contain_oxygen_bond_distance_aromatic_linkinvent_7_9_3/rearranged_h_0106.sdf

> <i_m_source_file_index>
78

> <r_mmod_Potential_Energy-OPLS-2005>
-125.28295135498

> <r_mmod_Stretch_Energy-OPLS-2005>
31.4392032623291

> <r_mmod_Bend_Energy-OPLS-2005>
95.6937866210938

> <r_mmod_Torsional_Energy-OPLS-2005>
236.438781738281

> <r_mmod_Improper_Torsional_Energy-OPLS-2005>
3.70219254493713

> <r_mmod_Van_der_Waal_Energy-OPLS-2005>
123.596099853516

> <r_mmod_Electrostatic_Energy-OPLS-2005>
-425.202911376953

> <r_mmod_Solvation_Energy-OPLS-2005>
-201.823883056641

> <b_mmod_Minimization_Converged-OPLS-2005>
0

> <r_mmod_RMS_Derivative-OPLS-2005>
2.44562888145447

$$$$
78
                    3D
 Structure written by MMmdl.
161169  0  0  1  0            999 V2000
  -30.8010  -14.2766   20.7463 C   0  0  0  0  0  0
  -30.4251  -12.2711   19.3663 C   0  0  0  0  0  0
  -29.4833  -12.5380   18.1793 C   0  0  0  0  0  0
  -28.0095  -12.3888   18.6003 C   0  0  0  0  0  0
  -27.6755  -13.1955   19.8822 C   0  0  2  0  0  0
  -28.7117  -12.8996   20.9897 C   0  0  0  0  0  0
  -25.2640  -13.8131   20.5661 C   0  0  0  0  0  0
  -24.1872  -13.0420   20.9155 C   0  0  0  0  0  0
  -24.6409  -11.6887   20.8721 C   0  0  0  0  0  0
  -23.9059  -10.4284   21.0394 C   0  0  0  0  0  0
  -24.3609   -9.4207   21.9182 C   0  0  0  0  0  0
  -23.6278   -8.2244   22.0759 C   0  0  0  0  0  0
  -22.4258   -8.0288   21.3550 C   0  0  0  0  0  0
  -21.9897   -9.0256   20.4647 C   0  0  0  0  0  0
  -22.7230  -10.2131   20.3045 C   0  0  0  0  0  0
  -21.6847   -6.0740   22.5288 C   0  0  0  0  0  0
  -21.4017   -6.5639   23.8228 C   0  0  0  0  0  0
  -21.3661   -5.6786   24.9185 C   0  0  0  0  0  0
  -21.6047   -4.3049   24.7229 C   0  0  0  0  0  0
  -21.8822   -3.8146   23.4349 C   0  0  0  0  0  0
  -21.9192   -4.6967   22.3411 C   0  0  0  0  0  0
  -22.7895  -13.5238   21.1822 C   0  0  0  0  0  0
  -22.1658   -4.2157   21.0984 F   0  0  0  0  0  0
  -21.5626   -3.4536   25.7741 F   0  0  0  0  0  0
  -30.0703  -13.1707   20.4703 N   0  0  0  0  0  0
  -26.3095  -12.9294   20.3374 N   0  0  0  0  0  0
  -25.9341  -11.6458   20.5747 N   0  0  0  0  0  0
  -22.0499  -12.8257   22.0376 N   0  0  0  0  0  0
  -25.4333  -15.1846   20.4059 N   0  0  0  0  0  0
  -31.7188  -14.6991   20.0354 O   0  0  0  0  0  0
  -21.6621   -6.8887   21.4252 O   0  0  0  0  0  0
  -22.3605  -14.5556   20.6676 O   0  0  0  0  0  0
  -24.6082  -31.8719   23.2136 C   0  0  0  0  0  0
  -25.8992  -32.4851   23.8413 C   0  0  1  0  0  0
  -27.2433  -27.4884   20.0722 C   0  0  0  0  0  0
  -25.5869  -33.8648   24.2342 N   0  0  0  0  0  0
  -23.3927  -30.4957   21.5545 C   0  0  2  0  0  0
  -24.8374  -28.9664   20.1174 C   0  0  0  0  0  0
  -22.7374  -29.4669   22.5026 C   0  0  0  0  0  0
  -18.0268  -28.1375   22.8501 C   0  0  0  0  0  0
  -24.1484  -36.7330   23.2639 C   0  0  0  0  0  0
  -25.9156  -30.8532   21.3566 C   0  0  0  0  0  0
  -25.9935  -29.4894   20.7075 C   0  0  0  0  0  0
  -27.1952  -28.7562   20.6836 C   0  0  0  0  0  0
  -26.0651  -26.9630   19.4884 C   0  0  0  0  0  0
  -24.8656  -27.6998   19.5090 C   0  0  0  0  0  0
  -23.5965  -29.8272   20.1685 C   0  0  0  0  0  0
  -25.4107  -36.3132   24.0341 C   0  0  1  0  0  0
  -20.5852  -28.3639   23.1359 C   0  0  2  0  0  0
  -20.6759  -26.9385   22.5430 C   0  0  0  0  0  0
  -19.5737  -26.6387   21.5222 C   0  0  0  0  0  0
  -18.1915  -26.7928   22.1630 C   0  0  0  0  0  0
  -19.1515  -28.8825   23.2928 C   0  0  0  0  0  0
  -18.9442  -30.1440   23.8922 C   0  0  0  0  0  0
  -17.6443  -30.6582   24.0567 C   0  0  0  0  0  0
  -25.9024  -34.9494   23.5139 C   0  0  0  0  0  0
  -16.5335  -29.9085   23.6323 C   0  0  0  0  0  0
  -16.7257  -28.6506   23.0338 C   0  0  0  0  0  0
  -26.4437  -31.6615   25.0719 C   0  0  0  0  0  0
  -25.3722  -31.3700   26.1478 C   0  0  0  0  0  0
  -27.0237  -30.3073   24.6026 C   0  0  0  0  0  0
  -27.6023  -32.4323   25.7475 C   0  0  0  0  0  0
  -27.5582  -37.1821   24.8466 C   0  0  0  0  0  0
  -21.4109  -29.3018   22.3771 N   0  0  0  0  0  0
  -26.4298  -37.3811   23.9404 N   0  0  0  0  0  0
  -24.6573  -31.0864   22.1016 N   0  0  0  0  0  0
  -23.4178  -28.8210   23.3039 O   0  0  0  0  0  0
  -28.4594  -26.8450   20.0573 O   0  0  0  0  0  0
  -26.5589  -34.8933   22.4703 O   0  0  0  0  0  0
  -23.5291  -32.1436   23.7573 O   0  0  0  0  0  0
  -28.5589  -20.4997   23.2780 C   0  0  0  0  0  0
  -29.3836  -20.4362   20.9886 C   0  0  0  0  0  0
  -28.7102  -19.1020   23.3971 C   0  0  0  0  0  0
  -29.1899  -18.3668   22.2754 C   0  0  0  0  0  0
  -28.8500  -21.1634   22.0718 C   0  0  0  0  0  0
  -29.5432  -19.0475   21.0894 C   0  0  0  0  0  0
  -28.9922  -17.5325   25.3515 C   0  0  0  0  0  0
  -28.3579  -18.5258   24.7079 C   0  0  0  0  0  0
  -28.0858  -23.2044   20.9401 C   0  0  0  0  0  0
  -29.2232  -16.8499   22.2268 C   0  0  0  0  0  0
  -27.9447  -24.7129   21.0790 C   0  0  0  0  0  0
  -30.6364  -16.2419   22.2453 C   0  0  0  0  0  0
  -28.5022  -25.4419   19.8464 C   0  0  0  0  0  0
  -28.6117  -22.5550   21.9893 N   0  0  0  0  0  0
  -30.4987  -14.8310   21.9219 N   0  0  0  0  0  0
  -27.7058  -22.6460   19.9073 O   0  0  0  0  0  0
  -30.0045  -18.3588   20.0176 F   0  0  0  0  0  0
  -31.4653  -12.3906   19.0556 H   0  0  0  0  0  0
  -30.3329  -11.2358   19.6983 H   0  0  0  0  0  0
  -29.7101  -11.8520   17.3617 H   0  0  0  0  0  0
  -29.6569  -13.5427   17.7908 H   0  0  0  0  0  0
  -27.8141  -11.3291   18.7691 H   0  0  0  0  0  0
  -27.3559  -12.6915   17.7815 H   0  0  0  0  0  0
  -27.7462  -14.2547   19.6333 H   0  0  0  0  0  0
  -28.6571  -11.8499   21.2831 H   0  0  0  0  0  0
  -28.4532  -13.4630   21.8858 H   0  0  0  0  0  0
  -25.2759   -9.5689   22.4751 H   0  0  0  0  0  0
  -23.9996   -7.4640   22.7477 H   0  0  0  0  0  0
  -21.0830   -8.8772   19.8949 H   0  0  0  0  0  0
  -22.3694  -10.9665   19.6146 H   0  0  0  0  0  0
  -21.2014   -7.6146   23.9745 H   0  0  0  0  0  0
  -21.1476   -6.0506   25.9091 H   0  0  0  0  0  0
  -22.0600   -2.7609   23.2842 H   0  0  0  0  0  0
  -22.4043  -11.9901   22.4786 H   0  0  0  0  0  0
  -21.1131  -13.1342   22.2548 H   0  0  0  0  0  0
  -24.6620  -15.8339   20.5173 H   0  0  0  0  0  0
  -26.2841  -15.6291   20.0849 H   0  0  0  0  0  0
  -26.7063  -32.5564   23.1182 H   0  0  0  0  0  0
  -25.0022  -33.9829   25.0486 H   0  0  0  0  0  0
  -22.6786  -31.3105   21.4195 H   0  0  0  0  0  0
  -23.3744  -35.9666   23.3321 H   0  0  0  0  0  0
  -24.3582  -36.8922   22.2049 H   0  0  0  0  0  0
  -23.7233  -37.6544   23.6634 H   0  0  0  0  0  0
  -26.0132  -31.6188   20.5854 H   0  0  0  0  0  0
  -26.8106  -30.9143   21.9643 H   0  0  0  0  0  0
  -28.0919  -29.1642   21.1289 H   0  0  0  0  0  0
  -26.0513  -26.0003   19.0005 H   0  0  0  0  0  0
  -23.9761  -27.2927   19.0485 H   0  0  0  0  0  0
  -23.6964  -30.6020   19.4072 H   0  0  0  0  0  0
  -22.7216  -29.2435   19.8758 H   0  0  0  0  0  0
  -25.1283  -36.2011   25.0836 H   0  0  0  0  0  0
  -20.9947  -28.3183   24.1476 H   0  0  0  0  0  0
  -20.5682  -26.2226   23.3596 H   0  0  0  0  0  0
  -21.6626  -26.7446   22.1202 H   0  0  0  0  0  0
  -19.6888  -25.6307   21.1225 H   0  0  0  0  0  0
  -19.6683  -27.3220   20.6775 H   0  0  0  0  0  0
  -17.4186  -26.6686   21.4028 H   0  0  0  0  0  0
  -18.0308  -26.0070   22.9027 H   0  0  0  0  0  0
  -19.7914  -30.7262   24.2292 H   0  0  0  0  0  0
  -17.4991  -31.6265   24.5162 H   0  0  0  0  0  0
  -15.5333  -30.2988   23.7642 H   0  0  0  0  0  0
  -15.8660  -28.0840   22.7023 H   0  0  0  0  0  0
  -24.5904  -30.7033   25.7825 H   0  0  0  0  0  0
  -24.8898  -32.2845   26.4939 H   0  0  0  0  0  0
  -25.8102  -30.8870   27.0220 H   0  0  0  0  0  0
  -26.2746  -29.6888   24.1070 H   0  0  0  0  0  0
  -27.4027  -29.7254   25.4433 H   0  0  0  0  0  0
  -27.8574  -30.4427   23.9131 H   0  0  0  0  0  0
  -27.2649  -33.3615   26.2082 H   0  0  0  0  0  0
  -28.3819  -32.6899   25.0293 H   0  0  0  0  0  0
  -28.0698  -31.8422   26.5366 H   0  0  0  0  0  0
  -28.2615  -38.0105   24.7512 H   0  0  0  0  0  0
  -28.1064  -36.2640   24.6298 H   0  0  0  0  0  0
  -27.2300  -37.1484   25.8870 H   0  0  0  0  0  0
  -20.9246  -29.8739   21.7008 H   0  0  0  0  0  0
  -26.0195  -38.2895   24.1400 H   0  0  0  0  0  0
  -28.1825  -21.0663   24.1187 H   0  0  0  0  0  0
  -29.6463  -20.9264   20.0620 H   0  0  0  0  0  0
  -28.6314  -17.1831   26.3088 H   0  0  0  0  0  0
  -29.8732  -17.0558   24.9524 H   0  0  0  0  0  0
  -27.4847  -18.9524   25.1837 H   0  0  0  0  0  0
  -28.7267  -16.5649   21.2967 H   0  0  0  0  0  0
  -28.6017  -16.4126   23.0065 H   0  0  0  0  0  0
  -28.4689  -25.0579   21.9713 H   0  0  0  0  0  0
  -26.8898  -24.9417   21.2267 H   0  0  0  0  0  0
  -31.1109  -16.3570   23.2193 H   0  0  0  0  0  0
  -31.2856  -16.7421   21.5245 H   0  0  0  0  0  0
  -28.0095  -25.1485   18.9190 H   0  0  0  0  0  0
  -29.5513  -25.1716   19.7164 H   0  0  0  0  0  0
  -28.7577  -23.0966   22.8309 H   0  0  0  0  0  0
  -29.8574  -14.3006   22.4933 H   0  0  0  0  0  0
  1 25  1  0  0  0
  1 30  2  0  0  0
  1 85  1  0  0  0
  2  3  1  0  0  0
  2 25  1  0  0  0
  2 88  1  0  0  0
  2 89  1  0  0  0
  3  4  1  0  0  0
  3 90  1  0  0  0
  3 91  1  0  0  0
  4  5  1  0  0  0
  4 92  1  0  0  0
  4 93  1  0  0  0
  5  6  1  0  0  0
  5 26  1  0  0  0
  5 94  1  0  0  0
  6 25  1  0  0  0
  6 95  1  0  0  0
  6 96  1  0  0  0
  7  8  2  0  0  0
  7 26  1  0  0  0
  7 29  1  0  0  0
  8  9  1  0  0  0
  8 22  1  0  0  0
  9 10  1  0  0  0
  9 27  2  0  0  0
 10 11  2  0  0  0
 10 15  1  0  0  0
 11 12  1  0  0  0
 11 97  1  0  0  0
 12 13  2  0  0  0
 12 98  1  0  0  0
 13 14  1  0  0  0
 13 31  1  0  0  0
 14 15  2  0  0  0
 14 99  1  0  0  0
 15100  1  0  0  0
 16 17  2  0  0  0
 16 21  1  0  0  0
 16 31  1  0  0  0
 17 18  1  0  0  0
 17101  1  0  0  0
 18 19  2  0  0  0
 18102  1  0  0  0
 19 20  1  0  0  0
 19 24  1  0  0  0
 20 21  2  0  0  0
 20103  1  0  0  0
 21 23  1  0  0  0
 22 28  1  0  0  0
 22 32  2  0  0  0
 26 27  1  0  0  0
 28104  1  0  0  0
 28105  1  0  0  0
 29106  1  0  0  0
 29107  1  0  0  0
 33 34  1  0  0  0
 33 66  1  0  0  0
 33 70  2  0  0  0
 34 36  1  0  0  0
 34 59  1  0  0  0
 34108  1  0  0  0
 35 44  2  0  0  0
 35 45  1  0  0  0
 35 68  1  0  0  0
 36 56  1  0  0  0
 36109  1  0  0  0
 37 39  1  0  0  0
 37 47  1  0  0  0
 37 66  1  0  0  0
 37110  1  0  0  0
 38 43  2  0  0  0
 38 46  1  0  0  0
 38 47  1  0  0  0
 39 64  1  0  0  0
 39 67  2  0  0  0
 40 52  1  0  0  0
 40 53  2  0  0  0
 40 58  1  0  0  0
 41111  1  0  0  0
 41112  1  0  0  0
 41113  1  0  0  0
 41 48  1  0  0  0
 42 43  1  0  0  0
 42 66  1  0  0  0
 42114  1  0  0  0
 42115  1  0  0  0
 43 44  1  0  0  0
 44116  1  0  0  0
 45 46  2  0  0  0
 45117  1  0  0  0
 46118  1  0  0  0
 47119  1  0  0  0
 47120  1  0  0  0
 48 56  1  0  0  0
 48 65  1  0  0  0
 48121  1  0  0  0
 49 50  1  0  0  0
 49 53  1  0  0  0
 49 64  1  0  0  0
 49122  1  0  0  0
 50 51  1  0  0  0
 50123  1  0  0  0
 50124  1  0  0  0
 51 52  1  0  0  0
 51125  1  0  0  0
 51126  1  0  0  0
 52127  1  0  0  0
 52128  1  0  0  0
 53 54  1  0  0  0
 54 55  2  0  0  0
 54129  1  0  0  0
 55 57  1  0  0  0
 55130  1  0  0  0
 56 69  2  0  0  0
 57 58  2  0  0  0
 57131  1  0  0  0
 58132  1  0  0  0
 59 60  1  0  0  0
 59 61  1  0  0  0
 59 62  1  0  0  0
 60133  1  0  0  0
 60134  1  0  0  0
 60135  1  0  0  0
 61136  1  0  0  0
 61137  1  0  0  0
 61138  1  0  0  0
 62139  1  0  0  0
 62140  1  0  0  0
 62141  1  0  0  0
 63 65  1  0  0  0
 63142  1  0  0  0
 63143  1  0  0  0
 63144  1  0  0  0
 64145  1  0  0  0
 65146  1  0  0  0
 68 83  1  0  0  0
 71 73  2  0  0  0
 71 75  1  0  0  0
 71147  1  0  0  0
 72 75  2  0  0  0
 72 76  1  0  0  0
 72148  1  0  0  0
 73 74  1  0  0  0
 73 78  1  0  0  0
 74 76  2  0  0  0
 74 80  1  0  0  0
 75 84  1  0  0  0
 76 87  1  0  0  0
 77 78  2  0  0  0
 77149  1  0  0  0
 77150  1  0  0  0
 78151  1  0  0  0
 79 81  1  0  0  0
 79 84  1  0  0  0
 79 86  2  0  0  0
 80 82  1  0  0  0
 80152  1  0  0  0
 80153  1  0  0  0
 81 83  1  0  0  0
 81154  1  0  0  0
 81155  1  0  0  0
 82 85  1  0  0  0
 82156  1  0  0  0
 82157  1  0  0  0
 83158  1  0  0  0
 83159  1  0  0  0
 84160  1  0  0  0
 85161  1  0  0  0
M  ISO  4   1 100  68 101  83 101  85 100
M  END
> <chiral flag>
0

> <version>
0

> <s_m_source_file>
/data/baiqing/PycharmProjects/Reinvent-master-3.2/result/LINK_invent/BTK/process_docking_weight1_custom_product_contain_oxygen_bond_distance_aromatic_linkinvent_7_9_3/rearranged_h_0106.sdf

> <i_m_source_file_index>
79

> <r_mmod_Potential_Energy-OPLS-2005>
-101.692535400391

> <r_mmod_Stretch_Energy-OPLS-2005>
31.3407974243164

> <r_mmod_Bend_Energy-OPLS-2005>
99.3570098876953

> <r_mmod_Torsional_Energy-OPLS-2005>
234.60270690918

> <r_mmod_Improper_Torsional_Energy-OPLS-2005>
3.94912910461426

> <r_mmod_Van_der_Waal_Energy-OPLS-2005>
163.961395263672

> <r_mmod_Electrostatic_Energy-OPLS-2005>
-414.842041015625

> <r_mmod_Solvation_Energy-OPLS-2005>
-230.414413452148

> <b_mmod_Minimization_Converged-OPLS-2005>
0

> <r_mmod_RMS_Derivative-OPLS-2005>
1.27340948581696

$$$$
79
                    3D
 Structure written by MMmdl.
163171  0  0  1  0            999 V2000
  -30.7745  -14.4171   20.5992 C   0  0  0  0  0  0
  -30.4034  -12.2865   19.4188 C   0  0  0  0  0  0
  -29.4841  -12.5108   18.2061 C   0  0  0  0  0  0
  -28.0069  -12.3809   18.6192 C   0  0  0  0  0  0
  -27.6627  -13.2152   19.8818 C   0  0  2  0  0  0
  -28.7081  -12.9996   21.0018 C   0  0  0  0  0  0
  -25.2563  -13.8178   20.5696 C   0  0  0  0  0  0
  -24.1824  -13.0446   20.9199 C   0  0  0  0  0  0
  -24.6409  -11.6921   20.8776 C   0  0  0  0  0  0
  -23.9078  -10.4305   21.0423 C   0  0  0  0  0  0
  -24.3624   -9.4211   21.9195 C   0  0  0  0  0  0
  -23.6306   -8.2233   22.0739 C   0  0  0  0  0  0
  -22.4275   -8.0287   21.3539 C   0  0  0  0  0  0
  -21.9929   -9.0262   20.4628 C   0  0  0  0  0  0
  -22.7255  -10.2150   20.3059 C   0  0  0  0  0  0
  -21.6829   -6.0754   22.5304 C   0  0  0  0  0  0
  -21.3987   -6.5659   23.8241 C   0  0  0  0  0  0
  -21.3670   -5.6803   24.9197 C   0  0  0  0  0  0
  -21.6052   -4.3066   24.7224 C   0  0  0  0  0  0
  -21.8811   -3.8158   23.4337 C   0  0  0  0  0  0
  -21.9174   -4.6987   22.3411 C   0  0  0  0  0  0
  -22.7839  -13.5233   21.1869 C   0  0  0  0  0  0
  -22.1633   -4.2185   21.0978 F   0  0  0  0  0  0
  -21.5653   -3.4540   25.7725 F   0  0  0  0  0  0
  -30.0466  -13.2738   20.4513 N   0  0  0  0  0  0
  -26.3026  -12.9374   20.3441 N   0  0  0  0  0  0
  -25.9345  -11.6528   20.5845 N   0  0  0  0  0  0
  -22.0451  -12.8237   22.0417 N   0  0  0  0  0  0
  -25.4246  -15.1887   20.4037 N   0  0  0  0  0  0
  -31.8245  -14.5995   19.9807 O   0  0  0  0  0  0
  -21.6618   -6.8890   21.4259 O   0  0  0  0  0  0
  -22.3541  -14.5556   20.6732 O   0  0  0  0  0  0
  -24.6126  -31.8699   23.2130 C   0  0  0  0  0  0
  -25.9033  -32.4826   23.8409 C   0  0  1  0  0  0
  -27.2190  -27.4385   20.0801 C   0  0  0  0  0  0
  -25.5895  -33.8636   24.2338 N   0  0  0  0  0  0
  -23.3981  -30.4984   21.5540 C   0  0  2  0  0  0
  -24.8391  -28.9712   20.1113 C   0  0  0  0  0  0
  -22.7394  -29.4681   22.5003 C   0  0  0  0  0  0
  -18.0268  -28.1360   22.8499 C   0  0  0  0  0  0
  -24.1484  -36.7325   23.2639 C   0  0  0  0  0  0
  -25.9276  -30.8351   21.3669 C   0  0  0  0  0  0
  -26.0001  -29.4714   20.7122 C   0  0  0  0  0  0
  -27.1902  -28.7090   20.7016 C   0  0  0  0  0  0
  -26.0373  -26.9613   19.4635 C   0  0  0  0  0  0
  -24.8525  -27.7148   19.4857 C   0  0  0  0  0  0
  -23.6010  -29.8354   20.1671 C   0  0  0  0  0  0
  -25.4107  -36.3126   24.0340 C   0  0  1  0  0  0
  -20.5848  -28.3640   23.1319 C   0  0  2  0  0  0
  -20.6755  -26.9383   22.5410 C   0  0  0  0  0  0
  -19.5734  -26.6376   21.5209 C   0  0  0  0  0  0
  -18.1914  -26.7907   22.1624 C   0  0  0  0  0  0
  -19.1515  -28.8821   23.2908 C   0  0  0  0  0  0
  -18.9449  -30.1431   23.8913 C   0  0  0  0  0  0
  -17.6454  -30.6574   24.0558 C   0  0  0  0  0  0
  -25.9035  -34.9487   23.5133 C   0  0  0  0  0  0
  -16.5342  -29.9077   23.6324 C   0  0  0  0  0  0
  -16.7257  -28.6488   23.0350 C   0  0  0  0  0  0
  -26.4465  -31.6604   25.0738 C   0  0  0  0  0  0
  -25.3745  -31.3721   26.1499 C   0  0  0  0  0  0
  -27.0284  -30.3051   24.6105 C   0  0  0  0  0  0
  -27.6040  -32.4329   25.7493 C   0  0  0  0  0  0
  -27.5576  -37.1817   24.8463 C   0  0  0  0  0  0
  -21.4122  -29.3030   22.3742 N   0  0  0  0  0  0
  -26.4292  -37.3806   23.9401 N   0  0  0  0  0  0
  -24.6649  -31.0816   22.1024 N   0  0  0  0  0  0
  -23.4182  -28.8214   23.3028 O   0  0  0  0  0  0
  -28.3926  -26.7113   20.1072 O   0  0  0  0  0  0
  -26.5596  -34.8925   22.4689 O   0  0  0  0  0  0
  -23.5325  -32.1460   23.7530 O   0  0  0  0  0  0
  -32.1596  -17.7325   20.5583 C   0  0  0  0  0  0
  -30.2439  -19.1942   20.9198 C   0  0  0  0  0  0
  -32.4850  -20.1368   20.7087 C   0  0  0  0  0  0
  -30.7674  -17.8857   20.7507 C   0  0  0  0  0  0
  -33.0126  -18.8497   20.5199 C   0  0  0  0  0  0
  -31.1033  -20.3244   20.9123 C   0  0  0  0  0  0
  -30.2228  -16.3409   23.6262 C   0  0  0  0  0  0
  -30.4606  -15.3488   22.7492 C   0  0  0  0  0  0
  -29.5159  -22.2744   20.9201 C   0  0  0  0  0  0
  -29.8120  -16.6767   20.7249 C   0  0  0  0  0  0
  -29.5065  -23.7802   21.2119 C   0  0  0  0  0  0
  -29.6582  -24.6361   19.9305 C   0  0  0  0  0  0
  -28.3885  -25.4002   19.5313 C   0  0  0  0  0  0
  -34.3755  -18.6798   20.2866 N   0  0  0  0  0  0
  -30.6876  -21.6630   21.1515 N   0  0  0  0  0  0
  -30.2496  -15.4064   21.3597 N   0  0  0  0  0  0
  -28.5040  -21.7154   20.4921 O   0  0  0  0  0  0
  -31.4485  -12.3511   19.1102 H   0  0  0  0  0  0
  -30.2776  -11.2767   19.8093 H   0  0  0  0  0  0
  -29.7179  -11.7883   17.4227 H   0  0  0  0  0  0
  -29.6678  -13.4984   17.7788 H   0  0  0  0  0  0
  -27.8027  -11.3236   18.7987 H   0  0  0  0  0  0
  -27.3600  -12.6727   17.7917 H   0  0  0  0  0  0
  -27.7066  -14.2646   19.5911 H   0  0  0  0  0  0
  -28.6708  -11.9716   21.3671 H   0  0  0  0  0  0
  -28.4712  -13.6260   21.8618 H   0  0  0  0  0  0
  -25.2752   -9.5676   22.4785 H   0  0  0  0  0  0
  -24.0016   -7.4597   22.7442 H   0  0  0  0  0  0
  -21.0861   -8.8771   19.8920 H   0  0  0  0  0  0
  -22.3710  -10.9691   19.6168 H   0  0  0  0  0  0
  -21.1955   -7.6162   23.9764 H   0  0  0  0  0  0
  -21.1512   -6.0514   25.9115 H   0  0  0  0  0  0
  -22.0578   -2.7618   23.2813 H   0  0  0  0  0  0
  -22.4046  -11.9916   22.4835 H   0  0  0  0  0  0
  -21.1062  -13.1279   22.2603 H   0  0  0  0  0  0
  -24.6551  -15.8417   20.5010 H   0  0  0  0  0  0
  -26.2843  -15.6341   20.1066 H   0  0  0  0  0  0
  -26.7105  -32.5536   23.1174 H   0  0  0  0  0  0
  -25.0047  -33.9813   25.0486 H   0  0  0  0  0  0
  -22.6847  -31.3141   21.4197 H   0  0  0  0  0  0
  -23.3735  -35.9666   23.3324 H   0  0  0  0  0  0
  -24.3574  -36.8918   22.2046 H   0  0  0  0  0  0
  -23.7242  -37.6542   23.6636 H   0  0  0  0  0  0
  -26.0404  -31.6011   20.5989 H   0  0  0  0  0  0
  -26.8160  -30.8854   21.9841 H   0  0  0  0  0  0
  -28.0857  -29.0893   21.1727 H   0  0  0  0  0  0
  -25.9954  -26.0133   18.9487 H   0  0  0  0  0  0
  -23.9610  -27.3296   19.0099 H   0  0  0  0  0  0
  -23.7005  -30.6115   19.4069 H   0  0  0  0  0  0
  -22.7253  -29.2522   19.8756 H   0  0  0  0  0  0
  -25.1282  -36.1993   25.0833 H   0  0  0  0  0  0
  -20.9952  -28.3199   24.1435 H   0  0  0  0  0  0
  -20.5645  -26.2254   23.3599 H   0  0  0  0  0  0
  -21.6619  -26.7421   22.1194 H   0  0  0  0  0  0
  -19.6884  -25.6294   21.1225 H   0  0  0  0  0  0
  -19.6667  -27.3202   20.6754 H   0  0  0  0  0  0
  -17.4178  -26.6652   21.4032 H   0  0  0  0  0  0
  -18.0324  -26.0041   22.9017 H   0  0  0  0  0  0
  -19.7928  -30.7234   24.2281 H   0  0  0  0  0  0
  -17.5011  -31.6258   24.5148 H   0  0  0  0  0  0
  -15.5338  -30.2984   23.7639 H   0  0  0  0  0  0
  -15.8653  -28.0813   22.7055 H   0  0  0  0  0  0
  -24.5888  -30.7098   25.7850 H   0  0  0  0  0  0
  -24.8972  -32.2887   26.4989 H   0  0  0  0  0  0
  -25.8108  -30.8862   27.0237 H   0  0  0  0  0  0
  -26.2825  -29.6831   24.1151 H   0  0  0  0  0  0
  -27.4042  -29.7273   25.4553 H   0  0  0  0  0  0
  -27.8663  -30.4367   23.9262 H   0  0  0  0  0  0
  -27.2649  -33.3614   26.2105 H   0  0  0  0  0  0
  -28.3831  -32.6921   25.0313 H   0  0  0  0  0  0
  -28.0730  -31.8439   26.5387 H   0  0  0  0  0  0
  -28.2608  -38.0102   24.7491 H   0  0  0  0  0  0
  -28.1057  -36.2629   24.6312 H   0  0  0  0  0  0
  -27.2289  -37.1493   25.8868 H   0  0  0  0  0  0
  -20.9268  -29.8781   21.6997 H   0  0  0  0  0  0
  -26.0188  -38.2884   24.1394 H   0  0  0  0  0  0
  -32.5955  -16.7597   20.4243 H   0  0  0  0  0  0
  -29.1821  -19.3208   21.0747 H   0  0  0  0  0  0
  -33.1436  -20.9942   20.6911 H   0  0  0  0  0  0
  -30.4204  -16.1936   24.6788 H   0  0  0  0  0  0
  -29.8383  -17.3065   23.3331 H   0  0  0  0  0  0
  -30.8431  -14.3950   23.0933 H   0  0  0  0  0  0
  -29.5715  -16.4911   19.6750 H   0  0  0  0  0  0
  -28.8631  -16.9645   21.1804 H   0  0  0  0  0  0
  -30.3197  -24.0171   21.8980 H   0  0  0  0  0  0
  -28.5932  -24.0321   21.7540 H   0  0  0  0  0  0
  -29.9416  -23.9952   19.0930 H   0  0  0  0  0  0
  -30.4876  -25.3348   20.0428 H   0  0  0  0  0  0
  -27.5219  -24.8138   19.8402 H   0  0  0  0  0  0
  -28.3489  -25.5009   18.4449 H   0  0  0  0  0  0
  -34.6769  -17.8065   19.8643 H   0  0  0  0  0  0
  -34.8982  -19.4791   19.9392 H   0  0  0  0  0  0
  -31.4199  -22.2948   21.4451 H   0  0  0  0  0  0
  1 25  1  0  0  0
  1 30  2  0  0  0
  1 86  1  0  0  0
  2  3  1  0  0  0
  2 25  1  0  0  0
  2 88  1  0  0  0
  2 89  1  0  0  0
  3  4  1  0  0  0
  3 90  1  0  0  0
  3 91  1  0  0  0
  4  5  1  0  0  0
  4 92  1  0  0  0
  4 93  1  0  0  0
  5  6  1  0  0  0
  5 26  1  0  0  0
  5 94  1  0  0  0
  6 25  1  0  0  0
  6 95  1  0  0  0
  6 96  1  0  0  0
  7  8  2  0  0  0
  7 26  1  0  0  0
  7 29  1  0  0  0
  8  9  1  0  0  0
  8 22  1  0  0  0
  9 10  1  0  0  0
  9 27  2  0  0  0
 10 11  2  0  0  0
 10 15  1  0  0  0
 11 12  1  0  0  0
 11 97  1  0  0  0
 12 13  2  0  0  0
 12 98  1  0  0  0
 13 14  1  0  0  0
 13 31  1  0  0  0
 14 15  2  0  0  0
 14 99  1  0  0  0
 15100  1  0  0  0
 16 17  2  0  0  0
 16 21  1  0  0  0
 16 31  1  0  0  0
 17 18  1  0  0  0
 17101  1  0  0  0
 18 19  2  0  0  0
 18102  1  0  0  0
 19 20  1  0  0  0
 19 24  1  0  0  0
 20 21  2  0  0  0
 20103  1  0  0  0
 21 23  1  0  0  0
 22 28  1  0  0  0
 22 32  2  0  0  0
 26 27  1  0  0  0
 28104  1  0  0  0
 28105  1  0  0  0
 29106  1  0  0  0
 29107  1  0  0  0
 33 34  1  0  0  0
 33 66  1  0  0  0
 33 70  2  0  0  0
 34 36  1  0  0  0
 34 59  1  0  0  0
 34108  1  0  0  0
 35 44  2  0  0  0
 35 45  1  0  0  0
 35 68  1  0  0  0
 36 56  1  0  0  0
 36109  1  0  0  0
 37 39  1  0  0  0
 37 47  1  0  0  0
 37 66  1  0  0  0
 37110  1  0  0  0
 38 43  2  0  0  0
 38 46  1  0  0  0
 38 47  1  0  0  0
 39 64  1  0  0  0
 39 67  2  0  0  0
 40 52  1  0  0  0
 40 53  2  0  0  0
 40 58  1  0  0  0
 41111  1  0  0  0
 41112  1  0  0  0
 41113  1  0  0  0
 41 48  1  0  0  0
 42 43  1  0  0  0
 42 66  1  0  0  0
 42114  1  0  0  0
 42115  1  0  0  0
 43 44  1  0  0  0
 44116  1  0  0  0
 45 46  2  0  0  0
 45117  1  0  0  0
 46118  1  0  0  0
 47119  1  0  0  0
 47120  1  0  0  0
 48 56  1  0  0  0
 48 65  1  0  0  0
 48121  1  0  0  0
 49 50  1  0  0  0
 49 53  1  0  0  0
 49 64  1  0  0  0
 49122  1  0  0  0
 50 51  1  0  0  0
 50123  1  0  0  0
 50124  1  0  0  0
 51 52  1  0  0  0
 51125  1  0  0  0
 51126  1  0  0  0
 52127  1  0  0  0
 52128  1  0  0  0
 53 54  1  0  0  0
 54 55  2  0  0  0
 54129  1  0  0  0
 55 57  1  0  0  0
 55130  1  0  0  0
 56 69  2  0  0  0
 57 58  2  0  0  0
 57131  1  0  0  0
 58132  1  0  0  0
 59 60  1  0  0  0
 59 61  1  0  0  0
 59 62  1  0  0  0
 60133  1  0  0  0
 60134  1  0  0  0
 60135  1  0  0  0
 61136  1  0  0  0
 61137  1  0  0  0
 61138  1  0  0  0
 62139  1  0  0  0
 62140  1  0  0  0
 62141  1  0  0  0
 63 65  1  0  0  0
 63142  1  0  0  0
 63143  1  0  0  0
 63144  1  0  0  0
 64145  1  0  0  0
 65146  1  0  0  0
 68 83  1  0  0  0
 71 74  2  0  0  0
 71 75  1  0  0  0
 71147  1  0  0  0
 72 74  1  0  0  0
 72 76  2  0  0  0
 72148  1  0  0  0
 73 75  2  0  0  0
 73 76  1  0  0  0
 73149  1  0  0  0
 74 80  1  0  0  0
 75 84  1  0  0  0
 76 85  1  0  0  0
 77 78  2  0  0  0
 77150  1  0  0  0
 77151  1  0  0  0
 78 86  1  0  0  0
 78152  1  0  0  0
 79 81  1  0  0  0
 79 85  1  0  0  0
 79 87  2  0  0  0
 80 86  1  0  0  0
 80153  1  0  0  0
 80154  1  0  0  0
 81 82  1  0  0  0
 81155  1  0  0  0
 81156  1  0  0  0
 82 83  1  0  0  0
 82157  1  0  0  0
 82158  1  0  0  0
 83159  1  0  0  0
 83160  1  0  0  0
 84161  1  0  0  0
 84162  1  0  0  0
 85163  1  0  0  0
M  ISO  4   1 100  68 101  83 101  86 100
M  END
> <chiral flag>
0

> <version>
0

> <s_m_source_file>
/data/baiqing/PycharmProjects/Reinvent-master-3.2/result/LINK_invent/BTK/process_docking_weight1_custom_product_contain_oxygen_bond_distance_aromatic_linkinvent_7_9_3/rearranged_h_0106.sdf

> <i_m_source_file_index>
80

> <r_mmod_Potential_Energy-OPLS-2005>
39.7871780395508

> <r_mmod_Stretch_Energy-OPLS-2005>
39.0960693359375

> <r_mmod_Bend_Energy-OPLS-2005>
114.804779052734

> <r_mmod_Torsional_Energy-OPLS-2005>
301.306274414062

> <r_mmod_Improper_Torsional_Energy-OPLS-2005>
7.15155029296875

> <r_mmod_Van_der_Waal_Energy-OPLS-2005>
163.346374511719

> <r_mmod_Electrostatic_Energy-OPLS-2005>
-371.524383544922

> <r_mmod_Solvation_Energy-OPLS-2005>
-226.116546630859

> <b_mmod_Minimization_Converged-OPLS-2005>
0

> <r_mmod_RMS_Derivative-OPLS-2005>
2.62740707397461

$$$$
80
                    3D
 Structure written by MMmdl.
157165  0  0  1  0            999 V2000
  -30.6879  -14.6292   20.5875 C   0  0  0  0  0  0
  -30.4326  -12.4091   19.4706 C   0  0  0  0  0  0
  -29.5111  -12.5332   18.2372 C   0  0  0  0  0  0
  -28.0352  -12.3525   18.6385 C   0  0  0  0  0  0
  -27.6549  -13.2190   19.8671 C   0  0  2  0  0  0
  -28.6903  -13.0641   21.0015 C   0  0  0  0  0  0
  -25.2568  -13.8165   20.5680 C   0  0  0  0  0  0
  -24.1828  -13.0429   20.9161 C   0  0  0  0  0  0
  -24.6385  -11.6906   20.8705 C   0  0  0  0  0  0
  -23.9042  -10.4295   21.0383 C   0  0  0  0  0  0
  -24.3600   -9.4223   21.9168 C   0  0  0  0  0  0
  -23.6282   -8.2258   22.0753 C   0  0  0  0  0  0
  -22.4267   -8.0281   21.3541 C   0  0  0  0  0  0
  -21.9896   -9.0244   20.4639 C   0  0  0  0  0  0
  -22.7216  -10.2127   20.3037 C   0  0  0  0  0  0
  -21.6846   -6.0730   22.5277 C   0  0  0  0  0  0
  -21.4010   -6.5634   23.8213 C   0  0  0  0  0  0
  -21.3657   -5.6786   24.9178 C   0  0  0  0  0  0
  -21.6052   -4.3057   24.7225 C   0  0  0  0  0  0
  -21.8815   -3.8142   23.4350 C   0  0  0  0  0  0
  -21.9191   -4.6954   22.3406 C   0  0  0  0  0  0
  -22.7861  -13.5232   21.1833 C   0  0  0  0  0  0
  -22.1665   -4.2150   21.0978 F   0  0  0  0  0  0
  -21.5632   -3.4536   25.7738 F   0  0  0  0  0  0
  -30.0205  -13.4237   20.4707 N   0  0  0  0  0  0
  -26.2987  -12.9344   20.3303 N   0  0  0  0  0  0
  -25.9310  -11.6494   20.5696 N   0  0  0  0  0  0
  -22.0501  -12.8219   22.0391 N   0  0  0  0  0  0
  -25.4300  -15.1887   20.4147 N   0  0  0  0  0  0
  -31.7584  -14.8107   19.9968 O   0  0  0  0  0  0
  -21.6632   -6.8877   21.4243 O   0  0  0  0  0  0
  -22.3545  -14.5548   20.6695 O   0  0  0  0  0  0
  -24.6234  -31.8615   23.2066 C   0  0  0  0  0  0
  -25.9080  -32.4787   23.8391 C   0  0  1  0  0  0
  -27.2242  -27.3329   20.1284 C   0  0  0  0  0  0
  -25.5901  -33.8586   24.2315 N   0  0  0  0  0  0
  -23.4163  -30.4862   21.5484 C   0  0  2  0  0  0
  -24.8659  -28.9450   20.1129 C   0  0  0  0  0  0
  -22.7466  -29.4618   22.4953 C   0  0  0  0  0  0
  -18.0282  -28.1366   22.8490 C   0  0  0  0  0  0
  -24.1475  -36.7295   23.2648 C   0  0  0  0  0  0
  -25.9547  -30.8009   21.3724 C   0  0  0  0  0  0
  -26.0338  -29.4265   20.7198 C   0  0  0  0  0  0
  -27.2181  -28.6336   20.7168 C   0  0  0  0  0  0
  -26.0385  -26.9074   19.4867 C   0  0  0  0  0  0
  -24.8698  -27.6905   19.4863 C   0  0  0  0  0  0
  -23.6320  -29.8236   20.1631 C   0  0  0  0  0  0
  -25.4099  -36.3091   24.0329 C   0  0  1  0  0  0
  -20.5874  -28.3677   23.1299 C   0  0  2  0  0  0
  -20.6769  -26.9411   22.5411 C   0  0  0  0  0  0
  -19.5746  -26.6390   21.5212 C   0  0  0  0  0  0
  -18.1922  -26.7919   22.1623 C   0  0  0  0  0  0
  -19.1532  -28.8836   23.2889 C   0  0  0  0  0  0
  -18.9462  -30.1441   23.8909 C   0  0  0  0  0  0
  -17.6465  -30.6583   24.0567 C   0  0  0  0  0  0
  -25.9041  -34.9453   23.5127 C   0  0  0  0  0  0
  -16.5357  -29.9090   23.6333 C   0  0  0  0  0  0
  -16.7272  -28.6492   23.0368 C   0  0  0  0  0  0
  -26.4499  -31.6583   25.0731 C   0  0  0  0  0  0
  -25.3748  -31.3636   26.1457 C   0  0  0  0  0  0
  -27.0385  -30.3045   24.6141 C   0  0  0  0  0  0
  -27.6060  -32.4326   25.7506 C   0  0  0  0  0  0
  -27.5572  -37.1799   24.8465 C   0  0  0  0  0  0
  -21.4179  -29.3029   22.3690 N   0  0  0  0  0  0
  -26.4277  -37.3783   23.9411 N   0  0  0  0  0  0
  -24.6843  -31.0649   22.1002 N   0  0  0  0  0  0
  -23.4196  -28.8155   23.3026 O   0  0  0  0  0  0
  -28.3284  -26.4735   20.1691 O   0  0  0  0  0  0
  -26.5634  -34.8914   22.4707 O   0  0  0  0  0  0
  -23.5400  -32.1402   23.7397 O   0  0  0  0  0  0
  -30.8743  -17.8928   20.2042 C   0  0  0  0  0  0
  -28.9413  -19.5311   21.3464 C   0  0  0  0  0  0
  -29.9822  -17.2484   21.1058 C   0  0  0  0  0  0
  -28.9965  -18.1394   21.6645 C   0  0  0  0  0  0
  -30.8347  -19.2864   19.8831 C   0  0  0  0  0  0
  -29.8506  -20.1589   20.4604 C   0  0  0  0  0  0
  -30.1381  -15.7546   21.5451 C   0  0  0  0  0  0
  -29.1137  -23.9855   20.2628 C   0  0  0  0  0  0
  -32.1133  -21.0562   18.7979 C   0  0  0  0  0  0
  -28.0408  -25.0858   20.6104 C   0  0  0  0  0  0
  -28.8786  -22.4938   20.7422 C   0  0  0  0  0  0
  -29.8707  -15.4409   22.7461 N   0  0  0  0  0  0
  -28.0281  -17.7024   22.5759 N   0  0  0  0  0  0
  -30.1304  -24.2856   19.6241 O   0  0  0  0  0  0
  -31.8126  -19.6773   18.9868 O   0  0  0  0  0  0
  -29.8076  -21.5347   20.1398 O   0  0  0  0  0  0
  -31.4758  -12.5178   19.1710 H   0  0  0  0  0  0
  -30.3605  -11.4090   19.9015 H   0  0  0  0  0  0
  -29.7846  -11.7931   17.4848 H   0  0  0  0  0  0
  -29.6494  -13.5107   17.7715 H   0  0  0  0  0  0
  -27.8820  -11.2973   18.8695 H   0  0  0  0  0  0
  -27.3801  -12.5775   17.7959 H   0  0  0  0  0  0
  -27.6782  -14.2590   19.5364 H   0  0  0  0  0  0
  -28.7011  -12.0362   21.3658 H   0  0  0  0  0  0
  -28.3790  -13.6615   21.8543 H   0  0  0  0  0  0
  -25.2746   -9.5711   22.4750 H   0  0  0  0  0  0
  -23.9987   -7.4662   22.7490 H   0  0  0  0  0  0
  -21.0828   -8.8756   19.8955 H   0  0  0  0  0  0
  -22.3668  -10.9656   19.6152 H   0  0  0  0  0  0
  -21.1997   -7.6146   23.9715 H   0  0  0  0  0  0
  -21.1487   -6.0521   25.9080 H   0  0  0  0  0  0
  -22.0595   -2.7602   23.2846 H   0  0  0  0  0  0
  -22.4100  -11.9856   22.4746 H   0  0  0  0  0  0
  -21.1132  -13.1265   22.2605 H   0  0  0  0  0  0
  -24.6714  -15.8490   20.5426 H   0  0  0  0  0  0
  -26.2953  -15.6335   20.1364 H   0  0  0  0  0  0
  -26.7144  -32.5483   23.1147 H   0  0  0  0  0  0
  -24.9981  -33.9737   25.0412 H   0  0  0  0  0  0
  -22.7070  -31.3049   21.4081 H   0  0  0  0  0  0
  -23.3739  -35.9627   23.3289 H   0  0  0  0  0  0
  -24.3569  -36.8945   22.2068 H   0  0  0  0  0  0
  -23.7226  -37.6478   23.6700 H   0  0  0  0  0  0
  -26.0741  -31.5624   20.5992 H   0  0  0  0  0  0
  -26.8383  -30.8597   21.9953 H   0  0  0  0  0  0
  -28.1129  -28.9991   21.2021 H   0  0  0  0  0  0
  -25.9993  -25.9546   18.9768 H   0  0  0  0  0  0
  -23.9766  -27.3201   19.0024 H   0  0  0  0  0  0
  -23.7495  -30.6026   19.4091 H   0  0  0  0  0  0
  -22.7504  -29.2539   19.8620 H   0  0  0  0  0  0
  -25.1274  -36.1948   25.0821 H   0  0  0  0  0  0
  -20.9971  -28.3267   24.1424 H   0  0  0  0  0  0
  -20.5688  -26.2292   23.3595 H   0  0  0  0  0  0
  -21.6641  -26.7459   22.1205 H   0  0  0  0  0  0
  -19.6924  -25.6309   21.1224 H   0  0  0  0  0  0
  -19.6683  -27.3208   20.6737 H   0  0  0  0  0  0
  -17.4201  -26.6659   21.4023 H   0  0  0  0  0  0
  -18.0321  -26.0049   22.9005 H   0  0  0  0  0  0
  -19.7933  -30.7233   24.2309 H   0  0  0  0  0  0
  -17.5022  -31.6268   24.5164 H   0  0  0  0  0  0
  -15.5350  -30.3005   23.7636 H   0  0  0  0  0  0
  -15.8661  -28.0817   22.7112 H   0  0  0  0  0  0
  -24.5971  -30.6944   25.7762 H   0  0  0  0  0  0
  -24.8868  -32.2739   26.4940 H   0  0  0  0  0  0
  -25.8090  -30.8787   27.0214 H   0  0  0  0  0  0
  -26.2966  -29.6729   24.1236 H   0  0  0  0  0  0
  -27.4222  -29.7343   25.4614 H   0  0  0  0  0  0
  -27.8753  -30.4387   23.9277 H   0  0  0  0  0  0
  -27.2722  -33.3673   26.2031 H   0  0  0  0  0  0
  -28.3903  -32.6807   25.0336 H   0  0  0  0  0  0
  -28.0693  -31.8468   26.5463 H   0  0  0  0  0  0
  -28.2570  -38.0120   24.7570 H   0  0  0  0  0  0
  -28.1095  -36.2655   24.6242 H   0  0  0  0  0  0
  -27.2287  -37.1382   25.8867 H   0  0  0  0  0  0
  -20.9354  -29.8767   21.6907 H   0  0  0  0  0  0
  -26.0155  -38.2843   24.1455 H   0  0  0  0  0  0
  -31.6636  -17.3082   19.7556 H   0  0  0  0  0  0
  -28.1730  -20.1340   21.8074 H   0  0  0  0  0  0
  -33.0127  -21.1499   18.1888 H   0  0  0  0  0  0
  -32.3114  -21.5570   19.7465 H   0  0  0  0  0  0
  -31.3181  -21.5810   18.2663 H   0  0  0  0  0  0
  -27.9159  -25.0996   21.6926 H   0  0  0  0  0  0
  -27.0973  -24.7242   20.2099 H   0  0  0  0  0  0
  -27.8508  -22.2085   20.5141 H   0  0  0  0  0  0
  -28.9903  -22.4629   21.8265 H   0  0  0  0  0  0
  -29.5479  -16.2668   23.2424 H   0  0  0  0  0  0
  -27.2545  -18.3110   22.8264 H   0  0  0  0  0  0
  -27.7960  -16.7157   22.6325 H   0  0  0  0  0  0
  1 25  1  0  0  0
  1 30  2  0  0  0
  1 77  1  0  0  0
  2  3  1  0  0  0
  2 25  1  0  0  0
  2 87  1  0  0  0
  2 88  1  0  0  0
  3  4  1  0  0  0
  3 89  1  0  0  0
  3 90  1  0  0  0
  4  5  1  0  0  0
  4 91  1  0  0  0
  4 92  1  0  0  0
  5  6  1  0  0  0
  5 26  1  0  0  0
  5 93  1  0  0  0
  6 25  1  0  0  0
  6 94  1  0  0  0
  6 95  1  0  0  0
  7  8  2  0  0  0
  7 26  1  0  0  0
  7 29  1  0  0  0
  8  9  1  0  0  0
  8 22  1  0  0  0
  9 10  1  0  0  0
  9 27  2  0  0  0
 10 11  2  0  0  0
 10 15  1  0  0  0
 11 12  1  0  0  0
 11 96  1  0  0  0
 12 13  2  0  0  0
 12 97  1  0  0  0
 13 14  1  0  0  0
 13 31  1  0  0  0
 14 15  2  0  0  0
 14 98  1  0  0  0
 15 99  1  0  0  0
 16 17  2  0  0  0
 16 21  1  0  0  0
 16 31  1  0  0  0
 17 18  1  0  0  0
 17100  1  0  0  0
 18 19  2  0  0  0
 18101  1  0  0  0
 19 20  1  0  0  0
 19 24  1  0  0  0
 20 21  2  0  0  0
 20102  1  0  0  0
 21 23  1  0  0  0
 22 28  1  0  0  0
 22 32  2  0  0  0
 26 27  1  0  0  0
 28103  1  0  0  0
 28104  1  0  0  0
 29105  1  0  0  0
 29106  1  0  0  0
 33 34  1  0  0  0
 33 66  1  0  0  0
 33 70  2  0  0  0
 34 36  1  0  0  0
 34 59  1  0  0  0
 34107  1  0  0  0
 35 44  2  0  0  0
 35 45  1  0  0  0
 35 68  1  0  0  0
 36 56  1  0  0  0
 36108  1  0  0  0
 37 39  1  0  0  0
 37 47  1  0  0  0
 37 66  1  0  0  0
 37109  1  0  0  0
 38 43  2  0  0  0
 38 46  1  0  0  0
 38 47  1  0  0  0
 39 64  1  0  0  0
 39 67  2  0  0  0
 40 52  1  0  0  0
 40 53  2  0  0  0
 40 58  1  0  0  0
 41110  1  0  0  0
 41111  1  0  0  0
 41112  1  0  0  0
 41 48  1  0  0  0
 42 43  1  0  0  0
 42 66  1  0  0  0
 42113  1  0  0  0
 42114  1  0  0  0
 43 44  1  0  0  0
 44115  1  0  0  0
 45 46  2  0  0  0
 45116  1  0  0  0
 46117  1  0  0  0
 47118  1  0  0  0
 47119  1  0  0  0
 48 56  1  0  0  0
 48 65  1  0  0  0
 48120  1  0  0  0
 49 50  1  0  0  0
 49 53  1  0  0  0
 49 64  1  0  0  0
 49121  1  0  0  0
 50 51  1  0  0  0
 50122  1  0  0  0
 50123  1  0  0  0
 51 52  1  0  0  0
 51124  1  0  0  0
 51125  1  0  0  0
 52126  1  0  0  0
 52127  1  0  0  0
 53 54  1  0  0  0
 54 55  2  0  0  0
 54128  1  0  0  0
 55 57  1  0  0  0
 55129  1  0  0  0
 56 69  2  0  0  0
 57 58  2  0  0  0
 57130  1  0  0  0
 58131  1  0  0  0
 59 60  1  0  0  0
 59 61  1  0  0  0
 59 62  1  0  0  0
 60132  1  0  0  0
 60133  1  0  0  0
 60134  1  0  0  0
 61135  1  0  0  0
 61136  1  0  0  0
 61137  1  0  0  0
 62138  1  0  0  0
 62139  1  0  0  0
 62140  1  0  0  0
 63 65  1  0  0  0
 63141  1  0  0  0
 63142  1  0  0  0
 63143  1  0  0  0
 64144  1  0  0  0
 65145  1  0  0  0
 68 80  1  0  0  0
 71 73  2  0  0  0
 71 75  1  0  0  0
 71146  1  0  0  0
 72 74  2  0  0  0
 72 76  1  0  0  0
 72147  1  0  0  0
 73 74  1  0  0  0
 73 77  1  0  0  0
 74 83  1  0  0  0
 75 76  2  0  0  0
 75 85  1  0  0  0
 76 86  1  0  0  0
 77 82  2  0  0  0
 78 80  1  0  0  0
 78 81  1  0  0  0
 78 84  2  0  0  0
 79 85  1  0  0  0
 79148  1  0  0  0
 79149  1  0  0  0
 79150  1  0  0  0
 80151  1  0  0  0
 80152  1  0  0  0
 81 86  1  0  0  0
 81153  1  0  0  0
 81154  1  0  0  0
 82155  1  0  0  0
 83156  1  0  0  0
 83157  1  0  0  0
M  ISO  4   1 100  68 101  77 100  80 101
M  END
> <chiral flag>
0

> <version>
0

> <s_m_source_file>
/data/baiqing/PycharmProjects/Reinvent-master-3.2/result/LINK_invent/BTK/process_docking_weight1_custom_product_contain_oxygen_bond_distance_aromatic_linkinvent_7_9_3/rearranged_h_0106.sdf

> <i_m_source_file_index>
81

> <r_mmod_Potential_Energy-OPLS-2005>
291.891571044922

> <r_mmod_Stretch_Energy-OPLS-2005>
98.1435394287109

> <r_mmod_Bend_Energy-OPLS-2005>
171.354705810547

> <r_mmod_Torsional_Energy-OPLS-2005>
215.609085083008

> <r_mmod_Improper_Torsional_Energy-OPLS-2005>
5.01098346710205

> <r_mmod_Van_der_Waal_Energy-OPLS-2005>
162.964324951172

> <r_mmod_Electrostatic_Energy-OPLS-2005>
-166.369186401367

> <r_mmod_Solvation_Energy-OPLS-2005>
-238.709503173828

> <b_mmod_Minimization_Converged-OPLS-2005>
0

> <r_mmod_RMS_Derivative-OPLS-2005>
2.45392394065857

$$$$
81
                    3D
 Structure written by MMmdl.
154162  0  0  1  0            999 V2000
  -30.6716  -14.6314   20.5933 C   0  0  0  0  0  0
  -30.4343  -12.4151   19.4547 C   0  0  0  0  0  0
  -29.5068  -12.5283   18.2248 C   0  0  0  0  0  0
  -28.0312  -12.3529   18.6298 C   0  0  0  0  0  0
  -27.6531  -13.2155   19.8606 C   0  0  2  0  0  0
  -28.6902  -13.0607   20.9900 C   0  0  0  0  0  0
  -25.2586  -13.8179   20.5699 C   0  0  0  0  0  0
  -24.1841  -13.0442   20.9182 C   0  0  0  0  0  0
  -24.6402  -11.6910   20.8724 C   0  0  0  0  0  0
  -23.9071  -10.4291   21.0402 C   0  0  0  0  0  0
  -24.3623   -9.4205   21.9180 C   0  0  0  0  0  0
  -23.6298   -8.2240   22.0752 C   0  0  0  0  0  0
  -22.4279   -8.0282   21.3545 C   0  0  0  0  0  0
  -21.9916   -9.0254   20.4645 C   0  0  0  0  0  0
  -22.7242  -10.2134   20.3054 C   0  0  0  0  0  0
  -21.6850   -6.0740   22.5281 C   0  0  0  0  0  0
  -21.4009   -6.5644   23.8215 C   0  0  0  0  0  0
  -21.3662   -5.6796   24.9179 C   0  0  0  0  0  0
  -21.6045   -4.3058   24.7225 C   0  0  0  0  0  0
  -21.8817   -3.8152   23.4345 C   0  0  0  0  0  0
  -21.9192   -4.6970   22.3403 C   0  0  0  0  0  0
  -22.7863  -13.5232   21.1850 C   0  0  0  0  0  0
  -22.1660   -4.2158   21.0978 F   0  0  0  0  0  0
  -21.5636   -3.4541   25.7737 F   0  0  0  0  0  0
  -30.0139  -13.4269   20.4523 N   0  0  0  0  0  0
  -26.2988  -12.9343   20.3282 N   0  0  0  0  0  0
  -25.9324  -11.6499   20.5720 N   0  0  0  0  0  0
  -22.0510  -12.8216   22.0406 N   0  0  0  0  0  0
  -25.4356  -15.1903   20.4189 N   0  0  0  0  0  0
  -31.7535  -14.8189   20.0261 O   0  0  0  0  0  0
  -21.6638   -6.8883   21.4243 O   0  0  0  0  0  0
  -22.3538  -14.5536   20.6705 O   0  0  0  0  0  0
  -24.6269  -31.8598   23.2035 C   0  0  0  0  0  0
  -25.9114  -32.4782   23.8360 C   0  0  1  0  0  0
  -27.2219  -27.3090   20.1107 C   0  0  0  0  0  0
  -25.5928  -33.8584   24.2285 N   0  0  0  0  0  0
  -23.4206  -30.4843   21.5470 C   0  0  2  0  0  0
  -24.8667  -28.9421   20.1100 C   0  0  0  0  0  0
  -22.7477  -29.4623   22.4943 C   0  0  0  0  0  0
  -18.0284  -28.1385   22.8489 C   0  0  0  0  0  0
  -24.1488  -36.7292   23.2637 C   0  0  0  0  0  0
  -25.9640  -30.7859   21.3781 C   0  0  0  0  0  0
  -26.0373  -29.4137   20.7173 C   0  0  0  0  0  0
  -27.2170  -28.6086   20.7102 C   0  0  0  0  0  0
  -26.0274  -26.9011   19.4694 C   0  0  0  0  0  0
  -24.8647  -27.6914   19.4776 C   0  0  0  0  0  0
  -23.6351  -29.8225   20.1614 C   0  0  0  0  0  0
  -25.4115  -36.3088   24.0329 C   0  0  1  0  0  0
  -20.5886  -28.3689   23.1284 C   0  0  2  0  0  0
  -20.6777  -26.9414   22.5410 C   0  0  0  0  0  0
  -19.5752  -26.6386   21.5215 C   0  0  0  0  0  0
  -18.1930  -26.7929   22.1626 C   0  0  0  0  0  0
  -19.1537  -28.8854   23.2881 C   0  0  0  0  0  0
  -18.9461  -30.1460   23.8893 C   0  0  0  0  0  0
  -17.6460  -30.6589   24.0563 C   0  0  0  0  0  0
  -25.9053  -34.9455   23.5108 C   0  0  0  0  0  0
  -16.5352  -29.9085   23.6334 C   0  0  0  0  0  0
  -16.7273  -28.6502   23.0355 C   0  0  0  0  0  0
  -26.4494  -31.6591   25.0733 C   0  0  0  0  0  0
  -25.3726  -31.3730   26.1457 C   0  0  0  0  0  0
  -27.0340  -30.3014   24.6198 C   0  0  0  0  0  0
  -27.6052  -32.4326   25.7503 C   0  0  0  0  0  0
  -27.5582  -37.1802   24.8465 C   0  0  0  0  0  0
  -21.4190  -29.3043   22.3680 N   0  0  0  0  0  0
  -26.4295  -37.3784   23.9409 N   0  0  0  0  0  0
  -24.6895  -31.0598   22.0994 N   0  0  0  0  0  0
  -23.4197  -28.8161   23.3022 O   0  0  0  0  0  0
  -28.3273  -26.4388   20.1717 O   0  0  0  0  0  0
  -26.5620  -34.8922   22.4674 O   0  0  0  0  0  0
  -23.5431  -32.1401   23.7356 O   0  0  0  0  0  0
  -29.9643  -15.3215   22.6621 C   0  0  0  0  0  0
  -30.7129  -19.3689   21.7855 C   0  0  0  0  0  0
  -30.8105  -17.9559   21.9025 C   0  0  0  0  0  0
  -29.1781  -19.1199   19.9580 C   0  0  0  0  0  0
  -29.8836  -20.0036   20.8281 C   0  0  0  0  0  0
  -30.1036  -17.0649   21.0520 C   0  0  0  0  0  0
  -29.2881  -17.6864   20.0577 C   0  0  0  0  0  0
  -29.1149  -23.9346   20.4281 C   0  0  0  0  0  0
  -28.9040  -22.3846   20.1309 C   0  0  0  0  0  0
  -28.0765  -24.9978   19.8878 C   0  0  0  0  0  0
  -29.8440  -15.0934   23.7906 N   0  0  0  0  0  0
  -28.5351  -16.8859   19.1963 N   0  0  0  0  0  0
  -29.8432  -21.4428   20.8238 N   0  0  0  0  0  0
  -30.0976  -15.6240   21.3531 N   0  0  0  0  0  0
  -30.0910  -24.2938   21.0974 O   0  0  0  0  0  0
  -31.4748  -12.5365   19.1488 H   0  0  0  0  0  0
  -30.3745  -11.4154   19.8883 H   0  0  0  0  0  0
  -29.7794  -11.7824   17.4771 H   0  0  0  0  0  0
  -29.6439  -13.5012   17.7498 H   0  0  0  0  0  0
  -27.8703  -11.2977   18.8539 H   0  0  0  0  0  0
  -27.3782  -12.5876   17.7883 H   0  0  0  0  0  0
  -27.6741  -14.2533   19.5319 H   0  0  0  0  0  0
  -28.7091  -12.0324   21.3535 H   0  0  0  0  0  0
  -28.3797  -13.6618   21.8405 H   0  0  0  0  0  0
  -25.2769   -9.5680   22.4752 H   0  0  0  0  0  0
  -24.0008   -7.4632   22.7471 H   0  0  0  0  0  0
  -21.0847   -8.8769   19.8949 H   0  0  0  0  0  0
  -22.3697  -10.9675   19.6165 H   0  0  0  0  0  0
  -21.1993   -7.6151   23.9719 H   0  0  0  0  0  0
  -21.1493   -6.0528   25.9082 H   0  0  0  0  0  0
  -22.0595   -2.7615   23.2842 H   0  0  0  0  0  0
  -22.4136  -11.9871   22.4776 H   0  0  0  0  0  0
  -21.1127  -13.1232   22.2619 H   0  0  0  0  0  0
  -24.6866  -15.8571   20.5677 H   0  0  0  0  0  0
  -26.3041  -15.6310   20.1311 H   0  0  0  0  0  0
  -26.7179  -32.5448   23.1104 H   0  0  0  0  0  0
  -25.0079  -33.9732   25.0431 H   0  0  0  0  0  0
  -22.7145  -31.3053   21.4058 H   0  0  0  0  0  0
  -23.3754  -35.9621   23.3310 H   0  0  0  0  0  0
  -24.3574  -36.8901   22.2050 H   0  0  0  0  0  0
  -23.7238  -37.6495   23.6652 H   0  0  0  0  0  0
  -26.0986  -31.5510   20.6120 H   0  0  0  0  0  0
  -26.8429  -30.8320   22.0095 H   0  0  0  0  0  0
  -28.1127  -28.9651   21.1997 H   0  0  0  0  0  0
  -25.9547  -25.9526   18.9591 H   0  0  0  0  0  0
  -23.9694  -27.3271   18.9925 H   0  0  0  0  0  0
  -23.7535  -30.6008   19.4067 H   0  0  0  0  0  0
  -22.7545  -29.2531   19.8588 H   0  0  0  0  0  0
  -25.1293  -36.1945   25.0824 H   0  0  0  0  0  0
  -20.9974  -28.3265   24.1407 H   0  0  0  0  0  0
  -20.5686  -26.2299   23.3610 H   0  0  0  0  0  0
  -21.6643  -26.7451   22.1200 H   0  0  0  0  0  0
  -19.6914  -25.6296   21.1245 H   0  0  0  0  0  0
  -19.6688  -27.3196   20.6744 H   0  0  0  0  0  0
  -17.4200  -26.6678   21.4027 H   0  0  0  0  0  0
  -18.0329  -26.0072   22.9022 H   0  0  0  0  0  0
  -19.7937  -30.7281   24.2256 H   0  0  0  0  0  0
  -17.5015  -31.6270   24.5164 H   0  0  0  0  0  0
  -15.5353  -30.2986   23.7663 H   0  0  0  0  0  0
  -15.8673  -28.0825   22.7072 H   0  0  0  0  0  0
  -24.5900  -30.7082   25.7782 H   0  0  0  0  0  0
  -24.8921  -32.2899   26.4882 H   0  0  0  0  0  0
  -25.8049  -30.8904   27.0232 H   0  0  0  0  0  0
  -26.2922  -29.6764   24.1214 H   0  0  0  0  0  0
  -27.4022  -29.7271   25.4709 H   0  0  0  0  0  0
  -27.8798  -30.4297   23.9438 H   0  0  0  0  0  0
  -27.2661  -33.3626   26.2080 H   0  0  0  0  0  0
  -28.3862  -32.6888   25.0330 H   0  0  0  0  0  0
  -28.0720  -31.8453   26.5420 H   0  0  0  0  0  0
  -28.2600  -38.0101   24.7523 H   0  0  0  0  0  0
  -28.1081  -36.2634   24.6281 H   0  0  0  0  0  0
  -27.2301  -37.1439   25.8867 H   0  0  0  0  0  0
  -20.9369  -29.8763   21.6887 H   0  0  0  0  0  0
  -26.0178  -38.2859   24.1414 H   0  0  0  0  0  0
  -31.2811  -19.9713   22.4806 H   0  0  0  0  0  0
  -31.4352  -17.5594   22.6896 H   0  0  0  0  0  0
  -28.5305  -19.5466   19.2058 H   0  0  0  0  0  0
  -28.9902  -22.2381   19.0537 H   0  0  0  0  0  0
  -27.8789  -22.1262   20.3975 H   0  0  0  0  0  0
  -27.1198  -24.7106   20.3242 H   0  0  0  0  0  0
  -27.9890  -24.8629   18.8094 H   0  0  0  0  0  0
  -28.1534  -17.3285   18.3669 H   0  0  0  0  0  0
  -28.8814  -15.9564   19.0007 H   0  0  0  0  0  0
  -30.4588  -21.9255   21.4763 H   0  0  0  0  0  0
  1 25  1  0  0  0
  1 30  2  0  0  0
  1 84  1  0  0  0
  2  3  1  0  0  0
  2 25  1  0  0  0
  2 86  1  0  0  0
  2 87  1  0  0  0
  3  4  1  0  0  0
  3 88  1  0  0  0
  3 89  1  0  0  0
  4  5  1  0  0  0
  4 90  1  0  0  0
  4 91  1  0  0  0
  5  6  1  0  0  0
  5 26  1  0  0  0
  5 92  1  0  0  0
  6 25  1  0  0  0
  6 93  1  0  0  0
  6 94  1  0  0  0
  7  8  2  0  0  0
  7 26  1  0  0  0
  7 29  1  0  0  0
  8  9  1  0  0  0
  8 22  1  0  0  0
  9 10  1  0  0  0
  9 27  2  0  0  0
 10 11  2  0  0  0
 10 15  1  0  0  0
 11 12  1  0  0  0
 11 95  1  0  0  0
 12 13  2  0  0  0
 12 96  1  0  0  0
 13 14  1  0  0  0
 13 31  1  0  0  0
 14 15  2  0  0  0
 14 97  1  0  0  0
 15 98  1  0  0  0
 16 17  2  0  0  0
 16 21  1  0  0  0
 16 31  1  0  0  0
 17 18  1  0  0  0
 17 99  1  0  0  0
 18 19  2  0  0  0
 18100  1  0  0  0
 19 20  1  0  0  0
 19 24  1  0  0  0
 20 21  2  0  0  0
 20101  1  0  0  0
 21 23  1  0  0  0
 22 28  1  0  0  0
 22 32  2  0  0  0
 26 27  1  0  0  0
 28102  1  0  0  0
 28103  1  0  0  0
 29104  1  0  0  0
 29105  1  0  0  0
 33 34  1  0  0  0
 33 66  1  0  0  0
 33 70  2  0  0  0
 34 36  1  0  0  0
 34 59  1  0  0  0
 34106  1  0  0  0
 35 44  2  0  0  0
 35 45  1  0  0  0
 35 68  1  0  0  0
 36 56  1  0  0  0
 36107  1  0  0  0
 37 39  1  0  0  0
 37 47  1  0  0  0
 37 66  1  0  0  0
 37108  1  0  0  0
 38 43  2  0  0  0
 38 46  1  0  0  0
 38 47  1  0  0  0
 39 64  1  0  0  0
 39 67  2  0  0  0
 40 52  1  0  0  0
 40 53  2  0  0  0
 40 58  1  0  0  0
 41109  1  0  0  0
 41110  1  0  0  0
 41111  1  0  0  0
 41 48  1  0  0  0
 42 43  1  0  0  0
 42 66  1  0  0  0
 42112  1  0  0  0
 42113  1  0  0  0
 43 44  1  0  0  0
 44114  1  0  0  0
 45 46  2  0  0  0
 45115  1  0  0  0
 46116  1  0  0  0
 47117  1  0  0  0
 47118  1  0  0  0
 48 56  1  0  0  0
 48 65  1  0  0  0
 48119  1  0  0  0
 49 50  1  0  0  0
 49 53  1  0  0  0
 49 64  1  0  0  0
 49120  1  0  0  0
 50 51  1  0  0  0
 50121  1  0  0  0
 50122  1  0  0  0
 51 52  1  0  0  0
 51123  1  0  0  0
 51124  1  0  0  0
 52125  1  0  0  0
 52126  1  0  0  0
 53 54  1  0  0  0
 54 55  2  0  0  0
 54127  1  0  0  0
 55 57  1  0  0  0
 55128  1  0  0  0
 56 69  2  0  0  0
 57 58  2  0  0  0
 57129  1  0  0  0
 58130  1  0  0  0
 59 60  1  0  0  0
 59 61  1  0  0  0
 59 62  1  0  0  0
 60131  1  0  0  0
 60132  1  0  0  0
 60133  1  0  0  0
 61134  1  0  0  0
 61135  1  0  0  0
 61136  1  0  0  0
 62137  1  0  0  0
 62138  1  0  0  0
 62139  1  0  0  0
 63 65  1  0  0  0
 63140  1  0  0  0
 63141  1  0  0  0
 63142  1  0  0  0
 64143  1  0  0  0
 65144  1  0  0  0
 68 80  1  0  0  0
 71 81  3  0  0  0
 71 84  1  0  0  0
 72 73  2  0  0  0
 72 75  1  0  0  0
 72145  1  0  0  0
 73 76  1  0  0  0
 73146  1  0  0  0
 74 75  2  0  0  0
 74 77  1  0  0  0
 74147  1  0  0  0
 75 83  1  0  0  0
 76 77  2  0  0  0
 76 84  1  0  0  0
 77 82  1  0  0  0
 78 79  1  0  0  0
 78 80  1  0  0  0
 78 85  2  0  0  0
 79 83  1  0  0  0
 79148  1  0  0  0
 79149  1  0  0  0
 80150  1  0  0  0
 80151  1  0  0  0
 82152  1  0  0  0
 82153  1  0  0  0
 83154  1  0  0  0
M  ISO  4   1 100  68 101  80 101  84 100
M  END
> <chiral flag>
0

> <version>
0

> <s_m_source_file>
/data/baiqing/PycharmProjects/Reinvent-master-3.2/result/LINK_invent/BTK/process_docking_weight1_custom_product_contain_oxygen_bond_distance_aromatic_linkinvent_7_9_3/rearranged_h_0106.sdf

> <i_m_source_file_index>
82

> <r_mmod_Potential_Energy-OPLS-2005>
155.897033691406

> <r_mmod_Stretch_Energy-OPLS-2005>
88.153434753418

> <r_mmod_Bend_Energy-OPLS-2005>
164.477645874023

> <r_mmod_Torsional_Energy-OPLS-2005>
284.779602050781

> <r_mmod_Improper_Torsional_Energy-OPLS-2005>
8.15587139129639

> <r_mmod_Van_der_Waal_Energy-OPLS-2005>
143.332717895508

> <r_mmod_Electrostatic_Energy-OPLS-2005>
-353.698913574219

> <r_mmod_Solvation_Energy-OPLS-2005>
-228.599304199219

> <b_mmod_Minimization_Converged-OPLS-2005>
0

> <r_mmod_RMS_Derivative-OPLS-2005>
0.61153256893158

$$$$
82
                    3D
 Structure written by MMmdl.
162170  0  0  1  0            999 V2000
  -30.7717  -14.4722   20.6044 C   0  0  0  0  0  0
  -30.4033  -12.3254   19.4339 C   0  0  0  0  0  0
  -29.4877  -12.4996   18.2092 C   0  0  0  0  0  0
  -28.0132  -12.3566   18.6265 C   0  0  0  0  0  0
  -27.6527  -13.2214   19.8647 C   0  0  2  0  0  0
  -28.6963  -13.0617   20.9936 C   0  0  0  0  0  0
  -25.2542  -13.8186   20.5692 C   0  0  0  0  0  0
  -24.1816  -13.0443   20.9198 C   0  0  0  0  0  0
  -24.6392  -11.6914   20.8746 C   0  0  0  0  0  0
  -23.9068  -10.4294   21.0412 C   0  0  0  0  0  0
  -24.3620   -9.4208   21.9187 C   0  0  0  0  0  0
  -23.6292   -8.2241   22.0751 C   0  0  0  0  0  0
  -22.4270   -8.0282   21.3547 C   0  0  0  0  0  0
  -21.9914   -9.0255   20.4645 C   0  0  0  0  0  0
  -22.7244  -10.2135   20.3056 C   0  0  0  0  0  0
  -21.6857   -6.0736   22.5279 C   0  0  0  0  0  0
  -21.4011   -6.5638   23.8214 C   0  0  0  0  0  0
  -21.3658   -5.6790   24.9176 C   0  0  0  0  0  0
  -21.6048   -4.3052   24.7226 C   0  0  0  0  0  0
  -21.8816   -3.8145   23.4346 C   0  0  0  0  0  0
  -21.9193   -4.6964   22.3404 C   0  0  0  0  0  0
  -22.7836  -13.5232   21.1856 C   0  0  0  0  0  0
  -22.1663   -4.2148   21.0982 F   0  0  0  0  0  0
  -21.5631   -3.4535   25.7741 F   0  0  0  0  0  0
  -30.0200  -13.3476   20.4248 N   0  0  0  0  0  0
  -26.2979  -12.9385   20.3331 N   0  0  0  0  0  0
  -25.9321  -11.6532   20.5767 N   0  0  0  0  0  0
  -22.0479  -12.8221   22.0411 N   0  0  0  0  0  0
  -25.4252  -15.1909   20.4106 N   0  0  0  0  0  0
  -31.8951  -14.5592   20.1003 O   0  0  0  0  0  0
  -21.6637   -6.8877   21.4239 O   0  0  0  0  0  0
  -22.3524  -14.5547   20.6717 O   0  0  0  0  0  0
  -24.6211  -31.8676   23.2122 C   0  0  0  0  0  0
  -25.9094  -32.4811   23.8422 C   0  0  1  0  0  0
  -27.2083  -27.3842   20.1018 C   0  0  0  0  0  0
  -25.5970  -33.8625   24.2344 N   0  0  0  0  0  0
  -23.4083  -30.4992   21.5527 C   0  0  2  0  0  0
  -24.8469  -28.9751   20.1062 C   0  0  0  0  0  0
  -22.7441  -29.4681   22.4959 C   0  0  0  0  0  0
  -18.0298  -28.1374   22.8495 C   0  0  0  0  0  0
  -24.1511  -36.7309   23.2629 C   0  0  0  0  0  0
  -25.9460  -30.8189   21.3755 C   0  0  0  0  0  0
  -26.0135  -29.4565   20.7120 C   0  0  0  0  0  0
  -27.1953  -28.6698   20.7056 C   0  0  0  0  0  0
  -26.0210  -26.9585   19.4586 C   0  0  0  0  0  0
  -24.8488  -27.7271   19.4740 C   0  0  0  0  0  0
  -23.6142  -29.8466   20.1626 C   0  0  0  0  0  0
  -25.4128  -36.3102   24.0323 C   0  0  1  0  0  0
  -20.5894  -28.3676   23.1291 C   0  0  2  0  0  0
  -20.6800  -26.9411   22.5401 C   0  0  0  0  0  0
  -19.5766  -26.6383   21.5223 C   0  0  0  0  0  0
  -18.1943  -26.7928   22.1622 C   0  0  0  0  0  0
  -19.1549  -28.8845   23.2890 C   0  0  0  0  0  0
  -18.9462  -30.1452   23.8901 C   0  0  0  0  0  0
  -17.6459  -30.6575   24.0575 C   0  0  0  0  0  0
  -25.9055  -34.9468   23.5112 C   0  0  0  0  0  0
  -16.5356  -29.9068   23.6328 C   0  0  0  0  0  0
  -16.7287  -28.6485   23.0358 C   0  0  0  0  0  0
  -26.4500  -31.6582   25.0749 C   0  0  0  0  0  0
  -25.3741  -31.3703   26.1468 C   0  0  0  0  0  0
  -27.0319  -30.3012   24.6140 C   0  0  0  0  0  0
  -27.6083  -32.4295   25.7493 C   0  0  0  0  0  0
  -27.5593  -37.1798   24.8456 C   0  0  0  0  0  0
  -21.4167  -29.3050   22.3694 N   0  0  0  0  0  0
  -26.4310  -37.3781   23.9394 N   0  0  0  0  0  0
  -24.6768  -31.0763   22.1036 N   0  0  0  0  0  0
  -23.4201  -28.8211   23.3000 O   0  0  0  0  0  0
  -28.3577  -26.5952   20.1790 O   0  0  0  0  0  0
  -26.5581  -34.8918   22.4654 O   0  0  0  0  0  0
  -23.5393  -32.1461   23.7490 O   0  0  0  0  0  0
  -30.0676  -20.1747   22.8990 C   0  0  0  0  0  0
  -29.5922  -19.9952   20.5376 C   0  0  0  0  0  0
  -30.2993  -17.9809   21.7871 C   0  0  0  0  0  0
  -29.7222  -20.8103   21.6854 C   0  0  0  0  0  0
  -30.3643  -18.7892   22.9666 C   0  0  0  0  0  0
  -29.8632  -18.6047   20.5875 C   0  0  0  0  0  0
  -30.9012  -16.5831   21.7299 C   0  0  0  0  0  0
  -27.1777  -24.4723   20.8524 C   0  0  0  0  0  0
  -28.3008  -24.7983   18.5209 C   0  0  0  0  0  0
  -29.6476  -24.5662   20.6408 C   0  0  0  0  0  0
  -29.9081  -23.0201   20.5132 C   0  0  0  0  0  0
  -28.3207  -25.1367   20.0341 C   0  0  0  0  0  0
  -30.7289  -18.2817   24.2241 N   0  0  0  0  0  0
  -29.5151  -22.2114   21.6798 N   0  0  0  0  0  0
  -30.1993  -15.5356   21.2211 N   0  0  0  0  0  0
  -32.0518  -16.4495   22.1716 O   0  0  0  0  0  0
  -29.7531  -17.8841   19.4438 F   0  0  0  0  0  0
  -31.4501  -12.3866   19.1306 H   0  0  0  0  0  0
  -30.2837  -11.3297   19.8648 H   0  0  0  0  0  0
  -29.7347  -11.7594   17.4468 H   0  0  0  0  0  0
  -29.6529  -13.4779   17.7557 H   0  0  0  0  0  0
  -27.8361  -11.3036   18.8470 H   0  0  0  0  0  0
  -27.3587  -12.6037   17.7901 H   0  0  0  0  0  0
  -27.6786  -14.2605   19.5352 H   0  0  0  0  0  0
  -28.6779  -12.0440   21.3875 H   0  0  0  0  0  0
  -28.4574  -13.7129   21.8354 H   0  0  0  0  0  0
  -25.2764   -9.5684   22.4765 H   0  0  0  0  0  0
  -24.0003   -7.4634   22.7471 H   0  0  0  0  0  0
  -21.0845   -8.8776   19.8953 H   0  0  0  0  0  0
  -22.3705  -10.9673   19.6161 H   0  0  0  0  0  0
  -21.1998   -7.6145   23.9717 H   0  0  0  0  0  0
  -21.1485   -6.0519   25.9080 H   0  0  0  0  0  0
  -22.0600   -2.7606   23.2848 H   0  0  0  0  0  0
  -22.4083  -11.9872   22.4789 H   0  0  0  0  0  0
  -21.1099  -13.1256   22.2617 H   0  0  0  0  0  0
  -24.6578  -15.8459   20.5146 H   0  0  0  0  0  0
  -26.2733  -15.6288   20.0730 H   0  0  0  0  0  0
  -26.7171  -32.5473   23.1193 H   0  0  0  0  0  0
  -25.0222  -33.9814   25.0556 H   0  0  0  0  0  0
  -22.7002  -31.3205   21.4224 H   0  0  0  0  0  0
  -23.3772  -35.9642   23.3288 H   0  0  0  0  0  0
  -24.3634  -36.8923   22.2046 H   0  0  0  0  0  0
  -23.7252  -37.6512   23.6645 H   0  0  0  0  0  0
  -26.0772  -31.5887   20.6139 H   0  0  0  0  0  0
  -26.8297  -30.8564   22.0021 H   0  0  0  0  0  0
  -28.0890  -29.0305   21.1947 H   0  0  0  0  0  0
  -25.9381  -26.0158   18.9473 H   0  0  0  0  0  0
  -23.9548  -27.3521   18.9936 H   0  0  0  0  0  0
  -23.7265  -30.6287   19.4104 H   0  0  0  0  0  0
  -22.7347  -29.2744   19.8618 H   0  0  0  0  0  0
  -25.1309  -36.1973   25.0814 H   0  0  0  0  0  0
  -21.0005  -28.3251   24.1409 H   0  0  0  0  0  0
  -20.5730  -26.2303   23.3600 H   0  0  0  0  0  0
  -21.6657  -26.7463   22.1173 H   0  0  0  0  0  0
  -19.6915  -25.6298   21.1247 H   0  0  0  0  0  0
  -19.6686  -27.3198   20.6756 H   0  0  0  0  0  0
  -17.4221  -26.6720   21.4011 H   0  0  0  0  0  0
  -18.0305  -26.0068   22.9004 H   0  0  0  0  0  0
  -19.7939  -30.7275   24.2273 H   0  0  0  0  0  0
  -17.5005  -31.6256   24.5165 H   0  0  0  0  0  0
  -15.5351  -30.2964   23.7636 H   0  0  0  0  0  0
  -15.8702  -28.0785   22.7082 H   0  0  0  0  0  0
  -24.5953  -30.7022   25.7776 H   0  0  0  0  0  0
  -24.8904  -32.2869   26.4847 H   0  0  0  0  0  0
  -25.8061  -30.8903   27.0256 H   0  0  0  0  0  0
  -26.2866  -29.6785   24.1177 H   0  0  0  0  0  0
  -27.4074  -29.7225   25.4589 H   0  0  0  0  0  0
  -27.8723  -30.4332   23.9323 H   0  0  0  0  0  0
  -27.2729  -33.3609   26.2067 H   0  0  0  0  0  0
  -28.3869  -32.6816   25.0283 H   0  0  0  0  0  0
  -28.0782  -31.8423   26.5394 H   0  0  0  0  0  0
  -28.2564  -38.0133   24.7533 H   0  0  0  0  0  0
  -28.1128  -36.2658   24.6246 H   0  0  0  0  0  0
  -27.2323  -37.1395   25.8860 H   0  0  0  0  0  0
  -20.9329  -29.8793   21.6936 H   0  0  0  0  0  0
  -26.0197  -38.2855   24.1408 H   0  0  0  0  0  0
  -30.1463  -20.7730   23.7967 H   0  0  0  0  0  0
  -29.2991  -20.4227   19.5906 H   0  0  0  0  0  0
  -27.2583  -23.3866   20.8241 H   0  0  0  0  0  0
  -26.1665  -24.6730   20.5151 H   0  0  0  0  0  0
  -27.2330  -24.7687   21.9004 H   0  0  0  0  0  0
  -28.0940  -23.7448   18.3419 H   0  0  0  0  0  0
  -29.2653  -25.0196   18.0623 H   0  0  0  0  0  0
  -27.5708  -25.3545   17.9420 H   0  0  0  0  0  0
  -30.4692  -25.0693   20.1281 H   0  0  0  0  0  0
  -29.7473  -24.8797   21.6814 H   0  0  0  0  0  0
  -30.9799  -22.8696   20.3700 H   0  0  0  0  0  0
  -29.4345  -22.6302   19.6156 H   0  0  0  0  0  0
  -30.9832  -18.9325   24.9618 H   0  0  0  0  0  0
  -31.2676  -17.4201   24.2690 H   0  0  0  0  0  0
  -29.6162  -22.6718   22.5807 H   0  0  0  0  0  0
  -29.1950  -15.5833   21.2421 H   0  0  0  0  0  0
  1 25  1  0  0  0
  1 30  2  0  0  0
  1 85  1  0  0  0
  2  3  1  0  0  0
  2 25  1  0  0  0
  2 88  1  0  0  0
  2 89  1  0  0  0
  3  4  1  0  0  0
  3 90  1  0  0  0
  3 91  1  0  0  0
  4  5  1  0  0  0
  4 92  1  0  0  0
  4 93  1  0  0  0
  5  6  1  0  0  0
  5 26  1  0  0  0
  5 94  1  0  0  0
  6 25  1  0  0  0
  6 95  1  0  0  0
  6 96  1  0  0  0
  7  8  2  0  0  0
  7 26  1  0  0  0
  7 29  1  0  0  0
  8  9  1  0  0  0
  8 22  1  0  0  0
  9 10  1  0  0  0
  9 27  2  0  0  0
 10 11  2  0  0  0
 10 15  1  0  0  0
 11 12  1  0  0  0
 11 97  1  0  0  0
 12 13  2  0  0  0
 12 98  1  0  0  0
 13 14  1  0  0  0
 13 31  1  0  0  0
 14 15  2  0  0  0
 14 99  1  0  0  0
 15100  1  0  0  0
 16 17  2  0  0  0
 16 21  1  0  0  0
 16 31  1  0  0  0
 17 18  1  0  0  0
 17101  1  0  0  0
 18 19  2  0  0  0
 18102  1  0  0  0
 19 20  1  0  0  0
 19 24  1  0  0  0
 20 21  2  0  0  0
 20103  1  0  0  0
 21 23  1  0  0  0
 22 28  1  0  0  0
 22 32  2  0  0  0
 26 27  1  0  0  0
 28104  1  0  0  0
 28105  1  0  0  0
 29106  1  0  0  0
 29107  1  0  0  0
 33 34  1  0  0  0
 33 66  1  0  0  0
 33 70  2  0  0  0
 34 36  1  0  0  0
 34 59  1  0  0  0
 34108  1  0  0  0
 35 44  2  0  0  0
 35 45  1  0  0  0
 35 68  1  0  0  0
 36 56  1  0  0  0
 36109  1  0  0  0
 37 39  1  0  0  0
 37 47  1  0  0  0
 37 66  1  0  0  0
 37110  1  0  0  0
 38 43  2  0  0  0
 38 46  1  0  0  0
 38 47  1  0  0  0
 39 64  1  0  0  0
 39 67  2  0  0  0
 40 52  1  0  0  0
 40 53  2  0  0  0
 40 58  1  0  0  0
 41111  1  0  0  0
 41112  1  0  0  0
 41113  1  0  0  0
 41 48  1  0  0  0
 42 43  1  0  0  0
 42 66  1  0  0  0
 42114  1  0  0  0
 42115  1  0  0  0
 43 44  1  0  0  0
 44116  1  0  0  0
 45 46  2  0  0  0
 45117  1  0  0  0
 46118  1  0  0  0
 47119  1  0  0  0
 47120  1  0  0  0
 48 56  1  0  0  0
 48 65  1  0  0  0
 48121  1  0  0  0
 49 50  1  0  0  0
 49 53  1  0  0  0
 49 64  1  0  0  0
 49122  1  0  0  0
 50 51  1  0  0  0
 50123  1  0  0  0
 50124  1  0  0  0
 51 52  1  0  0  0
 51125  1  0  0  0
 51126  1  0  0  0
 52127  1  0  0  0
 52128  1  0  0  0
 53 54  1  0  0  0
 54 55  2  0  0  0
 54129  1  0  0  0
 55 57  1  0  0  0
 55130  1  0  0  0
 56 69  2  0  0  0
 57 58  2  0  0  0
 57131  1  0  0  0
 58132  1  0  0  0
 59 60  1  0  0  0
 59 61  1  0  0  0
 59 62  1  0  0  0
 60133  1  0  0  0
 60134  1  0  0  0
 60135  1  0  0  0
 61136  1  0  0  0
 61137  1  0  0  0
 61138  1  0  0  0
 62139  1  0  0  0
 62140  1  0  0  0
 62141  1  0  0  0
 63 65  1  0  0  0
 63142  1  0  0  0
 63143  1  0  0  0
 63144  1  0  0  0
 64145  1  0  0  0
 65146  1  0  0  0
 68 82  1  0  0  0
 71 74  2  0  0  0
 71 75  1  0  0  0
 71147  1  0  0  0
 72 74  1  0  0  0
 72 76  2  0  0  0
 72148  1  0  0  0
 73 75  2  0  0  0
 73 76  1  0  0  0
 73 77  1  0  0  0
 74 84  1  0  0  0
 75 83  1  0  0  0
 76 87  1  0  0  0
 77 85  1  0  0  0
 77 86  2  0  0  0
 78149  1  0  0  0
 78150  1  0  0  0
 78151  1  0  0  0
 78 82  1  0  0  0
 79 82  1  0  0  0
 79152  1  0  0  0
 79153  1  0  0  0
 79154  1  0  0  0
 80 81  1  0  0  0
 80 82  1  0  0  0
 80155  1  0  0  0
 80156  1  0  0  0
 81 84  1  0  0  0
 81157  1  0  0  0
 81158  1  0  0  0
 83159  1  0  0  0
 83160  1  0  0  0
 84161  1  0  0  0
 85162  1  0  0  0
M  ISO  4   1 100  68 101  82 101  85 100
M  END
> <chiral flag>
0

> <version>
0

> <s_m_source_file>
/data/baiqing/PycharmProjects/Reinvent-master-3.2/result/LINK_invent/BTK/process_docking_weight1_custom_product_contain_oxygen_bond_distance_aromatic_linkinvent_7_9_3/rearranged_h_0106.sdf

> <i_m_source_file_index>
83

> <r_mmod_Potential_Energy-OPLS-2005>
199.631408691406

> <r_mmod_Stretch_Energy-OPLS-2005>
53.2838363647461

> <r_mmod_Bend_Energy-OPLS-2005>
136.332046508789

> <r_mmod_Torsional_Energy-OPLS-2005>
259.371276855469

> <r_mmod_Improper_Torsional_Energy-OPLS-2005>
9.88083744049072

> <r_mmod_Van_der_Waal_Energy-OPLS-2005>
178.195495605469

> <r_mmod_Electrostatic_Energy-OPLS-2005>
-240.187423706055

> <r_mmod_Solvation_Energy-OPLS-2005>
-221.628646850586

> <b_mmod_Minimization_Converged-OPLS-2005>
0

> <r_mmod_RMS_Derivative-OPLS-2005>
2.02686858177185

$$$$
83
                    3D
 Structure written by MMmdl.
158167  0  0  1  0            999 V2000
  -30.6807  -14.5666   20.5929 C   0  0  0  0  0  0
  -30.4390  -12.3725   19.4455 C   0  0  0  0  0  0
  -29.5058  -12.5283   18.2245 C   0  0  0  0  0  0
  -28.0297  -12.3616   18.6352 C   0  0  0  0  0  0
  -27.6608  -13.2154   19.8759 C   0  0  2  0  0  0
  -28.7039  -13.0302   21.0045 C   0  0  0  0  0  0
  -25.2465  -13.8108   20.5539 C   0  0  0  0  0  0
  -24.1797  -13.0381   20.9201 C   0  0  0  0  0  0
  -24.6409  -11.6876   20.8782 C   0  0  0  0  0  0
  -23.9074  -10.4271   21.0433 C   0  0  0  0  0  0
  -24.3621   -9.4186   21.9206 C   0  0  0  0  0  0
  -23.6296   -8.2223   22.0757 C   0  0  0  0  0  0
  -22.4278   -8.0265   21.3546 C   0  0  0  0  0  0
  -21.9915   -9.0243   20.4646 C   0  0  0  0  0  0
  -22.7247  -10.2124   20.3076 C   0  0  0  0  0  0
  -21.6846   -6.0735   22.5286 C   0  0  0  0  0  0
  -21.4010   -6.5638   23.8218 C   0  0  0  0  0  0
  -21.3661   -5.6790   24.9180 C   0  0  0  0  0  0
  -21.6049   -4.3057   24.7227 C   0  0  0  0  0  0
  -21.8820   -3.8148   23.4349 C   0  0  0  0  0  0
  -21.9190   -4.6965   22.3407 C   0  0  0  0  0  0
  -22.7818  -13.5176   21.1861 C   0  0  0  0  0  0
  -22.1660   -4.2152   21.0983 F   0  0  0  0  0  0
  -21.5633   -3.4538   25.7744 F   0  0  0  0  0  0
  -30.0390  -13.3614   20.4666 N   0  0  0  0  0  0
  -26.3000  -12.9347   20.3353 N   0  0  0  0  0  0
  -25.9347  -11.6502   20.5829 N   0  0  0  0  0  0
  -22.0463  -12.8191   22.0440 N   0  0  0  0  0  0
  -25.3895  -15.1784   20.3604 N   0  0  0  0  0  0
  -31.7585  -14.7987   20.0374 O   0  0  0  0  0  0
  -21.6632   -6.8870   21.4243 O   0  0  0  0  0  0
  -22.3501  -14.5476   20.6695 O   0  0  0  0  0  0
  -24.6200  -31.8635   23.2058 C   0  0  0  0  0  0
  -25.9064  -32.4808   23.8371 C   0  0  1  0  0  0
  -27.2397  -27.3734   20.1178 C   0  0  0  0  0  0
  -25.5893  -33.8609   24.2296 N   0  0  0  0  0  0
  -23.4127  -30.4843   21.5473 C   0  0  2  0  0  0
  -24.8631  -28.9438   20.1165 C   0  0  0  0  0  0
  -22.7446  -29.4630   22.4970 C   0  0  0  0  0  0
  -18.0274  -28.1384   22.8489 C   0  0  0  0  0  0
  -24.1487  -36.7310   23.2637 C   0  0  0  0  0  0
  -25.9479  -30.8118   21.3691 C   0  0  0  0  0  0
  -26.0270  -29.4422   20.7151 C   0  0  0  0  0  0
  -27.2190  -28.6682   20.7048 C   0  0  0  0  0  0
  -26.0559  -26.9124   19.4979 C   0  0  0  0  0  0
  -24.8762  -27.6818   19.5002 C   0  0  0  0  0  0
  -23.6258  -29.8150   20.1637 C   0  0  0  0  0  0
  -25.4112  -36.3105   24.0329 C   0  0  1  0  0  0
  -20.5870  -28.3672   23.1307 C   0  0  2  0  0  0
  -20.6764  -26.9401   22.5416 C   0  0  0  0  0  0
  -19.5745  -26.6385   21.5213 C   0  0  0  0  0  0
  -18.1922  -26.7929   22.1622 C   0  0  0  0  0  0
  -19.1524  -28.8846   23.2893 C   0  0  0  0  0  0
  -18.9451  -30.1452   23.8903 C   0  0  0  0  0  0
  -17.6452  -30.6587   24.0564 C   0  0  0  0  0  0
  -25.9041  -34.9472   23.5115 C   0  0  0  0  0  0
  -16.5344  -29.9088   23.6330 C   0  0  0  0  0  0
  -16.7261  -28.6508   23.0347 C   0  0  0  0  0  0
  -26.4463  -31.6611   25.0727 C   0  0  0  0  0  0
  -25.3712  -31.3740   26.1465 C   0  0  0  0  0  0
  -27.0294  -30.3038   24.6156 C   0  0  0  0  0  0
  -27.6032  -32.4337   25.7489 C   0  0  0  0  0  0
  -27.5584  -37.1805   24.8458 C   0  0  0  0  0  0
  -21.4166  -29.3030   22.3712 N   0  0  0  0  0  0
  -26.4293  -37.3793   23.9405 N   0  0  0  0  0  0
  -24.6783  -31.0685   22.0988 N   0  0  0  0  0  0
  -23.4189  -28.8168   23.3030 O   0  0  0  0  0  0
  -28.3880  -26.5841   20.1282 O   0  0  0  0  0  0
  -26.5617  -34.8930   22.4684 O   0  0  0  0  0  0
  -23.5372  -32.1404   23.7412 O   0  0  0  0  0  0
  -27.6386  -18.2267   20.6905 C   0  0  0  0  0  0
  -28.4306  -19.3844   20.6105 C   0  0  0  0  0  0
  -28.2318  -16.9736   20.9248 C   0  0  0  0  0  0
  -30.4265  -18.0087   20.9606 C   0  0  0  0  0  0
  -29.8288  -19.3050   20.7700 C   0  0  0  0  0  0
  -29.6262  -16.8218   21.0329 C   0  0  0  0  0  0
  -29.5306  -22.9067   21.0897 C   0  0  0  0  0  0
  -29.7128  -23.7844   18.8882 C   0  0  0  0  0  0
  -30.3770  -22.3953   19.0048 C   0  0  0  0  0  0
  -29.4876  -24.2605   20.3292 C   0  0  1  0  0  0
  -30.6607  -20.6151   20.8187 C   0  0  0  0  0  0
  -28.2349  -25.1885   20.5454 C   0  0  0  0  0  0
  -30.0634  -21.9066   20.3444 N   0  0  0  0  0  0
  -30.0714  -15.4887   21.3792 N   0  0  0  0  0  0
  -29.1856  -22.7992   22.2691 O   0  0  0  0  0  0
  -31.4806  -12.4917   19.1414 H   0  0  0  0  0  0
  -30.3674  -11.3648   19.8565 H   0  0  0  0  0  0
  -29.7650  -11.8000   17.4547 H   0  0  0  0  0  0
  -29.6523  -13.5122   17.7757 H   0  0  0  0  0  0
  -27.8625  -11.3052   18.8508 H   0  0  0  0  0  0
  -27.3743  -12.6081   17.7986 H   0  0  0  0  0  0
  -27.6928  -14.2580   19.5588 H   0  0  0  0  0  0
  -28.6980  -11.9975   21.3567 H   0  0  0  0  0  0
  -28.4347  -13.6307   21.8739 H   0  0  0  0  0  0
  -25.2762   -9.5659   22.4780 H   0  0  0  0  0  0
  -24.0011   -7.4602   22.7463 H   0  0  0  0  0  0
  -21.0854   -8.8753   19.8938 H   0  0  0  0  0  0
  -22.3706  -10.9661   19.6182 H   0  0  0  0  0  0
  -21.1996   -7.6147   23.9724 H   0  0  0  0  0  0
  -21.1485   -6.0521   25.9084 H   0  0  0  0  0  0
  -22.0598   -2.7612   23.2850 H   0  0  0  0  0  0
  -22.4082  -11.9865   22.4853 H   0  0  0  0  0  0
  -21.1077  -13.1216   22.2630 H   0  0  0  0  0  0
  -24.5837  -15.7934   20.3982 H   0  0  0  0  0  0
  -26.1802  -15.5933   19.8854 H   0  0  0  0  0  0
  -26.7139  -32.5500   23.1132 H   0  0  0  0  0  0
  -25.0013  -33.9768   25.0418 H   0  0  0  0  0  0
  -22.7035  -31.3022   21.4036 H   0  0  0  0  0  0
  -23.3755  -35.9636   23.3300 H   0  0  0  0  0  0
  -24.3574  -36.8934   22.2051 H   0  0  0  0  0  0
  -23.7241  -37.6512   23.6659 H   0  0  0  0  0  0
  -26.0705  -31.5776   20.6020 H   0  0  0  0  0  0
  -26.8307  -30.8619   21.9947 H   0  0  0  0  0  0
  -28.1171  -29.0505   21.1698 H   0  0  0  0  0  0
  -26.0306  -25.9556   18.9978 H   0  0  0  0  0  0
  -23.9849  -27.2965   19.0245 H   0  0  0  0  0  0
  -23.7363  -30.5890   19.4033 H   0  0  0  0  0  0
  -22.7495  -29.2355   19.8672 H   0  0  0  0  0  0
  -25.1295  -36.1960   25.0822 H   0  0  0  0  0  0
  -20.9952  -28.3238   24.1432 H   0  0  0  0  0  0
  -20.5665  -26.2275   23.3607 H   0  0  0  0  0  0
  -21.6636  -26.7435   22.1208 H   0  0  0  0  0  0
  -19.6905  -25.6296   21.1243 H   0  0  0  0  0  0
  -19.6698  -27.3199   20.6749 H   0  0  0  0  0  0
  -17.4191  -26.6675   21.4026 H   0  0  0  0  0  0
  -18.0321  -26.0073   22.9021 H   0  0  0  0  0  0
  -19.7923  -30.7268   24.2276 H   0  0  0  0  0  0
  -17.5004  -31.6270   24.5161 H   0  0  0  0  0  0
  -15.5345  -30.2992   23.7654 H   0  0  0  0  0  0
  -15.8661  -28.0836   22.7052 H   0  0  0  0  0  0
  -24.5859  -30.7124   25.7789 H   0  0  0  0  0  0
  -24.8930  -32.2906   26.4928 H   0  0  0  0  0  0
  -25.8037  -30.8877   27.0219 H   0  0  0  0  0  0
  -26.2859  -29.6816   24.1159 H   0  0  0  0  0  0
  -27.3974  -29.7269   25.4653 H   0  0  0  0  0  0
  -27.8736  -30.4329   23.9378 H   0  0  0  0  0  0
  -27.2639  -33.3612   26.2110 H   0  0  0  0  0  0
  -28.3811  -32.6947   25.0305 H   0  0  0  0  0  0
  -28.0737  -31.8445   26.5370 H   0  0  0  0  0  0
  -28.2596  -38.0108   24.7517 H   0  0  0  0  0  0
  -28.1087  -36.2642   24.6267 H   0  0  0  0  0  0
  -27.2301  -37.1437   25.8859 H   0  0  0  0  0  0
  -20.9338  -29.8754   21.6934 H   0  0  0  0  0  0
  -26.0185  -38.2867   24.1423 H   0  0  0  0  0  0
  -26.5634  -18.3044   20.6109 H   0  0  0  0  0  0
  -27.9448  -20.3397   20.4700 H   0  0  0  0  0  0
  -27.5983  -16.1138   21.0556 H   0  0  0  0  0  0
  -31.4959  -17.9353   21.1041 H   0  0  0  0  0  0
  -28.7571  -23.6929   18.3698 H   0  0  0  0  0  0
  -30.3257  -24.4830   18.3171 H   0  0  0  0  0  0
  -31.4596  -22.4834   18.8998 H   0  0  0  0  0  0
  -30.0215  -21.7100   18.2349 H   0  0  0  0  0  0
  -30.3697  -24.8058   20.6671 H   0  0  0  0  0  0
  -31.5822  -20.4426   20.2616 H   0  0  0  0  0  0
  -30.9787  -20.7519   21.8537 H   0  0  0  0  0  0
  -27.9937  -25.2072   21.6093 H   0  0  0  0  0  0
  -27.3843  -24.7089   20.0648 H   0  0  0  0  0  0
  -29.3860  -15.0093   21.9428 H   0  0  0  0  0  0
  1 25  1  0  0  0
  1 30  2  0  0  0
  1 84  1  0  0  0
  2  3  1  0  0  0
  2 25  1  0  0  0
  2 86  1  0  0  0
  2 87  1  0  0  0
  3  4  1  0  0  0
  3 88  1  0  0  0
  3 89  1  0  0  0
  4  5  1  0  0  0
  4 90  1  0  0  0
  4 91  1  0  0  0
  5  6  1  0  0  0
  5 26  1  0  0  0
  5 92  1  0  0  0
  6 25  1  0  0  0
  6 93  1  0  0  0
  6 94  1  0  0  0
  7  8  2  0  0  0
  7 26  1  0  0  0
  7 29  1  0  0  0
  8  9  1  0  0  0
  8 22  1  0  0  0
  9 10  1  0  0  0
  9 27  2  0  0  0
 10 11  2  0  0  0
 10 15  1  0  0  0
 11 12  1  0  0  0
 11 95  1  0  0  0
 12 13  2  0  0  0
 12 96  1  0  0  0
 13 14  1  0  0  0
 13 31  1  0  0  0
 14 15  2  0  0  0
 14 97  1  0  0  0
 15 98  1  0  0  0
 16 17  2  0  0  0
 16 21  1  0  0  0
 16 31  1  0  0  0
 17 18  1  0  0  0
 17 99  1  0  0  0
 18 19  2  0  0  0
 18100  1  0  0  0
 19 20  1  0  0  0
 19 24  1  0  0  0
 20 21  2  0  0  0
 20101  1  0  0  0
 21 23  1  0  0  0
 22 28  1  0  0  0
 22 32  2  0  0  0
 26 27  1  0  0  0
 28102  1  0  0  0
 28103  1  0  0  0
 29104  1  0  0  0
 29105  1  0  0  0
 33 34  1  0  0  0
 33 66  1  0  0  0
 33 70  2  0  0  0
 34 36  1  0  0  0
 34 59  1  0  0  0
 34106  1  0  0  0
 35 44  2  0  0  0
 35 45  1  0  0  0
 35 68  1  0  0  0
 36 56  1  0  0  0
 36107  1  0  0  0
 37 39  1  0  0  0
 37 47  1  0  0  0
 37 66  1  0  0  0
 37108  1  0  0  0
 38 43  2  0  0  0
 38 46  1  0  0  0
 38 47  1  0  0  0
 39 64  1  0  0  0
 39 67  2  0  0  0
 40 52  1  0  0  0
 40 53  2  0  0  0
 40 58  1  0  0  0
 41109  1  0  0  0
 41110  1  0  0  0
 41111  1  0  0  0
 41 48  1  0  0  0
 42 43  1  0  0  0
 42 66  1  0  0  0
 42112  1  0  0  0
 42113  1  0  0  0
 43 44  1  0  0  0
 44114  1  0  0  0
 45 46  2  0  0  0
 45115  1  0  0  0
 46116  1  0  0  0
 47117  1  0  0  0
 47118  1  0  0  0
 48 56  1  0  0  0
 48 65  1  0  0  0
 48119  1  0  0  0
 49 50  1  0  0  0
 49 53  1  0  0  0
 49 64  1  0  0  0
 49120  1  0  0  0
 50 51  1  0  0  0
 50121  1  0  0  0
 50122  1  0  0  0
 51 52  1  0  0  0
 51123  1  0  0  0
 51124  1  0  0  0
 52125  1  0  0  0
 52126  1  0  0  0
 53 54  1  0  0  0
 54 55  2  0  0  0
 54127  1  0  0  0
 55 57  1  0  0  0
 55128  1  0  0  0
 56 69  2  0  0  0
 57 58  2  0  0  0
 57129  1  0  0  0
 58130  1  0  0  0
 59 60  1  0  0  0
 59 61  1  0  0  0
 59 62  1  0  0  0
 60131  1  0  0  0
 60132  1  0  0  0
 60133  1  0  0  0
 61134  1  0  0  0
 61135  1  0  0  0
 61136  1  0  0  0
 62137  1  0  0  0
 62138  1  0  0  0
 62139  1  0  0  0
 63 65  1  0  0  0
 63140  1  0  0  0
 63141  1  0  0  0
 63142  1  0  0  0
 64143  1  0  0  0
 65144  1  0  0  0
 68 82  1  0  0  0
 71 72  2  0  0  0
 71 73  1  0  0  0
 71145  1  0  0  0
 72 75  1  0  0  0
 72146  1  0  0  0
 73 76  2  0  0  0
 73147  1  0  0  0
 74 75  2  0  0  0
 74 76  1  0  0  0
 74148  1  0  0  0
 75 81  1  0  0  0
 76 84  1  0  0  0
 77 80  1  0  0  0
 77 83  1  0  0  0
 77 85  2  0  0  0
 78 79  1  0  0  0
 78 80  1  0  0  0
 78149  1  0  0  0
 78150  1  0  0  0
 79 83  1  0  0  0
 79151  1  0  0  0
 79152  1  0  0  0
 80 82  1  0  0  0
 80153  1  0  0  0
 81 83  1  0  0  0
 81154  1  0  0  0
 81155  1  0  0  0
 82156  1  0  0  0
 82157  1  0  0  0
 84158  1  0  0  0
M  ISO  4   1 100  68 101  82 101  84 100
M  END
> <chiral flag>
0

> <version>
0

> <s_m_source_file>
/data/baiqing/PycharmProjects/Reinvent-master-3.2/result/LINK_invent/BTK/process_docking_weight1_custom_product_contain_oxygen_bond_distance_aromatic_linkinvent_7_9_3/rearranged_h_0106.sdf

> <i_m_source_file_index>
84

> <r_mmod_Potential_Energy-OPLS-2005>
60.4173164367676

> <r_mmod_Stretch_Energy-OPLS-2005>
59.2612533569336

> <r_mmod_Bend_Energy-OPLS-2005>
148.051193237305

> <r_mmod_Torsional_Energy-OPLS-2005>
279.355560302734

> <r_mmod_Improper_Torsional_Energy-OPLS-2005>
9.04409408569336

> <r_mmod_Van_der_Waal_Energy-OPLS-2005>
134.731964111328

> <r_mmod_Electrostatic_Energy-OPLS-2005>
-370.266754150391

> <r_mmod_Solvation_Energy-OPLS-2005>
-226.57649230957

> <b_mmod_Minimization_Converged-OPLS-2005>
0

> <r_mmod_RMS_Derivative-OPLS-2005>
1.14451444149017

$$$$
84
                    3D
 Structure written by MMmdl.
158166  0  0  1  0            999 V2000
  -30.6730  -14.7050   20.3501 C   0  0  0  0  0  0
  -30.4309  -12.4082   19.4542 C   0  0  0  0  0  0
  -29.5039  -12.4547   18.2207 C   0  0  0  0  0  0
  -28.0263  -12.2859   18.6384 C   0  0  0  0  0  0
  -27.6214  -13.1841   19.8361 C   0  0  2  0  0  0
  -28.6935  -13.2064   20.9505 C   0  0  0  0  0  0
  -25.2523  -13.7992   20.5791 C   0  0  0  0  0  0
  -24.1764  -13.0307   20.9281 C   0  0  0  0  0  0
  -24.6327  -11.6778   20.8838 C   0  0  0  0  0  0
  -23.9001  -10.4191   21.0469 C   0  0  0  0  0  0
  -24.3571   -9.4093   21.9219 C   0  0  0  0  0  0
  -23.6245   -8.2131   22.0745 C   0  0  0  0  0  0
  -22.4220   -8.0206   21.3540 C   0  0  0  0  0  0
  -21.9857   -9.0198   20.4662 C   0  0  0  0  0  0
  -22.7185  -10.2073   20.3099 C   0  0  0  0  0  0
  -21.6807   -6.0687   22.5282 C   0  0  0  0  0  0
  -21.3963   -6.5601   23.8209 C   0  0  0  0  0  0
  -21.3666   -5.6772   24.9186 C   0  0  0  0  0  0
  -21.6051   -4.3035   24.7245 C   0  0  0  0  0  0
  -21.8828   -3.8117   23.4371 C   0  0  0  0  0  0
  -21.9178   -4.6921   22.3418 C   0  0  0  0  0  0
  -22.7797  -13.5155   21.1888 C   0  0  0  0  0  0
  -22.1656   -4.2101   21.0995 F   0  0  0  0  0  0
  -21.5663   -3.4533   25.7771 F   0  0  0  0  0  0
  -30.0096  -13.4964   20.3523 N   0  0  0  0  0  0
  -26.2868  -12.9063   20.3370 N   0  0  0  0  0  0
  -25.9233  -11.6276   20.5857 N   0  0  0  0  0  0
  -22.0409  -12.8171   22.0437 N   0  0  0  0  0  0
  -25.4294  -15.1709   20.4212 N   0  0  0  0  0  0
  -31.9021  -14.7602   20.3037 O   0  0  0  0  0  0
  -21.6574   -6.8811   21.4232 O   0  0  0  0  0  0
  -22.3518  -14.5467   20.6708 O   0  0  0  0  0  0
  -24.6236  -31.8627   23.2047 C   0  0  0  0  0  0
  -25.9084  -32.4799   23.8375 C   0  0  1  0  0  0
  -27.2491  -27.3654   20.1053 C   0  0  0  0  0  0
  -25.5911  -33.8596   24.2304 N   0  0  0  0  0  0
  -23.4181  -30.4838   21.5450 C   0  0  2  0  0  0
  -24.8701  -28.9444   20.1157 C   0  0  0  0  0  0
  -22.7476  -29.4619   22.4943 C   0  0  0  0  0  0
  -18.0280  -28.1385   22.8487 C   0  0  0  0  0  0
  -24.1476  -36.7271   23.2638 C   0  0  0  0  0  0
  -25.9562  -30.8090   21.3709 C   0  0  0  0  0  0
  -26.0374  -29.4405   20.7107 C   0  0  0  0  0  0
  -27.2287  -28.6629   20.6953 C   0  0  0  0  0  0
  -26.0563  -26.9146   19.4907 C   0  0  0  0  0  0
  -24.8800  -27.6842   19.4985 C   0  0  0  0  0  0
  -23.6359  -29.8176   20.1614 C   0  0  0  0  0  0
  -25.4106  -36.3088   24.0340 C   0  0  1  0  0  0
  -20.5879  -28.3688   23.1295 C   0  0  2  0  0  0
  -20.6760  -26.9414   22.5410 C   0  0  0  0  0  0
  -19.5728  -26.6388   21.5212 C   0  0  0  0  0  0
  -18.1913  -26.7930   22.1630 C   0  0  0  0  0  0
  -19.1535  -28.8854   23.2880 C   0  0  0  0  0  0
  -18.9455  -30.1459   23.8897 C   0  0  0  0  0  0
  -17.6451  -30.6584   24.0570 C   0  0  0  0  0  0
  -25.9050  -34.9461   23.5123 C   0  0  0  0  0  0
  -16.5343  -29.9083   23.6326 C   0  0  0  0  0  0
  -16.7269  -28.6499   23.0351 C   0  0  0  0  0  0
  -26.4482  -31.6596   25.0730 C   0  0  0  0  0  0
  -25.3733  -31.3736   26.1474 C   0  0  0  0  0  0
  -27.0297  -30.3016   24.6151 C   0  0  0  0  0  0
  -27.6057  -32.4330   25.7478 C   0  0  0  0  0  0
  -27.5571  -37.1791   24.8477 C   0  0  0  0  0  0
  -21.4192  -29.3034   22.3693 N   0  0  0  0  0  0
  -26.4277  -37.3787   23.9429 N   0  0  0  0  0  0
  -24.6839  -31.0677   22.0970 N   0  0  0  0  0  0
  -23.4213  -28.8170   23.3018 O   0  0  0  0  0  0
  -28.3912  -26.5552   20.1501 O   0  0  0  0  0  0
  -26.5601  -34.8932   22.4680 O   0  0  0  0  0  0
  -23.5404  -32.1392   23.7389 O   0  0  0  0  0  0
  -30.3067  -17.9887   21.3741 C   0  0  0  0  0  0
  -30.1188  -18.3533   19.0080 C   0  0  0  0  0  0
  -30.1741  -17.4174   20.0823 C   0  0  0  0  0  0
  -30.3007  -19.4053   21.5654 C   0  0  0  0  0  0
  -30.0870  -19.7707   19.1792 C   0  0  0  0  0  0
  -30.1437  -20.3242   20.4843 C   0  0  0  0  0  0
  -29.8874  -15.9441   19.7589 C   0  0  0  0  0  0
  -29.5705  -20.1376   16.8597 C   0  0  0  0  0  0
  -29.3793  -24.1387   20.3984 C   0  0  0  0  0  0
  -28.2190  -25.1098   19.9503 C   0  0  0  0  0  0
  -29.1088  -22.5902   20.2096 C   0  0  0  0  0  0
  -29.0504  -15.7806   18.8241 N   0  0  0  0  0  0
  -30.4265  -19.9196   22.8565 N   0  0  0  0  0  0
  -30.0410  -20.6379   18.1072 O   0  0  0  0  0  0
  -30.1525  -21.7110   20.7339 O   0  0  0  0  0  0
  -31.4742  -12.5136   19.1492 H   0  0  0  0  0  0
  -30.3509  -11.4490   19.9672 H   0  0  0  0  0  0
  -29.7827  -11.6724   17.5138 H   0  0  0  0  0  0
  -29.6384  -13.3962   17.6867 H   0  0  0  0  0  0
  -27.8797  -11.2395   18.9031 H   0  0  0  0  0  0
  -27.3720  -12.4810   17.7869 H   0  0  0  0  0  0
  -27.5120  -14.1658   19.4150 H   0  0  0  0  0  0
  -28.7240  -12.2517   21.4772 H   0  0  0  0  0  0
  -28.4406  -13.9626   21.6946 H   0  0  0  0  0  0
  -25.2718   -9.5528   22.4801 H   0  0  0  0  0  0
  -23.9954   -7.4476   22.7423 H   0  0  0  0  0  0
  -21.0783   -8.8722   19.8970 H   0  0  0  0  0  0
  -22.3648  -10.9631   19.6229 H   0  0  0  0  0  0
  -21.1902   -7.6101   23.9690 H   0  0  0  0  0  0
  -21.1501   -6.0510   25.9091 H   0  0  0  0  0  0
  -22.0608   -2.7573   23.2891 H   0  0  0  0  0  0
  -22.3977  -11.9825   22.4836 H   0  0  0  0  0  0
  -21.1041  -13.1226   22.2631 H   0  0  0  0  0  0
  -24.6728  -15.8369   20.5263 H   0  0  0  0  0  0
  -26.2928  -15.5921   20.0990 H   0  0  0  0  0  0
  -26.7167  -32.5494   23.1148 H   0  0  0  0  0  0
  -25.0105  -33.9747   25.0478 H   0  0  0  0  0  0
  -22.7089  -31.3013   21.3979 H   0  0  0  0  0  0
  -23.3757  -35.9587   23.3325 H   0  0  0  0  0  0
  -24.3557  -36.8851   22.2042 H   0  0  0  0  0  0
  -23.7210  -37.6478   23.6633 H   0  0  0  0  0  0
  -26.0849  -31.5792   20.6090 H   0  0  0  0  0  0
  -26.8370  -30.8561   21.9995 H   0  0  0  0  0  0
  -28.1282  -29.0463   21.1586 H   0  0  0  0  0  0
  -26.0119  -25.9557   18.9982 H   0  0  0  0  0  0
  -23.9884  -27.2914   19.0301 H   0  0  0  0  0  0
  -23.7618  -30.5933   19.4047 H   0  0  0  0  0  0
  -22.7599  -29.2446   19.8530 H   0  0  0  0  0  0
  -25.1284  -36.1938   25.0832 H   0  0  0  0  0  0
  -20.9968  -28.3246   24.1416 H   0  0  0  0  0  0
  -20.5643  -26.2300   23.3613 H   0  0  0  0  0  0
  -21.6633  -26.7418   22.1217 H   0  0  0  0  0  0
  -19.6884  -25.6299   21.1236 H   0  0  0  0  0  0
  -19.6663  -27.3208   20.6753 H   0  0  0  0  0  0
  -17.4184  -26.6688   21.4030 H   0  0  0  0  0  0
  -18.0301  -26.0067   22.9021 H   0  0  0  0  0  0
  -19.7935  -30.7275   24.2267 H   0  0  0  0  0  0
  -17.5009  -31.6268   24.5173 H   0  0  0  0  0  0
  -15.5347  -30.2990   23.7653 H   0  0  0  0  0  0
  -15.8669  -28.0829   22.7062 H   0  0  0  0  0  0
  -24.5920  -30.7049   25.7840 H   0  0  0  0  0  0
  -24.8905  -32.2898   26.4893 H   0  0  0  0  0  0
  -25.8087  -30.8951   27.0257 H   0  0  0  0  0  0
  -26.2846  -29.6798   24.1170 H   0  0  0  0  0  0
  -27.3992  -29.7245   25.4638 H   0  0  0  0  0  0
  -27.8733  -30.4308   23.9364 H   0  0  0  0  0  0
  -27.2680  -33.3646   26.2042 H   0  0  0  0  0  0
  -28.3862  -32.6864   25.0287 H   0  0  0  0  0  0
  -28.0730  -31.8459   26.5395 H   0  0  0  0  0  0
  -28.2623  -38.0054   24.7510 H   0  0  0  0  0  0
  -28.1026  -36.2589   24.6325 H   0  0  0  0  0  0
  -27.2285  -37.1478   25.8879 H   0  0  0  0  0  0
  -20.9374  -29.8785   21.6927 H   0  0  0  0  0  0
  -26.0159  -38.2860   24.1455 H   0  0  0  0  0  0
  -30.3708  -17.3310   22.2288 H   0  0  0  0  0  0
  -30.0804  -17.9496   18.0074 H   0  0  0  0  0  0
  -28.5994  -19.6510   16.9691 H   0  0  0  0  0  0
  -30.2770  -19.4372   16.4152 H   0  0  0  0  0  0
  -29.4519  -20.9616   16.1566 H   0  0  0  0  0  0
  -29.5989  -24.3273   21.4483 H   0  0  0  0  0  0
  -30.2848  -24.4020   19.8497 H   0  0  0  0  0  0
  -27.3240  -24.7916   20.4855 H   0  0  0  0  0  0
  -28.0250  -24.9417   18.8906 H   0  0  0  0  0  0
  -28.9106  -22.4127   19.1548 H   0  0  0  0  0  0
  -28.1852  -22.3299   20.7281 H   0  0  0  0  0  0
  -28.6745  -16.6664   18.5129 H   0  0  0  0  0  0
  -30.5099  -19.3408   23.6864 H   0  0  0  0  0  0
  -30.4534  -20.9227   23.0115 H   0  0  0  0  0  0
  1 25  1  0  0  0
  1 30  2  0  0  0
  1 77  1  0  0  0
  2  3  1  0  0  0
  2 25  1  0  0  0
  2 86  1  0  0  0
  2 87  1  0  0  0
  3  4  1  0  0  0
  3 88  1  0  0  0
  3 89  1  0  0  0
  4  5  1  0  0  0
  4 90  1  0  0  0
  4 91  1  0  0  0
  5  6  1  0  0  0
  5 26  1  0  0  0
  5 92  1  0  0  0
  6 25  1  0  0  0
  6 93  1  0  0  0
  6 94  1  0  0  0
  7  8  2  0  0  0
  7 26  1  0  0  0
  7 29  1  0  0  0
  8  9  1  0  0  0
  8 22  1  0  0  0
  9 10  1  0  0  0
  9 27  2  0  0  0
 10 11  2  0  0  0
 10 15  1  0  0  0
 11 12  1  0  0  0
 11 95  1  0  0  0
 12 13  2  0  0  0
 12 96  1  0  0  0
 13 14  1  0  0  0
 13 31  1  0  0  0
 14 15  2  0  0  0
 14 97  1  0  0  0
 15 98  1  0  0  0
 16 17  2  0  0  0
 16 21  1  0  0  0
 16 31  1  0  0  0
 17 18  1  0  0  0
 17 99  1  0  0  0
 18 19  2  0  0  0
 18100  1  0  0  0
 19 20  1  0  0  0
 19 24  1  0  0  0
 20 21  2  0  0  0
 20101  1  0  0  0
 21 23  1  0  0  0
 22 28  1  0  0  0
 22 32  2  0  0  0
 26 27  1  0  0  0
 28102  1  0  0  0
 28103  1  0  0  0
 29104  1  0  0  0
 29105  1  0  0  0
 33 34  1  0  0  0
 33 66  1  0  0  0
 33 70  2  0  0  0
 34 36  1  0  0  0
 34 59  1  0  0  0
 34106  1  0  0  0
 35 44  2  0  0  0
 35 45  1  0  0  0
 35 68  1  0  0  0
 36 56  1  0  0  0
 36107  1  0  0  0
 37 39  1  0  0  0
 37 47  1  0  0  0
 37 66  1  0  0  0
 37108  1  0  0  0
 38 43  2  0  0  0
 38 46  1  0  0  0
 38 47  1  0  0  0
 39 64  1  0  0  0
 39 67  2  0  0  0
 40 52  1  0  0  0
 40 53  2  0  0  0
 40 58  1  0  0  0
 41109  1  0  0  0
 41110  1  0  0  0
 41111  1  0  0  0
 41 48  1  0  0  0
 42 43  1  0  0  0
 42 66  1  0  0  0
 42112  1  0  0  0
 42113  1  0  0  0
 43 44  1  0  0  0
 44114  1  0  0  0
 45 46  2  0  0  0
 45115  1  0  0  0
 46116  1  0  0  0
 47117  1  0  0  0
 47118  1  0  0  0
 48 56  1  0  0  0
 48 65  1  0  0  0
 48119  1  0  0  0
 49 50  1  0  0  0
 49 53  1  0  0  0
 49 64  1  0  0  0
 49120  1  0  0  0
 50 51  1  0  0  0
 50121  1  0  0  0
 50122  1  0  0  0
 51 52  1  0  0  0
 51123  1  0  0  0
 51124  1  0  0  0
 52125  1  0  0  0
 52126  1  0  0  0
 53 54  1  0  0  0
 54 55  2  0  0  0
 54127  1  0  0  0
 55 57  1  0  0  0
 55128  1  0  0  0
 56 69  2  0  0  0
 57 58  2  0  0  0
 57129  1  0  0  0
 58130  1  0  0  0
 59 60  1  0  0  0
 59 61  1  0  0  0
 59 62  1  0  0  0
 60131  1  0  0  0
 60132  1  0  0  0
 60133  1  0  0  0
 61134  1  0  0  0
 61135  1  0  0  0
 61136  1  0  0  0
 62137  1  0  0  0
 62138  1  0  0  0
 62139  1  0  0  0
 63 65  1  0  0  0
 63140  1  0  0  0
 63141  1  0  0  0
 63142  1  0  0  0
 64143  1  0  0  0
 65144  1  0  0  0
 68 80  1  0  0  0
 71 73  2  0  0  0
 71 74  1  0  0  0
 71145  1  0  0  0
 72 73  1  0  0  0
 72 75  2  0  0  0
 72146  1  0  0  0
 73 77  1  0  0  0
 74 76  2  0  0  0
 74 83  1  0  0  0
 75 76  1  0  0  0
 75 84  1  0  0  0
 76 85  1  0  0  0
 77 82  2  0  0  0
 78 84  1  0  0  0
 78147  1  0  0  0
 78148  1  0  0  0
 78149  1  0  0  0
 79 80  1  0  0  0
 79 81  1  0  0  0
 79150  1  0  0  0
 79151  1  0  0  0
 80152  1  0  0  0
 80153  1  0  0  0
 81 85  1  0  0  0
 81154  1  0  0  0
 81155  1  0  0  0
 82156  1  0  0  0
 83157  1  0  0  0
 83158  1  0  0  0
M  ISO  4   1 100  68 101  77 100  80 101
M  END
> <chiral flag>
0

> <version>
0

> <s_m_source_file>
/data/baiqing/PycharmProjects/Reinvent-master-3.2/result/LINK_invent/BTK/process_docking_weight1_custom_product_contain_oxygen_bond_distance_aromatic_linkinvent_7_9_3/rearranged_h_0106.sdf

> <i_m_source_file_index>
85

> <r_mmod_Potential_Energy-OPLS-2005>
277.568939208984

> <r_mmod_Stretch_Energy-OPLS-2005>
79.7303085327148

> <r_mmod_Bend_Energy-OPLS-2005>
160.046432495117

> <r_mmod_Torsional_Energy-OPLS-2005>
258.472045898438

> <r_mmod_Improper_Torsional_Energy-OPLS-2005>
21.6043930053711

> <r_mmod_Van_der_Waal_Energy-OPLS-2005>
171.280258178711

> <r_mmod_Electrostatic_Energy-OPLS-2005>
-266.824035644531

> <r_mmod_Solvation_Energy-OPLS-2005>
-216.71760559082

> <b_mmod_Minimization_Converged-OPLS-2005>
0

> <r_mmod_RMS_Derivative-OPLS-2005>
2.67168831825256

$$$$
85
                    3D
 Structure written by MMmdl.
162170  0  0  1  0            999 V2000
  -30.7739  -14.4697   20.4897 C   0  0  0  0  0  0
  -30.4065  -12.2678   19.4519 C   0  0  0  0  0  0
  -29.5055  -12.4034   18.2069 C   0  0  0  0  0  0
  -28.0109  -12.3645   18.5970 C   0  0  0  0  0  0
  -27.6541  -13.2200   19.8474 C   0  0  2  0  0  0
  -28.7058  -13.0950   20.9754 C   0  0  0  0  0  0
  -25.2626  -13.8200   20.5669 C   0  0  0  0  0  0
  -24.1902  -13.0474   20.9152 C   0  0  0  0  0  0
  -24.6438  -11.6935   20.8691 C   0  0  0  0  0  0
  -23.9090  -10.4335   21.0368 C   0  0  0  0  0  0
  -24.3663   -9.4263   21.9148 C   0  0  0  0  0  0
  -23.6359   -8.2297   22.0744 C   0  0  0  0  0  0
  -22.4333   -8.0327   21.3547 C   0  0  0  0  0  0
  -21.9939   -9.0279   20.4629 C   0  0  0  0  0  0
  -22.7255  -10.2156   20.3013 C   0  0  0  0  0  0
  -21.6893   -6.0764   22.5269 C   0  0  0  0  0  0
  -21.4024   -6.5650   23.8195 C   0  0  0  0  0  0
  -21.3666   -5.6809   24.9163 C   0  0  0  0  0  0
  -21.6063   -4.3072   24.7223 C   0  0  0  0  0  0
  -21.8840   -3.8171   23.4338 C   0  0  0  0  0  0
  -21.9219   -4.6991   22.3396 C   0  0  0  0  0  0
  -22.7921  -13.5229   21.1894 C   0  0  0  0  0  0
  -22.1698   -4.2173   21.0976 F   0  0  0  0  0  0
  -21.5633   -3.4550   25.7735 F   0  0  0  0  0  0
  -30.0331  -13.3297   20.3959 N   0  0  0  0  0  0
  -26.3032  -12.9359   20.3278 N   0  0  0  0  0  0
  -25.9368  -11.6511   20.5713 N   0  0  0  0  0  0
  -22.0630  -12.8139   22.0406 N   0  0  0  0  0  0
  -25.4436  -15.1905   20.4080 N   0  0  0  0  0  0
  -31.9650  -14.4987   20.1799 O   0  0  0  0  0  0
  -21.6709   -6.8917   21.4232 O   0  0  0  0  0  0
  -22.3545  -14.5556   20.6801 O   0  0  0  0  0  0
  -24.6138  -31.8656   23.2109 C   0  0  0  0  0  0
  -25.9041  -32.4824   23.8396 C   0  0  1  0  0  0
  -27.2245  -27.4442   20.0917 C   0  0  0  0  0  0
  -25.5879  -33.8644   24.2267 N   0  0  0  0  0  0
  -23.3986  -30.4901   21.5544 C   0  0  2  0  0  0
  -24.8410  -28.9591   20.1124 C   0  0  0  0  0  0
  -22.7369  -29.4638   22.5038 C   0  0  0  0  0  0
  -18.0228  -28.1384   22.8532 C   0  0  0  0  0  0
  -24.1472  -36.7383   23.2624 C   0  0  0  0  0  0
  -25.9273  -30.8315   21.3623 C   0  0  0  0  0  0
  -25.9998  -29.4704   20.7082 C   0  0  0  0  0  0
  -27.1970  -28.7200   20.6957 C   0  0  0  0  0  0
  -26.0478  -26.9495   19.4867 C   0  0  0  0  0  0
  -24.8596  -27.6997   19.4944 C   0  0  0  0  0  0
  -23.6003  -29.8171   20.1719 C   0  0  0  0  0  0
  -25.4117  -36.3169   24.0283 C   0  0  1  0  0  0
  -20.5810  -28.3667   23.1367 C   0  0  2  0  0  0
  -20.6743  -26.9421   22.5444 C   0  0  0  0  0  0
  -19.5740  -26.6373   21.5244 C   0  0  0  0  0  0
  -18.1890  -26.7936   22.1641 C   0  0  0  0  0  0
  -19.1480  -28.8849   23.2941 C   0  0  0  0  0  0
  -18.9402  -30.1450   23.8954 C   0  0  0  0  0  0
  -17.6423  -30.6601   24.0594 C   0  0  0  0  0  0
  -25.9035  -34.9508   23.5083 C   0  0  0  0  0  0
  -16.5295  -29.9113   23.6366 C   0  0  0  0  0  0
  -16.7222  -28.6509   23.0403 C   0  0  0  0  0  0
  -26.4426  -31.6709   25.0816 C   0  0  0  0  0  0
  -25.3635  -31.3855   26.1540 C   0  0  0  0  0  0
  -27.0193  -30.3122   24.6228 C   0  0  0  0  0  0
  -27.5958  -32.4501   25.7584 C   0  0  0  0  0  0
  -27.5583  -37.1857   24.8425 C   0  0  0  0  0  0
  -21.4083  -29.3036   22.3812 N   0  0  0  0  0  0
  -26.4311  -37.3868   23.9340 N   0  0  0  0  0  0
  -24.6657  -31.0748   22.1027 N   0  0  0  0  0  0
  -23.4141  -28.8182   23.3077 O   0  0  0  0  0  0
  -28.3826  -26.7032   20.1157 O   0  0  0  0  0  0
  -26.5624  -34.8946   22.4671 O   0  0  0  0  0  0
  -23.5329  -32.1396   23.7512 O   0  0  0  0  0  0
  -32.6591  -19.4357   19.8624 C   0  0  0  0  0  0
  -31.6574  -20.3482   19.5016 C   0  0  0  0  0  0
  -29.9783  -18.8864   20.4987 C   0  0  0  0  0  0
  -30.9735  -17.9306   20.8197 C   0  0  0  0  0  0
  -32.3365  -18.2250   20.5109 C   0  0  0  0  0  0
  -30.3158  -20.0807   19.8220 C   0  0  0  0  0  0
  -30.5528  -16.5933   21.4041 C   0  0  0  0  0  0
  -28.9576  -22.1064   19.9525 C   0  0  0  0  0  0
  -33.4937  -17.2731   20.7806 C   0  0  0  0  0  0
  -29.5787  -16.0717   19.2221 C   0  0  0  0  0  0
  -27.9768  -22.9940   19.1741 C   0  0  0  0  0  0
  -28.4143  -24.4765   19.0671 C   0  0  0  0  0  0
  -28.2199  -25.2984   20.3574 C   0  0  0  0  0  0
  -29.3123  -20.9567   19.3638 N   0  0  0  0  0  0
  -30.0959  -15.6424   20.5401 N   0  0  0  0  0  0
  -30.7171  -16.3958   22.6156 O   0  0  0  0  0  0
  -29.3672  -22.4428   21.0662 O   0  0  0  0  0  0
  -31.4562  -12.3131   19.1543 H   0  0  0  0  0  0
  -30.2706  -11.2921   19.9212 H   0  0  0  0  0  0
  -29.7154  -11.5833   17.5176 H   0  0  0  0  0  0
  -29.7486  -13.3094   17.6555 H   0  0  0  0  0  0
  -27.7348  -11.3248   18.7713 H   0  0  0  0  0  0
  -27.4124  -12.6949   17.7461 H   0  0  0  0  0  0
  -27.6515  -14.2548   19.5146 H   0  0  0  0  0  0
  -28.6704  -12.1098   21.4408 H   0  0  0  0  0  0
  -28.4934  -13.8155   21.7651 H   0  0  0  0  0  0
  -25.2821   -9.5784   22.4697 H   0  0  0  0  0  0
  -24.0148   -7.4671   22.7398 H   0  0  0  0  0  0
  -21.0920   -8.8725   19.8888 H   0  0  0  0  0  0
  -22.3704  -10.9679   19.6112 H   0  0  0  0  0  0
  -21.1988   -7.6157   23.9669 H   0  0  0  0  0  0
  -21.1460   -6.0558   25.9048 H   0  0  0  0  0  0
  -22.0616   -2.7634   23.2827 H   0  0  0  0  0  0
  -22.4374  -11.9810   22.4734 H   0  0  0  0  0  0
  -21.1187  -13.1008   22.2605 H   0  0  0  0  0  0
  -24.6941  -15.8678   20.4918 H   0  0  0  0  0  0
  -26.3209  -15.6076   20.1260 H   0  0  0  0  0  0
  -26.7131  -32.5498   23.1160 H   0  0  0  0  0  0
  -25.0049  -33.9859   25.0416 H   0  0  0  0  0  0
  -22.6916  -31.3112   21.4155 H   0  0  0  0  0  0
  -23.3727  -35.9736   23.3319 H   0  0  0  0  0  0
  -24.3519  -36.9030   22.2042 H   0  0  0  0  0  0
  -23.7241  -37.6585   23.6662 H   0  0  0  0  0  0
  -26.0180  -31.5875   20.5828 H   0  0  0  0  0  0
  -26.8280  -30.8959   21.9648 H   0  0  0  0  0  0
  -28.0896  -29.0980   21.1743 H   0  0  0  0  0  0
  -26.0275  -25.9808   19.0080 H   0  0  0  0  0  0
  -23.9689  -27.2947   19.0287 H   0  0  0  0  0  0
  -23.6831  -30.5819   19.3997 H   0  0  0  0  0  0
  -22.7278  -29.2195   19.9031 H   0  0  0  0  0  0
  -25.1309  -36.2053   25.0787 H   0  0  0  0  0  0
  -20.9883  -28.3222   24.1491 H   0  0  0  0  0  0
  -20.5652  -26.2282   23.3627 H   0  0  0  0  0  0
  -21.6616  -26.7503   22.1226 H   0  0  0  0  0  0
  -19.6904  -25.6261   21.1323 H   0  0  0  0  0  0
  -19.6675  -27.3157   20.6760 H   0  0  0  0  0  0
  -17.4163  -26.6692   21.4027 H   0  0  0  0  0  0
  -18.0273  -26.0033   22.9009 H   0  0  0  0  0  0
  -19.7851  -30.7267   24.2344 H   0  0  0  0  0  0
  -17.4953  -31.6293   24.5183 H   0  0  0  0  0  0
  -15.5307  -30.3051   23.7655 H   0  0  0  0  0  0
  -15.8594  -28.0854   22.7156 H   0  0  0  0  0  0
  -24.5769  -30.7236   25.7879 H   0  0  0  0  0  0
  -24.8844  -32.3036   26.5002 H   0  0  0  0  0  0
  -25.7978  -30.9012   27.0300 H   0  0  0  0  0  0
  -26.2748  -29.7030   24.1066 H   0  0  0  0  0  0
  -27.3638  -29.7291   25.4785 H   0  0  0  0  0  0
  -27.8757  -30.4423   23.9579 H   0  0  0  0  0  0
  -27.2508  -33.3806   26.2135 H   0  0  0  0  0  0
  -28.3789  -32.7114   25.0438 H   0  0  0  0  0  0
  -28.0584  -31.8643   26.5548 H   0  0  0  0  0  0
  -28.2623  -38.0143   24.7545 H   0  0  0  0  0  0
  -28.1081  -36.2697   24.6215 H   0  0  0  0  0  0
  -27.2277  -37.1486   25.8821 H   0  0  0  0  0  0
  -20.9223  -29.8836   21.7121 H   0  0  0  0  0  0
  -26.0192  -38.2941   24.1372 H   0  0  0  0  0  0
  -33.6854  -19.6599   19.6028 H   0  0  0  0  0  0
  -31.9352  -21.2476   18.9659 H   0  0  0  0  0  0
  -28.9461  -18.6789   20.7355 H   0  0  0  0  0  0
  -33.7811  -16.7748   19.8522 H   0  0  0  0  0  0
  -33.2690  -16.5132   21.5262 H   0  0  0  0  0  0
  -34.3714  -17.8243   21.1272 H   0  0  0  0  0  0
  -28.6424  -16.6172   19.3409 H   0  0  0  0  0  0
  -29.3803  -15.2426   18.5457 H   0  0  0  0  0  0
  -30.2756  -16.7088   18.6737 H   0  0  0  0  0  0
  -26.9886  -22.9090   19.6302 H   0  0  0  0  0  0
  -27.8655  -22.6003   18.1626 H   0  0  0  0  0  0
  -27.8570  -24.9389   18.2549 H   0  0  0  0  0  0
  -29.4569  -24.5397   18.7557 H   0  0  0  0  0  0
  -27.2527  -25.0703   20.8116 H   0  0  0  0  0  0
  -28.9549  -25.0035   21.1044 H   0  0  0  0  0  0
  -28.9360  -20.7724   18.4409 H   0  0  0  0  0  0
  1 25  1  0  0  0
  1 30  2  0  0  0
  1 85  1  0  0  0
  2  3  1  0  0  0
  2 25  1  0  0  0
  2 88  1  0  0  0
  2 89  1  0  0  0
  3  4  1  0  0  0
  3 90  1  0  0  0
  3 91  1  0  0  0
  4  5  1  0  0  0
  4 92  1  0  0  0
  4 93  1  0  0  0
  5  6  1  0  0  0
  5 26  1  0  0  0
  5 94  1  0  0  0
  6 25  1  0  0  0
  6 95  1  0  0  0
  6 96  1  0  0  0
  7  8  2  0  0  0
  7 26  1  0  0  0
  7 29  1  0  0  0
  8  9  1  0  0  0
  8 22  1  0  0  0
  9 10  1  0  0  0
  9 27  2  0  0  0
 10 11  2  0  0  0
 10 15  1  0  0  0
 11 12  1  0  0  0
 11 97  1  0  0  0
 12 13  2  0  0  0
 12 98  1  0  0  0
 13 14  1  0  0  0
 13 31  1  0  0  0
 14 15  2  0  0  0
 14 99  1  0  0  0
 15100  1  0  0  0
 16 17  2  0  0  0
 16 21  1  0  0  0
 16 31  1  0  0  0
 17 18  1  0  0  0
 17101  1  0  0  0
 18 19  2  0  0  0
 18102  1  0  0  0
 19 20  1  0  0  0
 19 24  1  0  0  0
 20 21  2  0  0  0
 20103  1  0  0  0
 21 23  1  0  0  0
 22 28  1  0  0  0
 22 32  2  0  0  0
 26 27  1  0  0  0
 28104  1  0  0  0
 28105  1  0  0  0
 29106  1  0  0  0
 29107  1  0  0  0
 33 34  1  0  0  0
 33 66  1  0  0  0
 33 70  2  0  0  0
 34 36  1  0  0  0
 34 59  1  0  0  0
 34108  1  0  0  0
 35 44  2  0  0  0
 35 45  1  0  0  0
 35 68  1  0  0  0
 36 56  1  0  0  0
 36109  1  0  0  0
 37 39  1  0  0  0
 37 47  1  0  0  0
 37 66  1  0  0  0
 37110  1  0  0  0
 38 43  2  0  0  0
 38 46  1  0  0  0
 38 47  1  0  0  0
 39 64  1  0  0  0
 39 67  2  0  0  0
 40 52  1  0  0  0
 40 53  2  0  0  0
 40 58  1  0  0  0
 41111  1  0  0  0
 41112  1  0  0  0
 41113  1  0  0  0
 41 48  1  0  0  0
 42 43  1  0  0  0
 42 66  1  0  0  0
 42114  1  0  0  0
 42115  1  0  0  0
 43 44  1  0  0  0
 44116  1  0  0  0
 45 46  2  0  0  0
 45117  1  0  0  0
 46118  1  0  0  0
 47119  1  0  0  0
 47120  1  0  0  0
 48 56  1  0  0  0
 48 65  1  0  0  0
 48121  1  0  0  0
 49 50  1  0  0  0
 49 53  1  0  0  0
 49 64  1  0  0  0
 49122  1  0  0  0
 50 51  1  0  0  0
 50123  1  0  0  0
 50124  1  0  0  0
 51 52  1  0  0  0
 51125  1  0  0  0
 51126  1  0  0  0
 52127  1  0  0  0
 52128  1  0  0  0
 53 54  1  0  0  0
 54 55  2  0  0  0
 54129  1  0  0  0
 55 57  1  0  0  0
 55130  1  0  0  0
 56 69  2  0  0  0
 57 58  2  0  0  0
 57131  1  0  0  0
 58132  1  0  0  0
 59 60  1  0  0  0
 59 61  1  0  0  0
 59 62  1  0  0  0
 60133  1  0  0  0
 60134  1  0  0  0
 60135  1  0  0  0
 61136  1  0  0  0
 61137  1  0  0  0
 61138  1  0  0  0
 62139  1  0  0  0
 62140  1  0  0  0
 62141  1  0  0  0
 63 65  1  0  0  0
 63142  1  0  0  0
 63143  1  0  0  0
 63144  1  0  0  0
 64145  1  0  0  0
 65146  1  0  0  0
 68 83  1  0  0  0
 71 72  2  0  0  0
 71 75  1  0  0  0
 71147  1  0  0  0
 72 76  1  0  0  0
 72148  1  0  0  0
 73 74  1  0  0  0
 73 76  2  0  0  0
 73149  1  0  0  0
 74 75  2  0  0  0
 74 77  1  0  0  0
 75 79  1  0  0  0
 76 84  1  0  0  0
 77 85  1  0  0  0
 77 86  2  0  0  0
 78 81  1  0  0  0
 78 84  1  0  0  0
 78 87  2  0  0  0
 79150  1  0  0  0
 79151  1  0  0  0
 79152  1  0  0  0
 80 85  1  0  0  0
 80153  1  0  0  0
 80154  1  0  0  0
 80155  1  0  0  0
 81 82  1  0  0  0
 81156  1  0  0  0
 81157  1  0  0  0
 82 83  1  0  0  0
 82158  1  0  0  0
 82159  1  0  0  0
 83160  1  0  0  0
 83161  1  0  0  0
 84162  1  0  0  0
M  ISO  4   1 100  68 101  83 101  85 100
M  END
> <chiral flag>
0

> <version>
0

> <s_m_source_file>
/data/baiqing/PycharmProjects/Reinvent-master-3.2/result/LINK_invent/BTK/process_docking_weight1_custom_product_contain_oxygen_bond_distance_aromatic_linkinvent_7_9_3/rearranged_h_0106.sdf

> <i_m_source_file_index>
86

> <r_mmod_Potential_Energy-OPLS-2005>
139.860473632812

> <r_mmod_Stretch_Energy-OPLS-2005>
40.0657272338867

> <r_mmod_Bend_Energy-OPLS-2005>
102.410118103027

> <r_mmod_Torsional_Energy-OPLS-2005>
397.680236816406

> <r_mmod_Improper_Torsional_Energy-OPLS-2005>
14.848126411438

> <r_mmod_Van_der_Waal_Energy-OPLS-2005>
168.090133666992

> <r_mmod_Electrostatic_Energy-OPLS-2005>
-387.62939453125

> <r_mmod_Solvation_Energy-OPLS-2005>
-222.825576782227

> <b_mmod_Minimization_Converged-OPLS-2005>
0

> <r_mmod_RMS_Derivative-OPLS-2005>
6.10760068893433

$$$$
86
                    3D
 Structure written by MMmdl.
160168  0  0  1  0            999 V2000
  -30.6269  -14.7195   20.3526 C   0  0  0  0  0  0
  -30.4366  -12.4100   19.4512 C   0  0  0  0  0  0
  -29.4892  -12.3674   18.2282 C   0  0  0  0  0  0
  -28.0149  -12.2732   18.6595 C   0  0  0  0  0  0
  -27.6373  -13.2181   19.8322 C   0  0  2  0  0  0
  -28.6970  -13.1919   20.9533 C   0  0  0  0  0  0
  -25.2533  -13.8168   20.5747 C   0  0  0  0  0  0
  -24.1797  -13.0436   20.9221 C   0  0  0  0  0  0
  -24.6372  -11.6912   20.8783 C   0  0  0  0  0  0
  -23.9054  -10.4291   21.0428 C   0  0  0  0  0  0
  -24.3610   -9.4202   21.9196 C   0  0  0  0  0  0
  -23.6289   -8.2236   22.0757 C   0  0  0  0  0  0
  -22.4272   -8.0277   21.3545 C   0  0  0  0  0  0
  -21.9908   -9.0253   20.4649 C   0  0  0  0  0  0
  -22.7233  -10.2135   20.3067 C   0  0  0  0  0  0
  -21.6850   -6.0734   22.5279 C   0  0  0  0  0  0
  -21.4012   -6.5639   23.8212 C   0  0  0  0  0  0
  -21.3658   -5.6792   24.9175 C   0  0  0  0  0  0
  -21.6044   -4.3056   24.7226 C   0  0  0  0  0  0
  -21.8818   -3.8146   23.4349 C   0  0  0  0  0  0
  -21.9192   -4.6962   22.3404 C   0  0  0  0  0  0
  -22.7823  -13.5235   21.1864 C   0  0  0  0  0  0
  -22.1662   -4.2148   21.0982 F   0  0  0  0  0  0
  -21.5629   -3.4539   25.7739 F   0  0  0  0  0  0
  -29.9886  -13.5045   20.3332 N   0  0  0  0  0  0
  -26.2943  -12.9361   20.3313 N   0  0  0  0  0  0
  -25.9303  -11.6525   20.5837 N   0  0  0  0  0  0
  -22.0457  -12.8228   22.0412 N   0  0  0  0  0  0
  -25.4276  -15.1877   20.4228 N   0  0  0  0  0  0
  -31.8581  -14.7745   20.3263 O   0  0  0  0  0  0
  -21.6637   -6.8875   21.4241 O   0  0  0  0  0  0
  -22.3523  -14.5546   20.6709 O   0  0  0  0  0  0
  -24.6254  -31.8591   23.2005 C   0  0  0  0  0  0
  -25.9101  -32.4774   23.8343 C   0  0  1  0  0  0
  -27.2267  -27.3201   20.1357 C   0  0  0  0  0  0
  -25.5918  -33.8574   24.2274 N   0  0  0  0  0  0
  -23.4197  -30.4793   21.5428 C   0  0  2  0  0  0
  -24.8680  -28.9261   20.1161 C   0  0  0  0  0  0
  -22.7469  -29.4615   22.4942 C   0  0  0  0  0  0
  -18.0283  -28.1383   22.8487 C   0  0  0  0  0  0
  -24.1487  -36.7293   23.2642 C   0  0  0  0  0  0
  -25.9582  -30.7920   21.3685 C   0  0  0  0  0  0
  -26.0350  -29.4166   20.7168 C   0  0  0  0  0  0
  -27.2211  -28.6269   20.7101 C   0  0  0  0  0  0
  -26.0410  -26.8703   19.5210 C   0  0  0  0  0  0
  -24.8721  -27.6587   19.5078 C   0  0  0  0  0  0
  -23.6355  -29.8072   20.1602 C   0  0  0  0  0  0
  -25.4113  -36.3082   24.0331 C   0  0  1  0  0  0
  -20.5882  -28.3686   23.1287 C   0  0  2  0  0  0
  -20.6772  -26.9410   22.5412 C   0  0  0  0  0  0
  -19.5749  -26.6385   21.5212 C   0  0  0  0  0  0
  -18.1929  -26.7926   22.1624 C   0  0  0  0  0  0
  -19.1536  -28.8852   23.2881 C   0  0  0  0  0  0
  -18.9460  -30.1454   23.8898 C   0  0  0  0  0  0
  -17.6461  -30.6587   24.0563 C   0  0  0  0  0  0
  -25.9049  -34.9450   23.5104 C   0  0  0  0  0  0
  -16.5352  -29.9087   23.6329 C   0  0  0  0  0  0
  -16.7271  -28.6503   23.0351 C   0  0  0  0  0  0
  -26.4491  -31.6585   25.0712 C   0  0  0  0  0  0
  -25.3730  -31.3717   26.1444 C   0  0  0  0  0  0
  -27.0337  -30.3016   24.6154 C   0  0  0  0  0  0
  -27.6051  -32.4322   25.7484 C   0  0  0  0  0  0
  -27.5577  -37.1803   24.8467 C   0  0  0  0  0  0
  -21.4185  -29.3038   22.3684 N   0  0  0  0  0  0
  -26.4291  -37.3776   23.9407 N   0  0  0  0  0  0
  -24.6865  -31.0604   22.0948 N   0  0  0  0  0  0
  -23.4190  -28.8164   23.3032 O   0  0  0  0  0  0
  -28.3521  -26.4904   20.1343 O   0  0  0  0  0  0
  -26.5619  -34.8919   22.4672 O   0  0  0  0  0  0
  -23.5420  -32.1386   23.7340 O   0  0  0  0  0  0
  -28.2868  -17.5703   19.6697 C   0  0  0  0  0  0
  -30.3533  -18.0356   20.7579 C   0  0  0  0  0  0
  -29.5181  -17.0615   20.1466 C   0  0  0  0  0  0
  -27.9818  -18.9665   19.7043 C   0  0  0  0  0  0
  -28.9200  -19.8801   20.2553 C   0  0  0  0  0  0
  -29.0078  -22.4898   20.5356 C   0  0  0  0  0  0
  -30.8127  -16.9856   17.6173 C   0  0  0  0  0  0
  -25.8348  -18.6183   18.6593 C   0  0  0  0  0  0
  -28.5079  -23.8382   19.8545 C   0  0  0  0  0  0
  -30.1732  -15.7117   18.2124 C   0  0  0  0  0  0
  -28.2484  -25.1410   20.7416 C   0  0  0  0  0  0
  -30.0677  -19.3823   20.8096 N   0  0  0  0  0  0
  -28.5633  -21.2874   20.0501 N   0  0  0  0  0  0
  -29.9502  -15.7319   19.6835 N   0  0  0  0  0  0
  -29.7955  -22.5614   21.4821 O   0  0  0  0  0  0
  -26.8266  -19.5045   19.1659 O   0  0  0  0  0  0
  -31.4679  -12.5481   19.1211 H   0  0  0  0  0  0
  -30.4138  -11.4620   19.9908 H   0  0  0  0  0  0
  -29.7384  -11.5041   17.6099 H   0  0  0  0  0  0
  -29.6174  -13.2205   17.5719 H   0  0  0  0  0  0
  -27.8469  -11.2380   18.9583 H   0  0  0  0  0  0
  -27.3584  -12.4468   17.8060 H   0  0  0  0  0  0
  -27.6194  -14.2248   19.4152 H   0  0  0  0  0  0
  -28.7302  -12.2171   21.4418 H   0  0  0  0  0  0
  -28.4566  -13.9263   21.7240 H   0  0  0  0  0  0
  -25.2753   -9.5678   22.4774 H   0  0  0  0  0  0
  -23.9998   -7.4625   22.7472 H   0  0  0  0  0  0
  -21.0841   -8.8773   19.8952 H   0  0  0  0  0  0
  -22.3694  -10.9678   19.6180 H   0  0  0  0  0  0
  -21.2003   -7.6146   23.9715 H   0  0  0  0  0  0
  -21.1482   -6.0523   25.9078 H   0  0  0  0  0  0
  -22.0598   -2.7608   23.2849 H   0  0  0  0  0  0
  -22.4066  -11.9888   22.4802 H   0  0  0  0  0  0
  -21.1078  -13.1259   22.2611 H   0  0  0  0  0  0
  -24.6738  -15.8484   20.5742 H   0  0  0  0  0  0
  -26.3082  -15.6223   20.1913 H   0  0  0  0  0  0
  -26.7168  -32.5449   23.1094 H   0  0  0  0  0  0
  -25.0065  -33.9718   25.0418 H   0  0  0  0  0  0
  -22.7137  -31.2992   21.3961 H   0  0  0  0  0  0
  -23.3747  -35.9628   23.3311 H   0  0  0  0  0  0
  -24.3577  -36.8907   22.2054 H   0  0  0  0  0  0
  -23.7243  -37.6498   23.6659 H   0  0  0  0  0  0
  -26.0848  -31.5523   20.5967 H   0  0  0  0  0  0
  -26.8401  -30.8460   21.9952 H   0  0  0  0  0  0
  -28.1220  -29.0018   21.1754 H   0  0  0  0  0  0
  -26.0178  -25.8953   19.0547 H   0  0  0  0  0  0
  -23.9772  -27.2769   19.0357 H   0  0  0  0  0  0
  -23.7550  -30.5801   19.4000 H   0  0  0  0  0  0
  -22.7559  -29.2345   19.8602 H   0  0  0  0  0  0
  -25.1293  -36.1937   25.0824 H   0  0  0  0  0  0
  -20.9972  -28.3260   24.1409 H   0  0  0  0  0  0
  -20.5675  -26.2295   23.3611 H   0  0  0  0  0  0
  -21.6641  -26.7442   22.1206 H   0  0  0  0  0  0
  -19.6912  -25.6297   21.1242 H   0  0  0  0  0  0
  -19.6688  -27.3196   20.6743 H   0  0  0  0  0  0
  -17.4199  -26.6674   21.4026 H   0  0  0  0  0  0
  -18.0327  -26.0067   22.9020 H   0  0  0  0  0  0
  -19.7938  -30.7267   24.2269 H   0  0  0  0  0  0
  -17.5018  -31.6267   24.5164 H   0  0  0  0  0  0
  -15.5353  -30.2990   23.7654 H   0  0  0  0  0  0
  -15.8670  -28.0824   22.7066 H   0  0  0  0  0  0
  -24.5904  -30.7067   25.7775 H   0  0  0  0  0  0
  -24.8920  -32.2879   26.4879 H   0  0  0  0  0  0
  -25.8060  -30.8891   27.0214 H   0  0  0  0  0  0
  -26.2905  -29.6764   24.1191 H   0  0  0  0  0  0
  -27.4061  -29.7273   25.4648 H   0  0  0  0  0  0
  -27.8759  -30.4313   23.9354 H   0  0  0  0  0  0
  -27.2663  -33.3625   26.2056 H   0  0  0  0  0  0
  -28.3862  -32.6880   25.0311 H   0  0  0  0  0  0
  -28.0717  -31.8450   26.5404 H   0  0  0  0  0  0
  -28.2602  -38.0093   24.7504 H   0  0  0  0  0  0
  -28.1065  -36.2623   24.6306 H   0  0  0  0  0  0
  -27.2293  -37.1468   25.8871 H   0  0  0  0  0  0
  -20.9366  -29.8757   21.6890 H   0  0  0  0  0  0
  -26.0174  -38.2854   24.1403 H   0  0  0  0  0  0
  -27.6256  -16.8807   19.1688 H   0  0  0  0  0  0
  -31.3371  -17.7566   21.1051 H   0  0  0  0  0  0
  -31.0600  -16.8277   16.5669 H   0  0  0  0  0  0
  -31.7399  -17.2433   18.1305 H   0  0  0  0  0  0
  -30.1502  -17.8503   17.6513 H   0  0  0  0  0  0
  -24.9744  -19.1958   18.3214 H   0  0  0  0  0  0
  -25.4819  -17.9310   19.4288 H   0  0  0  0  0  0
  -26.2003  -18.0486   17.8038 H   0  0  0  0  0  0
  -27.6140  -23.6314   19.2663 H   0  0  0  0  0  0
  -29.2782  -24.0911   19.1262 H   0  0  0  0  0  0
  -30.8440  -14.9029   17.9169 H   0  0  0  0  0  0
  -29.2228  -15.5141   17.7149 H   0  0  0  0  0  0
  -28.9729  -25.1411   21.5563 H   0  0  0  0  0  0
  -27.2826  -25.0329   21.2379 H   0  0  0  0  0  0
  -27.8175  -21.3754   19.3742 H   0  0  0  0  0  0
  1 25  1  0  0  0
  1 30  2  0  0  0
  1 84  1  0  0  0
  2  3  1  0  0  0
  2 25  1  0  0  0
  2 87  1  0  0  0
  2 88  1  0  0  0
  3  4  1  0  0  0
  3 89  1  0  0  0
  3 90  1  0  0  0
  4  5  1  0  0  0
  4 91  1  0  0  0
  4 92  1  0  0  0
  5  6  1  0  0  0
  5 26  1  0  0  0
  5 93  1  0  0  0
  6 25  1  0  0  0
  6 94  1  0  0  0
  6 95  1  0  0  0
  7  8  2  0  0  0
  7 26  1  0  0  0
  7 29  1  0  0  0
  8  9  1  0  0  0
  8 22  1  0  0  0
  9 10  1  0  0  0
  9 27  2  0  0  0
 10 11  2  0  0  0
 10 15  1  0  0  0
 11 12  1  0  0  0
 11 96  1  0  0  0
 12 13  2  0  0  0
 12 97  1  0  0  0
 13 14  1  0  0  0
 13 31  1  0  0  0
 14 15  2  0  0  0
 14 98  1  0  0  0
 15 99  1  0  0  0
 16 17  2  0  0  0
 16 21  1  0  0  0
 16 31  1  0  0  0
 17 18  1  0  0  0
 17100  1  0  0  0
 18 19  2  0  0  0
 18101  1  0  0  0
 19 20  1  0  0  0
 19 24  1  0  0  0
 20 21  2  0  0  0
 20102  1  0  0  0
 21 23  1  0  0  0
 22 28  1  0  0  0
 22 32  2  0  0  0
 26 27  1  0  0  0
 28103  1  0  0  0
 28104  1  0  0  0
 29105  1  0  0  0
 29106  1  0  0  0
 33 34  1  0  0  0
 33 66  1  0  0  0
 33 70  2  0  0  0
 34 36  1  0  0  0
 34 59  1  0  0  0
 34107  1  0  0  0
 35 44  2  0  0  0
 35 45  1  0  0  0
 35 68  1  0  0  0
 36 56  1  0  0  0
 36108  1  0  0  0
 37 39  1  0  0  0
 37 47  1  0  0  0
 37 66  1  0  0  0
 37109  1  0  0  0
 38 43  2  0  0  0
 38 46  1  0  0  0
 38 47  1  0  0  0
 39 64  1  0  0  0
 39 67  2  0  0  0
 40 52  1  0  0  0
 40 53  2  0  0  0
 40 58  1  0  0  0
 41110  1  0  0  0
 41111  1  0  0  0
 41112  1  0  0  0
 41 48  1  0  0  0
 42 43  1  0  0  0
 42 66  1  0  0  0
 42113  1  0  0  0
 42114  1  0  0  0
 43 44  1  0  0  0
 44115  1  0  0  0
 45 46  2  0  0  0
 45116  1  0  0  0
 46117  1  0  0  0
 47118  1  0  0  0
 47119  1  0  0  0
 48 56  1  0  0  0
 48 65  1  0  0  0
 48120  1  0  0  0
 49 50  1  0  0  0
 49 53  1  0  0  0
 49 64  1  0  0  0
 49121  1  0  0  0
 50 51  1  0  0  0
 50122  1  0  0  0
 50123  1  0  0  0
 51 52  1  0  0  0
 51124  1  0  0  0
 51125  1  0  0  0
 52126  1  0  0  0
 52127  1  0  0  0
 53 54  1  0  0  0
 54 55  2  0  0  0
 54128  1  0  0  0
 55 57  1  0  0  0
 55129  1  0  0  0
 56 69  2  0  0  0
 57 58  2  0  0  0
 57130  1  0  0  0
 58131  1  0  0  0
 59 60  1  0  0  0
 59 61  1  0  0  0
 59 62  1  0  0  0
 60132  1  0  0  0
 60133  1  0  0  0
 60134  1  0  0  0
 61135  1  0  0  0
 61136  1  0  0  0
 61137  1  0  0  0
 62138  1  0  0  0
 62139  1  0  0  0
 62140  1  0  0  0
 63 65  1  0  0  0
 63141  1  0  0  0
 63142  1  0  0  0
 63143  1  0  0  0
 64144  1  0  0  0
 65145  1  0  0  0
 68 81  1  0  0  0
 71 73  2  0  0  0
 71 74  1  0  0  0
 71146  1  0  0  0
 72 73  1  0  0  0
 72 82  2  0  0  0
 72147  1  0  0  0
 73 84  1  0  0  0
 74 75  2  0  0  0
 74 86  1  0  0  0
 75 82  1  0  0  0
 75 83  1  0  0  0
 76 79  1  0  0  0
 76 83  1  0  0  0
 76 85  2  0  0  0
 77 80  1  0  0  0
 77148  1  0  0  0
 77149  1  0  0  0
 77150  1  0  0  0
 78 86  1  0  0  0
 78151  1  0  0  0
 78152  1  0  0  0
 78153  1  0  0  0
 79 81  1  0  0  0
 79154  1  0  0  0
 79155  1  0  0  0
 80 84  1  0  0  0
 80156  1  0  0  0
 80157  1  0  0  0
 81158  1  0  0  0
 81159  1  0  0  0
 83160  1  0  0  0
M  ISO  4   1 100  68 101  81 101  84 100
M  END
> <chiral flag>
0

> <version>
0

> <s_m_source_file>
/data/baiqing/PycharmProjects/Reinvent-master-3.2/result/LINK_invent/BTK/process_docking_weight1_custom_product_contain_oxygen_bond_distance_aromatic_linkinvent_7_9_3/rearranged_h_0106.sdf

> <i_m_source_file_index>
87

> <r_mmod_Potential_Energy-OPLS-2005>
170.374664306641

> <r_mmod_Stretch_Energy-OPLS-2005>
88.4829559326172

> <r_mmod_Bend_Energy-OPLS-2005>
175.180328369141

> <r_mmod_Torsional_Energy-OPLS-2005>
357.802032470703

> <r_mmod_Improper_Torsional_Energy-OPLS-2005>
32.5222053527832

> <r_mmod_Van_der_Waal_Energy-OPLS-2005>
144.594528198242

> <r_mmod_Electrostatic_Energy-OPLS-2005>
-470.738006591797

> <r_mmod_Solvation_Energy-OPLS-2005>
-238.632125854492

> <b_mmod_Minimization_Converged-OPLS-2005>
0

> <r_mmod_RMS_Derivative-OPLS-2005>
0.405440360307693

$$$$
87
                    3D
 Structure written by MMmdl.
155163  0  0  1  0            999 V2000
  -30.6639  -14.6164   20.5872 C   0  0  0  0  0  0
  -30.4338  -12.4004   19.4604 C   0  0  0  0  0  0
  -29.5094  -12.5343   18.2284 C   0  0  0  0  0  0
  -28.0318  -12.3633   18.6290 C   0  0  0  0  0  0
  -27.6559  -13.2147   19.8677 C   0  0  2  0  0  0
  -28.6898  -13.0275   20.9969 C   0  0  0  0  0  0
  -25.2572  -13.8157   20.5691 C   0  0  0  0  0  0
  -24.1837  -13.0437   20.9173 C   0  0  0  0  0  0
  -24.6392  -11.6901   20.8703 C   0  0  0  0  0  0
  -23.9058  -10.4286   21.0390 C   0  0  0  0  0  0
  -24.3612   -9.4209   21.9174 C   0  0  0  0  0  0
  -23.6288   -8.2247   22.0751 C   0  0  0  0  0  0
  -22.4265   -8.0283   21.3549 C   0  0  0  0  0  0
  -21.9905   -9.0254   20.4641 C   0  0  0  0  0  0
  -22.7232  -10.2128   20.3044 C   0  0  0  0  0  0
  -21.6848   -6.0742   22.5285 C   0  0  0  0  0  0
  -21.4010   -6.5649   23.8222 C   0  0  0  0  0  0
  -21.3657   -5.6796   24.9183 C   0  0  0  0  0  0
  -21.6043   -4.3058   24.7228 C   0  0  0  0  0  0
  -21.8820   -3.8153   23.4353 C   0  0  0  0  0  0
  -21.9196   -4.6969   22.3411 C   0  0  0  0  0  0
  -22.7868  -13.5235   21.1850 C   0  0  0  0  0  0
  -22.1667   -4.2150   21.0989 F   0  0  0  0  0  0
  -21.5627   -3.4541   25.7746 F   0  0  0  0  0  0
  -30.0153  -13.4037   20.4689 N   0  0  0  0  0  0
  -26.2991  -12.9337   20.3285 N   0  0  0  0  0  0
  -25.9313  -11.6486   20.5695 N   0  0  0  0  0  0
  -22.0519  -12.8227   22.0407 N   0  0  0  0  0  0
  -25.4317  -15.1884   20.4157 N   0  0  0  0  0  0
  -31.7432  -14.8079   20.0161 O   0  0  0  0  0  0
  -21.6639   -6.8877   21.4242 O   0  0  0  0  0  0
  -22.3552  -14.5554   20.6711 O   0  0  0  0  0  0
  -24.6257  -31.8601   23.2049 C   0  0  0  0  0  0
  -25.9111  -32.4777   23.8386 C   0  0  1  0  0  0
  -27.2242  -27.3232   20.1259 C   0  0  0  0  0  0
  -25.5920  -33.8571   24.2297 N   0  0  0  0  0  0
  -23.4204  -30.4833   21.5479 C   0  0  2  0  0  0
  -24.8689  -28.9382   20.1154 C   0  0  0  0  0  0
  -22.7473  -29.4614   22.4953 C   0  0  0  0  0  0
  -18.0282  -28.1385   22.8505 C   0  0  0  0  0  0
  -24.1469  -36.7285   23.2644 C   0  0  0  0  0  0
  -25.9613  -30.7916   21.3783 C   0  0  0  0  0  0
  -26.0372  -29.4196   20.7213 C   0  0  0  0  0  0
  -27.2207  -28.6236   20.7157 C   0  0  0  0  0  0
  -26.0398  -26.8976   19.4858 C   0  0  0  0  0  0
  -24.8714  -27.6820   19.4885 C   0  0  0  0  0  0
  -23.6358  -29.8174   20.1637 C   0  0  0  0  0  0
  -25.4104  -36.3072   24.0319 C   0  0  1  0  0  0
  -20.5884  -28.3688   23.1278 C   0  0  2  0  0  0
  -20.6768  -26.9413   22.5411 C   0  0  0  0  0  0
  -19.5738  -26.6386   21.5215 C   0  0  0  0  0  0
  -18.1920  -26.7938   22.1624 C   0  0  0  0  0  0
  -19.1539  -28.8856   23.2887 C   0  0  0  0  0  0
  -18.9457  -30.1457   23.8897 C   0  0  0  0  0  0
  -17.6460  -30.6596   24.0555 C   0  0  0  0  0  0
  -25.9053  -34.9440   23.5114 C   0  0  0  0  0  0
  -16.5350  -29.9086   23.6341 C   0  0  0  0  0  0
  -16.7270  -28.6494   23.0380 C   0  0  0  0  0  0
  -26.4521  -31.6594   25.0759 C   0  0  0  0  0  0
  -25.3742  -31.3677   26.1465 C   0  0  0  0  0  0
  -27.0434  -30.3039   24.6234 C   0  0  0  0  0  0
  -27.6057  -32.4371   25.7527 C   0  0  0  0  0  0
  -27.5581  -37.1771   24.8461 C   0  0  0  0  0  0
  -21.4187  -29.3034   22.3675 N   0  0  0  0  0  0
  -26.4273  -37.3776   23.9428 N   0  0  0  0  0  0
  -24.6883  -31.0610   22.1007 N   0  0  0  0  0  0
  -23.4194  -28.8153   23.3034 O   0  0  0  0  0  0
  -28.3305  -26.4645   20.1577 O   0  0  0  0  0  0
  -26.5627  -34.8914   22.4686 O   0  0  0  0  0  0
  -23.5412  -32.1401   23.7367 O   0  0  0  0  0  0
  -30.8684  -17.8816   20.2366 C   0  0  0  0  0  0
  -28.7633  -19.4672   21.1651 C   0  0  0  0  0  0
  -29.8961  -17.2172   21.0345 C   0  0  0  0  0  0
  -30.8053  -19.2752   19.9317 C   0  0  0  0  0  0
  -28.8175  -18.0708   21.4704 C   0  0  0  0  0  0
  -29.7630  -20.1184   20.4028 C   0  0  0  0  0  0
  -30.0659  -15.7431   21.5108 C   0  0  0  0  0  0
  -29.0764  -23.9564   20.1737 C   0  0  0  0  0  0
  -28.0555  -25.0764   20.6092 C   0  0  0  0  0  0
  -28.8192  -22.4539   20.6139 C   0  0  0  0  0  0
  -29.7600  -15.4546   22.7096 N   0  0  0  0  0  0
  -31.8132  -19.8497   19.1601 N   0  0  0  0  0  0
  -27.7567  -17.5857   22.2448 N   0  0  0  0  0  0
  -30.0676  -24.2492   19.4945 O   0  0  0  0  0  0
  -29.7962  -21.4966   20.0860 O   0  0  0  0  0  0
  -31.4757  -12.5206   19.1594 H   0  0  0  0  0  0
  -30.3680  -11.3948   19.8803 H   0  0  0  0  0  0
  -29.7797  -11.7969   17.4711 H   0  0  0  0  0  0
  -29.6541  -13.5128   17.7680 H   0  0  0  0  0  0
  -27.8636  -11.3065   18.8415 H   0  0  0  0  0  0
  -27.3817  -12.6095   17.7888 H   0  0  0  0  0  0
  -27.6891  -14.2586   19.5565 H   0  0  0  0  0  0
  -28.7028  -11.9860   21.3215 H   0  0  0  0  0  0
  -28.3798  -13.5860   21.8756 H   0  0  0  0  0  0
  -25.2746   -9.5703   22.4756 H   0  0  0  0  0  0
  -24.0002   -7.4647   22.7483 H   0  0  0  0  0  0
  -21.0835   -8.8768   19.8950 H   0  0  0  0  0  0
  -22.3677  -10.9671   19.6164 H   0  0  0  0  0  0
  -21.1997   -7.6155   23.9720 H   0  0  0  0  0  0
  -21.1482   -6.0530   25.9083 H   0  0  0  0  0  0
  -22.0600   -2.7617   23.2858 H   0  0  0  0  0  0
  -22.4128  -11.9872   22.4775 H   0  0  0  0  0  0
  -21.1146  -13.1262   22.2619 H   0  0  0  0  0  0
  -24.6700  -15.8467   20.5375 H   0  0  0  0  0  0
  -26.2932  -15.6315   20.1225 H   0  0  0  0  0  0
  -26.7170  -32.5453   23.1132 H   0  0  0  0  0  0
  -25.0028  -33.9711   25.0411 H   0  0  0  0  0  0
  -22.7132  -31.3031   21.4058 H   0  0  0  0  0  0
  -23.3745  -35.9603   23.3267 H   0  0  0  0  0  0
  -24.3551  -36.8986   22.2071 H   0  0  0  0  0  0
  -23.7211  -37.6458   23.6719 H   0  0  0  0  0  0
  -26.0933  -31.5513   20.6080 H   0  0  0  0  0  0
  -26.8394  -30.8392   22.0093 H   0  0  0  0  0  0
  -28.1170  -28.9879   21.1995 H   0  0  0  0  0  0
  -26.0014  -25.9449   18.9790 H   0  0  0  0  0  0
  -23.9760  -27.3104   19.0077 H   0  0  0  0  0  0
  -23.7545  -30.5941   19.4076 H   0  0  0  0  0  0
  -22.7560  -29.2459   19.8647 H   0  0  0  0  0  0
  -25.1274  -36.1915   25.0807 H   0  0  0  0  0  0
  -20.9971  -28.3269   24.1395 H   0  0  0  0  0  0
  -20.5688  -26.2290   23.3610 H   0  0  0  0  0  0
  -21.6631  -26.7449   22.1195 H   0  0  0  0  0  0
  -19.6887  -25.6290   21.1257 H   0  0  0  0  0  0
  -19.6671  -27.3185   20.6732 H   0  0  0  0  0  0
  -17.4200  -26.6706   21.4019 H   0  0  0  0  0  0
  -18.0286  -26.0076   22.9003 H   0  0  0  0  0  0
  -19.7932  -30.7272   24.2267 H   0  0  0  0  0  0
  -17.5020  -31.6273   24.5162 H   0  0  0  0  0  0
  -15.5351  -30.2980   23.7664 H   0  0  0  0  0  0
  -15.8666  -28.0798   22.7113 H   0  0  0  0  0  0
  -24.5943  -30.7021   25.7763 H   0  0  0  0  0  0
  -24.8886  -32.2806   26.4903 H   0  0  0  0  0  0
  -25.8066  -30.8844   27.0231 H   0  0  0  0  0  0
  -26.3041  -29.6703   24.1324 H   0  0  0  0  0  0
  -27.4234  -29.7383   25.4753 H   0  0  0  0  0  0
  -27.8851  -30.4375   23.9433 H   0  0  0  0  0  0
  -27.2673  -33.3697   26.2049 H   0  0  0  0  0  0
  -28.3872  -32.6899   25.0351 H   0  0  0  0  0  0
  -28.0723  -31.8548   26.5482 H   0  0  0  0  0  0
  -28.2531  -38.0135   24.7612 H   0  0  0  0  0  0
  -28.1147  -36.2667   24.6169 H   0  0  0  0  0  0
  -27.2298  -37.1273   25.8859 H   0  0  0  0  0  0
  -20.9368  -29.8761   21.6886 H   0  0  0  0  0  0
  -26.0148  -38.2834   24.1510 H   0  0  0  0  0  0
  -31.7177  -17.3185   19.8822 H   0  0  0  0  0  0
  -27.9376  -20.0532   21.5414 H   0  0  0  0  0  0
  -28.0231  -25.0876   21.6994 H   0  0  0  0  0  0
  -27.0727  -24.7345   20.2905 H   0  0  0  0  0  0
  -27.8199  -22.1622   20.2892 H   0  0  0  0  0  0
  -28.8316  -22.4079   21.7035 H   0  0  0  0  0  0
  -29.3966  -16.2815   23.1727 H   0  0  0  0  0  0
  -32.3532  -19.2637   18.5310 H   0  0  0  0  0  0
  -31.6338  -20.7789   18.7890 H   0  0  0  0  0  0
  -26.9103  -18.1383   22.3422 H   0  0  0  0  0  0
  -27.5869  -16.5863   22.3025 H   0  0  0  0  0  0
  1 25  1  0  0  0
  1 30  2  0  0  0
  1 77  1  0  0  0
  2  3  1  0  0  0
  2 25  1  0  0  0
  2 86  1  0  0  0
  2 87  1  0  0  0
  3  4  1  0  0  0
  3 88  1  0  0  0
  3 89  1  0  0  0
  4  5  1  0  0  0
  4 90  1  0  0  0
  4 91  1  0  0  0
  5  6  1  0  0  0
  5 26  1  0  0  0
  5 92  1  0  0  0
  6 25  1  0  0  0
  6 93  1  0  0  0
  6 94  1  0  0  0
  7  8  2  0  0  0
  7 26  1  0  0  0
  7 29  1  0  0  0
  8  9  1  0  0  0
  8 22  1  0  0  0
  9 10  1  0  0  0
  9 27  2  0  0  0
 10 11  2  0  0  0
 10 15  1  0  0  0
 11 12  1  0  0  0
 11 95  1  0  0  0
 12 13  2  0  0  0
 12 96  1  0  0  0
 13 14  1  0  0  0
 13 31  1  0  0  0
 14 15  2  0  0  0
 14 97  1  0  0  0
 15 98  1  0  0  0
 16 17  2  0  0  0
 16 21  1  0  0  0
 16 31  1  0  0  0
 17 18  1  0  0  0
 17 99  1  0  0  0
 18 19  2  0  0  0
 18100  1  0  0  0
 19 20  1  0  0  0
 19 24  1  0  0  0
 20 21  2  0  0  0
 20101  1  0  0  0
 21 23  1  0  0  0
 22 28  1  0  0  0
 22 32  2  0  0  0
 26 27  1  0  0  0
 28102  1  0  0  0
 28103  1  0  0  0
 29104  1  0  0  0
 29105  1  0  0  0
 33 34  1  0  0  0
 33 66  1  0  0  0
 33 70  2  0  0  0
 34 36  1  0  0  0
 34 59  1  0  0  0
 34106  1  0  0  0
 35 44  2  0  0  0
 35 45  1  0  0  0
 35 68  1  0  0  0
 36 56  1  0  0  0
 36107  1  0  0  0
 37 39  1  0  0  0
 37 47  1  0  0  0
 37 66  1  0  0  0
 37108  1  0  0  0
 38 43  2  0  0  0
 38 46  1  0  0  0
 38 47  1  0  0  0
 39 64  1  0  0  0
 39 67  2  0  0  0
 40 52  1  0  0  0
 40 53  2  0  0  0
 40 58  1  0  0  0
 41109  1  0  0  0
 41110  1  0  0  0
 41111  1  0  0  0
 41 48  1  0  0  0
 42 43  1  0  0  0
 42 66  1  0  0  0
 42112  1  0  0  0
 42113  1  0  0  0
 43 44  1  0  0  0
 44114  1  0  0  0
 45 46  2  0  0  0
 45115  1  0  0  0
 46116  1  0  0  0
 47117  1  0  0  0
 47118  1  0  0  0
 48 56  1  0  0  0
 48 65  1  0  0  0
 48119  1  0  0  0
 49 50  1  0  0  0
 49 53  1  0  0  0
 49 64  1  0  0  0
 49120  1  0  0  0
 50 51  1  0  0  0
 50121  1  0  0  0
 50122  1  0  0  0
 51 52  1  0  0  0
 51123  1  0  0  0
 51124  1  0  0  0
 52125  1  0  0  0
 52126  1  0  0  0
 53 54  1  0  0  0
 54 55  2  0  0  0
 54127  1  0  0  0
 55 57  1  0  0  0
 55128  1  0  0  0
 56 69  2  0  0  0
 57 58  2  0  0  0
 57129  1  0  0  0
 58130  1  0  0  0
 59 60  1  0  0  0
 59 61  1  0  0  0
 59 62  1  0  0  0
 60131  1  0  0  0
 60132  1  0  0  0
 60133  1  0  0  0
 61134  1  0  0  0
 61135  1  0  0  0
 61136  1  0  0  0
 62137  1  0  0  0
 62138  1  0  0  0
 62139  1  0  0  0
 63 65  1  0  0  0
 63140  1  0  0  0
 63141  1  0  0  0
 63142  1  0  0  0
 64143  1  0  0  0
 65144  1  0  0  0
 68 79  1  0  0  0
 71 73  2  0  0  0
 71 74  1  0  0  0
 71145  1  0  0  0
 72 75  2  0  0  0
 72 76  1  0  0  0
 72146  1  0  0  0
 73 75  1  0  0  0
 73 77  1  0  0  0
 74 76  2  0  0  0
 74 82  1  0  0  0
 75 83  1  0  0  0
 76 85  1  0  0  0
 77 81  2  0  0  0
 78 79  1  0  0  0
 78 80  1  0  0  0
 78 84  2  0  0  0
 79147  1  0  0  0
 79148  1  0  0  0
 80 85  1  0  0  0
 80149  1  0  0  0
 80150  1  0  0  0
 81151  1  0  0  0
 82152  1  0  0  0
 82153  1  0  0  0
 83154  1  0  0  0
 83155  1  0  0  0
M  ISO  4   1 100  68 101  77 100  79 101
M  END
> <chiral flag>
0

> <version>
0

> <s_m_source_file>
/data/baiqing/PycharmProjects/Reinvent-master-3.2/result/LINK_invent/BTK/process_docking_weight1_custom_product_contain_oxygen_bond_distance_aromatic_linkinvent_7_9_3/rearranged_h_0106.sdf

> <i_m_source_file_index>
88

> <r_mmod_Potential_Energy-OPLS-2005>
219.102722167969

> <r_mmod_Stretch_Energy-OPLS-2005>
94.8709564208984

> <r_mmod_Bend_Energy-OPLS-2005>
154.585693359375

> <r_mmod_Torsional_Energy-OPLS-2005>
220.137313842773

> <r_mmod_Improper_Torsional_Energy-OPLS-2005>
8.22926044464111

> <r_mmod_Van_der_Waal_Energy-OPLS-2005>
153.639846801758

> <r_mmod_Electrostatic_Energy-OPLS-2005>
-208.770355224609

> <r_mmod_Solvation_Energy-OPLS-2005>
-246.497375488281

> <b_mmod_Minimization_Converged-OPLS-2005>
0

> <r_mmod_RMS_Derivative-OPLS-2005>
2.23472285270691

$$$$
88
                    3D
 Structure written by MMmdl.
158166  0  0  1  0            999 V2000
  -30.7187  -14.4609   20.5363 C   0  0  0  0  0  0
  -30.4098  -12.2855   19.4311 C   0  0  0  0  0  0
  -29.4937  -12.4966   18.2091 C   0  0  0  0  0  0
  -28.0133  -12.3620   18.6159 C   0  0  0  0  0  0
  -27.6556  -13.2124   19.8643 C   0  0  2  0  0  0
  -28.6959  -13.0268   20.9892 C   0  0  0  0  0  0
  -25.2577  -13.8168   20.5680 C   0  0  0  0  0  0
  -24.1823  -13.0436   20.9144 C   0  0  0  0  0  0
  -24.6380  -11.6908   20.8705 C   0  0  0  0  0  0
  -23.9045  -10.4295   21.0391 C   0  0  0  0  0  0
  -24.3603   -9.4218   21.9175 C   0  0  0  0  0  0
  -23.6282   -8.2252   22.0753 C   0  0  0  0  0  0
  -22.4265   -8.0282   21.3545 C   0  0  0  0  0  0
  -21.9897   -9.0245   20.4638 C   0  0  0  0  0  0
  -22.7216  -10.2127   20.3044 C   0  0  0  0  0  0
  -21.6850   -6.0729   22.5275 C   0  0  0  0  0  0
  -21.4015   -6.5637   23.8209 C   0  0  0  0  0  0
  -21.3660   -5.6792   24.9174 C   0  0  0  0  0  0
  -21.6049   -4.3056   24.7228 C   0  0  0  0  0  0
  -21.8819   -3.8143   23.4349 C   0  0  0  0  0  0
  -21.9196   -4.6957   22.3403 C   0  0  0  0  0  0
  -22.7851  -13.5235   21.1827 C   0  0  0  0  0  0
  -22.1660   -4.2136   21.0978 F   0  0  0  0  0  0
  -21.5634   -3.4546   25.7746 F   0  0  0  0  0  0
  -30.0317  -13.2906   20.4362 N   0  0  0  0  0  0
  -26.3000  -12.9342   20.3328 N   0  0  0  0  0  0
  -25.9307  -11.6495   20.5727 N   0  0  0  0  0  0
  -22.0509  -12.8211   22.0385 N   0  0  0  0  0  0
  -25.4340  -15.1883   20.4177 N   0  0  0  0  0  0
  -31.8873  -14.5507   20.1524 O   0  0  0  0  0  0
  -21.6641   -6.8870   21.4235 O   0  0  0  0  0  0
  -22.3532  -14.5547   20.6696 O   0  0  0  0  0  0
  -24.6137  -31.8693   23.2104 C   0  0  0  0  0  0
  -25.9040  -32.4825   23.8399 C   0  0  1  0  0  0
  -27.2279  -27.4441   20.0953 C   0  0  0  0  0  0
  -25.5900  -33.8620   24.2337 N   0  0  0  0  0  0
  -23.4003  -30.4924   21.5519 C   0  0  2  0  0  0
  -24.8448  -28.9592   20.1151 C   0  0  0  0  0  0
  -22.7397  -29.4669   22.5007 C   0  0  0  0  0  0
  -18.0267  -28.1373   22.8493 C   0  0  0  0  0  0
  -24.1480  -36.7312   23.2638 C   0  0  0  0  0  0
  -25.9279  -30.8386   21.3596 C   0  0  0  0  0  0
  -26.0056  -29.4741   20.7065 C   0  0  0  0  0  0
  -27.2039  -28.7262   20.6879 C   0  0  0  0  0  0
  -26.0515  -26.9389   19.5009 C   0  0  0  0  0  0
  -24.8623  -27.6910   19.5083 C   0  0  0  0  0  0
  -23.6063  -29.8241   20.1668 C   0  0  0  0  0  0
  -25.4103  -36.3114   24.0341 C   0  0  1  0  0  0
  -20.5857  -28.3668   23.1322 C   0  0  2  0  0  0
  -20.6758  -26.9411   22.5413 C   0  0  0  0  0  0
  -19.5743  -26.6389   21.5208 C   0  0  0  0  0  0
  -18.1918  -26.7925   22.1616 C   0  0  0  0  0  0
  -19.1515  -28.8834   23.2904 C   0  0  0  0  0  0
  -18.9446  -30.1436   23.8917 C   0  0  0  0  0  0
  -17.6452  -30.6586   24.0566 C   0  0  0  0  0  0
  -25.9037  -34.9474   23.5138 C   0  0  0  0  0  0
  -16.5342  -29.9090   23.6325 C   0  0  0  0  0  0
  -16.7257  -28.6501   23.0354 C   0  0  0  0  0  0
  -26.4472  -31.6588   25.0714 C   0  0  0  0  0  0
  -25.3736  -31.3655   26.1448 C   0  0  0  0  0  0
  -27.0325  -30.3050   24.6063 C   0  0  0  0  0  0
  -27.6045  -32.4305   25.7486 C   0  0  0  0  0  0
  -27.5583  -37.1815   24.8468 C   0  0  0  0  0  0
  -21.4135  -29.3036   22.3737 N   0  0  0  0  0  0
  -26.4299  -37.3798   23.9406 N   0  0  0  0  0  0
  -24.6657  -31.0801   22.0999 N   0  0  0  0  0  0
  -23.4173  -28.8215   23.3049 O   0  0  0  0  0  0
  -28.3870  -26.7045   20.0977 O   0  0  0  0  0  0
  -26.5599  -34.8929   22.4700 O   0  0  0  0  0  0
  -23.5333  -32.1449   23.7501 O   0  0  0  0  0  0
  -28.2164  -19.8215   20.5734 C   0  0  0  0  0  0
  -29.2269  -19.8547   18.3728 C   0  0  0  0  0  0
  -29.3517  -17.7969   19.7247 C   0  0  0  0  0  0
  -28.5047  -20.5159   19.3788 C   0  0  0  0  0  0
  -28.6214  -18.4744   20.7513 C   0  0  0  0  0  0
  -29.6744  -18.5201   18.5361 C   0  0  0  0  0  0
  -29.8441  -16.3754   19.8099 C   0  0  0  0  0  0
  -28.3135  -24.2635   19.6764 C   0  0  0  0  0  0
  -31.0691  -18.6910   16.5664 C   0  0  0  0  0  0
  -28.1680  -22.8256   20.2136 C   0  0  0  0  0  0
  -28.2687  -25.4061   20.7059 C   0  0  0  0  0  0
  -29.9613  -15.5936   20.8269 N   0  0  0  0  0  0
  -28.2731  -17.8512   21.9557 N   0  0  0  0  0  0
  -28.0906  -21.8370   19.1360 N   0  0  0  0  0  0
  -28.4671  -24.4739   18.4657 O   0  0  0  0  0  0
  -30.4334  -17.8943   17.5610 O   0  0  0  0  0  0
  -31.4581  -12.3492   19.1350 H   0  0  0  0  0  0
  -30.2796  -11.2805   19.8356 H   0  0  0  0  0  0
  -29.7318  -11.7734   17.4279 H   0  0  0  0  0  0
  -29.6700  -13.4835   17.7775 H   0  0  0  0  0  0
  -27.8218  -11.3079   18.8188 H   0  0  0  0  0  0
  -27.3661  -12.6316   17.7800 H   0  0  0  0  0  0
  -27.6878  -14.2554   19.5494 H   0  0  0  0  0  0
  -28.6572  -12.0101   21.3837 H   0  0  0  0  0  0
  -28.4742  -13.6838   21.8320 H   0  0  0  0  0  0
  -25.2745   -9.5705   22.4748 H   0  0  0  0  0  0
  -23.9995   -7.4652   22.7482 H   0  0  0  0  0  0
  -21.0836   -8.8747   19.8944 H   0  0  0  0  0  0
  -22.3662  -10.9662   19.6152 H   0  0  0  0  0  0
  -21.2000   -7.6148   23.9702 H   0  0  0  0  0  0
  -21.1484   -6.0531   25.9073 H   0  0  0  0  0  0
  -22.0598   -2.7603   23.2857 H   0  0  0  0  0  0
  -22.4124  -11.9848   22.4727 H   0  0  0  0  0  0
  -21.1131  -13.1231   22.2612 H   0  0  0  0  0  0
  -24.6892  -15.8560   20.5811 H   0  0  0  0  0  0
  -26.3289  -15.6302   20.2411 H   0  0  0  0  0  0
  -26.7111  -32.5539   23.1167 H   0  0  0  0  0  0
  -25.0060  -33.9781   25.0485 H   0  0  0  0  0  0
  -22.6884  -31.3085   21.4127 H   0  0  0  0  0  0
  -23.3751  -35.9643   23.3310 H   0  0  0  0  0  0
  -24.3573  -36.8914   22.2055 H   0  0  0  0  0  0
  -23.7231  -37.6516   23.6643 H   0  0  0  0  0  0
  -26.0360  -31.6045   20.5901 H   0  0  0  0  0  0
  -26.8180  -30.8933   21.9754 H   0  0  0  0  0  0
  -28.1025  -29.1207   21.1411 H   0  0  0  0  0  0
  -26.0497  -25.9684   19.0249 H   0  0  0  0  0  0
  -23.9697  -27.2900   19.0476 H   0  0  0  0  0  0
  -23.7107  -30.5988   19.4064 H   0  0  0  0  0  0
  -22.7302  -29.2420   19.8753 H   0  0  0  0  0  0
  -25.1284  -36.1994   25.0841 H   0  0  0  0  0  0
  -20.9935  -28.3228   24.1448 H   0  0  0  0  0  0
  -20.5670  -26.2274   23.3596 H   0  0  0  0  0  0
  -21.6633  -26.7459   22.1208 H   0  0  0  0  0  0
  -19.6911  -25.6308   21.1224 H   0  0  0  0  0  0
  -19.6680  -27.3207   20.6750 H   0  0  0  0  0  0
  -17.4195  -26.6677   21.4013 H   0  0  0  0  0  0
  -18.0310  -26.0055   22.8995 H   0  0  0  0  0  0
  -19.7925  -30.7237   24.2307 H   0  0  0  0  0  0
  -17.5014  -31.6268   24.5161 H   0  0  0  0  0  0
  -15.5349  -30.3002   23.7633 H   0  0  0  0  0  0
  -15.8653  -28.0825   22.7072 H   0  0  0  0  0  0
  -24.5951  -30.6957   25.7775 H   0  0  0  0  0  0
  -24.8864  -32.2779   26.4899 H   0  0  0  0  0  0
  -25.8094  -30.8837   27.0210 H   0  0  0  0  0  0
  -26.2876  -29.6787   24.1144 H   0  0  0  0  0  0
  -27.4162  -29.7302   25.4501 H   0  0  0  0  0  0
  -27.8666  -30.4407   23.9171 H   0  0  0  0  0  0
  -27.2684  -33.3615   26.2073 H   0  0  0  0  0  0
  -28.3859  -32.6853   25.0310 H   0  0  0  0  0  0
  -28.0709  -31.8417   26.5395 H   0  0  0  0  0  0
  -28.2608  -38.0109   24.7536 H   0  0  0  0  0  0
  -28.1076  -36.2644   24.6283 H   0  0  0  0  0  0
  -27.2294  -37.1458   25.8870 H   0  0  0  0  0  0
  -20.9294  -29.8756   21.6961 H   0  0  0  0  0  0
  -26.0190  -38.2882   24.1399 H   0  0  0  0  0  0
  -27.6557  -20.3185   21.3526 H   0  0  0  0  0  0
  -29.4402  -20.3975   17.4643 H   0  0  0  0  0  0
  -30.1596  -15.9979   18.8306 H   0  0  0  0  0  0
  -31.7757  -18.0775   16.0083 H   0  0  0  0  0  0
  -31.6355  -19.5125   17.0079 H   0  0  0  0  0  0
  -30.3489  -19.0909   15.8521 H   0  0  0  0  0  0
  -27.2715  -22.7692   20.8328 H   0  0  0  0  0  0
  -29.0215  -22.6136   20.8585 H   0  0  0  0  0  0
  -29.0967  -25.2728   21.4012 H   0  0  0  0  0  0
  -27.3534  -25.3204   21.2942 H   0  0  0  0  0  0
  -28.0729  -18.4247   22.7685 H   0  0  0  0  0  0
  -28.7637  -16.9899   22.1849 H   0  0  0  0  0  0
  -28.3584  -22.2410   18.2391 H   0  0  0  0  0  0
  1 25  1  0  0  0
  1 30  2  0  0  0
  1 82  1  0  0  0
  2  3  1  0  0  0
  2 25  1  0  0  0
  2 87  1  0  0  0
  2 88  1  0  0  0
  3  4  1  0  0  0
  3 89  1  0  0  0
  3 90  1  0  0  0
  4  5  1  0  0  0
  4 91  1  0  0  0
  4 92  1  0  0  0
  5  6  1  0  0  0
  5 26  1  0  0  0
  5 93  1  0  0  0
  6 25  1  0  0  0
  6 94  1  0  0  0
  6 95  1  0  0  0
  7  8  2  0  0  0
  7 26  1  0  0  0
  7 29  1  0  0  0
  8  9  1  0  0  0
  8 22  1  0  0  0
  9 10  1  0  0  0
  9 27  2  0  0  0
 10 11  2  0  0  0
 10 15  1  0  0  0
 11 12  1  0  0  0
 11 96  1  0  0  0
 12 13  2  0  0  0
 12 97  1  0  0  0
 13 14  1  0  0  0
 13 31  1  0  0  0
 14 15  2  0  0  0
 14 98  1  0  0  0
 15 99  1  0  0  0
 16 17  2  0  0  0
 16 21  1  0  0  0
 16 31  1  0  0  0
 17 18  1  0  0  0
 17100  1  0  0  0
 18 19  2  0  0  0
 18101  1  0  0  0
 19 20  1  0  0  0
 19 24  1  0  0  0
 20 21  2  0  0  0
 20102  1  0  0  0
 21 23  1  0  0  0
 22 28  1  0  0  0
 22 32  2  0  0  0
 26 27  1  0  0  0
 28103  1  0  0  0
 28104  1  0  0  0
 29105  1  0  0  0
 29106  1  0  0  0
 33 34  1  0  0  0
 33 66  1  0  0  0
 33 70  2  0  0  0
 34 36  1  0  0  0
 34 59  1  0  0  0
 34107  1  0  0  0
 35 44  2  0  0  0
 35 45  1  0  0  0
 35 68  1  0  0  0
 36 56  1  0  0  0
 36108  1  0  0  0
 37 39  1  0  0  0
 37 47  1  0  0  0
 37 66  1  0  0  0
 37109  1  0  0  0
 38 43  2  0  0  0
 38 46  1  0  0  0
 38 47  1  0  0  0
 39 64  1  0  0  0
 39 67  2  0  0  0
 40 52  1  0  0  0
 40 53  2  0  0  0
 40 58  1  0  0  0
 41110  1  0  0  0
 41111  1  0  0  0
 41112  1  0  0  0
 41 48  1  0  0  0
 42 43  1  0  0  0
 42 66  1  0  0  0
 42113  1  0  0  0
 42114  1  0  0  0
 43 44  1  0  0  0
 44115  1  0  0  0
 45 46  2  0  0  0
 45116  1  0  0  0
 46117  1  0  0  0
 47118  1  0  0  0
 47119  1  0  0  0
 48 56  1  0  0  0
 48 65  1  0  0  0
 48120  1  0  0  0
 49 50  1  0  0  0
 49 53  1  0  0  0
 49 64  1  0  0  0
 49121  1  0  0  0
 50 51  1  0  0  0
 50122  1  0  0  0
 50123  1  0  0  0
 51 52  1  0  0  0
 51124  1  0  0  0
 51125  1  0  0  0
 52126  1  0  0  0
 52127  1  0  0  0
 53 54  1  0  0  0
 54 55  2  0  0  0
 54128  1  0  0  0
 55 57  1  0  0  0
 55129  1  0  0  0
 56 69  2  0  0  0
 57 58  2  0  0  0
 57130  1  0  0  0
 58131  1  0  0  0
 59 60  1  0  0  0
 59 61  1  0  0  0
 59 62  1  0  0  0
 60132  1  0  0  0
 60133  1  0  0  0
 60134  1  0  0  0
 61135  1  0  0  0
 61136  1  0  0  0
 61137  1  0  0  0
 62138  1  0  0  0
 62139  1  0  0  0
 62140  1  0  0  0
 63 65  1  0  0  0
 63141  1  0  0  0
 63142  1  0  0  0
 63143  1  0  0  0
 64144  1  0  0  0
 65145  1  0  0  0
 68 81  1  0  0  0
 71 74  2  0  0  0
 71 75  1  0  0  0
 71146  1  0  0  0
 72 74  1  0  0  0
 72 76  2  0  0  0
 72147  1  0  0  0
 73 75  2  0  0  0
 73 76  1  0  0  0
 73 77  1  0  0  0
 74 84  1  0  0  0
 75 83  1  0  0  0
 76 86  1  0  0  0
 77 82  2  0  0  0
 77148  1  0  0  0
 78 80  1  0  0  0
 78 81  1  0  0  0
 78 85  2  0  0  0
 79 86  1  0  0  0
 79149  1  0  0  0
 79150  1  0  0  0
 79151  1  0  0  0
 80 84  1  0  0  0
 80152  1  0  0  0
 80153  1  0  0  0
 81154  1  0  0  0
 81155  1  0  0  0
 83156  1  0  0  0
 83157  1  0  0  0
 84158  1  0  0  0
M  ISO  4   1 100  68 101  81 101  82 100
M  END
> <chiral flag>
0

> <version>
0

> <s_m_source_file>
/data/baiqing/PycharmProjects/Reinvent-master-3.2/result/LINK_invent/BTK/process_docking_weight1_custom_product_contain_oxygen_bond_distance_aromatic_linkinvent_7_9_3/rearranged_h_0106.sdf

> <i_m_source_file_index>
89

> <r_mmod_Potential_Energy-OPLS-2005>
168.168548583984

> <r_mmod_Stretch_Energy-OPLS-2005>
42.8888359069824

> <r_mmod_Bend_Energy-OPLS-2005>
107.876441955566

> <r_mmod_Torsional_Energy-OPLS-2005>
201.674514770508

> <r_mmod_Improper_Torsional_Energy-OPLS-2005>
13.2160806655884

> <r_mmod_Van_der_Waal_Energy-OPLS-2005>
175.786849975586

> <r_mmod_Electrostatic_Energy-OPLS-2005>
-173.145568847656

> <r_mmod_Solvation_Energy-OPLS-2005>
-215.959518432617

> <b_mmod_Minimization_Converged-OPLS-2005>
0

> <r_mmod_RMS_Derivative-OPLS-2005>
1.31096911430359

$$$$
89
                    3D
 Structure written by MMmdl.
176184  0  0  1  0            999 V2000
  -30.7531  -14.5055   20.3872 C   0  0  0  0  0  0
  -30.3998  -12.2832   19.4330 C   0  0  0  0  0  0
  -29.4865  -12.4142   18.1988 C   0  0  0  0  0  0
  -28.0027  -12.3400   18.6198 C   0  0  0  0  0  0
  -27.6393  -13.2130   19.8563 C   0  0  2  0  0  0
  -28.7059  -13.1261   20.9690 C   0  0  0  0  0  0
  -25.2517  -13.8126   20.5808 C   0  0  0  0  0  0
  -24.1783  -13.0383   20.9292 C   0  0  0  0  0  0
  -24.6355  -11.6870   20.8806 C   0  0  0  0  0  0
  -23.9029  -10.4253   21.0439 C   0  0  0  0  0  0
  -24.3589   -9.4172   21.9209 C   0  0  0  0  0  0
  -23.6274   -8.2199   22.0753 C   0  0  0  0  0  0
  -22.4268   -8.0239   21.3523 C   0  0  0  0  0  0
  -21.9895   -9.0223   20.4638 C   0  0  0  0  0  0
  -22.7217  -10.2106   20.3063 C   0  0  0  0  0  0
  -21.6827   -6.0720   22.5282 C   0  0  0  0  0  0
  -21.3987   -6.5628   23.8223 C   0  0  0  0  0  0
  -21.3668   -5.6788   24.9203 C   0  0  0  0  0  0
  -21.6054   -4.3052   24.7242 C   0  0  0  0  0  0
  -21.8824   -3.8135   23.4363 C   0  0  0  0  0  0
  -21.9180   -4.6951   22.3419 C   0  0  0  0  0  0
  -22.7806  -13.5204   21.1924 C   0  0  0  0  0  0
  -22.1635   -4.2134   21.0994 F   0  0  0  0  0  0
  -21.5667   -3.4538   25.7754 F   0  0  0  0  0  0
  -30.0191  -13.3594   20.3535 N   0  0  0  0  0  0
  -26.2933  -12.9289   20.3435 N   0  0  0  0  0  0
  -25.9288  -11.6444   20.5844 N   0  0  0  0  0  0
  -22.0411  -12.8201   22.0458 N   0  0  0  0  0  0
  -25.4190  -15.1845   20.4219 N   0  0  0  0  0  0
  -31.9772  -14.4930   20.2706 O   0  0  0  0  0  0
  -21.6628   -6.8843   21.4222 O   0  0  0  0  0  0
  -22.3498  -14.5502   20.6745 O   0  0  0  0  0  0
  -24.6137  -31.8700   23.2122 C   0  0  0  0  0  0
  -25.9058  -32.4830   23.8388 C   0  0  1  0  0  0
  -27.2310  -27.4559   20.0786 C   0  0  0  0  0  0
  -25.5925  -33.8619   24.2322 N   0  0  0  0  0  0
  -23.3997  -30.4979   21.5533 C   0  0  2  0  0  0
  -24.8426  -28.9739   20.1080 C   0  0  0  0  0  0
  -22.7403  -29.4700   22.4998 C   0  0  0  0  0  0
  -18.0281  -28.1344   22.8550 C   0  0  0  0  0  0
  -24.1501  -36.7321   23.2632 C   0  0  0  0  0  0
  -25.9268  -30.8423   21.3640 C   0  0  0  0  0  0
  -26.0034  -29.4818   20.7039 C   0  0  0  0  0  0
  -27.1979  -28.7312   20.6861 C   0  0  0  0  0  0
  -26.0520  -26.9675   19.4620 C   0  0  0  0  0  0
  -24.8625  -27.7154   19.4855 C   0  0  0  0  0  0
  -23.6032  -29.8355   20.1653 C   0  0  0  0  0  0
  -25.4122  -36.3113   24.0324 C   0  0  1  0  0  0
  -20.5871  -28.3676   23.1286 C   0  0  2  0  0  0
  -20.6862  -26.9462   22.5276 C   0  0  0  0  0  0
  -19.5698  -26.6343   21.5256 C   0  0  0  0  0  0
  -18.1964  -26.7817   22.1858 C   0  0  0  0  0  0
  -19.1529  -28.8848   23.2881 C   0  0  0  0  0  0
  -18.9454  -30.1492   23.8823 C   0  0  0  0  0  0
  -17.6461  -30.6620   24.0510 C   0  0  0  0  0  0
  -25.9037  -34.9481   23.5109 C   0  0  0  0  0  0
  -16.5354  -29.9079   23.6353 C   0  0  0  0  0  0
  -16.7267  -28.6473   23.0406 C   0  0  0  0  0  0
  -26.4486  -31.6593   25.0697 C   0  0  0  0  0  0
  -25.3750  -31.3688   26.1439 C   0  0  0  0  0  0
  -27.0316  -30.3038   24.6069 C   0  0  0  0  0  0
  -27.6079  -32.4287   25.7446 C   0  0  0  0  0  0
  -27.5591  -37.1811   24.8462 C   0  0  0  0  0  0
  -21.4124  -29.3105   22.3774 N   0  0  0  0  0  0
  -26.4318  -37.3794   23.9385 N   0  0  0  0  0  0
  -24.6650  -31.0830   22.1016 N   0  0  0  0  0  0
  -23.4167  -28.8207   23.3009 O   0  0  0  0  0  0
  -28.4043  -26.7302   20.1373 O   0  0  0  0  0  0
  -26.5592  -34.8937   22.4665 O   0  0  0  0  0  0
  -23.5338  -32.1443   23.7526 O   0  0  0  0  0  0
  -28.2542  -17.9595   20.8892 C   0  0  0  0  0  0
  -29.1566  -20.0658   22.5072 C   0  0  0  0  0  0
  -27.3619  -18.9868   21.2638 C   0  0  0  0  0  0
  -29.6115  -17.9856   21.2853 C   0  0  0  0  0  0
  -27.8107  -20.0559   22.0746 C   0  0  0  0  0  0
  -30.0402  -19.0375   22.1283 C   0  0  0  0  0  0
  -25.9231  -18.9217   20.7767 C   0  0  0  0  0  0
  -30.8586  -19.0348   18.1795 C   0  0  0  0  0  0
  -26.9325  -25.4533   22.3744 C   0  0  0  0  0  0
  -29.7097  -15.9420   18.7846 C   0  0  0  0  0  0
  -31.8105  -18.9053   19.3769 C   0  0  0  0  0  0
  -31.8770  -17.5158   20.0653 C   0  0  0  0  0  0
  -27.6110  -23.1929   21.4005 C   0  0  0  0  0  0
  -27.3274  -22.4238   22.7049 C   0  0  0  0  0  0
  -28.3221  -25.2963   20.1770 C   0  0  0  0  0  0
  -30.6323  -16.9242   20.8301 C   0  0  2  0  0  0
  -28.0022  -24.6821   21.5738 C   0  0  1  0  0  0
  -26.8961  -21.0549   22.4466 N   0  0  0  0  0  0
  -30.0953  -15.6840   20.1873 N   0  0  0  0  0  0
  -31.3198  -19.0738   22.5763 F   0  0  0  0  0  0
  -31.4504  -12.3271   19.1378 H   0  0  0  0  0  0
  -30.2618  -11.3138   19.9115 H   0  0  0  0  0  0
  -29.7083  -11.6162   17.4890 H   0  0  0  0  0  0
  -29.6901  -13.3361   17.6588 H   0  0  0  0  0  0
  -27.7972  -11.2930   18.8389 H   0  0  0  0  0  0
  -27.3596  -12.5992   17.7792 H   0  0  0  0  0  0
  -27.6109  -14.2425   19.5239 H   0  0  0  0  0  0
  -28.6831  -12.1474   21.4484 H   0  0  0  0  0  0
  -28.5061  -13.8693   21.7427 H   0  0  0  0  0  0
  -25.2721   -9.5693   22.4807 H   0  0  0  0  0  0
  -24.0003   -7.4598   22.7470 H   0  0  0  0  0  0
  -21.0828   -8.8745   19.8945 H   0  0  0  0  0  0
  -22.3666  -10.9658   19.6188 H   0  0  0  0  0  0
  -21.1931   -7.6127   23.9725 H   0  0  0  0  0  0
  -21.1489   -6.0513   25.9113 H   0  0  0  0  0  0
  -22.0584   -2.7584   23.2871 H   0  0  0  0  0  0
  -22.3987  -11.9853   22.4864 H   0  0  0  0  0  0
  -21.1020  -13.1221   22.2624 H   0  0  0  0  0  0
  -24.6537  -15.8376   20.5474 H   0  0  0  0  0  0
  -26.2793  -15.6238   20.1254 H   0  0  0  0  0  0
  -26.7111  -32.5528   23.1134 H   0  0  0  0  0  0
  -25.0109  -33.9780   25.0489 H   0  0  0  0  0  0
  -22.6873  -31.3150   21.4188 H   0  0  0  0  0  0
  -23.3765  -35.9656   23.3315 H   0  0  0  0  0  0
  -24.3615  -36.8906   22.2046 H   0  0  0  0  0  0
  -23.7260  -37.6528   23.6639 H   0  0  0  0  0  0
  -26.0404  -31.6157   20.6020 H   0  0  0  0  0  0
  -26.8123  -30.8851   21.9861 H   0  0  0  0  0  0
  -28.0910  -29.1151   21.1607 H   0  0  0  0  0  0
  -26.0145  -26.0145   18.9562 H   0  0  0  0  0  0
  -23.9714  -27.3230   19.0142 H   0  0  0  0  0  0
  -23.7038  -30.6150   19.4095 H   0  0  0  0  0  0
  -22.7275  -29.2546   19.8693 H   0  0  0  0  0  0
  -25.1299  -36.1982   25.0819 H   0  0  0  0  0  0
  -20.9948  -28.3216   24.1414 H   0  0  0  0  0  0
  -20.6116  -26.2234   23.3410 H   0  0  0  0  0  0
  -21.6669  -26.7742   22.0812 H   0  0  0  0  0  0
  -19.6858  -25.6238   21.1327 H   0  0  0  0  0  0
  -19.6475  -27.3091   20.6726 H   0  0  0  0  0  0
  -17.4084  -26.6288   21.4470 H   0  0  0  0  0  0
  -18.0649  -26.0077   22.9437 H   0  0  0  0  0  0
  -19.7925  -30.7351   24.2093 H   0  0  0  0  0  0
  -17.5019  -31.6335   24.5043 H   0  0  0  0  0  0
  -15.5350  -30.2950   23.7750 H   0  0  0  0  0  0
  -15.8659  -28.0753   22.7192 H   0  0  0  0  0  0
  -24.5911  -30.7067   25.7747 H   0  0  0  0  0  0
  -24.8972  -32.2845   26.4924 H   0  0  0  0  0  0
  -25.8100  -30.8801   27.0169 H   0  0  0  0  0  0
  -26.2858  -29.6763   24.1180 H   0  0  0  0  0  0
  -27.4140  -29.7295   25.4513 H   0  0  0  0  0  0
  -27.8666  -30.4332   23.9179 H   0  0  0  0  0  0
  -27.2723  -33.3548   26.2123 H   0  0  0  0  0  0
  -28.3853  -32.6895   25.0252 H   0  0  0  0  0  0
  -28.0812  -31.8352   26.5272 H   0  0  0  0  0  0
  -28.2608  -38.0108   24.7493 H   0  0  0  0  0  0
  -28.1076  -36.2629   24.6302 H   0  0  0  0  0  0
  -27.2298  -37.1472   25.8863 H   0  0  0  0  0  0
  -20.9283  -29.8868   21.7044 H   0  0  0  0  0  0
  -26.0205  -38.2866   24.1402 H   0  0  0  0  0  0
  -27.8766  -17.1567   20.2778 H   0  0  0  0  0  0
  -29.5416  -20.8452   23.1452 H   0  0  0  0  0  0
  -25.8001  -18.1779   19.9892 H   0  0  0  0  0  0
  -25.6047  -19.8824   20.3710 H   0  0  0  0  0  0
  -25.2617  -18.6520   21.5997 H   0  0  0  0  0  0
  -31.0409  -19.9658   17.6398 H   0  0  0  0  0  0
  -29.8159  -19.0544   18.4944 H   0  0  0  0  0  0
  -30.9915  -18.2190   17.4695 H   0  0  0  0  0  0
  -26.7608  -25.0237   23.3593 H   0  0  0  0  0  0
  -25.9774  -25.4776   21.8506 H   0  0  0  0  0  0
  -27.2469  -26.4811   22.5529 H   0  0  0  0  0  0
  -30.5747  -15.8692   18.1232 H   0  0  0  0  0  0
  -29.2791  -16.9252   18.6346 H   0  0  0  0  0  0
  -28.9773  -15.2478   18.3973 H   0  0  0  0  0  0
  -31.6093  -19.6983   20.0942 H   0  0  0  0  0  0
  -32.8125  -19.1226   19.0032 H   0  0  0  0  0  0
  -32.6698  -17.6065   20.8093 H   0  0  0  0  0  0
  -32.2852  -16.8027   19.3512 H   0  0  0  0  0  0
  -26.7312  -23.1369   20.7589 H   0  0  0  0  0  0
  -28.4068  -22.6842   20.8551 H   0  0  0  0  0  0
  -26.5031  -22.8971   23.2394 H   0  0  0  0  0  0
  -28.1813  -22.4636   23.3821 H   0  0  0  0  0  0
  -27.6615  -24.8980   19.4117 H   0  0  0  0  0  0
  -29.3009  -24.9219   19.8712 H   0  0  0  0  0  0
  -31.0300  -16.5772   21.7872 H   0  0  0  0  0  0
  -28.9199  -24.7235   22.1616 H   0  0  0  0  0  0
  -25.9493  -20.9526   22.0923 H   0  0  0  0  0  0
  1 25  1  0  0  0
  1 30  2  0  0  0
  1 89  1  0  0  0
  2  3  1  0  0  0
  2 25  1  0  0  0
  2 91  1  0  0  0
  2 92  1  0  0  0
  3  4  1  0  0  0
  3 93  1  0  0  0
  3 94  1  0  0  0
  4  5  1  0  0  0
  4 95  1  0  0  0
  4 96  1  0  0  0
  5  6  1  0  0  0
  5 26  1  0  0  0
  5 97  1  0  0  0
  6 25  1  0  0  0
  6 98  1  0  0  0
  6 99  1  0  0  0
  7  8  2  0  0  0
  7 26  1  0  0  0
  7 29  1  0  0  0
  8  9  1  0  0  0
  8 22  1  0  0  0
  9 10  1  0  0  0
  9 27  2  0  0  0
 10 11  2  0  0  0
 10 15  1  0  0  0
 11 12  1  0  0  0
 11100  1  0  0  0
 12 13  2  0  0  0
 12101  1  0  0  0
 13 14  1  0  0  0
 13 31  1  0  0  0
 14 15  2  0  0  0
 14102  1  0  0  0
 15103  1  0  0  0
 16 17  2  0  0  0
 16 21  1  0  0  0
 16 31  1  0  0  0
 17 18  1  0  0  0
 17104  1  0  0  0
 18 19  2  0  0  0
 18105  1  0  0  0
 19 20  1  0  0  0
 19 24  1  0  0  0
 20 21  2  0  0  0
 20106  1  0  0  0
 21 23  1  0  0  0
 22 28  1  0  0  0
 22 32  2  0  0  0
 26 27  1  0  0  0
 28107  1  0  0  0
 28108  1  0  0  0
 29109  1  0  0  0
 29110  1  0  0  0
 33 34  1  0  0  0
 33 66  1  0  0  0
 33 70  2  0  0  0
 34 36  1  0  0  0
 34 59  1  0  0  0
 34111  1  0  0  0
 35 44  2  0  0  0
 35 45  1  0  0  0
 35 68  1  0  0  0
 36 56  1  0  0  0
 36112  1  0  0  0
 37 39  1  0  0  0
 37 47  1  0  0  0
 37 66  1  0  0  0
 37113  1  0  0  0
 38 43  2  0  0  0
 38 46  1  0  0  0
 38 47  1  0  0  0
 39 64  1  0  0  0
 39 67  2  0  0  0
 40 52  1  0  0  0
 40 53  2  0  0  0
 40 58  1  0  0  0
 41114  1  0  0  0
 41115  1  0  0  0
 41116  1  0  0  0
 41 48  1  0  0  0
 42 43  1  0  0  0
 42 66  1  0  0  0
 42117  1  0  0  0
 42118  1  0  0  0
 43 44  1  0  0  0
 44119  1  0  0  0
 45 46  2  0  0  0
 45120  1  0  0  0
 46121  1  0  0  0
 47122  1  0  0  0
 47123  1  0  0  0
 48 56  1  0  0  0
 48 65  1  0  0  0
 48124  1  0  0  0
 49 50  1  0  0  0
 49 53  1  0  0  0
 49 64  1  0  0  0
 49125  1  0  0  0
 50 51  1  0  0  0
 50126  1  0  0  0
 50127  1  0  0  0
 51 52  1  0  0  0
 51128  1  0  0  0
 51129  1  0  0  0
 52130  1  0  0  0
 52131  1  0  0  0
 53 54  1  0  0  0
 54 55  2  0  0  0
 54132  1  0  0  0
 55 57  1  0  0  0
 55133  1  0  0  0
 56 69  2  0  0  0
 57 58  2  0  0  0
 57134  1  0  0  0
 58135  1  0  0  0
 59 60  1  0  0  0
 59 61  1  0  0  0
 59 62  1  0  0  0
 60136  1  0  0  0
 60137  1  0  0  0
 60138  1  0  0  0
 61139  1  0  0  0
 61140  1  0  0  0
 61141  1  0  0  0
 62142  1  0  0  0
 62143  1  0  0  0
 62144  1  0  0  0
 63 65  1  0  0  0
 63145  1  0  0  0
 63146  1  0  0  0
 63147  1  0  0  0
 64148  1  0  0  0
 65149  1  0  0  0
 68 85  1  0  0  0
 71 73  2  0  0  0
 71 74  1  0  0  0
 71150  1  0  0  0
 72 75  2  0  0  0
 72 76  1  0  0  0
 72151  1  0  0  0
 73 75  1  0  0  0
 73 77  1  0  0  0
 74 76  2  0  0  0
 74 86  1  0  0  0
 75 88  1  0  0  0
 76 90  1  0  0  0
 77152  1  0  0  0
 77153  1  0  0  0
 77154  1  0  0  0
 78 81  1  0  0  0
 78155  1  0  0  0
 78156  1  0  0  0
 78157  1  0  0  0
 79158  1  0  0  0
 79159  1  0  0  0
 79160  1  0  0  0
 79 87  1  0  0  0
 80 89  1  0  0  0
 80161  1  0  0  0
 80162  1  0  0  0
 80163  1  0  0  0
 81 82  1  0  0  0
 81164  1  0  0  0
 81165  1  0  0  0
 82166  1  0  0  0
 82167  1  0  0  0
 82 86  1  0  0  0
 83 84  1  0  0  0
 83 87  1  0  0  0
 83168  1  0  0  0
 83169  1  0  0  0
 84 88  1  0  0  0
 84170  1  0  0  0
 84171  1  0  0  0
 85 87  1  0  0  0
 85172  1  0  0  0
 85173  1  0  0  0
 86 89  1  0  0  0
 86174  1  0  0  0
 87175  1  0  0  0
 88176  1  0  0  0
M  ISO  4   1 100  68 101  85 101  89 100
M  END
> <chiral flag>
0

> <version>
0

> <s_m_source_file>
/data/baiqing/PycharmProjects/Reinvent-master-3.2/result/LINK_invent/BTK/process_docking_weight1_custom_product_contain_oxygen_bond_distance_aromatic_linkinvent_7_9_3/rearranged_h_0106.sdf

> <i_m_source_file_index>
90

> <r_mmod_Potential_Energy-OPLS-2005>
228.472763061523

> <r_mmod_Stretch_Energy-OPLS-2005>
44.8920974731445

> <r_mmod_Bend_Energy-OPLS-2005>
143.091735839844

> <r_mmod_Torsional_Energy-OPLS-2005>
313.246734619141

> <r_mmod_Improper_Torsional_Energy-OPLS-2005>
15.389139175415

> <r_mmod_Van_der_Waal_Energy-OPLS-2005>
170.590927124023

> <r_mmod_Electrostatic_Energy-OPLS-2005>
-311.901519775391

> <r_mmod_Solvation_Energy-OPLS-2005>
-185.920272827148

> <b_mmod_Minimization_Converged-OPLS-2005>
0

> <r_mmod_RMS_Derivative-OPLS-2005>
3.28350114822388

$$$$
90
                    3D
 Structure written by MMmdl.
170179  0  0  1  0            999 V2000
  -30.7987  -14.2834   20.6907 C   0  0  0  0  0  0
  -30.4061  -12.2497   19.3628 C   0  0  0  0  0  0
  -29.4694  -12.5223   18.1726 C   0  0  0  0  0  0
  -27.9947  -12.3845   18.5971 C   0  0  0  0  0  0
  -27.6640  -13.1901   19.8814 C   0  0  2  0  0  0
  -28.7079  -12.8973   20.9821 C   0  0  0  0  0  0
  -25.2555  -13.8118   20.5620 C   0  0  0  0  0  0
  -24.1810  -13.0400   20.9167 C   0  0  0  0  0  0
  -24.6383  -11.6874   20.8761 C   0  0  0  0  0  0
  -23.9054  -10.4264   21.0427 C   0  0  0  0  0  0
  -24.3620   -9.4171   21.9190 C   0  0  0  0  0  0
  -23.6275   -8.2215   22.0766 C   0  0  0  0  0  0
  -22.4246   -8.0270   21.3570 C   0  0  0  0  0  0
  -21.9867   -9.0247   20.4678 C   0  0  0  0  0  0
  -22.7202  -10.2127   20.3109 C   0  0  0  0  0  0
  -21.6845   -6.0714   22.5284 C   0  0  0  0  0  0
  -21.4006   -6.5633   23.8211 C   0  0  0  0  0  0
  -21.3665   -5.6803   24.9186 C   0  0  0  0  0  0
  -21.6052   -4.3066   24.7245 C   0  0  0  0  0  0
  -21.8825   -3.8139   23.4374 C   0  0  0  0  0  0
  -21.9185   -4.6936   22.3420 C   0  0  0  0  0  0
  -22.7845  -13.5210   21.1842 C   0  0  0  0  0  0
  -22.1667   -4.2114   21.1005 F   0  0  0  0  0  0
  -21.5637   -3.4555   25.7760 F   0  0  0  0  0  0
  -30.0533  -13.1775   20.4419 N   0  0  0  0  0  0
  -26.3029  -12.9286   20.3419 N   0  0  0  0  0  0
  -25.9311  -11.6458   20.5816 N   0  0  0  0  0  0
  -22.0500  -12.8240   22.0458 N   0  0  0  0  0  0
  -25.4186  -15.1821   20.3878 N   0  0  0  0  0  0
  -31.8219  -14.5821   20.0638 O   0  0  0  0  0  0
  -21.6635   -6.8844   21.4246 O   0  0  0  0  0  0
  -22.3510  -14.5500   20.6677 O   0  0  0  0  0  0
  -24.6084  -31.8731   23.2142 C   0  0  0  0  0  0
  -25.8999  -32.4852   23.8430 C   0  0  1  0  0  0
  -27.2434  -27.5076   20.0714 C   0  0  0  0  0  0
  -25.5876  -33.8647   24.2368 N   0  0  0  0  0  0
  -23.3927  -30.4965   21.5539 C   0  0  2  0  0  0
  -24.8399  -28.9713   20.1146 C   0  0  0  0  0  0
  -22.7383  -29.4687   22.5033 C   0  0  0  0  0  0
  -18.0256  -28.1349   22.8481 C   0  0  0  0  0  0
  -24.1482  -36.7336   23.2640 C   0  0  0  0  0  0
  -25.9146  -30.8632   21.3525 C   0  0  0  0  0  0
  -25.9954  -29.5028   20.6994 C   0  0  0  0  0  0
  -27.2020  -28.7790   20.6718 C   0  0  0  0  0  0
  -26.0728  -26.9743   19.4850 C   0  0  0  0  0  0
  -24.8702  -27.7036   19.5066 C   0  0  0  0  0  0
  -23.5962  -29.8258   20.1682 C   0  0  0  0  0  0
  -25.4093  -36.3137   24.0355 C   0  0  1  0  0  0
  -20.5850  -28.3641   23.1325 C   0  0  2  0  0  0
  -20.6747  -26.9396   22.5387 C   0  0  0  0  0  0
  -19.5730  -26.6418   21.5168 C   0  0  0  0  0  0
  -18.1909  -26.7913   22.1583 C   0  0  0  0  0  0
  -19.1506  -28.8805   23.2909 C   0  0  0  0  0  0
  -18.9439  -30.1404   23.8931 C   0  0  0  0  0  0
  -17.6445  -30.6554   24.0568 C   0  0  0  0  0  0
  -25.9020  -34.9498   23.5159 C   0  0  0  0  0  0
  -16.5334  -29.9068   23.6305 C   0  0  0  0  0  0
  -16.7247  -28.6483   23.0327 C   0  0  0  0  0  0
  -26.4441  -31.6600   25.0728 C   0  0  0  0  0  0
  -25.3727  -31.3692   26.1498 C   0  0  0  0  0  0
  -27.0256  -30.3053   24.6035 C   0  0  0  0  0  0
  -27.6041  -32.4302   25.7477 C   0  0  0  0  0  0
  -27.5582  -37.1815   24.8464 C   0  0  0  0  0  0
  -21.4122  -29.3034   22.3763 N   0  0  0  0  0  0
  -26.4288  -37.3813   23.9422 N   0  0  0  0  0  0
  -24.6568  -31.0897   22.1000 N   0  0  0  0  0  0
  -23.4191  -28.8237   23.3053 O   0  0  0  0  0  0
  -28.4269  -26.8132   20.1057 O   0  0  0  0  0  0
  -26.5590  -34.8942   22.4723 O   0  0  0  0  0  0
  -23.5295  -32.1451   23.7572 O   0  0  0  0  0  0
  -25.8316  -20.0295   20.9749 C   0  0  0  0  0  0
  -27.9723  -20.8327   20.1412 C   0  0  0  0  0  0
  -25.4140  -21.3583   21.1862 C   0  0  0  0  0  0
  -27.5600  -22.1490   20.3598 C   0  0  0  0  0  0
  -27.1385  -19.7565   20.5132 C   0  0  0  0  0  0
  -26.3072  -22.4199   20.9443 C   0  0  0  0  0  0
  -27.8208  -25.3636   21.9874 C   0  0  0  0  0  0
  -27.7470  -17.8370   21.9977 C   0  0  0  0  0  0
  -29.0254  -18.1663   19.8334 C   0  0  0  0  0  0
  -28.3723  -16.4434   22.1394 C   0  0  0  0  0  0
  -29.5831  -16.7578   19.9671 C   0  0  0  0  0  0
  -27.6572  -18.3231   20.5331 C   0  0  2  0  0  0
  -29.7538  -16.3752   21.4629 C   0  0  2  0  0  0
  -31.0431  -14.9159   22.9813 C   0  0  0  0  0  0
  -26.9274  -24.1840   22.3935 C   0  0  0  0  0  0
  -28.3160  -25.4567   20.5300 C   0  0  0  0  0  0
  -25.9899  -23.7124   21.3675 N   0  0  0  0  0  0
  -30.3503  -15.0495   21.6983 N   0  0  0  0  0  0
  -28.1630  -26.1973   22.8314 O   0  0  0  0  0  0
  -31.4486  -12.3405   19.0555 H   0  0  0  0  0  0
  -30.2900  -11.2214   19.7072 H   0  0  0  0  0  0
  -29.6901  -11.8348   17.3546 H   0  0  0  0  0  0
  -29.6495  -13.5252   17.7839 H   0  0  0  0  0  0
  -27.7946  -11.3252   18.7638 H   0  0  0  0  0  0
  -27.3381  -12.6940   17.7820 H   0  0  0  0  0  0
  -27.7225  -14.2441   19.6270 H   0  0  0  0  0  0
  -28.6555  -11.8460   21.2694 H   0  0  0  0  0  0
  -28.4741  -13.4492   21.8926 H   0  0  0  0  0  0
  -25.2790   -9.5602   22.4742 H   0  0  0  0  0  0
  -23.9973   -7.4583   22.7468 H   0  0  0  0  0  0
  -21.0795   -8.8784   19.8980 H   0  0  0  0  0  0
  -22.3666  -10.9692   19.6247 H   0  0  0  0  0  0
  -21.1983   -7.6140   23.9677 H   0  0  0  0  0  0
  -21.1518   -6.0565   25.9082 H   0  0  0  0  0  0
  -22.0583   -2.7594   23.2918 H   0  0  0  0  0  0
  -22.4098  -11.9918   22.4889 H   0  0  0  0  0  0
  -21.1113  -13.1260   22.2637 H   0  0  0  0  0  0
  -24.6499  -15.8345   20.4913 H   0  0  0  0  0  0
  -26.2736  -15.6202   20.0751 H   0  0  0  0  0  0
  -26.7094  -32.5596   23.1235 H   0  0  0  0  0  0
  -25.0017  -33.9818   25.0507 H   0  0  0  0  0  0
  -22.6775  -31.3101   21.4168 H   0  0  0  0  0  0
  -23.3737  -35.9679   23.3314 H   0  0  0  0  0  0
  -24.3591  -36.8924   22.2055 H   0  0  0  0  0  0
  -23.7236  -37.6552   23.6625 H   0  0  0  0  0  0
  -26.0134  -31.6292   20.5815 H   0  0  0  0  0  0
  -26.8078  -30.9226   21.9625 H   0  0  0  0  0  0
  -28.0965  -29.1870   21.1234 H   0  0  0  0  0  0
  -26.0812  -26.0050   19.0080 H   0  0  0  0  0  0
  -23.9816  -27.2870   19.0536 H   0  0  0  0  0  0
  -23.6951  -30.5981   19.4045 H   0  0  0  0  0  0
  -22.7231  -29.2364   19.8786 H   0  0  0  0  0  0
  -25.1261  -36.2020   25.0848 H   0  0  0  0  0  0
  -20.9935  -28.3176   24.1445 H   0  0  0  0  0  0
  -20.5637  -26.2246   23.3550 H   0  0  0  0  0  0
  -21.6618  -26.7450   22.1169 H   0  0  0  0  0  0
  -19.6908  -25.6371   21.1099 H   0  0  0  0  0  0
  -19.6648  -27.3300   20.6754 H   0  0  0  0  0  0
  -17.4196  -26.6700   21.3958 H   0  0  0  0  0  0
  -18.0297  -26.0007   22.8932 H   0  0  0  0  0  0
  -19.7914  -30.7185   24.2351 H   0  0  0  0  0  0
  -17.5000  -31.6226   24.5184 H   0  0  0  0  0  0
  -15.5336  -30.2985   23.7590 H   0  0  0  0  0  0
  -15.8647  -28.0805   22.7035 H   0  0  0  0  0  0
  -24.5887  -30.7049   25.7845 H   0  0  0  0  0  0
  -24.8930  -32.2844   26.4976 H   0  0  0  0  0  0
  -25.8092  -30.8845   27.0240 H   0  0  0  0  0  0
  -26.2775  -29.6837   24.1095 H   0  0  0  0  0  0
  -27.4078  -29.7250   25.4445 H   0  0  0  0  0  0
  -27.8587  -30.4414   23.9131 H   0  0  0  0  0  0
  -27.2671  -33.3583   26.2110 H   0  0  0  0  0  0
  -28.3802  -32.6889   25.0261 H   0  0  0  0  0  0
  -28.0760  -31.8391   26.5337 H   0  0  0  0  0  0
  -28.2606  -38.0108   24.7529 H   0  0  0  0  0  0
  -28.1074  -36.2650   24.6255 H   0  0  0  0  0  0
  -27.2327  -37.1434   25.8875 H   0  0  0  0  0  0
  -20.9287  -29.8766   21.6994 H   0  0  0  0  0  0
  -26.0190  -38.2900   24.1406 H   0  0  0  0  0  0
  -25.1673  -19.2171   21.2361 H   0  0  0  0  0  0
  -28.9671  -20.6948   19.7467 H   0  0  0  0  0  0
  -24.4352  -21.5420   21.6065 H   0  0  0  0  0  0
  -28.2646  -22.9252   20.1205 H   0  0  0  0  0  0
  -28.3420  -18.5426   22.5783 H   0  0  0  0  0  0
  -26.7573  -17.8256   22.4566 H   0  0  0  0  0  0
  -28.9453  -18.4352   18.7791 H   0  0  0  0  0  0
  -29.7674  -18.8269   20.2822 H   0  0  0  0  0  0
  -27.7051  -15.6982   21.7117 H   0  0  0  0  0  0
  -28.4448  -16.1991   23.2001 H   0  0  0  0  0  0
  -30.5389  -16.7365   19.4415 H   0  0  0  0  0  0
  -28.9251  -16.0644   19.4469 H   0  0  0  0  0  0
  -26.9331  -17.7066   19.9980 H   0  0  0  0  0  0
  -30.4109  -17.1159   21.9221 H   0  0  0  0  0  0
  -32.0333  -15.3696   22.9293 H   0  0  0  0  0  0
  -31.1695  -13.8651   23.2498 H   0  0  0  0  0  0
  -30.4952  -15.3952   23.7933 H   0  0  0  0  0  0
  -26.3403  -24.4998   23.2564 H   0  0  0  0  0  0
  -27.5711  -23.3797   22.7511 H   0  0  0  0  0  0
  -27.6711  -24.9062   19.8498 H   0  0  0  0  0  0
  -29.3007  -24.9946   20.4720 H   0  0  0  0  0  0
  -25.0216  -23.8223   21.6544 H   0  0  0  0  0  0
  1 25  1  0  0  0
  1 30  2  0  0  0
  1 88  1  0  0  0
  2  3  1  0  0  0
  2 25  1  0  0  0
  2 90  1  0  0  0
  2 91  1  0  0  0
  3  4  1  0  0  0
  3 92  1  0  0  0
  3 93  1  0  0  0
  4  5  1  0  0  0
  4 94  1  0  0  0
  4 95  1  0  0  0
  5  6  1  0  0  0
  5 26  1  0  0  0
  5 96  1  0  0  0
  6 25  1  0  0  0
  6 97  1  0  0  0
  6 98  1  0  0  0
  7  8  2  0  0  0
  7 26  1  0  0  0
  7 29  1  0  0  0
  8  9  1  0  0  0
  8 22  1  0  0  0
  9 10  1  0  0  0
  9 27  2  0  0  0
 10 11  2  0  0  0
 10 15  1  0  0  0
 11 12  1  0  0  0
 11 99  1  0  0  0
 12 13  2  0  0  0
 12100  1  0  0  0
 13 14  1  0  0  0
 13 31  1  0  0  0
 14 15  2  0  0  0
 14101  1  0  0  0
 15102  1  0  0  0
 16 17  2  0  0  0
 16 21  1  0  0  0
 16 31  1  0  0  0
 17 18  1  0  0  0
 17103  1  0  0  0
 18 19  2  0  0  0
 18104  1  0  0  0
 19 20  1  0  0  0
 19 24  1  0  0  0
 20 21  2  0  0  0
 20105  1  0  0  0
 21 23  1  0  0  0
 22 28  1  0  0  0
 22 32  2  0  0  0
 26 27  1  0  0  0
 28106  1  0  0  0
 28107  1  0  0  0
 29108  1  0  0  0
 29109  1  0  0  0
 33 34  1  0  0  0
 33 66  1  0  0  0
 33 70  2  0  0  0
 34 36  1  0  0  0
 34 59  1  0  0  0
 34110  1  0  0  0
 35 44  2  0  0  0
 35 45  1  0  0  0
 35 68  1  0  0  0
 36 56  1  0  0  0
 36111  1  0  0  0
 37 39  1  0  0  0
 37 47  1  0  0  0
 37 66  1  0  0  0
 37112  1  0  0  0
 38 43  2  0  0  0
 38 46  1  0  0  0
 38 47  1  0  0  0
 39 64  1  0  0  0
 39 67  2  0  0  0
 40 52  1  0  0  0
 40 53  2  0  0  0
 40 58  1  0  0  0
 41113  1  0  0  0
 41114  1  0  0  0
 41115  1  0  0  0
 41 48  1  0  0  0
 42 43  1  0  0  0
 42 66  1  0  0  0
 42116  1  0  0  0
 42117  1  0  0  0
 43 44  1  0  0  0
 44118  1  0  0  0
 45 46  2  0  0  0
 45119  1  0  0  0
 46120  1  0  0  0
 47121  1  0  0  0
 47122  1  0  0  0
 48 56  1  0  0  0
 48 65  1  0  0  0
 48123  1  0  0  0
 49 50  1  0  0  0
 49 53  1  0  0  0
 49 64  1  0  0  0
 49124  1  0  0  0
 50 51  1  0  0  0
 50125  1  0  0  0
 50126  1  0  0  0
 51 52  1  0  0  0
 51127  1  0  0  0
 51128  1  0  0  0
 52129  1  0  0  0
 52130  1  0  0  0
 53 54  1  0  0  0
 54 55  2  0  0  0
 54131  1  0  0  0
 55 57  1  0  0  0
 55132  1  0  0  0
 56 69  2  0  0  0
 57 58  2  0  0  0
 57133  1  0  0  0
 58134  1  0  0  0
 59 60  1  0  0  0
 59 61  1  0  0  0
 59 62  1  0  0  0
 60135  1  0  0  0
 60136  1  0  0  0
 60137  1  0  0  0
 61138  1  0  0  0
 61139  1  0  0  0
 61140  1  0  0  0
 62141  1  0  0  0
 62142  1  0  0  0
 62143  1  0  0  0
 63 65  1  0  0  0
 63144  1  0  0  0
 63145  1  0  0  0
 63146  1  0  0  0
 64147  1  0  0  0
 65148  1  0  0  0
 68 86  1  0  0  0
 71 73  2  0  0  0
 71 75  1  0  0  0
 71149  1  0  0  0
 72 74  1  0  0  0
 72 75  2  0  0  0
 72150  1  0  0  0
 73 76  1  0  0  0
 73151  1  0  0  0
 74 76  2  0  0  0
 74152  1  0  0  0
 75 82  1  0  0  0
 76 87  1  0  0  0
 77 85  1  0  0  0
 77 86  1  0  0  0
 77 89  2  0  0  0
 78 80  1  0  0  0
 78 82  1  0  0  0
 78153  1  0  0  0
 78154  1  0  0  0
 79 81  1  0  0  0
 79 82  1  0  0  0
 79155  1  0  0  0
 79156  1  0  0  0
 80 83  1  0  0  0
 80157  1  0  0  0
 80158  1  0  0  0
 81 83  1  0  0  0
 81159  1  0  0  0
 81160  1  0  0  0
 82161  1  0  0  0
 83 88  1  0  0  0
 83162  1  0  0  0
 84 88  1  0  0  0
 84163  1  0  0  0
 84164  1  0  0  0
 84165  1  0  0  0
 85 87  1  0  0  0
 85166  1  0  0  0
 85167  1  0  0  0
 86168  1  0  0  0
 86169  1  0  0  0
 87170  1  0  0  0
M  ISO  4   1 100  68 101  86 101  88 100
M  END
> <chiral flag>
0

> <version>
0

> <s_m_source_file>
/data/baiqing/PycharmProjects/Reinvent-master-3.2/result/LINK_invent/BTK/process_docking_weight1_custom_product_contain_oxygen_bond_distance_aromatic_linkinvent_7_9_3/rearranged_h_0106.sdf

> <i_m_source_file_index>
91

> <r_mmod_Potential_Energy-OPLS-2005>
212.327407836914

> <r_mmod_Stretch_Energy-OPLS-2005>
33.8262100219727

> <r_mmod_Bend_Energy-OPLS-2005>
96.6585464477539

> <r_mmod_Torsional_Energy-OPLS-2005>
333.957580566406

> <r_mmod_Improper_Torsional_Energy-OPLS-2005>
9.91382026672363

> <r_mmod_Van_der_Waal_Energy-OPLS-2005>
172.639144897461

> <r_mmod_Electrostatic_Energy-OPLS-2005>
-239.696090698242

> <r_mmod_Solvation_Energy-OPLS-2005>
-204.981506347656

> <b_mmod_Minimization_Converged-OPLS-2005>
0

> <r_mmod_RMS_Derivative-OPLS-2005>
2.36206007003784

$$$$
91
                    3D
 Structure written by MMmdl.
158166  0  0  1  0            999 V2000
  -30.7123  -14.4437   20.5410 C   0  0  0  0  0  0
  -30.4163  -12.2749   19.4397 C   0  0  0  0  0  0
  -29.5000  -12.4908   18.2173 C   0  0  0  0  0  0
  -28.0159  -12.3685   18.6197 C   0  0  0  0  0  0
  -27.6607  -13.2070   19.8773 C   0  0  2  0  0  0
  -28.6982  -12.9800   20.9995 C   0  0  0  0  0  0
  -25.2578  -13.8162   20.5687 C   0  0  0  0  0  0
  -24.1826  -13.0438   20.9183 C   0  0  0  0  0  0
  -24.6378  -11.6912   20.8726 C   0  0  0  0  0  0
  -23.9045  -10.4293   21.0396 C   0  0  0  0  0  0
  -24.3608   -9.4211   21.9178 C   0  0  0  0  0  0
  -23.6295   -8.2242   22.0752 C   0  0  0  0  0  0
  -22.4276   -8.0269   21.3540 C   0  0  0  0  0  0
  -21.9901   -9.0241   20.4647 C   0  0  0  0  0  0
  -22.7220  -10.2130   20.3053 C   0  0  0  0  0  0
  -21.6851   -6.0727   22.5278 C   0  0  0  0  0  0
  -21.4011   -6.5637   23.8209 C   0  0  0  0  0  0
  -21.3665   -5.6792   24.9180 C   0  0  0  0  0  0
  -21.6051   -4.3052   24.7226 C   0  0  0  0  0  0
  -21.8816   -3.8142   23.4345 C   0  0  0  0  0  0
  -21.9196   -4.6959   22.3409 C   0  0  0  0  0  0
  -22.7849  -13.5230   21.1852 C   0  0  0  0  0  0
  -22.1660   -4.2146   21.0980 F   0  0  0  0  0  0
  -21.5643   -3.4538   25.7739 F   0  0  0  0  0  0
  -30.0326  -13.2685   20.4554 N   0  0  0  0  0  0
  -26.3007  -12.9340   20.3360 N   0  0  0  0  0  0
  -25.9303  -11.6494   20.5758 N   0  0  0  0  0  0
  -22.0485  -12.8237   22.0416 N   0  0  0  0  0  0
  -25.4285  -15.1883   20.4111 N   0  0  0  0  0  0
  -31.8764  -14.5419   20.1414 O   0  0  0  0  0  0
  -21.6641   -6.8866   21.4238 O   0  0  0  0  0  0
  -22.3546  -14.5541   20.6712 O   0  0  0  0  0  0
  -24.6102  -31.8725   23.2118 C   0  0  0  0  0  0
  -25.9026  -32.4847   23.8389 C   0  0  1  0  0  0
  -27.2292  -27.4731   20.0744 C   0  0  0  0  0  0
  -25.5908  -33.8638   24.2335 N   0  0  0  0  0  0
  -23.3948  -30.4993   21.5512 C   0  0  2  0  0  0
  -24.8370  -28.9701   20.1136 C   0  0  0  0  0  0
  -22.7388  -29.4692   22.4974 C   0  0  0  0  0  0
  -18.0288  -28.1388   22.8514 C   0  0  0  0  0  0
  -24.1502  -36.7317   23.2632 C   0  0  0  0  0  0
  -25.9207  -30.8466   21.3629 C   0  0  0  0  0  0
  -25.9938  -29.4834   20.7115 C   0  0  0  0  0  0
  -27.1878  -28.7363   20.6986 C   0  0  0  0  0  0
  -26.0509  -26.9642   19.4781 C   0  0  0  0  0  0
  -24.8567  -27.7067   19.5013 C   0  0  0  0  0  0
  -23.6009  -29.8351   20.1640 C   0  0  0  0  0  0
  -25.4122  -36.3120   24.0337 C   0  0  1  0  0  0
  -20.5877  -28.3669   23.1337 C   0  0  2  0  0  0
  -20.6790  -26.9415   22.5414 C   0  0  0  0  0  0
  -19.5758  -26.6398   21.5228 C   0  0  0  0  0  0
  -18.1938  -26.7943   22.1638 C   0  0  0  0  0  0
  -19.1538  -28.8841   23.2936 C   0  0  0  0  0  0
  -18.9463  -30.1451   23.8940 C   0  0  0  0  0  0
  -17.6464  -30.6597   24.0574 C   0  0  0  0  0  0
  -25.9039  -34.9488   23.5124 C   0  0  0  0  0  0
  -16.5357  -29.9105   23.6322 C   0  0  0  0  0  0
  -16.7276  -28.6521   23.0352 C   0  0  0  0  0  0
  -26.4460  -31.6610   25.0699 C   0  0  0  0  0  0
  -25.3721  -31.3755   26.1453 C   0  0  0  0  0  0
  -27.0264  -30.3042   24.6058 C   0  0  0  0  0  0
  -27.6055  -32.4304   25.7453 C   0  0  0  0  0  0
  -27.5599  -37.1816   24.8462 C   0  0  0  0  0  0
  -21.4120  -29.3047   22.3729 N   0  0  0  0  0  0
  -26.4311  -37.3802   23.9406 N   0  0  0  0  0  0
  -24.6599  -31.0862   22.1010 N   0  0  0  0  0  0
  -23.4189  -28.8230   23.2992 O   0  0  0  0  0  0
  -28.4368  -26.8149   20.0693 O   0  0  0  0  0  0
  -26.5582  -34.8935   22.4676 O   0  0  0  0  0  0
  -23.5305  -32.1465   23.7530 O   0  0  0  0  0  0
  -28.5377  -18.3831   21.2571 C   0  0  0  0  0  0
  -29.8290  -20.5570   20.0461 C   0  0  0  0  0  0
  -29.7491  -18.1633   20.5578 C   0  0  0  0  0  0
  -30.3965  -19.2746   19.9569 C   0  0  0  0  0  0
  -27.9745  -19.6771   21.3407 C   0  0  0  0  0  0
  -28.6160  -20.7817   20.7376 C   0  0  0  0  0  0
  -30.3386  -16.8159   20.4100 C   0  0  0  0  0  0
  -29.9339  -15.6279   20.9123 C   0  0  0  0  0  0
  -31.7037  -19.1427   19.1848 C   0  0  0  0  0  0
  -27.9627  -24.4347   20.3979 C   0  0  0  0  0  0
  -28.5402  -25.5271   19.4784 C   0  0  0  0  0  0
  -28.6193  -23.0883   20.1025 C   0  0  0  0  0  0
  -26.7670  -19.8784   22.0087 N   0  0  0  0  0  0
  -28.0306  -22.0299   20.8530 O   0  0  0  0  0  0
  -31.4639  -12.3516   19.1437 H   0  0  0  0  0  0
  -30.2992  -11.2656   19.8375 H   0  0  0  0  0  0
  -29.7367  -11.7649   17.4387 H   0  0  0  0  0  0
  -29.6862  -13.4759   17.7861 H   0  0  0  0  0  0
  -27.8137  -11.3142   18.8098 H   0  0  0  0  0  0
  -27.3744  -12.6538   17.7854 H   0  0  0  0  0  0
  -27.7061  -14.2565   19.5841 H   0  0  0  0  0  0
  -28.6649  -11.9423   21.3365 H   0  0  0  0  0  0
  -28.4689  -13.5698   21.8862 H   0  0  0  0  0  0
  -25.2751   -9.5709   22.4758 H   0  0  0  0  0  0
  -24.0019   -7.4636   22.7472 H   0  0  0  0  0  0
  -21.0830   -8.8739   19.8955 H   0  0  0  0  0  0
  -22.3651  -10.9668   19.6168 H   0  0  0  0  0  0
  -21.1981   -7.6144   23.9717 H   0  0  0  0  0  0
  -21.1500   -6.0516   25.9081 H   0  0  0  0  0  0
  -22.0594   -2.7602   23.2839 H   0  0  0  0  0  0
  -22.4084  -11.9897   22.4809 H   0  0  0  0  0  0
  -21.1107  -13.1288   22.2616 H   0  0  0  0  0  0
  -24.6625  -15.8430   20.5275 H   0  0  0  0  0  0
  -26.2837  -15.6308   20.0995 H   0  0  0  0  0  0
  -26.7095  -32.5574   23.1153 H   0  0  0  0  0  0
  -25.0103  -33.9808   25.0510 H   0  0  0  0  0  0
  -22.6837  -31.3161   21.4144 H   0  0  0  0  0  0
  -23.3775  -35.9637   23.3280 H   0  0  0  0  0  0
  -24.3616  -36.8934   22.2051 H   0  0  0  0  0  0
  -23.7235  -37.6510   23.6653 H   0  0  0  0  0  0
  -26.0293  -31.6141   20.5957 H   0  0  0  0  0  0
  -26.8105  -30.8975   21.9785 H   0  0  0  0  0  0
  -28.0829  -29.1288   21.1615 H   0  0  0  0  0  0
  -26.0267  -26.0072   18.9806 H   0  0  0  0  0  0
  -23.9661  -27.3074   19.0356 H   0  0  0  0  0  0
  -23.7099  -30.6101   19.4048 H   0  0  0  0  0  0
  -22.7258  -29.2540   19.8675 H   0  0  0  0  0  0
  -25.1303  -36.1975   25.0829 H   0  0  0  0  0  0
  -20.9998  -28.3224   24.1446 H   0  0  0  0  0  0
  -20.5744  -26.2263   23.3589 H   0  0  0  0  0  0
  -21.6654  -26.7501   22.1166 H   0  0  0  0  0  0
  -19.6920  -25.6314   21.1242 H   0  0  0  0  0  0
  -19.6698  -27.3222   20.6773 H   0  0  0  0  0  0
  -17.4216  -26.6718   21.4033 H   0  0  0  0  0  0
  -18.0325  -26.0079   22.9022 H   0  0  0  0  0  0
  -19.7936  -30.7267   24.2325 H   0  0  0  0  0  0
  -17.5022  -31.6290   24.5157 H   0  0  0  0  0  0
  -15.5358  -30.3025   23.7622 H   0  0  0  0  0  0
  -15.8682  -28.0853   22.7038 H   0  0  0  0  0  0
  -24.5835  -30.7185   25.7774 H   0  0  0  0  0  0
  -24.9001  -32.2949   26.4926 H   0  0  0  0  0  0
  -25.8038  -30.8864   27.0191 H   0  0  0  0  0  0
  -26.2793  -29.6823   24.1113 H   0  0  0  0  0  0
  -27.4034  -29.7261   25.4503 H   0  0  0  0  0  0
  -27.8635  -30.4357   23.9196 H   0  0  0  0  0  0
  -27.2708  -33.3612   26.2045 H   0  0  0  0  0  0
  -28.3863  -32.6838   25.0269 H   0  0  0  0  0  0
  -28.0723  -31.8406   26.5353 H   0  0  0  0  0  0
  -28.2602  -38.0129   24.7528 H   0  0  0  0  0  0
  -28.1112  -36.2658   24.6267 H   0  0  0  0  0  0
  -27.2324  -37.1430   25.8867 H   0  0  0  0  0  0
  -20.9245  -29.8778   21.6981 H   0  0  0  0  0  0
  -26.0198  -38.2876   24.1414 H   0  0  0  0  0  0
  -28.0262  -17.5524   21.7200 H   0  0  0  0  0  0
  -30.3579  -21.3600   19.5570 H   0  0  0  0  0  0
  -31.2149  -16.7900   19.7819 H   0  0  0  0  0  0
  -29.0671  -15.5717   21.5494 H   0  0  0  0  0  0
  -32.1292  -20.1183   18.9500 H   0  0  0  0  0  0
  -31.5394  -18.6200   18.2417 H   0  0  0  0  0  0
  -32.4547  -18.6049   19.7638 H   0  0  0  0  0  0
  -26.8825  -24.3610   20.2817 H   0  0  0  0  0  0
  -28.1487  -24.6946   21.4405 H   0  0  0  0  0  0
  -28.1077  -25.4917   18.4774 H   0  0  0  0  0  0
  -29.6075  -25.3560   19.3347 H   0  0  0  0  0  0
  -29.6752  -23.1931   20.3558 H   0  0  0  0  0  0
  -28.5431  -22.8668   19.0368 H   0  0  0  0  0  0
  -26.4328  -19.1922   22.6771 H   0  0  0  0  0  0
  -26.5087  -20.8367   22.2272 H   0  0  0  0  0  0
  1 25  1  0  0  0
  1 30  2  0  0  0
  1 78  1  0  0  0
  2  3  1  0  0  0
  2 25  1  0  0  0
  2 85  1  0  0  0
  2 86  1  0  0  0
  3  4  1  0  0  0
  3 87  1  0  0  0
  3 88  1  0  0  0
  4  5  1  0  0  0
  4 89  1  0  0  0
  4 90  1  0  0  0
  5  6  1  0  0  0
  5 26  1  0  0  0
  5 91  1  0  0  0
  6 25  1  0  0  0
  6 92  1  0  0  0
  6 93  1  0  0  0
  7  8  2  0  0  0
  7 26  1  0  0  0
  7 29  1  0  0  0
  8  9  1  0  0  0
  8 22  1  0  0  0
  9 10  1  0  0  0
  9 27  2  0  0  0
 10 11  2  0  0  0
 10 15  1  0  0  0
 11 12  1  0  0  0
 11 94  1  0  0  0
 12 13  2  0  0  0
 12 95  1  0  0  0
 13 14  1  0  0  0
 13 31  1  0  0  0
 14 15  2  0  0  0
 14 96  1  0  0  0
 15 97  1  0  0  0
 16 17  2  0  0  0
 16 21  1  0  0  0
 16 31  1  0  0  0
 17 18  1  0  0  0
 17 98  1  0  0  0
 18 19  2  0  0  0
 18 99  1  0  0  0
 19 20  1  0  0  0
 19 24  1  0  0  0
 20 21  2  0  0  0
 20100  1  0  0  0
 21 23  1  0  0  0
 22 28  1  0  0  0
 22 32  2  0  0  0
 26 27  1  0  0  0
 28101  1  0  0  0
 28102  1  0  0  0
 29103  1  0  0  0
 29104  1  0  0  0
 33 34  1  0  0  0
 33 66  1  0  0  0
 33 70  2  0  0  0
 34 36  1  0  0  0
 34 59  1  0  0  0
 34105  1  0  0  0
 35 44  2  0  0  0
 35 45  1  0  0  0
 35 68  1  0  0  0
 36 56  1  0  0  0
 36106  1  0  0  0
 37 39  1  0  0  0
 37 47  1  0  0  0
 37 66  1  0  0  0
 37107  1  0  0  0
 38 43  2  0  0  0
 38 46  1  0  0  0
 38 47  1  0  0  0
 39 64  1  0  0  0
 39 67  2  0  0  0
 40 52  1  0  0  0
 40 53  2  0  0  0
 40 58  1  0  0  0
 41108  1  0  0  0
 41109  1  0  0  0
 41110  1  0  0  0
 41 48  1  0  0  0
 42 43  1  0  0  0
 42 66  1  0  0  0
 42111  1  0  0  0
 42112  1  0  0  0
 43 44  1  0  0  0
 44113  1  0  0  0
 45 46  2  0  0  0
 45114  1  0  0  0
 46115  1  0  0  0
 47116  1  0  0  0
 47117  1  0  0  0
 48 56  1  0  0  0
 48 65  1  0  0  0
 48118  1  0  0  0
 49 50  1  0  0  0
 49 53  1  0  0  0
 49 64  1  0  0  0
 49119  1  0  0  0
 50 51  1  0  0  0
 50120  1  0  0  0
 50121  1  0  0  0
 51 52  1  0  0  0
 51122  1  0  0  0
 51123  1  0  0  0
 52124  1  0  0  0
 52125  1  0  0  0
 53 54  1  0  0  0
 54 55  2  0  0  0
 54126  1  0  0  0
 55 57  1  0  0  0
 55127  1  0  0  0
 56 69  2  0  0  0
 57 58  2  0  0  0
 57128  1  0  0  0
 58129  1  0  0  0
 59 60  1  0  0  0
 59 61  1  0  0  0
 59 62  1  0  0  0
 60130  1  0  0  0
 60131  1  0  0  0
 60132  1  0  0  0
 61133  1  0  0  0
 61134  1  0  0  0
 61135  1  0  0  0
 62136  1  0  0  0
 62137  1  0  0  0
 62138  1  0  0  0
 63 65  1  0  0  0
 63139  1  0  0  0
 63140  1  0  0  0
 63141  1  0  0  0
 64142  1  0  0  0
 65143  1  0  0  0
 68 81  1  0  0  0
 71 73  2  0  0  0
 71 75  1  0  0  0
 71144  1  0  0  0
 72 74  2  0  0  0
 72 76  1  0  0  0
 72145  1  0  0  0
 73 74  1  0  0  0
 73 77  1  0  0  0
 74 79  1  0  0  0
 75 76  2  0  0  0
 75 83  1  0  0  0
 76 84  1  0  0  0
 77 78  2  0  0  0
 77146  1  0  0  0
 78147  1  0  0  0
 79148  1  0  0  0
 79149  1  0  0  0
 79150  1  0  0  0
 80 81  1  0  0  0
 80 82  1  0  0  0
 80151  1  0  0  0
 80152  1  0  0  0
 81153  1  0  0  0
 81154  1  0  0  0
 82 84  1  0  0  0
 82155  1  0  0  0
 82156  1  0  0  0
 83157  1  0  0  0
 83158  1  0  0  0
M  ISO  4   1 100  68 101  78 100  81 101
M  END
> <chiral flag>
0

> <version>
0

> <s_m_source_file>
/data/baiqing/PycharmProjects/Reinvent-master-3.2/result/LINK_invent/BTK/process_docking_weight1_custom_product_contain_oxygen_bond_distance_aromatic_linkinvent_7_9_3/rearranged_h_0106.sdf

> <i_m_source_file_index>
92

> <r_mmod_Potential_Energy-OPLS-2005>
-61.9139175415039

> <r_mmod_Stretch_Energy-OPLS-2005>
33.8851432800293

> <r_mmod_Bend_Energy-OPLS-2005>
110.933418273926

> <r_mmod_Torsional_Energy-OPLS-2005>
176.343124389648

> <r_mmod_Improper_Torsional_Energy-OPLS-2005>
7.31538438796997

> <r_mmod_Van_der_Waal_Energy-OPLS-2005>
183.2744140625

> <r_mmod_Electrostatic_Energy-OPLS-2005>
-383.387847900391

> <r_mmod_Solvation_Energy-OPLS-2005>
-204.891082763672

> <b_mmod_Minimization_Converged-OPLS-2005>
0

> <r_mmod_RMS_Derivative-OPLS-2005>
1.83423137664795

$$$$
92
                    3D
 Structure written by MMmdl.
160168  0  0  1  0            999 V2000
  -30.8179  -14.3816   20.6400 C   0  0  0  0  0  0
  -30.4000  -12.2787   19.4276 C   0  0  0  0  0  0
  -29.4882  -12.5204   18.2111 C   0  0  0  0  0  0
  -28.0145  -12.3674   18.6226 C   0  0  0  0  0  0
  -27.6657  -13.2114   19.8769 C   0  0  2  0  0  0
  -28.7086  -13.0151   21.0059 C   0  0  0  0  0  0
  -25.2619  -13.8180   20.5693 C   0  0  0  0  0  0
  -24.1883  -13.0462   20.9153 C   0  0  0  0  0  0
  -24.6427  -11.6912   20.8707 C   0  0  0  0  0  0
  -23.9093  -10.4310   21.0387 C   0  0  0  0  0  0
  -24.3642   -9.4221   21.9155 C   0  0  0  0  0  0
  -23.6315   -8.2260   22.0733 C   0  0  0  0  0  0
  -22.4280   -8.0305   21.3547 C   0  0  0  0  0  0
  -21.9934   -9.0273   20.4621 C   0  0  0  0  0  0
  -22.7274  -10.2147   20.3038 C   0  0  0  0  0  0
  -21.6852   -6.0768   22.5284 C   0  0  0  0  0  0
  -21.4003   -6.5654   23.8227 C   0  0  0  0  0  0
  -21.3666   -5.6786   24.9179 C   0  0  0  0  0  0
  -21.6060   -4.3053   24.7205 C   0  0  0  0  0  0
  -21.8814   -3.8164   23.4307 C   0  0  0  0  0  0
  -21.9193   -4.7002   22.3380 C   0  0  0  0  0  0
  -22.7897  -13.5239   21.1811 C   0  0  0  0  0  0
  -22.1658   -4.2199   21.0953 F   0  0  0  0  0  0
  -21.5636   -3.4521   25.7703 F   0  0  0  0  0  0
  -30.0564  -13.2671   20.4634 N   0  0  0  0  0  0
  -26.3068  -12.9359   20.3381 N   0  0  0  0  0  0
  -25.9362  -11.6514   20.5761 N   0  0  0  0  0  0
  -22.0559  -12.8242   22.0370 N   0  0  0  0  0  0
  -25.4338  -15.1916   20.4102 N   0  0  0  0  0  0
  -31.8300  -14.6037   19.9738 O   0  0  0  0  0  0
  -21.6628   -6.8916   21.4255 O   0  0  0  0  0  0
  -22.3575  -14.5549   20.6655 O   0  0  0  0  0  0
  -24.6167  -31.8649   23.2045 C   0  0  0  0  0  0
  -25.9073  -32.4786   23.8367 C   0  0  1  0  0  0
  -27.2501  -27.4308   20.0927 C   0  0  0  0  0  0
  -25.5941  -33.8603   24.2285 N   0  0  0  0  0  0
  -23.4020  -30.4872   21.5427 C   0  0  2  0  0  0
  -24.8512  -28.9503   20.1087 C   0  0  0  0  0  0
  -22.7394  -29.4644   22.4947 C   0  0  0  0  0  0
  -18.0276  -28.1355   22.8461 C   0  0  0  0  0  0
  -24.1483  -36.7312   23.2634 C   0  0  0  0  0  0
  -25.9324  -30.8233   21.3589 C   0  0  0  0  0  0
  -26.0108  -29.4609   20.7045 C   0  0  0  0  0  0
  -27.2088  -28.7098   20.6910 C   0  0  0  0  0  0
  -26.0685  -26.9319   19.4901 C   0  0  0  0  0  0
  -24.8760  -27.6819   19.4996 C   0  0  0  0  0  0
  -23.6092  -29.8164   20.1579 C   0  0  0  0  0  0
  -25.4100  -36.3079   24.0314 C   0  0  1  0  0  0
  -20.5856  -28.3645   23.1291 C   0  0  2  0  0  0
  -20.6775  -26.9392   22.5397 C   0  0  0  0  0  0
  -19.5762  -26.6362   21.5181 C   0  0  0  0  0  0
  -18.1931  -26.7900   22.1592 C   0  0  0  0  0  0
  -19.1529  -28.8809   23.2871 C   0  0  0  0  0  0
  -18.9484  -30.1411   23.8878 C   0  0  0  0  0  0
  -17.6501  -30.6575   24.0553 C   0  0  0  0  0  0
  -25.9047  -34.9451   23.5079 C   0  0  0  0  0  0
  -16.5376  -29.9091   23.6322 C   0  0  0  0  0  0
  -16.7273  -28.6500   23.0343 C   0  0  0  0  0  0
  -26.4483  -31.6587   25.0723 C   0  0  0  0  0  0
  -25.3811  -31.3738   26.1528 C   0  0  0  0  0  0
  -27.0281  -30.3004   24.6094 C   0  0  0  0  0  0
  -27.5998  -32.4338   25.7543 C   0  0  0  0  0  0
  -27.5550  -37.1802   24.8453 C   0  0  0  0  0  0
  -21.4118  -29.3034   22.3692 N   0  0  0  0  0  0
  -26.4265  -37.3780   23.9416 N   0  0  0  0  0  0
  -24.6676  -31.0729   22.0941 N   0  0  0  0  0  0
  -23.4152  -28.8211   23.3024 O   0  0  0  0  0  0
  -28.4331  -26.7101   20.1214 O   0  0  0  0  0  0
  -26.5594  -34.8906   22.4626 O   0  0  0  0  0  0
  -23.5351  -32.1455   23.7422 O   0  0  0  0  0  0
  -31.3338  -17.9345   19.9859 C   0  0  0  0  0  0
  -31.0131  -19.1074   19.2796 C   0  0  0  0  0  0
  -29.6553  -19.8641   21.1463 C   0  0  0  0  0  0
  -30.8211  -17.7008   21.2791 C   0  0  0  0  0  0
  -29.9539  -18.6693   21.8548 C   0  0  0  0  0  0
  -30.1901  -20.0913   19.8571 C   0  0  0  0  0  0
  -29.8618  -22.4969   19.1318 C   0  0  0  0  0  0
  -29.3025  -18.4296   23.2079 C   0  0  0  0  0  0
  -31.2276  -16.4129   22.0075 C   0  0  0  0  0  0
  -30.3163  -23.2180   20.4256 C   0  0  0  0  0  0
  -29.6220  -24.6041   20.7436 C   0  0  0  0  0  0
  -28.3270  -25.2790   20.1554 C   0  0  0  0  0  0
  -29.7913  -21.1606   19.0102 N   0  0  0  0  0  0
  -30.4587  -15.2215   21.6200 N   0  0  0  0  0  0
  -29.5962  -23.1718   18.1382 O   0  0  0  0  0  0
  -31.4513  -12.3127   19.1399 H   0  0  0  0  0  0
  -30.2425  -11.2723   19.8186 H   0  0  0  0  0  0
  -29.6517  -13.5244   17.8145 H   0  0  0  0  0  0
  -29.7335  -11.8241   17.4087 H   0  0  0  0  0  0
  -27.8305  -11.3083   18.8137 H   0  0  0  0  0  0
  -27.3582  -12.6448   17.7980 H   0  0  0  0  0  0
  -27.7018  -14.2561   19.5670 H   0  0  0  0  0  0
  -28.4668  -13.6554   21.8533 H   0  0  0  0  0  0
  -28.6646  -11.9940   21.3872 H   0  0  0  0  0  0
  -25.2814   -9.5678   22.4700 H   0  0  0  0  0  0
  -24.0032   -7.4645   22.7441 H   0  0  0  0  0  0
  -21.0880   -8.8810   19.8896 H   0  0  0  0  0  0
  -22.3775  -10.9683   19.6120 H   0  0  0  0  0  0
  -21.1988   -7.6157   23.9753 H   0  0  0  0  0  0
  -21.1494   -6.0496   25.9088 H   0  0  0  0  0  0
  -22.0592   -2.7632   23.2779 H   0  0  0  0  0  0
  -22.4167  -11.9888   22.4754 H   0  0  0  0  0  0
  -21.1161  -13.1222   22.2530 H   0  0  0  0  0  0
  -24.6717  -15.8512   20.5271 H   0  0  0  0  0  0
  -26.2996  -15.6349   20.1258 H   0  0  0  0  0  0
  -26.7163  -32.5438   23.1145 H   0  0  0  0  0  0
  -25.0200  -33.9804   25.0492 H   0  0  0  0  0  0
  -22.6913  -31.3023   21.4008 H   0  0  0  0  0  0
  -23.3709  -35.9685   23.3310 H   0  0  0  0  0  0
  -24.3574  -36.8918   22.2051 H   0  0  0  0  0  0
  -23.7278  -37.6529   23.6660 H   0  0  0  0  0  0
  -26.0562  -31.5831   20.5856 H   0  0  0  0  0  0
  -26.8163  -30.8708   21.9825 H   0  0  0  0  0  0
  -28.0987  -29.0988   21.1651 H   0  0  0  0  0  0
  -26.0477  -25.9636   19.0132 H   0  0  0  0  0  0
  -23.9901  -27.2688   19.0356 H   0  0  0  0  0  0
  -23.7185  -30.5920   19.3982 H   0  0  0  0  0  0
  -22.7306  -29.2409   19.8581 H   0  0  0  0  0  0
  -25.1277  -36.1925   25.0805 H   0  0  0  0  0  0
  -20.9964  -28.3231   24.1401 H   0  0  0  0  0  0
  -20.5644  -26.2279   23.3591 H   0  0  0  0  0  0
  -21.6660  -26.7430   22.1206 H   0  0  0  0  0  0
  -19.6954  -25.6274   21.1208 H   0  0  0  0  0  0
  -19.6704  -27.3168   20.6703 H   0  0  0  0  0  0
  -17.4208  -26.6610   21.3993 H   0  0  0  0  0  0
  -18.0353  -26.0043   22.8990 H   0  0  0  0  0  0
  -19.7985  -30.7195   24.2234 H   0  0  0  0  0  0
  -17.5098  -31.6258   24.5162 H   0  0  0  0  0  0
  -15.5390  -30.3022   23.7654 H   0  0  0  0  0  0
  -15.8653  -28.0831   22.7084 H   0  0  0  0  0  0
  -24.5974  -30.7041   25.7980 H   0  0  0  0  0  0
  -24.9060  -32.2932   26.4967 H   0  0  0  0  0  0
  -25.8283  -30.8995   27.0289 H   0  0  0  0  0  0
  -26.2814  -29.6815   24.1106 H   0  0  0  0  0  0
  -27.3989  -29.7170   25.4533 H   0  0  0  0  0  0
  -27.8684  -30.4246   23.9266 H   0  0  0  0  0  0
  -27.2507  -33.3599   26.2120 H   0  0  0  0  0  0
  -28.3859  -32.6973   25.0470 H   0  0  0  0  0  0
  -28.0616  -31.8506   26.5525 H   0  0  0  0  0  0
  -28.2554  -38.0105   24.7471 H   0  0  0  0  0  0
  -28.1047  -36.2623   24.6297 H   0  0  0  0  0  0
  -27.2276  -37.1476   25.8858 H   0  0  0  0  0  0
  -20.9268  -29.8806   21.6962 H   0  0  0  0  0  0
  -26.0120  -38.2834   24.1456 H   0  0  0  0  0  0
  -31.9663  -17.1975   19.5113 H   0  0  0  0  0  0
  -31.3895  -19.2372   18.2744 H   0  0  0  0  0  0
  -28.9721  -20.5804   21.5802 H   0  0  0  0  0  0
  -28.5200  -19.1658   23.4007 H   0  0  0  0  0  0
  -30.0347  -18.4893   24.0145 H   0  0  0  0  0  0
  -28.8419  -17.4398   23.2434 H   0  0  0  0  0  0
  -31.1853  -16.5450   23.0884 H   0  0  0  0  0  0
  -32.2909  -16.2437   21.8161 H   0  0  0  0  0  0
  -30.2739  -22.5332   21.2761 H   0  0  0  0  0  0
  -31.3886  -23.3913   20.3180 H   0  0  0  0  0  0
  -28.8724  -23.8798   21.0559 H   0  0  0  0  0  0
  -30.0784  -24.9537   19.8147 H   0  0  0  0  0  0
  -28.1071  -24.9262   19.1474 H   0  0  0  0  0  0
  -27.4405  -25.0539   20.7584 H   0  0  0  0  0  0
  -29.5929  -20.8870   18.0579 H   0  0  0  0  0  0
  -29.6722  -14.9621   22.1943 H   0  0  0  0  0  0
  1 25  1  0  0  0
  1 30  2  0  0  0
  1 84  1  0  0  0
  2  3  1  0  0  0
  2 25  1  0  0  0
  2 86  1  0  0  0
  2 87  1  0  0  0
  3  4  1  0  0  0
  3 88  1  0  0  0
  3 89  1  0  0  0
  4  5  1  0  0  0
  4 90  1  0  0  0
  4 91  1  0  0  0
  5  6  1  0  0  0
  5 26  1  0  0  0
  5 92  1  0  0  0
  6 25  1  0  0  0
  6 93  1  0  0  0
  6 94  1  0  0  0
  7  8  2  0  0  0
  7 26  1  0  0  0
  7 29  1  0  0  0
  8  9  1  0  0  0
  8 22  1  0  0  0
  9 10  1  0  0  0
  9 27  2  0  0  0
 10 11  2  0  0  0
 10 15  1  0  0  0
 11 12  1  0  0  0
 11 95  1  0  0  0
 12 13  2  0  0  0
 12 96  1  0  0  0
 13 14  1  0  0  0
 13 31  1  0  0  0
 14 15  2  0  0  0
 14 97  1  0  0  0
 15 98  1  0  0  0
 16 17  2  0  0  0
 16 21  1  0  0  0
 16 31  1  0  0  0
 17 18  1  0  0  0
 17 99  1  0  0  0
 18 19  2  0  0  0
 18100  1  0  0  0
 19 20  1  0  0  0
 19 24  1  0  0  0
 20 21  2  0  0  0
 20101  1  0  0  0
 21 23  1  0  0  0
 22 28  1  0  0  0
 22 32  2  0  0  0
 26 27  1  0  0  0
 28102  1  0  0  0
 28103  1  0  0  0
 29104  1  0  0  0
 29105  1  0  0  0
 33 34  1  0  0  0
 33 66  1  0  0  0
 33 70  2  0  0  0
 34 36  1  0  0  0
 34 59  1  0  0  0
 34106  1  0  0  0
 35 44  2  0  0  0
 35 45  1  0  0  0
 35 68  1  0  0  0
 36 56  1  0  0  0
 36107  1  0  0  0
 37 39  1  0  0  0
 37 47  1  0  0  0
 37 66  1  0  0  0
 37108  1  0  0  0
 38 43  2  0  0  0
 38 46  1  0  0  0
 38 47  1  0  0  0
 39 64  1  0  0  0
 39 67  2  0  0  0
 40 52  1  0  0  0
 40 53  2  0  0  0
 40 58  1  0  0  0
 41109  1  0  0  0
 41110  1  0  0  0
 41111  1  0  0  0
 41 48  1  0  0  0
 42 43  1  0  0  0
 42 66  1  0  0  0
 42112  1  0  0  0
 42113  1  0  0  0
 43 44  1  0  0  0
 44114  1  0  0  0
 45 46  2  0  0  0
 45115  1  0  0  0
 46116  1  0  0  0
 47117  1  0  0  0
 47118  1  0  0  0
 48 56  1  0  0  0
 48 65  1  0  0  0
 48119  1  0  0  0
 49 50  1  0  0  0
 49 53  1  0  0  0
 49 64  1  0  0  0
 49120  1  0  0  0
 50 51  1  0  0  0
 50121  1  0  0  0
 50122  1  0  0  0
 51 52  1  0  0  0
 51123  1  0  0  0
 51124  1  0  0  0
 52125  1  0  0  0
 52126  1  0  0  0
 53 54  1  0  0  0
 54 55  2  0  0  0
 54127  1  0  0  0
 55 57  1  0  0  0
 55128  1  0  0  0
 56 69  2  0  0  0
 57 58  2  0  0  0
 57129  1  0  0  0
 58130  1  0  0  0
 59 60  1  0  0  0
 59 61  1  0  0  0
 59 62  1  0  0  0
 60131  1  0  0  0
 60132  1  0  0  0
 60133  1  0  0  0
 61134  1  0  0  0
 61135  1  0  0  0
 61136  1  0  0  0
 62137  1  0  0  0
 62138  1  0  0  0
 62139  1  0  0  0
 63 65  1  0  0  0
 63140  1  0  0  0
 63141  1  0  0  0
 63142  1  0  0  0
 64143  1  0  0  0
 65144  1  0  0  0
 68 82  1  0  0  0
 71 72  2  0  0  0
 71 74  1  0  0  0
 71145  1  0  0  0
 72 76  1  0  0  0
 72146  1  0  0  0
 73 75  1  0  0  0
 73 76  2  0  0  0
 73147  1  0  0  0
 74 75  2  0  0  0
 74 79  1  0  0  0
 75 78  1  0  0  0
 76 83  1  0  0  0
 77 80  1  0  0  0
 77 83  1  0  0  0
 77 85  2  0  0  0
 78148  1  0  0  0
 78149  1  0  0  0
 78150  1  0  0  0
 79 84  1  0  0  0
 79151  1  0  0  0
 79152  1  0  0  0
 80 81  1  0  0  0
 80153  1  0  0  0
 80154  1  0  0  0
 81 82  1  0  0  0
 81155  1  0  0  0
 81156  1  0  0  0
 82157  1  0  0  0
 82158  1  0  0  0
 83159  1  0  0  0
 84160  1  0  0  0
M  ISO  4   1 100  68 101  82 101  84 100
M  END
> <chiral flag>
0

> <version>
0

> <s_m_source_file>
/data/baiqing/PycharmProjects/Reinvent-master-3.2/result/LINK_invent/BTK/process_docking_weight1_custom_product_contain_oxygen_bond_distance_aromatic_linkinvent_7_9_3/rearranged_h_0106.sdf

> <i_m_source_file_index>
93

> <r_mmod_Potential_Energy-OPLS-2005>
98.2010345458984

> <r_mmod_Stretch_Energy-OPLS-2005>
43.5231056213379

> <r_mmod_Bend_Energy-OPLS-2005>
347.082916259766

> <r_mmod_Torsional_Energy-OPLS-2005>
230.589050292969

> <r_mmod_Improper_Torsional_Energy-OPLS-2005>
3.71753907203674

> <r_mmod_Van_der_Waal_Energy-OPLS-2005>
171.973281860352

> <r_mmod_Electrostatic_Energy-OPLS-2005>
-489.291259765625

> <r_mmod_Solvation_Energy-OPLS-2005>
-221.238388061523

> <b_mmod_Minimization_Converged-OPLS-2005>
0

> <r_mmod_RMS_Derivative-OPLS-2005>
4.68313837051392

$$$$
93
                    3D
 Structure written by MMmdl.
167175  0  0  1  0            999 V2000
  -30.6579  -14.5164   20.6313 C   0  0  0  0  0  0
  -30.4489  -12.3656   19.4048 C   0  0  0  0  0  0
  -29.4982  -12.5399   18.1971 C   0  0  0  0  0  0
  -28.0158  -12.3690   18.6074 C   0  0  0  0  0  0
  -27.6697  -13.1682   19.8895 C   0  0  2  0  0  0
  -28.7254  -12.8388   20.9744 C   0  0  0  0  0  0
  -25.2618  -13.8018   20.5616 C   0  0  0  0  0  0
  -24.1856  -13.0359   20.9188 C   0  0  0  0  0  0
  -24.6384  -11.6831   20.8797 C   0  0  0  0  0  0
  -23.9007  -10.4264   21.0430 C   0  0  0  0  0  0
  -24.3578   -9.4191   21.9209 C   0  0  0  0  0  0
  -23.6291   -8.2206   22.0745 C   0  0  0  0  0  0
  -22.4252   -8.0268   21.3541 C   0  0  0  0  0  0
  -21.9888   -9.0230   20.4643 C   0  0  0  0  0  0
  -22.7191  -10.2121   20.3080 C   0  0  0  0  0  0
  -21.6828   -6.0730   22.5290 C   0  0  0  0  0  0
  -21.3985   -6.5634   23.8227 C   0  0  0  0  0  0
  -21.3658   -5.6793   24.9192 C   0  0  0  0  0  0
  -21.6069   -4.3065   24.7232 C   0  0  0  0  0  0
  -21.8804   -3.8147   23.4348 C   0  0  0  0  0  0
  -21.9151   -4.6961   22.3407 C   0  0  0  0  0  0
  -22.7908  -13.5206   21.1825 C   0  0  0  0  0  0
  -22.1614   -4.2144   21.0984 F   0  0  0  0  0  0
  -21.5668   -3.4554   25.7743 F   0  0  0  0  0  0
  -30.0176  -13.3105   20.4592 N   0  0  0  0  0  0
  -26.3057  -12.9129   20.3451 N   0  0  0  0  0  0
  -25.9302  -11.6313   20.5852 N   0  0  0  0  0  0
  -22.0501  -12.8251   22.0414 N   0  0  0  0  0  0
  -25.4269  -15.1721   20.3876 N   0  0  0  0  0  0
  -31.8034  -14.6555   20.1772 O   0  0  0  0  0  0
  -21.6623   -6.8861   21.4243 O   0  0  0  0  0  0
  -22.3627  -14.5475   20.6605 O   0  0  0  0  0  0
  -24.6131  -31.8692   23.2090 C   0  0  0  0  0  0
  -25.9035  -32.4811   23.8384 C   0  0  1  0  0  0
  -27.2359  -27.4356   20.0938 C   0  0  0  0  0  0
  -25.5883  -33.8610   24.2298 N   0  0  0  0  0  0
  -23.3985  -30.4949   21.5483 C   0  0  2  0  0  0
  -24.8415  -28.9580   20.1178 C   0  0  0  0  0  0
  -22.7369  -29.4723   22.4977 C   0  0  0  0  0  0
  -18.0259  -28.1409   22.8511 C   0  0  0  0  0  0
  -24.1482  -36.7312   23.2632 C   0  0  0  0  0  0
  -25.9248  -30.8371   21.3617 C   0  0  0  0  0  0
  -26.0007  -29.4713   20.7082 C   0  0  0  0  0  0
  -27.1927  -28.7151   20.6976 C   0  0  0  0  0  0
  -26.0456  -26.9291   19.5140 C   0  0  0  0  0  0
  -24.8577  -27.6852   19.5236 C   0  0  0  0  0  0
  -23.6054  -29.8264   20.1636 C   0  0  0  0  0  0
  -25.4105  -36.3094   24.0325 C   0  0  1  0  0  0
  -20.5843  -28.3707   23.1308 C   0  0  2  0  0  0
  -20.6758  -26.9445   22.5439 C   0  0  0  0  0  0
  -19.5740  -26.6423   21.5229 C   0  0  0  0  0  0
  -18.1909  -26.7964   22.1633 C   0  0  0  0  0  0
  -19.1512  -28.8868   23.2921 C   0  0  0  0  0  0
  -18.9450  -30.1470   23.8947 C   0  0  0  0  0  0
  -17.6457  -30.6616   24.0587 C   0  0  0  0  0  0
  -25.9045  -34.9463   23.5114 C   0  0  0  0  0  0
  -16.5336  -29.9135   23.6324 C   0  0  0  0  0  0
  -16.7255  -28.6544   23.0347 C   0  0  0  0  0  0
  -26.4463  -31.6586   25.0719 C   0  0  0  0  0  0
  -25.3732  -31.3723   26.1473 C   0  0  0  0  0  0
  -27.0282  -30.3005   24.6140 C   0  0  0  0  0  0
  -27.6039  -32.4300   25.7490 C   0  0  0  0  0  0
  -27.5576  -37.1780   24.8437 C   0  0  0  0  0  0
  -21.4099  -29.3071   22.3699 N   0  0  0  0  0  0
  -26.4272  -37.3785   23.9407 N   0  0  0  0  0  0
  -24.6625  -31.0816   22.0985 N   0  0  0  0  0  0
  -23.4150  -28.8295   23.3025 O   0  0  0  0  0  0
  -28.4451  -26.7611   20.1174 O   0  0  0  0  0  0
  -26.5645  -34.8911   22.4691 O   0  0  0  0  0  0
  -23.5341  -32.1467   23.7510 O   0  0  0  0  0  0
  -30.4435  -17.3948   19.4004 C   0  0  0  0  0  0
  -30.8046  -17.8744   21.7555 C   0  0  0  0  0  0
  -30.4606  -16.9473   20.7382 C   0  0  0  0  0  0
  -30.6246  -18.7610   19.1063 C   0  0  0  0  0  0
  -30.9497  -19.2606   21.4776 C   0  0  0  0  0  0
  -30.7843  -19.7162   20.1411 C   0  0  0  0  0  0
  -27.7064  -17.5234   23.3425 C   0  0  0  0  0  0
  -28.0508  -16.9571   22.1764 C   0  0  0  0  0  0
  -31.7292  -19.7354   23.7070 C   0  0  0  0  0  0
  -28.8148  -15.6439   22.0222 C   0  0  0  0  0  0
  -29.1285  -24.4199   20.4481 C   0  0  0  0  0  0
  -29.5927  -23.1363   19.7184 C   0  0  0  0  0  0
  -28.6423  -25.5009   19.4567 C   0  0  0  0  0  0
  -30.1981  -22.0347   20.6146 C   0  0  0  0  0  0
  -30.6116  -19.1872   17.7786 N   0  0  0  0  0  0
  -29.9690  -15.6349   21.0761 N   0  0  0  0  0  0
  -31.2356  -20.1917   22.4554 O   0  0  0  0  0  0
  -30.8142  -21.0506   19.7692 O   0  0  0  0  0  0
  -31.4821  -12.5224   19.0910 H   0  0  0  0  0  0
  -30.4268  -11.3374   19.7694 H   0  0  0  0  0  0
  -29.7538  -11.8314   17.4074 H   0  0  0  0  0  0
  -29.6396  -13.5325   17.7673 H   0  0  0  0  0  0
  -27.8344  -11.3054   18.7770 H   0  0  0  0  0  0
  -27.3574  -12.6587   17.7883 H   0  0  0  0  0  0
  -27.7320  -14.2239   19.6216 H   0  0  0  0  0  0
  -28.7605  -11.7561   21.1080 H   0  0  0  0  0  0
  -28.4998  -13.1581   21.9878 H   0  0  0  0  0  0
  -25.2698   -9.5694   22.4814 H   0  0  0  0  0  0
  -24.0017   -7.4566   22.7428 H   0  0  0  0  0  0
  -21.0830   -8.8726   19.8948 H   0  0  0  0  0  0
  -22.3626  -10.9668   19.6224 H   0  0  0  0  0  0
  -21.1970   -7.6144   23.9738 H   0  0  0  0  0  0
  -21.1514   -6.0528   25.9097 H   0  0  0  0  0  0
  -22.0585   -2.7605   23.2843 H   0  0  0  0  0  0
  -22.4118  -11.9947   22.4881 H   0  0  0  0  0  0
  -21.1105  -13.1288   22.2493 H   0  0  0  0  0  0
  -24.6586  -15.8225   20.5085 H   0  0  0  0  0  0
  -26.2746  -15.6120   20.0588 H   0  0  0  0  0  0
  -26.7116  -32.5531   23.1162 H   0  0  0  0  0  0
  -24.9875  -33.9751   25.0330 H   0  0  0  0  0  0
  -22.6892  -31.3148   21.4087 H   0  0  0  0  0  0
  -23.3731  -35.9657   23.3268 H   0  0  0  0  0  0
  -24.3579  -36.8987   22.2057 H   0  0  0  0  0  0
  -23.7259  -37.6503   23.6685 H   0  0  0  0  0  0
  -26.0367  -31.6066   20.5974 H   0  0  0  0  0  0
  -26.8113  -30.8884   21.9815 H   0  0  0  0  0  0
  -28.0883  -29.1130   21.1518 H   0  0  0  0  0  0
  -25.9837  -25.9567   19.0565 H   0  0  0  0  0  0
  -23.9583  -27.2749   19.0855 H   0  0  0  0  0  0
  -23.7197  -30.6007   19.4042 H   0  0  0  0  0  0
  -22.7276  -29.2498   19.8668 H   0  0  0  0  0  0
  -25.1300  -36.1925   25.0826 H   0  0  0  0  0  0
  -20.9933  -28.3307   24.1424 H   0  0  0  0  0  0
  -20.5620  -26.2345   23.3656 H   0  0  0  0  0  0
  -21.6631  -26.7491   22.1234 H   0  0  0  0  0  0
  -19.6880  -25.6336   21.1258 H   0  0  0  0  0  0
  -19.6656  -27.3232   20.6758 H   0  0  0  0  0  0
  -17.4171  -26.6716   21.4041 H   0  0  0  0  0  0
  -18.0297  -26.0130   22.9050 H   0  0  0  0  0  0
  -19.7934  -30.7275   24.2329 H   0  0  0  0  0  0
  -17.5019  -31.6297   24.5207 H   0  0  0  0  0  0
  -15.5336  -30.3056   23.7639 H   0  0  0  0  0  0
  -15.8650  -28.0885   22.7022 H   0  0  0  0  0  0
  -24.5861  -30.7128   25.7786 H   0  0  0  0  0  0
  -24.8987  -32.2912   26.4923 H   0  0  0  0  0  0
  -25.8084  -30.8856   27.0217 H   0  0  0  0  0  0
  -26.2831  -29.6769   24.1172 H   0  0  0  0  0  0
  -27.3971  -29.7253   25.4645 H   0  0  0  0  0  0
  -27.8716  -30.4262   23.9349 H   0  0  0  0  0  0
  -27.2617  -33.3555   26.2131 H   0  0  0  0  0  0
  -28.3815  -32.6927   25.0301 H   0  0  0  0  0  0
  -28.0736  -31.8389   26.5371 H   0  0  0  0  0  0
  -28.2539  -38.0118   24.7534 H   0  0  0  0  0  0
  -28.1135  -36.2655   24.6199 H   0  0  0  0  0  0
  -27.2319  -37.1351   25.8844 H   0  0  0  0  0  0
  -20.9231  -29.8803   21.6946 H   0  0  0  0  0  0
  -26.0158  -38.2852   24.1461 H   0  0  0  0  0  0
  -30.2154  -16.6953   18.6067 H   0  0  0  0  0  0
  -30.8432  -17.5116   22.7723 H   0  0  0  0  0  0
  -27.1620  -18.4589   23.3591 H   0  0  0  0  0  0
  -27.9563  -17.0737   24.2940 H   0  0  0  0  0  0
  -27.7639  -17.4525   21.2584 H   0  0  0  0  0  0
  -32.1256  -20.5947   24.2489 H   0  0  0  0  0  0
  -32.5398  -19.0136   23.5955 H   0  0  0  0  0  0
  -30.9401  -19.2870   24.3148 H   0  0  0  0  0  0
  -27.9849  -15.0722   21.6374 H   0  0  0  0  0  0
  -29.1073  -15.2323   22.9896 H   0  0  0  0  0  0
  -29.9531  -24.8210   21.0410 H   0  0  0  0  0  0
  -28.3307  -24.1754   21.1539 H   0  0  0  0  0  0
  -30.3322  -23.4122   18.9651 H   0  0  0  0  0  0
  -28.7480  -22.7140   19.1779 H   0  0  0  0  0  0
  -27.7981  -25.1160   18.8904 H   0  0  0  0  0  0
  -29.4256  -25.6646   18.7163 H   0  0  0  0  0  0
  -29.4131  -21.6122   21.2439 H   0  0  0  0  0  0
  -30.9526  -22.4619   21.2773 H   0  0  0  0  0  0
  -30.9945  -18.5391   17.0972 H   0  0  0  0  0  0
  -30.9844  -20.1222   17.6452 H   0  0  0  0  0  0
  1 25  1  0  0  0
  1 30  2  0  0  0
  1 86  1  0  0  0
  2  3  1  0  0  0
  2 25  1  0  0  0
  2 89  1  0  0  0
  2 90  1  0  0  0
  3  4  1  0  0  0
  3 91  1  0  0  0
  3 92  1  0  0  0
  4  5  1  0  0  0
  4 93  1  0  0  0
  4 94  1  0  0  0
  5  6  1  0  0  0
  5 26  1  0  0  0
  5 95  1  0  0  0
  6 25  1  0  0  0
  6 96  1  0  0  0
  6 97  1  0  0  0
  7  8  2  0  0  0
  7 26  1  0  0  0
  7 29  1  0  0  0
  8  9  1  0  0  0
  8 22  1  0  0  0
  9 10  1  0  0  0
  9 27  2  0  0  0
 10 11  2  0  0  0
 10 15  1  0  0  0
 11 12  1  0  0  0
 11 98  1  0  0  0
 12 13  2  0  0  0
 12 99  1  0  0  0
 13 14  1  0  0  0
 13 31  1  0  0  0
 14 15  2  0  0  0
 14100  1  0  0  0
 15101  1  0  0  0
 16 17  2  0  0  0
 16 21  1  0  0  0
 16 31  1  0  0  0
 17 18  1  0  0  0
 17102  1  0  0  0
 18 19  2  0  0  0
 18103  1  0  0  0
 19 20  1  0  0  0
 19 24  1  0  0  0
 20 21  2  0  0  0
 20104  1  0  0  0
 21 23  1  0  0  0
 22 28  1  0  0  0
 22 32  2  0  0  0
 26 27  1  0  0  0
 28105  1  0  0  0
 28106  1  0  0  0
 29107  1  0  0  0
 29108  1  0  0  0
 33 34  1  0  0  0
 33 66  1  0  0  0
 33 70  2  0  0  0
 34 36  1  0  0  0
 34 59  1  0  0  0
 34109  1  0  0  0
 35 44  2  0  0  0
 35 45  1  0  0  0
 35 68  1  0  0  0
 36 56  1  0  0  0
 36110  1  0  0  0
 37 39  1  0  0  0
 37 47  1  0  0  0
 37 66  1  0  0  0
 37111  1  0  0  0
 38 43  2  0  0  0
 38 46  1  0  0  0
 38 47  1  0  0  0
 39 64  1  0  0  0
 39 67  2  0  0  0
 40 52  1  0  0  0
 40 53  2  0  0  0
 40 58  1  0  0  0
 41112  1  0  0  0
 41113  1  0  0  0
 41114  1  0  0  0
 41 48  1  0  0  0
 42 43  1  0  0  0
 42 66  1  0  0  0
 42115  1  0  0  0
 42116  1  0  0  0
 43 44  1  0  0  0
 44117  1  0  0  0
 45 46  2  0  0  0
 45118  1  0  0  0
 46119  1  0  0  0
 47120  1  0  0  0
 47121  1  0  0  0
 48 56  1  0  0  0
 48 65  1  0  0  0
 48122  1  0  0  0
 49 50  1  0  0  0
 49 53  1  0  0  0
 49 64  1  0  0  0
 49123  1  0  0  0
 50 51  1  0  0  0
 50124  1  0  0  0
 50125  1  0  0  0
 51 52  1  0  0  0
 51126  1  0  0  0
 51127  1  0  0  0
 52128  1  0  0  0
 52129  1  0  0  0
 53 54  1  0  0  0
 54 55  2  0  0  0
 54130  1  0  0  0
 55 57  1  0  0  0
 55131  1  0  0  0
 56 69  2  0  0  0
 57 58  2  0  0  0
 57132  1  0  0  0
 58133  1  0  0  0
 59 60  1  0  0  0
 59 61  1  0  0  0
 59 62  1  0  0  0
 60134  1  0  0  0
 60135  1  0  0  0
 60136  1  0  0  0
 61137  1  0  0  0
 61138  1  0  0  0
 61139  1  0  0  0
 62140  1  0  0  0
 62141  1  0  0  0
 62142  1  0  0  0
 63 65  1  0  0  0
 63143  1  0  0  0
 63144  1  0  0  0
 63145  1  0  0  0
 64146  1  0  0  0
 65147  1  0  0  0
 68 83  1  0  0  0
 71 73  2  0  0  0
 71 74  1  0  0  0
 71148  1  0  0  0
 72 73  1  0  0  0
 72 75  2  0  0  0
 72149  1  0  0  0
 73 86  1  0  0  0
 74 76  2  0  0  0
 74 85  1  0  0  0
 75 76  1  0  0  0
 75 87  1  0  0  0
 76 88  1  0  0  0
 77 78  2  0  0  0
 77150  1  0  0  0
 77151  1  0  0  0
 78 80  1  0  0  0
 78152  1  0  0  0
 79 87  1  0  0  0
 79153  1  0  0  0
 79154  1  0  0  0
 79155  1  0  0  0
 80 86  1  0  0  0
 80156  1  0  0  0
 80157  1  0  0  0
 81 82  1  0  0  0
 81 83  1  0  0  0
 81158  1  0  0  0
 81159  1  0  0  0
 82 84  1  0  0  0
 82160  1  0  0  0
 82161  1  0  0  0
 83162  1  0  0  0
 83163  1  0  0  0
 84 88  1  0  0  0
 84164  1  0  0  0
 84165  1  0  0  0
 85166  1  0  0  0
 85167  1  0  0  0
M  ISO  4   1 100  68 101  83 101  86 100
M  END
> <chiral flag>
0

> <version>
0

> <s_m_source_file>
/data/baiqing/PycharmProjects/Reinvent-master-3.2/result/LINK_invent/BTK/process_docking_weight1_custom_product_contain_oxygen_bond_distance_aromatic_linkinvent_7_9_3/rearranged_h_0106.sdf

> <i_m_source_file_index>
94

> <r_mmod_Potential_Energy-OPLS-2005>
252.787109375

> <r_mmod_Stretch_Energy-OPLS-2005>
51.4391860961914

> <r_mmod_Bend_Energy-OPLS-2005>
161.621200561523

> <r_mmod_Torsional_Energy-OPLS-2005>
307.830413818359

> <r_mmod_Improper_Torsional_Energy-OPLS-2005>
11.4033250808716

> <r_mmod_Van_der_Waal_Energy-OPLS-2005>
188.520248413086

> <r_mmod_Electrostatic_Energy-OPLS-2005>
-284.004333496094

> <r_mmod_Solvation_Energy-OPLS-2005>
-202.632354736328

> <b_mmod_Minimization_Converged-OPLS-2005>
0

> <r_mmod_RMS_Derivative-OPLS-2005>
4.1345272064209

$$$$
94
                    3D
 Structure written by MMmdl.
162171  0  0  1  0            999 V2000
  -30.6579  -14.7270   20.4543 C   0  0  0  0  0  0
  -30.4211  -12.4427   19.4779 C   0  0  0  0  0  0
  -29.5042  -12.5057   18.2381 C   0  0  0  0  0  0
  -28.0309  -12.3395   18.6538 C   0  0  0  0  0  0
  -27.6401  -13.2433   19.8553 C   0  0  2  0  0  0
  -28.6886  -13.1911   20.9890 C   0  0  0  0  0  0
  -25.2457  -13.8189   20.5723 C   0  0  0  0  0  0
  -24.1757  -13.0401   20.9149 C   0  0  0  0  0  0
  -24.6395  -11.6902   20.8725 C   0  0  0  0  0  0
  -23.9085  -10.4275   21.0388 C   0  0  0  0  0  0
  -24.3628   -9.4194   21.9174 C   0  0  0  0  0  0
  -23.6295   -8.2237   22.0753 C   0  0  0  0  0  0
  -22.4276   -8.0275   21.3547 C   0  0  0  0  0  0
  -21.9916   -9.0244   20.4642 C   0  0  0  0  0  0
  -22.7253  -10.2116   20.3043 C   0  0  0  0  0  0
  -21.6851   -6.0736   22.5278 C   0  0  0  0  0  0
  -21.4016   -6.5641   23.8211 C   0  0  0  0  0  0
  -21.3657   -5.6795   24.9174 C   0  0  0  0  0  0
  -21.6042   -4.3056   24.7225 C   0  0  0  0  0  0
  -21.8819   -3.8148   23.4345 C   0  0  0  0  0  0
  -21.9192   -4.6965   22.3403 C   0  0  0  0  0  0
  -22.7780  -13.5175   21.1832 C   0  0  0  0  0  0
  -22.1660   -4.2151   21.0979 F   0  0  0  0  0  0
  -21.5626   -3.4540   25.7738 F   0  0  0  0  0  0
  -29.9931  -13.5211   20.4011 N   0  0  0  0  0  0
  -26.2943  -12.9454   20.3367 N   0  0  0  0  0  0
  -25.9349  -11.6571   20.5797 N   0  0  0  0  0  0
  -22.0453  -12.8163   22.0408 N   0  0  0  0  0  0
  -25.4025  -15.1921   20.4279 N   0  0  0  0  0  0
  -31.8461  -14.7532   20.1312 O   0  0  0  0  0  0
  -21.6635   -6.8875   21.4240 O   0  0  0  0  0  0
  -22.3455  -14.5497   20.6719 O   0  0  0  0  0  0
  -24.6304  -31.8561   23.2005 C   0  0  0  0  0  0
  -25.9137  -32.4754   23.8344 C   0  0  1  0  0  0
  -27.2142  -27.2615   20.1230 C   0  0  0  0  0  0
  -25.5935  -33.8559   24.2254 N   0  0  0  0  0  0
  -23.4268  -30.4796   21.5438 C   0  0  2  0  0  0
  -24.8733  -28.9337   20.1057 C   0  0  0  0  0  0
  -22.7502  -29.4594   22.4913 C   0  0  0  0  0  0
  -18.0287  -28.1386   22.8478 C   0  0  0  0  0  0
  -24.1494  -36.7283   23.2637 C   0  0  0  0  0  0
  -25.9738  -30.7661   21.3850 C   0  0  0  0  0  0
  -26.0440  -29.3902   20.7249 C   0  0  0  0  0  0
  -27.2132  -28.5634   20.7299 C   0  0  0  0  0  0
  -26.0272  -26.8921   19.4463 C   0  0  0  0  0  0
  -24.8713  -27.6924   19.4560 C   0  0  0  0  0  0
  -23.6438  -29.8188   20.1580 C   0  0  0  0  0  0
  -25.4121  -36.3066   24.0324 C   0  0  1  0  0  0
  -20.5893  -28.3693   23.1274 C   0  0  2  0  0  0
  -20.6779  -26.9413   22.5412 C   0  0  0  0  0  0
  -19.5754  -26.6378   21.5216 C   0  0  0  0  0  0
  -18.1928  -26.7923   22.1625 C   0  0  0  0  0  0
  -19.1542  -28.8856   23.2862 C   0  0  0  0  0  0
  -18.9469  -30.1452   23.8887 C   0  0  0  0  0  0
  -17.6471  -30.6585   24.0561 C   0  0  0  0  0  0
  -25.9065  -34.9440   23.5093 C   0  0  0  0  0  0
  -16.5358  -29.9083   23.6338 C   0  0  0  0  0  0
  -16.7275  -28.6501   23.0353 C   0  0  0  0  0  0
  -26.4505  -31.6583   25.0736 C   0  0  0  0  0  0
  -25.3719  -31.3741   26.1451 C   0  0  0  0  0  0
  -27.0357  -30.2999   24.6235 C   0  0  0  0  0  0
  -27.6054  -32.4330   25.7506 C   0  0  0  0  0  0
  -27.5584  -37.1787   24.8458 C   0  0  0  0  0  0
  -21.4211  -29.3036   22.3666 N   0  0  0  0  0  0
  -26.4288  -37.3772   23.9419 N   0  0  0  0  0  0
  -24.6959  -31.0518   22.0993 N   0  0  0  0  0  0
  -23.4205  -28.8123   23.2995 O   0  0  0  0  0  0
  -28.3004  -26.3562   20.2159 O   0  0  0  0  0  0
  -26.5633  -34.8913   22.4662 O   0  0  0  0  0  0
  -23.5456  -32.1398   23.7289 O   0  0  0  0  0  0
  -31.1517  -20.1119   20.2925 C   0  0  0  0  0  0
  -31.6478  -17.7196   20.3645 C   0  0  0  0  0  0
  -29.3329  -18.4852   20.6255 C   0  0  0  0  0  0
  -29.7725  -19.8930   20.4960 C   0  0  0  0  0  0
  -32.0732  -19.0538   20.2342 C   0  0  0  0  0  0
  -30.2875  -17.3596   20.5498 C   0  0  0  0  0  0
  -27.8661  -18.1609   20.8569 C   0  0  0  0  0  0
  -28.4019  -23.1418   21.8140 C   0  0  0  0  0  0
  -28.9449  -21.6976   21.9532 C   0  0  0  0  0  0
  -29.0383  -22.2867   19.6889 C   0  0  0  0  0  0
  -28.9483  -23.6743   20.4799 C   0  0  1  0  0  0
  -28.1198  -24.9099   19.8360 C   0  0  0  0  0  0
  -28.9625  -21.1030   20.6165 N   0  0  0  0  0  0
  -33.4307  -19.3294   20.0538 N   0  0  0  0  0  0
  -26.9709  -19.0760   20.5141 N   0  0  0  0  0  0
  -29.9347  -15.8989   20.6654 N   0  0  0  0  0  0
  -27.4985  -17.0670   21.2882 O   0  0  0  0  0  0
  -31.4651  -12.5367   19.1745 H   0  0  0  0  0  0
  -30.3428  -11.4708   19.9680 H   0  0  0  0  0  0
  -29.7807  -11.7298   17.5232 H   0  0  0  0  0  0
  -29.6385  -13.4592   17.7246 H   0  0  0  0  0  0
  -27.8839  -11.2918   18.9172 H   0  0  0  0  0  0
  -27.3736  -12.5329   17.8051 H   0  0  0  0  0  0
  -27.6268  -14.2645   19.4725 H   0  0  0  0  0  0
  -28.7167  -12.2026   21.4494 H   0  0  0  0  0  0
  -28.4304  -13.8926   21.7841 H   0  0  0  0  0  0
  -25.2769   -9.5670   22.4752 H   0  0  0  0  0  0
  -23.9996   -7.4629   22.7481 H   0  0  0  0  0  0
  -21.0845   -8.8763   19.8951 H   0  0  0  0  0  0
  -22.3709  -10.9652   19.6153 H   0  0  0  0  0  0
  -21.2013   -7.6149   23.9716 H   0  0  0  0  0  0
  -21.1479   -6.0524   25.9075 H   0  0  0  0  0  0
  -22.0603   -2.7612   23.2845 H   0  0  0  0  0  0
  -22.4083  -11.9805   22.4750 H   0  0  0  0  0  0
  -21.1082  -13.1185   22.2656 H   0  0  0  0  0  0
  -24.6391  -15.8172   20.6588 H   0  0  0  0  0  0
  -26.3031  -15.6644   20.4630 H   0  0  0  0  0  0
  -26.7199  -32.5401   23.1077 H   0  0  0  0  0  0
  -25.0082  -33.9706   25.0398 H   0  0  0  0  0  0
  -22.7227  -31.3019   21.3997 H   0  0  0  0  0  0
  -23.3757  -35.9611   23.3283 H   0  0  0  0  0  0
  -24.3583  -36.8934   22.2054 H   0  0  0  0  0  0
  -23.7242  -37.6475   23.6679 H   0  0  0  0  0  0
  -26.1165  -31.5276   20.6168 H   0  0  0  0  0  0
  -26.8503  -30.8112   22.0198 H   0  0  0  0  0  0
  -28.1021  -28.8999   21.2452 H   0  0  0  0  0  0
  -25.9493  -25.9631   18.9036 H   0  0  0  0  0  0
  -23.9811  -27.3447   18.9500 H   0  0  0  0  0  0
  -23.7642  -30.5981   19.4046 H   0  0  0  0  0  0
  -22.7632  -29.2507   19.8525 H   0  0  0  0  0  0
  -25.1291  -36.1913   25.0812 H   0  0  0  0  0  0
  -20.9976  -28.3276   24.1399 H   0  0  0  0  0  0
  -20.5692  -26.2299   23.3614 H   0  0  0  0  0  0
  -21.6641  -26.7442   22.1194 H   0  0  0  0  0  0
  -19.6928  -25.6288   21.1243 H   0  0  0  0  0  0
  -19.6698  -27.3190   20.6746 H   0  0  0  0  0  0
  -17.4202  -26.6672   21.4019 H   0  0  0  0  0  0
  -18.0320  -26.0063   22.9019 H   0  0  0  0  0  0
  -19.7947  -30.7265   24.2248 H   0  0  0  0  0  0
  -17.5024  -31.6262   24.5159 H   0  0  0  0  0  0
  -15.5357  -30.2980   23.7664 H   0  0  0  0  0  0
  -15.8674  -28.0819   22.7072 H   0  0  0  0  0  0
  -24.5911  -30.7070   25.7780 H   0  0  0  0  0  0
  -24.8884  -32.2906   26.4838 H   0  0  0  0  0  0
  -25.8021  -30.8954   27.0255 H   0  0  0  0  0  0
  -26.2952  -29.6736   24.1244 H   0  0  0  0  0  0
  -27.4017  -29.7270   25.4762 H   0  0  0  0  0  0
  -27.8837  -30.4261   23.9503 H   0  0  0  0  0  0
  -27.2668  -33.3647   26.2049 H   0  0  0  0  0  0
  -28.3880  -32.6866   25.0342 H   0  0  0  0  0  0
  -28.0704  -31.8482   26.5452 H   0  0  0  0  0  0
  -28.2563  -38.0117   24.7533 H   0  0  0  0  0  0
  -28.1113  -36.2644   24.6238 H   0  0  0  0  0  0
  -27.2303  -37.1381   25.8859 H   0  0  0  0  0  0
  -20.9397  -29.8775   21.6889 H   0  0  0  0  0  0
  -26.0167  -38.2841   24.1438 H   0  0  0  0  0  0
  -31.5210  -21.1242   20.2099 H   0  0  0  0  0  0
  -32.4207  -16.9712   20.3230 H   0  0  0  0  0  0
  -28.6815  -23.7710   22.6600 H   0  0  0  0  0  0
  -27.3118  -23.1103   21.7831 H   0  0  0  0  0  0
  -28.3286  -21.1126   22.6376 H   0  0  0  0  0  0
  -29.9562  -21.7165   22.3631 H   0  0  0  0  0  0
  -29.9342  -22.2611   19.0673 H   0  0  0  0  0  0
  -28.1946  -22.2163   19.0006 H   0  0  0  0  0  0
  -29.9746  -24.0081   20.6416 H   0  0  0  0  0  0
  -27.0827  -24.6197   19.9886 H   0  0  0  0  0  0
  -28.2764  -24.8769   18.7574 H   0  0  0  0  0  0
  -33.7779  -20.2721   20.2057 H   0  0  0  0  0  0
  -34.1184  -18.6116   20.2648 H   0  0  0  0  0  0
  -27.3318  -19.9916   20.2570 H   0  0  0  0  0  0
  -25.9815  -18.9182   20.6280 H   0  0  0  0  0  0
  -28.9590  -15.7378   20.8819 H   0  0  0  0  0  0
  1 25  1  0  0  0
  1 30  2  0  0  0
  1 86  1  0  0  0
  2  3  1  0  0  0
  2 25  1  0  0  0
  2 88  1  0  0  0
  2 89  1  0  0  0
  3  4  1  0  0  0
  3 90  1  0  0  0
  3 91  1  0  0  0
  4  5  1  0  0  0
  4 92  1  0  0  0
  4 93  1  0  0  0
  5  6  1  0  0  0
  5 26  1  0  0  0
  5 94  1  0  0  0
  6 25  1  0  0  0
  6 95  1  0  0  0
  6 96  1  0  0  0
  7  8  2  0  0  0
  7 26  1  0  0  0
  7 29  1  0  0  0
  8  9  1  0  0  0
  8 22  1  0  0  0
  9 10  1  0  0  0
  9 27  2  0  0  0
 10 11  2  0  0  0
 10 15  1  0  0  0
 11 12  1  0  0  0
 11 97  1  0  0  0
 12 13  2  0  0  0
 12 98  1  0  0  0
 13 14  1  0  0  0
 13 31  1  0  0  0
 14 15  2  0  0  0
 14 99  1  0  0  0
 15100  1  0  0  0
 16 17  2  0  0  0
 16 21  1  0  0  0
 16 31  1  0  0  0
 17 18  1  0  0  0
 17101  1  0  0  0
 18 19  2  0  0  0
 18102  1  0  0  0
 19 20  1  0  0  0
 19 24  1  0  0  0
 20 21  2  0  0  0
 20103  1  0  0  0
 21 23  1  0  0  0
 22 28  1  0  0  0
 22 32  2  0  0  0
 26 27  1  0  0  0
 28104  1  0  0  0
 28105  1  0  0  0
 29106  1  0  0  0
 29107  1  0  0  0
 33 34  1  0  0  0
 33 66  1  0  0  0
 33 70  2  0  0  0
 34 36  1  0  0  0
 34 59  1  0  0  0
 34108  1  0  0  0
 35 44  2  0  0  0
 35 45  1  0  0  0
 35 68  1  0  0  0
 36 56  1  0  0  0
 36109  1  0  0  0
 37 39  1  0  0  0
 37 47  1  0  0  0
 37 66  1  0  0  0
 37110  1  0  0  0
 38 43  2  0  0  0
 38 46  1  0  0  0
 38 47  1  0  0  0
 39 64  1  0  0  0
 39 67  2  0  0  0
 40 52  1  0  0  0
 40 53  2  0  0  0
 40 58  1  0  0  0
 41111  1  0  0  0
 41112  1  0  0  0
 41113  1  0  0  0
 41 48  1  0  0  0
 42 43  1  0  0  0
 42 66  1  0  0  0
 42114  1  0  0  0
 42115  1  0  0  0
 43 44  1  0  0  0
 44116  1  0  0  0
 45 46  2  0  0  0
 45117  1  0  0  0
 46118  1  0  0  0
 47119  1  0  0  0
 47120  1  0  0  0
 48 56  1  0  0  0
 48 65  1  0  0  0
 48121  1  0  0  0
 49 50  1  0  0  0
 49 53  1  0  0  0
 49 64  1  0  0  0
 49122  1  0  0  0
 50 51  1  0  0  0
 50123  1  0  0  0
 50124  1  0  0  0
 51 52  1  0  0  0
 51125  1  0  0  0
 51126  1  0  0  0
 52127  1  0  0  0
 52128  1  0  0  0
 53 54  1  0  0  0
 54 55  2  0  0  0
 54129  1  0  0  0
 55 57  1  0  0  0
 55130  1  0  0  0
 56 69  2  0  0  0
 57 58  2  0  0  0
 57131  1  0  0  0
 58132  1  0  0  0
 59 60  1  0  0  0
 59 61  1  0  0  0
 59 62  1  0  0  0
 60133  1  0  0  0
 60134  1  0  0  0
 60135  1  0  0  0
 61136  1  0  0  0
 61137  1  0  0  0
 61138  1  0  0  0
 62139  1  0  0  0
 62140  1  0  0  0
 62141  1  0  0  0
 63 65  1  0  0  0
 63142  1  0  0  0
 63143  1  0  0  0
 63144  1  0  0  0
 64145  1  0  0  0
 65146  1  0  0  0
 68 82  1  0  0  0
 71 74  2  0  0  0
 71 75  1  0  0  0
 71147  1  0  0  0
 72 75  2  0  0  0
 72 76  1  0  0  0
 72148  1  0  0  0
 73 74  1  0  0  0
 73 76  2  0  0  0
 73 77  1  0  0  0
 74 83  1  0  0  0
 75 84  1  0  0  0
 76 86  1  0  0  0
 77 85  1  0  0  0
 77 87  2  0  0  0
 78 79  1  0  0  0
 78 81  1  0  0  0
 78149  1  0  0  0
 78150  1  0  0  0
 79 83  1  0  0  0
 79151  1  0  0  0
 79152  1  0  0  0
 80 81  1  0  0  0
 80 83  1  0  0  0
 80153  1  0  0  0
 80154  1  0  0  0
 81 82  1  0  0  0
 81155  1  0  0  0
 82156  1  0  0  0
 82157  1  0  0  0
 84158  1  0  0  0
 84159  1  0  0  0
 85160  1  0  0  0
 85161  1  0  0  0
 86162  1  0  0  0
M  ISO  4   1 100  68 101  82 101  86 100
M  END
> <chiral flag>
0

> <version>
0

> <s_m_source_file>
/data/baiqing/PycharmProjects/Reinvent-master-3.2/result/LINK_invent/BTK/process_docking_weight1_custom_product_contain_oxygen_bond_distance_aromatic_linkinvent_7_9_3/rearranged_h_0106.sdf

> <i_m_source_file_index>
95

> <r_mmod_Potential_Energy-OPLS-2005>
363.585235595703

> <r_mmod_Stretch_Energy-OPLS-2005>
136.931854248047

> <r_mmod_Bend_Energy-OPLS-2005>
203.093841552734

> <r_mmod_Torsional_Energy-OPLS-2005>
306.205932617188

> <r_mmod_Improper_Torsional_Energy-OPLS-2005>
13.7152786254883

> <r_mmod_Van_der_Waal_Energy-OPLS-2005>
160.894805908203

> <r_mmod_Electrostatic_Energy-OPLS-2005>
-317.975769042969

> <r_mmod_Solvation_Energy-OPLS-2005>
-223.843627929688

> <b_mmod_Minimization_Converged-OPLS-2005>
0

> <r_mmod_RMS_Derivative-OPLS-2005>
0.952476263046265

$$$$
95
                    3D
 Structure written by MMmdl.
163171  0  0  1  0            999 V2000
  -30.7901  -14.3617   20.6912 C   0  0  0  0  0  0
  -30.4158  -12.2923   19.4012 C   0  0  0  0  0  0
  -29.4860  -12.5345   18.1974 C   0  0  0  0  0  0
  -28.0099  -12.3849   18.6089 C   0  0  0  0  0  0
  -27.6682  -13.2016   19.8811 C   0  0  2  0  0  0
  -28.7028  -12.9357   20.9963 C   0  0  0  0  0  0
  -25.2617  -13.8155   20.5666 C   0  0  0  0  0  0
  -24.1855  -13.0441   20.9147 C   0  0  0  0  0  0
  -24.6396  -11.6902   20.8713 C   0  0  0  0  0  0
  -23.9058  -10.4291   21.0394 C   0  0  0  0  0  0
  -24.3610   -9.4209   21.9178 C   0  0  0  0  0  0
  -23.6285   -8.2246   22.0756 C   0  0  0  0  0  0
  -22.4268   -8.0283   21.3548 C   0  0  0  0  0  0
  -21.9901   -9.0251   20.4647 C   0  0  0  0  0  0
  -22.7228  -10.2129   20.3047 C   0  0  0  0  0  0
  -21.6853   -6.0734   22.5277 C   0  0  0  0  0  0
  -21.4012   -6.5637   23.8209 C   0  0  0  0  0  0
  -21.3658   -5.6791   24.9171 C   0  0  0  0  0  0
  -21.6042   -4.3054   24.7222 C   0  0  0  0  0  0
  -21.8818   -3.8145   23.4345 C   0  0  0  0  0  0
  -21.9193   -4.6960   22.3401 C   0  0  0  0  0  0
  -22.7877  -13.5249   21.1825 C   0  0  0  0  0  0
  -22.1663   -4.2146   21.0979 F   0  0  0  0  0  0
  -21.5628   -3.4540   25.7737 F   0  0  0  0  0  0
  -30.0521  -13.2342   20.4723 N   0  0  0  0  0  0
  -26.3056  -12.9317   20.3373 N   0  0  0  0  0  0
  -25.9324  -11.6478   20.5743 N   0  0  0  0  0  0
  -22.0518  -12.8244   22.0381 N   0  0  0  0  0  0
  -25.4356  -15.1871   20.4092 N   0  0  0  0  0  0
  -31.7881  -14.6591   20.0242 O   0  0  0  0  0  0
  -21.6640   -6.8877   21.4241 O   0  0  0  0  0  0
  -22.3565  -14.5565   20.6690 O   0  0  0  0  0  0
  -24.6147  -31.8702   23.2149 C   0  0  0  0  0  0
  -25.9049  -32.4832   23.8428 C   0  0  1  0  0  0
  -27.2269  -27.4428   20.0790 C   0  0  0  0  0  0
  -25.5918  -33.8632   24.2356 N   0  0  0  0  0  0
  -23.4008  -30.4982   21.5562 C   0  0  2  0  0  0
  -24.8431  -28.9760   20.1127 C   0  0  0  0  0  0
  -22.7406  -29.4675   22.5004 C   0  0  0  0  0  0
  -18.0270  -28.1378   22.8500 C   0  0  0  0  0  0
  -24.1484  -36.7308   23.2637 C   0  0  0  0  0  0
  -25.9319  -30.8364   21.3702 C   0  0  0  0  0  0
  -26.0063  -29.4749   20.7116 C   0  0  0  0  0  0
  -27.1996  -28.7151   20.6960 C   0  0  0  0  0  0
  -26.0405  -26.9750   19.4566 C   0  0  0  0  0  0
  -24.8548  -27.7236   19.4842 C   0  0  0  0  0  0
  -23.6065  -29.8410   20.1675 C   0  0  0  0  0  0
  -25.4106  -36.3117   24.0342 C   0  0  1  0  0  0
  -20.5861  -28.3659   23.1320 C   0  0  2  0  0  0
  -20.6762  -26.9394   22.5414 C   0  0  0  0  0  0
  -19.5735  -26.6384   21.5217 C   0  0  0  0  0  0
  -18.1912  -26.7928   22.1623 C   0  0  0  0  0  0
  -19.1520  -28.8836   23.2906 C   0  0  0  0  0  0
  -18.9448  -30.1445   23.8914 C   0  0  0  0  0  0
  -17.6450  -30.6582   24.0574 C   0  0  0  0  0  0
  -25.9035  -34.9481   23.5140 C   0  0  0  0  0  0
  -16.5342  -29.9084   23.6337 C   0  0  0  0  0  0
  -16.7259  -28.6501   23.0357 C   0  0  0  0  0  0
  -26.4476  -31.6604   25.0747 C   0  0  0  0  0  0
  -25.3752  -31.3697   26.1501 C   0  0  0  0  0  0
  -27.0301  -30.3047   24.6114 C   0  0  0  0  0  0
  -27.6067  -32.4310   25.7497 C   0  0  0  0  0  0
  -27.5583  -37.1809   24.8466 C   0  0  0  0  0  0
  -21.4135  -29.3039   22.3738 N   0  0  0  0  0  0
  -26.4292  -37.3802   23.9416 N   0  0  0  0  0  0
  -24.6674  -31.0812   22.1053 N   0  0  0  0  0  0
  -23.4183  -28.8202   23.3029 O   0  0  0  0  0  0
  -28.3903  -26.6908   20.1100 O   0  0  0  0  0  0
  -26.5586  -34.8926   22.4694 O   0  0  0  0  0  0
  -23.5343  -32.1453   23.7548 O   0  0  0  0  0  0
  -29.7068  -17.1096   20.2255 C   0  0  0  0  0  0
  -30.1409  -17.6765   22.5426 C   0  0  0  0  0  0
  -30.0954  -16.6933   21.5233 C   0  0  0  0  0  0
  -29.3497  -18.4472   19.9578 C   0  0  0  0  0  0
  -29.7645  -19.0121   22.2932 C   0  0  0  0  0  0
  -29.3621  -19.4071   20.9949 C   0  0  0  0  0  0
  -30.3777  -15.2572   21.8552 C   0  0  0  0  0  0
  -27.4627  -18.4364   18.2660 C   0  0  0  0  0  0
  -28.9191  -18.8223   18.5484 C   0  0  0  0  0  0
  -29.3305  -24.3624   20.3606 C   0  0  0  0  0  0
  -28.8812  -22.9012   20.1363 C   0  0  0  0  0  0
  -28.2318  -25.2954   19.8228 C   0  0  0  0  0  0
  -29.6922  -21.7902   20.8199 C   0  0  0  0  0  0
  -30.3153  -14.8185   23.0466 N   0  0  0  0  0  0
  -29.7271  -19.9140   23.3551 N   0  0  0  0  0  0
  -28.8380  -20.6522   20.7407 O   0  0  0  0  0  0
  -31.4598  -12.3855   19.0968 H   0  0  0  0  0  0
  -30.3093  -11.2681   19.7620 H   0  0  0  0  0  0
  -29.7212  -11.8359   17.3934 H   0  0  0  0  0  0
  -29.6569  -13.5347   17.7958 H   0  0  0  0  0  0
  -27.8164  -11.3261   18.7849 H   0  0  0  0  0  0
  -27.3575  -12.6803   17.7862 H   0  0  0  0  0  0
  -27.7293  -14.2571   19.6148 H   0  0  0  0  0  0
  -28.6641  -11.8898   21.3042 H   0  0  0  0  0  0
  -28.4256  -13.4999   21.8844 H   0  0  0  0  0  0
  -25.2757   -9.5688   22.4750 H   0  0  0  0  0  0
  -23.9995   -7.4642   22.7481 H   0  0  0  0  0  0
  -21.0833   -8.8765   19.8953 H   0  0  0  0  0  0
  -22.3689  -10.9666   19.6153 H   0  0  0  0  0  0
  -21.2003   -7.6144   23.9709 H   0  0  0  0  0  0
  -21.1478   -6.0523   25.9073 H   0  0  0  0  0  0
  -22.0598   -2.7608   23.2846 H   0  0  0  0  0  0
  -22.4126  -11.9895   22.4754 H   0  0  0  0  0  0
  -21.1144  -13.1285   22.2604 H   0  0  0  0  0  0
  -24.6722  -15.8449   20.5216 H   0  0  0  0  0  0
  -26.2985  -15.6284   20.1176 H   0  0  0  0  0  0
  -26.7119  -32.5535   23.1192 H   0  0  0  0  0  0
  -25.0113  -33.9806   25.0529 H   0  0  0  0  0  0
  -22.6893  -31.3157   21.4227 H   0  0  0  0  0  0
  -23.3755  -35.9630   23.3302 H   0  0  0  0  0  0
  -24.3584  -36.8915   22.2053 H   0  0  0  0  0  0
  -23.7222  -37.6507   23.6644 H   0  0  0  0  0  0
  -26.0490  -31.6059   20.6061 H   0  0  0  0  0  0
  -26.8190  -30.8824   21.9902 H   0  0  0  0  0  0
  -28.0948  -29.0952   21.1680 H   0  0  0  0  0  0
  -25.9960  -26.0302   18.9357 H   0  0  0  0  0  0
  -23.9634  -27.3379   19.0091 H   0  0  0  0  0  0
  -23.7140  -30.6200   19.4119 H   0  0  0  0  0  0
  -22.7301  -29.2624   19.8691 H   0  0  0  0  0  0
  -25.1281  -36.1986   25.0836 H   0  0  0  0  0  0
  -20.9953  -28.3214   24.1442 H   0  0  0  0  0  0
  -20.5667  -26.2262   23.3599 H   0  0  0  0  0  0
  -21.6632  -26.7438   22.1199 H   0  0  0  0  0  0
  -19.6887  -25.6297   21.1237 H   0  0  0  0  0  0
  -19.6675  -27.3211   20.6761 H   0  0  0  0  0  0
  -17.4182  -26.6696   21.4021 H   0  0  0  0  0  0
  -18.0296  -26.0059   22.9002 H   0  0  0  0  0  0
  -19.7921  -30.7269   24.2279 H   0  0  0  0  0  0
  -17.4999  -31.6268   24.5162 H   0  0  0  0  0  0
  -15.5343  -30.2992   23.7652 H   0  0  0  0  0  0
  -15.8655  -28.0829   22.7065 H   0  0  0  0  0  0
  -24.5931  -30.7033   25.7841 H   0  0  0  0  0  0
  -24.8941  -32.2843   26.4974 H   0  0  0  0  0  0
  -25.8121  -30.8852   27.0242 H   0  0  0  0  0  0
  -26.2836  -29.6808   24.1183 H   0  0  0  0  0  0
  -27.4090  -29.7283   25.4564 H   0  0  0  0  0  0
  -27.8667  -30.4368   23.9250 H   0  0  0  0  0  0
  -27.2714  -33.3620   26.2077 H   0  0  0  0  0  0
  -28.3876  -32.6843   25.0314 H   0  0  0  0  0  0
  -28.0728  -31.8422   26.5405 H   0  0  0  0  0  0
  -28.2599  -38.0111   24.7536 H   0  0  0  0  0  0
  -28.1086  -36.2647   24.6266 H   0  0  0  0  0  0
  -27.2304  -37.1424   25.8869 H   0  0  0  0  0  0
  -20.9282  -29.8786   21.6991 H   0  0  0  0  0  0
  -26.0180  -38.2873   24.1441 H   0  0  0  0  0  0
  -29.6440  -16.3990   19.4132 H   0  0  0  0  0  0
  -30.4320  -17.3952   23.5447 H   0  0  0  0  0  0
  -27.1794  -18.7090   17.2491 H   0  0  0  0  0  0
  -26.7819  -18.9457   18.9485 H   0  0  0  0  0  0
  -27.3081  -17.3623   18.3760 H   0  0  0  0  0  0
  -29.5765  -18.3239   17.8348 H   0  0  0  0  0  0
  -29.0603  -19.8908   18.3808 H   0  0  0  0  0  0
  -30.2833  -24.5586   19.8686 H   0  0  0  0  0  0
  -29.4732  -24.5472   21.4259 H   0  0  0  0  0  0
  -28.8257  -22.6954   19.0667 H   0  0  0  0  0  0
  -27.8579  -22.8084   20.5034 H   0  0  0  0  0  0
  -27.3066  -24.9442   20.2835 H   0  0  0  0  0  0
  -28.1344  -25.1608   18.7441 H   0  0  0  0  0  0
  -29.9006  -22.0571   21.8549 H   0  0  0  0  0  0
  -30.6414  -21.6195   20.3094 H   0  0  0  0  0  0
  -30.0367  -15.5486   23.6898 H   0  0  0  0  0  0
  -29.6663  -19.5396   24.2961 H   0  0  0  0  0  0
  -29.1412  -20.7314   23.2238 H   0  0  0  0  0  0
  1 25  1  0  0  0
  1 30  2  0  0  0
  1 77  1  0  0  0
  2  3  1  0  0  0
  2 25  1  0  0  0
  2 87  1  0  0  0
  2 88  1  0  0  0
  3  4  1  0  0  0
  3 89  1  0  0  0
  3 90  1  0  0  0
  4  5  1  0  0  0
  4 91  1  0  0  0
  4 92  1  0  0  0
  5  6  1  0  0  0
  5 26  1  0  0  0
  5 93  1  0  0  0
  6 25  1  0  0  0
  6 94  1  0  0  0
  6 95  1  0  0  0
  7  8  2  0  0  0
  7 26  1  0  0  0
  7 29  1  0  0  0
  8  9  1  0  0  0
  8 22  1  0  0  0
  9 10  1  0  0  0
  9 27  2  0  0  0
 10 11  2  0  0  0
 10 15  1  0  0  0
 11 12  1  0  0  0
 11 96  1  0  0  0
 12 13  2  0  0  0
 12 97  1  0  0  0
 13 14  1  0  0  0
 13 31  1  0  0  0
 14 15  2  0  0  0
 14 98  1  0  0  0
 15 99  1  0  0  0
 16 17  2  0  0  0
 16 21  1  0  0  0
 16 31  1  0  0  0
 17 18  1  0  0  0
 17100  1  0  0  0
 18 19  2  0  0  0
 18101  1  0  0  0
 19 20  1  0  0  0
 19 24  1  0  0  0
 20 21  2  0  0  0
 20102  1  0  0  0
 21 23  1  0  0  0
 22 28  1  0  0  0
 22 32  2  0  0  0
 26 27  1  0  0  0
 28103  1  0  0  0
 28104  1  0  0  0
 29105  1  0  0  0
 29106  1  0  0  0
 33 34  1  0  0  0
 33 66  1  0  0  0
 33 70  2  0  0  0
 34 36  1  0  0  0
 34 59  1  0  0  0
 34107  1  0  0  0
 35 44  2  0  0  0
 35 45  1  0  0  0
 35 68  1  0  0  0
 36 56  1  0  0  0
 36108  1  0  0  0
 37 39  1  0  0  0
 37 47  1  0  0  0
 37 66  1  0  0  0
 37109  1  0  0  0
 38 43  2  0  0  0
 38 46  1  0  0  0
 38 47  1  0  0  0
 39 64  1  0  0  0
 39 67  2  0  0  0
 40 52  1  0  0  0
 40 53  2  0  0  0
 40 58  1  0  0  0
 41110  1  0  0  0
 41111  1  0  0  0
 41112  1  0  0  0
 41 48  1  0  0  0
 42 43  1  0  0  0
 42 66  1  0  0  0
 42113  1  0  0  0
 42114  1  0  0  0
 43 44  1  0  0  0
 44115  1  0  0  0
 45 46  2  0  0  0
 45116  1  0  0  0
 46117  1  0  0  0
 47118  1  0  0  0
 47119  1  0  0  0
 48 56  1  0  0  0
 48 65  1  0  0  0
 48120  1  0  0  0
 49 50  1  0  0  0
 49 53  1  0  0  0
 49 64  1  0  0  0
 49121  1  0  0  0
 50 51  1  0  0  0
 50122  1  0  0  0
 50123  1  0  0  0
 51 52  1  0  0  0
 51124  1  0  0  0
 51125  1  0  0  0
 52126  1  0  0  0
 52127  1  0  0  0
 53 54  1  0  0  0
 54 55  2  0  0  0
 54128  1  0  0  0
 55 57  1  0  0  0
 55129  1  0  0  0
 56 69  2  0  0  0
 57 58  2  0  0  0
 57130  1  0  0  0
 58131  1  0  0  0
 59 60  1  0  0  0
 59 61  1  0  0  0
 59 62  1  0  0  0
 60132  1  0  0  0
 60133  1  0  0  0
 60134  1  0  0  0
 61135  1  0  0  0
 61136  1  0  0  0
 61137  1  0  0  0
 62138  1  0  0  0
 62139  1  0  0  0
 62140  1  0  0  0
 63 65  1  0  0  0
 63141  1  0  0  0
 63142  1  0  0  0
 63143  1  0  0  0
 64144  1  0  0  0
 65145  1  0  0  0
 68 82  1  0  0  0
 71 73  2  0  0  0
 71 74  1  0  0  0
 71146  1  0  0  0
 72 73  1  0  0  0
 72 75  2  0  0  0
 72147  1  0  0  0
 73 77  1  0  0  0
 74 76  2  0  0  0
 74 79  1  0  0  0
 75 76  1  0  0  0
 75 85  1  0  0  0
 76 86  1  0  0  0
 77 84  2  0  0  0
 78 79  1  0  0  0
 78148  1  0  0  0
 78149  1  0  0  0
 78150  1  0  0  0
 79151  1  0  0  0
 79152  1  0  0  0
 80 81  1  0  0  0
 80 82  1  0  0  0
 80153  1  0  0  0
 80154  1  0  0  0
 81 83  1  0  0  0
 81155  1  0  0  0
 81156  1  0  0  0
 82157  1  0  0  0
 82158  1  0  0  0
 83 86  1  0  0  0
 83159  1  0  0  0
 83160  1  0  0  0
 84161  1  0  0  0
 85162  1  0  0  0
 85163  1  0  0  0
M  ISO  4   1 100  68 101  77 100  82 101
M  END
> <chiral flag>
0

> <version>
0

> <s_m_source_file>
/data/baiqing/PycharmProjects/Reinvent-master-3.2/result/LINK_invent/BTK/process_docking_weight1_custom_product_contain_oxygen_bond_distance_aromatic_linkinvent_7_9_3/rearranged_h_0106.sdf

> <i_m_source_file_index>
96

> <r_mmod_Potential_Energy-OPLS-2005>
80.8436279296875

> <r_mmod_Stretch_Energy-OPLS-2005>
38.5924873352051

> <r_mmod_Bend_Energy-OPLS-2005>
108.861305236816

> <r_mmod_Torsional_Energy-OPLS-2005>
233.206481933594

> <r_mmod_Improper_Torsional_Energy-OPLS-2005>
6.51104354858398

> <r_mmod_Van_der_Waal_Energy-OPLS-2005>
167.827102661133

> <r_mmod_Electrostatic_Energy-OPLS-2005>
-281.250244140625

> <r_mmod_Solvation_Energy-OPLS-2005>
-202.375518798828

> <b_mmod_Minimization_Converged-OPLS-2005>
0

> <r_mmod_RMS_Derivative-OPLS-2005>
0.687493622303009

$$$$
96
                    3D
 Structure written by MMmdl.
166175  0  0  1  0            999 V2000
  -30.7238  -14.4140   20.5918 C   0  0  0  0  0  0
  -30.4163  -12.2771   19.4018 C   0  0  0  0  0  0
  -29.4774  -12.4931   18.1979 C   0  0  0  0  0  0
  -28.0005  -12.3669   18.6169 C   0  0  0  0  0  0
  -27.6622  -13.1983   19.8844 C   0  0  2  0  0  0
  -28.7077  -12.9474   20.9947 C   0  0  0  0  0  0
  -25.2601  -13.8169   20.5775 C   0  0  0  0  0  0
  -24.1831  -13.0464   20.9234 C   0  0  0  0  0  0
  -24.6360  -11.6914   20.8769 C   0  0  0  0  0  0
  -23.9032  -10.4301   21.0407 C   0  0  0  0  0  0
  -24.3592   -9.4208   21.9169 C   0  0  0  0  0  0
  -23.6279   -8.2236   22.0741 C   0  0  0  0  0  0
  -22.4258   -8.0270   21.3535 C   0  0  0  0  0  0
  -21.9890   -9.0246   20.4634 C   0  0  0  0  0  0
  -22.7209  -10.2133   20.3052 C   0  0  0  0  0  0
  -21.6844   -6.0734   22.5281 C   0  0  0  0  0  0
  -21.3992   -6.5642   23.8208 C   0  0  0  0  0  0
  -21.3652   -5.6803   24.9174 C   0  0  0  0  0  0
  -21.6050   -4.3069   24.7232 C   0  0  0  0  0  0
  -21.8812   -3.8150   23.4352 C   0  0  0  0  0  0
  -21.9182   -4.6961   22.3404 C   0  0  0  0  0  0
  -22.7836  -13.5234   21.1894 C   0  0  0  0  0  0
  -22.1660   -4.2146   21.0983 F   0  0  0  0  0  0
  -21.5628   -3.4555   25.7744 F   0  0  0  0  0  0
  -30.0378  -13.2510   20.4364 N   0  0  0  0  0  0
  -26.3021  -12.9319   20.3455 N   0  0  0  0  0  0
  -25.9282  -11.6492   20.5812 N   0  0  0  0  0  0
  -22.0505  -12.8193   22.0440 N   0  0  0  0  0  0
  -25.4403  -15.1897   20.4202 N   0  0  0  0  0  0
  -31.8194  -14.6270   20.0673 O   0  0  0  0  0  0
  -21.6625   -6.8868   21.4239 O   0  0  0  0  0  0
  -22.3504  -14.5543   20.6748 O   0  0  0  0  0  0
  -24.6173  -31.8689   23.2112 C   0  0  0  0  0  0
  -25.9057  -32.4844   23.8419 C   0  0  1  0  0  0
  -27.2257  -27.4299   20.1048 C   0  0  0  0  0  0
  -25.5894  -33.8645   24.2334 N   0  0  0  0  0  0
  -23.4061  -30.4938   21.5509 C   0  0  2  0  0  0
  -24.8484  -28.9582   20.1238 C   0  0  0  0  0  0
  -22.7398  -29.4688   22.4978 C   0  0  0  0  0  0
  -18.0275  -28.1368   22.8496 C   0  0  0  0  0  0
  -24.1480  -36.7332   23.2635 C   0  0  0  0  0  0
  -25.9349  -30.8373   21.3621 C   0  0  0  0  0  0
  -26.0131  -29.4709   20.7099 C   0  0  0  0  0  0
  -27.2101  -28.7176   20.6876 C   0  0  0  0  0  0
  -26.0372  -26.9236   19.5390 C   0  0  0  0  0  0
  -24.8542  -27.6828   19.5380 C   0  0  0  0  0  0
  -23.6142  -29.8277   20.1668 C   0  0  0  0  0  0
  -25.4104  -36.3137   24.0337 C   0  0  1  0  0  0
  -20.5860  -28.3692   23.1286 C   0  0  2  0  0  0
  -20.6755  -26.9421   22.5390 C   0  0  0  0  0  0
  -19.5735  -26.6386   21.5193 C   0  0  0  0  0  0
  -18.1929  -26.7927   22.1617 C   0  0  0  0  0  0
  -19.1516  -28.8837   23.2890 C   0  0  0  0  0  0
  -18.9438  -30.1436   23.8914 C   0  0  0  0  0  0
  -17.6437  -30.6574   24.0574 C   0  0  0  0  0  0
  -25.9027  -34.9496   23.5133 C   0  0  0  0  0  0
  -16.5333  -29.9080   23.6314 C   0  0  0  0  0  0
  -16.7261  -28.6483   23.0359 C   0  0  0  0  0  0
  -26.4471  -31.6624   25.0751 C   0  0  0  0  0  0
  -25.3754  -31.3709   26.1516 C   0  0  0  0  0  0
  -27.0269  -30.3066   24.6100 C   0  0  0  0  0  0
  -27.6039  -32.4337   25.7523 C   0  0  0  0  0  0
  -27.5584  -37.1830   24.8470 C   0  0  0  0  0  0
  -21.4127  -29.3095   22.3716 N   0  0  0  0  0  0
  -26.4304  -37.3811   23.9397 N   0  0  0  0  0  0
  -24.6716  -31.0801   22.1005 N   0  0  0  0  0  0
  -23.4161  -28.8200   23.3014 O   0  0  0  0  0  0
  -28.3834  -26.6835   20.0716 O   0  0  0  0  0  0
  -26.5589  -34.8942   22.4699 O   0  0  0  0  0  0
  -23.5361  -32.1431   23.7497 O   0  0  0  0  0  0
  -28.8510  -18.3476   21.6120 C   0  0  0  0  0  0
  -30.2478  -19.9647   19.7907 C   0  0  0  0  0  0
  -30.0978  -17.9062   21.1253 C   0  0  0  0  0  0
  -29.0354  -20.4360   20.3377 C   0  0  0  0  0  0
  -28.3163  -19.5925   21.2213 C   0  0  0  0  0  0
  -30.7731  -18.7068   20.1662 C   0  0  0  0  0  0
  -28.3655  -24.1131   20.0103 C   0  0  0  0  0  0
  -28.6478  -22.9211   20.6138 C   0  0  0  0  0  0
  -28.0469  -24.1108   18.5462 C   0  0  0  0  0  0
  -27.8274  -22.7675   17.8380 C   0  0  0  0  0  0
  -27.6192  -21.6009   18.8111 C   0  0  0  0  0  0
  -29.0525  -22.8417   22.0848 C   0  0  0  0  0  0
  -30.7096  -16.6309   21.7232 C   0  0  0  0  0  0
  -28.3410  -25.4429   20.8028 C   0  0  0  0  0  0
  -28.5340  -21.6958   19.9410 N   0  0  0  0  0  0
  -27.0900  -20.0053   21.7409 N   0  0  0  0  0  0
  -31.9545  -18.2809   19.5626 N   0  0  0  0  0  0
  -30.1033  -15.3618   21.3076 N   0  0  0  0  0  0
  -28.0072  -25.1208   17.8389 O   0  0  0  0  0  0
  -31.4585  -12.3765   19.0926 H   0  0  0  0  0  0
  -30.3163  -11.2603   19.7849 H   0  0  0  0  0  0
  -29.6980  -11.7695   17.4117 H   0  0  0  0  0  0
  -29.6511  -13.4809   17.7695 H   0  0  0  0  0  0
  -27.7955  -11.3115   18.8021 H   0  0  0  0  0  0
  -27.3468  -12.6592   17.7953 H   0  0  0  0  0  0
  -27.7199  -14.2484   19.6031 H   0  0  0  0  0  0
  -28.6781  -11.9032   21.3128 H   0  0  0  0  0  0
  -28.4776  -13.5217   21.8917 H   0  0  0  0  0  0
  -25.2733   -9.5693   22.4749 H   0  0  0  0  0  0
  -23.9994   -7.4625   22.7459 H   0  0  0  0  0  0
  -21.0820   -8.8741   19.8950 H   0  0  0  0  0  0
  -22.3636  -10.9667   19.6172 H   0  0  0  0  0  0
  -21.1974   -7.6149   23.9702 H   0  0  0  0  0  0
  -21.1492   -6.0542   25.9077 H   0  0  0  0  0  0
  -22.0599   -2.7615   23.2854 H   0  0  0  0  0  0
  -22.4139  -11.9818   22.4764 H   0  0  0  0  0  0
  -21.1127  -13.1173   22.2729 H   0  0  0  0  0  0
  -24.6977  -15.8618   20.5778 H   0  0  0  0  0  0
  -26.2982  -15.6184   20.0940 H   0  0  0  0  0  0
  -26.7153  -32.5550   23.1209 H   0  0  0  0  0  0
  -25.0078  -33.9821   25.0507 H   0  0  0  0  0  0
  -22.6966  -31.3107   21.4082 H   0  0  0  0  0  0
  -23.3744  -35.9667   23.3329 H   0  0  0  0  0  0
  -24.3584  -36.8917   22.2047 H   0  0  0  0  0  0
  -23.7225  -37.6544   23.6630 H   0  0  0  0  0  0
  -26.0453  -31.6050   20.5961 H   0  0  0  0  0  0
  -26.8260  -30.8911   21.9776 H   0  0  0  0  0  0
  -28.1155  -29.1117   21.1281 H   0  0  0  0  0  0
  -26.0093  -25.9404   19.0998 H   0  0  0  0  0  0
  -23.9548  -27.2707   19.1008 H   0  0  0  0  0  0
  -23.7281  -30.6016   19.4070 H   0  0  0  0  0  0
  -22.7387  -29.2498   19.8638 H   0  0  0  0  0  0
  -25.1274  -36.2012   25.0829 H   0  0  0  0  0  0
  -20.9964  -28.3261   24.1405 H   0  0  0  0  0  0
  -20.5611  -26.2324   23.3594 H   0  0  0  0  0  0
  -21.6642  -26.7444   22.1218 H   0  0  0  0  0  0
  -19.6898  -25.6296   21.1239 H   0  0  0  0  0  0
  -19.6664  -27.3179   20.6699 H   0  0  0  0  0  0
  -17.4193  -26.6687   21.4023 H   0  0  0  0  0  0
  -18.0355  -26.0022   22.8971 H   0  0  0  0  0  0
  -19.7901  -30.7249   24.2318 H   0  0  0  0  0  0
  -17.4983  -31.6260   24.5156 H   0  0  0  0  0  0
  -15.5338  -30.2991   23.7590 H   0  0  0  0  0  0
  -15.8670  -28.0786   22.7089 H   0  0  0  0  0  0
  -24.5933  -30.7033   25.7874 H   0  0  0  0  0  0
  -24.8949  -32.2857   26.4995 H   0  0  0  0  0  0
  -25.8156  -30.8881   27.0257 H   0  0  0  0  0  0
  -26.2785  -29.6889   24.1125 H   0  0  0  0  0  0
  -27.3994  -29.7232   25.4528 H   0  0  0  0  0  0
  -27.8652  -30.4371   23.9254 H   0  0  0  0  0  0
  -27.2641  -33.3614   26.2142 H   0  0  0  0  0  0
  -28.3850  -32.6948   25.0368 H   0  0  0  0  0  0
  -28.0724  -31.8451   26.5424 H   0  0  0  0  0  0
  -28.2628  -38.0100   24.7507 H   0  0  0  0  0  0
  -28.1047  -36.2645   24.6311 H   0  0  0  0  0  0
  -27.2309  -37.1501   25.8873 H   0  0  0  0  0  0
  -20.9276  -29.8895   21.6991 H   0  0  0  0  0  0
  -26.0205  -38.2895   24.1386 H   0  0  0  0  0  0
  -28.3241  -17.7275   22.3226 H   0  0  0  0  0  0
  -30.7766  -20.5826   19.0789 H   0  0  0  0  0  0
  -28.7014  -22.5830   17.2161 H   0  0  0  0  0  0
  -26.9727  -22.8443   17.1667 H   0  0  0  0  0  0
  -27.7225  -20.6496   18.2864 H   0  0  0  0  0  0
  -26.6007  -21.6274   19.2000 H   0  0  0  0  0  0
  -29.9877  -23.3770   22.2496 H   0  0  0  0  0  0
  -29.2095  -21.8308   22.4559 H   0  0  0  0  0  0
  -28.2876  -23.2919   22.7186 H   0  0  0  0  0  0
  -31.7893  -16.6290   21.5691 H   0  0  0  0  0  0
  -30.5968  -16.6797   22.8062 H   0  0  0  0  0  0
  -29.2095  -25.4571   21.4614 H   0  0  0  0  0  0
  -27.4777  -25.4132   21.4726 H   0  0  0  0  0  0
  -26.7760  -19.5794   22.6060 H   0  0  0  0  0  0
  -26.9611  -21.0123   21.7281 H   0  0  0  0  0  0
  -32.1624  -18.7054   18.6633 H   0  0  0  0  0  0
  -32.1126  -17.2770   19.5433 H   0  0  0  0  0  0
  -29.1928  -15.1335   21.6784 H   0  0  0  0  0  0
  1 25  1  0  0  0
  1 30  2  0  0  0
  1 88  1  0  0  0
  2  3  1  0  0  0
  2 25  1  0  0  0
  2 90  1  0  0  0
  2 91  1  0  0  0
  3  4  1  0  0  0
  3 92  1  0  0  0
  3 93  1  0  0  0
  4  5  1  0  0  0
  4 94  1  0  0  0
  4 95  1  0  0  0
  5  6  1  0  0  0
  5 26  1  0  0  0
  5 96  1  0  0  0
  6 25  1  0  0  0
  6 97  1  0  0  0
  6 98  1  0  0  0
  7  8  2  0  0  0
  7 26  1  0  0  0
  7 29  1  0  0  0
  8  9  1  0  0  0
  8 22  1  0  0  0
  9 10  1  0  0  0
  9 27  2  0  0  0
 10 11  2  0  0  0
 10 15  1  0  0  0
 11 12  1  0  0  0
 11 99  1  0  0  0
 12 13  2  0  0  0
 12100  1  0  0  0
 13 14  1  0  0  0
 13 31  1  0  0  0
 14 15  2  0  0  0
 14101  1  0  0  0
 15102  1  0  0  0
 16 17  2  0  0  0
 16 21  1  0  0  0
 16 31  1  0  0  0
 17 18  1  0  0  0
 17103  1  0  0  0
 18 19  2  0  0  0
 18104  1  0  0  0
 19 20  1  0  0  0
 19 24  1  0  0  0
 20 21  2  0  0  0
 20105  1  0  0  0
 21 23  1  0  0  0
 22 28  1  0  0  0
 22 32  2  0  0  0
 26 27  1  0  0  0
 28106  1  0  0  0
 28107  1  0  0  0
 29108  1  0  0  0
 29109  1  0  0  0
 33 34  1  0  0  0
 33 66  1  0  0  0
 33 70  2  0  0  0
 34 36  1  0  0  0
 34 59  1  0  0  0
 34110  1  0  0  0
 35 44  2  0  0  0
 35 45  1  0  0  0
 35 68  1  0  0  0
 36 56  1  0  0  0
 36111  1  0  0  0
 37 39  1  0  0  0
 37 47  1  0  0  0
 37 66  1  0  0  0
 37112  1  0  0  0
 38 43  2  0  0  0
 38 46  1  0  0  0
 38 47  1  0  0  0
 39 64  1  0  0  0
 39 67  2  0  0  0
 40 52  1  0  0  0
 40 53  2  0  0  0
 40 58  1  0  0  0
 41113  1  0  0  0
 41114  1  0  0  0
 41115  1  0  0  0
 41 48  1  0  0  0
 42 43  1  0  0  0
 42 66  1  0  0  0
 42116  1  0  0  0
 42117  1  0  0  0
 43 44  1  0  0  0
 44118  1  0  0  0
 45 46  2  0  0  0
 45119  1  0  0  0
 46120  1  0  0  0
 47121  1  0  0  0
 47122  1  0  0  0
 48 56  1  0  0  0
 48 65  1  0  0  0
 48123  1  0  0  0
 49 50  1  0  0  0
 49 53  1  0  0  0
 49 64  1  0  0  0
 49124  1  0  0  0
 50 51  1  0  0  0
 50125  1  0  0  0
 50126  1  0  0  0
 51 52  1  0  0  0
 51127  1  0  0  0
 51128  1  0  0  0
 52129  1  0  0  0
 52130  1  0  0  0
 53 54  1  0  0  0
 54 55  2  0  0  0
 54131  1  0  0  0
 55 57  1  0  0  0
 55132  1  0  0  0
 56 69  2  0  0  0
 57 58  2  0  0  0
 57133  1  0  0  0
 58134  1  0  0  0
 59 60  1  0  0  0
 59 61  1  0  0  0
 59 62  1  0  0  0
 60135  1  0  0  0
 60136  1  0  0  0
 60137  1  0  0  0
 61138  1  0  0  0
 61139  1  0  0  0
 61140  1  0  0  0
 62141  1  0  0  0
 62142  1  0  0  0
 62143  1  0  0  0
 63 65  1  0  0  0
 63144  1  0  0  0
 63145  1  0  0  0
 63146  1  0  0  0
 64147  1  0  0  0
 65148  1  0  0  0
 68 84  1  0  0  0
 71 73  2  0  0  0
 71 75  1  0  0  0
 71149  1  0  0  0
 72 74  1  0  0  0
 72 76  2  0  0  0
 72150  1  0  0  0
 73 76  1  0  0  0
 73 83  1  0  0  0
 74 75  2  0  0  0
 74 85  1  0  0  0
 75 86  1  0  0  0
 76 87  1  0  0  0
 77 78  2  0  0  0
 77 79  1  0  0  0
 77 84  1  0  0  0
 78 82  1  0  0  0
 78 85  1  0  0  0
 79 80  1  0  0  0
 79 89  2  0  0  0
 80 81  1  0  0  0
 80151  1  0  0  0
 80152  1  0  0  0
 81 85  1  0  0  0
 81153  1  0  0  0
 81154  1  0  0  0
 82155  1  0  0  0
 82156  1  0  0  0
 82157  1  0  0  0
 83 88  1  0  0  0
 83158  1  0  0  0
 83159  1  0  0  0
 84160  1  0  0  0
 84161  1  0  0  0
 86162  1  0  0  0
 86163  1  0  0  0
 87164  1  0  0  0
 87165  1  0  0  0
 88166  1  0  0  0
M  ISO  4   1 100  68 101  84 101  88 100
M  END
> <chiral flag>
0

> <version>
0

> <s_m_source_file>
/data/baiqing/PycharmProjects/Reinvent-master-3.2/result/LINK_invent/BTK/process_docking_weight1_custom_product_contain_oxygen_bond_distance_aromatic_linkinvent_7_9_3/rearranged_h_0106.sdf

> <i_m_source_file_index>
97

> <r_mmod_Potential_Energy-OPLS-2005>
-72.6870422363281

> <r_mmod_Stretch_Energy-OPLS-2005>
42.2842254638672

> <r_mmod_Bend_Energy-OPLS-2005>
106.495658874512

> <r_mmod_Torsional_Energy-OPLS-2005>
250.92057800293

> <r_mmod_Improper_Torsional_Energy-OPLS-2005>
11.7303018569946

> <r_mmod_Van_der_Waal_Energy-OPLS-2005>
173.4775390625

> <r_mmod_Electrostatic_Energy-OPLS-2005>
-435.803344726562

> <r_mmod_Solvation_Energy-OPLS-2005>
-231.916366577148

> <b_mmod_Minimization_Converged-OPLS-2005>
0

> <r_mmod_RMS_Derivative-OPLS-2005>
3.41068387031555

$$$$
97
                    3D
 Structure written by MMmdl.
159168  0  0  1  0            999 V2000
  -30.5983  -14.5757   20.5623 C   0  0  0  0  0  0
  -30.4542  -12.3755   19.4144 C   0  0  0  0  0  0
  -29.5008  -12.5291   18.2062 C   0  0  0  0  0  0
  -28.0187  -12.3849   18.6198 C   0  0  0  0  0  0
  -27.6614  -13.2012   19.8867 C   0  0  2  0  0  0
  -28.7112  -12.9691   20.9977 C   0  0  0  0  0  0
  -25.2624  -13.8135   20.5805 C   0  0  0  0  0  0
  -24.1833  -13.0421   20.9245 C   0  0  0  0  0  0
  -24.6365  -11.6877   20.8762 C   0  0  0  0  0  0
  -23.9007  -10.4294   21.0432 C   0  0  0  0  0  0
  -24.3565   -9.4224   21.9226 C   0  0  0  0  0  0
  -23.6280   -8.2236   22.0760 C   0  0  0  0  0  0
  -22.4282   -8.0275   21.3547 C   0  0  0  0  0  0
  -21.9901   -9.0234   20.4651 C   0  0  0  0  0  0
  -22.7176  -10.2153   20.3084 C   0  0  0  0  0  0
  -21.6869   -6.0740   22.5282 C   0  0  0  0  0  0
  -21.4030   -6.5631   23.8217 C   0  0  0  0  0  0
  -21.3656   -5.6788   24.9181 C   0  0  0  0  0  0
  -21.6052   -4.3035   24.7207 C   0  0  0  0  0  0
  -21.8831   -3.8141   23.4316 C   0  0  0  0  0  0
  -21.9205   -4.6967   22.3389 C   0  0  0  0  0  0
  -22.7861  -13.5290   21.1809 C   0  0  0  0  0  0
  -22.1686   -4.2166   21.0955 F   0  0  0  0  0  0
  -21.5596   -3.4514   25.7702 F   0  0  0  0  0  0
  -30.0289  -13.3391   20.4416 N   0  0  0  0  0  0
  -26.3038  -12.9268   20.3486 N   0  0  0  0  0  0
  -25.9307  -11.6427   20.5833 N   0  0  0  0  0  0
  -22.0397  -12.8439   22.0378 N   0  0  0  0  0  0
  -25.4365  -15.1863   20.4224 N   0  0  0  0  0  0
  -31.7392  -14.8374   20.1588 O   0  0  0  0  0  0
  -21.6643   -6.8874   21.4243 O   0  0  0  0  0  0
  -22.3621  -14.5576   20.6541 O   0  0  0  0  0  0
  -24.6234  -31.8612   23.2069 C   0  0  0  0  0  0
  -25.9099  -32.4783   23.8354 C   0  0  1  0  0  0
  -27.2261  -27.3625   20.0882 C   0  0  0  0  0  0
  -25.5957  -33.8593   24.2303 N   0  0  0  0  0  0
  -23.4116  -30.4911   21.5477 C   0  0  2  0  0  0
  -24.8521  -28.9523   20.1050 C   0  0  0  0  0  0
  -22.7425  -29.4657   22.4912 C   0  0  0  0  0  0
  -18.0274  -28.1428   22.8550 C   0  0  0  0  0  0
  -24.1489  -36.7287   23.2649 C   0  0  0  0  0  0
  -25.9486  -30.8057   21.3683 C   0  0  0  0  0  0
  -26.0171  -29.4379   20.7066 C   0  0  0  0  0  0
  -27.2022  -28.6511   20.6959 C   0  0  0  0  0  0
  -26.0260  -26.9019   19.4967 C   0  0  0  0  0  0
  -24.8563  -27.6876   19.4948 C   0  0  0  0  0  0
  -23.6217  -29.8349   20.1576 C   0  0  0  0  0  0
  -25.4120  -36.3083   24.0337 C   0  0  1  0  0  0
  -20.5870  -28.3712   23.1326 C   0  0  2  0  0  0
  -20.6750  -26.9441   22.5432 C   0  0  0  0  0  0
  -19.5678  -26.6439   21.5252 C   0  0  0  0  0  0
  -18.1904  -26.7944   22.1742 C   0  0  0  0  0  0
  -19.1536  -28.8883   23.2930 C   0  0  0  0  0  0
  -18.9460  -30.1494   23.8941 C   0  0  0  0  0  0
  -17.6482  -30.6641   24.0640 C   0  0  0  0  0  0
  -25.9055  -34.9459   23.5111 C   0  0  0  0  0  0
  -16.5363  -29.9175   23.6384 C   0  0  0  0  0  0
  -16.7266  -28.6586   23.0398 C   0  0  0  0  0  0
  -26.4521  -31.6558   25.0687 C   0  0  0  0  0  0
  -25.3784  -31.3589   26.1404 C   0  0  0  0  0  0
  -27.0372  -30.3014   24.6078 C   0  0  0  0  0  0
  -27.6128  -32.4248   25.7415 C   0  0  0  0  0  0
  -27.5580  -37.1797   24.8471 C   0  0  0  0  0  0
  -21.4136  -29.3094   22.3697 N   0  0  0  0  0  0
  -26.4293  -37.3787   23.9414 N   0  0  0  0  0  0
  -24.6803  -31.0657   22.0994 N   0  0  0  0  0  0
  -23.4172  -28.8163   23.2946 O   0  0  0  0  0  0
  -28.3945  -26.5978   20.1145 O   0  0  0  0  0  0
  -26.5585  -34.8933   22.4661 O   0  0  0  0  0  0
  -23.5415  -32.1381   23.7457 O   0  0  0  0  0  0
  -29.0748  -19.4935   22.3237 C   0  0  0  0  0  0
  -29.9839  -18.0093   20.5937 C   0  0  0  0  0  0
  -29.0858  -17.0815   22.6630 C   0  0  0  0  0  0
  -29.6560  -19.3382   21.0416 C   0  0  0  0  0  0
  -28.7972  -18.3734   23.1312 C   0  0  0  0  0  0
  -29.6892  -16.8699   21.4060 C   0  0  0  0  0  0
  -29.6003  -22.9863   20.1878 C   0  0  0  0  0  0
  -30.0456  -20.5816   20.2440 C   0  0  0  0  0  0
  -27.2602  -23.0375   19.7881 C   0  0  0  0  0  0
  -27.7563  -21.6023   20.0964 C   0  0  0  0  0  0
  -28.4040  -23.9753   20.2070 C   0  0  2  0  0  0
  -28.5292  -25.3305   19.3893 C   0  0  0  0  0  0
  -29.2149  -21.6798   20.2278 N   0  0  0  0  0  0
  -28.2207  -18.5259   24.3954 N   0  0  0  0  0  0
  -29.6931  -15.4973   20.9860 N   0  0  0  0  0  0
  -30.7659  -23.3981   20.2063 O   0  0  0  0  0  0
  -31.1384  -20.5610   19.6653 O   0  0  0  0  0  0
  -31.4852  -12.5474   19.1054 H   0  0  0  0  0  0
  -30.4242  -11.3603   19.8112 H   0  0  0  0  0  0
  -29.7406  -11.7870   17.4439 H   0  0  0  0  0  0
  -29.6540  -13.5040   17.7402 H   0  0  0  0  0  0
  -27.8232  -11.3255   18.7950 H   0  0  0  0  0  0
  -27.3740  -12.6900   17.7935 H   0  0  0  0  0  0
  -27.7016  -14.2531   19.5992 H   0  0  0  0  0  0
  -28.7154  -11.9255   21.3184 H   0  0  0  0  0  0
  -28.4648  -13.5334   21.8962 H   0  0  0  0  0  0
  -25.2671   -9.5738   22.4868 H   0  0  0  0  0  0
  -23.9977   -7.4655   22.7526 H   0  0  0  0  0  0
  -21.0806   -8.8714   19.9017 H   0  0  0  0  0  0
  -22.3556  -10.9694   19.6226 H   0  0  0  0  0  0
  -21.2060   -7.6157   23.9718 H   0  0  0  0  0  0
  -21.1471   -6.0516   25.9092 H   0  0  0  0  0  0
  -22.0630   -2.7607   23.2785 H   0  0  0  0  0  0
  -22.3829  -12.0129   22.4993 H   0  0  0  0  0  0
  -21.1008  -13.1612   22.2352 H   0  0  0  0  0  0
  -24.6675  -15.8356   20.5287 H   0  0  0  0  0  0
  -26.2825  -15.6330   20.0919 H   0  0  0  0  0  0
  -26.7170  -32.5410   23.1095 H   0  0  0  0  0  0
  -25.0174  -33.9769   25.0488 H   0  0  0  0  0  0
  -22.7056  -31.3152   21.4135 H   0  0  0  0  0  0
  -23.3765  -35.9604   23.3304 H   0  0  0  0  0  0
  -24.3587  -36.8906   22.2066 H   0  0  0  0  0  0
  -23.7243  -37.6507   23.6642 H   0  0  0  0  0  0
  -26.0854  -31.5778   20.6094 H   0  0  0  0  0  0
  -26.8252  -30.8413   22.0027 H   0  0  0  0  0  0
  -28.0966  -29.0345   21.1668 H   0  0  0  0  0  0
  -25.9544  -25.9253   19.0431 H   0  0  0  0  0  0
  -23.9539  -27.3085   19.0320 H   0  0  0  0  0  0
  -23.7486  -30.6196   19.4089 H   0  0  0  0  0  0
  -22.7323  -29.2810   19.8501 H   0  0  0  0  0  0
  -25.1313  -36.1940   25.0834 H   0  0  0  0  0  0
  -21.0015  -28.3302   24.1416 H   0  0  0  0  0  0
  -20.5678  -26.2334   23.3634 H   0  0  0  0  0  0
  -21.6608  -26.7466   22.1190 H   0  0  0  0  0  0
  -19.6806  -25.6371   21.1216 H   0  0  0  0  0  0
  -19.6541  -27.3298   20.6811 H   0  0  0  0  0  0
  -17.4117  -26.6608   21.4250 H   0  0  0  0  0  0
  -18.0398  -26.0167   22.9241 H   0  0  0  0  0  0
  -19.7938  -30.7350   24.2276 H   0  0  0  0  0  0
  -17.5050  -31.6313   24.5259 H   0  0  0  0  0  0
  -15.5375  -30.3103   23.7727 H   0  0  0  0  0  0
  -15.8645  -28.0975   22.7049 H   0  0  0  0  0  0
  -24.6048  -30.6855   25.7679 H   0  0  0  0  0  0
  -24.8872  -32.2699   26.4820 H   0  0  0  0  0  0
  -25.8166  -30.8770   27.0158 H   0  0  0  0  0  0
  -26.2913  -29.6695   24.1270 H   0  0  0  0  0  0
  -27.4310  -29.7324   25.4507 H   0  0  0  0  0  0
  -27.8660  -30.4328   23.9132 H   0  0  0  0  0  0
  -27.2840  -33.3598   26.1949 H   0  0  0  0  0  0
  -28.3957  -32.6709   25.0221 H   0  0  0  0  0  0
  -28.0773  -31.8373   26.5340 H   0  0  0  0  0  0
  -28.2607  -38.0088   24.7550 H   0  0  0  0  0  0
  -28.1076  -36.2633   24.6272 H   0  0  0  0  0  0
  -27.2286  -37.1438   25.8872 H   0  0  0  0  0  0
  -20.9264  -29.8937   21.7034 H   0  0  0  0  0  0
  -26.0163  -38.2856   24.1449 H   0  0  0  0  0  0
  -28.8535  -20.4855   22.6943 H   0  0  0  0  0  0
  -30.4232  -17.8745   19.6137 H   0  0  0  0  0  0
  -28.8052  -16.2358   23.2748 H   0  0  0  0  0  0
  -26.3264  -23.2671   20.3102 H   0  0  0  0  0  0
  -27.0654  -23.1404   18.7161 H   0  0  0  0  0  0
  -27.4848  -20.9164   19.2905 H   0  0  0  0  0  0
  -27.3050  -21.2225   21.0148 H   0  0  0  0  0  0
  -28.2774  -24.2274   21.2607 H   0  0  0  0  0  0
  -27.8982  -25.3153   18.5019 H   0  0  0  0  0  0
  -29.5347  -25.3750   18.9614 H   0  0  0  0  0  0
  -27.7845  -19.3992   24.6722 H   0  0  0  0  0  0
  -27.8911  -17.7150   24.9168 H   0  0  0  0  0  0
  -28.8634  -15.0055   21.2746 H   0  0  0  0  0  0
  1 25  1  0  0  0
  1 30  2  0  0  0
  1 85  1  0  0  0
  2  3  1  0  0  0
  2 25  1  0  0  0
  2 88  1  0  0  0
  2 89  1  0  0  0
  3  4  1  0  0  0
  3 90  1  0  0  0
  3 91  1  0  0  0
  4  5  1  0  0  0
  4 92  1  0  0  0
  4 93  1  0  0  0
  5  6  1  0  0  0
  5 26  1  0  0  0
  5 94  1  0  0  0
  6 25  1  0  0  0
  6 95  1  0  0  0
  6 96  1  0  0  0
  7  8  2  0  0  0
  7 26  1  0  0  0
  7 29  1  0  0  0
  8  9  1  0  0  0
  8 22  1  0  0  0
  9 10  1  0  0  0
  9 27  2  0  0  0
 10 11  2  0  0  0
 10 15  1  0  0  0
 11 12  1  0  0  0
 11 97  1  0  0  0
 12 13  2  0  0  0
 12 98  1  0  0  0
 13 14  1  0  0  0
 13 31  1  0  0  0
 14 15  2  0  0  0
 14 99  1  0  0  0
 15100  1  0  0  0
 16 17  2  0  0  0
 16 21  1  0  0  0
 16 31  1  0  0  0
 17 18  1  0  0  0
 17101  1  0  0  0
 18 19  2  0  0  0
 18102  1  0  0  0
 19 20  1  0  0  0
 19 24  1  0  0  0
 20 21  2  0  0  0
 20103  1  0  0  0
 21 23  1  0  0  0
 22 28  1  0  0  0
 22 32  2  0  0  0
 26 27  1  0  0  0
 28104  1  0  0  0
 28105  1  0  0  0
 29106  1  0  0  0
 29107  1  0  0  0
 33 34  1  0  0  0
 33 66  1  0  0  0
 33 70  2  0  0  0
 34 36  1  0  0  0
 34 59  1  0  0  0
 34108  1  0  0  0
 35 44  2  0  0  0
 35 45  1  0  0  0
 35 68  1  0  0  0
 36 56  1  0  0  0
 36109  1  0  0  0
 37 39  1  0  0  0
 37 47  1  0  0  0
 37 66  1  0  0  0
 37110  1  0  0  0
 38 43  2  0  0  0
 38 46  1  0  0  0
 38 47  1  0  0  0
 39 64  1  0  0  0
 39 67  2  0  0  0
 40 52  1  0  0  0
 40 53  2  0  0  0
 40 58  1  0  0  0
 41111  1  0  0  0
 41112  1  0  0  0
 41113  1  0  0  0
 41 48  1  0  0  0
 42 43  1  0  0  0
 42 66  1  0  0  0
 42114  1  0  0  0
 42115  1  0  0  0
 43 44  1  0  0  0
 44116  1  0  0  0
 45 46  2  0  0  0
 45117  1  0  0  0
 46118  1  0  0  0
 47119  1  0  0  0
 47120  1  0  0  0
 48 56  1  0  0  0
 48 65  1  0  0  0
 48121  1  0  0  0
 49 50  1  0  0  0
 49 53  1  0  0  0
 49 64  1  0  0  0
 49122  1  0  0  0
 50 51  1  0  0  0
 50123  1  0  0  0
 50124  1  0  0  0
 51 52  1  0  0  0
 51125  1  0  0  0
 51126  1  0  0  0
 52127  1  0  0  0
 52128  1  0  0  0
 53 54  1  0  0  0
 54 55  2  0  0  0
 54129  1  0  0  0
 55 57  1  0  0  0
 55130  1  0  0  0
 56 69  2  0  0  0
 57 58  2  0  0  0
 57131  1  0  0  0
 58132  1  0  0  0
 59 60  1  0  0  0
 59 61  1  0  0  0
 59 62  1  0  0  0
 60133  1  0  0  0
 60134  1  0  0  0
 60135  1  0  0  0
 61136  1  0  0  0
 61137  1  0  0  0
 61138  1  0  0  0
 62139  1  0  0  0
 62140  1  0  0  0
 62141  1  0  0  0
 63 65  1  0  0  0
 63142  1  0  0  0
 63143  1  0  0  0
 63144  1  0  0  0
 64145  1  0  0  0
 65146  1  0  0  0
 68 82  1  0  0  0
 71 74  2  0  0  0
 71 75  1  0  0  0
 71147  1  0  0  0
 72 74  1  0  0  0
 72 76  2  0  0  0
 72148  1  0  0  0
 73 75  2  0  0  0
 73 76  1  0  0  0
 73149  1  0  0  0
 74 78  1  0  0  0
 75 84  1  0  0  0
 76 85  1  0  0  0
 77 81  1  0  0  0
 77 83  1  0  0  0
 77 86  2  0  0  0
 78 83  1  0  0  0
 78 87  2  0  0  0
 79 80  1  0  0  0
 79 81  1  0  0  0
 79150  1  0  0  0
 79151  1  0  0  0
 80 83  1  0  0  0
 80152  1  0  0  0
 80153  1  0  0  0
 81 82  1  0  0  0
 81154  1  0  0  0
 82155  1  0  0  0
 82156  1  0  0  0
 84157  1  0  0  0
 84158  1  0  0  0
 85159  1  0  0  0
M  ISO  4   1 100  68 101  82 101  85 100
M  END
> <chiral flag>
0

> <version>
0

> <s_m_source_file>
/data/baiqing/PycharmProjects/Reinvent-master-3.2/result/LINK_invent/BTK/process_docking_weight1_custom_product_contain_oxygen_bond_distance_aromatic_linkinvent_7_9_3/rearranged_h_0106.sdf

> <i_m_source_file_index>
98

> <r_mmod_Potential_Energy-OPLS-2005>
88.6044692993164

> <r_mmod_Stretch_Energy-OPLS-2005>
61.7660751342773

> <r_mmod_Bend_Energy-OPLS-2005>
183.11067199707

> <r_mmod_Torsional_Energy-OPLS-2005>
308.995422363281

> <r_mmod_Improper_Torsional_Energy-OPLS-2005>
9.42615604400635

> <r_mmod_Van_der_Waal_Energy-OPLS-2005>
147.43766784668

> <r_mmod_Electrostatic_Energy-OPLS-2005>
-395.598297119141

> <r_mmod_Solvation_Energy-OPLS-2005>
-257.575866699219

> <b_mmod_Minimization_Converged-OPLS-2005>
0

> <r_mmod_RMS_Derivative-OPLS-2005>
5.63642120361328

$$$$
98
                    3D
 Structure written by MMmdl.
158166  0  0  1  0            999 V2000
  -30.6183  -14.7477   20.5157 C   0  0  0  0  0  0
  -30.4552  -12.4877   19.4300 C   0  0  0  0  0  0
  -29.5020  -12.5249   18.2126 C   0  0  0  0  0  0
  -28.0305  -12.3202   18.6345 C   0  0  0  0  0  0
  -27.6500  -13.1820   19.8644 C   0  0  2  0  0  0
  -28.7259  -13.0152   20.9735 C   0  0  0  0  0  0
  -25.2423  -13.7942   20.5627 C   0  0  0  0  0  0
  -24.1729  -13.0253   20.9194 C   0  0  0  0  0  0
  -24.6339  -11.6764   20.8773 C   0  0  0  0  0  0
  -23.9017  -10.4190   21.0423 C   0  0  0  0  0  0
  -24.3579   -9.4125   21.9203 C   0  0  0  0  0  0
  -23.6251   -8.2173   22.0762 C   0  0  0  0  0  0
  -22.4233   -8.0232   21.3547 C   0  0  0  0  0  0
  -21.9868   -9.0201   20.4649 C   0  0  0  0  0  0
  -22.7202  -10.2066   20.3057 C   0  0  0  0  0  0
  -21.6826   -6.0708   22.5282 C   0  0  0  0  0  0
  -21.3992   -6.5619   23.8214 C   0  0  0  0  0  0
  -21.3656   -5.6778   24.9177 C   0  0  0  0  0  0
  -21.6042   -4.3042   24.7230 C   0  0  0  0  0  0
  -21.8821   -3.8130   23.4353 C   0  0  0  0  0  0
  -21.9186   -4.6941   22.3409 C   0  0  0  0  0  0
  -22.7767  -13.5106   21.1859 C   0  0  0  0  0  0
  -22.1659   -4.2129   21.0984 F   0  0  0  0  0  0
  -21.5637   -3.4530   25.7748 F   0  0  0  0  0  0
  -29.9886  -13.5113   20.4010 N   0  0  0  0  0  0
  -26.2952  -12.9153   20.3393 N   0  0  0  0  0  0
  -25.9277  -11.6337   20.5839 N   0  0  0  0  0  0
  -22.0403  -12.8161   22.0455 N   0  0  0  0  0  0
  -25.3738  -15.1633   20.3940 N   0  0  0  0  0  0
  -31.8080  -14.8143   20.1830 O   0  0  0  0  0  0
  -21.6595   -6.8839   21.4244 O   0  0  0  0  0  0
  -22.3477  -14.5423   20.6700 O   0  0  0  0  0  0
  -24.6254  -31.8600   23.2017 C   0  0  0  0  0  0
  -25.9097  -32.4783   23.8354 C   0  0  1  0  0  0
  -27.2486  -27.3304   20.1127 C   0  0  0  0  0  0
  -25.5909  -33.8582   24.2279 N   0  0  0  0  0  0
  -23.4208  -30.4804   21.5448 C   0  0  2  0  0  0
  -24.8714  -28.9320   20.1179 C   0  0  0  0  0  0
  -22.7477  -29.4621   22.4953 C   0  0  0  0  0  0
  -18.0285  -28.1385   22.8490 C   0  0  0  0  0  0
  -24.1486  -36.7293   23.2641 C   0  0  0  0  0  0
  -25.9609  -30.7933   21.3723 C   0  0  0  0  0  0
  -26.0395  -29.4203   20.7159 C   0  0  0  0  0  0
  -27.2287  -28.6327   20.7003 C   0  0  0  0  0  0
  -26.0499  -26.8867   19.5050 C   0  0  0  0  0  0
  -24.8777  -27.6688   19.5060 C   0  0  0  0  0  0
  -23.6369  -29.8098   20.1627 C   0  0  0  0  0  0
  -25.4111  -36.3086   24.0332 C   0  0  1  0  0  0
  -20.5885  -28.3685   23.1293 C   0  0  2  0  0  0
  -20.6772  -26.9410   22.5418 C   0  0  0  0  0  0
  -19.5745  -26.6382   21.5220 C   0  0  0  0  0  0
  -18.1924  -26.7928   22.1630 C   0  0  0  0  0  0
  -19.1537  -28.8853   23.2883 C   0  0  0  0  0  0
  -18.9461  -30.1459   23.8891 C   0  0  0  0  0  0
  -17.6460  -30.6585   24.0565 C   0  0  0  0  0  0
  -25.9046  -34.9458   23.5109 C   0  0  0  0  0  0
  -16.5352  -29.9084   23.6332 C   0  0  0  0  0  0
  -16.7273  -28.6505   23.0348 C   0  0  0  0  0  0
  -26.4485  -31.6595   25.0727 C   0  0  0  0  0  0
  -25.3714  -31.3733   26.1451 C   0  0  0  0  0  0
  -27.0332  -30.3021   24.6182 C   0  0  0  0  0  0
  -27.6044  -32.4333   25.7493 C   0  0  0  0  0  0
  -27.5583  -37.1795   24.8462 C   0  0  0  0  0  0
  -21.4194  -29.3035   22.3689 N   0  0  0  0  0  0
  -26.4286  -37.3783   23.9416 N   0  0  0  0  0  0
  -24.6877  -31.0612   22.0968 N   0  0  0  0  0  0
  -23.4201  -28.8166   23.3034 O   0  0  0  0  0  0
  -28.3999  -26.5219   20.1291 O   0  0  0  0  0  0
  -26.5628  -34.8925   22.4681 O   0  0  0  0  0  0
  -23.5415  -32.1397   23.7340 O   0  0  0  0  0  0
  -30.3636  -18.2322   21.7343 C   0  0  0  0  0  0
  -30.2953  -19.6442   21.5506 C   0  0  0  0  0  0
  -30.6841  -17.9181   19.3714 C   0  0  0  0  0  0
  -30.4693  -17.3180   20.6429 C   0  0  0  0  0  0
  -30.3752  -20.2321   20.2627 C   0  0  0  0  0  0
  -30.6442  -19.3361   19.1904 C   0  0  0  0  0  0
  -27.0752  -18.0605   20.3402 C   0  0  0  0  0  0
  -27.7495  -16.9270   20.0941 C   0  0  0  0  0  0
  -29.4287  -22.6107   20.5703 C   0  0  0  0  0  0
  -28.4969  -16.1155   21.1493 C   0  0  0  0  0  0
  -29.5617  -24.1393   20.1750 C   0  0  0  0  0  0
  -28.2504  -25.0470   20.1469 C   0  0  0  0  0  0
  -30.2572  -21.6712   20.0105 N   0  0  0  0  0  0
  -29.9244  -15.9489   20.7768 N   0  0  0  0  0  0
  -28.5784  -22.2927   21.4040 O   0  0  0  0  0  0
  -30.7978  -19.8421   17.9424 F   0  0  0  0  0  0
  -31.4786  -12.6632   19.0956 H   0  0  0  0  0  0
  -30.4706  -11.4939   19.8801 H   0  0  0  0  0  0
  -29.7916  -11.7682   17.4820 H   0  0  0  0  0  0
  -29.6007  -13.4864   17.7066 H   0  0  0  0  0  0
  -27.8933  -11.2640   18.8689 H   0  0  0  0  0  0
  -27.3647  -12.5358   17.7981 H   0  0  0  0  0  0
  -27.6565  -14.2012   19.4881 H   0  0  0  0  0  0
  -28.8093  -11.9571   21.2254 H   0  0  0  0  0  0
  -28.4946  -13.4609   21.9383 H   0  0  0  0  0  0
  -25.2719   -9.5606   22.4784 H   0  0  0  0  0  0
  -23.9950   -7.4561   22.7479 H   0  0  0  0  0  0
  -21.0796   -8.8720   19.8964 H   0  0  0  0  0  0
  -22.3670  -10.9608   19.6165 H   0  0  0  0  0  0
  -21.1969   -7.6126   23.9710 H   0  0  0  0  0  0
  -21.1484   -6.0506   25.9079 H   0  0  0  0  0  0
  -22.0605   -2.7595   23.2854 H   0  0  0  0  0  0
  -22.3986  -11.9827   22.4878 H   0  0  0  0  0  0
  -21.1047  -13.1253   22.2671 H   0  0  0  0  0  0
  -24.5873  -15.7907   20.5154 H   0  0  0  0  0  0
  -26.2328  -15.6545   20.1766 H   0  0  0  0  0  0
  -26.7172  -32.5467   23.1111 H   0  0  0  0  0  0
  -25.0037  -33.9730   25.0411 H   0  0  0  0  0  0
  -22.7143  -31.3000   21.3991 H   0  0  0  0  0  0
  -23.3755  -35.9617   23.3294 H   0  0  0  0  0  0
  -24.3578  -36.8923   22.2057 H   0  0  0  0  0  0
  -23.7228  -37.6485   23.6671 H   0  0  0  0  0  0
  -26.0913  -31.5575   20.6050 H   0  0  0  0  0  0
  -26.8406  -30.8434   22.0022 H   0  0  0  0  0  0
  -28.1272  -29.0091   21.1685 H   0  0  0  0  0  0
  -25.9912  -25.9262   19.0175 H   0  0  0  0  0  0
  -23.9821  -27.2851   19.0366 H   0  0  0  0  0  0
  -23.7543  -30.5831   19.4027 H   0  0  0  0  0  0
  -22.7583  -29.2359   19.8624 H   0  0  0  0  0  0
  -25.1287  -36.1939   25.0824 H   0  0  0  0  0  0
  -20.9978  -28.3255   24.1415 H   0  0  0  0  0  0
  -20.5676  -26.2295   23.3615 H   0  0  0  0  0  0
  -21.6641  -26.7436   22.1214 H   0  0  0  0  0  0
  -19.6906  -25.6293   21.1247 H   0  0  0  0  0  0
  -19.6680  -27.3195   20.6752 H   0  0  0  0  0  0
  -17.4198  -26.6683   21.4028 H   0  0  0  0  0  0
  -18.0316  -26.0070   22.9025 H   0  0  0  0  0  0
  -19.7935  -30.7279   24.2254 H   0  0  0  0  0  0
  -17.5012  -31.6265   24.5170 H   0  0  0  0  0  0
  -15.5350  -30.2982   23.7655 H   0  0  0  0  0  0
  -15.8677  -28.0826   22.7055 H   0  0  0  0  0  0
  -24.5875  -30.7106   25.7769 H   0  0  0  0  0  0
  -24.8924  -32.2904   26.4890 H   0  0  0  0  0  0
  -25.8028  -30.8888   27.0219 H   0  0  0  0  0  0
  -26.2914  -29.6770   24.1203 H   0  0  0  0  0  0
  -27.4028  -29.7277   25.4686 H   0  0  0  0  0  0
  -27.8780  -30.4309   23.9412 H   0  0  0  0  0  0
  -27.2653  -33.3628   26.2077 H   0  0  0  0  0  0
  -28.3844  -32.6903   25.0315 H   0  0  0  0  0  0
  -28.0728  -31.8461   26.5401 H   0  0  0  0  0  0
  -28.2587  -38.0106   24.7532 H   0  0  0  0  0  0
  -28.1090  -36.2640   24.6253 H   0  0  0  0  0  0
  -27.2310  -37.1404   25.8866 H   0  0  0  0  0  0
  -20.9378  -29.8753   21.6894 H   0  0  0  0  0  0
  -26.0171  -38.2856   24.1422 H   0  0  0  0  0  0
  -30.1971  -17.8489   22.7311 H   0  0  0  0  0  0
  -30.1350  -20.2736   22.4137 H   0  0  0  0  0  0
  -30.7532  -17.2924   18.4945 H   0  0  0  0  0  0
  -26.5671  -18.5882   19.5451 H   0  0  0  0  0  0
  -27.0198  -18.4827   21.3337 H   0  0  0  0  0  0
  -27.7754  -16.5463   19.0815 H   0  0  0  0  0  0
  -27.9028  -15.2495   21.3426 H   0  0  0  0  0  0
  -28.4218  -16.6264   22.1088 H   0  0  0  0  0  0
  -30.0612  -24.2109   19.2088 H   0  0  0  0  0  0
  -30.2544  -24.5738   20.8958 H   0  0  0  0  0  0
  -27.6274  -24.7956   21.0061 H   0  0  0  0  0  0
  -27.6975  -24.7303   19.2642 H   0  0  0  0  0  0
  -30.8211  -22.0041   19.2405 H   0  0  0  0  0  0
  1 25  1  0  0  0
  1 30  2  0  0  0
  1 84  1  0  0  0
  2  3  1  0  0  0
  2 25  1  0  0  0
  2 87  1  0  0  0
  2 88  1  0  0  0
  3  4  1  0  0  0
  3 89  1  0  0  0
  3 90  1  0  0  0
  4  5  1  0  0  0
  4 91  1  0  0  0
  4 92  1  0  0  0
  5  6  1  0  0  0
  5 26  1  0  0  0
  5 93  1  0  0  0
  6 25  1  0  0  0
  6 94  1  0  0  0
  6 95  1  0  0  0
  7  8  2  0  0  0
  7 26  1  0  0  0
  7 29  1  0  0  0
  8  9  1  0  0  0
  8 22  1  0  0  0
  9 10  1  0  0  0
  9 27  2  0  0  0
 10 11  2  0  0  0
 10 15  1  0  0  0
 11 12  1  0  0  0
 11 96  1  0  0  0
 12 13  2  0  0  0
 12 97  1  0  0  0
 13 14  1  0  0  0
 13 31  1  0  0  0
 14 15  2  0  0  0
 14 98  1  0  0  0
 15 99  1  0  0  0
 16 17  2  0  0  0
 16 21  1  0  0  0
 16 31  1  0  0  0
 17 18  1  0  0  0
 17100  1  0  0  0
 18 19  2  0  0  0
 18101  1  0  0  0
 19 20  1  0  0  0
 19 24  1  0  0  0
 20 21  2  0  0  0
 20102  1  0  0  0
 21 23  1  0  0  0
 22 28  1  0  0  0
 22 32  2  0  0  0
 26 27  1  0  0  0
 28103  1  0  0  0
 28104  1  0  0  0
 29105  1  0  0  0
 29106  1  0  0  0
 33 34  1  0  0  0
 33 66  1  0  0  0
 33 70  2  0  0  0
 34 36  1  0  0  0
 34 59  1  0  0  0
 34107  1  0  0  0
 35 44  2  0  0  0
 35 45  1  0  0  0
 35 68  1  0  0  0
 36 56  1  0  0  0
 36108  1  0  0  0
 37 39  1  0  0  0
 37 47  1  0  0  0
 37 66  1  0  0  0
 37109  1  0  0  0
 38 43  2  0  0  0
 38 46  1  0  0  0
 38 47  1  0  0  0
 39 64  1  0  0  0
 39 67  2  0  0  0
 40 52  1  0  0  0
 40 53  2  0  0  0
 40 58  1  0  0  0
 41110  1  0  0  0
 41111  1  0  0  0
 41112  1  0  0  0
 41 48  1  0  0  0
 42 43  1  0  0  0
 42 66  1  0  0  0
 42113  1  0  0  0
 42114  1  0  0  0
 43 44  1  0  0  0
 44115  1  0  0  0
 45 46  2  0  0  0
 45116  1  0  0  0
 46117  1  0  0  0
 47118  1  0  0  0
 47119  1  0  0  0
 48 56  1  0  0  0
 48 65  1  0  0  0
 48120  1  0  0  0
 49 50  1  0  0  0
 49 53  1  0  0  0
 49 64  1  0  0  0
 49121  1  0  0  0
 50 51  1  0  0  0
 50122  1  0  0  0
 50123  1  0  0  0
 51 52  1  0  0  0
 51124  1  0  0  0
 51125  1  0  0  0
 52126  1  0  0  0
 52127  1  0  0  0
 53 54  1  0  0  0
 54 55  2  0  0  0
 54128  1  0  0  0
 55 57  1  0  0  0
 55129  1  0  0  0
 56 69  2  0  0  0
 57 58  2  0  0  0
 57130  1  0  0  0
 58131  1  0  0  0
 59 60  1  0  0  0
 59 61  1  0  0  0
 59 62  1  0  0  0
 60132  1  0  0  0
 60133  1  0  0  0
 60134  1  0  0  0
 61135  1  0  0  0
 61136  1  0  0  0
 61137  1  0  0  0
 62138  1  0  0  0
 62139  1  0  0  0
 62140  1  0  0  0
 63 65  1  0  0  0
 63141  1  0  0  0
 63142  1  0  0  0
 63143  1  0  0  0
 64144  1  0  0  0
 65145  1  0  0  0
 68 82  1  0  0  0
 71 72  2  0  0  0
 71 74  1  0  0  0
 71146  1  0  0  0
 72 75  1  0  0  0
 72147  1  0  0  0
 73 74  2  0  0  0
 73 76  1  0  0  0
 73148  1  0  0  0
 74 84  1  0  0  0
 75 76  2  0  0  0
 75 83  1  0  0  0
 76 86  1  0  0  0
 77 78  2  0  0  0
 77149  1  0  0  0
 77150  1  0  0  0
 78 80  1  0  0  0
 78151  1  0  0  0
 79 81  1  0  0  0
 79 83  1  0  0  0
 79 85  2  0  0  0
 80 84  1  0  0  0
 80152  1  0  0  0
 80153  1  0  0  0
 81 82  1  0  0  0
 81154  1  0  0  0
 81155  1  0  0  0
 82156  1  0  0  0
 82157  1  0  0  0
 83158  1  0  0  0
M  ISO  4   1 100  68 101  82 101  84 100
M  END
> <chiral flag>
0

> <version>
0

> <s_m_source_file>
/data/baiqing/PycharmProjects/Reinvent-master-3.2/result/LINK_invent/BTK/process_docking_weight1_custom_product_contain_oxygen_bond_distance_aromatic_linkinvent_7_9_3/rearranged_h_0106.sdf

> <i_m_source_file_index>
99

> <r_mmod_Potential_Energy-OPLS-2005>
298.352294921875

> <r_mmod_Stretch_Energy-OPLS-2005>
99.393424987793

> <r_mmod_Bend_Energy-OPLS-2005>
183.175888061523

> <r_mmod_Torsional_Energy-OPLS-2005>
329.034362792969

> <r_mmod_Improper_Torsional_Energy-OPLS-2005>
9.7843770980835

> <r_mmod_Van_der_Waal_Energy-OPLS-2005>
172.844009399414

> <r_mmod_Electrostatic_Energy-OPLS-2005>
-353.225433349609

> <r_mmod_Solvation_Energy-OPLS-2005>
-204.264755249023

> <b_mmod_Minimization_Converged-OPLS-2005>
0

> <r_mmod_RMS_Derivative-OPLS-2005>
1.01301765441895

$$$$
99
                    3D
 Structure written by MMmdl.
150158  0  0  1  0            999 V2000
  -30.6299  -14.7406   20.4618 C   0  0  0  0  0  0
  -30.4268  -12.4566   19.4681 C   0  0  0  0  0  0
  -29.5053  -12.5013   18.2308 C   0  0  0  0  0  0
  -28.0327  -12.3265   18.6489 C   0  0  0  0  0  0
  -27.6379  -13.2343   19.8449 C   0  0  2  0  0  0
  -28.6834  -13.1816   20.9790 C   0  0  0  0  0  0
  -25.2490  -13.8206   20.5695 C   0  0  0  0  0  0
  -24.1791  -13.0444   20.9216 C   0  0  0  0  0  0
  -24.6392  -11.6923   20.8754 C   0  0  0  0  0  0
  -23.9075  -10.4295   21.0413 C   0  0  0  0  0  0
  -24.3626   -9.4204   21.9185 C   0  0  0  0  0  0
  -23.6299   -8.2239   22.0752 C   0  0  0  0  0  0
  -22.4279   -8.0281   21.3543 C   0  0  0  0  0  0
  -21.9920   -9.0257   20.4647 C   0  0  0  0  0  0
  -22.7251  -10.2136   20.3058 C   0  0  0  0  0  0
  -21.6851   -6.0735   22.5281 C   0  0  0  0  0  0
  -21.4015   -6.5639   23.8215 C   0  0  0  0  0  0
  -21.3660   -5.6792   24.9175 C   0  0  0  0  0  0
  -21.6043   -4.3054   24.7225 C   0  0  0  0  0  0
  -21.8818   -3.8147   23.4347 C   0  0  0  0  0  0
  -21.9191   -4.6963   22.3402 C   0  0  0  0  0  0
  -22.7809  -13.5218   21.1871 C   0  0  0  0  0  0
  -22.1658   -4.2150   21.0979 F   0  0  0  0  0  0
  -21.5630   -3.4538   25.7737 F   0  0  0  0  0  0
  -29.9809  -13.5282   20.3886 N   0  0  0  0  0  0
  -26.2917  -12.9420   20.3263 N   0  0  0  0  0  0
  -25.9320  -11.6560   20.5749 N   0  0  0  0  0  0
  -22.0454  -12.8209   22.0431 N   0  0  0  0  0  0
  -25.4162  -15.1933   20.4112 N   0  0  0  0  0  0
  -31.8265  -14.8050   20.1709 O   0  0  0  0  0  0
  -21.6640   -6.8880   21.4242 O   0  0  0  0  0  0
  -22.3490  -14.5517   20.6710 O   0  0  0  0  0  0
  -24.6319  -31.8546   23.1977 C   0  0  0  0  0  0
  -25.9142  -32.4749   23.8325 C   0  0  1  0  0  0
  -27.2161  -27.2590   20.1363 C   0  0  0  0  0  0
  -25.5934  -33.8550   24.2246 N   0  0  0  0  0  0
  -23.4290  -30.4774   21.5407 C   0  0  2  0  0  0
  -24.8772  -28.9230   20.1112 C   0  0  0  0  0  0
  -22.7504  -29.4604   22.4904 C   0  0  0  0  0  0
  -18.0294  -28.1388   22.8483 C   0  0  0  0  0  0
  -24.1491  -36.7285   23.2640 C   0  0  0  0  0  0
  -25.9752  -30.7672   21.3784 C   0  0  0  0  0  0
  -26.0495  -29.3894   20.7210 C   0  0  0  0  0  0
  -27.2260  -28.5712   20.7196 C   0  0  0  0  0  0
  -26.0262  -26.8637   19.4902 C   0  0  0  0  0  0
  -24.8707  -27.6680   19.4831 C   0  0  0  0  0  0
  -23.6484  -29.8108   20.1572 C   0  0  0  0  0  0
  -25.4116  -36.3064   24.0323 C   0  0  1  0  0  0
  -20.5898  -28.3703   23.1265 C   0  0  2  0  0  0
  -20.6781  -26.9421   22.5405 C   0  0  0  0  0  0
  -19.5757  -26.6385   21.5210 C   0  0  0  0  0  0
  -18.1939  -26.7931   22.1624 C   0  0  0  0  0  0
  -19.1547  -28.8862   23.2869 C   0  0  0  0  0  0
  -18.9467  -30.1462   23.8889 C   0  0  0  0  0  0
  -17.6466  -30.6590   24.0563 C   0  0  0  0  0  0
  -25.9056  -34.9435   23.5088 C   0  0  0  0  0  0
  -16.5357  -29.9085   23.6333 C   0  0  0  0  0  0
  -16.7279  -28.6503   23.0355 C   0  0  0  0  0  0
  -26.4505  -31.6580   25.0721 C   0  0  0  0  0  0
  -25.3725  -31.3737   26.1440 C   0  0  0  0  0  0
  -27.0354  -30.2992   24.6221 C   0  0  0  0  0  0
  -27.6051  -32.4329   25.7500 C   0  0  0  0  0  0
  -27.5577  -37.1798   24.8465 C   0  0  0  0  0  0
  -21.4210  -29.3050   22.3650 N   0  0  0  0  0  0
  -26.4290  -37.3764   23.9406 N   0  0  0  0  0  0
  -24.6976  -31.0509   22.0955 N   0  0  0  0  0  0
  -23.4200  -28.8148   23.3010 O   0  0  0  0  0  0
  -28.2876  -26.3392   20.1689 O   0  0  0  0  0  0
  -26.5632  -34.8914   22.4658 O   0  0  0  0  0  0
  -23.5468  -32.1370   23.7272 O   0  0  0  0  0  0
  -29.6912  -18.6770   20.5627 C   0  0  0  0  0  0
  -29.8109  -19.9107   21.2124 C   0  0  0  0  0  0
  -28.7480  -23.6645   20.1720 C   0  0  0  0  0  0
  -30.4836  -17.3164   20.7791 C   0  0  0  0  0  0
  -28.5658  -22.2767   20.9507 C   0  0  0  0  0  0
  -27.9756  -24.9664   20.7110 C   0  0  0  0  0  0
  -28.8117  -18.9398   19.5021 N   0  0  0  0  0  0
  -28.4053  -20.1988   19.5141 N   0  0  0  0  0  0
  -29.0043  -20.8644   20.5441 N   0  0  0  0  0  0
  -30.5493  -20.2742   22.3344 N   0  0  0  0  0  0
  -29.9044  -15.9054   20.6661 N   0  0  0  0  0  0
  -29.4709  -23.7320   19.1717 O   0  0  0  0  0  0
  -31.4675  -12.5751   19.1622 H   0  0  0  0  0  0
  -30.3686  -11.4842   19.9596 H   0  0  0  0  0  0
  -29.7879  -11.7225   17.5209 H   0  0  0  0  0  0
  -29.6308  -13.4521   17.7103 H   0  0  0  0  0  0
  -27.8936  -11.2795   18.9206 H   0  0  0  0  0  0
  -27.3730  -12.5083   17.7995 H   0  0  0  0  0  0
  -27.6283  -14.2529   19.4562 H   0  0  0  0  0  0
  -28.7198  -12.1893   21.4307 H   0  0  0  0  0  0
  -28.4204  -13.8750   21.7793 H   0  0  0  0  0  0
  -25.2772   -9.5677   22.4762 H   0  0  0  0  0  0
  -24.0004   -7.4631   22.7476 H   0  0  0  0  0  0
  -21.0847   -8.8784   19.8957 H   0  0  0  0  0  0
  -22.3713  -10.9677   19.6169 H   0  0  0  0  0  0
  -21.2008   -7.6149   23.9718 H   0  0  0  0  0  0
  -21.1485   -6.0522   25.9079 H   0  0  0  0  0  0
  -22.0596   -2.7609   23.2844 H   0  0  0  0  0  0
  -22.4074  -11.9883   22.4840 H   0  0  0  0  0  0
  -21.1068  -13.1230   22.2628 H   0  0  0  0  0  0
  -24.6456  -15.8437   20.5202 H   0  0  0  0  0  0
  -26.2583  -15.6363   20.0665 H   0  0  0  0  0  0
  -26.7208  -32.5398   23.1065 H   0  0  0  0  0  0
  -25.0067  -33.9680   25.0383 H   0  0  0  0  0  0
  -22.7260  -31.3002   21.3937 H   0  0  0  0  0  0
  -23.3748  -35.9623   23.3301 H   0  0  0  0  0  0
  -24.3581  -36.8911   22.2055 H   0  0  0  0  0  0
  -23.7253  -37.6488   23.6669 H   0  0  0  0  0  0
  -26.1146  -31.5276   20.6089 H   0  0  0  0  0  0
  -26.8521  -30.8158   22.0124 H   0  0  0  0  0  0
  -28.1238  -28.9223   21.2088 H   0  0  0  0  0  0
  -25.9766  -25.9039   18.9960 H   0  0  0  0  0  0
  -23.9753  -27.3074   18.9958 H   0  0  0  0  0  0
  -23.7750  -30.5866   19.4011 H   0  0  0  0  0  0
  -22.7664  -29.2453   19.8510 H   0  0  0  0  0  0
  -25.1300  -36.1906   25.0816 H   0  0  0  0  0  0
  -20.9991  -28.3282   24.1386 H   0  0  0  0  0  0
  -20.5682  -26.2313   23.3610 H   0  0  0  0  0  0
  -21.6650  -26.7444   22.1201 H   0  0  0  0  0  0
  -19.6919  -25.6293   21.1247 H   0  0  0  0  0  0
  -19.6693  -27.3188   20.6734 H   0  0  0  0  0  0
  -17.4207  -26.6674   21.4029 H   0  0  0  0  0  0
  -18.0344  -26.0074   22.9022 H   0  0  0  0  0  0
  -19.7942  -30.7281   24.2257 H   0  0  0  0  0  0
  -17.5020  -31.6271   24.5163 H   0  0  0  0  0  0
  -15.5357  -30.2985   23.7661 H   0  0  0  0  0  0
  -15.8680  -28.0819   22.7075 H   0  0  0  0  0  0
  -24.5895  -30.7092   25.7768 H   0  0  0  0  0  0
  -24.8924  -32.2911   26.4856 H   0  0  0  0  0  0
  -25.8038  -30.8917   27.0222 H   0  0  0  0  0  0
  -26.2940  -29.6736   24.1235 H   0  0  0  0  0  0
  -27.4012  -29.7262   25.4753 H   0  0  0  0  0  0
  -27.8831  -30.4255   23.9482 H   0  0  0  0  0  0
  -27.2644  -33.3627   26.2068 H   0  0  0  0  0  0
  -28.3869  -32.6894   25.0339 H   0  0  0  0  0  0
  -28.0714  -31.8465   26.5428 H   0  0  0  0  0  0
  -28.2594  -38.0095   24.7502 H   0  0  0  0  0  0
  -28.1073  -36.2624   24.6300 H   0  0  0  0  0  0
  -27.2296  -37.1460   25.8868 H   0  0  0  0  0  0
  -20.9397  -29.8763   21.6847 H   0  0  0  0  0  0
  -26.0165  -38.2838   24.1400 H   0  0  0  0  0  0
  -30.9300  -17.3554   21.7731 H   0  0  0  0  0  0
  -31.3436  -17.3512   20.1094 H   0  0  0  0  0  0
  -27.4952  -22.2033   21.1388 H   0  0  0  0  0  0
  -28.9960  -22.4526   21.9354 H   0  0  0  0  0  0
  -28.1503  -25.0091   21.7859 H   0  0  0  0  0  0
  -26.9129  -24.7525   20.6078 H   0  0  0  0  0  0
  -31.1378  -19.6289   22.8533 H   0  0  0  0  0  0
  -30.5692  -21.2091   22.7294 H   0  0  0  0  0  0
  -28.9110  -15.8136   20.8105 H   0  0  0  0  0  0
  1 25  1  0  0  0
  1 30  2  0  0  0
  1 81  1  0  0  0
  2  3  1  0  0  0
  2 25  1  0  0  0
  2 83  1  0  0  0
  2 84  1  0  0  0
  3  4  1  0  0  0
  3 85  1  0  0  0
  3 86  1  0  0  0
  4  5  1  0  0  0
  4 87  1  0  0  0
  4 88  1  0  0  0
  5  6  1  0  0  0
  5 26  1  0  0  0
  5 89  1  0  0  0
  6 25  1  0  0  0
  6 90  1  0  0  0
  6 91  1  0  0  0
  7  8  2  0  0  0
  7 26  1  0  0  0
  7 29  1  0  0  0
  8  9  1  0  0  0
  8 22  1  0  0  0
  9 10  1  0  0  0
  9 27  2  0  0  0
 10 11  2  0  0  0
 10 15  1  0  0  0
 11 12  1  0  0  0
 11 92  1  0  0  0
 12 13  2  0  0  0
 12 93  1  0  0  0
 13 14  1  0  0  0
 13 31  1  0  0  0
 14 15  2  0  0  0
 14 94  1  0  0  0
 15 95  1  0  0  0
 16 17  2  0  0  0
 16 21  1  0  0  0
 16 31  1  0  0  0
 17 18  1  0  0  0
 17 96  1  0  0  0
 18 19  2  0  0  0
 18 97  1  0  0  0
 19 20  1  0  0  0
 19 24  1  0  0  0
 20 21  2  0  0  0
 20 98  1  0  0  0
 21 23  1  0  0  0
 22 28  1  0  0  0
 22 32  2  0  0  0
 26 27  1  0  0  0
 28 99  1  0  0  0
 28100  1  0  0  0
 29101  1  0  0  0
 29102  1  0  0  0
 33 34  1  0  0  0
 33 66  1  0  0  0
 33 70  2  0  0  0
 34 36  1  0  0  0
 34 59  1  0  0  0
 34103  1  0  0  0
 35 44  2  0  0  0
 35 45  1  0  0  0
 35 68  1  0  0  0
 36 56  1  0  0  0
 36104  1  0  0  0
 37 39  1  0  0  0
 37 47  1  0  0  0
 37 66  1  0  0  0
 37105  1  0  0  0
 38 43  2  0  0  0
 38 46  1  0  0  0
 38 47  1  0  0  0
 39 64  1  0  0  0
 39 67  2  0  0  0
 40 52  1  0  0  0
 40 53  2  0  0  0
 40 58  1  0  0  0
 41106  1  0  0  0
 41107  1  0  0  0
 41108  1  0  0  0
 41 48  1  0  0  0
 42 43  1  0  0  0
 42 66  1  0  0  0
 42109  1  0  0  0
 42110  1  0  0  0
 43 44  1  0  0  0
 44111  1  0  0  0
 45 46  2  0  0  0
 45112  1  0  0  0
 46113  1  0  0  0
 47114  1  0  0  0
 47115  1  0  0  0
 48 56  1  0  0  0
 48 65  1  0  0  0
 48116  1  0  0  0
 49 50  1  0  0  0
 49 53  1  0  0  0
 49 64  1  0  0  0
 49117  1  0  0  0
 50 51  1  0  0  0
 50118  1  0  0  0
 50119  1  0  0  0
 51 52  1  0  0  0
 51120  1  0  0  0
 51121  1  0  0  0
 52122  1  0  0  0
 52123  1  0  0  0
 53 54  1  0  0  0
 54 55  2  0  0  0
 54124  1  0  0  0
 55 57  1  0  0  0
 55125  1  0  0  0
 56 69  2  0  0  0
 57 58  2  0  0  0
 57126  1  0  0  0
 58127  1  0  0  0
 59 60  1  0  0  0
 59 61  1  0  0  0
 59 62  1  0  0  0
 60128  1  0  0  0
 60129  1  0  0  0
 60130  1  0  0  0
 61131  1  0  0  0
 61132  1  0  0  0
 61133  1  0  0  0
 62134  1  0  0  0
 62135  1  0  0  0
 62136  1  0  0  0
 63 65  1  0  0  0
 63137  1  0  0  0
 63138  1  0  0  0
 63139  1  0  0  0
 64140  1  0  0  0
 65141  1  0  0  0
 68 76  1  0  0  0
 71 72  2  0  0  0
 71 74  1  0  0  0
 71 77  1  0  0  0
 72 79  1  0  0  0
 72 80  1  0  0  0
 73 75  1  0  0  0
 73 76  1  0  0  0
 73 82  2  0  0  0
 74 81  1  0  0  0
 74142  1  0  0  0
 74143  1  0  0  0
 75 79  1  0  0  0
 75144  1  0  0  0
 75145  1  0  0  0
 76146  1  0  0  0
 76147  1  0  0  0
 77 78  2  0  0  0
 78 79  1  0  0  0
 80148  1  0  0  0
 80149  1  0  0  0
 81150  1  0  0  0
M  ISO  4   1 100  68 101  76 101  81 100
M  END
> <chiral flag>
0

> <version>
0

> <s_m_source_file>
/data/baiqing/PycharmProjects/Reinvent-master-3.2/result/LINK_invent/BTK/process_docking_weight1_custom_product_contain_oxygen_bond_distance_aromatic_linkinvent_7_9_3/rearranged_h_0106.sdf

> <i_m_source_file_index>
100

> <r_mmod_Potential_Energy-OPLS-2005>
58.787425994873

> <r_mmod_Stretch_Energy-OPLS-2005>
116.811317443848

> <r_mmod_Bend_Energy-OPLS-2005>
182.545257568359

> <r_mmod_Torsional_Energy-OPLS-2005>
230.705642700195

> <r_mmod_Improper_Torsional_Energy-OPLS-2005>
5.91660213470459

> <r_mmod_Van_der_Waal_Energy-OPLS-2005>
114.202392578125

> <r_mmod_Electrostatic_Energy-OPLS-2005>
-421.286560058594

> <r_mmod_Solvation_Energy-OPLS-2005>
-258.424102783203

> <b_mmod_Minimization_Converged-OPLS-2005>
0

> <r_mmod_RMS_Derivative-OPLS-2005>
0.532662272453308

$$$$
