0
                    3D
 Structure written by MMmdl.
156164  0  0  1  0            999 V2000
  -30.6346  -14.7714   20.4398 C   0  0  0  0  0  0
  -30.4218  -12.4655   19.4861 C   0  0  0  0  0  0
  -29.5127  -12.5097   18.2389 C   0  0  0  0  0  0
  -28.0401  -12.3208   18.6536 C   0  0  0  0  0  0
  -27.6363  -13.2382   19.8387 C   0  0  2  0  0  0
  -28.6787  -13.2129   20.9782 C   0  0  0  0  0  0
  -25.2481  -13.8212   20.5688 C   0  0  0  0  0  0
  -24.1775  -13.0452   20.9208 C   0  0  0  0  0  0
  -24.6375  -11.6928   20.8717 C   0  0  0  0  0  0
  -23.9046  -10.4301   21.0386 C   0  0  0  0  0  0
  -24.3602   -9.4222   21.9163 C   0  0  0  0  0  0
  -23.6289   -8.2247   22.0741 C   0  0  0  0  0  0
  -22.4264   -8.0286   21.3545 C   0  0  0  0  0  0
  -21.9890   -9.0250   20.4644 C   0  0  0  0  0  0
  -22.7209  -10.2135   20.3042 C   0  0  0  0  0  0
  -21.6855   -6.0725   22.5271 C   0  0  0  0  0  0
  -21.4024   -6.5621   23.8213 C   0  0  0  0  0  0
  -21.3663   -5.6779   24.9171 C   0  0  0  0  0  0
  -21.6048   -4.3039   24.7219 C   0  0  0  0  0  0
  -21.8819   -3.8134   23.4335 C   0  0  0  0  0  0
  -21.9191   -4.6950   22.3395 C   0  0  0  0  0  0
  -22.7797  -13.5227   21.1870 C   0  0  0  0  0  0
  -22.1662   -4.2131   21.0970 F   0  0  0  0  0  0
  -21.5627   -3.4523   25.7735 F   0  0  0  0  0  0
  -29.9794  -13.5559   20.3906 N   0  0  0  0  0  0
  -26.2898  -12.9439   20.3206 N   0  0  0  0  0  0
  -25.9305  -11.6575   20.5690 N   0  0  0  0  0  0
  -22.0430  -12.8242   22.0438 N   0  0  0  0  0  0
  -25.4172  -15.1936   20.4117 N   0  0  0  0  0  0
  -31.8281  -14.7940   20.1342 O   0  0  0  0  0  0
  -21.6650   -6.8863   21.4237 O   0  0  0  0  0  0
  -22.3479  -14.5518   20.6689 O   0  0  0  0  0  0
  -24.6349  -31.8533   23.1970 C   0  0  0  0  0  0
  -25.9164  -32.4743   23.8330 C   0  0  1  0  0  0
  -27.2178  -27.2339   20.1274 C   0  0  0  0  0  0
  -25.5955  -33.8544   24.2262 N   0  0  0  0  0  0
  -23.4328  -30.4761   21.5421 C   0  0  2  0  0  0
  -24.8784  -28.9160   20.1145 C   0  0  0  0  0  0
  -22.7516  -29.4591   22.4903 C   0  0  0  0  0  0
  -18.0298  -28.1387   22.8463 C   0  0  0  0  0  0
  -24.1489  -36.7262   23.2631 C   0  0  0  0  0  0
  -25.9821  -30.7543   21.3846 C   0  0  0  0  0  0
  -26.0522  -29.3754   20.7246 C   0  0  0  0  0  0
  -27.2231  -28.5472   20.7161 C   0  0  0  0  0  0
  -26.0151  -26.8447   19.4965 C   0  0  0  0  0  0
  -24.8657  -27.6595   19.4915 C   0  0  0  0  0  0
  -23.6538  -29.8111   20.1589 C   0  0  0  0  0  0
  -25.4107  -36.3062   24.0334 C   0  0  1  0  0  0
  -20.5900  -28.3705   23.1262 C   0  0  2  0  0  0
  -20.6788  -26.9422   22.5405 C   0  0  0  0  0  0
  -19.5770  -26.6380   21.5202 C   0  0  0  0  0  0
  -18.1947  -26.7923   22.1609 C   0  0  0  0  0  0
  -19.1549  -28.8860   23.2852 C   0  0  0  0  0  0
  -18.9463  -30.1457   23.8877 C   0  0  0  0  0  0
  -17.6461  -30.6586   24.0550 C   0  0  0  0  0  0
  -25.9060  -34.9433   23.5098 C   0  0  0  0  0  0
  -16.5352  -29.9076   23.6332 C   0  0  0  0  0  0
  -16.7282  -28.6497   23.0344 C   0  0  0  0  0  0
  -26.4505  -31.6572   25.0736 C   0  0  0  0  0  0
  -25.3710  -31.3779   26.1456 C   0  0  0  0  0  0
  -27.0314  -30.2957   24.6274 C   0  0  0  0  0  0
  -27.6079  -32.4284   25.7490 C   0  0  0  0  0  0
  -27.5600  -37.1758   24.8434 C   0  0  0  0  0  0
  -21.4220  -29.3044   22.3642 N   0  0  0  0  0  0
  -26.4269  -37.3780   23.9447 N   0  0  0  0  0  0
  -24.7025  -31.0470   22.0973 N   0  0  0  0  0  0
  -23.4197  -28.8138   23.3018 O   0  0  0  0  0  0
  -28.3230  -26.3429   20.1577 O   0  0  0  0  0  0
  -26.5625  -34.8911   22.4668 O   0  0  0  0  0  0
  -23.5485  -32.1374   23.7246 O   0  0  0  0  0  0
  -32.1545  -19.0554   20.5680 C   0  0  0  0  0  0
  -31.2698  -20.1409   20.4525 C   0  0  0  0  0  0
  -31.6930  -17.7292   20.6238 C   0  0  0  0  0  0
  -29.8704  -19.9648   20.3975 C   0  0  0  0  0  0
  -29.4119  -18.5648   20.4604 C   0  0  0  0  0  0
  -30.3167  -17.4057   20.5524 C   0  0  0  0  0  0
  -29.4420  -23.9085   20.0222 C   0  0  0  0  0  0
  -27.9188  -18.2933   20.4241 C   0  0  0  0  0  0
  -30.6464  -24.7931   19.7608 C   0  0  0  0  0  0
  -28.9677  -21.3058   20.2823 C   0  0  0  0  0  0
  -28.1325  -24.8312   20.1243 C   0  0  0  0  0  0
  -29.7304  -22.6098   20.0864 N   0  0  0  0  0  0
  -29.9042  -15.9565   20.6030 N   0  0  0  0  0  0
  -31.4695  -12.5573   19.1945 H   0  0  0  0  0  0
  -30.3395  -11.4994   19.9871 H   0  0  0  0  0  0
  -29.8088  -11.7357   17.5281 H   0  0  0  0  0  0
  -29.6322  -13.4638   17.7214 H   0  0  0  0  0  0
  -27.9162  -11.2766   18.9420 H   0  0  0  0  0  0
  -27.3800  -12.4817   17.8012 H   0  0  0  0  0  0
  -27.6210  -14.2506   19.4332 H   0  0  0  0  0  0
  -28.7165  -12.2321   21.4540 H   0  0  0  0  0  0
  -28.4082  -13.9219   21.7615 H   0  0  0  0  0  0
  -25.2758   -9.5709   22.4709 H   0  0  0  0  0  0
  -24.0010   -7.4649   22.7450 H   0  0  0  0  0  0
  -21.0822   -8.8771   19.8962 H   0  0  0  0  0  0
  -22.3670  -10.9664   19.6134 H   0  0  0  0  0  0
  -21.2041   -7.6140   23.9705 H   0  0  0  0  0  0
  -21.1480   -6.0509   25.9071 H   0  0  0  0  0  0
  -22.0597   -2.7596   23.2835 H   0  0  0  0  0  0
  -22.4068  -11.9948   22.4899 H   0  0  0  0  0  0
  -21.1040  -13.1269   22.2616 H   0  0  0  0  0  0
  -24.6497  -15.8463   20.5271 H   0  0  0  0  0  0
  -26.2616  -15.6308   20.0668 H   0  0  0  0  0  0
  -26.7231  -32.5363   23.1062 H   0  0  0  0  0  0
  -25.0130  -33.9682   25.0431 H   0  0  0  0  0  0
  -22.7301  -31.2988   21.3955 H   0  0  0  0  0  0
  -23.3785  -35.9554   23.3218 H   0  0  0  0  0  0
  -24.3604  -36.8951   22.2061 H   0  0  0  0  0  0
  -23.7188  -37.6421   23.6687 H   0  0  0  0  0  0
  -26.1305  -31.5150   20.6171 H   0  0  0  0  0  0
  -26.8554  -30.7975   22.0243 H   0  0  0  0  0  0
  -28.1219  -28.8934   21.2053 H   0  0  0  0  0  0
  -25.9265  -25.8917   18.9999 H   0  0  0  0  0  0
  -23.9658  -27.3027   19.0091 H   0  0  0  0  0  0
  -23.7869  -30.5880   19.4040 H   0  0  0  0  0  0
  -22.7692  -29.2510   19.8504 H   0  0  0  0  0  0
  -25.1273  -36.1890   25.0819 H   0  0  0  0  0  0
  -20.9988  -28.3290   24.1385 H   0  0  0  0  0  0
  -20.5686  -26.2321   23.3616 H   0  0  0  0  0  0
  -21.6660  -26.7435   22.1218 H   0  0  0  0  0  0
  -19.6941  -25.6281   21.1263 H   0  0  0  0  0  0
  -19.6732  -27.3162   20.6711 H   0  0  0  0  0  0
  -17.4230  -26.6658   21.3999 H   0  0  0  0  0  0
  -18.0338  -26.0069   22.9013 H   0  0  0  0  0  0
  -19.7943  -30.7262   24.2255 H   0  0  0  0  0  0
  -17.5023  -31.6265   24.5150 H   0  0  0  0  0  0
  -15.5348  -30.2964   23.7678 H   0  0  0  0  0  0
  -15.8683  -28.0806   22.7070 H   0  0  0  0  0  0
  -24.5856  -30.7161   25.7793 H   0  0  0  0  0  0
  -24.8932  -32.2973   26.4843 H   0  0  0  0  0  0
  -25.7999  -30.8971   27.0261 H   0  0  0  0  0  0
  -26.2900  -29.6723   24.1263 H   0  0  0  0  0  0
  -27.3896  -29.7214   25.4832 H   0  0  0  0  0  0
  -27.8837  -30.4166   23.9584 H   0  0  0  0  0  0
  -27.2717  -33.3568   26.2111 H   0  0  0  0  0  0
  -28.3863  -32.6871   25.0299 H   0  0  0  0  0  0
  -28.0789  -31.8382   26.5364 H   0  0  0  0  0  0
  -28.2529  -38.0146   24.7613 H   0  0  0  0  0  0
  -28.1185  -36.2685   24.6061 H   0  0  0  0  0  0
  -27.2355  -37.1166   25.8840 H   0  0  0  0  0  0
  -20.9417  -29.8766   21.6842 H   0  0  0  0  0  0
  -26.0136  -38.2834   24.1526 H   0  0  0  0  0  0
  -33.2168  -19.2436   20.6176 H   0  0  0  0  0  0
  -31.7006  -21.1315   20.4154 H   0  0  0  0  0  0
  -32.4504  -16.9692   20.7325 H   0  0  0  0  0  0
  -27.5972  -18.0917   19.4025 H   0  0  0  0  0  0
  -27.3437  -19.1371   20.8052 H   0  0  0  0  0  0
  -27.6616  -17.4326   21.0418 H   0  0  0  0  0  0
  -30.4129  -25.5498   19.0114 H   0  0  0  0  0  0
  -31.4901  -24.2179   19.3796 H   0  0  0  0  0  0
  -30.9532  -25.2943   20.6783 H   0  0  0  0  0  0
  -28.3407  -21.3791   21.1710 H   0  0  0  0  0  0
  -28.2869  -21.1662   19.4413 H   0  0  0  0  0  0
  -27.5820  -24.5393   21.0193 H   0  0  0  0  0  0
  -27.5134  -24.5524   19.2738 H   0  0  0  0  0  0
  -28.9166  -15.7995   20.7248 H   0  0  0  0  0  0
  1 25  1  0  0  0
  1 30  2  0  0  0
  1 83  1  0  0  0
  2  3  1  0  0  0
  2 25  1  0  0  0
  2 84  1  0  0  0
  2 85  1  0  0  0
  3  4  1  0  0  0
  3 86  1  0  0  0
  3 87  1  0  0  0
  4  5  1  0  0  0
  4 88  1  0  0  0
  4 89  1  0  0  0
  5  6  1  0  0  0
  5 26  1  0  0  0
  5 90  1  0  0  0
  6 25  1  0  0  0
  6 91  1  0  0  0
  6 92  1  0  0  0
  7  8  2  0  0  0
  7 26  1  0  0  0
  7 29  1  0  0  0
  8  9  1  0  0  0
  8 22  1  0  0  0
  9 10  1  0  0  0
  9 27  2  0  0  0
 10 11  2  0  0  0
 10 15  1  0  0  0
 11 12  1  0  0  0
 11 93  1  0  0  0
 12 13  2  0  0  0
 12 94  1  0  0  0
 13 14  1  0  0  0
 13 31  1  0  0  0
 14 15  2  0  0  0
 14 95  1  0  0  0
 15 96  1  0  0  0
 16 17  2  0  0  0
 16 21  1  0  0  0
 16 31  1  0  0  0
 17 18  1  0  0  0
 17 97  1  0  0  0
 18 19  2  0  0  0
 18 98  1  0  0  0
 19 20  1  0  0  0
 19 24  1  0  0  0
 20 21  2  0  0  0
 20 99  1  0  0  0
 21 23  1  0  0  0
 22 28  1  0  0  0
 22 32  2  0  0  0
 26 27  1  0  0  0
 28100  1  0  0  0
 28101  1  0  0  0
 29102  1  0  0  0
 29103  1  0  0  0
 33 34  1  0  0  0
 33 66  1  0  0  0
 33 70  2  0  0  0
 34 36  1  0  0  0
 34 59  1  0  0  0
 34104  1  0  0  0
 35 44  2  0  0  0
 35 45  1  0  0  0
 35 68  1  0  0  0
 36 56  1  0  0  0
 36105  1  0  0  0
 37 39  1  0  0  0
 37 47  1  0  0  0
 37 66  1  0  0  0
 37106  1  0  0  0
 38 43  2  0  0  0
 38 46  1  0  0  0
 38 47  1  0  0  0
 39 64  1  0  0  0
 39 67  2  0  0  0
 40 52  1  0  0  0
 40 53  2  0  0  0
 40 58  1  0  0  0
 41107  1  0  0  0
 41108  1  0  0  0
 41109  1  0  0  0
 41 48  1  0  0  0
 42 43  1  0  0  0
 42 66  1  0  0  0
 42110  1  0  0  0
 42111  1  0  0  0
 43 44  1  0  0  0
 44112  1  0  0  0
 45 46  2  0  0  0
 45113  1  0  0  0
 46114  1  0  0  0
 47115  1  0  0  0
 47116  1  0  0  0
 48 56  1  0  0  0
 48 65  1  0  0  0
 48117  1  0  0  0
 49 50  1  0  0  0
 49 53  1  0  0  0
 49 64  1  0  0  0
 49118  1  0  0  0
 50 51  1  0  0  0
 50119  1  0  0  0
 50120  1  0  0  0
 51 52  1  0  0  0
 51121  1  0  0  0
 51122  1  0  0  0
 52123  1  0  0  0
 52124  1  0  0  0
 53 54  1  0  0  0
 54 55  2  0  0  0
 54125  1  0  0  0
 55 57  1  0  0  0
 55126  1  0  0  0
 56 69  2  0  0  0
 57 58  2  0  0  0
 57127  1  0  0  0
 58128  1  0  0  0
 59 60  1  0  0  0
 59 61  1  0  0  0
 59 62  1  0  0  0
 60129  1  0  0  0
 60130  1  0  0  0
 60131  1  0  0  0
 61132  1  0  0  0
 61133  1  0  0  0
 61134  1  0  0  0
 62135  1  0  0  0
 62136  1  0  0  0
 62137  1  0  0  0
 63 65  1  0  0  0
 63138  1  0  0  0
 63139  1  0  0  0
 63140  1  0  0  0
 64141  1  0  0  0
 65142  1  0  0  0
 68 81  1  0  0  0
 71 72  2  0  0  0
 71 73  1  0  0  0
 71143  1  0  0  0
 72 74  1  0  0  0
 72144  1  0  0  0
 73 76  2  0  0  0
 73145  1  0  0  0
 74 75  2  0  0  0
 74 80  1  0  0  0
 75 76  1  0  0  0
 75 78  1  0  0  0
 76 83  1  0  0  0
 77 79  1  0  0  0
 77 81  1  0  0  0
 77 82  2  0  0  0
 78146  1  0  0  0
 78147  1  0  0  0
 78148  1  0  0  0
 79149  1  0  0  0
 79150  1  0  0  0
 79151  1  0  0  0
 80 82  1  0  0  0
 80152  1  0  0  0
 80153  1  0  0  0
 81154  1  0  0  0
 81155  1  0  0  0
 83156  1  0  0  0
M  ISO  4   1 100  68 101  81 101  83 100
M  END
> <chiral flag>
0

> <version>
0

> <s_m_source_file>
/data/baiqing/PycharmProjects/Reinvent-master-3.2/result/LINK_invent/BTK/process_docking_weight1_custom_product_contain_oxygen_bond_distance_aromatic_linkinvent_7_9_3/rearranged_h_0040.sdf

> <i_m_source_file_index>
1

> <r_mmod_Potential_Energy-OPLS-2005>
231.668731689453

> <r_mmod_Stretch_Energy-OPLS-2005>
158.649353027344

> <r_mmod_Bend_Energy-OPLS-2005>
222.605911254883

> <r_mmod_Torsional_Energy-OPLS-2005>
208.267135620117

> <r_mmod_Improper_Torsional_Energy-OPLS-2005>
5.05507564544678

> <r_mmod_Van_der_Waal_Energy-OPLS-2005>
146.510757446289

> <r_mmod_Electrostatic_Energy-OPLS-2005>
-395.200500488281

> <r_mmod_Solvation_Energy-OPLS-2005>
-212.420547485352

> <b_mmod_Minimization_Converged-OPLS-2005>
0

> <r_mmod_RMS_Derivative-OPLS-2005>
2.58285689353943

$$$$
1
                    3D
 Structure written by MMmdl.
163171  0  0  1  0            999 V2000
  -30.7199  -14.4391   20.6399 C   0  0  0  0  0  0
  -30.4269  -12.3238   19.3899 C   0  0  0  0  0  0
  -29.4864  -12.5374   18.1848 C   0  0  0  0  0  0
  -28.0086  -12.3974   18.5949 C   0  0  0  0  0  0
  -27.6665  -13.2061   19.8750 C   0  0  2  0  0  0
  -28.7089  -12.9453   20.9858 C   0  0  0  0  0  0
  -25.2624  -13.8150   20.5648 C   0  0  0  0  0  0
  -24.1853  -13.0425   20.9142 C   0  0  0  0  0  0
  -24.6406  -11.6896   20.8671 C   0  0  0  0  0  0
  -23.9047  -10.4284   21.0358 C   0  0  0  0  0  0
  -24.3605   -9.4214   21.9151 C   0  0  0  0  0  0
  -23.6297   -8.2243   22.0739 C   0  0  0  0  0  0
  -22.4271   -8.0282   21.3538 C   0  0  0  0  0  0
  -21.9893   -9.0233   20.4632 C   0  0  0  0  0  0
  -22.7209  -10.2123   20.3023 C   0  0  0  0  0  0
  -21.6862   -6.0732   22.5275 C   0  0  0  0  0  0
  -21.4015   -6.5637   23.8207 C   0  0  0  0  0  0
  -21.3657   -5.6792   24.9173 C   0  0  0  0  0  0
  -21.6046   -4.3053   24.7224 C   0  0  0  0  0  0
  -21.8827   -3.8141   23.4349 C   0  0  0  0  0  0
  -21.9202   -4.6959   22.3402 C   0  0  0  0  0  0
  -22.7895  -13.5240   21.1839 C   0  0  0  0  0  0
  -22.1678   -4.2148   21.0979 F   0  0  0  0  0  0
  -21.5621   -3.4536   25.7729 F   0  0  0  0  0  0
  -30.0504  -13.2658   20.4580 N   0  0  0  0  0  0
  -26.3055  -12.9324   20.3334 N   0  0  0  0  0  0
  -25.9329  -11.6471   20.5679 N   0  0  0  0  0  0
  -22.0543  -12.8206   22.0422 N   0  0  0  0  0  0
  -25.4369  -15.1867   20.4108 N   0  0  0  0  0  0
  -31.7712  -14.7109   20.0501 O   0  0  0  0  0  0
  -21.6648   -6.8873   21.4240 O   0  0  0  0  0  0
  -22.3578  -14.5541   20.6727 O   0  0  0  0  0  0
  -24.6113  -31.8656   23.2148 C   0  0  0  0  0  0
  -25.8985  -32.4844   23.8398 C   0  0  1  0  0  0
  -27.2230  -27.4033   20.1044 C   0  0  0  0  0  0
  -25.5860  -33.8652   24.2335 N   0  0  0  0  0  0
  -23.3993  -30.4905   21.5555 C   0  0  2  0  0  0
  -24.8437  -28.9615   20.1121 C   0  0  0  0  0  0
  -22.7407  -29.4595   22.5008 C   0  0  0  0  0  0
  -18.0254  -28.1323   22.8515 C   0  0  0  0  0  0
  -24.1492  -36.7293   23.2653 C   0  0  0  0  0  0
  -25.9301  -30.8264   21.3692 C   0  0  0  0  0  0
  -26.0044  -29.4588   20.7143 C   0  0  0  0  0  0
  -27.1916  -28.6876   20.7070 C   0  0  0  0  0  0
  -26.0294  -26.9168   19.5173 C   0  0  0  0  0  0
  -24.8539  -27.6917   19.5118 C   0  0  0  0  0  0
  -23.6075  -29.8343   20.1638 C   0  0  0  0  0  0
  -25.4116  -36.3124   24.0348 C   0  0  1  0  0  0
  -20.5862  -28.3559   23.1392 C   0  0  2  0  0  0
  -20.6751  -26.9291   22.5475 C   0  0  0  0  0  0
  -19.5735  -26.6312   21.5260 C   0  0  0  0  0  0
  -18.1893  -26.7877   22.1631 C   0  0  0  0  0  0
  -19.1512  -28.8759   23.2954 C   0  0  0  0  0  0
  -18.9457  -30.1389   23.8919 C   0  0  0  0  0  0
  -17.6465  -30.6560   24.0527 C   0  0  0  0  0  0
  -25.9042  -34.9493   23.5143 C   0  0  0  0  0  0
  -16.5345  -29.9057   23.6325 C   0  0  0  0  0  0
  -16.7244  -28.6456   23.0376 C   0  0  0  0  0  0
  -26.4432  -31.6625   25.0712 C   0  0  0  0  0  0
  -25.3744  -31.3715   26.1497 C   0  0  0  0  0  0
  -27.0240  -30.3091   24.6016 C   0  0  0  0  0  0
  -27.5980  -32.4360   25.7497 C   0  0  0  0  0  0
  -27.5580  -37.1824   24.8476 C   0  0  0  0  0  0
  -21.4124  -29.2963   22.3815 N   0  0  0  0  0  0
  -26.4288  -37.3814   23.9427 N   0  0  0  0  0  0
  -24.6646  -31.0770   22.1031 N   0  0  0  0  0  0
  -23.4212  -28.8122   23.3015 O   0  0  0  0  0  0
  -28.4147  -26.6910   20.1281 O   0  0  0  0  0  0
  -26.5615  -34.8928   22.4718 O   0  0  0  0  0  0
  -23.5325  -32.1358   23.7574 O   0  0  0  0  0  0
  -29.8439  -18.7991   20.1886 C   0  0  0  0  0  0
  -30.2791  -17.4578   20.2935 C   0  0  0  0  0  0
  -29.0388  -19.3957   21.1936 C   0  0  0  0  0  0
  -28.7442  -18.6300   22.3619 C   0  0  0  0  0  0
  -29.9262  -16.6782   21.4193 C   0  0  0  0  0  0
  -29.2042  -17.2902   22.4642 C   0  0  0  0  0  0
  -28.3790  -24.2186   20.4953 C   0  0  0  0  0  0
  -29.2280  -23.1627   20.5494 C   0  0  0  0  0  0
  -27.9319  -19.1961   23.5253 C   0  0  0  0  0  0
  -30.8530  -22.9393   23.0852 C   0  0  0  0  0  0
  -28.4371  -20.8007   20.9305 C   0  0  0  0  0  0
  -28.5251  -25.3899   19.5151 C   0  0  0  0  0  0
  -30.3620  -21.7342   22.2615 C   0  0  0  0  0  0
  -30.1874  -15.2774   21.5454 N   0  0  0  0  0  0
  -29.1075  -22.0100   21.5136 N   0  3  1  0  0  0
  -28.9180  -16.5615   23.5722 F   0  0  0  0  0  0
  -31.4643  -12.4517   19.0782 H   0  0  0  0  0  0
  -30.3505  -11.2998   19.7529 H   0  0  0  0  0  0
  -29.7193  -11.8174   17.3992 H   0  0  0  0  0  0
  -29.6509  -13.5250   17.7494 H   0  0  0  0  0  0
  -27.8076  -11.3387   18.7529 H   0  0  0  0  0  0
  -27.3623  -12.7050   17.7709 H   0  0  0  0  0  0
  -27.7242  -14.2613   19.6089 H   0  0  0  0  0  0
  -28.6811  -11.8945   21.2755 H   0  0  0  0  0  0
  -28.4507  -13.4956   21.8905 H   0  0  0  0  0  0
  -25.2760   -9.5714   22.4713 H   0  0  0  0  0  0
  -24.0028   -7.4644   22.7452 H   0  0  0  0  0  0
  -21.0827   -8.8721   19.8941 H   0  0  0  0  0  0
  -22.3645  -10.9644   19.6126 H   0  0  0  0  0  0
  -21.1998   -7.6148   23.9710 H   0  0  0  0  0  0
  -21.1474   -6.0521   25.9077 H   0  0  0  0  0  0
  -22.0608   -2.7607   23.2838 H   0  0  0  0  0  0
  -22.4187  -11.9885   22.4798 H   0  0  0  0  0  0
  -21.1154  -13.1217   22.2592 H   0  0  0  0  0  0
  -24.6708  -15.8433   20.5104 H   0  0  0  0  0  0
  -26.3023  -15.6276   20.1249 H   0  0  0  0  0  0
  -26.6998  -32.5503   23.1093 H   0  0  0  0  0  0
  -25.0021  -33.9858   25.0485 H   0  0  0  0  0  0
  -22.6837  -31.3054   21.4281 H   0  0  0  0  0  0
  -23.3786  -35.9598   23.3344 H   0  0  0  0  0  0
  -24.3568  -36.8881   22.2063 H   0  0  0  0  0  0
  -23.7211  -37.6492   23.6639 H   0  0  0  0  0  0
  -26.0529  -31.5939   20.6049 H   0  0  0  0  0  0
  -26.8155  -30.8709   21.9918 H   0  0  0  0  0  0
  -28.0864  -29.0725   21.1779 H   0  0  0  0  0  0
  -25.9582  -25.9356   19.0720 H   0  0  0  0  0  0
  -23.9548  -27.3051   19.0538 H   0  0  0  0  0  0
  -23.7133  -30.6160   19.4119 H   0  0  0  0  0  0
  -22.7271  -29.2656   19.8651 H   0  0  0  0  0  0
  -25.1314  -36.1989   25.0845 H   0  0  0  0  0  0
  -20.9935  -28.3060   24.1516 H   0  0  0  0  0  0
  -20.5673  -26.2112   23.3613 H   0  0  0  0  0  0
  -21.6610  -26.7319   22.1248 H   0  0  0  0  0  0
  -19.6868  -25.6238   21.1233 H   0  0  0  0  0  0
  -19.6717  -27.3175   20.6846 H   0  0  0  0  0  0
  -17.4191  -26.6656   21.3996 H   0  0  0  0  0  0
  -18.0215  -26.0004   22.9011 H   0  0  0  0  0  0
  -19.7943  -30.7176   24.2297 H   0  0  0  0  0  0
  -17.5036  -31.6264   24.5070 H   0  0  0  0  0  0
  -15.5354  -30.2965   23.7667 H   0  0  0  0  0  0
  -15.8628  -28.0780   22.7120 H   0  0  0  0  0  0
  -24.5923  -30.7026   25.7892 H   0  0  0  0  0  0
  -24.8921  -32.2874   26.4946 H   0  0  0  0  0  0
  -25.8160  -30.8926   27.0251 H   0  0  0  0  0  0
  -26.2736  -29.6916   24.1060 H   0  0  0  0  0  0
  -27.4070  -29.7259   25.4394 H   0  0  0  0  0  0
  -27.8550  -30.4481   23.9090 H   0  0  0  0  0  0
  -27.2545  -33.3661   26.2050 H   0  0  0  0  0  0
  -28.3809  -32.6939   25.0351 H   0  0  0  0  0  0
  -28.0584  -31.8492   26.5460 H   0  0  0  0  0  0
  -28.2632  -38.0105   24.7545 H   0  0  0  0  0  0
  -28.1058  -36.2639   24.6297 H   0  0  0  0  0  0
  -27.2296  -37.1482   25.8885 H   0  0  0  0  0  0
  -20.9215  -29.8753   21.7131 H   0  0  0  0  0  0
  -26.0181  -38.2893   24.1469 H   0  0  0  0  0  0
  -30.1019  -19.3545   19.2938 H   0  0  0  0  0  0
  -30.8478  -17.0302   19.4818 H   0  0  0  0  0  0
  -27.5289  -24.2716   21.1608 H   0  0  0  0  0  0
  -30.0843  -23.0694   19.8950 H   0  0  0  0  0  0
  -28.5916  -19.6160   24.2839 H   0  0  0  0  0  0
  -27.3376  -18.4280   24.0193 H   0  0  0  0  0  0
  -27.2235  -19.9598   23.2183 H   0  0  0  0  0  0
  -30.0833  -23.3124   23.7636 H   0  0  0  0  0  0
  -31.1830  -23.7603   22.4475 H   0  0  0  0  0  0
  -31.6986  -22.6485   23.7079 H   0  0  0  0  0  0
  -27.4015  -20.8207   21.2606 H   0  0  0  0  0  0
  -28.3525  -20.9288   19.8499 H   0  0  0  0  0  0
  -27.8649  -25.2503   18.6617 H   0  0  0  0  0  0
  -29.5235  -25.3280   19.0824 H   0  0  0  0  0  0
  -30.1970  -20.9259   22.9726 H   0  0  0  0  0  0
  -31.1373  -21.3960   21.5745 H   0  0  0  0  0  0
  -29.6205  -14.8331   22.2515 H   0  0  0  0  0  0
  -28.4731  -22.2989   22.2413 H   0  0  0  0  0  0
  1 25  1  0  0  0
  1 30  2  0  0  0
  1 84  1  0  0  0
  2  3  1  0  0  0
  2 25  1  0  0  0
  2 87  1  0  0  0
  2 88  1  0  0  0
  3  4  1  0  0  0
  3 89  1  0  0  0
  3 90  1  0  0  0
  4  5  1  0  0  0
  4 91  1  0  0  0
  4 92  1  0  0  0
  5  6  1  0  0  0
  5 26  1  0  0  0
  5 93  1  0  0  0
  6 25  1  0  0  0
  6 94  1  0  0  0
  6 95  1  0  0  0
  7  8  2  0  0  0
  7 26  1  0  0  0
  7 29  1  0  0  0
  8  9  1  0  0  0
  8 22  1  0  0  0
  9 10  1  0  0  0
  9 27  2  0  0  0
 10 11  2  0  0  0
 10 15  1  0  0  0
 11 12  1  0  0  0
 11 96  1  0  0  0
 12 13  2  0  0  0
 12 97  1  0  0  0
 13 14  1  0  0  0
 13 31  1  0  0  0
 14 15  2  0  0  0
 14 98  1  0  0  0
 15 99  1  0  0  0
 16 17  2  0  0  0
 16 21  1  0  0  0
 16 31  1  0  0  0
 17 18  1  0  0  0
 17100  1  0  0  0
 18 19  2  0  0  0
 18101  1  0  0  0
 19 20  1  0  0  0
 19 24  1  0  0  0
 20 21  2  0  0  0
 20102  1  0  0  0
 21 23  1  0  0  0
 22 28  1  0  0  0
 22 32  2  0  0  0
 26 27  1  0  0  0
 28103  1  0  0  0
 28104  1  0  0  0
 29105  1  0  0  0
 29106  1  0  0  0
 33 34  1  0  0  0
 33 66  1  0  0  0
 33 70  2  0  0  0
 34 36  1  0  0  0
 34 59  1  0  0  0
 34107  1  0  0  0
 35 44  2  0  0  0
 35 45  1  0  0  0
 35 68  1  0  0  0
 36 56  1  0  0  0
 36108  1  0  0  0
 37 39  1  0  0  0
 37 47  1  0  0  0
 37 66  1  0  0  0
 37109  1  0  0  0
 38 43  2  0  0  0
 38 46  1  0  0  0
 38 47  1  0  0  0
 39 64  1  0  0  0
 39 67  2  0  0  0
 40 52  1  0  0  0
 40 53  2  0  0  0
 40 58  1  0  0  0
 41110  1  0  0  0
 41111  1  0  0  0
 41112  1  0  0  0
 41 48  1  0  0  0
 42 43  1  0  0  0
 42 66  1  0  0  0
 42113  1  0  0  0
 42114  1  0  0  0
 43 44  1  0  0  0
 44115  1  0  0  0
 45 46  2  0  0  0
 45116  1  0  0  0
 46117  1  0  0  0
 47118  1  0  0  0
 47119  1  0  0  0
 48 56  1  0  0  0
 48 65  1  0  0  0
 48120  1  0  0  0
 49 50  1  0  0  0
 49 53  1  0  0  0
 49 64  1  0  0  0
 49121  1  0  0  0
 50 51  1  0  0  0
 50122  1  0  0  0
 50123  1  0  0  0
 51 52  1  0  0  0
 51124  1  0  0  0
 51125  1  0  0  0
 52126  1  0  0  0
 52127  1  0  0  0
 53 54  1  0  0  0
 54 55  2  0  0  0
 54128  1  0  0  0
 55 57  1  0  0  0
 55129  1  0  0  0
 56 69  2  0  0  0
 57 58  2  0  0  0
 57130  1  0  0  0
 58131  1  0  0  0
 59 60  1  0  0  0
 59 61  1  0  0  0
 59 62  1  0  0  0
 60132  1  0  0  0
 60133  1  0  0  0
 60134  1  0  0  0
 61135  1  0  0  0
 61136  1  0  0  0
 61137  1  0  0  0
 62138  1  0  0  0
 62139  1  0  0  0
 62140  1  0  0  0
 63 65  1  0  0  0
 63141  1  0  0  0
 63142  1  0  0  0
 63143  1  0  0  0
 64144  1  0  0  0
 65145  1  0  0  0
 68 82  1  0  0  0
 71 72  2  0  0  0
 71 73  1  0  0  0
 71146  1  0  0  0
 72 75  1  0  0  0
 72147  1  0  0  0
 73 74  2  0  0  0
 73 81  1  0  0  0
 74 76  1  0  0  0
 74 79  1  0  0  0
 75 76  2  0  0  0
 75 84  1  0  0  0
 76 86  1  0  0  0
 77 78  2  0  0  0
 77 82  1  0  0  0
 77148  1  0  0  0
 78 85  1  0  0  0
 78149  1  0  0  0
 79150  1  0  0  0
 79151  1  0  0  0
 79152  1  0  0  0
 80 83  1  0  0  0
 80153  1  0  0  0
 80154  1  0  0  0
 80155  1  0  0  0
 81156  1  0  0  0
 81157  1  0  0  0
 81 85  1  0  0  0
 82158  1  0  0  0
 82159  1  0  0  0
 83 85  1  0  0  0
 83160  1  0  0  0
 83161  1  0  0  0
 84162  1  0  0  0
 85163  1  0  0  0
M  CHG  1  85   1
M  ISO  4   1 100  68 101  82 101  84 100
M  END
> <chiral flag>
0

> <version>
0

> <s_m_source_file>
/data/baiqing/PycharmProjects/Reinvent-master-3.2/result/LINK_invent/BTK/process_docking_weight1_custom_product_contain_oxygen_bond_distance_aromatic_linkinvent_7_9_3/rearranged_h_0040.sdf

> <i_m_source_file_index>
2

> <r_mmod_Potential_Energy-OPLS-2005>
-160.943069458008

> <r_mmod_Stretch_Energy-OPLS-2005>
45.6853294372559

> <r_mmod_Bend_Energy-OPLS-2005>
124.822654724121

> <r_mmod_Torsional_Energy-OPLS-2005>
214.190048217773

> <r_mmod_Improper_Torsional_Energy-OPLS-2005>
3.77193641662598

> <r_mmod_Van_der_Waal_Energy-OPLS-2005>
155.494964599609

> <r_mmod_Electrostatic_Energy-OPLS-2005>
-274.554351806641

> <r_mmod_Solvation_Energy-OPLS-2005>
-442.598724365234

> <b_mmod_Minimization_Converged-OPLS-2005>
0

> <r_mmod_RMS_Derivative-OPLS-2005>
5.05733919143677

$$$$
2
                    3D
 Structure written by MMmdl.
165173  0  0  1  0            999 V2000
  -30.6252  -14.5579   20.5185 C   0  0  0  0  0  0
  -30.4318  -12.3443   19.4444 C   0  0  0  0  0  0
  -29.5035  -12.5021   18.2206 C   0  0  0  0  0  0
  -28.0222  -12.3507   18.6274 C   0  0  0  0  0  0
  -27.6505  -13.2073   19.8677 C   0  0  2  0  0  0
  -28.6880  -13.0231   20.9967 C   0  0  0  0  0  0
  -25.2526  -13.8177   20.5716 C   0  0  0  0  0  0
  -24.1793  -13.0423   20.9204 C   0  0  0  0  0  0
  -24.6376  -11.6898   20.8763 C   0  0  0  0  0  0
  -23.9062  -10.4273   21.0405 C   0  0  0  0  0  0
  -24.3631   -9.4180   21.9174 C   0  0  0  0  0  0
  -23.6305   -8.2220   22.0731 C   0  0  0  0  0  0
  -22.4268   -8.0273   21.3542 C   0  0  0  0  0  0
  -21.9926   -9.0240   20.4629 C   0  0  0  0  0  0
  -22.7250  -10.2118   20.3046 C   0  0  0  0  0  0
  -21.6848   -6.0730   22.5286 C   0  0  0  0  0  0
  -21.3997   -6.5637   23.8215 C   0  0  0  0  0  0
  -21.3664   -5.6791   24.9184 C   0  0  0  0  0  0
  -21.6051   -4.3049   24.7224 C   0  0  0  0  0  0
  -21.8812   -3.8145   23.4344 C   0  0  0  0  0  0
  -21.9179   -4.6966   22.3399 C   0  0  0  0  0  0
  -22.7821  -13.5207   21.1878 C   0  0  0  0  0  0
  -22.1648   -4.2161   21.0978 F   0  0  0  0  0  0
  -21.5643   -3.4526   25.7732 F   0  0  0  0  0  0
  -30.0141  -13.3416   20.4422 N   0  0  0  0  0  0
  -26.2957  -12.9334   20.3351 N   0  0  0  0  0  0
  -25.9290  -11.6500   20.5757 N   0  0  0  0  0  0
  -22.0487  -12.8219   22.0458 N   0  0  0  0  0  0
  -25.4251  -15.1893   20.4198 N   0  0  0  0  0  0
  -31.7806  -14.7511   20.1316 O   0  0  0  0  0  0
  -21.6620   -6.8880   21.4243 O   0  0  0  0  0  0
  -22.3489  -14.5503   20.6702 O   0  0  0  0  0  0
  -24.6220  -31.8642   23.2062 C   0  0  0  0  0  0
  -25.9084  -32.4796   23.8374 C   0  0  1  0  0  0
  -27.2228  -27.3685   20.1062 C   0  0  0  0  0  0
  -25.5918  -33.8589   24.2310 N   0  0  0  0  0  0
  -23.4117  -30.4885   21.5479 C   0  0  2  0  0  0
  -24.8570  -28.9453   20.1140 C   0  0  0  0  0  0
  -22.7443  -29.4668   22.4976 C   0  0  0  0  0  0
  -18.0287  -28.1394   22.8590 C   0  0  0  0  0  0
  -24.1502  -36.7301   23.2638 C   0  0  0  0  0  0
  -25.9481  -30.8082   21.3697 C   0  0  0  0  0  0
  -26.0204  -29.4392   20.7134 C   0  0  0  0  0  0
  -27.2068  -28.6580   20.7061 C   0  0  0  0  0  0
  -26.0391  -26.9060   19.4917 C   0  0  0  0  0  0
  -24.8666  -27.6842   19.4944 C   0  0  0  0  0  0
  -23.6233  -29.8220   20.1616 C   0  0  0  0  0  0
  -25.4123  -36.3092   24.0341 C   0  0  1  0  0  0
  -20.5869  -28.3695   23.1348 C   0  0  2  0  0  0
  -20.6780  -26.9449   22.5381 C   0  0  0  0  0  0
  -19.5679  -26.6394   21.5288 C   0  0  0  0  0  0
  -18.1909  -26.7905   22.1830 C   0  0  0  0  0  0
  -19.1531  -28.8877   23.2932 C   0  0  0  0  0  0
  -18.9475  -30.1525   23.8880 C   0  0  0  0  0  0
  -17.6492  -30.6667   24.0525 C   0  0  0  0  0  0
  -25.9047  -34.9456   23.5128 C   0  0  0  0  0  0
  -16.5377  -29.9135   23.6356 C   0  0  0  0  0  0
  -16.7270  -28.6540   23.0419 C   0  0  0  0  0  0
  -26.4495  -31.6578   25.0712 C   0  0  0  0  0  0
  -25.3742  -31.3678   26.1439 C   0  0  0  0  0  0
  -27.0335  -30.3016   24.6120 C   0  0  0  0  0  0
  -27.6073  -32.4299   25.7470 C   0  0  0  0  0  0
  -27.5589  -37.1806   24.8468 C   0  0  0  0  0  0
  -21.4149  -29.3127   22.3812 N   0  0  0  0  0  0
  -26.4300  -37.3789   23.9416 N   0  0  0  0  0  0
  -24.6785  -31.0698   22.0989 N   0  0  0  0  0  0
  -23.4214  -28.8122   23.2943 O   0  0  0  0  0  0
  -28.3785  -26.5994   20.1519 O   0  0  0  0  0  0
  -26.5608  -34.8906   22.4688 O   0  0  0  0  0  0
  -23.5391  -32.1423   23.7415 O   0  0  0  0  0  0
  -26.9232  -18.1467   22.6036 C   0  0  0  0  0  0
  -27.9926  -17.4105   22.0999 C   0  0  0  0  0  0
  -26.7182  -19.4867   22.2354 C   0  0  0  0  0  0
  -28.8714  -17.9677   21.1550 C   0  0  0  0  0  0
  -28.6794  -19.3447   20.7560 C   0  0  0  0  0  0
  -27.6196  -20.1519   21.3383 C   0  0  0  0  0  0
  -29.6108  -19.8680   19.6685 C   0  0  0  0  0  0
  -24.1921  -19.7082   22.0266 C   0  0  0  0  0  0
  -25.4435  -20.1122   22.8201 C   0  0  0  0  0  0
  -30.0082  -17.0403   20.6281 C   0  0  0  0  0  0
  -27.2863  -21.6790   21.0989 C   0  0  0  0  0  0
  -27.7318  -24.1291   20.6312 C   0  0  0  0  0  0
  -28.4093  -25.2070   19.7078 C   0  0  0  0  0  0
  -29.7978  -15.5832   20.8318 N   0  0  0  0  0  0
  -28.1685  -22.6865   20.4257 N   0  3  0  0  0  0
  -31.4744  -12.4717   19.1471 H   0  0  0  0  0  0
  -30.3534  -11.3389   19.8612 H   0  0  0  0  0  0
  -29.7610  -11.7638   17.4595 H   0  0  0  0  0  0
  -29.6595  -13.4803   17.7606 H   0  0  0  0  0  0
  -27.8434  -11.2977   18.8417 H   0  0  0  0  0  0
  -27.3742  -12.6036   17.7881 H   0  0  0  0  0  0
  -27.6774  -14.2481   19.5461 H   0  0  0  0  0  0
  -28.6725  -11.9968   21.3652 H   0  0  0  0  0  0
  -28.4377  -13.6456   21.8598 H   0  0  0  0  0  0
  -25.2765   -9.5657   22.4752 H   0  0  0  0  0  0
  -24.0003   -7.4595   22.7444 H   0  0  0  0  0  0
  -21.0867   -8.8775   19.8930 H   0  0  0  0  0  0
  -22.3714  -10.9673   19.6167 H   0  0  0  0  0  0
  -21.1976   -7.6140   23.9737 H   0  0  0  0  0  0
  -21.1510   -6.0506   25.9096 H   0  0  0  0  0  0
  -22.0589   -2.7608   23.2832 H   0  0  0  0  0  0
  -22.4105  -11.9870   22.4834 H   0  0  0  0  0  0
  -21.1086  -13.1196   22.2653 H   0  0  0  0  0  0
  -24.6641  -15.8463   20.5492 H   0  0  0  0  0  0
  -26.2837  -15.6413   20.1330 H   0  0  0  0  0  0
  -26.7146  -32.5508   23.1109 H   0  0  0  0  0  0
  -25.0088  -33.9764   25.0466 H   0  0  0  0  0  0
  -22.7053  -31.3092   21.4036 H   0  0  0  0  0  0
  -23.3761  -35.9638   23.3303 H   0  0  0  0  0  0
  -24.3589  -36.8918   22.2051 H   0  0  0  0  0  0
  -23.7248  -37.6501   23.6651 H   0  0  0  0  0  0
  -26.0779  -31.5727   20.6022 H   0  0  0  0  0  0
  -26.8305  -30.8582   21.9961 H   0  0  0  0  0  0
  -28.1054  -29.0305   21.1797 H   0  0  0  0  0  0
  -25.9925  -25.9415   19.0114 H   0  0  0  0  0  0
  -23.9742  -27.2989   19.0233 H   0  0  0  0  0  0
  -23.7446  -30.5968   19.4027 H   0  0  0  0  0  0
  -22.7441  -29.2500   19.8594 H   0  0  0  0  0  0
  -25.1300  -36.1958   25.0837 H   0  0  0  0  0  0
  -20.9968  -28.3220   24.1461 H   0  0  0  0  0  0
  -21.6619  -26.7492   22.1126 H   0  0  0  0  0  0
  -20.5728  -26.2281   23.3532 H   0  0  0  0  0  0
  -19.6770  -25.6298   21.1362 H   0  0  0  0  0  0
  -19.6579  -27.3156   20.6775 H   0  0  0  0  0  0
  -17.4128  -26.6616   21.4282 H   0  0  0  0  0  0
  -18.0379  -26.0089   22.9313 H   0  0  0  0  0  0
  -19.7957  -30.7349   24.2230 H   0  0  0  0  0  0
  -17.5063  -31.6380   24.5062 H   0  0  0  0  0  0
  -15.5386  -30.3013   23.7766 H   0  0  0  0  0  0
  -15.8661  -28.0844   22.7186 H   0  0  0  0  0  0
  -24.5924  -30.7028   25.7745 H   0  0  0  0  0  0
  -24.8915  -32.2827   26.4886 H   0  0  0  0  0  0
  -25.8073  -30.8827   27.0196 H   0  0  0  0  0  0
  -26.2888  -29.6747   24.1200 H   0  0  0  0  0  0
  -27.4115  -29.7281   25.4591 H   0  0  0  0  0  0
  -27.8723  -30.4317   23.9280 H   0  0  0  0  0  0
  -27.2703  -33.3597   26.2063 H   0  0  0  0  0  0
  -28.3859  -32.6866   25.0276 H   0  0  0  0  0  0
  -28.0758  -31.8413   26.5360 H   0  0  0  0  0  0
  -28.2610  -38.0102   24.7519 H   0  0  0  0  0  0
  -28.1085  -36.2631   24.6296 H   0  0  0  0  0  0
  -27.2306  -37.1463   25.8870 H   0  0  0  0  0  0
  -20.9261  -29.9064   21.7255 H   0  0  0  0  0  0
  -26.0188  -38.2877   24.1382 H   0  0  0  0  0  0
  -26.2351  -17.6575   23.2798 H   0  0  0  0  0  0
  -28.0993  -16.3919   22.4389 H   0  0  0  0  0  0
  -30.6423  -19.5893   19.8831 H   0  0  0  0  0  0
  -29.6039  -20.9369   19.5091 H   0  0  0  0  0  0
  -29.3356  -19.4059   18.7200 H   0  0  0  0  0  0
  -23.2944  -20.1393   22.4692 H   0  0  0  0  0  0
  -24.0524  -18.6259   22.0108 H   0  0  0  0  0  0
  -24.2556  -20.0493   20.9939 H   0  0  0  0  0  0
  -25.4758  -21.1933   22.9163 H   0  0  0  0  0  0
  -25.3128  -19.7583   23.8450 H   0  0  0  0  0  0
  -30.1558  -17.2064   19.5610 H   0  0  0  0  0  0
  -30.9389  -17.3310   21.1169 H   0  0  0  0  0  0
  -27.1738  -22.1020   22.0962 H   0  0  0  0  0  0
  -26.3017  -21.7323   20.6324 H   0  0  0  0  0  0
  -26.6516  -24.2104   20.5090 H   0  0  0  0  0  0
  -27.9235  -24.3930   21.6716 H   0  0  0  0  0  0
  -28.0519  -25.1259   18.6813 H   0  0  0  0  0  0
  -29.4654  -24.9563   19.6449 H   0  0  0  0  0  0
  -28.8669  -15.3149   21.1081 H   0  0  0  0  0  0
  -29.1102  -22.5765   20.7669 H   0  0  0  0  0  0
  -28.1663  -22.4664   19.4443 H   0  0  0  0  0  0
  1 25  1  0  0  0
  1 30  2  0  0  0
  1 84  1  0  0  0
  2  3  1  0  0  0
  2 25  1  0  0  0
  2 86  1  0  0  0
  2 87  1  0  0  0
  3  4  1  0  0  0
  3 88  1  0  0  0
  3 89  1  0  0  0
  4  5  1  0  0  0
  4 90  1  0  0  0
  4 91  1  0  0  0
  5  6  1  0  0  0
  5 26  1  0  0  0
  5 92  1  0  0  0
  6 25  1  0  0  0
  6 93  1  0  0  0
  6 94  1  0  0  0
  7  8  2  0  0  0
  7 26  1  0  0  0
  7 29  1  0  0  0
  8  9  1  0  0  0
  8 22  1  0  0  0
  9 10  1  0  0  0
  9 27  2  0  0  0
 10 11  2  0  0  0
 10 15  1  0  0  0
 11 12  1  0  0  0
 11 95  1  0  0  0
 12 13  2  0  0  0
 12 96  1  0  0  0
 13 14  1  0  0  0
 13 31  1  0  0  0
 14 15  2  0  0  0
 14 97  1  0  0  0
 15 98  1  0  0  0
 16 17  2  0  0  0
 16 21  1  0  0  0
 16 31  1  0  0  0
 17 18  1  0  0  0
 17 99  1  0  0  0
 18 19  2  0  0  0
 18100  1  0  0  0
 19 20  1  0  0  0
 19 24  1  0  0  0
 20 21  2  0  0  0
 20101  1  0  0  0
 21 23  1  0  0  0
 22 28  1  0  0  0
 22 32  2  0  0  0
 26 27  1  0  0  0
 28102  1  0  0  0
 28103  1  0  0  0
 29104  1  0  0  0
 29105  1  0  0  0
 33 34  1  0  0  0
 33 66  1  0  0  0
 33 70  2  0  0  0
 34 36  1  0  0  0
 34 59  1  0  0  0
 34106  1  0  0  0
 35 44  2  0  0  0
 35 45  1  0  0  0
 35 68  1  0  0  0
 36 56  1  0  0  0
 36107  1  0  0  0
 37 39  1  0  0  0
 37 47  1  0  0  0
 37 66  1  0  0  0
 37108  1  0  0  0
 38 43  2  0  0  0
 38 46  1  0  0  0
 38 47  1  0  0  0
 39 64  1  0  0  0
 39 67  2  0  0  0
 40 52  1  0  0  0
 40 53  2  0  0  0
 40 58  1  0  0  0
 41109  1  0  0  0
 41110  1  0  0  0
 41111  1  0  0  0
 41 48  1  0  0  0
 42 43  1  0  0  0
 42 66  1  0  0  0
 42112  1  0  0  0
 42113  1  0  0  0
 43 44  1  0  0  0
 44114  1  0  0  0
 45 46  2  0  0  0
 45115  1  0  0  0
 46116  1  0  0  0
 47117  1  0  0  0
 47118  1  0  0  0
 48 56  1  0  0  0
 48 65  1  0  0  0
 48119  1  0  0  0
 49 50  1  0  0  0
 49 53  1  0  0  0
 49 64  1  0  0  0
 49120  1  0  0  0
 50 51  1  0  0  0
 50121  1  0  0  0
 50122  1  0  0  0
 51 52  1  0  0  0
 51123  1  0  0  0
 51124  1  0  0  0
 52125  1  0  0  0
 52126  1  0  0  0
 53 54  1  0  0  0
 54 55  2  0  0  0
 54127  1  0  0  0
 55 57  1  0  0  0
 55128  1  0  0  0
 56 69  2  0  0  0
 57 58  2  0  0  0
 57129  1  0  0  0
 58130  1  0  0  0
 59 60  1  0  0  0
 59 61  1  0  0  0
 59 62  1  0  0  0
 60131  1  0  0  0
 60132  1  0  0  0
 60133  1  0  0  0
 61134  1  0  0  0
 61135  1  0  0  0
 61136  1  0  0  0
 62137  1  0  0  0
 62138  1  0  0  0
 62139  1  0  0  0
 63 65  1  0  0  0
 63140  1  0  0  0
 63141  1  0  0  0
 63142  1  0  0  0
 64143  1  0  0  0
 65144  1  0  0  0
 68 83  1  0  0  0
 71 72  2  0  0  0
 71 73  1  0  0  0
 71145  1  0  0  0
 72 74  1  0  0  0
 72146  1  0  0  0
 73 76  2  0  0  0
 73 79  1  0  0  0
 74 75  2  0  0  0
 74 80  1  0  0  0
 75 76  1  0  0  0
 75 77  1  0  0  0
 76 81  1  0  0  0
 77147  1  0  0  0
 77148  1  0  0  0
 77149  1  0  0  0
 78 79  1  0  0  0
 78150  1  0  0  0
 78151  1  0  0  0
 78152  1  0  0  0
 79153  1  0  0  0
 79154  1  0  0  0
 80 84  1  0  0  0
 80155  1  0  0  0
 80156  1  0  0  0
 81 85  1  0  0  0
 81157  1  0  0  0
 81158  1  0  0  0
 82 83  1  0  0  0
 82 85  1  0  0  0
 82159  1  0  0  0
 82160  1  0  0  0
 83161  1  0  0  0
 83162  1  0  0  0
 84163  1  0  0  0
 85164  1  0  0  0
 85165  1  0  0  0
M  CHG  1  85   1
M  ISO  4   1 100  68 101  83 101  84 100
M  END
> <chiral flag>
0

> <version>
0

> <s_m_source_file>
/data/baiqing/PycharmProjects/Reinvent-master-3.2/result/LINK_invent/BTK/process_docking_weight1_custom_product_contain_oxygen_bond_distance_aromatic_linkinvent_7_9_3/rearranged_h_0040.sdf

> <i_m_source_file_index>
3

> <r_mmod_Potential_Energy-OPLS-2005>
-169.252410888672

> <r_mmod_Stretch_Energy-OPLS-2005>
69.5044403076172

> <r_mmod_Bend_Energy-OPLS-2005>
158.533233642578

> <r_mmod_Torsional_Energy-OPLS-2005>
194.316818237305

> <r_mmod_Improper_Torsional_Energy-OPLS-2005>
5.5818247795105

> <r_mmod_Van_der_Waal_Energy-OPLS-2005>
153.749908447266

> <r_mmod_Electrostatic_Energy-OPLS-2005>
-330.707275390625

> <r_mmod_Solvation_Energy-OPLS-2005>
-448.451751708984

> <b_mmod_Minimization_Converged-OPLS-2005>
0

> <r_mmod_RMS_Derivative-OPLS-2005>
4.20650863647461

$$$$
3
                    3D
 Structure written by MMmdl.
170179  0  0  1  0            999 V2000
  -30.6026  -14.6475   20.5056 C   0  0  0  0  0  0
  -30.4455  -12.3953   19.4556 C   0  0  0  0  0  0
  -29.5152  -12.5093   18.2266 C   0  0  0  0  0  0
  -28.0357  -12.3483   18.6335 C   0  0  0  0  0  0
  -27.6577  -13.2131   19.8665 C   0  0  2  0  0  0
  -28.7009  -13.0552   20.9961 C   0  0  0  0  0  0
  -25.2592  -13.8164   20.5677 C   0  0  0  0  0  0
  -24.1844  -13.0442   20.9172 C   0  0  0  0  0  0
  -24.6400  -11.6909   20.8730 C   0  0  0  0  0  0
  -23.9076  -10.4291   21.0396 C   0  0  0  0  0  0
  -24.3623   -9.4210   21.9179 C   0  0  0  0  0  0
  -23.6291   -8.2252   22.0752 C   0  0  0  0  0  0
  -22.4275   -8.0282   21.3544 C   0  0  0  0  0  0
  -21.9920   -9.0254   20.4641 C   0  0  0  0  0  0
  -22.7247  -10.2135   20.3052 C   0  0  0  0  0  0
  -21.6864   -6.0730   22.5275 C   0  0  0  0  0  0
  -21.4016   -6.5630   23.8207 C   0  0  0  0  0  0
  -21.3666   -5.6783   24.9172 C   0  0  0  0  0  0
  -21.6049   -4.3045   24.7223 C   0  0  0  0  0  0
  -21.8820   -3.8141   23.4345 C   0  0  0  0  0  0
  -21.9204   -4.6960   22.3406 C   0  0  0  0  0  0
  -22.7878  -13.5256   21.1830 C   0  0  0  0  0  0
  -22.1664   -4.2154   21.0984 F   0  0  0  0  0  0
  -21.5637   -3.4530   25.7738 F   0  0  0  0  0  0
  -30.0177  -13.4098   20.4402 N   0  0  0  0  0  0
  -26.3012  -12.9332   20.3317 N   0  0  0  0  0  0
  -25.9329  -11.6489   20.5751 N   0  0  0  0  0  0
  -22.0498  -12.8270   22.0389 N   0  0  0  0  0  0
  -25.4333  -15.1880   20.4101 N   0  0  0  0  0  0
  -31.7493  -14.8413   20.0912 O   0  0  0  0  0  0
  -21.6638   -6.8875   21.4237 O   0  0  0  0  0  0
  -22.3583  -14.5556   20.6661 O   0  0  0  0  0  0
  -24.6245  -31.8596   23.2016 C   0  0  0  0  0  0
  -25.9103  -32.4781   23.8338 C   0  0  1  0  0  0
  -27.2330  -27.3291   20.1344 C   0  0  0  0  0  0
  -25.5920  -33.8579   24.2272 N   0  0  0  0  0  0
  -23.4181  -30.4794   21.5442 C   0  0  2  0  0  0
  -24.8680  -28.9270   20.1201 C   0  0  0  0  0  0
  -22.7454  -29.4625   22.4957 C   0  0  0  0  0  0
  -18.0274  -28.1398   22.8502 C   0  0  0  0  0  0
  -24.1492  -36.7295   23.2636 C   0  0  0  0  0  0
  -25.9546  -30.8008   21.3649 C   0  0  0  0  0  0
  -26.0339  -29.4223   20.7165 C   0  0  0  0  0  0
  -27.2231  -28.6365   20.7065 C   0  0  0  0  0  0
  -26.0459  -26.8732   19.5258 C   0  0  0  0  0  0
  -24.8746  -27.6578   19.5144 C   0  0  0  0  0  0
  -23.6329  -29.8040   20.1627 C   0  0  0  0  0  0
  -25.4122  -36.3093   24.0322 C   0  0  1  0  0  0
  -20.5877  -28.3697   23.1306 C   0  0  2  0  0  0
  -20.6772  -26.9423   22.5434 C   0  0  0  0  0  0
  -19.5749  -26.6406   21.5233 C   0  0  0  0  0  0
  -18.1921  -26.7944   22.1636 C   0  0  0  0  0  0
  -19.1533  -28.8862   23.2900 C   0  0  0  0  0  0
  -18.9444  -30.1467   23.8913 C   0  0  0  0  0  0
  -17.6441  -30.6593   24.0576 C   0  0  0  0  0  0
  -25.9055  -34.9454   23.5099 C   0  0  0  0  0  0
  -16.5332  -29.9095   23.6337 C   0  0  0  0  0  0
  -16.7265  -28.6517   23.0357 C   0  0  0  0  0  0
  -26.4495  -31.6586   25.0696 C   0  0  0  0  0  0
  -25.3732  -31.3707   26.1414 C   0  0  0  0  0  0
  -27.0313  -30.3003   24.6132 C   0  0  0  0  0  0
  -27.6052  -32.4309   25.7491 C   0  0  0  0  0  0
  -27.5588  -37.1800   24.8460 C   0  0  0  0  0  0
  -21.4173  -29.3041   22.3697 N   0  0  0  0  0  0
  -26.4302  -37.3788   23.9401 N   0  0  0  0  0  0
  -24.6847  -31.0630   22.0948 N   0  0  0  0  0  0
  -23.4177  -28.8177   23.3052 O   0  0  0  0  0  0
  -28.3736  -26.5204   20.1087 O   0  0  0  0  0  0
  -26.5628  -34.8917   22.4666 O   0  0  0  0  0  0
  -23.5418  -32.1373   23.7365 O   0  0  0  0  0  0
  -29.6176  -19.3915   21.6647 C   0  0  0  0  0  0
  -29.0801  -19.9835   20.4881 C   0  0  0  0  0  0
  -28.9504  -19.0943   19.3661 C   0  0  0  0  0  0
  -29.2891  -17.6918   19.4601 C   0  0  0  0  0  0
  -29.7597  -17.1094   20.6784 C   0  0  0  0  0  0
  -29.9368  -18.0058   21.7666 C   0  0  0  0  0  0
  -28.6994  -23.9815   19.6993 C   0  0  0  0  0  0
  -28.6120  -24.1206   18.3618 C   0  0  0  0  0  0
  -29.5928  -23.8579   22.4997 C   0  0  0  0  0  0
  -29.2681  -25.2309   21.9003 C   0  0  0  0  0  0
  -30.2563  -22.9660   21.4391 C   0  0  0  0  0  0
  -28.3276  -25.1552   20.6836 C   0  0  1  0  0  0
  -28.3589  -19.5902   18.0463 C   0  0  0  0  0  0
  -29.0498  -16.7821   18.2548 C   0  0  0  0  0  0
  -29.0358  -23.1193   17.3029 C   0  0  0  0  0  0
  -28.4743  -21.4605   20.5472 C   0  0  0  0  0  0
  -29.7787  -15.6614   20.9160 N   0  0  0  0  0  0
  -29.3403  -22.6902   20.3071 N   0  3  1  0  0  0
  -30.4784  -17.4019   23.2942 Cl  0  0  0  0  0  0
  -31.4869  -12.5294   19.1567 H   0  0  0  0  0  0
  -30.3854  -11.3973   19.8942 H   0  0  0  0  0  0
  -29.7793  -11.7581   17.4817 H   0  0  0  0  0  0
  -29.6617  -13.4771   17.7477 H   0  0  0  0  0  0
  -27.8677  -11.2935   18.8560 H   0  0  0  0  0  0
  -27.3851  -12.5862   17.7910 H   0  0  0  0  0  0
  -27.6778  -14.2505   19.5329 H   0  0  0  0  0  0
  -28.7156  -12.0277   21.3617 H   0  0  0  0  0  0
  -28.4434  -13.6706   21.8597 H   0  0  0  0  0  0
  -25.2770   -9.5696   22.4747 H   0  0  0  0  0  0
  -23.9997   -7.4659   22.7479 H   0  0  0  0  0  0
  -21.0850   -8.8782   19.8951 H   0  0  0  0  0  0
  -22.3707  -10.9674   19.6153 H   0  0  0  0  0  0
  -21.1998   -7.6137   23.9721 H   0  0  0  0  0  0
  -21.1488   -6.0510   25.9082 H   0  0  0  0  0  0
  -22.0602   -2.7609   23.2852 H   0  0  0  0  0  0
  -22.4068  -11.9913   22.4781 H   0  0  0  0  0  0
  -21.1114  -13.1324   22.2548 H   0  0  0  0  0  0
  -24.6686  -15.8427   20.5317 H   0  0  0  0  0  0
  -26.2795  -15.6308   20.0777 H   0  0  0  0  0  0
  -26.7177  -32.5473   23.1100 H   0  0  0  0  0  0
  -25.0040  -33.9728   25.0397 H   0  0  0  0  0  0
  -22.7127  -31.2996   21.3973 H   0  0  0  0  0  0
  -23.3766  -35.9616   23.3298 H   0  0  0  0  0  0
  -24.3585  -36.8919   22.2052 H   0  0  0  0  0  0
  -23.7223  -37.6482   23.6657 H   0  0  0  0  0  0
  -26.0736  -31.5651   20.5936 H   0  0  0  0  0  0
  -26.8374  -30.8586   21.9893 H   0  0  0  0  0  0
  -28.1261  -29.0210   21.1592 H   0  0  0  0  0  0
  -26.0235  -25.8999   19.0560 H   0  0  0  0  0  0
  -23.9800  -27.2727   19.0457 H   0  0  0  0  0  0
  -23.7482  -30.5742   19.3993 H   0  0  0  0  0  0
  -22.7538  -29.2268   19.8686 H   0  0  0  0  0  0
  -25.1320  -36.1944   25.0816 H   0  0  0  0  0  0
  -20.9961  -28.3273   24.1426 H   0  0  0  0  0  0
  -20.5700  -26.2298   23.3633 H   0  0  0  0  0  0
  -21.6636  -26.7478   22.1204 H   0  0  0  0  0  0
  -19.6903  -25.6322   21.1254 H   0  0  0  0  0  0
  -19.6675  -27.3227   20.6773 H   0  0  0  0  0  0
  -17.4196  -26.6706   21.4032 H   0  0  0  0  0  0
  -18.0297  -26.0086   22.9029 H   0  0  0  0  0  0
  -19.7915  -30.7301   24.2277 H   0  0  0  0  0  0
  -17.4987  -31.6268   24.5182 H   0  0  0  0  0  0
  -15.5336  -30.2999   23.7649 H   0  0  0  0  0  0
  -15.8669  -28.0840   22.7066 H   0  0  0  0  0  0
  -24.5917  -30.7056   25.7729 H   0  0  0  0  0  0
  -24.8927  -32.2868   26.4851 H   0  0  0  0  0  0
  -25.8050  -30.8869   27.0182 H   0  0  0  0  0  0
  -26.2858  -29.6762   24.1180 H   0  0  0  0  0  0
  -27.4024  -29.7251   25.4629 H   0  0  0  0  0  0
  -27.8739  -30.4281   23.9327 H   0  0  0  0  0  0
  -27.2654  -33.3600   26.2080 H   0  0  0  0  0  0
  -28.3870  -32.6869   25.0329 H   0  0  0  0  0  0
  -28.0705  -31.8418   26.5403 H   0  0  0  0  0  0
  -28.2600  -38.0110   24.7543 H   0  0  0  0  0  0
  -28.1095  -36.2636   24.6264 H   0  0  0  0  0  0
  -27.2302  -37.1426   25.8864 H   0  0  0  0  0  0
  -20.9349  -29.8739   21.6882 H   0  0  0  0  0  0
  -26.0185  -38.2854   24.1435 H   0  0  0  0  0  0
  -29.7180  -19.9906   22.5583 H   0  0  0  0  0  0
  -28.1985  -25.0412   17.9723 H   0  0  0  0  0  0
  -28.6901  -23.3921   22.8989 H   0  0  0  0  0  0
  -30.2706  -23.9848   23.3444 H   0  0  0  0  0  0
  -30.2009  -25.7116   21.5973 H   0  0  0  0  0  0
  -28.8373  -25.8809   22.6634 H   0  0  0  0  0  0
  -30.6201  -22.0402   21.8823 H   0  0  0  0  0  0
  -31.1411  -23.4699   21.0462 H   0  0  0  0  0  0
  -27.3221  -24.9406   21.0502 H   0  0  0  0  0  0
  -27.9920  -20.6096   18.0583 H   0  0  0  0  0  0
  -27.5129  -18.9676   17.7515 H   0  0  0  0  0  0
  -29.1083  -19.5382   17.2574 H   0  0  0  0  0  0
  -29.3120  -17.2698   17.3181 H   0  0  0  0  0  0
  -28.0022  -16.4865   18.2057 H   0  0  0  0  0  0
  -29.6537  -15.8783   18.2813 H   0  0  0  0  0  0
  -29.6005  -22.2801   17.7043 H   0  0  0  0  0  0
  -29.6665  -23.6170   16.5656 H   0  0  0  0  0  0
  -28.1605  -22.7298   16.7827 H   0  0  0  0  0  0
  -28.0175  -21.5747   21.5311 H   0  0  0  0  0  0
  -27.6127  -21.5244   19.8865 H   0  0  0  0  0  0
  -28.9367  -15.3136   21.3468 H   0  0  0  0  0  0
  -29.9651  -22.3515   19.5911 H   0  0  0  0  0  0
  1 25  1  0  0  0
  1 30  2  0  0  0
  1 87  1  0  0  0
  2  3  1  0  0  0
  2 25  1  0  0  0
  2 90  1  0  0  0
  2 91  1  0  0  0
  3  4  1  0  0  0
  3 92  1  0  0  0
  3 93  1  0  0  0
  4  5  1  0  0  0
  4 94  1  0  0  0
  4 95  1  0  0  0
  5  6  1  0  0  0
  5 26  1  0  0  0
  5 96  1  0  0  0
  6 25  1  0  0  0
  6 97  1  0  0  0
  6 98  1  0  0  0
  7  8  2  0  0  0
  7 26  1  0  0  0
  7 29  1  0  0  0
  8  9  1  0  0  0
  8 22  1  0  0  0
  9 10  1  0  0  0
  9 27  2  0  0  0
 10 11  2  0  0  0
 10 15  1  0  0  0
 11 12  1  0  0  0
 11 99  1  0  0  0
 12 13  2  0  0  0
 12100  1  0  0  0
 13 14  1  0  0  0
 13 31  1  0  0  0
 14 15  2  0  0  0
 14101  1  0  0  0
 15102  1  0  0  0
 16 17  2  0  0  0
 16 21  1  0  0  0
 16 31  1  0  0  0
 17 18  1  0  0  0
 17103  1  0  0  0
 18 19  2  0  0  0
 18104  1  0  0  0
 19 20  1  0  0  0
 19 24  1  0  0  0
 20 21  2  0  0  0
 20105  1  0  0  0
 21 23  1  0  0  0
 22 28  1  0  0  0
 22 32  2  0  0  0
 26 27  1  0  0  0
 28106  1  0  0  0
 28107  1  0  0  0
 29108  1  0  0  0
 29109  1  0  0  0
 33 34  1  0  0  0
 33 66  1  0  0  0
 33 70  2  0  0  0
 34 36  1  0  0  0
 34 59  1  0  0  0
 34110  1  0  0  0
 35 44  2  0  0  0
 35 45  1  0  0  0
 35 68  1  0  0  0
 36 56  1  0  0  0
 36111  1  0  0  0
 37 39  1  0  0  0
 37 47  1  0  0  0
 37 66  1  0  0  0
 37112  1  0  0  0
 38 43  2  0  0  0
 38 46  1  0  0  0
 38 47  1  0  0  0
 39 64  1  0  0  0
 39 67  2  0  0  0
 40 52  1  0  0  0
 40 53  2  0  0  0
 40 58  1  0  0  0
 41113  1  0  0  0
 41114  1  0  0  0
 41115  1  0  0  0
 41 48  1  0  0  0
 42 43  1  0  0  0
 42 66  1  0  0  0
 42116  1  0  0  0
 42117  1  0  0  0
 43 44  1  0  0  0
 44118  1  0  0  0
 45 46  2  0  0  0
 45119  1  0  0  0
 46120  1  0  0  0
 47121  1  0  0  0
 47122  1  0  0  0
 48 56  1  0  0  0
 48 65  1  0  0  0
 48123  1  0  0  0
 49 50  1  0  0  0
 49 53  1  0  0  0
 49 64  1  0  0  0
 49124  1  0  0  0
 50 51  1  0  0  0
 50125  1  0  0  0
 50126  1  0  0  0
 51 52  1  0  0  0
 51127  1  0  0  0
 51128  1  0  0  0
 52129  1  0  0  0
 52130  1  0  0  0
 53 54  1  0  0  0
 54 55  2  0  0  0
 54131  1  0  0  0
 55 57  1  0  0  0
 55132  1  0  0  0
 56 69  2  0  0  0
 57 58  2  0  0  0
 57133  1  0  0  0
 58134  1  0  0  0
 59 60  1  0  0  0
 59 61  1  0  0  0
 59 62  1  0  0  0
 60135  1  0  0  0
 60136  1  0  0  0
 60137  1  0  0  0
 61138  1  0  0  0
 61139  1  0  0  0
 61140  1  0  0  0
 62141  1  0  0  0
 62142  1  0  0  0
 62143  1  0  0  0
 63 65  1  0  0  0
 63144  1  0  0  0
 63145  1  0  0  0
 63146  1  0  0  0
 64147  1  0  0  0
 65148  1  0  0  0
 68 82  1  0  0  0
 71 72  2  0  0  0
 71 76  1  0  0  0
 71149  1  0  0  0
 72 73  1  0  0  0
 72 86  1  0  0  0
 73 74  2  0  0  0
 73 83  1  0  0  0
 74 75  1  0  0  0
 74 84  1  0  0  0
 75 76  2  0  0  0
 75 87  1  0  0  0
 76 89  1  0  0  0
 77 78  2  0  0  0
 77 82  1  0  0  0
 77 88  1  0  0  0
 78 85  1  0  0  0
 78150  1  0  0  0
 79 80  1  0  0  0
 79 81  1  0  0  0
 79151  1  0  0  0
 79152  1  0  0  0
 80 82  1  0  0  0
 80153  1  0  0  0
 80154  1  0  0  0
 81 88  1  0  0  0
 81155  1  0  0  0
 81156  1  0  0  0
 82157  1  0  0  0
 83158  1  0  0  0
 83159  1  0  0  0
 83160  1  0  0  0
 84161  1  0  0  0
 84162  1  0  0  0
 84163  1  0  0  0
 85164  1  0  0  0
 85165  1  0  0  0
 85166  1  0  0  0
 86167  1  0  0  0
 86168  1  0  0  0
 86 88  1  0  0  0
 87169  1  0  0  0
 88170  1  0  0  0
M  CHG  1  88   1
M  ISO  4   1 100  68 101  82 101  87 100
M  END
> <chiral flag>
0

> <version>
0

> <s_m_source_file>
/data/baiqing/PycharmProjects/Reinvent-master-3.2/result/LINK_invent/BTK/process_docking_weight1_custom_product_contain_oxygen_bond_distance_aromatic_linkinvent_7_9_3/rearranged_h_0040.sdf

> <i_m_source_file_index>
4

> <r_mmod_Potential_Energy-OPLS-2005>
-33.2843475341797

> <r_mmod_Stretch_Energy-OPLS-2005>
95.2216949462891

> <r_mmod_Bend_Energy-OPLS-2005>
156.542785644531

> <r_mmod_Torsional_Energy-OPLS-2005>
278.453826904297

> <r_mmod_Improper_Torsional_Energy-OPLS-2005>
7.39371395111084

> <r_mmod_Van_der_Waal_Energy-OPLS-2005>
137.02473449707

> <r_mmod_Electrostatic_Energy-OPLS-2005>
-318.479705810547

> <r_mmod_Solvation_Energy-OPLS-2005>
-434.26416015625

> <b_mmod_Minimization_Converged-OPLS-2005>
0

> <r_mmod_RMS_Derivative-OPLS-2005>
2.08487677574158

$$$$
4
                    3D
 Structure written by MMmdl.
176185  0  0  1  0            999 V2000
  -30.6940  -14.5227   20.5133 C   0  0  0  0  0  0
  -30.4190  -12.3110   19.4585 C   0  0  0  0  0  0
  -29.5083  -12.4871   18.2261 C   0  0  0  0  0  0
  -28.0252  -12.3541   18.6287 C   0  0  0  0  0  0
  -27.6586  -13.2124   19.8702 C   0  0  2  0  0  0
  -28.6986  -13.0456   21.0036 C   0  0  0  0  0  0
  -25.2584  -13.8162   20.5699 C   0  0  0  0  0  0
  -24.1840  -13.0446   20.9157 C   0  0  0  0  0  0
  -24.6382  -11.6905   20.8710 C   0  0  0  0  0  0
  -23.9049  -10.4302   21.0379 C   0  0  0  0  0  0
  -24.3597   -9.4218   21.9156 C   0  0  0  0  0  0
  -23.6277   -8.2248   22.0730 C   0  0  0  0  0  0
  -22.4257   -8.0277   21.3526 C   0  0  0  0  0  0
  -21.9896   -9.0248   20.4626 C   0  0  0  0  0  0
  -22.7214  -10.2135   20.3026 C   0  0  0  0  0  0
  -21.6850   -6.0737   22.5276 C   0  0  0  0  0  0
  -21.4011   -6.5628   23.8208 C   0  0  0  0  0  0
  -21.3667   -5.6784   24.9161 C   0  0  0  0  0  0
  -21.6046   -4.3048   24.7216 C   0  0  0  0  0  0
  -21.8812   -3.8137   23.4334 C   0  0  0  0  0  0
  -21.9189   -4.6964   22.3392 C   0  0  0  0  0  0
  -22.7862  -13.5235   21.1845 C   0  0  0  0  0  0
  -22.1645   -4.2152   21.0970 F   0  0  0  0  0  0
  -21.5646   -3.4528   25.7726 F   0  0  0  0  0  0
  -30.0311  -13.3319   20.4478 N   0  0  0  0  0  0
  -26.3012  -12.9342   20.3340 N   0  0  0  0  0  0
  -25.9315  -11.6492   20.5739 N   0  0  0  0  0  0
  -22.0517  -12.8239   22.0418 N   0  0  0  0  0  0
  -25.4336  -15.1881   20.4159 N   0  0  0  0  0  0
  -31.8423  -14.6621   20.0839 O   0  0  0  0  0  0
  -21.6618   -6.8870   21.4230 O   0  0  0  0  0  0
  -22.3542  -14.5551   20.6713 O   0  0  0  0  0  0
  -24.6217  -31.8630   23.2073 C   0  0  0  0  0  0
  -25.9113  -32.4793   23.8370 C   0  0  1  0  0  0
  -27.2471  -27.4089   20.1067 C   0  0  0  0  0  0
  -25.5989  -33.8596   24.2328 N   0  0  0  0  0  0
  -23.4110  -30.4882   21.5442 C   0  0  2  0  0  0
  -24.8615  -28.9546   20.1069 C   0  0  0  0  0  0
  -22.7449  -29.4641   22.4933 C   0  0  0  0  0  0
  -18.0296  -28.1392   22.8477 C   0  0  0  0  0  0
  -24.1465  -36.7266   23.2638 C   0  0  0  0  0  0
  -25.9444  -30.8260   21.3613 C   0  0  0  0  0  0
  -26.0233  -29.4609   20.7034 C   0  0  0  0  0  0
  -27.2178  -28.6986   20.6934 C   0  0  0  0  0  0
  -26.0674  -26.9303   19.4864 C   0  0  0  0  0  0
  -24.8826  -27.6921   19.4890 C   0  0  0  0  0  0
  -23.6213  -29.8209   20.1581 C   0  0  0  0  0  0
  -25.4091  -36.3087   24.0336 C   0  0  1  0  0  0
  -20.5891  -28.3686   23.1284 C   0  0  2  0  0  0
  -20.6787  -26.9403   22.5418 C   0  0  0  0  0  0
  -19.5760  -26.6390   21.5225 C   0  0  0  0  0  0
  -18.1934  -26.7943   22.1609 C   0  0  0  0  0  0
  -19.1547  -28.8854   23.2887 C   0  0  0  0  0  0
  -18.9470  -30.1468   23.8886 C   0  0  0  0  0  0
  -17.6470  -30.6593   24.0570 C   0  0  0  0  0  0
  -25.9053  -34.9451   23.5112 C   0  0  0  0  0  0
  -16.5361  -29.9097   23.6334 C   0  0  0  0  0  0
  -16.7289  -28.6525   23.0336 C   0  0  0  0  0  0
  -26.4529  -31.6600   25.0720 C   0  0  0  0  0  0
  -25.3805  -31.3719   26.1494 C   0  0  0  0  0  0
  -27.0392  -30.3043   24.6129 C   0  0  0  0  0  0
  -27.6101  -32.4346   25.7463 C   0  0  0  0  0  0
  -27.5559  -37.1792   24.8468 C   0  0  0  0  0  0
  -21.4177  -29.3052   22.3672 N   0  0  0  0  0  0
  -26.4265  -37.3789   23.9427 N   0  0  0  0  0  0
  -24.6771  -31.0717   22.0975 N   0  0  0  0  0  0
  -23.4202  -28.8191   23.2989 O   0  0  0  0  0  0
  -28.3809  -26.6105   20.2278 O   0  0  0  0  0  0
  -26.5553  -34.8905   22.4633 O   0  0  0  0  0  0
  -23.5398  -32.1413   23.7440 O   0  0  0  0  0  0
  -30.3911  -17.8833   22.6473 C   0  0  0  0  0  0
  -30.4831  -18.9237   23.5829 C   0  0  0  0  0  0
  -30.3213  -18.1499   21.2708 C   0  0  0  0  0  0
  -30.5181  -20.2751   23.1570 C   0  0  0  0  0  0
  -30.3994  -19.5092   20.8213 C   0  0  0  0  0  0
  -30.5000  -20.5932   21.7611 C   0  0  0  0  0  0
  -29.4978  -24.4127   20.8390 C   0  0  0  0  0  0
  -30.7132  -24.9982   20.7749 C   0  0  0  0  0  0
  -26.2688  -24.0569   21.9140 C   0  0  0  0  0  0
  -26.8257  -22.7213   21.4156 C   0  0  0  0  0  0
  -27.3205  -25.1746   21.9342 C   0  0  0  0  0  0
  -28.2257  -22.4344   21.9686 C   0  0  0  0  0  0
  -28.1762  -25.2192   20.6365 C   0  0  1  0  0  0
  -30.5237  -18.5493   25.0569 C   0  0  0  0  0  0
  -30.5620  -21.3512   24.2456 C   0  0  0  0  0  0
  -30.3906  -19.7735   19.3144 C   0  0  0  0  0  0
  -30.1602  -16.9679   20.2875 C   0  0  0  0  0  0
  -30.6065  -22.0891   21.3032 C   0  0  0  0  0  0
  -29.9467  -15.6026   20.8308 N   0  0  0  0  0  0
  -29.3309  -22.8741   21.0554 N   0  3  2  0  0  0
  -31.4691  -12.3820   19.1739 H   0  0  0  0  0  0
  -30.2951  -11.3143   19.8853 H   0  0  0  0  0  0
  -29.7567  -11.7443   17.4681 H   0  0  0  0  0  0
  -29.6870  -13.4610   17.7708 H   0  0  0  0  0  0
  -27.8381  -11.3006   18.8416 H   0  0  0  0  0  0
  -27.3823  -12.6115   17.7854 H   0  0  0  0  0  0
  -27.6904  -14.2518   19.5427 H   0  0  0  0  0  0
  -28.6747  -12.0291   21.3985 H   0  0  0  0  0  0
  -28.4628  -13.6962   21.8480 H   0  0  0  0  0  0
  -25.2732   -9.5719   22.4731 H   0  0  0  0  0  0
  -24.0013   -7.4636   22.7442 H   0  0  0  0  0  0
  -21.0832   -8.8726   19.8925 H   0  0  0  0  0  0
  -22.3633  -10.9661   19.6131 H   0  0  0  0  0  0
  -21.1976   -7.6128   23.9713 H   0  0  0  0  0  0
  -21.1505   -6.0503   25.9076 H   0  0  0  0  0  0
  -22.0585   -2.7607   23.2818 H   0  0  0  0  0  0
  -22.4111  -11.9853   22.4745 H   0  0  0  0  0  0
  -21.1128  -13.1250   22.2641 H   0  0  0  0  0  0
  -24.6756  -15.8514   20.5327 H   0  0  0  0  0  0
  -26.2935  -15.6262   20.1135 H   0  0  0  0  0  0
  -26.7175  -32.5485   23.1115 H   0  0  0  0  0  0
  -25.0352  -33.9749   25.0615 H   0  0  0  0  0  0
  -22.7047  -31.3067   21.4001 H   0  0  0  0  0  0
  -23.3747  -35.9591   23.3343 H   0  0  0  0  0  0
  -24.3563  -36.8834   22.2049 H   0  0  0  0  0  0
  -23.7208  -37.6478   23.6617 H   0  0  0  0  0  0
  -26.0609  -31.5958   20.5964 H   0  0  0  0  0  0
  -26.8342  -30.8779   21.9778 H   0  0  0  0  0  0
  -28.1070  -29.0758   21.1801 H   0  0  0  0  0  0
  -26.0393  -25.9581   19.0174 H   0  0  0  0  0  0
  -23.9930  -27.2986   19.0186 H   0  0  0  0  0  0
  -23.7249  -30.6001   19.4020 H   0  0  0  0  0  0
  -22.7461  -29.2404   19.8623 H   0  0  0  0  0  0
  -25.1265  -36.1950   25.0832 H   0  0  0  0  0  0
  -21.0002  -28.3284   24.1400 H   0  0  0  0  0  0
  -20.5723  -26.2284   23.3618 H   0  0  0  0  0  0
  -21.6648  -26.7469   22.1172 H   0  0  0  0  0  0
  -19.6938  -25.6314   21.1235 H   0  0  0  0  0  0
  -19.6711  -27.3213   20.6760 H   0  0  0  0  0  0
  -17.4210  -26.6735   21.3993 H   0  0  0  0  0  0
  -18.0288  -26.0087   22.8982 H   0  0  0  0  0  0
  -19.7955  -30.7304   24.2217 H   0  0  0  0  0  0
  -17.5031  -31.6266   24.5189 H   0  0  0  0  0  0
  -15.5364  -30.2994   23.7678 H   0  0  0  0  0  0
  -15.8690  -28.0871   22.7013 H   0  0  0  0  0  0
  -24.5971  -30.7057   25.7854 H   0  0  0  0  0  0
  -24.9000  -32.2876   26.4951 H   0  0  0  0  0  0
  -25.8193  -30.8907   27.0248 H   0  0  0  0  0  0
  -26.2961  -29.6743   24.1237 H   0  0  0  0  0  0
  -27.4228  -29.7333   25.4598 H   0  0  0  0  0  0
  -27.8725  -30.4356   23.9230 H   0  0  0  0  0  0
  -27.2748  -33.3658   26.2024 H   0  0  0  0  0  0
  -28.3914  -32.6907   25.0301 H   0  0  0  0  0  0
  -28.0773  -31.8497   26.5399 H   0  0  0  0  0  0
  -28.2598  -38.0071   24.7548 H   0  0  0  0  0  0
  -28.1040  -36.2624   24.6263 H   0  0  0  0  0  0
  -27.2287  -37.1400   25.8870 H   0  0  0  0  0  0
  -20.9339  -29.8783   21.6898 H   0  0  0  0  0  0
  -26.0145  -38.2845   24.1504 H   0  0  0  0  0  0
  -30.3588  -16.8623   22.9998 H   0  0  0  0  0  0
  -30.8017  -26.0606   20.5980 H   0  0  0  0  0  0
  -31.6469  -24.4684   20.8864 H   0  0  0  0  0  0
  -25.8733  -23.9376   22.9233 H   0  0  0  0  0  0
  -25.4216  -24.3419   21.2887 H   0  0  0  0  0  0
  -26.8346  -22.6708   20.3273 H   0  0  0  0  0  0
  -26.1420  -21.9308   21.7242 H   0  0  0  0  0  0
  -27.9770  -25.0820   22.8007 H   0  0  0  0  0  0
  -26.7837  -26.0995   22.1358 H   0  0  0  0  0  0
  -28.2288  -21.3567   22.0963 H   0  0  0  0  0  0
  -28.3488  -22.8435   22.9716 H   0  0  0  0  0  0
  -27.6580  -24.7392   19.8065 H   0  0  0  0  0  0
  -30.6462  -17.4755   25.2002 H   0  0  0  0  0  0
  -29.5922  -18.8381   25.5420 H   0  0  0  0  0  0
  -31.3522  -19.0407   25.5671 H   0  0  0  0  0  0
  -31.5631  -21.4371   24.6690 H   0  0  0  0  0  0
  -29.8788  -21.1048   25.0604 H   0  0  0  0  0  0
  -30.2563  -22.3405   23.9229 H   0  0  0  0  0  0
  -29.6238  -19.1902   18.8066 H   0  0  0  0  0  0
  -31.3514  -19.5000   18.8766 H   0  0  0  0  0  0
  -30.1939  -20.8065   19.0414 H   0  0  0  0  0  0
  -30.9933  -16.9873   19.5835 H   0  0  0  0  0  0
  -29.2673  -17.1708   19.6974 H   0  0  0  0  0  0
  -31.2272  -22.1410   20.4100 H   0  0  0  0  0  0
  -31.2095  -22.6144   22.0404 H   0  0  0  0  0  0
  -29.0231  -15.4091   21.1890 H   0  0  0  0  0  0
  -29.0307  -22.5017   20.1688 H   0  0  0  0  0  0
  1 25  1  0  0  0
  1 30  2  0  0  0
  1 89  1  0  0  0
  2  3  1  0  0  0
  2 25  1  0  0  0
  2 91  1  0  0  0
  2 92  1  0  0  0
  3  4  1  0  0  0
  3 93  1  0  0  0
  3 94  1  0  0  0
  4  5  1  0  0  0
  4 95  1  0  0  0
  4 96  1  0  0  0
  5  6  1  0  0  0
  5 26  1  0  0  0
  5 97  1  0  0  0
  6 25  1  0  0  0
  6 98  1  0  0  0
  6 99  1  0  0  0
  7  8  2  0  0  0
  7 26  1  0  0  0
  7 29  1  0  0  0
  8  9  1  0  0  0
  8 22  1  0  0  0
  9 10  1  0  0  0
  9 27  2  0  0  0
 10 11  2  0  0  0
 10 15  1  0  0  0
 11 12  1  0  0  0
 11100  1  0  0  0
 12 13  2  0  0  0
 12101  1  0  0  0
 13 14  1  0  0  0
 13 31  1  0  0  0
 14 15  2  0  0  0
 14102  1  0  0  0
 15103  1  0  0  0
 16 17  2  0  0  0
 16 21  1  0  0  0
 16 31  1  0  0  0
 17 18  1  0  0  0
 17104  1  0  0  0
 18 19  2  0  0  0
 18105  1  0  0  0
 19 20  1  0  0  0
 19 24  1  0  0  0
 20 21  2  0  0  0
 20106  1  0  0  0
 21 23  1  0  0  0
 22 28  1  0  0  0
 22 32  2  0  0  0
 26 27  1  0  0  0
 28107  1  0  0  0
 28108  1  0  0  0
 29109  1  0  0  0
 29110  1  0  0  0
 33 34  1  0  0  0
 33 66  1  0  0  0
 33 70  2  0  0  0
 34 36  1  0  0  0
 34 59  1  0  0  0
 34111  1  0  0  0
 35 44  2  0  0  0
 35 45  1  0  0  0
 35 68  1  0  0  0
 36 56  1  0  0  0
 36112  1  0  0  0
 37 39  1  0  0  0
 37 47  1  0  0  0
 37 66  1  0  0  0
 37113  1  0  0  0
 38 43  2  0  0  0
 38 46  1  0  0  0
 38 47  1  0  0  0
 39 64  1  0  0  0
 39 67  2  0  0  0
 40 52  1  0  0  0
 40 53  2  0  0  0
 40 58  1  0  0  0
 41114  1  0  0  0
 41115  1  0  0  0
 41116  1  0  0  0
 41 48  1  0  0  0
 42 43  1  0  0  0
 42 66  1  0  0  0
 42117  1  0  0  0
 42118  1  0  0  0
 43 44  1  0  0  0
 44119  1  0  0  0
 45 46  2  0  0  0
 45120  1  0  0  0
 46121  1  0  0  0
 47122  1  0  0  0
 47123  1  0  0  0
 48 56  1  0  0  0
 48 65  1  0  0  0
 48124  1  0  0  0
 49 50  1  0  0  0
 49 53  1  0  0  0
 49 64  1  0  0  0
 49125  1  0  0  0
 50 51  1  0  0  0
 50126  1  0  0  0
 50127  1  0  0  0
 51 52  1  0  0  0
 51128  1  0  0  0
 51129  1  0  0  0
 52130  1  0  0  0
 52131  1  0  0  0
 53 54  1  0  0  0
 54 55  2  0  0  0
 54132  1  0  0  0
 55 57  1  0  0  0
 55133  1  0  0  0
 56 69  2  0  0  0
 57 58  2  0  0  0
 57134  1  0  0  0
 58135  1  0  0  0
 59 60  1  0  0  0
 59 61  1  0  0  0
 59 62  1  0  0  0
 60136  1  0  0  0
 60137  1  0  0  0
 60138  1  0  0  0
 61139  1  0  0  0
 61140  1  0  0  0
 61141  1  0  0  0
 62142  1  0  0  0
 62143  1  0  0  0
 62144  1  0  0  0
 63 65  1  0  0  0
 63145  1  0  0  0
 63146  1  0  0  0
 63147  1  0  0  0
 64148  1  0  0  0
 65149  1  0  0  0
 68 83  1  0  0  0
 71 72  2  0  0  0
 71 73  1  0  0  0
 71150  1  0  0  0
 72 74  1  0  0  0
 72 84  1  0  0  0
 73 75  2  0  0  0
 73 87  1  0  0  0
 74 76  2  0  0  0
 74 85  1  0  0  0
 75 76  1  0  0  0
 75 86  1  0  0  0
 76 88  1  0  0  0
 77 78  2  0  0  0
 77 83  1  0  0  0
 77 90  1  0  0  0
 78151  1  0  0  0
 78152  1  0  0  0
 79 80  1  0  0  0
 79 81  1  0  0  0
 79153  1  0  0  0
 79154  1  0  0  0
 80 82  1  0  0  0
 80155  1  0  0  0
 80156  1  0  0  0
 81 83  1  0  0  0
 81157  1  0  0  0
 81158  1  0  0  0
 82 90  1  0  0  0
 82159  1  0  0  0
 82160  1  0  0  0
 83161  1  0  0  0
 84162  1  0  0  0
 84163  1  0  0  0
 84164  1  0  0  0
 85165  1  0  0  0
 85166  1  0  0  0
 85167  1  0  0  0
 86168  1  0  0  0
 86169  1  0  0  0
 86170  1  0  0  0
 87 89  1  0  0  0
 87171  1  0  0  0
 87172  1  0  0  0
 88173  1  0  0  0
 88174  1  0  0  0
 88 90  1  0  0  0
 89175  1  0  0  0
 90176  1  0  0  0
M  CHG  1  90   1
M  ISO  4   1 100  68 101  83 101  89 100
M  END
> <chiral flag>
0

> <version>
0

> <s_m_source_file>
/data/baiqing/PycharmProjects/Reinvent-master-3.2/result/LINK_invent/BTK/process_docking_weight1_custom_product_contain_oxygen_bond_distance_aromatic_linkinvent_7_9_3/rearranged_h_0040.sdf

> <i_m_source_file_index>
5

> <r_mmod_Potential_Energy-OPLS-2005>
-86.7007141113281

> <r_mmod_Stretch_Energy-OPLS-2005>
73.2394866943359

> <r_mmod_Bend_Energy-OPLS-2005>
131.23681640625

> <r_mmod_Torsional_Energy-OPLS-2005>
237.398101806641

> <r_mmod_Improper_Torsional_Energy-OPLS-2005>
7.34275531768799

> <r_mmod_Van_der_Waal_Energy-OPLS-2005>
187.40592956543

> <r_mmod_Electrostatic_Energy-OPLS-2005>
-331.069458007812

> <r_mmod_Solvation_Energy-OPLS-2005>
-416.920043945312

> <b_mmod_Minimization_Converged-OPLS-2005>
0

> <r_mmod_RMS_Derivative-OPLS-2005>
3.73750233650208

$$$$
5
                    3D
 Structure written by MMmdl.
162170  0  0  1  0            999 V2000
  -30.6928  -14.4392   20.6221 C   0  0  0  0  0  0
  -30.4312  -12.3023   19.4068 C   0  0  0  0  0  0
  -29.4943  -12.5196   18.2000 C   0  0  0  0  0  0
  -28.0144  -12.3786   18.6114 C   0  0  0  0  0  0
  -27.6673  -13.1989   19.8823 C   0  0  2  0  0  0
  -28.7061  -12.9294   20.9935 C   0  0  0  0  0  0
  -25.2607  -13.8147   20.5665 C   0  0  0  0  0  0
  -24.1848  -13.0436   20.9163 C   0  0  0  0  0  0
  -24.6391  -11.6899   20.8726 C   0  0  0  0  0  0
  -23.9052  -10.4292   21.0403 C   0  0  0  0  0  0
  -24.3607   -9.4209   21.9182 C   0  0  0  0  0  0
  -23.6285   -8.2244   22.0753 C   0  0  0  0  0  0
  -22.4268   -8.0280   21.3543 C   0  0  0  0  0  0
  -21.9899   -9.0252   20.4645 C   0  0  0  0  0  0
  -22.7223  -10.2133   20.3052 C   0  0  0  0  0  0
  -21.6849   -6.0734   22.5279 C   0  0  0  0  0  0
  -21.4014   -6.5639   23.8213 C   0  0  0  0  0  0
  -21.3659   -5.6792   24.9174 C   0  0  0  0  0  0
  -21.6044   -4.3055   24.7225 C   0  0  0  0  0  0
  -21.8818   -3.8146   23.4346 C   0  0  0  0  0  0
  -21.9192   -4.6962   22.3403 C   0  0  0  0  0  0
  -22.7872  -13.5242   21.1832 C   0  0  0  0  0  0
  -22.1659   -4.2150   21.0980 F   0  0  0  0  0  0
  -21.5630   -3.4538   25.7738 F   0  0  0  0  0  0
  -30.0434  -13.2543   20.4587 N   0  0  0  0  0  0
  -26.3047  -12.9303   20.3381 N   0  0  0  0  0  0
  -25.9316  -11.6471   20.5761 N   0  0  0  0  0  0
  -22.0508  -12.8241   22.0392 N   0  0  0  0  0  0
  -25.4335  -15.1858   20.4060 N   0  0  0  0  0  0
  -31.7787  -14.6855   20.0867 O   0  0  0  0  0  0
  -21.6634   -6.8874   21.4240 O   0  0  0  0  0  0
  -22.3560  -14.5552   20.6684 O   0  0  0  0  0  0
  -24.6122  -31.8694   23.2101 C   0  0  0  0  0  0
  -25.9025  -32.4831   23.8397 C   0  0  1  0  0  0
  -27.2395  -27.4517   20.0981 C   0  0  0  0  0  0
  -25.5900  -33.8627   24.2335 N   0  0  0  0  0  0
  -23.4010  -30.4899   21.5499 C   0  0  2  0  0  0
  -24.8503  -28.9524   20.1199 C   0  0  0  0  0  0
  -22.7401  -29.4655   22.4997 C   0  0  0  0  0  0
  -18.0269  -28.1374   22.8484 C   0  0  0  0  0  0
  -24.1491  -36.7317   23.2638 C   0  0  0  0  0  0
  -25.9269  -30.8385   21.3616 C   0  0  0  0  0  0
  -26.0075  -29.4707   20.7164 C   0  0  0  0  0  0
  -27.2077  -28.7257   20.7057 C   0  0  0  0  0  0
  -26.0709  -26.9389   19.5022 C   0  0  0  0  0  0
  -24.8748  -27.6831   19.5132 C   0  0  0  0  0  0
  -23.6106  -29.8176   20.1661 C   0  0  0  0  0  0
  -25.4110  -36.3114   24.0343 C   0  0  1  0  0  0
  -20.5858  -28.3657   23.1322 C   0  0  2  0  0  0
  -20.6766  -26.9395   22.5418 C   0  0  0  0  0  0
  -19.5748  -26.6384   21.5211 C   0  0  0  0  0  0
  -18.1921  -26.7919   22.1619 C   0  0  0  0  0  0
  -19.1519  -28.8831   23.2898 C   0  0  0  0  0  0
  -18.9451  -30.1436   23.8908 C   0  0  0  0  0  0
  -17.6455  -30.6582   24.0560 C   0  0  0  0  0  0
  -25.9037  -34.9479   23.5135 C   0  0  0  0  0  0
  -16.5345  -29.9084   23.6321 C   0  0  0  0  0  0
  -16.7259  -28.6500   23.0338 C   0  0  0  0  0  0
  -26.4465  -31.6598   25.0711 C   0  0  0  0  0  0
  -25.3739  -31.3696   26.1462 C   0  0  0  0  0  0
  -27.0291  -30.3046   24.6057 C   0  0  0  0  0  0
  -27.6045  -32.4312   25.7471 C   0  0  0  0  0  0
  -27.5583  -37.1807   24.8464 C   0  0  0  0  0  0
  -21.4131  -29.3025   22.3733 N   0  0  0  0  0  0
  -26.4296  -37.3797   23.9410 N   0  0  0  0  0  0
  -24.6647  -31.0803   22.0996 N   0  0  0  0  0  0
  -23.4175  -28.8203   23.3040 O   0  0  0  0  0  0
  -28.4018  -26.7231   20.0391 O   0  0  0  0  0  0
  -26.5592  -34.8926   22.4692 O   0  0  0  0  0  0
  -23.5317  -32.1443   23.7503 O   0  0  0  0  0  0
  -29.1372  -18.7851   22.4661 C   0  0  0  0  0  0
  -31.0212  -17.5521   20.7959 C   0  0  0  0  0  0
  -30.0926  -19.5888   21.8078 C   0  0  0  0  0  0
  -29.1254  -17.3817   22.3129 C   0  0  0  0  0  0
  -31.0332  -18.9596   20.9502 C   0  0  0  0  0  0
  -30.0822  -16.7452   21.4847 C   0  0  0  0  0  0
  -28.0803  -16.5692   23.0630 C   0  0  0  0  0  0
  -32.0879  -19.7633   20.2056 C   0  0  0  0  0  0
  -30.1322  -21.0920   22.1226 C   0  0  0  0  0  0
  -28.7153  -24.3401   20.5743 C   0  0  0  0  0  0
  -29.2478  -23.3575   21.6475 C   0  0  0  0  0  0
  -28.5930  -25.7888   21.1038 C   0  0  0  0  0  0
  -30.0252  -15.3199   21.3915 N   0  0  0  0  0  0
  -29.3478  -21.9428   21.1959 N   0  3  0  0  0  0
  -31.4729  -12.4189   19.1028 H   0  0  0  0  0  0
  -30.3452  -11.2805   19.7787 H   0  0  0  0  0  0
  -29.7302  -11.8089   17.4067 H   0  0  0  0  0  0
  -29.6631  -13.5123   17.7791 H   0  0  0  0  0  0
  -27.8178  -11.3208   18.7897 H   0  0  0  0  0  0
  -27.3653  -12.6723   17.7858 H   0  0  0  0  0  0
  -27.7262  -14.2541   19.6136 H   0  0  0  0  0  0
  -28.6803  -11.8772   21.2809 H   0  0  0  0  0  0
  -28.4525  -13.4717   21.9046 H   0  0  0  0  0  0
  -25.2755   -9.5688   22.4749 H   0  0  0  0  0  0
  -23.9996   -7.4638   22.7474 H   0  0  0  0  0  0
  -21.0829   -8.8768   19.8953 H   0  0  0  0  0  0
  -22.3680  -10.9670   19.6158 H   0  0  0  0  0  0
  -21.2005   -7.6147   23.9715 H   0  0  0  0  0  0
  -21.1481   -6.0522   25.9077 H   0  0  0  0  0  0
  -22.0598   -2.7609   23.2846 H   0  0  0  0  0  0
  -22.4113  -11.9900   22.4781 H   0  0  0  0  0  0
  -21.1129  -13.1278   22.2595 H   0  0  0  0  0  0
  -24.6674  -15.8418   20.5110 H   0  0  0  0  0  0
  -26.2874  -15.6231   20.0827 H   0  0  0  0  0  0
  -26.7097  -32.5563   23.1168 H   0  0  0  0  0  0
  -25.0053  -33.9797   25.0483 H   0  0  0  0  0  0
  -22.6886  -31.3052   21.4083 H   0  0  0  0  0  0
  -23.3749  -35.9653   23.3312 H   0  0  0  0  0  0
  -24.3586  -36.8917   22.2049 H   0  0  0  0  0  0
  -23.7246  -37.6529   23.6643 H   0  0  0  0  0  0
  -26.0322  -31.6018   20.5892 H   0  0  0  0  0  0
  -26.8169  -30.8984   21.9758 H   0  0  0  0  0  0
  -28.1053  -29.1254   21.1565 H   0  0  0  0  0  0
  -26.0908  -25.9685   19.0263 H   0  0  0  0  0  0
  -23.9855  -27.2778   19.0498 H   0  0  0  0  0  0
  -23.7180  -30.5902   19.4036 H   0  0  0  0  0  0
  -22.7357  -29.2341   19.8728 H   0  0  0  0  0  0
  -25.1281  -36.1984   25.0836 H   0  0  0  0  0  0
  -20.9943  -28.3230   24.1446 H   0  0  0  0  0  0
  -20.5685  -26.2263   23.3603 H   0  0  0  0  0  0
  -21.6635  -26.7455   22.1203 H   0  0  0  0  0  0
  -19.6920  -25.6301   21.1226 H   0  0  0  0  0  0
  -19.6696  -27.3210   20.6753 H   0  0  0  0  0  0
  -17.4197  -26.6665   21.4016 H   0  0  0  0  0  0
  -18.0317  -26.0062   22.9015 H   0  0  0  0  0  0
  -19.7934  -30.7236   24.2294 H   0  0  0  0  0  0
  -17.5018  -31.6267   24.5153 H   0  0  0  0  0  0
  -15.5347  -30.2988   23.7645 H   0  0  0  0  0  0
  -15.8659  -28.0830   22.7041 H   0  0  0  0  0  0
  -24.5906  -30.7052   25.7797 H   0  0  0  0  0  0
  -24.8933  -32.2850   26.4926 H   0  0  0  0  0  0
  -25.8093  -30.8850   27.0209 H   0  0  0  0  0  0
  -26.2820  -29.6813   24.1123 H   0  0  0  0  0  0
  -27.4093  -29.7271   25.4494 H   0  0  0  0  0  0
  -27.8645  -30.4379   23.9175 H   0  0  0  0  0  0
  -27.2665  -33.3596   26.2087 H   0  0  0  0  0  0
  -28.3833  -32.6899   25.0285 H   0  0  0  0  0  0
  -28.0739  -31.8414   26.5356 H   0  0  0  0  0  0
  -28.2595  -38.0108   24.7513 H   0  0  0  0  0  0
  -28.1083  -36.2639   24.6285 H   0  0  0  0  0  0
  -27.2301  -37.1448   25.8866 H   0  0  0  0  0  0
  -20.9296  -29.8737   21.6945 H   0  0  0  0  0  0
  -26.0191  -38.2876   24.1413 H   0  0  0  0  0  0
  -28.4176  -19.2501   23.1267 H   0  0  0  0  0  0
  -31.7580  -17.1039   20.1463 H   0  0  0  0  0  0
  -27.4197  -17.2081   23.6495 H   0  0  0  0  0  0
  -28.5574  -15.8693   23.7496 H   0  0  0  0  0  0
  -27.4584  -16.0034   22.3687 H   0  0  0  0  0  0
  -32.6198  -19.1472   19.4801 H   0  0  0  0  0  0
  -32.8270  -20.1657   20.8989 H   0  0  0  0  0  0
  -31.6391  -20.5902   19.6565 H   0  0  0  0  0  0
  -31.1660  -21.4376   22.1493 H   0  0  0  0  0  0
  -29.7532  -21.2362   23.1359 H   0  0  0  0  0  0
  -27.7438  -24.0108   20.2044 H   0  0  0  0  0  0
  -29.3927  -24.3331   19.7199 H   0  0  0  0  0  0
  -28.6109  -23.3966   22.5326 H   0  0  0  0  0  0
  -30.2355  -23.6960   21.9658 H   0  0  0  0  0  0
  -29.5135  -26.0727   21.6147 H   0  0  0  0  0  0
  -27.7987  -25.8490   21.8516 H   0  0  0  0  0  0
  -29.2329  -14.9052   21.8554 H   0  0  0  0  0  0
  -28.4227  -21.5551   21.1119 H   0  0  0  0  0  0
  -29.7812  -21.9060   20.2891 H   0  0  0  0  0  0
  1 25  1  0  0  0
  1 30  2  0  0  0
  1 83  1  0  0  0
  2  3  1  0  0  0
  2 25  1  0  0  0
  2 85  1  0  0  0
  2 86  1  0  0  0
  3  4  1  0  0  0
  3 87  1  0  0  0
  3 88  1  0  0  0
  4  5  1  0  0  0
  4 89  1  0  0  0
  4 90  1  0  0  0
  5  6  1  0  0  0
  5 26  1  0  0  0
  5 91  1  0  0  0
  6 25  1  0  0  0
  6 92  1  0  0  0
  6 93  1  0  0  0
  7  8  2  0  0  0
  7 26  1  0  0  0
  7 29  1  0  0  0
  8  9  1  0  0  0
  8 22  1  0  0  0
  9 10  1  0  0  0
  9 27  2  0  0  0
 10 11  2  0  0  0
 10 15  1  0  0  0
 11 12  1  0  0  0
 11 94  1  0  0  0
 12 13  2  0  0  0
 12 95  1  0  0  0
 13 14  1  0  0  0
 13 31  1  0  0  0
 14 15  2  0  0  0
 14 96  1  0  0  0
 15 97  1  0  0  0
 16 17  2  0  0  0
 16 21  1  0  0  0
 16 31  1  0  0  0
 17 18  1  0  0  0
 17 98  1  0  0  0
 18 19  2  0  0  0
 18 99  1  0  0  0
 19 20  1  0  0  0
 19 24  1  0  0  0
 20 21  2  0  0  0
 20100  1  0  0  0
 21 23  1  0  0  0
 22 28  1  0  0  0
 22 32  2  0  0  0
 26 27  1  0  0  0
 28101  1  0  0  0
 28102  1  0  0  0
 29103  1  0  0  0
 29104  1  0  0  0
 33 34  1  0  0  0
 33 66  1  0  0  0
 33 70  2  0  0  0
 34 36  1  0  0  0
 34 59  1  0  0  0
 34105  1  0  0  0
 35 44  2  0  0  0
 35 45  1  0  0  0
 35 68  1  0  0  0
 36 56  1  0  0  0
 36106  1  0  0  0
 37 39  1  0  0  0
 37 47  1  0  0  0
 37 66  1  0  0  0
 37107  1  0  0  0
 38 43  2  0  0  0
 38 46  1  0  0  0
 38 47  1  0  0  0
 39 64  1  0  0  0
 39 67  2  0  0  0
 40 52  1  0  0  0
 40 53  2  0  0  0
 40 58  1  0  0  0
 41108  1  0  0  0
 41109  1  0  0  0
 41110  1  0  0  0
 41 48  1  0  0  0
 42 43  1  0  0  0
 42 66  1  0  0  0
 42111  1  0  0  0
 42112  1  0  0  0
 43 44  1  0  0  0
 44113  1  0  0  0
 45 46  2  0  0  0
 45114  1  0  0  0
 46115  1  0  0  0
 47116  1  0  0  0
 47117  1  0  0  0
 48 56  1  0  0  0
 48 65  1  0  0  0
 48118  1  0  0  0
 49 50  1  0  0  0
 49 53  1  0  0  0
 49 64  1  0  0  0
 49119  1  0  0  0
 50 51  1  0  0  0
 50120  1  0  0  0
 50121  1  0  0  0
 51 52  1  0  0  0
 51122  1  0  0  0
 51123  1  0  0  0
 52124  1  0  0  0
 52125  1  0  0  0
 53 54  1  0  0  0
 54 55  2  0  0  0
 54126  1  0  0  0
 55 57  1  0  0  0
 55127  1  0  0  0
 56 69  2  0  0  0
 57 58  2  0  0  0
 57128  1  0  0  0
 58129  1  0  0  0
 59 60  1  0  0  0
 59 61  1  0  0  0
 59 62  1  0  0  0
 60130  1  0  0  0
 60131  1  0  0  0
 60132  1  0  0  0
 61133  1  0  0  0
 61134  1  0  0  0
 61135  1  0  0  0
 62136  1  0  0  0
 62137  1  0  0  0
 62138  1  0  0  0
 63 65  1  0  0  0
 63139  1  0  0  0
 63140  1  0  0  0
 63141  1  0  0  0
 64142  1  0  0  0
 65143  1  0  0  0
 68 82  1  0  0  0
 71 73  2  0  0  0
 71 74  1  0  0  0
 71144  1  0  0  0
 72 75  2  0  0  0
 72 76  1  0  0  0
 72145  1  0  0  0
 73 75  1  0  0  0
 73 79  1  0  0  0
 74 76  2  0  0  0
 74 77  1  0  0  0
 75 78  1  0  0  0
 76 83  1  0  0  0
 77146  1  0  0  0
 77147  1  0  0  0
 77148  1  0  0  0
 78149  1  0  0  0
 78150  1  0  0  0
 78151  1  0  0  0
 79 84  1  0  0  0
 79152  1  0  0  0
 79153  1  0  0  0
 80 81  1  0  0  0
 80 82  1  0  0  0
 80154  1  0  0  0
 80155  1  0  0  0
 81 84  1  0  0  0
 81156  1  0  0  0
 81157  1  0  0  0
 82158  1  0  0  0
 82159  1  0  0  0
 83160  1  0  0  0
 84161  1  0  0  0
 84162  1  0  0  0
M  CHG  1  84   1
M  ISO  4   1 100  68 101  82 101  83 100
M  END
> <chiral flag>
0

> <version>
0

> <s_m_source_file>
/data/baiqing/PycharmProjects/Reinvent-master-3.2/result/LINK_invent/BTK/process_docking_weight1_custom_product_contain_oxygen_bond_distance_aromatic_linkinvent_7_9_3/rearranged_h_0040.sdf

> <i_m_source_file_index>
6

> <r_mmod_Potential_Energy-OPLS-2005>
-269.372680664062

> <r_mmod_Stretch_Energy-OPLS-2005>
36.7651596069336

> <r_mmod_Bend_Energy-OPLS-2005>
99.2459182739258

> <r_mmod_Torsional_Energy-OPLS-2005>
224.465728759766

> <r_mmod_Improper_Torsional_Energy-OPLS-2005>
2.74643468856812

> <r_mmod_Van_der_Waal_Energy-OPLS-2005>
149.017501831055

> <r_mmod_Electrostatic_Energy-OPLS-2005>
-325.586975097656

> <r_mmod_Solvation_Energy-OPLS-2005>
-464.477478027344

> <b_mmod_Minimization_Converged-OPLS-2005>
0

> <r_mmod_RMS_Derivative-OPLS-2005>
0.693559885025024

$$$$
6
                    3D
 Structure written by MMmdl.
181190  0  0  1  0            999 V2000
  -30.7241  -14.5361   20.6171 C   0  0  0  0  0  0
  -30.4447  -12.3614   19.4383 C   0  0  0  0  0  0
  -29.5065  -12.5118   18.2189 C   0  0  0  0  0  0
  -28.0281  -12.3649   18.6316 C   0  0  0  0  0  0
  -27.6661  -13.2208   19.8721 C   0  0  2  0  0  0
  -28.7150  -13.0517   20.9968 C   0  0  0  0  0  0
  -25.2633  -13.8193   20.5725 C   0  0  0  0  0  0
  -24.1885  -13.0476   20.9226 C   0  0  0  0  0  0
  -24.6454  -11.6929   20.8772 C   0  0  0  0  0  0
  -23.9107  -10.4311   21.0430 C   0  0  0  0  0  0
  -24.3652   -9.4217   21.9193 C   0  0  0  0  0  0
  -23.6331   -8.2242   22.0747 C   0  0  0  0  0  0
  -22.4287   -8.0303   21.3562 C   0  0  0  0  0  0
  -21.9945   -9.0270   20.4638 C   0  0  0  0  0  0
  -22.7287  -10.2151   20.3078 C   0  0  0  0  0  0
  -21.6835   -6.0776   22.5300 C   0  0  0  0  0  0
  -21.4009   -6.5668   23.8244 C   0  0  0  0  0  0
  -21.3655   -5.6812   24.9189 C   0  0  0  0  0  0
  -21.6040   -4.3078   24.7231 C   0  0  0  0  0  0
  -21.8816   -3.8183   23.4348 C   0  0  0  0  0  0
  -21.9205   -4.7005   22.3416 C   0  0  0  0  0  0
  -22.7881  -13.5228   21.1871 C   0  0  0  0  0  0
  -22.1679   -4.2190   21.0987 F   0  0  0  0  0  0
  -21.5615   -3.4559   25.7744 F   0  0  0  0  0  0
  -30.0446  -13.3604   20.4463 N   0  0  0  0  0  0
  -26.3082  -12.9387   20.3384 N   0  0  0  0  0  0
  -25.9403  -11.6533   20.5808 N   0  0  0  0  0  0
  -22.0506  -12.8199   22.0385 N   0  0  0  0  0  0
  -25.4384  -15.1914   20.4150 N   0  0  0  0  0  0
  -31.8267  -14.7272   20.0960 O   0  0  0  0  0  0
  -21.6640   -6.8915   21.4264 O   0  0  0  0  0  0
  -22.3546  -14.5540   20.6725 O   0  0  0  0  0  0
  -24.6165  -31.8664   23.2071 C   0  0  0  0  0  0
  -25.9063  -32.4822   23.8376 C   0  0  1  0  0  0
  -27.2640  -27.4563   20.0650 C   0  0  0  0  0  0
  -25.5911  -33.8616   24.2321 N   0  0  0  0  0  0
  -23.4100  -30.4886   21.5454 C   0  0  2  0  0  0
  -24.8686  -28.9686   20.0933 C   0  0  0  0  0  0
  -22.7443  -29.4658   22.4949 C   0  0  0  0  0  0
  -18.0286  -28.1395   22.8464 C   0  0  0  0  0  0
  -24.1489  -36.7306   23.2630 C   0  0  0  0  0  0
  -25.9393  -30.8383   21.3611 C   0  0  0  0  0  0
  -26.0289  -29.4828   20.6878 C   0  0  0  0  0  0
  -27.2293  -28.7314   20.6775 C   0  0  0  0  0  0
  -26.0884  -26.9571   19.4638 C   0  0  0  0  0  0
  -24.8941  -27.7071   19.4720 C   0  0  0  0  0  0
  -23.6206  -29.8238   20.1569 C   0  0  0  0  0  0
  -25.4120  -36.3116   24.0340 C   0  0  1  0  0  0
  -20.5866  -28.3698   23.1284 C   0  0  2  0  0  0
  -20.6782  -26.9432   22.5410 C   0  0  0  0  0  0
  -19.5764  -26.6395   21.5205 C   0  0  0  0  0  0
  -18.1928  -26.7940   22.1595 C   0  0  0  0  0  0
  -19.1525  -28.8870   23.2869 C   0  0  0  0  0  0
  -18.9457  -30.1460   23.8903 C   0  0  0  0  0  0
  -17.6461  -30.6591   24.0570 C   0  0  0  0  0  0
  -25.9049  -34.9476   23.5130 C   0  0  0  0  0  0
  -16.5361  -29.9101   23.6319 C   0  0  0  0  0  0
  -16.7277  -28.6524   23.0337 C   0  0  0  0  0  0
  -26.4496  -31.6586   25.0702 C   0  0  0  0  0  0
  -25.3752  -31.3687   26.1419 C   0  0  0  0  0  0
  -27.0329  -30.3019   24.6088 C   0  0  0  0  0  0
  -27.6074  -32.4300   25.7468 C   0  0  0  0  0  0
  -27.5596  -37.1811   24.8469 C   0  0  0  0  0  0
  -21.4165  -29.3052   22.3681 N   0  0  0  0  0  0
  -26.4305  -37.3815   23.9424 N   0  0  0  0  0  0
  -24.6730  -31.0769   22.0973 N   0  0  0  0  0  0
  -23.4193  -28.8216   23.3012 O   0  0  0  0  0  0
  -28.2921  -26.5655   20.2774 O   0  0  0  0  0  0
  -26.5599  -34.8938   22.4677 O   0  0  0  0  0  0
  -23.5357  -32.1419   23.7466 O   0  0  0  0  0  0
  -30.6780  -20.6772   21.9603 C   0  0  0  0  0  0
  -31.7006  -21.2451   19.4276 C   0  0  0  0  0  0
  -31.1517  -21.9873   21.6765 C   0  0  0  0  0  0
  -30.7130  -19.6305   20.9972 C   0  0  0  0  0  0
  -31.6402  -22.2871   20.3806 C   0  0  0  0  0  0
  -31.2465  -19.9352   19.7166 C   0  0  0  0  0  0
  -32.8925  -24.8473   25.3154 C   0  0  0  0  0  0
  -31.0324  -23.0380   22.6995 C   0  0  0  0  0  0
  -31.9066  -24.4939   24.4758 C   0  0  0  0  0  0
  -32.0412  -23.4350   23.4951 C   0  0  0  0  0  0
  -29.2717  -26.2657   18.0135 C   0  0  0  0  0  0
  -30.6170  -26.0231   17.2943 C   0  0  0  0  0  0
  -30.2015  -25.2271   20.1226 C   0  0  0  0  0  0
  -29.4929  -26.4811   19.5146 C   0  0  2  0  0  0
  -31.7445  -25.4469   18.1948 C   0  0  2  0  0  0
  -31.3329  -18.8914   18.6167 C   0  0  0  0  0  0
  -32.8243  -24.8205   17.2865 C   0  0  0  0  0  0
  -32.1612  -23.6820   19.9854 C   0  0  0  0  0  0
  -30.0310  -18.2669   21.2987 C   0  0  0  0  0  0
  -30.0836  -15.7356   21.3720 C   0  0  0  0  0  0
  -31.1757  -24.5200   19.2230 N   0  3  1  0  0  0
  -30.8625  -17.0180   21.2768 N   0  3  0  0  0  0
  -31.4813  -12.4825   19.1207 H   0  0  0  0  0  0
  -30.3812  -11.3564   19.8593 H   0  0  0  0  0  0
  -29.7520  -11.7714   17.4566 H   0  0  0  0  0  0
  -29.6644  -13.4850   17.7549 H   0  0  0  0  0  0
  -27.8426  -11.3128   18.8432 H   0  0  0  0  0  0
  -27.3737  -12.6301   17.7987 H   0  0  0  0  0  0
  -27.6963  -14.2608   19.5469 H   0  0  0  0  0  0
  -28.7071  -12.0285   21.3772 H   0  0  0  0  0  0
  -28.4642  -13.6846   21.8473 H   0  0  0  0  0  0
  -25.2808   -9.5655   22.4757 H   0  0  0  0  0  0
  -24.0054   -7.4602   22.7444 H   0  0  0  0  0  0
  -21.0900   -8.8799   19.8907 H   0  0  0  0  0  0
  -22.3800  -10.9685   19.6164 H   0  0  0  0  0  0
  -21.1999   -7.6176   23.9755 H   0  0  0  0  0  0
  -21.1453   -6.0533   25.9088 H   0  0  0  0  0  0
  -22.0602   -2.7650   23.2834 H   0  0  0  0  0  0
  -22.4146  -11.9904   22.4813 H   0  0  0  0  0  0
  -21.1102  -13.1177   22.2538 H   0  0  0  0  0  0
  -24.6755  -15.8515   20.5146 H   0  0  0  0  0  0
  -26.2934  -15.6219   20.0867 H   0  0  0  0  0  0
  -26.7140  -32.5555   23.1154 H   0  0  0  0  0  0
  -25.0092  -33.9774   25.0488 H   0  0  0  0  0  0
  -22.6976  -31.3055   21.4047 H   0  0  0  0  0  0
  -23.3770  -35.9608   23.3297 H   0  0  0  0  0  0
  -24.3576  -36.8916   22.2036 H   0  0  0  0  0  0
  -23.7205  -37.6501   23.6647 H   0  0  0  0  0  0
  -26.0540  -31.6186   20.6082 H   0  0  0  0  0  0
  -26.8219  -30.8826   21.9876 H   0  0  0  0  0  0
  -28.1081  -29.1020   21.1854 H   0  0  0  0  0  0
  -26.0866  -25.9668   19.0306 H   0  0  0  0  0  0
  -24.0022  -27.3007   19.0162 H   0  0  0  0  0  0
  -23.7182  -30.6026   19.3983 H   0  0  0  0  0  0
  -22.7481  -29.2371   19.8639 H   0  0  0  0  0  0
  -25.1293  -36.1981   25.0835 H   0  0  0  0  0  0
  -20.9956  -28.3288   24.1407 H   0  0  0  0  0  0
  -20.5701  -26.2320   23.3612 H   0  0  0  0  0  0
  -21.6650  -26.7498   22.1203 H   0  0  0  0  0  0
  -19.6950  -25.6307   21.1240 H   0  0  0  0  0  0
  -19.6701  -27.3205   20.6731 H   0  0  0  0  0  0
  -17.4220  -26.6680   21.3993 H   0  0  0  0  0  0
  -18.0336  -26.0097   22.9000 H   0  0  0  0  0  0
  -19.7938  -30.7250   24.2299 H   0  0  0  0  0  0
  -17.5035  -31.6274   24.5153 H   0  0  0  0  0  0
  -15.5369  -30.3024   23.7632 H   0  0  0  0  0  0
  -15.8666  -28.0854   22.7051 H   0  0  0  0  0  0
  -24.5943  -30.7027   25.7745 H   0  0  0  0  0  0
  -24.8910  -32.2824   26.4857 H   0  0  0  0  0  0
  -25.8074  -30.8854   27.0182 H   0  0  0  0  0  0
  -26.2869  -29.6761   24.1165 H   0  0  0  0  0  0
  -27.4109  -29.7274   25.4561 H   0  0  0  0  0  0
  -27.8710  -30.4321   23.9235 H   0  0  0  0  0  0
  -27.2709  -33.3603   26.2048 H   0  0  0  0  0  0
  -28.3883  -32.6835   25.0297 H   0  0  0  0  0  0
  -28.0735  -31.8407   26.5374 H   0  0  0  0  0  0
  -28.2614  -38.0116   24.7562 H   0  0  0  0  0  0
  -28.1095  -36.2652   24.6253 H   0  0  0  0  0  0
  -27.2309  -37.1409   25.8867 H   0  0  0  0  0  0
  -20.9361  -29.8731   21.6845 H   0  0  0  0  0  0
  -26.0194  -38.2888   24.1444 H   0  0  0  0  0  0
  -30.2516  -20.4932   22.9369 H   0  0  0  0  0  0
  -32.1000  -21.4538   18.4449 H   0  0  0  0  0  0
  -32.7496  -25.6468   26.0307 H   0  0  0  0  0  0
  -33.8558  -24.3539   25.3138 H   0  0  0  0  0  0
  -30.0674  -23.5188   22.7874 H   0  0  0  0  0  0
  -30.9707  -25.0363   24.5401 H   0  0  0  0  0  0
  -33.0004  -22.9453   23.3955 H   0  0  0  0  0  0
  -28.6222  -25.4019   17.8640 H   0  0  0  0  0  0
  -28.7527  -27.1146   17.5680 H   0  0  0  0  0  0
  -30.9762  -26.9587   16.8626 H   0  0  0  0  0  0
  -30.4365  -25.3642   16.4431 H   0  0  0  0  0  0
  -29.4556  -24.4824   20.4073 H   0  0  0  0  0  0
  -30.6894  -25.5328   21.0475 H   0  0  0  0  0  0
  -30.0923  -27.3802   19.6756 H   0  0  0  0  0  0
  -32.2178  -26.2703   18.7343 H   0  0  0  0  0  0
  -31.3598  -19.3585   17.6328 H   0  0  0  0  0  0
  -30.4772  -18.2183   18.6124 H   0  0  0  0  0  0
  -32.2435  -18.2999   18.7271 H   0  0  0  0  0  0
  -32.4974  -23.8668   16.8699 H   0  0  0  0  0  0
  -33.7725  -24.6766   17.8032 H   0  0  0  0  0  0
  -33.0493  -25.4807   16.4498 H   0  0  0  0  0  0
  -33.0507  -23.4710   19.3993 H   0  0  0  0  0  0
  -32.5481  -24.2314   20.8428 H   0  0  0  0  0  0
  -29.2322  -18.1665   20.5636 H   0  0  0  0  0  0
  -29.5330  -18.3284   22.2653 H   0  0  0  0  0  0
  -29.1020  -15.8997   20.9282 H   0  0  0  0  0  0
  -29.9260  -15.4849   22.4191 H   0  0  0  0  0  0
  -30.6351  -23.8555   18.6916 H   0  0  0  0  0  0
  -31.5298  -17.0552   22.0301 H   0  0  0  0  0  0
  -31.3996  -16.9607   20.4282 H   0  0  0  0  0  0
  1 25  1  0  0  0
  1 30  2  0  0  0
  1 90  1  0  0  0
  2  3  1  0  0  0
  2 25  1  0  0  0
  2 93  1  0  0  0
  2 94  1  0  0  0
  3  4  1  0  0  0
  3 95  1  0  0  0
  3 96  1  0  0  0
  4  5  1  0  0  0
  4 97  1  0  0  0
  4 98  1  0  0  0
  5  6  1  0  0  0
  5 26  1  0  0  0
  5 99  1  0  0  0
  6 25  1  0  0  0
  6100  1  0  0  0
  6101  1  0  0  0
  7  8  2  0  0  0
  7 26  1  0  0  0
  7 29  1  0  0  0
  8  9  1  0  0  0
  8 22  1  0  0  0
  9 10  1  0  0  0
  9 27  2  0  0  0
 10 11  2  0  0  0
 10 15  1  0  0  0
 11 12  1  0  0  0
 11102  1  0  0  0
 12 13  2  0  0  0
 12103  1  0  0  0
 13 14  1  0  0  0
 13 31  1  0  0  0
 14 15  2  0  0  0
 14104  1  0  0  0
 15105  1  0  0  0
 16 17  2  0  0  0
 16 21  1  0  0  0
 16 31  1  0  0  0
 17 18  1  0  0  0
 17106  1  0  0  0
 18 19  2  0  0  0
 18107  1  0  0  0
 19 20  1  0  0  0
 19 24  1  0  0  0
 20 21  2  0  0  0
 20108  1  0  0  0
 21 23  1  0  0  0
 22 28  1  0  0  0
 22 32  2  0  0  0
 26 27  1  0  0  0
 28109  1  0  0  0
 28110  1  0  0  0
 29111  1  0  0  0
 29112  1  0  0  0
 33 34  1  0  0  0
 33 66  1  0  0  0
 33 70  2  0  0  0
 34 36  1  0  0  0
 34 59  1  0  0  0
 34113  1  0  0  0
 35 44  2  0  0  0
 35 45  1  0  0  0
 35 68  1  0  0  0
 36 56  1  0  0  0
 36114  1  0  0  0
 37 39  1  0  0  0
 37 47  1  0  0  0
 37 66  1  0  0  0
 37115  1  0  0  0
 38 43  2  0  0  0
 38 46  1  0  0  0
 38 47  1  0  0  0
 39 64  1  0  0  0
 39 67  2  0  0  0
 40 52  1  0  0  0
 40 53  2  0  0  0
 40 58  1  0  0  0
 41116  1  0  0  0
 41117  1  0  0  0
 41118  1  0  0  0
 41 48  1  0  0  0
 42 43  1  0  0  0
 42 66  1  0  0  0
 42119  1  0  0  0
 42120  1  0  0  0
 43 44  1  0  0  0
 44121  1  0  0  0
 45 46  2  0  0  0
 45122  1  0  0  0
 46123  1  0  0  0
 47124  1  0  0  0
 47125  1  0  0  0
 48 56  1  0  0  0
 48 65  1  0  0  0
 48126  1  0  0  0
 49 50  1  0  0  0
 49 53  1  0  0  0
 49 64  1  0  0  0
 49127  1  0  0  0
 50 51  1  0  0  0
 50128  1  0  0  0
 50129  1  0  0  0
 51 52  1  0  0  0
 51130  1  0  0  0
 51131  1  0  0  0
 52132  1  0  0  0
 52133  1  0  0  0
 53 54  1  0  0  0
 54 55  2  0  0  0
 54134  1  0  0  0
 55 57  1  0  0  0
 55135  1  0  0  0
 56 69  2  0  0  0
 57 58  2  0  0  0
 57136  1  0  0  0
 58137  1  0  0  0
 59 60  1  0  0  0
 59 61  1  0  0  0
 59 62  1  0  0  0
 60138  1  0  0  0
 60139  1  0  0  0
 60140  1  0  0  0
 61141  1  0  0  0
 61142  1  0  0  0
 61143  1  0  0  0
 62144  1  0  0  0
 62145  1  0  0  0
 62146  1  0  0  0
 63 65  1  0  0  0
 63147  1  0  0  0
 63148  1  0  0  0
 63149  1  0  0  0
 64150  1  0  0  0
 65151  1  0  0  0
 68 84  1  0  0  0
 71 73  2  0  0  0
 71 74  1  0  0  0
 71152  1  0  0  0
 72 75  2  0  0  0
 72 76  1  0  0  0
 72153  1  0  0  0
 73 75  1  0  0  0
 73 78  1  0  0  0
 74 76  2  0  0  0
 74 89  1  0  0  0
 75 88  1  0  0  0
 76 86  1  0  0  0
 77 79  2  0  0  0
 77154  1  0  0  0
 77155  1  0  0  0
 78 80  2  0  0  0
 78156  1  0  0  0
 79 80  1  0  0  0
 79157  1  0  0  0
 80158  1  0  0  0
 81 82  1  0  0  0
 81 84  1  0  0  0
 81159  1  0  0  0
 81160  1  0  0  0
 82 85  1  0  0  0
 82161  1  0  0  0
 82162  1  0  0  0
 83 84  1  0  0  0
 83 91  1  0  0  0
 83163  1  0  0  0
 83164  1  0  0  0
 84165  1  0  0  0
 85 87  1  0  0  0
 85 91  1  0  0  0
 85166  1  0  0  0
 86167  1  0  0  0
 86168  1  0  0  0
 86169  1  0  0  0
 87170  1  0  0  0
 87171  1  0  0  0
 87172  1  0  0  0
 88173  1  0  0  0
 88174  1  0  0  0
 88 91  1  0  0  0
 89 92  1  0  0  0
 89175  1  0  0  0
 89176  1  0  0  0
 90 92  1  0  0  0
 90177  1  0  0  0
 90178  1  0  0  0
 91179  1  0  0  0
 92180  1  0  0  0
 92181  1  0  0  0
M  CHG  2  91   1  92   1
M  ISO  4   1 100  68 101  84 101  90 100
M  END
> <chiral flag>
0

> <version>
0

> <s_m_source_file>
/data/baiqing/PycharmProjects/Reinvent-master-3.2/result/LINK_invent/BTK/process_docking_weight1_custom_product_contain_oxygen_bond_distance_aromatic_linkinvent_7_9_3/rearranged_h_0040.sdf

> <i_m_source_file_index>
7

> <r_mmod_Potential_Energy-OPLS-2005>
-295.624206542969

> <r_mmod_Stretch_Energy-OPLS-2005>
51.5261192321777

> <r_mmod_Bend_Energy-OPLS-2005>
137.334243774414

> <r_mmod_Torsional_Energy-OPLS-2005>
276.906646728516

> <r_mmod_Improper_Torsional_Energy-OPLS-2005>
5.47259330749512

> <r_mmod_Van_der_Waal_Energy-OPLS-2005>
146.653610229492

> <r_mmod_Electrostatic_Energy-OPLS-2005>
-132.643478393555

> <r_mmod_Solvation_Energy-OPLS-2005>
-809.130493164062

> <b_mmod_Minimization_Converged-OPLS-2005>
0

> <r_mmod_RMS_Derivative-OPLS-2005>
4.6826229095459

$$$$
7
                    3D
 Structure written by MMmdl.
174183  0  0  1  0            999 V2000
  -30.5749  -14.6749   20.5240 C   0  0  0  0  0  0
  -30.4472  -12.4206   19.4603 C   0  0  0  0  0  0
  -29.5148  -12.5255   18.2309 C   0  0  0  0  0  0
  -28.0369  -12.3509   18.6387 C   0  0  0  0  0  0
  -27.6545  -13.2158   19.8687 C   0  0  2  0  0  0
  -28.6936  -13.0525   21.0006 C   0  0  0  0  0  0
  -25.2548  -13.8151   20.5625 C   0  0  0  0  0  0
  -24.1826  -13.0426   20.9178 C   0  0  0  0  0  0
  -24.6397  -11.6903   20.8741 C   0  0  0  0  0  0
  -23.9068  -10.4294   21.0412 C   0  0  0  0  0  0
  -24.3608   -9.4216   21.9202 C   0  0  0  0  0  0
  -23.6282   -8.2249   22.0772 C   0  0  0  0  0  0
  -22.4280   -8.0280   21.3542 C   0  0  0  0  0  0
  -21.9918   -9.0254   20.4641 C   0  0  0  0  0  0
  -22.7247  -10.2131   20.3047 C   0  0  0  0  0  0
  -21.6853   -6.0736   22.5278 C   0  0  0  0  0  0
  -21.4013   -6.5634   23.8211 C   0  0  0  0  0  0
  -21.3657   -5.6787   24.9175 C   0  0  0  0  0  0
  -21.6044   -4.3051   24.7225 C   0  0  0  0  0  0
  -21.8819   -3.8145   23.4342 C   0  0  0  0  0  0
  -21.9193   -4.6964   22.3397 C   0  0  0  0  0  0
  -22.7849  -13.5230   21.1827 C   0  0  0  0  0  0
  -22.1665   -4.2150   21.0976 F   0  0  0  0  0  0
  -21.5628   -3.4534   25.7736 F   0  0  0  0  0  0
  -30.0076  -13.4265   20.4511 N   0  0  0  0  0  0
  -26.2984  -12.9337   20.3305 N   0  0  0  0  0  0
  -25.9323  -11.6498   20.5756 N   0  0  0  0  0  0
  -22.0459  -12.8206   22.0345 N   0  0  0  0  0  0
  -25.4227  -15.1861   20.3936 N   0  0  0  0  0  0
  -31.7163  -14.8773   20.0952 O   0  0  0  0  0  0
  -21.6643   -6.8877   21.4238 O   0  0  0  0  0  0
  -22.3554  -14.5553   20.6700 O   0  0  0  0  0  0
  -24.6253  -31.8623   23.2036 C   0  0  0  0  0  0
  -25.9104  -32.4794   23.8367 C   0  0  1  0  0  0
  -27.2212  -27.3023   20.1479 C   0  0  0  0  0  0
  -25.5936  -33.8604   24.2288 N   0  0  0  0  0  0
  -23.4217  -30.4826   21.5458 C   0  0  2  0  0  0
  -24.8707  -28.9272   20.1260 C   0  0  0  0  0  0
  -22.7477  -29.4635   22.4957 C   0  0  0  0  0  0
  -18.0310  -28.1396   22.8530 C   0  0  0  0  0  0
  -24.1484  -36.7266   23.2634 C   0  0  0  0  0  0
  -25.9630  -30.7811   21.3855 C   0  0  0  0  0  0
  -26.0349  -29.4000   20.7465 C   0  0  0  0  0  0
  -27.2138  -28.5963   20.7566 C   0  0  0  0  0  0
  -26.0491  -26.8975   19.4785 C   0  0  0  0  0  0
  -24.8760  -27.6776   19.4880 C   0  0  0  0  0  0
  -23.6419  -29.8131   20.1640 C   0  0  0  0  0  0
  -25.4125  -36.3088   24.0327 C   0  0  1  0  0  0
  -20.5910  -28.3681   23.1313 C   0  0  2  0  0  0
  -20.6796  -26.9429   22.5380 C   0  0  0  0  0  0
  -19.5754  -26.6465   21.5190 C   0  0  0  0  0  0
  -18.1944  -26.7966   22.1623 C   0  0  0  0  0  0
  -19.1559  -28.8856   23.2926 C   0  0  0  0  0  0
  -18.9472  -30.1454   23.8946 C   0  0  0  0  0  0
  -17.6471  -30.6597   24.0608 C   0  0  0  0  0  0
  -25.9072  -34.9460   23.5115 C   0  0  0  0  0  0
  -16.5368  -29.9102   23.6351 C   0  0  0  0  0  0
  -16.7293  -28.6521   23.0380 C   0  0  0  0  0  0
  -26.4484  -31.6599   25.0727 C   0  0  0  0  0  0
  -25.3688  -31.3755   26.1425 C   0  0  0  0  0  0
  -27.0346  -30.3037   24.6159 C   0  0  0  0  0  0
  -27.6028  -32.4329   25.7517 C   0  0  0  0  0  0
  -27.5579  -37.1828   24.8464 C   0  0  0  0  0  0
  -21.4190  -29.3062   22.3711 N   0  0  0  0  0  0
  -26.4290  -37.3791   23.9405 N   0  0  0  0  0  0
  -24.6881  -31.0612   22.1003 N   0  0  0  0  0  0
  -23.4197  -28.8171   23.3032 O   0  0  0  0  0  0
  -28.3632  -26.5112   19.9792 O   0  0  0  0  0  0
  -26.5633  -34.8922   22.4671 O   0  0  0  0  0  0
  -23.5412  -32.1439   23.7350 O   0  0  0  0  0  0
  -28.4736  -19.2761   21.3131 C   0  0  0  0  0  0
  -30.4257  -17.8842   19.8789 C   0  0  0  0  0  0
  -29.2022  -20.0274   20.3524 C   0  0  0  0  0  0
  -28.6972  -17.8819   21.5472 C   0  0  0  0  0  0
  -30.2078  -19.2847   19.6513 C   0  0  0  0  0  0
  -29.6679  -17.1310   20.8141 C   0  0  0  0  0  0
  -28.0061  -23.9558   20.7773 C   0  0  0  0  0  0
  -24.4816  -22.7954   20.9571 C   0  0  0  0  0  0
  -26.6562  -23.8935   20.8255 C   0  0  0  0  0  0
  -25.8203  -22.7206   21.0109 C   0  0  0  0  0  0
  -30.3846  -25.1219   22.7733 C   0  0  0  0  0  0
  -30.3167  -23.5851   22.8743 C   0  0  0  0  0  0
  -29.1131  -25.7857   22.2195 C   0  0  0  0  0  0
  -30.2470  -22.8338   21.5223 C   0  0  0  0  0  0
  -28.7824  -25.3361   20.7889 C   0  0  2  0  0  0
  -27.8552  -17.1942   22.6102 C   0  0  0  0  0  0
  -31.0503  -19.9600   18.5830 C   0  0  0  0  0  0
  -28.7926  -21.5254   19.9802 C   0  0  0  0  0  0
  -29.7612  -15.6728   21.0106 N   0  0  0  0  0  0
  -28.8591  -22.6499   21.0120 N   0  3  2  0  0  0
  -31.4860  -12.5707   19.1598 H   0  0  0  0  0  0
  -30.4023  -11.4204   19.8931 H   0  0  0  0  0  0
  -29.7886  -11.7779   17.4854 H   0  0  0  0  0  0
  -29.6492  -13.4965   17.7503 H   0  0  0  0  0  0
  -27.8819  -11.2958   18.8683 H   0  0  0  0  0  0
  -27.3819  -12.5774   17.7967 H   0  0  0  0  0  0
  -27.6767  -14.2552   19.5387 H   0  0  0  0  0  0
  -28.7145  -12.0193   21.3507 H   0  0  0  0  0  0
  -28.4221  -13.6510   21.8710 H   0  0  0  0  0  0
  -25.2746   -9.5698   22.4783 H   0  0  0  0  0  0
  -23.9985   -7.4649   22.7505 H   0  0  0  0  0  0
  -21.0855   -8.8764   19.8938 H   0  0  0  0  0  0
  -22.3718  -10.9659   19.6135 H   0  0  0  0  0  0
  -21.2004   -7.6140   23.9712 H   0  0  0  0  0  0
  -21.1474   -6.0520   25.9077 H   0  0  0  0  0  0
  -22.0595   -2.7611   23.2842 H   0  0  0  0  0  0
  -22.4026  -11.9816   22.4676 H   0  0  0  0  0  0
  -21.1059  -13.1227   22.2498 H   0  0  0  0  0  0
  -24.6413  -15.8278   20.4664 H   0  0  0  0  0  0
  -26.2491  -15.6123   19.9940 H   0  0  0  0  0  0
  -26.7172  -32.5473   23.1118 H   0  0  0  0  0  0
  -25.0093  -33.9756   25.0436 H   0  0  0  0  0  0
  -22.7167  -31.3030   21.4009 H   0  0  0  0  0  0
  -23.3769  -35.9573   23.3293 H   0  0  0  0  0  0
  -24.3566  -36.8876   22.2043 H   0  0  0  0  0  0
  -23.7197  -37.6459   23.6645 H   0  0  0  0  0  0
  -26.0993  -31.5337   20.6079 H   0  0  0  0  0  0
  -26.8420  -30.8354   22.0161 H   0  0  0  0  0  0
  -28.1135  -28.9690   21.2263 H   0  0  0  0  0  0
  -26.0451  -25.9673   18.9305 H   0  0  0  0  0  0
  -23.9925  -27.3179   18.9802 H   0  0  0  0  0  0
  -23.7668  -30.5856   19.4044 H   0  0  0  0  0  0
  -22.7631  -29.2417   19.8610 H   0  0  0  0  0  0
  -25.1304  -36.1949   25.0820 H   0  0  0  0  0  0
  -21.0029  -28.3212   24.1417 H   0  0  0  0  0  0
  -20.5745  -26.2256   23.3533 H   0  0  0  0  0  0
  -21.6651  -26.7513   22.1111 H   0  0  0  0  0  0
  -19.6908  -25.6415   21.1117 H   0  0  0  0  0  0
  -19.6670  -27.3363   20.6785 H   0  0  0  0  0  0
  -17.4218  -26.6784   21.4005 H   0  0  0  0  0  0
  -18.0330  -26.0075   22.8980 H   0  0  0  0  0  0
  -19.7942  -30.7283   24.2313 H   0  0  0  0  0  0
  -17.5028  -31.6267   24.5227 H   0  0  0  0  0  0
  -15.5367  -30.3025   23.7646 H   0  0  0  0  0  0
  -15.8701  -28.0854   22.7064 H   0  0  0  0  0  0
  -24.5852  -30.7126   25.7735 H   0  0  0  0  0  0
  -24.8886  -32.2936   26.4825 H   0  0  0  0  0  0
  -25.7972  -30.8937   27.0216 H   0  0  0  0  0  0
  -26.2959  -29.6818   24.1087 H   0  0  0  0  0  0
  -27.3989  -29.7254   25.4658 H   0  0  0  0  0  0
  -27.8836  -30.4376   23.9449 H   0  0  0  0  0  0
  -27.2636  -33.3646   26.2065 H   0  0  0  0  0  0
  -28.3870  -32.6854   25.0364 H   0  0  0  0  0  0
  -28.0643  -31.8458   26.5463 H   0  0  0  0  0  0
  -28.2587  -38.0138   24.7541 H   0  0  0  0  0  0
  -28.1085  -36.2672   24.6262 H   0  0  0  0  0  0
  -27.2289  -37.1423   25.8862 H   0  0  0  0  0  0
  -20.9347  -29.8789   21.6947 H   0  0  0  0  0  0
  -26.0164  -38.2863   24.1401 H   0  0  0  0  0  0
  -27.6886  -19.7721   21.8671 H   0  0  0  0  0  0
  -31.1713  -17.3701   19.2886 H   0  0  0  0  0  0
  -23.8679  -21.9184   21.1067 H   0  0  0  0  0  0
  -23.9719  -23.7300   20.7614 H   0  0  0  0  0  0
  -26.1298  -24.8303   20.8179 H   0  0  0  0  0  0
  -26.2471  -21.7511   21.2163 H   0  0  0  0  0  0
  -31.2479  -25.4185   22.1727 H   0  0  0  0  0  0
  -30.5729  -25.5301   23.7681 H   0  0  0  0  0  0
  -29.4987  -23.2800   23.5290 H   0  0  0  0  0  0
  -31.2264  -23.2586   23.3813 H   0  0  0  0  0  0
  -29.2731  -26.8640   22.2336 H   0  0  0  0  0  0
  -28.2640  -25.6013   22.8796 H   0  0  0  0  0  0
  -30.6718  -21.8442   21.6954 H   0  0  0  0  0  0
  -30.8929  -23.2901   20.7717 H   0  0  0  0  0  0
  -29.7280  -25.1279   20.2902 H   0  0  0  0  0  0
  -27.0822  -17.8554   23.0031 H   0  0  0  0  0  0
  -28.4849  -16.8908   23.4473 H   0  0  0  0  0  0
  -27.3578  -16.3090   22.2136 H   0  0  0  0  0  0
  -31.8517  -19.3078   18.2349 H   0  0  0  0  0  0
  -31.5140  -20.8679   18.9696 H   0  0  0  0  0  0
  -30.4384  -20.2194   17.7183 H   0  0  0  0  0  0
  -27.7729  -21.4620   19.6043 H   0  0  0  0  0  0
  -29.3566  -21.8629   19.1122 H   0  0  0  0  0  0
  -28.9563  -15.2874   21.4784 H   0  0  0  0  0  0
  -28.4197  -22.2077   21.8032 H   0  0  0  0  0  0
  1 25  1  0  0  0
  1 30  2  0  0  0
  1 89  1  0  0  0
  2  3  1  0  0  0
  2 25  1  0  0  0
  2 91  1  0  0  0
  2 92  1  0  0  0
  3  4  1  0  0  0
  3 93  1  0  0  0
  3 94  1  0  0  0
  4  5  1  0  0  0
  4 95  1  0  0  0
  4 96  1  0  0  0
  5  6  1  0  0  0
  5 26  1  0  0  0
  5 97  1  0  0  0
  6 25  1  0  0  0
  6 98  1  0  0  0
  6 99  1  0  0  0
  7  8  2  0  0  0
  7 26  1  0  0  0
  7 29  1  0  0  0
  8  9  1  0  0  0
  8 22  1  0  0  0
  9 10  1  0  0  0
  9 27  2  0  0  0
 10 11  2  0  0  0
 10 15  1  0  0  0
 11 12  1  0  0  0
 11100  1  0  0  0
 12 13  2  0  0  0
 12101  1  0  0  0
 13 14  1  0  0  0
 13 31  1  0  0  0
 14 15  2  0  0  0
 14102  1  0  0  0
 15103  1  0  0  0
 16 17  2  0  0  0
 16 21  1  0  0  0
 16 31  1  0  0  0
 17 18  1  0  0  0
 17104  1  0  0  0
 18 19  2  0  0  0
 18105  1  0  0  0
 19 20  1  0  0  0
 19 24  1  0  0  0
 20 21  2  0  0  0
 20106  1  0  0  0
 21 23  1  0  0  0
 22 28  1  0  0  0
 22 32  2  0  0  0
 26 27  1  0  0  0
 28107  1  0  0  0
 28108  1  0  0  0
 29109  1  0  0  0
 29110  1  0  0  0
 33 34  1  0  0  0
 33 66  1  0  0  0
 33 70  2  0  0  0
 34 36  1  0  0  0
 34 59  1  0  0  0
 34111  1  0  0  0
 35 44  2  0  0  0
 35 45  1  0  0  0
 35 68  1  0  0  0
 36 56  1  0  0  0
 36112  1  0  0  0
 37 39  1  0  0  0
 37 47  1  0  0  0
 37 66  1  0  0  0
 37113  1  0  0  0
 38 43  2  0  0  0
 38 46  1  0  0  0
 38 47  1  0  0  0
 39 64  1  0  0  0
 39 67  2  0  0  0
 40 52  1  0  0  0
 40 53  2  0  0  0
 40 58  1  0  0  0
 41114  1  0  0  0
 41115  1  0  0  0
 41116  1  0  0  0
 41 48  1  0  0  0
 42 43  1  0  0  0
 42 66  1  0  0  0
 42117  1  0  0  0
 42118  1  0  0  0
 43 44  1  0  0  0
 44119  1  0  0  0
 45 46  2  0  0  0
 45120  1  0  0  0
 46121  1  0  0  0
 47122  1  0  0  0
 47123  1  0  0  0
 48 56  1  0  0  0
 48 65  1  0  0  0
 48124  1  0  0  0
 49 50  1  0  0  0
 49 53  1  0  0  0
 49 64  1  0  0  0
 49125  1  0  0  0
 50 51  1  0  0  0
 50126  1  0  0  0
 50127  1  0  0  0
 51 52  1  0  0  0
 51128  1  0  0  0
 51129  1  0  0  0
 52130  1  0  0  0
 52131  1  0  0  0
 53 54  1  0  0  0
 54 55  2  0  0  0
 54132  1  0  0  0
 55 57  1  0  0  0
 55133  1  0  0  0
 56 69  2  0  0  0
 57 58  2  0  0  0
 57134  1  0  0  0
 58135  1  0  0  0
 59 60  1  0  0  0
 59 61  1  0  0  0
 59 62  1  0  0  0
 60136  1  0  0  0
 60137  1  0  0  0
 60138  1  0  0  0
 61139  1  0  0  0
 61140  1  0  0  0
 61141  1  0  0  0
 62142  1  0  0  0
 62143  1  0  0  0
 62144  1  0  0  0
 63 65  1  0  0  0
 63145  1  0  0  0
 63146  1  0  0  0
 63147  1  0  0  0
 64148  1  0  0  0
 65149  1  0  0  0
 68 85  1  0  0  0
 71 73  2  0  0  0
 71 74  1  0  0  0
 71150  1  0  0  0
 72 75  2  0  0  0
 72 76  1  0  0  0
 72151  1  0  0  0
 73 75  1  0  0  0
 73 88  1  0  0  0
 74 76  2  0  0  0
 74 86  1  0  0  0
 75 87  1  0  0  0
 76 89  1  0  0  0
 77 79  2  0  0  0
 77 85  1  0  0  0
 77 90  1  0  0  0
 78 80  2  0  0  0
 78152  1  0  0  0
 78153  1  0  0  0
 79 80  1  0  0  0
 79154  1  0  0  0
 80155  1  0  0  0
 81 82  1  0  0  0
 81 83  1  0  0  0
 81156  1  0  0  0
 81157  1  0  0  0
 82 84  1  0  0  0
 82158  1  0  0  0
 82159  1  0  0  0
 83 85  1  0  0  0
 83160  1  0  0  0
 83161  1  0  0  0
 84 90  1  0  0  0
 84162  1  0  0  0
 84163  1  0  0  0
 85164  1  0  0  0
 86165  1  0  0  0
 86166  1  0  0  0
 86167  1  0  0  0
 87168  1  0  0  0
 87169  1  0  0  0
 87170  1  0  0  0
 88171  1  0  0  0
 88172  1  0  0  0
 88 90  1  0  0  0
 89173  1  0  0  0
 90174  1  0  0  0
M  CHG  1  90   1
M  ISO  4   1 100  68 101  85 101  89 100
M  END
> <chiral flag>
0

> <version>
0

> <s_m_source_file>
/data/baiqing/PycharmProjects/Reinvent-master-3.2/result/LINK_invent/BTK/process_docking_weight1_custom_product_contain_oxygen_bond_distance_aromatic_linkinvent_7_9_3/rearranged_h_0040.sdf

> <i_m_source_file_index>
8

> <r_mmod_Potential_Energy-OPLS-2005>
60.3972778320312

> <r_mmod_Stretch_Energy-OPLS-2005>
102.948028564453

> <r_mmod_Bend_Energy-OPLS-2005>
205.965286254883

> <r_mmod_Torsional_Energy-OPLS-2005>
257.499633789062

> <r_mmod_Improper_Torsional_Energy-OPLS-2005>
6.07974338531494

> <r_mmod_Van_der_Waal_Energy-OPLS-2005>
135.755401611328

> <r_mmod_Electrostatic_Energy-OPLS-2005>
-286.128356933594

> <r_mmod_Solvation_Energy-OPLS-2005>
-414.681640625

> <b_mmod_Minimization_Converged-OPLS-2005>
0

> <r_mmod_RMS_Derivative-OPLS-2005>
2.56257247924805

$$$$
8
                    3D
 Structure written by MMmdl.
153161  0  0  1  0            999 V2000
  -30.6261  -14.6124   20.5205 C   0  0  0  0  0  0
  -30.4414  -12.3782   19.4484 C   0  0  0  0  0  0
  -29.5088  -12.5004   18.2211 C   0  0  0  0  0  0
  -28.0326  -12.3360   18.6316 C   0  0  0  0  0  0
  -27.6563  -13.2098   19.8585 C   0  0  2  0  0  0
  -28.6968  -13.0476   20.9900 C   0  0  0  0  0  0
  -25.2591  -13.8172   20.5635 C   0  0  0  0  0  0
  -24.1852  -13.0442   20.9152 C   0  0  0  0  0  0
  -24.6406  -11.6902   20.8709 C   0  0  0  0  0  0
  -23.9074  -10.4287   21.0396 C   0  0  0  0  0  0
  -24.3621   -9.4201   21.9177 C   0  0  0  0  0  0
  -23.6285   -8.2250   22.0765 C   0  0  0  0  0  0
  -22.4267   -8.0290   21.3548 C   0  0  0  0  0  0
  -21.9894   -9.0276   20.4658 C   0  0  0  0  0  0
  -22.7236  -10.2139   20.3054 C   0  0  0  0  0  0
  -21.6863   -6.0731   22.5275 C   0  0  0  0  0  0
  -21.4015   -6.5625   23.8211 C   0  0  0  0  0  0
  -21.3655   -5.6771   24.9168 C   0  0  0  0  0  0
  -21.6044   -4.3039   24.7223 C   0  0  0  0  0  0
  -21.8824   -3.8133   23.4339 C   0  0  0  0  0  0
  -21.9193   -4.6952   22.3392 C   0  0  0  0  0  0
  -22.7879  -13.5257   21.1803 C   0  0  0  0  0  0
  -22.1663   -4.2133   21.0975 F   0  0  0  0  0  0
  -21.5626   -3.4521   25.7738 F   0  0  0  0  0  0
  -30.0174  -13.3897   20.4358 N   0  0  0  0  0  0
  -26.3010  -12.9335   20.3256 N   0  0  0  0  0  0
  -25.9330  -11.6495   20.5703 N   0  0  0  0  0  0
  -22.0520  -12.8289   22.0384 N   0  0  0  0  0  0
  -25.4334  -15.1894   20.4090 N   0  0  0  0  0  0
  -31.7734  -14.7972   20.0999 O   0  0  0  0  0  0
  -21.6638   -6.8887   21.4245 O   0  0  0  0  0  0
  -22.3575  -14.5567   20.6645 O   0  0  0  0  0  0
  -24.6261  -31.8593   23.2022 C   0  0  0  0  0  0
  -25.9108  -32.4771   23.8346 C   0  0  1  0  0  0
  -27.2238  -27.3248   20.1078 C   0  0  0  0  0  0
  -25.5923  -33.8565   24.2274 N   0  0  0  0  0  0
  -23.4179  -30.4846   21.5449 C   0  0  2  0  0  0
  -24.8644  -28.9454   20.1078 C   0  0  0  0  0  0
  -22.7459  -29.4619   22.4930 C   0  0  0  0  0  0
  -18.0278  -28.1359   22.8487 C   0  0  0  0  0  0
  -24.1487  -36.7290   23.2640 C   0  0  0  0  0  0
  -25.9594  -30.7937   21.3726 C   0  0  0  0  0  0
  -26.0343  -29.4232   20.7117 C   0  0  0  0  0  0
  -27.2179  -28.6260   20.6998 C   0  0  0  0  0  0
  -26.0279  -26.9029   19.4785 C   0  0  0  0  0  0
  -24.8649  -27.6924   19.4796 C   0  0  0  0  0  0
  -23.6301  -29.8214   20.1599 C   0  0  0  0  0  0
  -25.4111  -36.3075   24.0333 C   0  0  1  0  0  0
  -20.5877  -28.3657   23.1280 C   0  0  2  0  0  0
  -20.6752  -26.9377   22.5397 C   0  0  0  0  0  0
  -19.5739  -26.6370   21.5181 C   0  0  0  0  0  0
  -18.1922  -26.7905   22.1608 C   0  0  0  0  0  0
  -19.1532  -28.8823   23.2884 C   0  0  0  0  0  0
  -18.9453  -30.1426   23.8908 C   0  0  0  0  0  0
  -17.6457  -30.6565   24.0551 C   0  0  0  0  0  0
  -25.9044  -34.9448   23.5105 C   0  0  0  0  0  0
  -16.5347  -29.9064   23.6322 C   0  0  0  0  0  0
  -16.7268  -28.6469   23.0361 C   0  0  0  0  0  0
  -26.4511  -31.6580   25.0707 C   0  0  0  0  0  0
  -25.3766  -31.3712   26.1457 C   0  0  0  0  0  0
  -27.0332  -30.3000   24.6143 C   0  0  0  0  0  0
  -27.6086  -32.4313   25.7455 C   0  0  0  0  0  0
  -27.5585  -37.1783   24.8464 C   0  0  0  0  0  0
  -21.4171  -29.3033   22.3680 N   0  0  0  0  0  0
  -26.4292  -37.3772   23.9420 N   0  0  0  0  0  0
  -24.6859  -31.0627   22.0967 N   0  0  0  0  0  0
  -23.4190  -28.8148   23.2996 O   0  0  0  0  0  0
  -28.3418  -26.4751   20.1544 O   0  0  0  0  0  0
  -26.5604  -34.8922   22.4665 O   0  0  0  0  0  0
  -23.5425  -32.1381   23.7367 O   0  0  0  0  0  0
  -29.6566  -19.1394   19.4437 C   0  0  0  0  0  0
  -30.1997  -17.9302   21.9010 C   0  0  0  0  0  0
  -29.9256  -20.0007   20.5438 C   0  0  0  0  0  0
  -29.9577  -17.0744   20.7966 C   0  0  0  0  0  0
  -29.6559  -17.7149   19.5617 C   0  0  0  0  0  0
  -30.1911  -19.3519   21.7841 C   0  0  0  0  0  0
  -30.1159  -21.5541   20.3451 C   0  0  0  0  0  0
  -29.2885  -23.9984   20.3439 C   0  0  0  0  0  0
  -28.1053  -25.0148   20.0427 C   0  0  0  0  0  0
  -29.8497  -15.6326   20.9886 N   0  0  0  0  0  0
  -28.9426  -22.5087   20.3707 N   0  3  0  0  0  0
  -29.2408  -16.7690   18.1749 Cl  0  0  0  0  0  0
  -30.5412  -20.2820   23.1980 Cl  0  0  0  0  0  0
  -31.4831  -12.5052   19.1471 H   0  0  0  0  0  0
  -30.3786  -11.3788   19.8833 H   0  0  0  0  0  0
  -29.7694  -11.7507   17.4742 H   0  0  0  0  0  0
  -29.6495  -13.4722   17.7419 H   0  0  0  0  0  0
  -27.8718  -11.2825   18.8663 H   0  0  0  0  0  0
  -27.3803  -12.5617   17.7868 H   0  0  0  0  0  0
  -27.6813  -14.2458   19.5191 H   0  0  0  0  0  0
  -28.7014  -12.0186   21.3525 H   0  0  0  0  0  0
  -28.4373  -13.6629   21.8531 H   0  0  0  0  0  0
  -25.2779   -9.5660   22.4738 H   0  0  0  0  0  0
  -23.9977   -7.4641   22.7492 H   0  0  0  0  0  0
  -21.0810   -8.8818   19.8976 H   0  0  0  0  0  0
  -22.3718  -10.9687   19.6154 H   0  0  0  0  0  0
  -21.2017   -7.6135   23.9718 H   0  0  0  0  0  0
  -21.1468   -6.0498   25.9072 H   0  0  0  0  0  0
  -22.0608   -2.7593   23.2858 H   0  0  0  0  0  0
  -22.4129  -11.9942   22.4768 H   0  0  0  0  0  0
  -21.1163  -13.1367   22.2614 H   0  0  0  0  0  0
  -24.6697  -15.8462   20.5325 H   0  0  0  0  0  0
  -26.2820  -15.6256   20.0723 H   0  0  0  0  0  0
  -26.7162  -32.5448   23.1077 H   0  0  0  0  0  0
  -25.0074  -33.9697   25.0422 H   0  0  0  0  0  0
  -22.7124  -31.3057   21.4032 H   0  0  0  0  0  0
  -23.3753  -35.9619   23.3290 H   0  0  0  0  0  0
  -24.3584  -36.8917   22.2058 H   0  0  0  0  0  0
  -23.7230  -37.6487   23.6662 H   0  0  0  0  0  0
  -26.0947  -31.5611   20.6091 H   0  0  0  0  0  0
  -26.8386  -30.8375   22.0034 H   0  0  0  0  0  0
  -28.1167  -28.9911   21.1776 H   0  0  0  0  0  0
  -25.9539  -25.9506   18.9762 H   0  0  0  0  0  0
  -23.9717  -27.3274   18.9911 H   0  0  0  0  0  0
  -23.7397  -30.5967   19.4012 H   0  0  0  0  0  0
  -22.7521  -29.2452   19.8615 H   0  0  0  0  0  0
  -25.1286  -36.1925   25.0824 H   0  0  0  0  0  0
  -20.9977  -28.3215   24.1399 H   0  0  0  0  0  0
  -20.5594  -26.2261   23.3587 H   0  0  0  0  0  0
  -21.6628  -26.7365   22.1228 H   0  0  0  0  0  0
  -19.6894  -25.6282   21.1205 H   0  0  0  0  0  0
  -19.6684  -27.3181   20.6713 H   0  0  0  0  0  0
  -17.4173  -26.6632   21.4030 H   0  0  0  0  0  0
  -18.0355  -26.0039   22.9003 H   0  0  0  0  0  0
  -19.7929  -30.7226   24.2298 H   0  0  0  0  0  0
  -17.5010  -31.6257   24.5135 H   0  0  0  0  0  0
  -15.5348  -30.2968   23.7644 H   0  0  0  0  0  0
  -15.8661  -28.0782   22.7106 H   0  0  0  0  0  0
  -24.5906  -30.7097   25.7792 H   0  0  0  0  0  0
  -24.9009  -32.2879   26.4958 H   0  0  0  0  0  0
  -25.8128  -30.8829   27.0180 H   0  0  0  0  0  0
  -26.2864  -29.6747   24.1226 H   0  0  0  0  0  0
  -27.4087  -29.7279   25.4637 H   0  0  0  0  0  0
  -27.8731  -30.4290   23.9310 H   0  0  0  0  0  0
  -27.2697  -33.3597   26.2077 H   0  0  0  0  0  0
  -28.3861  -32.6902   25.0248 H   0  0  0  0  0  0
  -28.0792  -31.8405   26.5326 H   0  0  0  0  0  0
  -28.2597  -38.0084   24.7523 H   0  0  0  0  0  0
  -28.1079  -36.2617   24.6265 H   0  0  0  0  0  0
  -27.2307  -37.1406   25.8866 H   0  0  0  0  0  0
  -20.9313  -29.8793   21.6941 H   0  0  0  0  0  0
  -26.0174  -38.2845   24.1439 H   0  0  0  0  0  0
  -29.4650  -19.5714   18.4721 H   0  0  0  0  0  0
  -30.3992  -17.4929   22.8688 H   0  0  0  0  0  0
  -30.6062  -21.6845   19.3803 H   0  0  0  0  0  0
  -30.8491  -21.9060   21.0709 H   0  0  0  0  0  0
  -29.7323  -24.2518   21.3070 H   0  0  0  0  0  0
  -30.0691  -24.1611   19.5996 H   0  0  0  0  0  0
  -27.2761  -24.7627   20.7062 H   0  0  0  0  0  0
  -27.7682  -24.8032   19.0272 H   0  0  0  0  0  0
  -28.9682  -15.3211   21.3670 H   0  0  0  0  0  0
  -28.3973  -22.3203   21.1977 H   0  0  0  0  0  0
  -28.3639  -22.2831   19.5769 H   0  0  0  0  0  0
  1 25  1  0  0  0
  1 30  2  0  0  0
  1 80  1  0  0  0
  2  3  1  0  0  0
  2 25  1  0  0  0
  2 84  1  0  0  0
  2 85  1  0  0  0
  3  4  1  0  0  0
  3 86  1  0  0  0
  3 87  1  0  0  0
  4  5  1  0  0  0
  4 88  1  0  0  0
  4 89  1  0  0  0
  5  6  1  0  0  0
  5 26  1  0  0  0
  5 90  1  0  0  0
  6 25  1  0  0  0
  6 91  1  0  0  0
  6 92  1  0  0  0
  7  8  2  0  0  0
  7 26  1  0  0  0
  7 29  1  0  0  0
  8  9  1  0  0  0
  8 22  1  0  0  0
  9 10  1  0  0  0
  9 27  2  0  0  0
 10 11  2  0  0  0
 10 15  1  0  0  0
 11 12  1  0  0  0
 11 93  1  0  0  0
 12 13  2  0  0  0
 12 94  1  0  0  0
 13 14  1  0  0  0
 13 31  1  0  0  0
 14 15  2  0  0  0
 14 95  1  0  0  0
 15 96  1  0  0  0
 16 17  2  0  0  0
 16 21  1  0  0  0
 16 31  1  0  0  0
 17 18  1  0  0  0
 17 97  1  0  0  0
 18 19  2  0  0  0
 18 98  1  0  0  0
 19 20  1  0  0  0
 19 24  1  0  0  0
 20 21  2  0  0  0
 20 99  1  0  0  0
 21 23  1  0  0  0
 22 28  1  0  0  0
 22 32  2  0  0  0
 26 27  1  0  0  0
 28100  1  0  0  0
 28101  1  0  0  0
 29102  1  0  0  0
 29103  1  0  0  0
 33 34  1  0  0  0
 33 66  1  0  0  0
 33 70  2  0  0  0
 34 36  1  0  0  0
 34 59  1  0  0  0
 34104  1  0  0  0
 35 44  2  0  0  0
 35 45  1  0  0  0
 35 68  1  0  0  0
 36 56  1  0  0  0
 36105  1  0  0  0
 37 39  1  0  0  0
 37 47  1  0  0  0
 37 66  1  0  0  0
 37106  1  0  0  0
 38 43  2  0  0  0
 38 46  1  0  0  0
 38 47  1  0  0  0
 39 64  1  0  0  0
 39 67  2  0  0  0
 40 52  1  0  0  0
 40 53  2  0  0  0
 40 58  1  0  0  0
 41107  1  0  0  0
 41108  1  0  0  0
 41109  1  0  0  0
 41 48  1  0  0  0
 42 43  1  0  0  0
 42 66  1  0  0  0
 42110  1  0  0  0
 42111  1  0  0  0
 43 44  1  0  0  0
 44112  1  0  0  0
 45 46  2  0  0  0
 45113  1  0  0  0
 46114  1  0  0  0
 47115  1  0  0  0
 47116  1  0  0  0
 48 56  1  0  0  0
 48 65  1  0  0  0
 48117  1  0  0  0
 49 50  1  0  0  0
 49 53  1  0  0  0
 49 64  1  0  0  0
 49118  1  0  0  0
 50 51  1  0  0  0
 50119  1  0  0  0
 50120  1  0  0  0
 51 52  1  0  0  0
 51121  1  0  0  0
 51122  1  0  0  0
 52123  1  0  0  0
 52124  1  0  0  0
 53 54  1  0  0  0
 54 55  2  0  0  0
 54125  1  0  0  0
 55 57  1  0  0  0
 55126  1  0  0  0
 56 69  2  0  0  0
 57 58  2  0  0  0
 57127  1  0  0  0
 58128  1  0  0  0
 59 60  1  0  0  0
 59 61  1  0  0  0
 59 62  1  0  0  0
 60129  1  0  0  0
 60130  1  0  0  0
 60131  1  0  0  0
 61132  1  0  0  0
 61133  1  0  0  0
 61134  1  0  0  0
 62135  1  0  0  0
 62136  1  0  0  0
 62137  1  0  0  0
 63 65  1  0  0  0
 63138  1  0  0  0
 63139  1  0  0  0
 63140  1  0  0  0
 64141  1  0  0  0
 65142  1  0  0  0
 68 79  1  0  0  0
 71 73  2  0  0  0
 71 75  1  0  0  0
 71143  1  0  0  0
 72 74  1  0  0  0
 72 76  2  0  0  0
 72144  1  0  0  0
 73 76  1  0  0  0
 73 77  1  0  0  0
 74 75  2  0  0  0
 74 80  1  0  0  0
 75 82  1  0  0  0
 76 83  1  0  0  0
 77 81  1  0  0  0
 77145  1  0  0  0
 77146  1  0  0  0
 78 79  1  0  0  0
 78 81  1  0  0  0
 78147  1  0  0  0
 78148  1  0  0  0
 79149  1  0  0  0
 79150  1  0  0  0
 80151  1  0  0  0
 81152  1  0  0  0
 81153  1  0  0  0
M  CHG  1  81   1
M  ISO  4   1 100  68 101  79 101  80 100
M  END
> <chiral flag>
0

> <version>
0

> <s_m_source_file>
/data/baiqing/PycharmProjects/Reinvent-master-3.2/result/LINK_invent/BTK/process_docking_weight1_custom_product_contain_oxygen_bond_distance_aromatic_linkinvent_7_9_3/rearranged_h_0040.sdf

> <i_m_source_file_index>
9

> <r_mmod_Potential_Energy-OPLS-2005>
-169.071838378906

> <r_mmod_Stretch_Energy-OPLS-2005>
76.073486328125

> <r_mmod_Bend_Energy-OPLS-2005>
127.21565246582

> <r_mmod_Torsional_Energy-OPLS-2005>
230.795501708984

> <r_mmod_Improper_Torsional_Energy-OPLS-2005>
4.89556264877319

> <r_mmod_Van_der_Waal_Energy-OPLS-2005>
138.870086669922

> <r_mmod_Electrostatic_Energy-OPLS-2005>
-306.691284179688

> <r_mmod_Solvation_Energy-OPLS-2005>
-483.431243896484

> <b_mmod_Minimization_Converged-OPLS-2005>
0

> <r_mmod_RMS_Derivative-OPLS-2005>
2.22549605369568

$$$$
9
                    3D
 Structure written by MMmdl.
164173  0  0  1  0            999 V2000
  -30.5958  -14.7554   20.5102 C   0  0  0  0  0  0
  -30.4304  -12.4692   19.4826 C   0  0  0  0  0  0
  -29.5140  -12.5305   18.2408 C   0  0  0  0  0  0
  -28.0340  -12.3572   18.6372 C   0  0  0  0  0  0
  -27.6377  -13.2376   19.8530 C   0  0  2  0  0  0
  -28.6775  -13.1590   20.9910 C   0  0  0  0  0  0
  -25.2459  -13.8221   20.5694 C   0  0  0  0  0  0
  -24.1769  -13.0422   20.9217 C   0  0  0  0  0  0
  -24.6395  -11.6914   20.8736 C   0  0  0  0  0  0
  -23.9076  -10.4294   21.0388 C   0  0  0  0  0  0
  -24.3629   -9.4212   21.9168 C   0  0  0  0  0  0
  -23.6298   -8.2245   22.0747 C   0  0  0  0  0  0
  -22.4283   -8.0280   21.3531 C   0  0  0  0  0  0
  -21.9899   -9.0260   20.4655 C   0  0  0  0  0  0
  -22.7228  -10.2135   20.3054 C   0  0  0  0  0  0
  -21.6851   -6.0740   22.5286 C   0  0  0  0  0  0
  -21.4026   -6.5645   23.8225 C   0  0  0  0  0  0
  -21.3667   -5.6790   24.9182 C   0  0  0  0  0  0
  -21.6040   -4.3056   24.7220 C   0  0  0  0  0  0
  -21.8811   -3.8149   23.4343 C   0  0  0  0  0  0
  -21.9190   -4.6969   22.3403 C   0  0  0  0  0  0
  -22.7796  -13.5209   21.1865 C   0  0  0  0  0  0
  -22.1654   -4.2157   21.0976 F   0  0  0  0  0  0
  -21.5625   -3.4540   25.7732 F   0  0  0  0  0  0
  -29.9769  -13.5270   20.4158 N   0  0  0  0  0  0
  -26.2906  -12.9432   20.3271 N   0  0  0  0  0  0
  -25.9327  -11.6565   20.5741 N   0  0  0  0  0  0
  -22.0459  -12.8197   22.0457 N   0  0  0  0  0  0
  -25.4079  -15.1947   20.4131 N   0  0  0  0  0  0
  -31.7763  -14.8629   20.1628 O   0  0  0  0  0  0
  -21.6633   -6.8879   21.4243 O   0  0  0  0  0  0
  -22.3461  -14.5503   20.6712 O   0  0  0  0  0  0
  -24.6267  -31.8569   23.2032 C   0  0  0  0  0  0
  -25.9107  -32.4765   23.8366 C   0  0  1  0  0  0
  -27.2012  -27.2468   20.1756 C   0  0  0  0  0  0
  -25.5858  -33.8568   24.2240 N   0  0  0  0  0  0
  -23.4264  -30.4797   21.5423 C   0  0  2  0  0  0
  -24.8759  -28.9249   20.1105 C   0  0  0  0  0  0
  -22.7478  -29.4604   22.4906 C   0  0  0  0  0  0
  -18.0283  -28.1400   22.8486 C   0  0  0  0  0  0
  -24.1476  -36.7308   23.2654 C   0  0  0  0  0  0
  -25.9722  -30.7639   21.3907 C   0  0  0  0  0  0
  -26.0432  -29.3860   20.7344 C   0  0  0  0  0  0
  -27.2126  -28.5594   20.7531 C   0  0  0  0  0  0
  -26.0290  -26.8660   19.4898 C   0  0  0  0  0  0
  -24.8739  -27.6744   19.4737 C   0  0  0  0  0  0
  -23.6479  -29.8170   20.1553 C   0  0  0  0  0  0
  -25.4113  -36.3088   24.0315 C   0  0  1  0  0  0
  -20.5890  -28.3685   23.1272 C   0  0  2  0  0  0
  -20.6774  -26.9411   22.5408 C   0  0  0  0  0  0
  -19.5744  -26.6383   21.5212 C   0  0  0  0  0  0
  -18.1916  -26.7951   22.1622 C   0  0  0  0  0  0
  -19.1542  -28.8856   23.2880 C   0  0  0  0  0  0
  -18.9474  -30.1458   23.8889 C   0  0  0  0  0  0
  -17.6469  -30.6591   24.0570 C   0  0  0  0  0  0
  -25.9034  -34.9442   23.5099 C   0  0  0  0  0  0
  -16.5356  -29.9086   23.6344 C   0  0  0  0  0  0
  -16.7268  -28.6517   23.0350 C   0  0  0  0  0  0
  -26.4518  -31.6650   25.0777 C   0  0  0  0  0  0
  -25.3771  -31.3802   26.1528 C   0  0  0  0  0  0
  -27.0458  -30.3093   24.6325 C   0  0  0  0  0  0
  -27.6011  -32.4511   25.7507 C   0  0  0  0  0  0
  -27.5583  -37.1820   24.8440 C   0  0  0  0  0  0
  -21.4180  -29.3026   22.3642 N   0  0  0  0  0  0
  -26.4292  -37.3789   23.9391 N   0  0  0  0  0  0
  -24.6936  -31.0530   22.1006 N   0  0  0  0  0  0
  -23.4197  -28.8130   23.2987 O   0  0  0  0  0  0
  -28.2795  -26.3376   20.2174 O   0  0  0  0  0  0
  -26.5664  -34.8928   22.4693 O   0  0  0  0  0  0
  -23.5418  -32.1391   23.7311 O   0  0  0  0  0  0
  -31.4081  -18.9366   22.4302 C   0  0  0  0  0  0
  -29.4208  -18.4578   20.5838 C   0  0  0  0  0  0
  -30.7293  -20.0459   21.8825 C   0  0  0  0  0  0
  -31.1263  -17.5955   22.0843 C   0  0  0  0  0  0
  -29.6775  -19.8499   20.9490 C   0  0  0  0  0  0
  -30.1397  -17.2983   21.1062 C   0  0  0  0  0  0
  -28.6969  -23.6887   20.2161 C   0  0  0  0  0  0
  -26.7907  -23.3109   22.3784 C   0  0  0  0  0  0
  -26.8232  -24.6810   21.6449 C   0  0  0  0  0  0
  -28.0893  -22.4773   22.2435 C   0  0  0  0  0  0
  -28.1741  -25.0128   20.9520 C   0  0  2  0  0  0
  -31.2088  -21.4195   22.3275 C   0  0  0  0  0  0
  -31.8924  -16.5107   22.8293 C   0  0  0  0  0  0
  -28.9208  -21.0840   20.2537 C   0  0  0  0  0  0
  -28.6441  -22.4642   20.8795 N   0  0  0  0  0  0
  -29.8116  -15.8790   20.7681 N   0  0  0  0  0  0
  -29.1180  -23.7778   19.0577 O   0  0  0  0  0  0
  -31.4748  -12.5987   19.1917 H   0  0  0  0  0  0
  -30.3718  -11.4905   19.9614 H   0  0  0  0  0  0
  -29.8035  -11.7667   17.5190 H   0  0  0  0  0  0
  -29.6468  -13.4928   17.7415 H   0  0  0  0  0  0
  -27.8725  -11.3062   18.8728 H   0  0  0  0  0  0
  -27.3919  -12.5864   17.7868 H   0  0  0  0  0  0
  -27.6319  -14.2643   19.4866 H   0  0  0  0  0  0
  -28.7171  -12.1557   21.4172 H   0  0  0  0  0  0
  -28.4073  -13.8286   21.8093 H   0  0  0  0  0  0
  -25.2777   -9.5686   22.4733 H   0  0  0  0  0  0
  -24.0019   -7.4632   22.7455 H   0  0  0  0  0  0
  -21.0826   -8.8779   19.8971 H   0  0  0  0  0  0
  -22.3684  -10.9670   19.6173 H   0  0  0  0  0  0
  -21.2030   -7.6155   23.9730 H   0  0  0  0  0  0
  -21.1496   -6.0524   25.9084 H   0  0  0  0  0  0
  -22.0581   -2.7610   23.2837 H   0  0  0  0  0  0
  -22.4083  -11.9866   22.4853 H   0  0  0  0  0  0
  -21.1094  -13.1238   22.2702 H   0  0  0  0  0  0
  -24.6264  -15.8330   20.5189 H   0  0  0  0  0  0
  -26.2481  -15.6507   20.0821 H   0  0  0  0  0  0
  -26.7152  -32.5421   23.1095 H   0  0  0  0  0  0
  -24.9911  -33.9736   25.0311 H   0  0  0  0  0  0
  -22.7201  -31.3011   21.3974 H   0  0  0  0  0  0
  -23.3744  -35.9639   23.3328 H   0  0  0  0  0  0
  -24.3531  -36.8944   22.2065 H   0  0  0  0  0  0
  -23.7230  -37.6493   23.6702 H   0  0  0  0  0  0
  -26.1299  -31.5313   20.6334 H   0  0  0  0  0  0
  -26.8403  -30.8004   22.0357 H   0  0  0  0  0  0
  -28.1046  -28.9041   21.2591 H   0  0  0  0  0  0
  -25.9933  -25.9077   18.9904 H   0  0  0  0  0  0
  -23.9839  -27.3224   18.9704 H   0  0  0  0  0  0
  -23.7770  -30.5974   19.4033 H   0  0  0  0  0  0
  -22.7660  -29.2533   19.8454 H   0  0  0  0  0  0
  -25.1319  -36.1943   25.0809 H   0  0  0  0  0  0
  -20.9998  -28.3283   24.1390 H   0  0  0  0  0  0
  -20.5659  -26.2310   23.3611 H   0  0  0  0  0  0
  -21.6643  -26.7424   22.1211 H   0  0  0  0  0  0
  -19.6904  -25.6282   21.1245 H   0  0  0  0  0  0
  -19.6699  -27.3189   20.6734 H   0  0  0  0  0  0
  -17.4202  -26.6695   21.4009 H   0  0  0  0  0  0
  -18.0320  -26.0087   22.9011 H   0  0  0  0  0  0
  -19.7945  -30.7284   24.2258 H   0  0  0  0  0  0
  -17.5020  -31.6271   24.5186 H   0  0  0  0  0  0
  -15.5355  -30.2989   23.7678 H   0  0  0  0  0  0
  -15.8672  -28.0829   22.7071 H   0  0  0  0  0  0
  -24.5684  -30.7522   25.7786 H   0  0  0  0  0  0
  -24.9371  -32.3020   26.5324 H   0  0  0  0  0  0
  -25.8035  -30.8559   27.0089 H   0  0  0  0  0  0
  -26.3126  -29.6726   24.1369 H   0  0  0  0  0  0
  -27.4182  -29.7467   25.4899 H   0  0  0  0  0  0
  -27.8958  -30.4410   23.9623 H   0  0  0  0  0  0
  -27.2533  -33.3768   26.2094 H   0  0  0  0  0  0
  -28.0799  -31.8721   26.5411 H   0  0  0  0  0  0
  -28.3739  -32.7214   25.0304 H   0  0  0  0  0  0
  -28.2590  -38.0128   24.7489 H   0  0  0  0  0  0
  -28.1092  -36.2653   24.6270 H   0  0  0  0  0  0
  -27.2299  -37.1473   25.8842 H   0  0  0  0  0  0
  -20.9367  -29.8754   21.6846 H   0  0  0  0  0  0
  -26.0174  -38.2864   24.1383 H   0  0  0  0  0  0
  -32.1908  -19.1220   23.1551 H   0  0  0  0  0  0
  -28.6444  -18.2793   19.8538 H   0  0  0  0  0  0
  -25.9513  -22.7195   22.0114 H   0  0  0  0  0  0
  -26.5717  -23.4657   23.4375 H   0  0  0  0  0  0
  -26.5688  -25.4746   22.3470 H   0  0  0  0  0  0
  -26.0215  -24.6585   20.9082 H   0  0  0  0  0  0
  -27.9287  -21.4616   22.6101 H   0  0  0  0  0  0
  -28.8243  -22.9329   22.9053 H   0  0  0  0  0  0
  -28.8925  -25.1404   21.7669 H   0  0  0  0  0  0
  -32.2261  -21.3697   22.7171 H   0  0  0  0  0  0
  -30.5998  -21.7980   23.1449 H   0  0  0  0  0  0
  -31.2217  -22.1439   21.5136 H   0  0  0  0  0  0
  -32.3288  -16.9012   23.7474 H   0  0  0  0  0  0
  -32.7047  -16.1169   22.2179 H   0  0  0  0  0  0
  -31.2368  -15.6895   23.1207 H   0  0  0  0  0  0
  -29.4842  -21.2667   19.3377 H   0  0  0  0  0  0
  -27.9559  -20.7101   19.9170 H   0  0  0  0  0  0
  -28.8256  -15.6750   20.7559 H   0  0  0  0  0  0
  1 25  1  0  0  0
  1 30  2  0  0  0
  1 86  1  0  0  0
  2  3  1  0  0  0
  2 25  1  0  0  0
  2 88  1  0  0  0
  2 89  1  0  0  0
  3  4  1  0  0  0
  3 90  1  0  0  0
  3 91  1  0  0  0
  4  5  1  0  0  0
  4 92  1  0  0  0
  4 93  1  0  0  0
  5  6  1  0  0  0
  5 26  1  0  0  0
  5 94  1  0  0  0
  6 25  1  0  0  0
  6 95  1  0  0  0
  6 96  1  0  0  0
  7  8  2  0  0  0
  7 26  1  0  0  0
  7 29  1  0  0  0
  8  9  1  0  0  0
  8 22  1  0  0  0
  9 10  1  0  0  0
  9 27  2  0  0  0
 10 11  2  0  0  0
 10 15  1  0  0  0
 11 12  1  0  0  0
 11 97  1  0  0  0
 12 13  2  0  0  0
 12 98  1  0  0  0
 13 14  1  0  0  0
 13 31  1  0  0  0
 14 15  2  0  0  0
 14 99  1  0  0  0
 15100  1  0  0  0
 16 17  2  0  0  0
 16 21  1  0  0  0
 16 31  1  0  0  0
 17 18  1  0  0  0
 17101  1  0  0  0
 18 19  2  0  0  0
 18102  1  0  0  0
 19 20  1  0  0  0
 19 24  1  0  0  0
 20 21  2  0  0  0
 20103  1  0  0  0
 21 23  1  0  0  0
 22 28  1  0  0  0
 22 32  2  0  0  0
 26 27  1  0  0  0
 28104  1  0  0  0
 28105  1  0  0  0
 29106  1  0  0  0
 29107  1  0  0  0
 33 34  1  0  0  0
 33 66  1  0  0  0
 33 70  2  0  0  0
 34 36  1  0  0  0
 34 59  1  0  0  0
 34108  1  0  0  0
 35 44  2  0  0  0
 35 45  1  0  0  0
 35 68  1  0  0  0
 36 56  1  0  0  0
 36109  1  0  0  0
 37 39  1  0  0  0
 37 47  1  0  0  0
 37 66  1  0  0  0
 37110  1  0  0  0
 38 43  2  0  0  0
 38 46  1  0  0  0
 38 47  1  0  0  0
 39 64  1  0  0  0
 39 67  2  0  0  0
 40 52  1  0  0  0
 40 53  2  0  0  0
 40 58  1  0  0  0
 41111  1  0  0  0
 41112  1  0  0  0
 41113  1  0  0  0
 41 48  1  0  0  0
 42 43  1  0  0  0
 42 66  1  0  0  0
 42114  1  0  0  0
 42115  1  0  0  0
 43 44  1  0  0  0
 44116  1  0  0  0
 45 46  2  0  0  0
 45117  1  0  0  0
 46118  1  0  0  0
 47119  1  0  0  0
 47120  1  0  0  0
 48 56  1  0  0  0
 48 65  1  0  0  0
 48121  1  0  0  0
 49 50  1  0  0  0
 49 53  1  0  0  0
 49 64  1  0  0  0
 49122  1  0  0  0
 50 51  1  0  0  0
 50123  1  0  0  0
 50124  1  0  0  0
 51 52  1  0  0  0
 51125  1  0  0  0
 51126  1  0  0  0
 52127  1  0  0  0
 52128  1  0  0  0
 53 54  1  0  0  0
 54 55  2  0  0  0
 54129  1  0  0  0
 55 57  1  0  0  0
 55130  1  0  0  0
 56 69  2  0  0  0
 57 58  2  0  0  0
 57131  1  0  0  0
 58132  1  0  0  0
 59 60  1  0  0  0
 59 61  1  0  0  0
 59 62  1  0  0  0
 60133  1  0  0  0
 60134  1  0  0  0
 60135  1  0  0  0
 61136  1  0  0  0
 61137  1  0  0  0
 61138  1  0  0  0
 62139  1  0  0  0
 62140  1  0  0  0
 62141  1  0  0  0
 63 65  1  0  0  0
 63142  1  0  0  0
 63143  1  0  0  0
 63144  1  0  0  0
 64145  1  0  0  0
 65146  1  0  0  0
 68 81  1  0  0  0
 71 73  2  0  0  0
 71 74  1  0  0  0
 71147  1  0  0  0
 72 75  2  0  0  0
 72 76  1  0  0  0
 72148  1  0  0  0
 73 75  1  0  0  0
 73 82  1  0  0  0
 74 76  2  0  0  0
 74 83  1  0  0  0
 75 84  1  0  0  0
 76 86  1  0  0  0
 77 81  1  0  0  0
 77 85  1  0  0  0
 77 87  2  0  0  0
 78 79  1  0  0  0
 78 80  1  0  0  0
 78149  1  0  0  0
 78150  1  0  0  0
 79 81  1  0  0  0
 79151  1  0  0  0
 79152  1  0  0  0
 80 85  1  0  0  0
 80153  1  0  0  0
 80154  1  0  0  0
 81155  1  0  0  0
 82156  1  0  0  0
 82157  1  0  0  0
 82158  1  0  0  0
 83159  1  0  0  0
 83160  1  0  0  0
 83161  1  0  0  0
 84 85  1  0  0  0
 84162  1  0  0  0
 84163  1  0  0  0
 86164  1  0  0  0
M  ISO  4   1 100  68 101  81 101  86 100
M  END
> <chiral flag>
0

> <version>
0

> <s_m_source_file>
/data/baiqing/PycharmProjects/Reinvent-master-3.2/result/LINK_invent/BTK/process_docking_weight1_custom_product_contain_oxygen_bond_distance_aromatic_linkinvent_7_9_3/rearranged_h_0040.sdf

> <i_m_source_file_index>
10

> <r_mmod_Potential_Energy-OPLS-2005>
270.909027099609

> <r_mmod_Stretch_Energy-OPLS-2005>
137.38801574707

> <r_mmod_Bend_Energy-OPLS-2005>
182.159088134766

> <r_mmod_Torsional_Energy-OPLS-2005>
281.950317382812

> <r_mmod_Improper_Torsional_Energy-OPLS-2005>
6.17591619491577

> <r_mmod_Van_der_Waal_Energy-OPLS-2005>
152.862869262695

> <r_mmod_Electrostatic_Energy-OPLS-2005>
-357.100219726562

> <r_mmod_Solvation_Energy-OPLS-2005>
-225.615692138672

> <b_mmod_Minimization_Converged-OPLS-2005>
0

> <r_mmod_RMS_Derivative-OPLS-2005>
5.01516056060791

$$$$
10
                    3D
 Structure written by MMmdl.
157165  0  0  1  0            999 V2000
  -30.6778  -14.4566   20.6416 C   0  0  0  0  0  0
  -30.4380  -12.3176   19.4112 C   0  0  0  0  0  0
  -29.5016  -12.5284   18.2023 C   0  0  0  0  0  0
  -28.0208  -12.3767   18.6102 C   0  0  0  0  0  0
  -27.6674  -13.1973   19.8795 C   0  0  2  0  0  0
  -28.7042  -12.9264   20.9928 C   0  0  0  0  0  0
  -25.2618  -13.8129   20.5667 C   0  0  0  0  0  0
  -24.1855  -13.0428   20.9168 C   0  0  0  0  0  0
  -24.6390  -11.6888   20.8729 C   0  0  0  0  0  0
  -23.9049  -10.4286   21.0401 C   0  0  0  0  0  0
  -24.3611   -9.4201   21.9174 C   0  0  0  0  0  0
  -23.6291   -8.2237   22.0749 C   0  0  0  0  0  0
  -22.4267   -8.0276   21.3548 C   0  0  0  0  0  0
  -21.9899   -9.0243   20.4645 C   0  0  0  0  0  0
  -22.7223  -10.2124   20.3047 C   0  0  0  0  0  0
  -21.6847   -6.0739   22.5287 C   0  0  0  0  0  0
  -21.4016   -6.5647   23.8223 C   0  0  0  0  0  0
  -21.3660   -5.6792   24.9185 C   0  0  0  0  0  0
  -21.6044   -4.3052   24.7231 C   0  0  0  0  0  0
  -21.8814   -3.8148   23.4349 C   0  0  0  0  0  0
  -21.9190   -4.6969   22.3411 C   0  0  0  0  0  0
  -22.7879  -13.5242   21.1840 C   0  0  0  0  0  0
  -22.1650   -4.2157   21.0984 F   0  0  0  0  0  0
  -21.5632   -3.4534   25.7741 F   0  0  0  0  0  0
  -30.0413  -13.2646   20.4649 N   0  0  0  0  0  0
  -26.3045  -12.9280   20.3355 N   0  0  0  0  0  0
  -25.9312  -11.6447   20.5739 N   0  0  0  0  0  0
  -22.0508  -12.8253   22.0404 N   0  0  0  0  0  0
  -25.4354  -15.1850   20.4087 N   0  0  0  0  0  0
  -31.7597  -14.7249   20.1087 O   0  0  0  0  0  0
  -21.6628   -6.8876   21.4246 O   0  0  0  0  0  0
  -22.3564  -14.5546   20.6671 O   0  0  0  0  0  0
  -24.6131  -31.8673   23.2099 C   0  0  0  0  0  0
  -25.9024  -32.4824   23.8398 C   0  0  1  0  0  0
  -27.2403  -27.4405   20.1050 C   0  0  0  0  0  0
  -25.5871  -33.8625   24.2321 N   0  0  0  0  0  0
  -23.4030  -30.4877   21.5506 C   0  0  2  0  0  0
  -24.8530  -28.9515   20.1186 C   0  0  0  0  0  0
  -22.7408  -29.4641   22.5007 C   0  0  0  0  0  0
  -18.0269  -28.1372   22.8493 C   0  0  0  0  0  0
  -24.1479  -36.7318   23.2641 C   0  0  0  0  0  0
  -25.9311  -30.8345   21.3643 C   0  0  0  0  0  0
  -26.0117  -29.4687   20.7132 C   0  0  0  0  0  0
  -27.2118  -28.7216   20.6999 C   0  0  0  0  0  0
  -26.0676  -26.9301   19.5122 C   0  0  0  0  0  0
  -24.8757  -27.6808   19.5149 C   0  0  0  0  0  0
  -23.6125  -29.8145   20.1669 C   0  0  0  0  0  0
  -25.4106  -36.3122   24.0339 C   0  0  1  0  0  0
  -20.5854  -28.3653   23.1331 C   0  0  2  0  0  0
  -20.6757  -26.9393   22.5429 C   0  0  0  0  0  0
  -19.5742  -26.6377   21.5219 C   0  0  0  0  0  0
  -18.1919  -26.7920   22.1622 C   0  0  0  0  0  0
  -19.1516  -28.8831   23.2908 C   0  0  0  0  0  0
  -18.9444  -30.1434   23.8927 C   0  0  0  0  0  0
  -17.6446  -30.6580   24.0563 C   0  0  0  0  0  0
  -25.9031  -34.9483   23.5134 C   0  0  0  0  0  0
  -16.5338  -29.9087   23.6310 C   0  0  0  0  0  0
  -16.7258  -28.6495   23.0349 C   0  0  0  0  0  0
  -26.4456  -31.6615   25.0735 C   0  0  0  0  0  0
  -25.3712  -31.3744   26.1480 C   0  0  0  0  0  0
  -27.0289  -30.3048   24.6136 C   0  0  0  0  0  0
  -27.6040  -32.4343   25.7478 C   0  0  0  0  0  0
  -27.5588  -37.1814   24.8461 C   0  0  0  0  0  0
  -21.4136  -29.3020   22.3746 N   0  0  0  0  0  0
  -26.4298  -37.3803   23.9406 N   0  0  0  0  0  0
  -24.6668  -31.0777   22.0996 N   0  0  0  0  0  0
  -23.4184  -28.8180   23.3045 O   0  0  0  0  0  0
  -28.3978  -26.6975   20.0675 O   0  0  0  0  0  0
  -26.5603  -34.8926   22.4704 O   0  0  0  0  0  0
  -23.5320  -32.1427   23.7485 O   0  0  0  0  0  0
  -31.1183  -17.5701   21.1724 C   0  0  0  0  0  0
  -28.8590  -17.3729   22.0409 C   0  0  0  0  0  0
  -29.8955  -19.5927   21.8845 C   0  0  0  0  0  0
  -31.0677  -18.9786   21.3574 C   0  0  0  0  0  0
  -30.0146  -16.7519   21.5170 C   0  0  0  0  0  0
  -28.7913  -18.7712   22.2210 C   0  0  0  0  0  0
  -29.4477  -23.2904   21.4684 C   0  0  0  0  0  0
  -29.8409  -21.0657   22.1778 C   0  0  0  0  0  0
  -32.2979  -19.8076   21.0107 C   0  0  0  0  0  0
  -29.1154  -24.3509   20.4192 C   0  0  0  0  0  0
  -28.4600  -25.6224   21.0170 C   0  0  0  0  0  0
  -29.5193  -22.0243   21.2418 N   0  0  0  0  0  0
  -29.9884  -15.3240   21.4130 N   0  0  0  0  0  0
  -30.1353  -21.3859   23.4058 N   0  3  0  0  0  0
  -27.6588  -19.3067   22.7506 F   0  0  0  0  0  0
  -31.4809  -12.4431   19.1124 H   0  0  0  0  0  0
  -30.3572  -11.2941   19.7802 H   0  0  0  0  0  0
  -29.7470  -11.8202   17.4099 H   0  0  0  0  0  0
  -29.6653  -13.5221   17.7840 H   0  0  0  0  0  0
  -27.8312  -11.3178   18.7909 H   0  0  0  0  0  0
  -27.3700  -12.6615   17.7828 H   0  0  0  0  0  0
  -27.7257  -14.2523   19.6105 H   0  0  0  0  0  0
  -28.6842  -11.8714   21.2683 H   0  0  0  0  0  0
  -28.4418  -13.4551   21.9102 H   0  0  0  0  0  0
  -25.2757   -9.5688   22.4740 H   0  0  0  0  0  0
  -24.0011   -7.4631   22.7461 H   0  0  0  0  0  0
  -21.0830   -8.8756   19.8956 H   0  0  0  0  0  0
  -22.3674  -10.9661   19.6156 H   0  0  0  0  0  0
  -21.2003   -7.6150   23.9740 H   0  0  0  0  0  0
  -21.1490   -6.0516   25.9093 H   0  0  0  0  0  0
  -22.0591   -2.7609   23.2847 H   0  0  0  0  0  0
  -22.4102  -11.9926   22.4833 H   0  0  0  0  0  0
  -21.1128  -13.1297   22.2580 H   0  0  0  0  0  0
  -24.6672  -15.8384   20.5152 H   0  0  0  0  0  0
  -26.2837  -15.6235   20.0732 H   0  0  0  0  0  0
  -26.7101  -32.5550   23.1169 H   0  0  0  0  0  0
  -25.0000  -33.9788   25.0452 H   0  0  0  0  0  0
  -22.6911  -31.3031   21.4083 H   0  0  0  0  0  0
  -23.3740  -35.9654   23.3324 H   0  0  0  0  0  0
  -24.3558  -36.8913   22.2049 H   0  0  0  0  0  0
  -23.7229  -37.6530   23.6638 H   0  0  0  0  0  0
  -26.0449  -31.6013   20.5971 H   0  0  0  0  0  0
  -26.8168  -30.8856   21.9864 H   0  0  0  0  0  0
  -28.1107  -29.1207   21.1495 H   0  0  0  0  0  0
  -26.0788  -25.9538   19.0479 H   0  0  0  0  0  0
  -23.9844  -27.2760   19.0549 H   0  0  0  0  0  0
  -23.7161  -30.5847   19.4017 H   0  0  0  0  0  0
  -22.7386  -29.2281   19.8779 H   0  0  0  0  0  0
  -25.1287  -36.1998   25.0836 H   0  0  0  0  0  0
  -20.9939  -28.3212   24.1455 H   0  0  0  0  0  0
  -20.5653  -26.2263   23.3613 H   0  0  0  0  0  0
  -21.6629  -26.7440   22.1230 H   0  0  0  0  0  0
  -19.6903  -25.6291   21.1253 H   0  0  0  0  0  0
  -19.6690  -27.3186   20.6753 H   0  0  0  0  0  0
  -17.4194  -26.6673   21.4017 H   0  0  0  0  0  0
  -18.0310  -26.0059   22.9011 H   0  0  0  0  0  0
  -19.7919  -30.7233   24.2330 H   0  0  0  0  0  0
  -17.5002  -31.6269   24.5151 H   0  0  0  0  0  0
  -15.5340  -30.3005   23.7612 H   0  0  0  0  0  0
  -15.8654  -28.0820   22.7067 H   0  0  0  0  0  0
  -24.5835  -30.7162   25.7798 H   0  0  0  0  0  0
  -24.8956  -32.2917   26.4970 H   0  0  0  0  0  0
  -25.8024  -30.8852   27.0220 H   0  0  0  0  0  0
  -26.2852  -29.6816   24.1156 H   0  0  0  0  0  0
  -27.4009  -29.7286   25.4619 H   0  0  0  0  0  0
  -27.8704  -30.4365   23.9327 H   0  0  0  0  0  0
  -27.2657  -33.3613   26.2122 H   0  0  0  0  0  0
  -28.3796  -32.6967   25.0271 H   0  0  0  0  0  0
  -28.0779  -31.8442   26.5334 H   0  0  0  0  0  0
  -28.2622  -38.0096   24.7499 H   0  0  0  0  0  0
  -28.1066  -36.2629   24.6298 H   0  0  0  0  0  0
  -27.2298  -37.1482   25.8861 H   0  0  0  0  0  0
  -20.9299  -29.8733   21.6958 H   0  0  0  0  0  0
  -26.0196  -38.2888   24.1399 H   0  0  0  0  0  0
  -32.0234  -17.1241   20.7868 H   0  0  0  0  0  0
  -28.0015  -16.7810   22.3262 H   0  0  0  0  0  0
  -29.6369  -23.7193   22.4565 H   0  0  0  0  0  0
  -33.0840  -19.1970   20.5680 H   0  0  0  0  0  0
  -32.7046  -20.2789   21.9062 H   0  0  0  0  0  0
  -32.0454  -20.5948   20.2990 H   0  0  0  0  0  0
  -28.4603  -23.9187   19.6633 H   0  0  0  0  0  0
  -30.0415  -24.6218   19.9121 H   0  0  0  0  0  0
  -29.0462  -25.9815   21.8645 H   0  0  0  0  0  0
  -27.4737  -25.3690   21.4114 H   0  0  0  0  0  0
  -29.1753  -14.8884   21.8213 H   0  0  0  0  0  0
  -30.3789  -20.6889   24.1074 H   0  0  0  0  0  0
  -30.1432  -22.3384   23.7559 H   0  0  0  0  0  0
  1 25  1  0  0  0
  1 30  2  0  0  0
  1 83  1  0  0  0
  2  3  1  0  0  0
  2 25  1  0  0  0
  2 86  1  0  0  0
  2 87  1  0  0  0
  3  4  1  0  0  0
  3 88  1  0  0  0
  3 89  1  0  0  0
  4  5  1  0  0  0
  4 90  1  0  0  0
  4 91  1  0  0  0
  5  6  1  0  0  0
  5 26  1  0  0  0
  5 92  1  0  0  0
  6 25  1  0  0  0
  6 93  1  0  0  0
  6 94  1  0  0  0
  7  8  2  0  0  0
  7 26  1  0  0  0
  7 29  1  0  0  0
  8  9  1  0  0  0
  8 22  1  0  0  0
  9 10  1  0  0  0
  9 27  2  0  0  0
 10 11  2  0  0  0
 10 15  1  0  0  0
 11 12  1  0  0  0
 11 95  1  0  0  0
 12 13  2  0  0  0
 12 96  1  0  0  0
 13 14  1  0  0  0
 13 31  1  0  0  0
 14 15  2  0  0  0
 14 97  1  0  0  0
 15 98  1  0  0  0
 16 17  2  0  0  0
 16 21  1  0  0  0
 16 31  1  0  0  0
 17 18  1  0  0  0
 17 99  1  0  0  0
 18 19  2  0  0  0
 18100  1  0  0  0
 19 20  1  0  0  0
 19 24  1  0  0  0
 20 21  2  0  0  0
 20101  1  0  0  0
 21 23  1  0  0  0
 22 28  1  0  0  0
 22 32  2  0  0  0
 26 27  1  0  0  0
 28102  1  0  0  0
 28103  1  0  0  0
 29104  1  0  0  0
 29105  1  0  0  0
 33 34  1  0  0  0
 33 66  1  0  0  0
 33 70  2  0  0  0
 34 36  1  0  0  0
 34 59  1  0  0  0
 34106  1  0  0  0
 35 44  2  0  0  0
 35 45  1  0  0  0
 35 68  1  0  0  0
 36 56  1  0  0  0
 36107  1  0  0  0
 37 39  1  0  0  0
 37 47  1  0  0  0
 37 66  1  0  0  0
 37108  1  0  0  0
 38 43  2  0  0  0
 38 46  1  0  0  0
 38 47  1  0  0  0
 39 64  1  0  0  0
 39 67  2  0  0  0
 40 52  1  0  0  0
 40 53  2  0  0  0
 40 58  1  0  0  0
 41109  1  0  0  0
 41110  1  0  0  0
 41111  1  0  0  0
 41 48  1  0  0  0
 42 43  1  0  0  0
 42 66  1  0  0  0
 42112  1  0  0  0
 42113  1  0  0  0
 43 44  1  0  0  0
 44114  1  0  0  0
 45 46  2  0  0  0
 45115  1  0  0  0
 46116  1  0  0  0
 47117  1  0  0  0
 47118  1  0  0  0
 48 56  1  0  0  0
 48 65  1  0  0  0
 48119  1  0  0  0
 49 50  1  0  0  0
 49 53  1  0  0  0
 49 64  1  0  0  0
 49120  1  0  0  0
 50 51  1  0  0  0
 50121  1  0  0  0
 50122  1  0  0  0
 51 52  1  0  0  0
 51123  1  0  0  0
 51124  1  0  0  0
 52125  1  0  0  0
 52126  1  0  0  0
 53 54  1  0  0  0
 54 55  2  0  0  0
 54127  1  0  0  0
 55 57  1  0  0  0
 55128  1  0  0  0
 56 69  2  0  0  0
 57 58  2  0  0  0
 57129  1  0  0  0
 58130  1  0  0  0
 59 60  1  0  0  0
 59 61  1  0  0  0
 59 62  1  0  0  0
 60131  1  0  0  0
 60132  1  0  0  0
 60133  1  0  0  0
 61134  1  0  0  0
 61135  1  0  0  0
 61136  1  0  0  0
 62137  1  0  0  0
 62138  1  0  0  0
 62139  1  0  0  0
 63 65  1  0  0  0
 63140  1  0  0  0
 63141  1  0  0  0
 63142  1  0  0  0
 64143  1  0  0  0
 65144  1  0  0  0
 68 81  1  0  0  0
 71 74  2  0  0  0
 71 75  1  0  0  0
 71145  1  0  0  0
 72 75  2  0  0  0
 72 76  1  0  0  0
 72146  1  0  0  0
 73 74  1  0  0  0
 73 76  2  0  0  0
 73 78  1  0  0  0
 74 79  1  0  0  0
 75 83  1  0  0  0
 76 85  1  0  0  0
 77 80  1  0  0  0
 77 82  2  0  0  0
 77147  1  0  0  0
 78 82  1  0  0  0
 78 84  2  0  0  0
 79148  1  0  0  0
 79149  1  0  0  0
 79150  1  0  0  0
 80 81  1  0  0  0
 80151  1  0  0  0
 80152  1  0  0  0
 81153  1  0  0  0
 81154  1  0  0  0
 83155  1  0  0  0
 84156  1  0  0  0
 84157  1  0  0  0
M  CHG  1  84   1
M  ISO  4   1 100  68 101  81 101  83 100
M  END
> <chiral flag>
0

> <version>
0

> <s_m_source_file>
/data/baiqing/PycharmProjects/Reinvent-master-3.2/result/LINK_invent/BTK/process_docking_weight1_custom_product_contain_oxygen_bond_distance_aromatic_linkinvent_7_9_3/rearranged_h_0040.sdf

> <i_m_source_file_index>
11

> <r_mmod_Potential_Energy-OPLS-2005>
91.5944061279297

> <r_mmod_Stretch_Energy-OPLS-2005>
46.4981498718262

> <r_mmod_Bend_Energy-OPLS-2005>
110.990097045898

> <r_mmod_Torsional_Energy-OPLS-2005>
253.354095458984

> <r_mmod_Improper_Torsional_Energy-OPLS-2005>
3.11835551261902

> <r_mmod_Van_der_Waal_Energy-OPLS-2005>
159.768051147461

> <r_mmod_Electrostatic_Energy-OPLS-2005>
-31.185697555542

> <r_mmod_Solvation_Energy-OPLS-2005>
-461.610656738281

> <b_mmod_Minimization_Converged-OPLS-2005>
0

> <r_mmod_RMS_Derivative-OPLS-2005>
1.41766571998596

$$$$
11
                    3D
 Structure written by MMmdl.
159167  0  0  1  0            999 V2000
  -30.6274  -14.5325   20.5326 C   0  0  0  0  0  0
  -30.4203  -12.3287   19.4460 C   0  0  0  0  0  0
  -29.5019  -12.5223   18.2191 C   0  0  0  0  0  0
  -28.0160  -12.3768   18.6145 C   0  0  0  0  0  0
  -27.6525  -13.2065   19.8727 C   0  0  2  0  0  0
  -28.6870  -12.9975   20.9996 C   0  0  0  0  0  0
  -25.2510  -13.8109   20.5623 C   0  0  0  0  0  0
  -24.1796  -13.0413   20.9184 C   0  0  0  0  0  0
  -24.6366  -11.6894   20.8748 C   0  0  0  0  0  0
  -23.9030  -10.4286   21.0418 C   0  0  0  0  0  0
  -24.3592   -9.4202   21.9181 C   0  0  0  0  0  0
  -23.6283   -8.2237   22.0742 C   0  0  0  0  0  0
  -22.4264   -8.0269   21.3544 C   0  0  0  0  0  0
  -21.9900   -9.0235   20.4637 C   0  0  0  0  0  0
  -22.7214  -10.2127   20.3053 C   0  0  0  0  0  0
  -21.6852   -6.0725   22.5274 C   0  0  0  0  0  0
  -21.4012   -6.5633   23.8207 C   0  0  0  0  0  0
  -21.3664   -5.6789   24.9166 C   0  0  0  0  0  0
  -21.6049   -4.3053   24.7218 C   0  0  0  0  0  0
  -21.8824   -3.8143   23.4341 C   0  0  0  0  0  0
  -21.9194   -4.6956   22.3397 C   0  0  0  0  0  0
  -22.7841  -13.5209   21.1858 C   0  0  0  0  0  0
  -22.1664   -4.2147   21.0974 F   0  0  0  0  0  0
  -21.5635   -3.4530   25.7733 F   0  0  0  0  0  0
  -30.0126  -13.3194   20.4519 N   0  0  0  0  0  0
  -26.2939  -12.9318   20.3295 N   0  0  0  0  0  0
  -25.9273  -11.6489   20.5701 N   0  0  0  0  0  0
  -22.0479  -12.8207   22.0420 N   0  0  0  0  0  0
  -25.4222  -15.1795   20.3921 N   0  0  0  0  0  0
  -31.7765  -14.7216   20.1194 O   0  0  0  0  0  0
  -21.6640   -6.8852   21.4237 O   0  0  0  0  0  0
  -22.3555  -14.5519   20.6716 O   0  0  0  0  0  0
  -24.6165  -31.8681   23.2092 C   0  0  0  0  0  0
  -25.9052  -32.4825   23.8393 C   0  0  1  0  0  0
  -27.2213  -27.3849   20.0937 C   0  0  0  0  0  0
  -25.5905  -33.8624   24.2329 N   0  0  0  0  0  0
  -23.4049  -30.4961   21.5480 C   0  0  2  0  0  0
  -24.8476  -28.9539   20.1121 C   0  0  0  0  0  0
  -22.7395  -29.4699   22.4948 C   0  0  0  0  0  0
  -18.0293  -28.1368   22.8538 C   0  0  0  0  0  0
  -24.1489  -36.7306   23.2639 C   0  0  0  0  0  0
  -25.9385  -30.8166   21.3698 C   0  0  0  0  0  0
  -26.0125  -29.4476   20.7099 C   0  0  0  0  0  0
  -27.1991  -28.6718   20.6965 C   0  0  0  0  0  0
  -26.0281  -26.9095   19.5028 C   0  0  0  0  0  0
  -24.8544  -27.6860   19.5088 C   0  0  0  0  0  0
  -23.6137  -29.8305   20.1623 C   0  0  0  0  0  0
  -25.4116  -36.3104   24.0334 C   0  0  1  0  0  0
  -20.5888  -28.3751   23.1389 C   0  0  2  0  0  0
  -20.6741  -26.9433   22.5646 C   0  0  0  0  0  0
  -19.5853  -26.6460   21.5317 C   0  0  0  0  0  0
  -18.2028  -26.7889   22.1771 C   0  0  0  0  0  0
  -19.1525  -28.8889   23.2910 C   0  0  0  0  0  0
  -18.9416  -30.1537   23.8820 C   0  0  0  0  0  0
  -17.6393  -30.6633   24.0454 C   0  0  0  0  0  0
  -25.9045  -34.9471   23.5123 C   0  0  0  0  0  0
  -16.5328  -29.9059   23.6259 C   0  0  0  0  0  0
  -16.7278  -28.6434   23.0360 C   0  0  0  0  0  0
  -26.4476  -31.6605   25.0724 C   0  0  0  0  0  0
  -25.3746  -31.3693   26.1473 C   0  0  0  0  0  0
  -27.0318  -30.3043   24.6132 C   0  0  0  0  0  0
  -27.6049  -32.4321   25.7499 C   0  0  0  0  0  0
  -27.5582  -37.1809   24.8465 C   0  0  0  0  0  0
  -21.4122  -29.3075   22.3679 N   0  0  0  0  0  0
  -26.4298  -37.3794   23.9407 N   0  0  0  0  0  0
  -24.6703  -31.0745   22.0996 N   0  0  0  0  0  0
  -23.4147  -28.8253   23.2997 O   0  0  0  0  0  0
  -28.3980  -26.6456   20.1081 O   0  0  0  0  0  0
  -26.5604  -34.8928   22.4685 O   0  0  0  0  0  0
  -23.5348  -32.1455   23.7479 O   0  0  0  0  0  0
  -27.7725  -17.5183   21.6233 C   0  0  0  0  0  0
  -26.9291  -19.7817   21.9361 C   0  0  0  0  0  0
  -28.9745  -18.0124   21.0708 C   0  0  0  0  0  0
  -28.1290  -20.3349   21.4294 C   0  0  0  0  0  0
  -29.1371  -19.4358   20.9513 C   0  0  0  0  0  0
  -26.7577  -18.3905   22.0468 C   0  0  0  0  0  0
  -30.4072  -20.0230   20.3484 C   0  0  0  0  0  0
  -30.0808  -17.0045   20.6593 C   0  0  0  0  0  0
  -28.3331  -21.8707   21.6061 C   0  0  0  0  0  0
  -27.9880  -24.2256   20.7609 C   0  0  0  0  0  0
  -28.4347  -25.2567   19.6709 C   0  0  0  0  0  0
  -29.8230  -15.5630   20.8860 N   0  0  0  0  0  0
  -28.1772  -22.7666   20.4206 N   0  3  0  0  0  0
  -25.3326  -17.7503   22.7716 Cl  0  0  0  0  0  0
  -31.4681  -12.4375   19.1624 H   0  0  0  0  0  0
  -30.3194  -11.3173   19.8462 H   0  0  0  0  0  0
  -29.7570  -11.8079   17.4346 H   0  0  0  0  0  0
  -29.6685  -13.5128   17.7939 H   0  0  0  0  0  0
  -27.8200  -11.3192   18.7943 H   0  0  0  0  0  0
  -27.3803  -12.6639   17.7782 H   0  0  0  0  0  0
  -27.6876  -14.2534   19.5717 H   0  0  0  0  0  0
  -28.6648  -11.9617   21.3429 H   0  0  0  0  0  0
  -28.4400  -13.5992   21.8751 H   0  0  0  0  0  0
  -25.2739   -9.5705   22.4736 H   0  0  0  0  0  0
  -24.0010   -7.4634   22.7456 H   0  0  0  0  0  0
  -21.0825   -8.8740   19.8925 H   0  0  0  0  0  0
  -22.3660  -10.9659   19.6155 H   0  0  0  0  0  0
  -21.2004   -7.6138   23.9710 H   0  0  0  0  0  0
  -21.1481   -6.0508   25.9067 H   0  0  0  0  0  0
  -22.0600   -2.7603   23.2837 H   0  0  0  0  0  0
  -22.4129  -11.9889   22.4811 H   0  0  0  0  0  0
  -21.1091  -13.1217   22.2672 H   0  0  0  0  0  0
  -24.6622  -15.8342   20.5273 H   0  0  0  0  0  0
  -26.2500  -15.6180   20.0133 H   0  0  0  0  0  0
  -26.7111  -32.5515   23.1143 H   0  0  0  0  0  0
  -25.0065  -33.9792   25.0475 H   0  0  0  0  0  0
  -22.6945  -31.3129   21.4102 H   0  0  0  0  0  0
  -23.3758  -35.9631   23.3314 H   0  0  0  0  0  0
  -24.3575  -36.8912   22.2047 H   0  0  0  0  0  0
  -23.7228  -37.6508   23.6650 H   0  0  0  0  0  0
  -26.0619  -31.5866   20.6071 H   0  0  0  0  0  0
  -26.8207  -30.8631   21.9974 H   0  0  0  0  0  0
  -28.0965  -29.0522   21.1668 H   0  0  0  0  0  0
  -25.9648  -25.9372   19.0384 H   0  0  0  0  0  0
  -23.9556  -27.2957   19.0539 H   0  0  0  0  0  0
  -23.7249  -30.6068   19.4039 H   0  0  0  0  0  0
  -22.7329  -29.2587   19.8623 H   0  0  0  0  0  0
  -25.1295  -36.1982   25.0825 H   0  0  0  0  0  0
  -20.9984  -28.3462   24.1499 H   0  0  0  0  0  0
  -21.6670  -26.7282   22.1683 H   0  0  0  0  0  0
  -20.5400  -26.2424   23.3914 H   0  0  0  0  0  0
  -19.7084  -25.6453   21.1176 H   0  0  0  0  0  0
  -19.6779  -27.3409   20.6960 H   0  0  0  0  0  0
  -17.4250  -26.6401   21.4299 H   0  0  0  0  0  0
  -18.0628  -26.0103   22.9300 H   0  0  0  0  0  0
  -19.7882  -30.7425   24.2095 H   0  0  0  0  0  0
  -17.4943  -31.6351   24.4961 H   0  0  0  0  0  0
  -15.5314  -30.2933   23.7594 H   0  0  0  0  0  0
  -15.8710  -28.0705   22.7141 H   0  0  0  0  0  0
  -24.5936  -30.7031   25.7799 H   0  0  0  0  0  0
  -24.8935  -32.2838   26.4951 H   0  0  0  0  0  0
  -25.8120  -30.8842   27.0219 H   0  0  0  0  0  0
  -26.2872  -29.6808   24.1184 H   0  0  0  0  0  0
  -27.4053  -29.7290   25.4618 H   0  0  0  0  0  0
  -27.8726  -30.4346   23.9321 H   0  0  0  0  0  0
  -27.2673  -33.3619   26.2116 H   0  0  0  0  0  0
  -28.3866  -32.6905   25.0331 H   0  0  0  0  0  0
  -28.0733  -31.8427   26.5402 H   0  0  0  0  0  0
  -28.2610  -38.0098   24.7522 H   0  0  0  0  0  0
  -28.1070  -36.2633   24.6295 H   0  0  0  0  0  0
  -27.2296  -37.1461   25.8865 H   0  0  0  0  0  0
  -20.9294  -29.8716   21.6828 H   0  0  0  0  0  0
  -26.0193  -38.2878   24.1409 H   0  0  0  0  0  0
  -27.6032  -16.4616   21.7579 H   0  0  0  0  0  0
  -26.1467  -20.4238   22.3217 H   0  0  0  0  0  0
  -31.0504  -19.2739   19.8910 H   0  0  0  0  0  0
  -30.9936  -20.5494   21.1004 H   0  0  0  0  0  0
  -30.1576  -20.7219   19.5524 H   0  0  0  0  0  0
  -30.2763  -17.1355   19.5929 H   0  0  0  0  0  0
  -30.9956  -17.2669   21.1937 H   0  0  0  0  0  0
  -29.3080  -22.0370   22.0599 H   0  0  0  0  0  0
  -27.6173  -22.2155   22.3561 H   0  0  0  0  0  0
  -26.9369  -24.3915   20.9970 H   0  0  0  0  0  0
  -28.5425  -24.4683   21.6696 H   0  0  0  0  0  0
  -27.9163  -25.1014   18.7277 H   0  0  0  0  0  0
  -29.4760  -25.0569   19.4223 H   0  0  0  0  0  0
  -28.8941  -15.3147   21.1946 H   0  0  0  0  0  0
  -28.9771  -22.6470   19.8246 H   0  0  0  0  0  0
  -27.3754  -22.4422   19.8986 H   0  0  0  0  0  0
  1 25  1  0  0  0
  1 30  2  0  0  0
  1 82  1  0  0  0
  2  3  1  0  0  0
  2 25  1  0  0  0
  2 85  1  0  0  0
  2 86  1  0  0  0
  3  4  1  0  0  0
  3 87  1  0  0  0
  3 88  1  0  0  0
  4  5  1  0  0  0
  4 89  1  0  0  0
  4 90  1  0  0  0
  5  6  1  0  0  0
  5 26  1  0  0  0
  5 91  1  0  0  0
  6 25  1  0  0  0
  6 92  1  0  0  0
  6 93  1  0  0  0
  7  8  2  0  0  0
  7 26  1  0  0  0
  7 29  1  0  0  0
  8  9  1  0  0  0
  8 22  1  0  0  0
  9 10  1  0  0  0
  9 27  2  0  0  0
 10 11  2  0  0  0
 10 15  1  0  0  0
 11 12  1  0  0  0
 11 94  1  0  0  0
 12 13  2  0  0  0
 12 95  1  0  0  0
 13 14  1  0  0  0
 13 31  1  0  0  0
 14 15  2  0  0  0
 14 96  1  0  0  0
 15 97  1  0  0  0
 16 17  2  0  0  0
 16 21  1  0  0  0
 16 31  1  0  0  0
 17 18  1  0  0  0
 17 98  1  0  0  0
 18 19  2  0  0  0
 18 99  1  0  0  0
 19 20  1  0  0  0
 19 24  1  0  0  0
 20 21  2  0  0  0
 20100  1  0  0  0
 21 23  1  0  0  0
 22 28  1  0  0  0
 22 32  2  0  0  0
 26 27  1  0  0  0
 28101  1  0  0  0
 28102  1  0  0  0
 29103  1  0  0  0
 29104  1  0  0  0
 33 34  1  0  0  0
 33 66  1  0  0  0
 33 70  2  0  0  0
 34 36  1  0  0  0
 34 59  1  0  0  0
 34105  1  0  0  0
 35 44  2  0  0  0
 35 45  1  0  0  0
 35 68  1  0  0  0
 36 56  1  0  0  0
 36106  1  0  0  0
 37 39  1  0  0  0
 37 47  1  0  0  0
 37 66  1  0  0  0
 37107  1  0  0  0
 38 43  2  0  0  0
 38 46  1  0  0  0
 38 47  1  0  0  0
 39 64  1  0  0  0
 39 67  2  0  0  0
 40 52  1  0  0  0
 40 53  2  0  0  0
 40 58  1  0  0  0
 41108  1  0  0  0
 41109  1  0  0  0
 41110  1  0  0  0
 41 48  1  0  0  0
 42 43  1  0  0  0
 42 66  1  0  0  0
 42111  1  0  0  0
 42112  1  0  0  0
 43 44  1  0  0  0
 44113  1  0  0  0
 45 46  2  0  0  0
 45114  1  0  0  0
 46115  1  0  0  0
 47116  1  0  0  0
 47117  1  0  0  0
 48 56  1  0  0  0
 48 65  1  0  0  0
 48118  1  0  0  0
 49 50  1  0  0  0
 49 53  1  0  0  0
 49 64  1  0  0  0
 49119  1  0  0  0
 50 51  1  0  0  0
 50120  1  0  0  0
 50121  1  0  0  0
 51 52  1  0  0  0
 51122  1  0  0  0
 51123  1  0  0  0
 52124  1  0  0  0
 52125  1  0  0  0
 53 54  1  0  0  0
 54 55  2  0  0  0
 54126  1  0  0  0
 55 57  1  0  0  0
 55127  1  0  0  0
 56 69  2  0  0  0
 57 58  2  0  0  0
 57128  1  0  0  0
 58129  1  0  0  0
 59 60  1  0  0  0
 59 61  1  0  0  0
 59 62  1  0  0  0
 60130  1  0  0  0
 60131  1  0  0  0
 60132  1  0  0  0
 61133  1  0  0  0
 61134  1  0  0  0
 61135  1  0  0  0
 62136  1  0  0  0
 62137  1  0  0  0
 62138  1  0  0  0
 63 65  1  0  0  0
 63139  1  0  0  0
 63140  1  0  0  0
 63141  1  0  0  0
 64142  1  0  0  0
 65143  1  0  0  0
 68 81  1  0  0  0
 71 73  2  0  0  0
 71 76  1  0  0  0
 71144  1  0  0  0
 72 74  1  0  0  0
 72 76  2  0  0  0
 72145  1  0  0  0
 73 75  1  0  0  0
 73 78  1  0  0  0
 74 75  2  0  0  0
 74 79  1  0  0  0
 75 77  1  0  0  0
 76 84  1  0  0  0
 77146  1  0  0  0
 77147  1  0  0  0
 77148  1  0  0  0
 78 82  1  0  0  0
 78149  1  0  0  0
 78150  1  0  0  0
 79 83  1  0  0  0
 79151  1  0  0  0
 79152  1  0  0  0
 80 81  1  0  0  0
 80 83  1  0  0  0
 80153  1  0  0  0
 80154  1  0  0  0
 81155  1  0  0  0
 81156  1  0  0  0
 82157  1  0  0  0
 83158  1  0  0  0
 83159  1  0  0  0
M  CHG  1  83   1
M  ISO  4   1 100  68 101  81 101  82 100
M  END
> <chiral flag>
0

> <version>
0

> <s_m_source_file>
/data/baiqing/PycharmProjects/Reinvent-master-3.2/result/LINK_invent/BTK/process_docking_weight1_custom_product_contain_oxygen_bond_distance_aromatic_linkinvent_7_9_3/rearranged_h_0040.sdf

> <i_m_source_file_index>
12

> <r_mmod_Potential_Energy-OPLS-2005>
-256.007904052734

> <r_mmod_Stretch_Energy-OPLS-2005>
52.4872970581055

> <r_mmod_Bend_Energy-OPLS-2005>
116.532775878906

> <r_mmod_Torsional_Energy-OPLS-2005>
189.747268676758

> <r_mmod_Improper_Torsional_Energy-OPLS-2005>
6.44265985488892

> <r_mmod_Van_der_Waal_Energy-OPLS-2005>
144.710830688477

> <r_mmod_Electrostatic_Energy-OPLS-2005>
-321.295288085938

> <r_mmod_Solvation_Energy-OPLS-2005>
-466.523712158203

> <b_mmod_Minimization_Converged-OPLS-2005>
0

> <r_mmod_RMS_Derivative-OPLS-2005>
6.00212907791138

$$$$
12
                    3D
 Structure written by MMmdl.
159167  0  0  1  0            999 V2000
  -30.6724  -14.7814   20.4049 C   0  0  0  0  0  0
  -30.4358  -12.4516   19.5583 C   0  0  0  0  0  0
  -29.5348  -12.3610   18.3021 C   0  0  0  0  0  0
  -28.0369  -12.3129   18.6522 C   0  0  0  0  0  0
  -27.6323  -13.2604   19.8148 C   0  0  2  0  0  0
  -28.6625  -13.3081   20.9665 C   0  0  0  0  0  0
  -25.2596  -13.8413   20.5578 C   0  0  0  0  0  0
  -24.1909  -13.0645   20.9131 C   0  0  0  0  0  0
  -24.6438  -11.7139   20.8505 C   0  0  0  0  0  0
  -23.9101  -10.4448   21.0126 C   0  0  0  0  0  0
  -24.3651   -9.4476   21.8963 C   0  0  0  0  0  0
  -23.6411   -8.2457   22.0670 C   0  0  0  0  0  0
  -22.4374   -8.0426   21.3534 C   0  0  0  0  0  0
  -21.9967   -9.0287   20.4587 C   0  0  0  0  0  0
  -22.7197  -10.2247   20.2889 C   0  0  0  0  0  0
  -21.6982   -6.0926   22.5348 C   0  0  0  0  0  0
  -21.4112   -6.5786   23.8291 C   0  0  0  0  0  0
  -21.3624   -5.6885   24.9183 C   0  0  0  0  0  0
  -21.5989   -4.3150   24.7168 C   0  0  0  0  0  0
  -21.8885   -3.8307   23.4325 C   0  0  0  0  0  0
  -21.9303   -4.7148   22.3397 C   0  0  0  0  0  0
  -22.7931  -13.5381   21.1896 C   0  0  0  0  0  0
  -22.1741   -4.2394   21.0958 F   0  0  0  0  0  0
  -21.5494   -3.4534   25.7618 F   0  0  0  0  0  0
  -29.9873  -13.5867   20.3903 N   0  0  0  0  0  0
  -26.2947  -12.9586   20.3029 N   0  0  0  0  0  0
  -25.9369  -11.6738   20.5526 N   0  0  0  0  0  0
  -22.0584  -12.8224   22.0357 N   0  0  0  0  0  0
  -25.4405  -15.2092   20.4162 N   0  0  0  0  0  0
  -31.8735  -14.7922   20.1258 O   0  0  0  0  0  0
  -21.6747   -6.9030   21.4304 O   0  0  0  0  0  0
  -22.3550  -14.5643   20.6780 O   0  0  0  0  0  0
  -24.6363  -31.8502   23.1976 C   0  0  0  0  0  0
  -25.9177  -32.4748   23.8333 C   0  0  1  0  0  0
  -27.2177  -27.2202   20.1362 C   0  0  0  0  0  0
  -25.5938  -33.8539   24.2258 N   0  0  0  0  0  0
  -23.4375  -30.4712   21.5368 C   0  0  2  0  0  0
  -24.8878  -28.9157   20.1122 C   0  0  0  0  0  0
  -22.7544  -29.4553   22.4835 C   0  0  0  0  0  0
  -18.0300  -28.1398   22.8470 C   0  0  0  0  0  0
  -24.1485  -36.7286   23.2643 C   0  0  0  0  0  0
  -25.9848  -30.7501   21.3905 C   0  0  0  0  0  0
  -26.0585  -29.3689   20.7307 C   0  0  0  0  0  0
  -27.2239  -28.5285   20.7409 C   0  0  0  0  0  0
  -26.0268  -26.8533   19.4691 C   0  0  0  0  0  0
  -24.8780  -27.6681   19.4716 C   0  0  0  0  0  0
  -23.6653  -29.8118   20.1525 C   0  0  0  0  0  0
  -25.4113  -36.3047   24.0317 C   0  0  1  0  0  0
  -20.5917  -28.3719   23.1243 C   0  0  2  0  0  0
  -20.6774  -26.9421   22.5404 C   0  0  0  0  0  0
  -19.5734  -26.6374   21.5215 C   0  0  0  0  0  0
  -18.1924  -26.7933   22.1638 C   0  0  0  0  0  0
  -19.1560  -28.8863   23.2868 C   0  0  0  0  0  0
  -18.9478  -30.1464   23.8888 C   0  0  0  0  0  0
  -17.6470  -30.6585   24.0566 C   0  0  0  0  0  0
  -25.9053  -34.9420   23.5101 C   0  0  0  0  0  0
  -16.5361  -29.9079   23.6326 C   0  0  0  0  0  0
  -16.7292  -28.6507   23.0341 C   0  0  0  0  0  0
  -26.4516  -31.6576   25.0739 C   0  0  0  0  0  0
  -25.3745  -31.3747   26.1482 C   0  0  0  0  0  0
  -27.0392  -30.2975   24.6293 C   0  0  0  0  0  0
  -27.6030  -32.4337   25.7565 C   0  0  0  0  0  0
  -27.5574  -37.1810   24.8466 C   0  0  0  0  0  0
  -21.4239  -29.3069   22.3640 N   0  0  0  0  0  0
  -26.4280  -37.3752   23.9415 N   0  0  0  0  0  0
  -24.7031  -31.0426   22.0985 N   0  0  0  0  0  0
  -23.4231  -28.8063   23.2917 O   0  0  0  0  0  0
  -28.3008  -26.3013   20.2101 O   0  0  0  0  0  0
  -26.5618  -34.8911   22.4672 O   0  0  0  0  0  0
  -23.5491  -32.1331   23.7216 O   0  0  0  0  0  0
  -28.3427  -17.0577   17.5215 C   0  0  0  0  0  0
  -27.8724  -18.6653   19.2654 C   0  0  0  0  0  0
  -29.5081  -16.6331   18.1959 C   0  0  0  0  0  0
  -29.1062  -18.3454   19.8772 C   0  0  0  0  0  0
  -29.7312  -17.0595   19.5444 C   0  0  0  0  0  0
  -27.4691  -17.9887   18.0993 C   0  0  0  0  0  0
  -30.4954  -15.8098   17.3736 C   0  0  0  0  0  0
  -29.9202  -19.6052   20.3949 C   0  0  0  0  0  0
  -28.9788  -23.6153   20.5320 C   0  0  0  0  0  0
  -28.9512  -22.1017   19.9138 C   0  0  0  0  0  0
  -28.1063  -24.8290   19.8872 C   0  0  0  0  0  0
  -29.9869  -15.9806   20.5429 N   0  0  0  0  0  0
  -29.2447  -20.9144   20.8450 N   0  3  0  0  0  0
  -26.0013  -18.4120   17.2984 Cl  0  0  0  0  0  0
  -31.4883  -12.5170   19.2902 H   0  0  0  0  0  0
  -30.3612  -11.5489   20.1631 H   0  0  0  0  0  0
  -29.7949  -11.4519   17.7561 H   0  0  0  0  0  0
  -29.7420  -13.1680   17.6006 H   0  0  0  0  0  0
  -27.7967  -11.2855   18.9187 H   0  0  0  0  0  0
  -27.4370  -12.5385   17.7642 H   0  0  0  0  0  0
  -27.5730  -14.2591   19.3710 H   0  0  0  0  0  0
  -28.3598  -14.1040   21.6438 H   0  0  0  0  0  0
  -28.6637  -12.4007   21.5674 H   0  0  0  0  0  0
  -25.2804   -9.6139   22.4453 H   0  0  0  0  0  0
  -24.0328   -7.4985   22.7394 H   0  0  0  0  0  0
  -21.0968   -8.8705   19.8833 H   0  0  0  0  0  0
  -22.3521  -10.9698   19.6030 H   0  0  0  0  0  0
  -21.2083   -7.6290   23.9872 H   0  0  0  0  0  0
  -21.1272   -6.0490   25.9086 H   0  0  0  0  0  0
  -22.0592   -2.7751   23.2665 H   0  0  0  0  0  0
  -22.4425  -12.0068   22.4833 H   0  0  0  0  0  0
  -21.1105  -13.0980   22.2505 H   0  0  0  0  0  0
  -24.6670  -15.8453   20.5737 H   0  0  0  0  0  0
  -26.2790  -15.6683   20.0879 H   0  0  0  0  0  0
  -26.7254  -32.5374   23.1099 H   0  0  0  0  0  0
  -25.0081  -33.9675   25.0398 H   0  0  0  0  0  0
  -22.7392  -31.2952   21.3864 H   0  0  0  0  0  0
  -23.3727  -35.9643   23.3299 H   0  0  0  0  0  0
  -24.3571  -36.8925   22.2061 H   0  0  0  0  0  0
  -23.7278  -37.6495   23.6680 H   0  0  0  0  0  0
  -26.1340  -31.5017   20.6139 H   0  0  0  0  0  0
  -26.8623  -30.7967   22.0231 H   0  0  0  0  0  0
  -28.1133  -28.8542   21.2667 H   0  0  0  0  0  0
  -25.9511  -25.9041   18.9593 H   0  0  0  0  0  0
  -23.9860  -27.3228   18.9690 H   0  0  0  0  0  0
  -23.8128  -30.5900   19.4018 H   0  0  0  0  0  0
  -22.7838  -29.2553   19.8266 H   0  0  0  0  0  0
  -25.1301  -36.1875   25.0795 H   0  0  0  0  0  0
  -21.0026  -28.3290   24.1362 H   0  0  0  0  0  0
  -20.5636  -26.2325   23.3631 H   0  0  0  0  0  0
  -21.6644  -26.7390   22.1225 H   0  0  0  0  0  0
  -19.6891  -25.6274   21.1259 H   0  0  0  0  0  0
  -19.6674  -27.3173   20.6736 H   0  0  0  0  0  0
  -17.4200  -26.6684   21.4047 H   0  0  0  0  0  0
  -18.0335  -26.0083   22.9039 H   0  0  0  0  0  0
  -19.7952  -30.7291   24.2259 H   0  0  0  0  0  0
  -17.5019  -31.6264   24.5189 H   0  0  0  0  0  0
  -15.5364  -30.2988   23.7635 H   0  0  0  0  0  0
  -15.8704  -28.0834   22.7044 H   0  0  0  0  0  0
  -24.5908  -30.7102   25.7857 H   0  0  0  0  0  0
  -24.8952  -32.2911   26.4903 H   0  0  0  0  0  0
  -25.8060  -30.8945   27.0281 H   0  0  0  0  0  0
  -26.2999  -29.6724   24.1279 H   0  0  0  0  0  0
  -27.4012  -29.7247   25.4845 H   0  0  0  0  0  0
  -27.8898  -30.4247   23.9605 H   0  0  0  0  0  0
  -27.2592  -33.3635   26.2140 H   0  0  0  0  0  0
  -28.3876  -32.6941   25.0436 H   0  0  0  0  0  0
  -28.0690  -31.8491   26.5522 H   0  0  0  0  0  0
  -28.2576  -38.0115   24.7485 H   0  0  0  0  0  0
  -28.1075  -36.2640   24.6297 H   0  0  0  0  0  0
  -27.2299  -37.1477   25.8871 H   0  0  0  0  0  0
  -20.9424  -29.8880   21.6931 H   0  0  0  0  0  0
  -26.0138  -38.2820   24.1389 H   0  0  0  0  0  0
  -28.1128  -16.6638   16.5399 H   0  0  0  0  0  0
  -27.3070  -19.5306   19.5749 H   0  0  0  0  0  0
  -29.9594  -15.1606   16.6801 H   0  0  0  0  0  0
  -31.1852  -15.1896   17.9225 H   0  0  0  0  0  0
  -31.1172  -16.4803   16.7758 H   0  0  0  0  0  0
  -30.6447  -19.8721   19.6277 H   0  0  0  0  0  0
  -30.5289  -19.2602   21.2309 H   0  0  0  0  0  0
  -30.0236  -23.9255   20.5497 H   0  0  0  0  0  0
  -28.6943  -23.5468   21.5807 H   0  0  0  0  0  0
  -29.6663  -22.0684   19.0937 H   0  0  0  0  0  0
  -27.9775  -21.9120   19.4584 H   0  0  0  0  0  0
  -27.0897  -24.5576   20.1741 H   0  0  0  0  0  0
  -28.1586  -24.7443   18.8046 H   0  0  0  0  0  0
  -29.2512  -15.9278   21.2385 H   0  0  0  0  0  0
  -29.8989  -21.2754   21.5237 H   0  0  0  0  0  0
  -28.4152  -20.6818   21.3636 H   0  0  0  0  0  0
  1 25  1  0  0  0
  1 30  2  0  0  0
  1 82  1  0  0  0
  2  3  1  0  0  0
  2 25  1  0  0  0
  2 85  1  0  0  0
  2 86  1  0  0  0
  3  4  1  0  0  0
  3 87  1  0  0  0
  3 88  1  0  0  0
  4  5  1  0  0  0
  4 89  1  0  0  0
  4 90  1  0  0  0
  5  6  1  0  0  0
  5 26  1  0  0  0
  5 91  1  0  0  0
  6 25  1  0  0  0
  6 92  1  0  0  0
  6 93  1  0  0  0
  7  8  2  0  0  0
  7 26  1  0  0  0
  7 29  1  0  0  0
  8  9  1  0  0  0
  8 22  1  0  0  0
  9 10  1  0  0  0
  9 27  2  0  0  0
 10 11  2  0  0  0
 10 15  1  0  0  0
 11 12  1  0  0  0
 11 94  1  0  0  0
 12 13  2  0  0  0
 12 95  1  0  0  0
 13 14  1  0  0  0
 13 31  1  0  0  0
 14 15  2  0  0  0
 14 96  1  0  0  0
 15 97  1  0  0  0
 16 17  2  0  0  0
 16 21  1  0  0  0
 16 31  1  0  0  0
 17 18  1  0  0  0
 17 98  1  0  0  0
 18 19  2  0  0  0
 18 99  1  0  0  0
 19 20  1  0  0  0
 19 24  1  0  0  0
 20 21  2  0  0  0
 20100  1  0  0  0
 21 23  1  0  0  0
 22 28  1  0  0  0
 22 32  2  0  0  0
 26 27  1  0  0  0
 28101  1  0  0  0
 28102  1  0  0  0
 29103  1  0  0  0
 29104  1  0  0  0
 33 34  1  0  0  0
 33 66  1  0  0  0
 33 70  2  0  0  0
 34 36  1  0  0  0
 34 59  1  0  0  0
 34105  1  0  0  0
 35 44  2  0  0  0
 35 45  1  0  0  0
 35 68  1  0  0  0
 36 56  1  0  0  0
 36106  1  0  0  0
 37 39  1  0  0  0
 37 47  1  0  0  0
 37 66  1  0  0  0
 37107  1  0  0  0
 38 43  2  0  0  0
 38 46  1  0  0  0
 38 47  1  0  0  0
 39 64  1  0  0  0
 39 67  2  0  0  0
 40 52  1  0  0  0
 40 53  2  0  0  0
 40 58  1  0  0  0
 41108  1  0  0  0
 41109  1  0  0  0
 41110  1  0  0  0
 41 48  1  0  0  0
 42 43  1  0  0  0
 42 66  1  0  0  0
 42111  1  0  0  0
 42112  1  0  0  0
 43 44  1  0  0  0
 44113  1  0  0  0
 45 46  2  0  0  0
 45114  1  0  0  0
 46115  1  0  0  0
 47116  1  0  0  0
 47117  1  0  0  0
 48 56  1  0  0  0
 48 65  1  0  0  0
 48118  1  0  0  0
 49 50  1  0  0  0
 49 53  1  0  0  0
 49 64  1  0  0  0
 49119  1  0  0  0
 50 51  1  0  0  0
 50120  1  0  0  0
 50121  1  0  0  0
 51 52  1  0  0  0
 51122  1  0  0  0
 51123  1  0  0  0
 52124  1  0  0  0
 52125  1  0  0  0
 53 54  1  0  0  0
 54 55  2  0  0  0
 54126  1  0  0  0
 55 57  1  0  0  0
 55127  1  0  0  0
 56 69  2  0  0  0
 57 58  2  0  0  0
 57128  1  0  0  0
 58129  1  0  0  0
 59 60  1  0  0  0
 59 61  1  0  0  0
 59 62  1  0  0  0
 60130  1  0  0  0
 60131  1  0  0  0
 60132  1  0  0  0
 61133  1  0  0  0
 61134  1  0  0  0
 61135  1  0  0  0
 62136  1  0  0  0
 62137  1  0  0  0
 62138  1  0  0  0
 63 65  1  0  0  0
 63139  1  0  0  0
 63140  1  0  0  0
 63141  1  0  0  0
 64142  1  0  0  0
 65143  1  0  0  0
 68 81  1  0  0  0
 71 73  2  0  0  0
 71 76  1  0  0  0
 71144  1  0  0  0
 72 74  1  0  0  0
 72 76  2  0  0  0
 72145  1  0  0  0
 73 75  1  0  0  0
 73 77  1  0  0  0
 74 75  2  0  0  0
 74 78  1  0  0  0
 75 82  1  0  0  0
 76 84  1  0  0  0
 77146  1  0  0  0
 77147  1  0  0  0
 77148  1  0  0  0
 78 83  1  0  0  0
 78149  1  0  0  0
 78150  1  0  0  0
 79 80  1  0  0  0
 79 81  1  0  0  0
 79151  1  0  0  0
 79152  1  0  0  0
 80 83  1  0  0  0
 80153  1  0  0  0
 80154  1  0  0  0
 81155  1  0  0  0
 81156  1  0  0  0
 82157  1  0  0  0
 83158  1  0  0  0
 83159  1  0  0  0
M  CHG  1  83   1
M  ISO  4   1 100  68 101  81 101  82 100
M  END
> <chiral flag>
0

> <version>
0

> <s_m_source_file>
/data/baiqing/PycharmProjects/Reinvent-master-3.2/result/LINK_invent/BTK/process_docking_weight1_custom_product_contain_oxygen_bond_distance_aromatic_linkinvent_7_9_3/rearranged_h_0040.sdf

> <i_m_source_file_index>
13

> <r_mmod_Potential_Energy-OPLS-2005>
248.524139404297

> <r_mmod_Stretch_Energy-OPLS-2005>
137.444488525391

> <r_mmod_Bend_Energy-OPLS-2005>
198.940826416016

> <r_mmod_Torsional_Energy-OPLS-2005>
441.616363525391

> <r_mmod_Improper_Torsional_Energy-OPLS-2005>
19.8933525085449

> <r_mmod_Van_der_Waal_Energy-OPLS-2005>
138.910049438477

> <r_mmod_Electrostatic_Energy-OPLS-2005>
-314.886566162109

> <r_mmod_Solvation_Energy-OPLS-2005>
-496.526733398438

> <b_mmod_Minimization_Converged-OPLS-2005>
0

> <r_mmod_RMS_Derivative-OPLS-2005>
12.179762840271

$$$$
13
                    3D
 Structure written by MMmdl.
162170  0  0  1  0            999 V2000
  -30.7294  -14.4493   20.5890 C   0  0  0  0  0  0
  -30.4167  -12.2999   19.4215 C   0  0  0  0  0  0
  -29.4896  -12.5023   18.2060 C   0  0  0  0  0  0
  -28.0113  -12.3704   18.6190 C   0  0  0  0  0  0
  -27.6620  -13.2078   19.8779 C   0  0  2  0  0  0
  -28.7038  -12.9895   20.9999 C   0  0  0  0  0  0
  -25.2540  -13.8106   20.5620 C   0  0  0  0  0  0
  -24.1819  -13.0398   20.9188 C   0  0  0  0  0  0
  -24.6396  -11.6879   20.8772 C   0  0  0  0  0  0
  -23.9073  -10.4273   21.0434 C   0  0  0  0  0  0
  -24.3625   -9.4186   21.9206 C   0  0  0  0  0  0
  -23.6289   -8.2230   22.0767 C   0  0  0  0  0  0
  -22.4272   -8.0283   21.3554 C   0  0  0  0  0  0
  -21.9915   -9.0264   20.4658 C   0  0  0  0  0  0
  -22.7256  -10.2132   20.3072 C   0  0  0  0  0  0
  -21.6853   -6.0729   22.5284 C   0  0  0  0  0  0
  -21.4009   -6.5638   23.8211 C   0  0  0  0  0  0
  -21.3651   -5.6792   24.9176 C   0  0  0  0  0  0
  -21.6047   -4.3057   24.7231 C   0  0  0  0  0  0
  -21.8818   -3.8146   23.4355 C   0  0  0  0  0  0
  -21.9188   -4.6957   22.3405 C   0  0  0  0  0  0
  -22.7856  -13.5223   21.1839 C   0  0  0  0  0  0
  -22.1662   -4.2141   21.0982 F   0  0  0  0  0  0
  -21.5626   -3.4542   25.7743 F   0  0  0  0  0  0
  -30.0389  -13.2836   20.4504 N   0  0  0  0  0  0
  -26.3019  -12.9311   20.3385 N   0  0  0  0  0  0
  -25.9333  -11.6470   20.5827 N   0  0  0  0  0  0
  -22.0483  -12.8236   22.0400 N   0  0  0  0  0  0
  -25.4132  -15.1785   20.3831 N   0  0  0  0  0  0
  -31.8306  -14.6230   20.0603 O   0  0  0  0  0  0
  -21.6638   -6.8879   21.4251 O   0  0  0  0  0  0
  -22.3550  -14.5528   20.6682 O   0  0  0  0  0  0
  -24.6154  -31.8693   23.2127 C   0  0  0  0  0  0
  -25.9048  -32.4834   23.8419 C   0  0  1  0  0  0
  -27.2257  -27.4323   20.0956 C   0  0  0  0  0  0
  -25.5900  -33.8629   24.2348 N   0  0  0  0  0  0
  -23.4004  -30.4955   21.5547 C   0  0  2  0  0  0
  -24.8432  -28.9671   20.1118 C   0  0  0  0  0  0
  -22.7405  -29.4664   22.5007 C   0  0  0  0  0  0
  -18.0265  -28.1377   22.8502 C   0  0  0  0  0  0
  -24.1470  -36.7322   23.2637 C   0  0  0  0  0  0
  -25.9291  -30.8390   21.3602 C   0  0  0  0  0  0
  -26.0052  -29.4726   20.7079 C   0  0  0  0  0  0
  -27.1991  -28.7136   20.6950 C   0  0  0  0  0  0
  -26.0431  -26.9530   19.4793 C   0  0  0  0  0  0
  -24.8574  -27.7079   19.4928 C   0  0  0  0  0  0
  -23.6049  -29.8324   20.1672 C   0  0  0  0  0  0
  -25.4084  -36.3124   24.0347 C   0  0  1  0  0  0
  -20.5857  -28.3655   23.1324 C   0  0  2  0  0  0
  -20.6749  -26.9395   22.5419 C   0  0  0  0  0  0
  -19.5727  -26.6388   21.5211 C   0  0  0  0  0  0
  -18.1907  -26.7925   22.1632 C   0  0  0  0  0  0
  -19.1519  -28.8830   23.2912 C   0  0  0  0  0  0
  -18.9453  -30.1437   23.8919 C   0  0  0  0  0  0
  -17.6458  -30.6587   24.0563 C   0  0  0  0  0  0
  -25.9017  -34.9486   23.5145 C   0  0  0  0  0  0
  -16.5345  -29.9090   23.6331 C   0  0  0  0  0  0
  -16.7256  -28.6505   23.0356 C   0  0  0  0  0  0
  -26.4475  -31.6606   25.0738 C   0  0  0  0  0  0
  -25.3757  -31.3709   26.1500 C   0  0  0  0  0  0
  -27.0298  -30.3055   24.6088 C   0  0  0  0  0  0
  -27.6057  -32.4313   25.7500 C   0  0  0  0  0  0
  -27.5569  -37.1813   24.8470 C   0  0  0  0  0  0
  -21.4132  -29.3034   22.3742 N   0  0  0  0  0  0
  -26.4276  -37.3805   23.9423 N   0  0  0  0  0  0
  -24.6674  -31.0809   22.1018 N   0  0  0  0  0  0
  -23.4185  -28.8197   23.3036 O   0  0  0  0  0  0
  -28.3870  -26.6796   20.1417 O   0  0  0  0  0  0
  -26.5583  -34.8939   22.4706 O   0  0  0  0  0  0
  -23.5355  -32.1429   23.7538 O   0  0  0  0  0  0
  -29.4978  -19.1496   21.0295 C   0  0  0  0  0  0
  -31.6583  -17.3714   21.0646 C   0  0  0  0  0  0
  -29.2606  -17.7627   21.2217 C   0  0  0  0  0  0
  -30.8062  -19.6589   20.8467 C   0  0  0  0  0  0
  -30.3480  -16.8477   21.1838 C   0  0  0  0  0  0
  -31.8902  -18.7492   20.8871 C   0  0  0  0  0  0
  -26.7900  -18.2646   21.8896 C   0  0  0  0  0  0
  -27.8361  -17.2412   21.4132 C   0  0  0  0  0  0
  -31.0477  -21.1442   20.5321 C   0  0  0  0  0  0
  -29.3914  -24.4409   20.6145 C   0  0  0  0  0  0
  -29.1271  -22.9146   20.5148 C   0  0  0  0  0  0
  -28.2324  -25.2563   20.0047 C   0  0  0  0  0  0
  -30.0977  -15.4340   21.2627 N   0  0  0  0  0  0
  -30.1334  -22.0820   21.2176 N   0  3  0  0  0  0
  -33.5237  -19.2762   20.6731 Cl  0  0  0  0  0  0
  -31.4607  -12.3867   19.1148 H   0  0  0  0  0  0
  -30.3145  -11.2890   19.8183 H   0  0  0  0  0  0
  -29.7231  -11.7694   17.4324 H   0  0  0  0  0  0
  -29.6644  -13.4841   17.7628 H   0  0  0  0  0  0
  -27.8173  -11.3149   18.8131 H   0  0  0  0  0  0
  -27.3617  -12.6495   17.7884 H   0  0  0  0  0  0
  -27.7080  -14.2566   19.5843 H   0  0  0  0  0  0
  -28.6760  -11.9552   21.3456 H   0  0  0  0  0  0
  -28.4650  -13.5937   21.8760 H   0  0  0  0  0  0
  -25.2763   -9.5649   22.4792 H   0  0  0  0  0  0
  -23.9982   -7.4615   22.7489 H   0  0  0  0  0  0
  -21.0843   -8.8800   19.8971 H   0  0  0  0  0  0
  -22.3727  -10.9683   19.6189 H   0  0  0  0  0  0
  -21.2006   -7.6146   23.9711 H   0  0  0  0  0  0
  -21.1474   -6.0527   25.9075 H   0  0  0  0  0  0
  -22.0603   -2.7611   23.2861 H   0  0  0  0  0  0
  -22.4074  -11.9890   22.4790 H   0  0  0  0  0  0
  -21.1113  -13.1298   22.2607 H   0  0  0  0  0  0
  -24.6353  -15.8234   20.4652 H   0  0  0  0  0  0
  -26.2360  -15.5989   19.9745 H   0  0  0  0  0  0
  -26.7116  -32.5554   23.1185 H   0  0  0  0  0  0
  -25.0057  -33.9780   25.0500 H   0  0  0  0  0  0
  -22.6902  -31.3139   21.4206 H   0  0  0  0  0  0
  -23.3730  -35.9661   23.3315 H   0  0  0  0  0  0
  -24.3564  -36.8922   22.2052 H   0  0  0  0  0  0
  -23.7227  -37.6536   23.6631 H   0  0  0  0  0  0
  -26.0327  -31.6029   20.5882 H   0  0  0  0  0  0
  -26.8218  -30.8989   21.9714 H   0  0  0  0  0  0
  -28.0951  -29.0986   21.1623 H   0  0  0  0  0  0
  -26.0111  -25.9956   18.9815 H   0  0  0  0  0  0
  -23.9655  -27.3170   19.0225 H   0  0  0  0  0  0
  -23.7080  -30.6092   19.4083 H   0  0  0  0  0  0
  -22.7286  -29.2514   19.8739 H   0  0  0  0  0  0
  -25.1256  -36.1994   25.0841 H   0  0  0  0  0  0
  -20.9953  -28.3215   24.1440 H   0  0  0  0  0  0
  -20.5629  -26.2270   23.3606 H   0  0  0  0  0  0
  -21.6620  -26.7421   22.1225 H   0  0  0  0  0  0
  -19.6879  -25.6301   21.1226 H   0  0  0  0  0  0
  -19.6661  -27.3207   20.6749 H   0  0  0  0  0  0
  -17.4174  -26.6679   21.4036 H   0  0  0  0  0  0
  -18.0310  -26.0052   22.9020 H   0  0  0  0  0  0
  -19.7928  -30.7243   24.2308 H   0  0  0  0  0  0
  -17.5015  -31.6270   24.5159 H   0  0  0  0  0  0
  -15.5346  -30.3006   23.7634 H   0  0  0  0  0  0
  -15.8656  -28.0822   22.7078 H   0  0  0  0  0  0
  -24.5916  -30.7059   25.7860 H   0  0  0  0  0  0
  -24.8961  -32.2865   26.4972 H   0  0  0  0  0  0
  -25.8129  -30.8877   27.0248 H   0  0  0  0  0  0
  -26.2834  -29.6828   24.1137 H   0  0  0  0  0  0
  -27.4082  -29.7272   25.4531 H   0  0  0  0  0  0
  -27.8662  -30.4393   23.9220 H   0  0  0  0  0  0
  -27.2675  -33.3588   26.2127 H   0  0  0  0  0  0
  -28.3840  -32.6908   25.0313 H   0  0  0  0  0  0
  -28.0745  -31.8405   26.5380 H   0  0  0  0  0  0
  -28.2606  -38.0092   24.7506 H   0  0  0  0  0  0
  -28.1047  -36.2631   24.6296 H   0  0  0  0  0  0
  -27.2299  -37.1472   25.8877 H   0  0  0  0  0  0
  -20.9286  -29.8794   21.6996 H   0  0  0  0  0  0
  -26.0174  -38.2887   24.1429 H   0  0  0  0  0  0
  -28.6590  -19.8272   20.9988 H   0  0  0  0  0  0
  -32.5169  -16.7177   21.0800 H   0  0  0  0  0  0
  -25.8415  -17.7672   22.0970 H   0  0  0  0  0  0
  -26.5897  -19.0292   21.1385 H   0  0  0  0  0  0
  -27.1004  -18.7582   22.8114 H   0  0  0  0  0  0
  -27.8466  -16.4255   22.1366 H   0  0  0  0  0  0
  -27.5209  -16.8137   20.4640 H   0  0  0  0  0  0
  -30.9951  -21.2817   19.4514 H   0  0  0  0  0  0
  -32.0529  -21.4429   20.8269 H   0  0  0  0  0  0
  -30.3232  -24.7024   20.1117 H   0  0  0  0  0  0
  -29.5106  -24.7250   21.6612 H   0  0  0  0  0  0
  -29.0544  -22.6162   19.4669 H   0  0  0  0  0  0
  -28.1587  -22.6816   20.9604 H   0  0  0  0  0  0
  -28.1306  -25.0109   18.9466 H   0  0  0  0  0  0
  -27.3189  -24.9276   20.5053 H   0  0  0  0  0  0
  -29.2017  -15.1614   21.6356 H   0  0  0  0  0  0
  -29.5243  -21.3414   20.9101 H   0  0  0  0  0  0
  -30.7775  -22.6977   20.7500 H   0  0  0  0  0  0
  1 25  1  0  0  0
  1 30  2  0  0  0
  1 83  1  0  0  0
  2  3  1  0  0  0
  2 25  1  0  0  0
  2 86  1  0  0  0
  2 87  1  0  0  0
  3  4  1  0  0  0
  3 88  1  0  0  0
  3 89  1  0  0  0
  4  5  1  0  0  0
  4 90  1  0  0  0
  4 91  1  0  0  0
  5  6  1  0  0  0
  5 26  1  0  0  0
  5 92  1  0  0  0
  6 25  1  0  0  0
  6 93  1  0  0  0
  6 94  1  0  0  0
  7  8  2  0  0  0
  7 26  1  0  0  0
  7 29  1  0  0  0
  8  9  1  0  0  0
  8 22  1  0  0  0
  9 10  1  0  0  0
  9 27  2  0  0  0
 10 11  2  0  0  0
 10 15  1  0  0  0
 11 12  1  0  0  0
 11 95  1  0  0  0
 12 13  2  0  0  0
 12 96  1  0  0  0
 13 14  1  0  0  0
 13 31  1  0  0  0
 14 15  2  0  0  0
 14 97  1  0  0  0
 15 98  1  0  0  0
 16 17  2  0  0  0
 16 21  1  0  0  0
 16 31  1  0  0  0
 17 18  1  0  0  0
 17 99  1  0  0  0
 18 19  2  0  0  0
 18100  1  0  0  0
 19 20  1  0  0  0
 19 24  1  0  0  0
 20 21  2  0  0  0
 20101  1  0  0  0
 21 23  1  0  0  0
 22 28  1  0  0  0
 22 32  2  0  0  0
 26 27  1  0  0  0
 28102  1  0  0  0
 28103  1  0  0  0
 29104  1  0  0  0
 29105  1  0  0  0
 33 34  1  0  0  0
 33 66  1  0  0  0
 33 70  2  0  0  0
 34 36  1  0  0  0
 34 59  1  0  0  0
 34106  1  0  0  0
 35 44  2  0  0  0
 35 45  1  0  0  0
 35 68  1  0  0  0
 36 56  1  0  0  0
 36107  1  0  0  0
 37 39  1  0  0  0
 37 47  1  0  0  0
 37 66  1  0  0  0
 37108  1  0  0  0
 38 43  2  0  0  0
 38 46  1  0  0  0
 38 47  1  0  0  0
 39 64  1  0  0  0
 39 67  2  0  0  0
 40 52  1  0  0  0
 40 53  2  0  0  0
 40 58  1  0  0  0
 41109  1  0  0  0
 41110  1  0  0  0
 41111  1  0  0  0
 41 48  1  0  0  0
 42 43  1  0  0  0
 42 66  1  0  0  0
 42112  1  0  0  0
 42113  1  0  0  0
 43 44  1  0  0  0
 44114  1  0  0  0
 45 46  2  0  0  0
 45115  1  0  0  0
 46116  1  0  0  0
 47117  1  0  0  0
 47118  1  0  0  0
 48 56  1  0  0  0
 48 65  1  0  0  0
 48119  1  0  0  0
 49 50  1  0  0  0
 49 53  1  0  0  0
 49 64  1  0  0  0
 49120  1  0  0  0
 50 51  1  0  0  0
 50121  1  0  0  0
 50122  1  0  0  0
 51 52  1  0  0  0
 51123  1  0  0  0
 51124  1  0  0  0
 52125  1  0  0  0
 52126  1  0  0  0
 53 54  1  0  0  0
 54 55  2  0  0  0
 54127  1  0  0  0
 55 57  1  0  0  0
 55128  1  0  0  0
 56 69  2  0  0  0
 57 58  2  0  0  0
 57129  1  0  0  0
 58130  1  0  0  0
 59 60  1  0  0  0
 59 61  1  0  0  0
 59 62  1  0  0  0
 60131  1  0  0  0
 60132  1  0  0  0
 60133  1  0  0  0
 61134  1  0  0  0
 61135  1  0  0  0
 61136  1  0  0  0
 62137  1  0  0  0
 62138  1  0  0  0
 62139  1  0  0  0
 63 65  1  0  0  0
 63140  1  0  0  0
 63141  1  0  0  0
 63142  1  0  0  0
 64143  1  0  0  0
 65144  1  0  0  0
 68 82  1  0  0  0
 71 73  2  0  0  0
 71 74  1  0  0  0
 71145  1  0  0  0
 72 75  2  0  0  0
 72 76  1  0  0  0
 72146  1  0  0  0
 73 75  1  0  0  0
 73 78  1  0  0  0
 74 76  2  0  0  0
 74 79  1  0  0  0
 75 83  1  0  0  0
 76 85  1  0  0  0
 77 78  1  0  0  0
 77147  1  0  0  0
 77148  1  0  0  0
 77149  1  0  0  0
 78150  1  0  0  0
 78151  1  0  0  0
 79 84  1  0  0  0
 79152  1  0  0  0
 79153  1  0  0  0
 80 81  1  0  0  0
 80 82  1  0  0  0
 80154  1  0  0  0
 80155  1  0  0  0
 81 84  1  0  0  0
 81156  1  0  0  0
 81157  1  0  0  0
 82158  1  0  0  0
 82159  1  0  0  0
 83160  1  0  0  0
 84161  1  0  0  0
 84162  1  0  0  0
M  CHG  1  84   1
M  ISO  4   1 100  68 101  82 101  83 100
M  END
> <chiral flag>
0

> <version>
0

> <s_m_source_file>
/data/baiqing/PycharmProjects/Reinvent-master-3.2/result/LINK_invent/BTK/process_docking_weight1_custom_product_contain_oxygen_bond_distance_aromatic_linkinvent_7_9_3/rearranged_h_0040.sdf

> <i_m_source_file_index>
14

> <r_mmod_Potential_Energy-OPLS-2005>
-50.6306304931641

> <r_mmod_Stretch_Energy-OPLS-2005>
39.562629699707

> <r_mmod_Bend_Energy-OPLS-2005>
296.154205322266

> <r_mmod_Torsional_Energy-OPLS-2005>
216.464172363281

> <r_mmod_Improper_Torsional_Energy-OPLS-2005>
3.90744471549988

> <r_mmod_Van_der_Waal_Energy-OPLS-2005>
161.919860839844

> <r_mmod_Electrostatic_Energy-OPLS-2005>
-297.413269042969

> <r_mmod_Solvation_Energy-OPLS-2005>
-483.787750244141

> <b_mmod_Minimization_Converged-OPLS-2005>
0

> <r_mmod_RMS_Derivative-OPLS-2005>
1.77845919132233

$$$$
14
                    3D
 Structure written by MMmdl.
156164  0  0  1  0            999 V2000
  -30.6284  -14.6262   20.5053 C   0  0  0  0  0  0
  -30.4405  -12.3873   19.4444 C   0  0  0  0  0  0
  -29.5063  -12.5098   18.2199 C   0  0  0  0  0  0
  -28.0293  -12.3465   18.6320 C   0  0  0  0  0  0
  -27.6542  -13.2123   19.8636 C   0  0  2  0  0  0
  -28.7011  -13.0605   20.9907 C   0  0  0  0  0  0
  -25.2559  -13.8153   20.5683 C   0  0  0  0  0  0
  -24.1823  -13.0418   20.9175 C   0  0  0  0  0  0
  -24.6396  -11.6889   20.8725 C   0  0  0  0  0  0
  -23.9064  -10.4276   21.0402 C   0  0  0  0  0  0
  -24.3616   -9.4188   21.9183 C   0  0  0  0  0  0
  -23.6280   -8.2232   22.0756 C   0  0  0  0  0  0
  -22.4265   -8.0276   21.3548 C   0  0  0  0  0  0
  -21.9900   -9.0249   20.4650 C   0  0  0  0  0  0
  -22.7236  -10.2123   20.3055 C   0  0  0  0  0  0
  -21.6848   -6.0723   22.5279 C   0  0  0  0  0  0
  -21.4011   -6.5627   23.8214 C   0  0  0  0  0  0
  -21.3660   -5.6782   24.9176 C   0  0  0  0  0  0
  -21.6050   -4.3045   24.7227 C   0  0  0  0  0  0
  -21.8818   -3.8136   23.4350 C   0  0  0  0  0  0
  -21.9186   -4.6951   22.3403 C   0  0  0  0  0  0
  -22.7848  -13.5221   21.1839 C   0  0  0  0  0  0
  -22.1657   -4.2134   21.0980 F   0  0  0  0  0  0
  -21.5629   -3.4530   25.7743 F   0  0  0  0  0  0
  -30.0177  -13.4023   20.4281 N   0  0  0  0  0  0
  -26.2992  -12.9336   20.3321 N   0  0  0  0  0  0
  -25.9324  -11.6492   20.5744 N   0  0  0  0  0  0
  -22.0487  -12.8228   22.0403 N   0  0  0  0  0  0
  -25.4244  -15.1879   20.4138 N   0  0  0  0  0  0
  -31.7909  -14.7957   20.1267 O   0  0  0  0  0  0
  -21.6629   -6.8872   21.4245 O   0  0  0  0  0  0
  -22.3536  -14.5524   20.6678 O   0  0  0  0  0  0
  -24.6264  -31.8606   23.2027 C   0  0  0  0  0  0
  -25.9115  -32.4779   23.8355 C   0  0  1  0  0  0
  -27.2242  -27.3263   20.1105 C   0  0  0  0  0  0
  -25.5931  -33.8578   24.2282 N   0  0  0  0  0  0
  -23.4191  -30.4855   21.5458 C   0  0  2  0  0  0
  -24.8643  -28.9448   20.1094 C   0  0  0  0  0  0
  -22.7476  -29.4632   22.4935 C   0  0  0  0  0  0
  -18.0284  -28.1388   22.8481 C   0  0  0  0  0  0
  -24.1488  -36.7298   23.2639 C   0  0  0  0  0  0
  -25.9603  -30.7943   21.3721 C   0  0  0  0  0  0
  -26.0340  -29.4231   20.7127 C   0  0  0  0  0  0
  -27.2174  -28.6270   20.7013 C   0  0  0  0  0  0
  -26.0277  -26.9009   19.4846 C   0  0  0  0  0  0
  -24.8637  -27.6900   19.4847 C   0  0  0  0  0  0
  -23.6319  -29.8234   20.1600 C   0  0  0  0  0  0
  -25.4111  -36.3083   24.0329 C   0  0  1  0  0  0
  -20.5886  -28.3690   23.1283 C   0  0  2  0  0  0
  -20.6772  -26.9413   22.5408 C   0  0  0  0  0  0
  -19.5751  -26.6388   21.5206 C   0  0  0  0  0  0
  -18.1930  -26.7932   22.1619 C   0  0  0  0  0  0
  -19.1536  -28.8856   23.2878 C   0  0  0  0  0  0
  -18.9460  -30.1455   23.8898 C   0  0  0  0  0  0
  -17.6459  -30.6587   24.0565 C   0  0  0  0  0  0
  -25.9048  -34.9450   23.5105 C   0  0  0  0  0  0
  -16.5351  -29.9087   23.6326 C   0  0  0  0  0  0
  -16.7271  -28.6506   23.0345 C   0  0  0  0  0  0
  -26.4503  -31.6586   25.0722 C   0  0  0  0  0  0
  -25.3746  -31.3718   26.1456 C   0  0  0  0  0  0
  -27.0344  -30.3012   24.6169 C   0  0  0  0  0  0
  -27.6065  -32.4321   25.7492 C   0  0  0  0  0  0
  -27.5579  -37.1802   24.8463 C   0  0  0  0  0  0
  -21.4188  -29.3045   22.3679 N   0  0  0  0  0  0
  -26.4291  -37.3775   23.9408 N   0  0  0  0  0  0
  -24.6877  -31.0631   22.0969 N   0  0  0  0  0  0
  -23.4201  -28.8164   23.3007 O   0  0  0  0  0  0
  -28.3479  -26.4850   20.1544 O   0  0  0  0  0  0
  -26.5612  -34.8920   22.4668 O   0  0  0  0  0  0
  -23.5433  -32.1402   23.7359 O   0  0  0  0  0  0
  -29.3031  -19.2165   19.5140 C   0  0  0  0  0  0
  -30.6383  -17.9226   21.5997 C   0  0  0  0  0  0
  -29.2741  -17.7916   19.6160 C   0  0  0  0  0  0
  -29.9931  -20.0375   20.4441 C   0  0  0  0  0  0
  -29.9600  -17.1061   20.6595 C   0  0  0  0  0  0
  -30.6580  -19.3461   21.5011 C   0  0  0  0  0  0
  -28.4942  -17.0077   18.5754 C   0  0  0  0  0  0
  -30.1624  -21.5879   20.2020 C   0  0  0  0  0  0
  -29.3361  -24.0319   20.3161 C   0  0  0  0  0  0
  -28.1176  -25.0228   20.0979 C   0  0  0  0  0  0
  -29.8146  -15.6675   20.8563 N   0  0  0  0  0  0
  -29.0064  -22.5428   20.3976 N   0  3  0  0  0  0
  -31.5379  -20.2186   22.7067 Cl  0  0  0  0  0  0
  -31.4808  -12.5153   19.1400 H   0  0  0  0  0  0
  -30.3779  -11.3891   19.8797 H   0  0  0  0  0  0
  -29.7677  -11.7642   17.4677 H   0  0  0  0  0  0
  -29.6468  -13.4826   17.7460 H   0  0  0  0  0  0
  -27.8644  -11.2921   18.8568 H   0  0  0  0  0  0
  -27.3763  -12.5830   17.7912 H   0  0  0  0  0  0
  -27.6715  -14.2474   19.5252 H   0  0  0  0  0  0
  -28.7100  -12.0363   21.3667 H   0  0  0  0  0  0
  -28.4493  -13.6872   21.8473 H   0  0  0  0  0  0
  -25.2768   -9.5642   22.4745 H   0  0  0  0  0  0
  -23.9978   -7.4617   22.7476 H   0  0  0  0  0  0
  -21.0828   -8.8781   19.8955 H   0  0  0  0  0  0
  -22.3715  -10.9660   19.6153 H   0  0  0  0  0  0
  -21.2009   -7.6137   23.9716 H   0  0  0  0  0  0
  -21.1486   -6.0512   25.9080 H   0  0  0  0  0  0
  -22.0597   -2.7595   23.2861 H   0  0  0  0  0  0
  -22.4097  -11.9892   22.4804 H   0  0  0  0  0  0
  -21.1110  -13.1268   22.2610 H   0  0  0  0  0  0
  -24.6557  -15.8388   20.5335 H   0  0  0  0  0  0
  -26.2747  -15.6348   20.1000 H   0  0  0  0  0  0
  -26.7185  -32.5453   23.1108 H   0  0  0  0  0  0
  -25.0080  -33.9723   25.0428 H   0  0  0  0  0  0
  -22.7128  -31.3060   21.4049 H   0  0  0  0  0  0
  -23.3743  -35.9638   23.3303 H   0  0  0  0  0  0
  -24.3580  -36.8916   22.2053 H   0  0  0  0  0  0
  -23.7249  -37.6505   23.6658 H   0  0  0  0  0  0
  -26.0924  -31.5590   20.6052 H   0  0  0  0  0  0
  -26.8411  -30.8413   22.0012 H   0  0  0  0  0  0
  -28.1156  -28.9920   21.1791 H   0  0  0  0  0  0
  -25.9533  -25.9474   18.9858 H   0  0  0  0  0  0
  -23.9692  -27.3219   19.0005 H   0  0  0  0  0  0
  -23.7482  -30.6015   19.4047 H   0  0  0  0  0  0
  -22.7523  -29.2524   19.8577 H   0  0  0  0  0  0
  -25.1290  -36.1936   25.0821 H   0  0  0  0  0  0
  -20.9974  -28.3260   24.1406 H   0  0  0  0  0  0
  -20.5662  -26.2298   23.3604 H   0  0  0  0  0  0
  -21.6643  -26.7437   22.1210 H   0  0  0  0  0  0
  -19.6913  -25.6298   21.1235 H   0  0  0  0  0  0
  -19.6693  -27.3197   20.6735 H   0  0  0  0  0  0
  -17.4196  -26.6669   21.4025 H   0  0  0  0  0  0
  -18.0338  -26.0077   22.9020 H   0  0  0  0  0  0
  -19.7933  -30.7271   24.2272 H   0  0  0  0  0  0
  -17.5012  -31.6265   24.5169 H   0  0  0  0  0  0
  -15.5351  -30.2990   23.7653 H   0  0  0  0  0  0
  -15.8669  -28.0829   22.7059 H   0  0  0  0  0  0
  -24.5919  -30.7067   25.7790 H   0  0  0  0  0  0
  -24.8944  -32.2881   26.4897 H   0  0  0  0  0  0
  -25.8086  -30.8889   27.0220 H   0  0  0  0  0  0
  -26.2911  -29.6758   24.1210 H   0  0  0  0  0  0
  -27.4064  -29.7272   25.4667 H   0  0  0  0  0  0
  -27.8772  -30.4300   23.9375 H   0  0  0  0  0  0
  -27.2672  -33.3613   26.2081 H   0  0  0  0  0  0
  -28.3867  -32.6893   25.0316 H   0  0  0  0  0  0
  -28.0742  -31.8440   26.5399 H   0  0  0  0  0  0
  -28.2596  -38.0099   24.7501 H   0  0  0  0  0  0
  -28.1075  -36.2629   24.6294 H   0  0  0  0  0  0
  -27.2299  -37.1455   25.8868 H   0  0  0  0  0  0
  -20.9360  -29.8785   21.6910 H   0  0  0  0  0  0
  -26.0172  -38.2853   24.1403 H   0  0  0  0  0  0
  -28.8004  -19.6916   18.6831 H   0  0  0  0  0  0
  -31.1466  -17.4557   22.4310 H   0  0  0  0  0  0
  -28.2974  -17.6136   17.6905 H   0  0  0  0  0  0
  -27.5349  -16.6899   18.9816 H   0  0  0  0  0  0
  -29.0455  -16.1244   18.2521 H   0  0  0  0  0  0
  -30.5001  -21.7040   19.1716 H   0  0  0  0  0  0
  -30.9934  -21.9564   20.8007 H   0  0  0  0  0  0
  -29.8604  -24.3111   21.2306 H   0  0  0  0  0  0
  -30.0438  -24.1908   19.5019 H   0  0  0  0  0  0
  -27.3492  -24.7783   20.8330 H   0  0  0  0  0  0
  -27.7061  -24.7759   19.1195 H   0  0  0  0  0  0
  -28.8828  -15.3659   21.0946 H   0  0  0  0  0  0
  -28.5912  -22.3536   21.2963 H   0  0  0  0  0  0
  -28.3157  -22.3158   19.6999 H   0  0  0  0  0  0
  1 25  1  0  0  0
  1 30  2  0  0  0
  1 81  1  0  0  0
  2  3  1  0  0  0
  2 25  1  0  0  0
  2 84  1  0  0  0
  2 85  1  0  0  0
  3  4  1  0  0  0
  3 86  1  0  0  0
  3 87  1  0  0  0
  4  5  1  0  0  0
  4 88  1  0  0  0
  4 89  1  0  0  0
  5  6  1  0  0  0
  5 26  1  0  0  0
  5 90  1  0  0  0
  6 25  1  0  0  0
  6 91  1  0  0  0
  6 92  1  0  0  0
  7  8  2  0  0  0
  7 26  1  0  0  0
  7 29  1  0  0  0
  8  9  1  0  0  0
  8 22  1  0  0  0
  9 10  1  0  0  0
  9 27  2  0  0  0
 10 11  2  0  0  0
 10 15  1  0  0  0
 11 12  1  0  0  0
 11 93  1  0  0  0
 12 13  2  0  0  0
 12 94  1  0  0  0
 13 14  1  0  0  0
 13 31  1  0  0  0
 14 15  2  0  0  0
 14 95  1  0  0  0
 15 96  1  0  0  0
 16 17  2  0  0  0
 16 21  1  0  0  0
 16 31  1  0  0  0
 17 18  1  0  0  0
 17 97  1  0  0  0
 18 19  2  0  0  0
 18 98  1  0  0  0
 19 20  1  0  0  0
 19 24  1  0  0  0
 20 21  2  0  0  0
 20 99  1  0  0  0
 21 23  1  0  0  0
 22 28  1  0  0  0
 22 32  2  0  0  0
 26 27  1  0  0  0
 28100  1  0  0  0
 28101  1  0  0  0
 29102  1  0  0  0
 29103  1  0  0  0
 33 34  1  0  0  0
 33 66  1  0  0  0
 33 70  2  0  0  0
 34 36  1  0  0  0
 34 59  1  0  0  0
 34104  1  0  0  0
 35 44  2  0  0  0
 35 45  1  0  0  0
 35 68  1  0  0  0
 36 56  1  0  0  0
 36105  1  0  0  0
 37 39  1  0  0  0
 37 47  1  0  0  0
 37 66  1  0  0  0
 37106  1  0  0  0
 38 43  2  0  0  0
 38 46  1  0  0  0
 38 47  1  0  0  0
 39 64  1  0  0  0
 39 67  2  0  0  0
 40 52  1  0  0  0
 40 53  2  0  0  0
 40 58  1  0  0  0
 41107  1  0  0  0
 41108  1  0  0  0
 41109  1  0  0  0
 41 48  1  0  0  0
 42 43  1  0  0  0
 42 66  1  0  0  0
 42110  1  0  0  0
 42111  1  0  0  0
 43 44  1  0  0  0
 44112  1  0  0  0
 45 46  2  0  0  0
 45113  1  0  0  0
 46114  1  0  0  0
 47115  1  0  0  0
 47116  1  0  0  0
 48 56  1  0  0  0
 48 65  1  0  0  0
 48117  1  0  0  0
 49 50  1  0  0  0
 49 53  1  0  0  0
 49 64  1  0  0  0
 49118  1  0  0  0
 50 51  1  0  0  0
 50119  1  0  0  0
 50120  1  0  0  0
 51 52  1  0  0  0
 51121  1  0  0  0
 51122  1  0  0  0
 52123  1  0  0  0
 52124  1  0  0  0
 53 54  1  0  0  0
 54 55  2  0  0  0
 54125  1  0  0  0
 55 57  1  0  0  0
 55126  1  0  0  0
 56 69  2  0  0  0
 57 58  2  0  0  0
 57127  1  0  0  0
 58128  1  0  0  0
 59 60  1  0  0  0
 59 61  1  0  0  0
 59 62  1  0  0  0
 60129  1  0  0  0
 60130  1  0  0  0
 60131  1  0  0  0
 61132  1  0  0  0
 61133  1  0  0  0
 61134  1  0  0  0
 62135  1  0  0  0
 62136  1  0  0  0
 62137  1  0  0  0
 63 65  1  0  0  0
 63138  1  0  0  0
 63139  1  0  0  0
 63140  1  0  0  0
 64141  1  0  0  0
 65142  1  0  0  0
 68 80  1  0  0  0
 71 73  2  0  0  0
 71 74  1  0  0  0
 71143  1  0  0  0
 72 75  2  0  0  0
 72 76  1  0  0  0
 72144  1  0  0  0
 73 75  1  0  0  0
 73 77  1  0  0  0
 74 76  2  0  0  0
 74 78  1  0  0  0
 75 81  1  0  0  0
 76 83  1  0  0  0
 77145  1  0  0  0
 77146  1  0  0  0
 77147  1  0  0  0
 78 82  1  0  0  0
 78148  1  0  0  0
 78149  1  0  0  0
 79 80  1  0  0  0
 79 82  1  0  0  0
 79150  1  0  0  0
 79151  1  0  0  0
 80152  1  0  0  0
 80153  1  0  0  0
 81154  1  0  0  0
 82155  1  0  0  0
 82156  1  0  0  0
M  CHG  1  82   1
M  ISO  4   1 100  68 101  80 101  81 100
M  END
> <chiral flag>
0

> <version>
0

> <s_m_source_file>
/data/baiqing/PycharmProjects/Reinvent-master-3.2/result/LINK_invent/BTK/process_docking_weight1_custom_product_contain_oxygen_bond_distance_aromatic_linkinvent_7_9_3/rearranged_h_0040.sdf

> <i_m_source_file_index>
15

> <r_mmod_Potential_Energy-OPLS-2005>
-135.164184570312

> <r_mmod_Stretch_Energy-OPLS-2005>
75.1016235351562

> <r_mmod_Bend_Energy-OPLS-2005>
126.764350891113

> <r_mmod_Torsional_Energy-OPLS-2005>
233.653747558594

> <r_mmod_Improper_Torsional_Energy-OPLS-2005>
5.93656492233276

> <r_mmod_Van_der_Waal_Energy-OPLS-2005>
139.219604492188

> <r_mmod_Electrostatic_Energy-OPLS-2005>
-290.225952148438

> <r_mmod_Solvation_Energy-OPLS-2005>
-470.257629394531

> <b_mmod_Minimization_Converged-OPLS-2005>
0

> <r_mmod_RMS_Derivative-OPLS-2005>
1.03966426849365

$$$$
15
                    3D
 Structure written by MMmdl.
176185  0  0  1  0            999 V2000
  -30.6697  -14.5333   20.5036 C   0  0  0  0  0  0
  -30.4396  -12.3276   19.4527 C   0  0  0  0  0  0
  -29.5132  -12.4963   18.2291 C   0  0  0  0  0  0
  -28.0352  -12.3533   18.6432 C   0  0  0  0  0  0
  -27.6662  -13.2115   19.8799 C   0  0  2  0  0  0
  -28.7095  -13.0302   21.0065 C   0  0  0  0  0  0
  -25.2658  -13.8185   20.5791 C   0  0  0  0  0  0
  -24.1868  -13.0441   20.9225 C   0  0  0  0  0  0
  -24.6442  -11.6911   20.8755 C   0  0  0  0  0  0
  -23.9097  -10.4288   21.0469 C   0  0  0  0  0  0
  -24.3620   -9.4202   21.9240 C   0  0  0  0  0  0
  -23.6282   -8.2245   22.0785 C   0  0  0  0  0  0
  -22.4262   -8.0322   21.3591 C   0  0  0  0  0  0
  -21.9934   -9.0297   20.4684 C   0  0  0  0  0  0
  -22.7289  -10.2162   20.3107 C   0  0  0  0  0  0
  -21.6844   -6.0758   22.5291 C   0  0  0  0  0  0
  -21.3998   -6.5656   23.8226 C   0  0  0  0  0  0
  -21.3632   -5.6801   24.9169 C   0  0  0  0  0  0
  -21.6025   -4.3071   24.7213 C   0  0  0  0  0  0
  -21.8806   -3.8170   23.4334 C   0  0  0  0  0  0
  -21.9190   -4.6989   22.3387 C   0  0  0  0  0  0
  -22.7910  -13.5291   21.1819 C   0  0  0  0  0  0
  -22.1676   -4.2191   21.0967 F   0  0  0  0  0  0
  -21.5625   -3.4545   25.7712 F   0  0  0  0  0  0
  -30.0374  -13.3316   20.4490 N   0  0  0  0  0  0
  -26.3066  -12.9338   20.3399 N   0  0  0  0  0  0
  -25.9368  -11.6503   20.5753 N   0  0  0  0  0  0
  -22.0502  -12.8297   22.0343 N   0  0  0  0  0  0
  -25.4419  -15.1882   20.4203 N   0  0  0  0  0  0
  -31.8134  -14.6947   20.0687 O   0  0  0  0  0  0
  -21.6624   -6.8914   21.4268 O   0  0  0  0  0  0
  -22.3639  -14.5622   20.6681 O   0  0  0  0  0  0
  -24.6202  -31.8680   23.2131 C   0  0  0  0  0  0
  -25.9070  -32.4820   23.8422 C   0  0  1  0  0  0
  -27.1966  -27.3894   20.0681 C   0  0  0  0  0  0
  -25.5908  -33.8622   24.2317 N   0  0  0  0  0  0
  -23.4061  -30.5001   21.5612 C   0  0  2  0  0  0
  -24.8415  -28.9833   20.1084 C   0  0  0  0  0  0
  -22.7420  -29.4658   22.5015 C   0  0  0  0  0  0
  -18.0275  -28.1384   22.8497 C   0  0  0  0  0  0
  -24.1509  -36.7330   23.2640 C   0  0  0  0  0  0
  -25.9490  -30.8178   21.3788 C   0  0  0  0  0  0
  -26.0142  -29.4586   20.7068 C   0  0  0  0  0  0
  -27.1979  -28.6738   20.6821 C   0  0  0  0  0  0
  -25.9969  -26.9715   19.4348 C   0  0  0  0  0  0
  -24.8291  -27.7397   19.4716 C   0  0  0  0  0  0
  -23.6103  -29.8557   20.1685 C   0  0  0  0  0  0
  -25.4131  -36.3121   24.0326 C   0  0  1  0  0  0
  -20.5863  -28.3658   23.1301 C   0  0  2  0  0  0
  -20.6782  -26.9382   22.5415 C   0  0  0  0  0  0
  -19.5759  -26.6387   21.5218 C   0  0  0  0  0  0
  -18.1949  -26.7924   22.1641 C   0  0  0  0  0  0
  -19.1519  -28.8845   23.2902 C   0  0  0  0  0  0
  -18.9441  -30.1464   23.8880 C   0  0  0  0  0  0
  -17.6440  -30.6584   24.0560 C   0  0  0  0  0  0
  -25.9047  -34.9472   23.5114 C   0  0  0  0  0  0
  -16.5335  -29.9079   23.6348 C   0  0  0  0  0  0
  -16.7260  -28.6517   23.0341 C   0  0  0  0  0  0
  -26.4483  -31.6619   25.0766 C   0  0  0  0  0  0
  -25.3730  -31.3726   26.1496 C   0  0  0  0  0  0
  -27.0338  -30.3050   24.6214 C   0  0  0  0  0  0
  -27.6049  -32.4373   25.7512 C   0  0  0  0  0  0
  -27.5583  -37.1826   24.8462 C   0  0  0  0  0  0
  -21.4148  -29.3023   22.3721 N   0  0  0  0  0  0
  -26.4306  -37.3801   23.9384 N   0  0  0  0  0  0
  -24.6785  -31.0751   22.1080 N   0  0  0  0  0  0
  -23.4196  -28.8124   23.2999 O   0  0  0  0  0  0
  -28.3211  -26.5616   20.1069 O   0  0  0  0  0  0
  -26.5631  -34.8913   22.4693 O   0  0  0  0  0  0
  -23.5365  -32.1459   23.7474 O   0  0  0  0  0  0
  -29.0201  -19.2913   20.4717 C   0  0  0  0  0  0
  -29.3975  -18.0372   22.5183 C   0  0  0  0  0  0
  -29.4771  -18.1100   21.1162 C   0  0  0  0  0  0
  -28.5613  -20.4214   21.2057 C   0  0  0  0  0  0
  -28.5292  -20.3372   22.6307 C   0  0  0  0  0  0
  -28.9252  -19.1295   23.2706 C   0  0  0  0  0  0
  -29.7610  -22.7446   18.8411 C   0  0  0  0  0  0
  -30.9045  -22.0183   18.7920 C   0  0  0  0  0  0
  -29.3343  -23.8226   17.8355 C   0  0  0  0  0  0
  -28.2236  -24.8231   18.2977 C   0  0  0  0  0  0
  -28.8680  -24.1076   20.7072 C   0  0  0  0  0  0
  -28.1143  -25.1393   19.8244 C   0  0  1  0  0  0
  -31.4682  -21.2193   19.9520 C   0  0  0  0  0  0
  -31.7878  -21.9722   17.5582 C   0  0  0  0  0  0
  -26.5751  -21.6203   23.7116 C   0  0  0  0  0  0
  -28.0933  -21.5293   23.4816 C   0  0  0  0  0  0
  -30.1346  -16.9653   20.3277 C   0  0  0  0  0  0
  -27.9818  -21.6358   20.4243 C   0  0  0  0  0  0
  -29.8923  -15.5929   20.8161 N   0  0  0  0  0  0
  -28.8206  -22.8082   19.9814 N   0  3  2  0  0  0
  -28.8458  -18.9409   24.9866 Cl  0  0  0  0  0  0
  -31.4851  -12.4262   19.1559 H   0  0  0  0  0  0
  -30.3528  -11.3306   19.8807 H   0  0  0  0  0  0
  -29.7555  -11.7531   17.4697 H   0  0  0  0  0  0
  -29.6825  -13.4709   17.7648 H   0  0  0  0  0  0
  -27.8634  -11.3021   18.8763 H   0  0  0  0  0  0
  -27.3859  -12.5913   17.8004 H   0  0  0  0  0  0
  -27.6982  -14.2526   19.5620 H   0  0  0  0  0  0
  -28.7006  -12.0027   21.3735 H   0  0  0  0  0  0
  -28.4681  -13.6599   21.8680 H   0  0  0  0  0  0
  -25.2774   -9.5624   22.4819 H   0  0  0  0  0  0
  -23.9997   -7.4586   22.7465 H   0  0  0  0  0  0
  -21.0895   -8.8807   19.8937 H   0  0  0  0  0  0
  -22.3813  -10.9699   19.6185 H   0  0  0  0  0  0
  -21.2004   -7.6169   23.9748 H   0  0  0  0  0  0
  -21.1473   -6.0527   25.9082 H   0  0  0  0  0  0
  -22.0611   -2.7649   23.2795 H   0  0  0  0  0  0
  -22.4074  -12.0016   22.4817 H   0  0  0  0  0  0
  -21.1095  -13.1336   22.2426 H   0  0  0  0  0  0
  -24.6742  -15.8448   20.5186 H   0  0  0  0  0  0
  -26.2935  -15.6238   20.0851 H   0  0  0  0  0  0
  -26.7132  -32.5503   23.1167 H   0  0  0  0  0  0
  -25.0005  -33.9818   25.0420 H   0  0  0  0  0  0
  -22.6986  -31.3240   21.4351 H   0  0  0  0  0  0
  -23.3765  -35.9664   23.3287 H   0  0  0  0  0  0
  -24.3595  -36.8969   22.2053 H   0  0  0  0  0  0
  -23.7268  -37.6524   23.6681 H   0  0  0  0  0  0
  -26.0809  -31.5906   20.6212 H   0  0  0  0  0  0
  -26.8304  -30.8514   22.0079 H   0  0  0  0  0  0
  -28.1031  -29.0390   21.1497 H   0  0  0  0  0  0
  -25.9057  -26.0461   18.8935 H   0  0  0  0  0  0
  -23.9306  -27.3773   18.9901 H   0  0  0  0  0  0
  -23.7220  -30.6450   19.4242 H   0  0  0  0  0  0
  -22.7338  -29.2848   19.8604 H   0  0  0  0  0  0
  -25.1313  -36.1989   25.0818 H   0  0  0  0  0  0
  -20.9966  -28.3223   24.1409 H   0  0  0  0  0  0
  -20.5720  -26.2240   23.3604 H   0  0  0  0  0  0
  -21.6651  -26.7474   22.1159 H   0  0  0  0  0  0
  -19.6901  -25.6306   21.1244 H   0  0  0  0  0  0
  -19.6676  -27.3215   20.6760 H   0  0  0  0  0  0
  -17.4198  -26.6645   21.4066 H   0  0  0  0  0  0
  -18.0335  -26.0088   22.9053 H   0  0  0  0  0  0
  -19.7917  -30.7312   24.2206 H   0  0  0  0  0  0
  -17.4988  -31.6246   24.5176 H   0  0  0  0  0  0
  -15.5332  -30.2959   23.7696 H   0  0  0  0  0  0
  -15.8672  -28.0850   22.7007 H   0  0  0  0  0  0
  -24.5815  -30.7216   25.7768 H   0  0  0  0  0  0
  -24.9035  -32.2893   26.5074 H   0  0  0  0  0  0
  -25.8021  -30.8720   27.0187 H   0  0  0  0  0  0
  -26.2911  -29.6772   24.1290 H   0  0  0  0  0  0
  -27.4089  -29.7324   25.4711 H   0  0  0  0  0  0
  -27.8758  -30.4331   23.9409 H   0  0  0  0  0  0
  -27.2635  -33.3611   26.2195 H   0  0  0  0  0  0
  -28.3775  -32.7066   25.0298 H   0  0  0  0  0  0
  -28.0849  -31.8485   26.5335 H   0  0  0  0  0  0
  -28.2627  -38.0097   24.7468 H   0  0  0  0  0  0
  -28.1059  -36.2624   24.6358 H   0  0  0  0  0  0
  -27.2285  -37.1551   25.8861 H   0  0  0  0  0  0
  -20.9308  -29.8736   21.6935 H   0  0  0  0  0  0
  -26.0200  -38.2886   24.1344 H   0  0  0  0  0  0
  -29.0437  -19.3412   19.3900 H   0  0  0  0  0  0
  -29.7301  -17.1445   23.0279 H   0  0  0  0  0  0
  -29.0422  -23.3522   16.8945 H   0  0  0  0  0  0
  -30.2262  -24.4138   17.6260 H   0  0  0  0  0  0
  -28.3134  -25.7535   17.7335 H   0  0  0  0  0  0
  -27.2617  -24.4179   17.9776 H   0  0  0  0  0  0
  -29.9082  -24.4028   20.8551 H   0  0  0  0  0  0
  -28.3892  -24.0717   21.6823 H   0  0  0  0  0  0
  -27.0950  -24.8882   20.1140 H   0  0  0  0  0  0
  -30.9594  -21.4292   20.8880 H   0  0  0  0  0  0
  -32.5136  -21.4847   20.1091 H   0  0  0  0  0  0
  -31.4118  -20.1484   19.7414 H   0  0  0  0  0  0
  -31.3200  -22.4218   16.6849 H   0  0  0  0  0  0
  -32.0044  -20.9326   17.3031 H   0  0  0  0  0  0
  -32.7317  -22.4804   17.7487 H   0  0  0  0  0  0
  -26.3181  -22.5724   24.1736 H   0  0  0  0  0  0
  -26.2363  -20.8296   24.3804 H   0  0  0  0  0  0
  -25.9944  -21.5408   22.7936 H   0  0  0  0  0  0
  -28.4683  -22.4323   23.0137 H   0  0  0  0  0  0
  -28.5962  -21.5206   24.4507 H   0  0  0  0  0  0
  -29.8203  -17.0205   19.2834 H   0  0  0  0  0  0
  -31.2067  -17.1675   20.3307 H   0  0  0  0  0  0
  -27.1099  -22.0310   20.9413 H   0  0  0  0  0  0
  -27.5626  -21.2292   19.5036 H   0  0  0  0  0  0
  -28.9755  -15.3986   21.1902 H   0  0  0  0  0  0
  -28.0273  -23.1243   19.4422 H   0  0  0  0  0  0
  1 25  1  0  0  0
  1 30  2  0  0  0
  1 89  1  0  0  0
  2  3  1  0  0  0
  2 25  1  0  0  0
  2 92  1  0  0  0
  2 93  1  0  0  0
  3  4  1  0  0  0
  3 94  1  0  0  0
  3 95  1  0  0  0
  4  5  1  0  0  0
  4 96  1  0  0  0
  4 97  1  0  0  0
  5  6  1  0  0  0
  5 26  1  0  0  0
  5 98  1  0  0  0
  6 25  1  0  0  0
  6 99  1  0  0  0
  6100  1  0  0  0
  7  8  2  0  0  0
  7 26  1  0  0  0
  7 29  1  0  0  0
  8  9  1  0  0  0
  8 22  1  0  0  0
  9 10  1  0  0  0
  9 27  2  0  0  0
 10 11  2  0  0  0
 10 15  1  0  0  0
 11 12  1  0  0  0
 11101  1  0  0  0
 12 13  2  0  0  0
 12102  1  0  0  0
 13 14  1  0  0  0
 13 31  1  0  0  0
 14 15  2  0  0  0
 14103  1  0  0  0
 15104  1  0  0  0
 16 17  2  0  0  0
 16 21  1  0  0  0
 16 31  1  0  0  0
 17 18  1  0  0  0
 17105  1  0  0  0
 18 19  2  0  0  0
 18106  1  0  0  0
 19 20  1  0  0  0
 19 24  1  0  0  0
 20 21  2  0  0  0
 20107  1  0  0  0
 21 23  1  0  0  0
 22 28  1  0  0  0
 22 32  2  0  0  0
 26 27  1  0  0  0
 28108  1  0  0  0
 28109  1  0  0  0
 29110  1  0  0  0
 29111  1  0  0  0
 33 34  1  0  0  0
 33 66  1  0  0  0
 33 70  2  0  0  0
 34 36  1  0  0  0
 34 59  1  0  0  0
 34112  1  0  0  0
 35 44  2  0  0  0
 35 45  1  0  0  0
 35 68  1  0  0  0
 36 56  1  0  0  0
 36113  1  0  0  0
 37 39  1  0  0  0
 37 47  1  0  0  0
 37 66  1  0  0  0
 37114  1  0  0  0
 38 43  2  0  0  0
 38 46  1  0  0  0
 38 47  1  0  0  0
 39 64  1  0  0  0
 39 67  2  0  0  0
 40 52  1  0  0  0
 40 53  2  0  0  0
 40 58  1  0  0  0
 41115  1  0  0  0
 41116  1  0  0  0
 41117  1  0  0  0
 41 48  1  0  0  0
 42 43  1  0  0  0
 42 66  1  0  0  0
 42118  1  0  0  0
 42119  1  0  0  0
 43 44  1  0  0  0
 44120  1  0  0  0
 45 46  2  0  0  0
 45121  1  0  0  0
 46122  1  0  0  0
 47123  1  0  0  0
 47124  1  0  0  0
 48 56  1  0  0  0
 48 65  1  0  0  0
 48125  1  0  0  0
 49 50  1  0  0  0
 49 53  1  0  0  0
 49 64  1  0  0  0
 49126  1  0  0  0
 50 51  1  0  0  0
 50127  1  0  0  0
 50128  1  0  0  0
 51 52  1  0  0  0
 51129  1  0  0  0
 51130  1  0  0  0
 52131  1  0  0  0
 52132  1  0  0  0
 53 54  1  0  0  0
 54 55  2  0  0  0
 54133  1  0  0  0
 55 57  1  0  0  0
 55134  1  0  0  0
 56 69  2  0  0  0
 57 58  2  0  0  0
 57135  1  0  0  0
 58136  1  0  0  0
 59 60  1  0  0  0
 59 61  1  0  0  0
 59 62  1  0  0  0
 60137  1  0  0  0
 60138  1  0  0  0
 60139  1  0  0  0
 61140  1  0  0  0
 61141  1  0  0  0
 61142  1  0  0  0
 62143  1  0  0  0
 62144  1  0  0  0
 62145  1  0  0  0
 63 65  1  0  0  0
 63146  1  0  0  0
 63147  1  0  0  0
 63148  1  0  0  0
 64149  1  0  0  0
 65150  1  0  0  0
 68 82  1  0  0  0
 71 73  2  0  0  0
 71 74  1  0  0  0
 71151  1  0  0  0
 72 73  1  0  0  0
 72 76  2  0  0  0
 72152  1  0  0  0
 73 87  1  0  0  0
 74 75  2  0  0  0
 74 88  1  0  0  0
 75 76  1  0  0  0
 75 86  1  0  0  0
 76 91  1  0  0  0
 77 78  2  0  0  0
 77 79  1  0  0  0
 77 90  1  0  0  0
 78 83  1  0  0  0
 78 84  1  0  0  0
 79 80  1  0  0  0
 79153  1  0  0  0
 79154  1  0  0  0
 80 82  1  0  0  0
 80155  1  0  0  0
 80156  1  0  0  0
 81 82  1  0  0  0
 81 90  1  0  0  0
 81157  1  0  0  0
 81158  1  0  0  0
 82159  1  0  0  0
 83160  1  0  0  0
 83161  1  0  0  0
 83162  1  0  0  0
 84163  1  0  0  0
 84164  1  0  0  0
 84165  1  0  0  0
 85 86  1  0  0  0
 85166  1  0  0  0
 85167  1  0  0  0
 85168  1  0  0  0
 86169  1  0  0  0
 86170  1  0  0  0
 87 89  1  0  0  0
 87171  1  0  0  0
 87172  1  0  0  0
 88173  1  0  0  0
 88174  1  0  0  0
 88 90  1  0  0  0
 89175  1  0  0  0
 90176  1  0  0  0
M  CHG  1  90   1
M  ISO  4   1 100  68 101  82 101  89 100
M  END
> <chiral flag>
0

> <version>
0

> <s_m_source_file>
/data/baiqing/PycharmProjects/Reinvent-master-3.2/result/LINK_invent/BTK/process_docking_weight1_custom_product_contain_oxygen_bond_distance_aromatic_linkinvent_7_9_3/rearranged_h_0040.sdf

> <i_m_source_file_index>
16

> <r_mmod_Potential_Energy-OPLS-2005>
-25.8418579101562

> <r_mmod_Stretch_Energy-OPLS-2005>
54.6629600524902

> <r_mmod_Bend_Energy-OPLS-2005>
207.072875976562

> <r_mmod_Torsional_Energy-OPLS-2005>
254.693359375

> <r_mmod_Improper_Torsional_Energy-OPLS-2005>
7.89175844192505

> <r_mmod_Van_der_Waal_Energy-OPLS-2005>
169.615676879883

> <r_mmod_Electrostatic_Energy-OPLS-2005>
-316.041839599609

> <r_mmod_Solvation_Energy-OPLS-2005>
-431.069549560547

> <b_mmod_Minimization_Converged-OPLS-2005>
0

> <r_mmod_RMS_Derivative-OPLS-2005>
5.82741546630859

$$$$
16
                    3D
 Structure written by MMmdl.
177186  0  0  1  0            999 V2000
  -30.5966  -14.6584   20.5042 C   0  0  0  0  0  0
  -30.4445  -12.4052   19.4460 C   0  0  0  0  0  0
  -29.5033  -12.5023   18.2223 C   0  0  0  0  0  0
  -28.0286  -12.3317   18.6409 C   0  0  0  0  0  0
  -27.6512  -13.2093   19.8625 C   0  0  2  0  0  0
  -28.6990  -13.0584   20.9894 C   0  0  0  0  0  0
  -25.2535  -13.8132   20.5664 C   0  0  0  0  0  0
  -24.1819  -13.0420   20.9206 C   0  0  0  0  0  0
  -24.6369  -11.6878   20.8761 C   0  0  0  0  0  0
  -23.9042  -10.4276   21.0422 C   0  0  0  0  0  0
  -24.3601   -9.4203   21.9208 C   0  0  0  0  0  0
  -23.6280   -8.2232   22.0768 C   0  0  0  0  0  0
  -22.4275   -8.0268   21.3547 C   0  0  0  0  0  0
  -21.9916   -9.0234   20.4639 C   0  0  0  0  0  0
  -22.7226  -10.2121   20.3049 C   0  0  0  0  0  0
  -21.6833   -6.0735   22.5276 C   0  0  0  0  0  0
  -21.3998   -6.5638   23.8209 C   0  0  0  0  0  0
  -21.3657   -5.6790   24.9185 C   0  0  0  0  0  0
  -21.6044   -4.3051   24.7226 C   0  0  0  0  0  0
  -21.8830   -3.8147   23.4346 C   0  0  0  0  0  0
  -21.9185   -4.6959   22.3403 C   0  0  0  0  0  0
  -22.7836  -13.5206   21.1879 C   0  0  0  0  0  0
  -22.1655   -4.2147   21.0981 F   0  0  0  0  0  0
  -21.5635   -3.4531   25.7743 F   0  0  0  0  0  0
  -30.0116  -13.4201   20.4275 N   0  0  0  0  0  0
  -26.2968  -12.9319   20.3306 N   0  0  0  0  0  0
  -25.9300  -11.6479   20.5774 N   0  0  0  0  0  0
  -22.0475  -12.8210   22.0432 N   0  0  0  0  0  0
  -25.4208  -15.1861   20.3997 N   0  0  0  0  0  0
  -31.7589  -14.8492   20.1324 O   0  0  0  0  0  0
  -21.6625   -6.8876   21.4237 O   0  0  0  0  0  0
  -22.3536  -14.5529   20.6725 O   0  0  0  0  0  0
  -24.6320  -31.8597   23.2115 C   0  0  0  0  0  0
  -25.9177  -32.4774   23.8398 C   0  0  1  0  0  0
  -27.2122  -27.2751   20.0788 C   0  0  0  0  0  0
  -25.5989  -33.8577   24.2309 N   0  0  0  0  0  0
  -23.4253  -30.4903   21.5579 C   0  0  2  0  0  0
  -24.8658  -28.9570   20.1170 C   0  0  0  0  0  0
  -22.7484  -29.4614   22.4960 C   0  0  0  0  0  0
  -18.0269  -28.1401   22.8470 C   0  0  0  0  0  0
  -24.1446  -36.7235   23.2648 C   0  0  0  0  0  0
  -25.9742  -30.7631   21.4039 C   0  0  0  0  0  0
  -26.0386  -29.3887   20.7452 C   0  0  0  0  0  0
  -27.2079  -28.5562   20.7347 C   0  0  0  0  0  0
  -26.0214  -26.9660   19.3786 C   0  0  0  0  0  0
  -24.8628  -27.7483   19.4246 C   0  0  0  0  0  0
  -23.6396  -29.8433   20.1691 C   0  0  0  0  0  0
  -25.4082  -36.3047   24.0335 C   0  0  1  0  0  0
  -20.5871  -28.3687   23.1249 C   0  0  2  0  0  0
  -20.6753  -26.9413   22.5359 C   0  0  0  0  0  0
  -19.5722  -26.6375   21.5175 C   0  0  0  0  0  0
  -18.1915  -26.7940   22.1609 C   0  0  0  0  0  0
  -19.1533  -28.8867   23.2853 C   0  0  0  0  0  0
  -18.9473  -30.1458   23.8875 C   0  0  0  0  0  0
  -17.6482  -30.6620   24.0534 C   0  0  0  0  0  0
  -25.9047  -34.9447   23.5101 C   0  0  0  0  0  0
  -16.5358  -29.9101   23.6361 C   0  0  0  0  0  0
  -16.7262  -28.6522   23.0390 C   0  0  0  0  0  0
  -26.4563  -31.6618   25.0780 C   0  0  0  0  0  0
  -25.3775  -31.3675   26.1457 C   0  0  0  0  0  0
  -27.0520  -30.3077   24.6297 C   0  0  0  0  0  0
  -27.6045  -32.4403   25.7611 C   0  0  0  0  0  0
  -27.5554  -37.1739   24.8474 C   0  0  0  0  0  0
  -21.4197  -29.3066   22.3684 N   0  0  0  0  0  0
  -26.4214  -37.3789   23.9487 N   0  0  0  0  0  0
  -24.6959  -31.0550   22.1129 N   0  0  0  0  0  0
  -23.4167  -28.8119   23.3045 O   0  0  0  0  0  0
  -28.3440  -26.4135   20.0558 O   0  0  0  0  0  0
  -26.5590  -34.8927   22.4653 O   0  0  0  0  0  0
  -23.5462  -32.1447   23.7396 O   0  0  0  0  0  0
  -30.8541  -18.0013   20.8041 C   0  0  0  0  0  0
  -28.4840  -17.7752   20.6216 C   0  0  0  0  0  0
  -30.7093  -19.4316   20.8232 C   0  0  0  0  0  0
  -28.3083  -19.1921   20.6187 C   0  0  0  0  0  0
  -29.4304  -20.0837   20.7458 C   0  0  0  0  0  0
  -29.7371  -17.1319   20.7322 C   0  0  0  0  0  0
  -29.7213  -24.2182   20.0757 C   0  0  0  0  0  0
  -30.8580  -24.9536   20.0704 C   0  0  0  0  0  0
  -32.2140  -24.4368   19.9336 C   0  0  0  0  0  0
  -33.2963  -25.2305   19.8643 C   0  0  0  0  0  0
  -27.4923  -22.8900   18.3535 C   0  0  0  0  0  0
  -28.8044  -22.6333   17.6121 C   0  0  0  0  0  0
  -27.3888  -24.3179   18.9115 C   0  0  0  0  0  0
  -29.9424  -22.1702   18.5235 C   0  0  0  0  0  0
  -28.2913  -24.8920   20.0519 C   0  0  2  0  0  0
  -31.9823  -20.2528   20.9575 C   0  0  0  0  0  0
  -34.7091  -24.7198   19.6659 C   0  0  0  0  0  0
  -29.2602  -21.6708   20.9209 C   0  0  0  0  0  0
  -26.8600  -19.6721   20.4706 C   0  0  0  0  0  0
  -29.7390  -15.6710   20.8484 N   0  0  0  0  0  0
  -29.8549  -22.6616   19.9253 N   0  3  2  0  0  0
  -25.9981  -18.8103   21.0159 F   0  0  0  0  0  0
  -26.5763  -19.7876   19.1739 F   0  0  0  0  0  0
  -31.4824  -12.5471   19.1399 H   0  0  0  0  0  0
  -30.3951  -11.4101   19.8914 H   0  0  0  0  0  0
  -29.7663  -11.7447   17.4827 H   0  0  0  0  0  0
  -29.6322  -13.4672   17.7312 H   0  0  0  0  0  0
  -27.8768  -11.2790   18.8840 H   0  0  0  0  0  0
  -27.3677  -12.5425   17.7998 H   0  0  0  0  0  0
  -27.6676  -14.2408   19.5117 H   0  0  0  0  0  0
  -28.7221  -12.0297   21.3534 H   0  0  0  0  0  0
  -28.4413  -13.6714   21.8544 H   0  0  0  0  0  0
  -25.2743   -9.5671   22.4793 H   0  0  0  0  0  0
  -23.9969   -7.4635   22.7503 H   0  0  0  0  0  0
  -21.0851   -8.8739   19.8946 H   0  0  0  0  0  0
  -22.3690  -10.9653   19.6143 H   0  0  0  0  0  0
  -21.1985   -7.6145   23.9710 H   0  0  0  0  0  0
  -21.1466   -6.0528   25.9085 H   0  0  0  0  0  0
  -22.0614   -2.7603   23.2848 H   0  0  0  0  0  0
  -22.4087  -11.9840   22.4776 H   0  0  0  0  0  0
  -21.1107  -13.1239   22.2667 H   0  0  0  0  0  0
  -24.6388  -15.8263   20.4853 H   0  0  0  0  0  0
  -26.2382  -15.6127   19.9883 H   0  0  0  0  0  0
  -26.7227  -32.5430   23.1122 H   0  0  0  0  0  0
  -25.0200  -33.9720   25.0492 H   0  0  0  0  0  0
  -22.7236  -31.3157   21.4256 H   0  0  0  0  0  0
  -23.3778  -35.9484   23.3184 H   0  0  0  0  0  0
  -24.3571  -36.9006   22.2099 H   0  0  0  0  0  0
  -23.7088  -37.6333   23.6784 H   0  0  0  0  0  0
  -26.1136  -31.5203   20.6317 H   0  0  0  0  0  0
  -26.8531  -30.8077   22.0369 H   0  0  0  0  0  0
  -28.0985  -28.8797   21.2542 H   0  0  0  0  0  0
  -25.9177  -26.1654   18.6822 H   0  0  0  0  0  0
  -23.9913  -27.4453   18.8576 H   0  0  0  0  0  0
  -23.7634  -30.6305   19.4230 H   0  0  0  0  0  0
  -22.7555  -29.2816   19.8596 H   0  0  0  0  0  0
  -25.1232  -36.1855   25.0816 H   0  0  0  0  0  0
  -20.9945  -28.3245   24.1377 H   0  0  0  0  0  0
  -20.5702  -26.2292   23.3540 H   0  0  0  0  0  0
  -21.6614  -26.7480   22.1137 H   0  0  0  0  0  0
  -19.6881  -25.6278   21.1246 H   0  0  0  0  0  0
  -19.6660  -27.3144   20.6671 H   0  0  0  0  0  0
  -17.4160  -26.6667   21.4030 H   0  0  0  0  0  0
  -18.0331  -26.0088   22.9015 H   0  0  0  0  0  0
  -19.7959  -30.7253   24.2264 H   0  0  0  0  0  0
  -17.5072  -31.6337   24.5075 H   0  0  0  0  0  0
  -15.5375  -30.3021   23.7742 H   0  0  0  0  0  0
  -15.8643  -28.0852   22.7160 H   0  0  0  0  0  0
  -24.5935  -30.7091   25.7704 H   0  0  0  0  0  0
  -24.8985  -32.2799   26.5000 H   0  0  0  0  0  0
  -25.8061  -30.8714   27.0174 H   0  0  0  0  0  0
  -26.3177  -29.6742   24.1317 H   0  0  0  0  0  0
  -27.4225  -29.7414   25.4857 H   0  0  0  0  0  0
  -27.9018  -30.4407   23.9600 H   0  0  0  0  0  0
  -27.2625  -33.3743   26.2086 H   0  0  0  0  0  0
  -28.3942  -32.6917   25.0524 H   0  0  0  0  0  0
  -28.0631  -31.8608   26.5635 H   0  0  0  0  0  0
  -28.2412  -38.0194   24.7759 H   0  0  0  0  0  0
  -28.1191  -36.2728   24.6000 H   0  0  0  0  0  0
  -27.2298  -37.1023   25.8867 H   0  0  0  0  0  0
  -20.9376  -29.8835   21.6916 H   0  0  0  0  0  0
  -26.0054  -38.2790   24.1689 H   0  0  0  0  0  0
  -31.8385  -17.5663   20.8916 H   0  0  0  0  0  0
  -27.6044  -17.1490   20.5519 H   0  0  0  0  0  0
  -30.7515  -26.0287   20.1137 H   0  0  0  0  0  0
  -32.3928  -23.3749   19.8678 H   0  0  0  0  0  0
  -33.1951  -26.3066   19.9469 H   0  0  0  0  0  0
  -27.2714  -22.1376   19.1023 H   0  0  0  0  0  0
  -26.6854  -22.7748   17.6283 H   0  0  0  0  0  0
  -29.1021  -23.5343   17.0743 H   0  0  0  0  0  0
  -28.6522  -21.8768   16.8391 H   0  0  0  0  0  0
  -26.3648  -24.3483   19.2801 H   0  0  0  0  0  0
  -27.4879  -24.9728   18.0461 H   0  0  0  0  0  0
  -30.8789  -22.5301   18.0961 H   0  0  0  0  0  0
  -30.0196  -21.0859   18.4907 H   0  0  0  0  0  0
  -27.8391  -24.6117   21.0043 H   0  0  0  0  0  0
  -32.8414  -19.6179   21.1799 H   0  0  0  0  0  0
  -31.9044  -20.9779   21.7676 H   0  0  0  0  0  0
  -32.2047  -20.7748   20.0270 H   0  0  0  0  0  0
  -34.7178  -23.6617   19.3972 H   0  0  0  0  0  0
  -35.3107  -24.8542   20.5645 H   0  0  0  0  0  0
  -35.1943  -25.2669   18.8572 H   0  0  0  0  0  0
  -29.6926  -21.9137   21.8920 H   0  0  0  0  0  0
  -28.2183  -21.9377   21.0530 H   0  0  0  0  0  0
  -26.6340  -20.6197   20.9553 H   0  0  0  0  0  0
  -28.8377  -15.2913   21.0904 H   0  0  0  0  0  0
  -30.8170  -22.5213   20.1907 H   0  0  0  0  0  0
  1 25  1  0  0  0
  1 30  2  0  0  0
  1 90  1  0  0  0
  2  3  1  0  0  0
  2 25  1  0  0  0
  2 94  1  0  0  0
  2 95  1  0  0  0
  3  4  1  0  0  0
  3 96  1  0  0  0
  3 97  1  0  0  0
  4  5  1  0  0  0
  4 98  1  0  0  0
  4 99  1  0  0  0
  5  6  1  0  0  0
  5 26  1  0  0  0
  5100  1  0  0  0
  6 25  1  0  0  0
  6101  1  0  0  0
  6102  1  0  0  0
  7  8  2  0  0  0
  7 26  1  0  0  0
  7 29  1  0  0  0
  8  9  1  0  0  0
  8 22  1  0  0  0
  9 10  1  0  0  0
  9 27  2  0  0  0
 10 11  2  0  0  0
 10 15  1  0  0  0
 11 12  1  0  0  0
 11103  1  0  0  0
 12 13  2  0  0  0
 12104  1  0  0  0
 13 14  1  0  0  0
 13 31  1  0  0  0
 14 15  2  0  0  0
 14105  1  0  0  0
 15106  1  0  0  0
 16 17  2  0  0  0
 16 21  1  0  0  0
 16 31  1  0  0  0
 17 18  1  0  0  0
 17107  1  0  0  0
 18 19  2  0  0  0
 18108  1  0  0  0
 19 20  1  0  0  0
 19 24  1  0  0  0
 20 21  2  0  0  0
 20109  1  0  0  0
 21 23  1  0  0  0
 22 28  1  0  0  0
 22 32  2  0  0  0
 26 27  1  0  0  0
 28110  1  0  0  0
 28111  1  0  0  0
 29112  1  0  0  0
 29113  1  0  0  0
 33 34  1  0  0  0
 33 66  1  0  0  0
 33 70  2  0  0  0
 34 36  1  0  0  0
 34 59  1  0  0  0
 34114  1  0  0  0
 35 44  2  0  0  0
 35 45  1  0  0  0
 35 68  1  0  0  0
 36 56  1  0  0  0
 36115  1  0  0  0
 37 39  1  0  0  0
 37 47  1  0  0  0
 37 66  1  0  0  0
 37116  1  0  0  0
 38 43  2  0  0  0
 38 46  1  0  0  0
 38 47  1  0  0  0
 39 64  1  0  0  0
 39 67  2  0  0  0
 40 52  1  0  0  0
 40 53  2  0  0  0
 40 58  1  0  0  0
 41117  1  0  0  0
 41118  1  0  0  0
 41119  1  0  0  0
 41 48  1  0  0  0
 42 43  1  0  0  0
 42 66  1  0  0  0
 42120  1  0  0  0
 42121  1  0  0  0
 43 44  1  0  0  0
 44122  1  0  0  0
 45 46  2  0  0  0
 45123  1  0  0  0
 46124  1  0  0  0
 47125  1  0  0  0
 47126  1  0  0  0
 48 56  1  0  0  0
 48 65  1  0  0  0
 48127  1  0  0  0
 49 50  1  0  0  0
 49 53  1  0  0  0
 49 64  1  0  0  0
 49128  1  0  0  0
 50 51  1  0  0  0
 50129  1  0  0  0
 50130  1  0  0  0
 51 52  1  0  0  0
 51131  1  0  0  0
 51132  1  0  0  0
 52133  1  0  0  0
 52134  1  0  0  0
 53 54  1  0  0  0
 54 55  2  0  0  0
 54135  1  0  0  0
 55 57  1  0  0  0
 55136  1  0  0  0
 56 69  2  0  0  0
 57 58  2  0  0  0
 57137  1  0  0  0
 58138  1  0  0  0
 59 60  1  0  0  0
 59 61  1  0  0  0
 59 62  1  0  0  0
 60139  1  0  0  0
 60140  1  0  0  0
 60141  1  0  0  0
 61142  1  0  0  0
 61143  1  0  0  0
 61144  1  0  0  0
 62145  1  0  0  0
 62146  1  0  0  0
 62147  1  0  0  0
 63 65  1  0  0  0
 63148  1  0  0  0
 63149  1  0  0  0
 63150  1  0  0  0
 64151  1  0  0  0
 65152  1  0  0  0
 68 85  1  0  0  0
 71 73  2  0  0  0
 71 76  1  0  0  0
 71153  1  0  0  0
 72 74  1  0  0  0
 72 76  2  0  0  0
 72154  1  0  0  0
 73 75  1  0  0  0
 73 86  1  0  0  0
 74 75  2  0  0  0
 74 89  1  0  0  0
 75 88  1  0  0  0
 76 90  1  0  0  0
 77 78  2  0  0  0
 77 85  1  0  0  0
 77 91  1  0  0  0
 78 79  1  0  0  0
 78155  1  0  0  0
 79 80  2  0  0  0
 79156  1  0  0  0
 80 87  1  0  0  0
 80157  1  0  0  0
 81 82  1  0  0  0
 81 83  1  0  0  0
 81158  1  0  0  0
 81159  1  0  0  0
 82 84  1  0  0  0
 82160  1  0  0  0
 82161  1  0  0  0
 83 85  1  0  0  0
 83162  1  0  0  0
 83163  1  0  0  0
 84 91  1  0  0  0
 84164  1  0  0  0
 84165  1  0  0  0
 85166  1  0  0  0
 86167  1  0  0  0
 86168  1  0  0  0
 86169  1  0  0  0
 87170  1  0  0  0
 87171  1  0  0  0
 87172  1  0  0  0
 88173  1  0  0  0
 88174  1  0  0  0
 88 91  1  0  0  0
 89 92  1  0  0  0
 89 93  1  0  0  0
 89175  1  0  0  0
 90176  1  0  0  0
 91177  1  0  0  0
M  CHG  1  91   1
M  ISO  4   1 100  68 101  85 101  90 100
M  END
> <chiral flag>
0

> <version>
0

> <s_m_source_file>
/data/baiqing/PycharmProjects/Reinvent-master-3.2/result/LINK_invent/BTK/process_docking_weight1_custom_product_contain_oxygen_bond_distance_aromatic_linkinvent_7_9_3/rearranged_h_0040.sdf

> <i_m_source_file_index>
17

> <r_mmod_Potential_Energy-OPLS-2005>
156.914611816406

> <r_mmod_Stretch_Energy-OPLS-2005>
117.546585083008

> <r_mmod_Bend_Energy-OPLS-2005>
231.056732177734

> <r_mmod_Torsional_Energy-OPLS-2005>
253.476455688477

> <r_mmod_Improper_Torsional_Energy-OPLS-2005>
5.85613250732422

> <r_mmod_Van_der_Waal_Energy-OPLS-2005>
159.632553100586

> <r_mmod_Electrostatic_Energy-OPLS-2005>
-251.019638061523

> <r_mmod_Solvation_Energy-OPLS-2005>
-422.20654296875

> <b_mmod_Minimization_Converged-OPLS-2005>
0

> <r_mmod_RMS_Derivative-OPLS-2005>
3.69744277000427

$$$$
17
                    3D
 Structure written by MMmdl.
192201  0  0  1  0            999 V2000
  -30.6685  -14.4857   20.4837 C   0  0  0  0  0  0
  -30.4333  -12.2856   19.4318 C   0  0  0  0  0  0
  -29.5016  -12.4569   18.2118 C   0  0  0  0  0  0
  -28.0206  -12.3324   18.6239 C   0  0  0  0  0  0
  -27.6622  -13.1927   19.8664 C   0  0  2  0  0  0
  -28.7065  -12.9972   20.9917 C   0  0  0  0  0  0
  -25.2638  -13.8138   20.5656 C   0  0  0  0  0  0
  -24.1872  -13.0444   20.9176 C   0  0  0  0  0  0
  -24.6399  -11.6899   20.8743 C   0  0  0  0  0  0
  -23.9056  -10.4296   21.0415 C   0  0  0  0  0  0
  -24.3613   -9.4205   21.9186 C   0  0  0  0  0  0
  -23.6290   -8.2244   22.0754 C   0  0  0  0  0  0
  -22.4269   -8.0284   21.3547 C   0  0  0  0  0  0
  -21.9901   -9.0260   20.4650 C   0  0  0  0  0  0
  -22.7225  -10.2146   20.3063 C   0  0  0  0  0  0
  -21.6859   -6.0739   22.5280 C   0  0  0  0  0  0
  -21.4018   -6.5642   23.8212 C   0  0  0  0  0  0
  -21.3652   -5.6792   24.9169 C   0  0  0  0  0  0
  -21.6036   -4.3057   24.7222 C   0  0  0  0  0  0
  -21.8825   -3.8150   23.4347 C   0  0  0  0  0  0
  -21.9197   -4.6967   22.3401 C   0  0  0  0  0  0
  -22.7895  -13.5262   21.1828 C   0  0  0  0  0  0
  -22.1667   -4.2147   21.0981 F   0  0  0  0  0  0
  -21.5617   -3.4544   25.7735 F   0  0  0  0  0  0
  -30.0390  -13.2846   20.4335 N   0  0  0  0  0  0
  -26.3042  -12.9268   20.3332 N   0  0  0  0  0  0
  -25.9322  -11.6448   20.5777 N   0  0  0  0  0  0
  -22.0529  -12.8261   22.0387 N   0  0  0  0  0  0
  -25.4419  -15.1846   20.4041 N   0  0  0  0  0  0
  -31.8578  -14.6363   20.1976 O   0  0  0  0  0  0
  -21.6641   -6.8881   21.4237 O   0  0  0  0  0  0
  -22.3579  -14.5564   20.6660 O   0  0  0  0  0  0
  -24.6096  -31.8702   23.2121 C   0  0  0  0  0  0
  -25.9006  -32.4833   23.8412 C   0  0  1  0  0  0
  -27.2451  -27.4648   20.1037 C   0  0  0  0  0  0
  -25.5884  -33.8633   24.2341 N   0  0  0  0  0  0
  -23.3984  -30.4911   21.5509 C   0  0  2  0  0  0
  -24.8504  -28.9609   20.1136 C   0  0  0  0  0  0
  -22.7399  -29.4654   22.5001 C   0  0  0  0  0  0
  -18.0268  -28.1377   22.8488 C   0  0  0  0  0  0
  -24.1488  -36.7330   23.2632 C   0  0  0  0  0  0
  -25.9215  -30.8460   21.3611 C   0  0  0  0  0  0
  -26.0031  -29.4796   20.7165 C   0  0  0  0  0  0
  -27.2020  -28.7367   20.7187 C   0  0  0  0  0  0
  -26.0843  -26.9599   19.4846 C   0  0  0  0  0  0
  -24.8837  -27.6976   19.4953 C   0  0  0  0  0  0
  -23.6074  -29.8213   20.1646 C   0  0  0  0  0  0
  -25.4105  -36.3120   24.0334 C   0  0  1  0  0  0
  -20.5855  -28.3659   23.1332 C   0  0  2  0  0  0
  -20.6755  -26.9401   22.5428 C   0  0  0  0  0  0
  -19.5741  -26.6388   21.5213 C   0  0  0  0  0  0
  -18.1917  -26.7924   22.1617 C   0  0  0  0  0  0
  -19.1515  -28.8836   23.2905 C   0  0  0  0  0  0
  -18.9441  -30.1441   23.8920 C   0  0  0  0  0  0
  -17.6445  -30.6584   24.0569 C   0  0  0  0  0  0
  -25.9030  -34.9480   23.5137 C   0  0  0  0  0  0
  -16.5339  -29.9091   23.6319 C   0  0  0  0  0  0
  -16.7259  -28.6506   23.0345 C   0  0  0  0  0  0
  -26.4455  -31.6601   25.0721 C   0  0  0  0  0  0
  -25.3743  -31.3724   26.1494 C   0  0  0  0  0  0
  -27.0264  -30.3041   24.6067 C   0  0  0  0  0  0
  -27.6061  -32.4306   25.7450 C   0  0  0  0  0  0
  -27.5589  -37.1807   24.8453 C   0  0  0  0  0  0
  -21.4130  -29.3023   22.3744 N   0  0  0  0  0  0
  -26.4298  -37.3797   23.9406 N   0  0  0  0  0  0
  -24.6611  -31.0830   22.1008 N   0  0  0  0  0  0
  -23.4183  -28.8205   23.3044 O   0  0  0  0  0  0
  -28.3809  -26.6909   20.0939 O   0  0  0  0  0  0
  -26.5594  -34.8925   22.4697 O   0  0  0  0  0  0
  -23.5295  -32.1441   23.7531 O   0  0  0  0  0  0
  -29.0433  -19.1495   20.5886 C   0  0  0  0  0  0
  -29.1204  -17.7907   20.9392 C   0  0  0  0  0  0
  -29.7772  -19.6657   19.5033 C   0  0  0  0  0  0
  -30.5421  -18.7635   18.7099 C   0  0  0  0  0  0
  -30.5329  -17.3637   19.0007 C   0  0  0  0  0  0
  -29.8834  -16.8818   20.1813 C   0  0  0  0  0  0
  -30.0362  -22.6606   21.1833 C   0  0  0  0  0  0
  -30.3580  -12.7617   24.9682 C   0  0  0  0  0  0
  -30.1661  -22.0559   22.3810 C   0  0  0  0  0  0
  -31.0818  -13.8361   24.6181 C   0  0  0  0  0  0
  -30.8996  -20.8200   22.5748 C   0  0  0  0  0  0
  -30.5340  -15.1752   24.6265 C   0  0  0  0  0  0
  -30.5527  -19.9098   23.4975 C   0  0  0  0  0  0
  -31.2157  -16.2501   24.2006 C   0  0  0  0  0  0
  -31.2112  -18.6249   23.5901 C   0  0  0  0  0  0
  -30.6273  -17.5728   24.1840 C   0  0  0  0  0  0
  -29.2254  -23.9358   20.9164 C   0  0  0  0  0  0
  -32.3695  -24.6389   20.8457 C   0  0  0  0  0  0
  -32.6033  -23.6210   19.7080 C   0  0  0  0  0  0
  -31.2019  -25.6237   20.6304 C   0  0  0  0  0  0
  -31.3644  -22.9655   19.0520 C   0  0  0  0  0  0
  -29.9065  -25.2484   21.3871 C   0  0  1  0  0  0
  -31.3397  -19.2829   17.5134 C   0  0  0  0  0  0
  -31.1447  -16.4068   17.9783 C   0  0  0  0  0  0
  -29.6448  -21.1694   19.1847 C   0  0  0  0  0  0
  -28.9161  -26.4357   21.3928 C   0  0  0  0  0  0
  -29.8193  -15.5220   20.6337 N   0  0  0  0  0  0
  -30.6047  -22.0354   19.9362 N   0  3  2  0  0  0
  -31.4763  -12.3949   19.1265 H   0  0  0  0  0  0
  -30.3469  -11.2811   19.8490 H   0  0  0  0  0  0
  -29.7416  -11.7090   17.4539 H   0  0  0  0  0  0
  -29.6663  -13.4248   17.7411 H   0  0  0  0  0  0
  -27.8313  -11.2797   18.8377 H   0  0  0  0  0  0
  -27.3737  -12.5900   17.7846 H   0  0  0  0  0  0
  -27.6966  -14.2318   19.5404 H   0  0  0  0  0  0
  -28.6821  -11.9722   21.3647 H   0  0  0  0  0  0
  -28.4833  -13.6305   21.8526 H   0  0  0  0  0  0
  -25.2768   -9.5667   22.4737 H   0  0  0  0  0  0
  -23.9997   -7.4638   22.7466 H   0  0  0  0  0  0
  -21.0830   -8.8787   19.8957 H   0  0  0  0  0  0
  -22.3694  -10.9689   19.6170 H   0  0  0  0  0  0
  -21.2021   -7.6155   23.9716 H   0  0  0  0  0  0
  -21.1459   -6.0522   25.9068 H   0  0  0  0  0  0
  -22.0611   -2.7611   23.2850 H   0  0  0  0  0  0
  -22.4156  -11.9940   22.4789 H   0  0  0  0  0  0
  -21.1142  -13.1290   22.2568 H   0  0  0  0  0  0
  -24.6804  -15.8457   20.5104 H   0  0  0  0  0  0
  -26.2921  -15.6151   20.0639 H   0  0  0  0  0  0
  -26.7091  -32.5572   23.1199 H   0  0  0  0  0  0
  -25.0032  -33.9806   25.0485 H   0  0  0  0  0  0
  -22.6844  -31.3055   21.4112 H   0  0  0  0  0  0
  -23.3731  -35.9686   23.3308 H   0  0  0  0  0  0
  -24.3581  -36.8929   22.2046 H   0  0  0  0  0  0
  -23.7265  -37.6552   23.6632 H   0  0  0  0  0  0
  -26.0234  -31.6092   20.5882 H   0  0  0  0  0  0
  -26.8130  -30.9079   21.9733 H   0  0  0  0  0  0
  -28.0879  -29.1422   21.1865 H   0  0  0  0  0  0
  -26.1078  -25.9877   19.0126 H   0  0  0  0  0  0
  -23.9985  -27.2923   19.0245 H   0  0  0  0  0  0
  -23.7093  -30.5965   19.4038 H   0  0  0  0  0  0
  -22.7346  -29.2351   19.8703 H   0  0  0  0  0  0
  -25.1278  -36.1992   25.0828 H   0  0  0  0  0  0
  -20.9937  -28.3221   24.1456 H   0  0  0  0  0  0
  -20.5644  -26.2274   23.3612 H   0  0  0  0  0  0
  -21.6627  -26.7440   22.1229 H   0  0  0  0  0  0
  -19.6909  -25.6302   21.1230 H   0  0  0  0  0  0
  -19.6694  -27.3212   20.6753 H   0  0  0  0  0  0
  -17.4194  -26.6681   21.4013 H   0  0  0  0  0  0
  -18.0320  -26.0064   22.9009 H   0  0  0  0  0  0
  -19.7916  -30.7246   24.2313 H   0  0  0  0  0  0
  -17.5000  -31.6259   24.5173 H   0  0  0  0  0  0
  -15.5342  -30.3006   23.7621 H   0  0  0  0  0  0
  -15.8657  -28.0834   22.7051 H   0  0  0  0  0  0
  -24.5897  -30.7082   25.7850 H   0  0  0  0  0  0
  -24.8957  -32.2893   26.4946 H   0  0  0  0  0  0
  -25.8106  -30.8893   27.0245 H   0  0  0  0  0  0
  -26.2789  -29.6820   24.1126 H   0  0  0  0  0  0
  -27.4050  -29.7254   25.4501 H   0  0  0  0  0  0
  -27.8620  -30.4359   23.9190 H   0  0  0  0  0  0
  -27.2706  -33.3593   26.2074 H   0  0  0  0  0  0
  -28.3826  -32.6885   25.0237 H   0  0  0  0  0  0
  -28.0780  -31.8405   26.5315 H   0  0  0  0  0  0
  -28.2602  -38.0106   24.7492 H   0  0  0  0  0  0
  -28.1085  -36.2638   24.6267 H   0  0  0  0  0  0
  -27.2312  -37.1448   25.8856 H   0  0  0  0  0  0
  -20.9300  -29.8760   21.6973 H   0  0  0  0  0  0
  -26.0188  -38.2875   24.1416 H   0  0  0  0  0  0
  -28.4265  -19.8037   21.1898 H   0  0  0  0  0  0
  -28.5718  -17.4475   21.8047 H   0  0  0  0  0  0
  -30.7883  -11.7706   24.9560 H   0  0  0  0  0  0
  -29.3236  -12.8510   25.2719 H   0  0  0  0  0  0
  -29.6981  -22.5172   23.2404 H   0  0  0  0  0  0
  -32.1115  -13.6897   24.3206 H   0  0  0  0  0  0
  -31.7439  -20.5947   21.9372 H   0  0  0  0  0  0
  -29.5229  -15.3145   24.9857 H   0  0  0  0  0  0
  -29.7276  -20.1245   24.1640 H   0  0  0  0  0  0
  -32.2288  -16.1245   23.8430 H   0  0  0  0  0  0
  -32.1867  -18.4995   23.1395 H   0  0  0  0  0  0
  -29.6584  -17.7129   24.6437 H   0  0  0  0  0  0
  -28.2902  -23.8216   21.4663 H   0  0  0  0  0  0
  -28.9170  -24.0154   19.8739 H   0  0  0  0  0  0
  -33.2893  -25.2168   20.9565 H   0  0  0  0  0  0
  -32.2631  -24.1285   21.8030 H   0  0  0  0  0  0
  -33.2903  -22.8490   20.0571 H   0  0  0  0  0  0
  -33.1411  -24.1430   18.9158 H   0  0  0  0  0  0
  -31.0065  -25.7951   19.5716 H   0  0  0  0  0  0
  -31.5286  -26.5933   21.0098 H   0  0  0  0  0  0
  -31.7355  -22.4058   18.1956 H   0  0  0  0  0  0
  -30.7082  -23.7181   18.6197 H   0  0  0  0  0  0
  -30.1835  -25.1061   22.4333 H   0  0  0  0  0  0
  -31.7686  -20.2623   17.6998 H   0  0  0  0  0  0
  -30.7061  -19.3435   16.6275 H   0  0  0  0  0  0
  -32.1950  -18.6504   17.2759 H   0  0  0  0  0  0
  -31.0163  -16.7624   16.9572 H   0  0  0  0  0  0
  -30.6540  -15.4384   17.9851 H   0  0  0  0  0  0
  -32.2098  -16.2688   18.1621 H   0  0  0  0  0  0
  -28.6229  -21.4842   19.4019 H   0  0  0  0  0  0
  -29.7407  -21.3175   18.1096 H   0  0  0  0  0  0
  -29.4115  -27.3303   21.7728 H   0  0  0  0  0  0
  -28.1047  -26.2157   22.0895 H   0  0  0  0  0  0
  -28.9417  -15.2566   21.0503 H   0  0  0  0  0  0
  -31.2985  -21.3725   20.2422 H   0  0  0  0  0  0
  1 25  1  0  0  0
  1 30  2  0  0  0
  1 97  1  0  0  0
  2  3  1  0  0  0
  2 25  1  0  0  0
  2 99  1  0  0  0
  2100  1  0  0  0
  3  4  1  0  0  0
  3101  1  0  0  0
  3102  1  0  0  0
  4  5  1  0  0  0
  4103  1  0  0  0
  4104  1  0  0  0
  5  6  1  0  0  0
  5 26  1  0  0  0
  5105  1  0  0  0
  6 25  1  0  0  0
  6106  1  0  0  0
  6107  1  0  0  0
  7  8  2  0  0  0
  7 26  1  0  0  0
  7 29  1  0  0  0
  8  9  1  0  0  0
  8 22  1  0  0  0
  9 10  1  0  0  0
  9 27  2  0  0  0
 10 11  2  0  0  0
 10 15  1  0  0  0
 11 12  1  0  0  0
 11108  1  0  0  0
 12 13  2  0  0  0
 12109  1  0  0  0
 13 14  1  0  0  0
 13 31  1  0  0  0
 14 15  2  0  0  0
 14110  1  0  0  0
 15111  1  0  0  0
 16 17  2  0  0  0
 16 21  1  0  0  0
 16 31  1  0  0  0
 17 18  1  0  0  0
 17112  1  0  0  0
 18 19  2  0  0  0
 18113  1  0  0  0
 19 20  1  0  0  0
 19 24  1  0  0  0
 20 21  2  0  0  0
 20114  1  0  0  0
 21 23  1  0  0  0
 22 28  1  0  0  0
 22 32  2  0  0  0
 26 27  1  0  0  0
 28115  1  0  0  0
 28116  1  0  0  0
 29117  1  0  0  0
 29118  1  0  0  0
 33 34  1  0  0  0
 33 66  1  0  0  0
 33 70  2  0  0  0
 34 36  1  0  0  0
 34 59  1  0  0  0
 34119  1  0  0  0
 35 44  2  0  0  0
 35 45  1  0  0  0
 35 68  1  0  0  0
 36 56  1  0  0  0
 36120  1  0  0  0
 37 39  1  0  0  0
 37 47  1  0  0  0
 37 66  1  0  0  0
 37121  1  0  0  0
 38 43  2  0  0  0
 38 46  1  0  0  0
 38 47  1  0  0  0
 39 64  1  0  0  0
 39 67  2  0  0  0
 40 52  1  0  0  0
 40 53  2  0  0  0
 40 58  1  0  0  0
 41122  1  0  0  0
 41123  1  0  0  0
 41124  1  0  0  0
 41 48  1  0  0  0
 42 43  1  0  0  0
 42 66  1  0  0  0
 42125  1  0  0  0
 42126  1  0  0  0
 43 44  1  0  0  0
 44127  1  0  0  0
 45 46  2  0  0  0
 45128  1  0  0  0
 46129  1  0  0  0
 47130  1  0  0  0
 47131  1  0  0  0
 48 56  1  0  0  0
 48 65  1  0  0  0
 48132  1  0  0  0
 49 50  1  0  0  0
 49 53  1  0  0  0
 49 64  1  0  0  0
 49133  1  0  0  0
 50 51  1  0  0  0
 50134  1  0  0  0
 50135  1  0  0  0
 51 52  1  0  0  0
 51136  1  0  0  0
 51137  1  0  0  0
 52138  1  0  0  0
 52139  1  0  0  0
 53 54  1  0  0  0
 54 55  2  0  0  0
 54140  1  0  0  0
 55 57  1  0  0  0
 55141  1  0  0  0
 56 69  2  0  0  0
 57 58  2  0  0  0
 57142  1  0  0  0
 58143  1  0  0  0
 59 60  1  0  0  0
 59 61  1  0  0  0
 59 62  1  0  0  0
 60144  1  0  0  0
 60145  1  0  0  0
 60146  1  0  0  0
 61147  1  0  0  0
 61148  1  0  0  0
 61149  1  0  0  0
 62150  1  0  0  0
 62151  1  0  0  0
 62152  1  0  0  0
 63 65  1  0  0  0
 63153  1  0  0  0
 63154  1  0  0  0
 63155  1  0  0  0
 64156  1  0  0  0
 65157  1  0  0  0
 68 96  1  0  0  0
 71 72  2  0  0  0
 71 73  1  0  0  0
 71158  1  0  0  0
 72 76  1  0  0  0
 72159  1  0  0  0
 73 74  2  0  0  0
 73 95  1  0  0  0
 74 75  1  0  0  0
 74 93  1  0  0  0
 75 76  2  0  0  0
 75 94  1  0  0  0
 76 97  1  0  0  0
 77 79  2  0  0  0
 77 87  1  0  0  0
 77 98  1  0  0  0
 78 80  2  0  0  0
 78160  1  0  0  0
 78161  1  0  0  0
 79 81  1  0  0  0
 79162  1  0  0  0
 80 82  1  0  0  0
 80163  1  0  0  0
 81 83  2  0  0  0
 81164  1  0  0  0
 82 84  2  0  0  0
 82165  1  0  0  0
 83 85  1  0  0  0
 83166  1  0  0  0
 84 86  1  0  0  0
 84167  1  0  0  0
 85 86  2  0  0  0
 85168  1  0  0  0
 86169  1  0  0  0
 87 92  1  0  0  0
 87170  1  0  0  0
 87171  1  0  0  0
 88 89  1  0  0  0
 88 90  1  0  0  0
 88172  1  0  0  0
 88173  1  0  0  0
 89 91  1  0  0  0
 89174  1  0  0  0
 89175  1  0  0  0
 90 92  1  0  0  0
 90176  1  0  0  0
 90177  1  0  0  0
 91 98  1  0  0  0
 91178  1  0  0  0
 91179  1  0  0  0
 92 96  1  0  0  0
 92180  1  0  0  0
 93181  1  0  0  0
 93182  1  0  0  0
 93183  1  0  0  0
 94184  1  0  0  0
 94185  1  0  0  0
 94186  1  0  0  0
 95187  1  0  0  0
 95188  1  0  0  0
 95 98  1  0  0  0
 96189  1  0  0  0
 96190  1  0  0  0
 97191  1  0  0  0
 98192  1  0  0  0
M  CHG  1  98   1
M  ISO  4   1 100  68 101  96 101  97 100
M  END
> <chiral flag>
0

> <version>
0

> <s_m_source_file>
/data/baiqing/PycharmProjects/Reinvent-master-3.2/result/LINK_invent/BTK/process_docking_weight1_custom_product_contain_oxygen_bond_distance_aromatic_linkinvent_7_9_3/rearranged_h_0040.sdf

> <i_m_source_file_index>
18

> <r_mmod_Potential_Energy-OPLS-2005>
-47.1484222412109

> <r_mmod_Stretch_Energy-OPLS-2005>
44.263240814209

> <r_mmod_Bend_Energy-OPLS-2005>
128.264450073242

> <r_mmod_Torsional_Energy-OPLS-2005>
293.789611816406

> <r_mmod_Improper_Torsional_Energy-OPLS-2005>
7.45246076583862

> <r_mmod_Van_der_Waal_Energy-OPLS-2005>
144.880508422852

> <r_mmod_Electrostatic_Energy-OPLS-2005>
-289.3017578125

> <r_mmod_Solvation_Energy-OPLS-2005>
-394.00537109375

> <b_mmod_Minimization_Converged-OPLS-2005>
0

> <r_mmod_RMS_Derivative-OPLS-2005>
2.07168078422546

$$$$
18
                    3D
 Structure written by MMmdl.
174183  0  0  1  0            999 V2000
  -30.7659  -14.4489   20.5094 C   0  0  0  0  0  0
  -30.4012  -12.2848   19.4317 C   0  0  0  0  0  0
  -29.4925  -12.4957   18.2044 C   0  0  0  0  0  0
  -28.0139  -12.3780   18.6193 C   0  0  0  0  0  0
  -27.6586  -13.2313   19.8662 C   0  0  2  0  0  0
  -28.7055  -13.0459   20.9931 C   0  0  0  0  0  0
  -25.2556  -13.8234   20.5739 C   0  0  0  0  0  0
  -24.1905  -13.0539   20.9222 C   0  0  0  0  0  0
  -24.6466  -11.6978   20.8699 C   0  0  0  0  0  0
  -23.9122  -10.4359   21.0385 C   0  0  0  0  0  0
  -24.3649   -9.4271   21.9195 C   0  0  0  0  0  0
  -23.6325   -8.2306   22.0758 C   0  0  0  0  0  0
  -22.4326   -8.0288   21.3542 C   0  0  0  0  0  0
  -21.9957   -9.0300   20.4688 C   0  0  0  0  0  0
  -22.7250  -10.2194   20.3075 C   0  0  0  0  0  0
  -21.6863   -6.0744   22.5302 C   0  0  0  0  0  0
  -21.4006   -6.5661   23.8221 C   0  0  0  0  0  0
  -21.3668   -5.6800   24.9156 C   0  0  0  0  0  0
  -21.6048   -4.3074   24.7214 C   0  0  0  0  0  0
  -21.8828   -3.8184   23.4335 C   0  0  0  0  0  0
  -21.9191   -4.6976   22.3384 C   0  0  0  0  0  0
  -22.7824  -13.5207   21.1911 C   0  0  0  0  0  0
  -22.1667   -4.2162   21.0949 F   0  0  0  0  0  0
  -21.5631   -3.4551   25.7736 F   0  0  0  0  0  0
  -30.0408  -13.2999   20.4212 N   0  0  0  0  0  0
  -26.3027  -12.9513   20.3311 N   0  0  0  0  0  0
  -25.9393  -11.6684   20.5807 N   0  0  0  0  0  0
  -22.0452  -12.8244   22.0418 N   0  0  0  0  0  0
  -25.4304  -15.1976   20.4150 N   0  0  0  0  0  0
  -31.9031  -14.5641   20.0702 O   0  0  0  0  0  0
  -21.6662   -6.8889   21.4259 O   0  0  0  0  0  0
  -22.3557  -14.5539   20.6696 O   0  0  0  0  0  0
  -24.6212  -31.8746   23.2148 C   0  0  0  0  0  0
  -25.9173  -32.4785   23.8445 C   0  0  1  0  0  0
  -27.0619  -27.2997   20.2232 C   0  0  0  0  0  0
  -25.6042  -33.8588   24.2341 N   0  0  0  0  0  0
  -23.4016  -30.5429   21.5313 C   0  0  2  0  0  0
  -24.8229  -29.0138   20.0949 C   0  0  0  0  0  0
  -22.7417  -29.4887   22.4514 C   0  0  0  0  0  0
  -18.0727  -28.1672   22.8375 C   0  0  0  0  0  0
  -24.1457  -36.7198   23.2634 C   0  0  0  0  0  0
  -25.9503  -30.8002   21.4007 C   0  0  0  0  0  0
  -25.9962  -29.4414   20.7381 C   0  0  0  0  0  0
  -27.1342  -28.5927   20.7931 C   0  0  0  0  0  0
  -25.9202  -26.9567   19.4558 C   0  0  0  0  0  0
  -24.7906  -27.7832   19.4332 C   0  0  0  0  0  0
  -23.6114  -29.9001   20.1458 C   0  0  0  0  0  0
  -25.4142  -36.3021   24.0241 C   0  0  1  0  0  0
  -20.6284  -28.3414   23.0904 C   0  0  2  0  0  0
  -20.7050  -26.8938   22.5903 C   0  0  0  0  0  0
  -19.6245  -26.5317   21.5598 C   0  0  0  0  0  0
  -18.2065  -26.8430   22.0975 C   0  0  0  0  0  0
  -19.2138  -28.8812   23.2794 C   0  0  0  0  0  0
  -19.0427  -30.1341   23.9015 C   0  0  0  0  0  0
  -17.7569  -30.6734   24.0920 C   0  0  0  0  0  0
  -25.9158  -34.9404   23.5080 C   0  0  0  0  0  0
  -16.6192  -29.9571   23.6612 C   0  0  0  0  0  0
  -16.7717  -28.6957   23.0420 C   0  0  0  0  0  0
  -26.4604  -31.6508   25.0767 C   0  0  0  0  0  0
  -25.3794  -31.3610   26.1443 C   0  0  0  0  0  0
  -27.0415  -30.2910   24.6158 C   0  0  0  0  0  0
  -27.6181  -32.4285   25.7481 C   0  0  0  0  0  0
  -27.5556  -37.1766   24.8491 C   0  0  0  0  0  0
  -21.4353  -29.2281   22.2545 N   0  0  0  0  0  0
  -26.4344  -37.3715   23.9314 N   0  0  0  0  0  0
  -24.6771  -31.0791   22.1104 N   0  0  0  0  0  0
  -23.4224  -28.9183   23.3166 O   0  0  0  0  0  0
  -27.9472  -26.2886   20.5788 O   0  0  0  0  0  0
  -26.5701  -34.8941   22.4656 O   0  0  0  0  0  0
  -23.5404  -32.1529   23.7532 O   0  0  0  0  0  0
  -29.5929  -18.9141   21.7820 C   0  0  0  0  0  0
  -28.7575  -20.0399   21.7766 C   0  0  0  0  0  0
  -29.6411  -18.0167   20.7099 C   0  0  0  0  0  0
  -27.9400  -20.3226   20.6355 C   0  0  0  0  0  0
  -27.9532  -19.3857   19.5423 C   0  0  0  0  0  0
  -28.8179  -18.2538   19.5770 C   0  0  0  0  0  0
  -25.8031  -23.0267   22.4132 C   0  0  0  0  0  0
  -23.0146  -21.5955   20.5948 C   0  0  0  0  0  0
  -24.5167  -22.8374   22.0492 C   0  0  0  0  0  0
  -24.1285  -22.2910   20.7879 C   0  0  0  0  0  0
  -26.1839  -24.0944   23.3983 C   0  0  0  0  0  0
  -26.4472  -25.3868   22.5404 C   0  0  0  0  0  0
  -27.9832  -23.7395   21.3307 C   0  0  0  0  0  0
  -27.2351  -25.1164   21.1957 C   0  0  2  0  0  0
  -28.7637  -20.8306   23.0747 C   0  0  0  0  0  0
  -27.0222  -19.5752   18.3346 C   0  0  0  0  0  0
  -30.6499  -16.8833   20.7973 C   0  0  0  0  0  0
  -26.9735  -21.5167   20.6046 C   0  0  0  0  0  0
  -30.1003  -15.5354   20.9373 N   0  0  0  0  0  0
  -27.0563  -22.5930   21.6596 N   0  3  2  0  0  0
  -28.8591  -17.1167   18.2701 Cl  0  0  0  0  0  0
  -31.4517  -12.3156   19.1405 H   0  0  0  0  0  0
  -30.2525  -11.2810   19.8424 H   0  0  0  0  0  0
  -29.7286  -11.7807   17.4157 H   0  0  0  0  0  0
  -29.6749  -13.4802   17.7717 H   0  0  0  0  0  0
  -27.8199  -11.3225   18.8234 H   0  0  0  0  0  0
  -27.3632  -12.6475   17.7845 H   0  0  0  0  0  0
  -27.6873  -14.2711   19.5506 H   0  0  0  0  0  0
  -28.6746  -12.0308   21.3901 H   0  0  0  0  0  0
  -28.5000  -13.7043   21.8325 H   0  0  0  0  0  0
  -25.2811   -9.5727   22.4741 H   0  0  0  0  0  0
  -24.0052   -7.4682   22.7484 H   0  0  0  0  0  0
  -21.0870   -8.8859   19.8951 H   0  0  0  0  0  0
  -22.3769  -10.9737   19.6176 H   0  0  0  0  0  0
  -21.2003   -7.6171   23.9715 H   0  0  0  0  0  0
  -21.1465   -6.0527   25.9059 H   0  0  0  0  0  0
  -22.0589   -2.7641   23.2829 H   0  0  0  0  0  0
  -22.4134  -11.9891   22.4784 H   0  0  0  0  0  0
  -21.1049  -13.1305   22.2586 H   0  0  0  0  0  0
  -24.6721  -15.8524   20.5710 H   0  0  0  0  0  0
  -26.2838  -15.6348   20.1085 H   0  0  0  0  0  0
  -26.7214  -32.5536   23.1168 H   0  0  0  0  0  0
  -24.9854  -33.9706   25.0223 H   0  0  0  0  0  0
  -22.7223  -31.3899   21.3995 H   0  0  0  0  0  0
  -23.3738  -35.9538   23.3398 H   0  0  0  0  0  0
  -24.3554  -36.8804   22.2074 H   0  0  0  0  0  0
  -23.7300  -37.6415   23.6664 H   0  0  0  0  0  0
  -26.0941  -31.5733   20.6426 H   0  0  0  0  0  0
  -26.8471  -30.8434   22.0130 H   0  0  0  0  0  0
  -27.9932  -28.8210   21.4024 H   0  0  0  0  0  0
  -25.7942  -26.0023   18.9700 H   0  0  0  0  0  0
  -23.8796  -27.4732   18.9350 H   0  0  0  0  0  0
  -23.6898  -30.6724   19.3836 H   0  0  0  0  0  0
  -22.7328  -29.3174   19.8655 H   0  0  0  0  0  0
  -25.1360  -36.1791   25.0730 H   0  0  0  0  0  0
  -21.0711  -28.3630   24.0868 H   0  0  0  0  0  0
  -20.6393  -26.2311   23.4476 H   0  0  0  0  0  0
  -21.6901  -26.6946   22.1748 H   0  0  0  0  0  0
  -19.7353  -25.4726   21.2899 H   0  0  0  0  0  0
  -19.8325  -27.0955   20.6449 H   0  0  0  0  0  0
  -17.5103  -26.8750   21.2565 H   0  0  0  0  0  0
  -17.8667  -26.0562   22.7636 H   0  0  0  0  0  0
  -19.9140  -30.6861   24.2432 H   0  0  0  0  0  0
  -17.6770  -31.6376   24.5682 H   0  0  0  0  0  0
  -15.6388  -30.3840   23.8138 H   0  0  0  0  0  0
  -15.9147  -28.1500   22.6880 H   0  0  0  0  0  0
  -24.5957  -30.7029   25.7652 H   0  0  0  0  0  0
  -24.9025  -32.2782   26.4848 H   0  0  0  0  0  0
  -25.8126  -30.8700   27.0143 H   0  0  0  0  0  0
  -26.2970  -29.6659   24.1230 H   0  0  0  0  0  0
  -27.4155  -29.7157   25.4604 H   0  0  0  0  0  0
  -27.8808  -30.4125   23.9352 H   0  0  0  0  0  0
  -27.2696  -33.3527   26.2030 H   0  0  0  0  0  0
  -28.3891  -32.6960   25.0258 H   0  0  0  0  0  0
  -28.0845  -31.8446   26.5367 H   0  0  0  0  0  0
  -28.2638  -37.9984   24.7501 H   0  0  0  0  0  0
  -28.0976  -36.2571   24.6346 H   0  0  0  0  0  0
  -27.2260  -37.1413   25.8889 H   0  0  0  0  0  0
  -20.9707  -29.6199   21.4413 H   0  0  0  0  0  0
  -26.0155  -38.2742   24.1367 H   0  0  0  0  0  0
  -30.1983  -18.7190   22.6586 H   0  0  0  0  0  0
  -22.8098  -21.1706   19.6264 H   0  0  0  0  0  0
  -22.3217  -21.4378   21.4066 H   0  0  0  0  0  0
  -23.7385  -23.3409   22.6218 H   0  0  0  0  0  0
  -24.7792  -22.4766   19.9409 H   0  0  0  0  0  0
  -27.0257  -23.7664   24.0230 H   0  0  0  0  0  0
  -25.3781  -24.2529   24.1105 H   0  0  0  0  0  0
  -26.8716  -26.1983   23.1360 H   0  0  0  0  0  0
  -25.4605  -25.7691   22.2558 H   0  0  0  0  0  0
  -28.6820  -23.8258   22.1620 H   0  0  0  0  0  0
  -28.5979  -23.5331   20.4552 H   0  0  0  0  0  0
  -26.4819  -24.7685   20.4845 H   0  0  0  0  0  0
  -29.5424  -20.4570   23.7292 H   0  0  0  0  0  0
  -27.8241  -20.7122   23.6149 H   0  0  0  0  0  0
  -29.0121  -21.8803   22.9622 H   0  0  0  0  0  0
  -25.9785  -19.5505   18.6443 H   0  0  0  0  0  0
  -27.0969  -18.8000   17.5662 H   0  0  0  0  0  0
  -27.2145  -20.5187   17.8212 H   0  0  0  0  0  0
  -31.3321  -17.0483   21.6313 H   0  0  0  0  0  0
  -31.2833  -16.9580   19.9117 H   0  0  0  0  0  0
  -26.0626  -20.9437   20.7181 H   0  0  0  0  0  0
  -26.9146  -21.9978   19.6302 H   0  0  0  0  0  0
  -29.1631  -15.4288   21.3002 H   0  0  0  0  0  0
  -27.5657  -22.0521   22.3484 H   0  0  0  0  0  0
  1 25  1  0  0  0
  1 30  2  0  0  0
  1 89  1  0  0  0
  2  3  1  0  0  0
  2 25  1  0  0  0
  2 92  1  0  0  0
  2 93  1  0  0  0
  3  4  1  0  0  0
  3 94  1  0  0  0
  3 95  1  0  0  0
  4  5  1  0  0  0
  4 96  1  0  0  0
  4 97  1  0  0  0
  5  6  1  0  0  0
  5 26  1  0  0  0
  5 98  1  0  0  0
  6 25  1  0  0  0
  6 99  1  0  0  0
  6100  1  0  0  0
  7  8  2  0  0  0
  7 26  1  0  0  0
  7 29  1  0  0  0
  8  9  1  0  0  0
  8 22  1  0  0  0
  9 10  1  0  0  0
  9 27  2  0  0  0
 10 11  2  0  0  0
 10 15  1  0  0  0
 11 12  1  0  0  0
 11101  1  0  0  0
 12 13  2  0  0  0
 12102  1  0  0  0
 13 14  1  0  0  0
 13 31  1  0  0  0
 14 15  2  0  0  0
 14103  1  0  0  0
 15104  1  0  0  0
 16 17  2  0  0  0
 16 21  1  0  0  0
 16 31  1  0  0  0
 17 18  1  0  0  0
 17105  1  0  0  0
 18 19  2  0  0  0
 18106  1  0  0  0
 19 20  1  0  0  0
 19 24  1  0  0  0
 20 21  2  0  0  0
 20107  1  0  0  0
 21 23  1  0  0  0
 22 28  1  0  0  0
 22 32  2  0  0  0
 26 27  1  0  0  0
 28108  1  0  0  0
 28109  1  0  0  0
 29110  1  0  0  0
 29111  1  0  0  0
 33 34  1  0  0  0
 33 66  1  0  0  0
 33 70  2  0  0  0
 34 36  1  0  0  0
 34 59  1  0  0  0
 34112  1  0  0  0
 35 44  2  0  0  0
 35 45  1  0  0  0
 35 68  1  0  0  0
 36 56  1  0  0  0
 36113  1  0  0  0
 37 39  1  0  0  0
 37 47  1  0  0  0
 37 66  1  0  0  0
 37114  1  0  0  0
 38 43  2  0  0  0
 38 46  1  0  0  0
 38 47  1  0  0  0
 39 64  1  0  0  0
 39 67  2  0  0  0
 40 52  1  0  0  0
 40 53  2  0  0  0
 40 58  1  0  0  0
 41115  1  0  0  0
 41116  1  0  0  0
 41117  1  0  0  0
 41 48  1  0  0  0
 42 43  1  0  0  0
 42 66  1  0  0  0
 42118  1  0  0  0
 42119  1  0  0  0
 43 44  1  0  0  0
 44120  1  0  0  0
 45 46  2  0  0  0
 45121  1  0  0  0
 46122  1  0  0  0
 47123  1  0  0  0
 47124  1  0  0  0
 48 56  1  0  0  0
 48 65  1  0  0  0
 48125  1  0  0  0
 49 50  1  0  0  0
 49 53  1  0  0  0
 49 64  1  0  0  0
 49126  1  0  0  0
 50 51  1  0  0  0
 50127  1  0  0  0
 50128  1  0  0  0
 51 52  1  0  0  0
 51129  1  0  0  0
 51130  1  0  0  0
 52131  1  0  0  0
 52132  1  0  0  0
 53 54  1  0  0  0
 54 55  2  0  0  0
 54133  1  0  0  0
 55 57  1  0  0  0
 55134  1  0  0  0
 56 69  2  0  0  0
 57 58  2  0  0  0
 57135  1  0  0  0
 58136  1  0  0  0
 59 60  1  0  0  0
 59 61  1  0  0  0
 59 62  1  0  0  0
 60137  1  0  0  0
 60138  1  0  0  0
 60139  1  0  0  0
 61140  1  0  0  0
 61141  1  0  0  0
 61142  1  0  0  0
 62143  1  0  0  0
 62144  1  0  0  0
 62145  1  0  0  0
 63 65  1  0  0  0
 63146  1  0  0  0
 63147  1  0  0  0
 63148  1  0  0  0
 64149  1  0  0  0
 65150  1  0  0  0
 68 84  1  0  0  0
 71 72  2  0  0  0
 71 73  1  0  0  0
 71151  1  0  0  0
 72 74  1  0  0  0
 72 85  1  0  0  0
 73 76  2  0  0  0
 73 87  1  0  0  0
 74 75  2  0  0  0
 74 88  1  0  0  0
 75 76  1  0  0  0
 75 86  1  0  0  0
 76 91  1  0  0  0
 77 79  2  0  0  0
 77 81  1  0  0  0
 77 90  1  0  0  0
 78 80  2  0  0  0
 78152  1  0  0  0
 78153  1  0  0  0
 79 80  1  0  0  0
 79154  1  0  0  0
 80155  1  0  0  0
 81 82  1  0  0  0
 81156  1  0  0  0
 81157  1  0  0  0
 82 84  1  0  0  0
 82158  1  0  0  0
 82159  1  0  0  0
 83 84  1  0  0  0
 83 90  1  0  0  0
 83160  1  0  0  0
 83161  1  0  0  0
 84162  1  0  0  0
 85163  1  0  0  0
 85164  1  0  0  0
 85165  1  0  0  0
 86166  1  0  0  0
 86167  1  0  0  0
 86168  1  0  0  0
 87 89  1  0  0  0
 87169  1  0  0  0
 87170  1  0  0  0
 88171  1  0  0  0
 88172  1  0  0  0
 88 90  1  0  0  0
 89173  1  0  0  0
 90174  1  0  0  0
M  CHG  1  90   1
M  ISO  4   1 100  68 101  84 101  89 100
M  END
> <chiral flag>
0

> <version>
0

> <s_m_source_file>
/data/baiqing/PycharmProjects/Reinvent-master-3.2/result/LINK_invent/BTK/process_docking_weight1_custom_product_contain_oxygen_bond_distance_aromatic_linkinvent_7_9_3/rearranged_h_0040.sdf

> <i_m_source_file_index>
19

> <r_mmod_Potential_Energy-OPLS-2005>
167.522735595703

> <r_mmod_Stretch_Energy-OPLS-2005>
72.1661529541016

> <r_mmod_Bend_Energy-OPLS-2005>
174.724990844727

> <r_mmod_Torsional_Energy-OPLS-2005>
300.256195068359

> <r_mmod_Improper_Torsional_Energy-OPLS-2005>
8.31466197967529

> <r_mmod_Van_der_Waal_Energy-OPLS-2005>
202.447982788086

> <r_mmod_Electrostatic_Energy-OPLS-2005>
-297.178955078125

> <r_mmod_Solvation_Energy-OPLS-2005>
-414.595123291016

> <b_mmod_Minimization_Converged-OPLS-2005>
0

> <r_mmod_RMS_Derivative-OPLS-2005>
23.0516777038574

$$$$
19
                    3D
 Structure written by MMmdl.
159167  0  0  1  0            999 V2000
  -30.7304  -14.4426   20.6355 C   0  0  0  0  0  0
  -30.4224  -12.3195   19.4079 C   0  0  0  0  0  0
  -29.4878  -12.5206   18.1993 C   0  0  0  0  0  0
  -28.0123  -12.3751   18.6182 C   0  0  0  0  0  0
  -27.6609  -13.2117   19.8765 C   0  0  2  0  0  0
  -28.7017  -12.9801   20.9934 C   0  0  0  0  0  0
  -25.2574  -13.8189   20.5693 C   0  0  0  0  0  0
  -24.1838  -13.0459   20.9206 C   0  0  0  0  0  0
  -24.6412  -11.6928   20.8776 C   0  0  0  0  0  0
  -23.9093  -10.4302   21.0437 C   0  0  0  0  0  0
  -24.3640   -9.4202   21.9211 C   0  0  0  0  0  0
  -23.6302   -8.2247   22.0754 C   0  0  0  0  0  0
  -22.4284   -8.0301   21.3547 C   0  0  0  0  0  0
  -21.9937   -9.0283   20.4651 C   0  0  0  0  0  0
  -22.7275  -10.2156   20.3072 C   0  0  0  0  0  0
  -21.6849   -6.0758   22.5288 C   0  0  0  0  0  0
  -21.4004   -6.5653   23.8227 C   0  0  0  0  0  0
  -21.3653   -5.6794   24.9181 C   0  0  0  0  0  0
  -21.6043   -4.3062   24.7219 C   0  0  0  0  0  0
  -21.8818   -3.8166   23.4341 C   0  0  0  0  0  0
  -21.9188   -4.6987   22.3402 C   0  0  0  0  0  0
  -22.7853  -13.5249   21.1870 C   0  0  0  0  0  0
  -22.1660   -4.2191   21.0978 F   0  0  0  0  0  0
  -21.5623   -3.4538   25.7723 F   0  0  0  0  0  0
  -30.0349  -13.2889   20.4432 N   0  0  0  0  0  0
  -26.3018  -12.9372   20.3376 N   0  0  0  0  0  0
  -25.9337  -11.6532   20.5795 N   0  0  0  0  0  0
  -22.0473  -12.8237   22.0408 N   0  0  0  0  0  0
  -25.4289  -15.1900   20.4058 N   0  0  0  0  0  0
  -31.8250  -14.6636   20.1104 O   0  0  0  0  0  0
  -21.6631   -6.8906   21.4254 O   0  0  0  0  0  0
  -22.3548  -14.5570   20.6728 O   0  0  0  0  0  0
  -24.6119  -31.8681   23.2095 C   0  0  0  0  0  0
  -25.9010  -32.4838   23.8405 C   0  0  1  0  0  0
  -27.2429  -27.4467   20.0845 C   0  0  0  0  0  0
  -25.5864  -33.8640   24.2320 N   0  0  0  0  0  0
  -23.3998  -30.4901   21.5482 C   0  0  2  0  0  0
  -24.8482  -28.9549   20.1144 C   0  0  0  0  0  0
  -22.7406  -29.4645   22.4983 C   0  0  0  0  0  0
  -18.0263  -28.1372   22.8480 C   0  0  0  0  0  0
  -24.1475  -36.7327   23.2635 C   0  0  0  0  0  0
  -25.9253  -30.8391   21.3572 C   0  0  0  0  0  0
  -26.0040  -29.4696   20.7116 C   0  0  0  0  0  0
  -27.1992  -28.7174   20.7014 C   0  0  0  0  0  0
  -26.0673  -26.9421   19.4829 C   0  0  0  0  0  0
  -24.8726  -27.6902   19.4993 C   0  0  0  0  0  0
  -23.6083  -29.8199   20.1642 C   0  0  0  0  0  0
  -25.4095  -36.3125   24.0337 C   0  0  1  0  0  0
  -20.5857  -28.3637   23.1328 C   0  0  2  0  0  0
  -20.6748  -26.9369   22.5433 C   0  0  0  0  0  0
  -19.5747  -26.6385   21.5203 C   0  0  0  0  0  0
  -18.1910  -26.7931   22.1605 C   0  0  0  0  0  0
  -19.1518  -28.8823   23.2906 C   0  0  0  0  0  0
  -18.9458  -30.1427   23.8916 C   0  0  0  0  0  0
  -17.6464  -30.6573   24.0559 C   0  0  0  0  0  0
  -25.9027  -34.9494   23.5138 C   0  0  0  0  0  0
  -16.5342  -29.9080   23.6328 C   0  0  0  0  0  0
  -16.7264  -28.6507   23.0331 C   0  0  0  0  0  0
  -26.4438  -31.6629   25.0727 C   0  0  0  0  0  0
  -25.3719  -31.3754   26.1499 C   0  0  0  0  0  0
  -27.0260  -30.3096   24.6054 C   0  0  0  0  0  0
  -27.6020  -32.4338   25.7486 C   0  0  0  0  0  0
  -27.5572  -37.1809   24.8453 C   0  0  0  0  0  0
  -21.4138  -29.3022   22.3756 N   0  0  0  0  0  0
  -26.4275  -37.3812   23.9410 N   0  0  0  0  0  0
  -24.6639  -31.0795   22.0990 N   0  0  0  0  0  0
  -23.4198  -28.8177   23.3003 O   0  0  0  0  0  0
  -28.4484  -26.7746   20.0875 O   0  0  0  0  0  0
  -26.5596  -34.8942   22.4704 O   0  0  0  0  0  0
  -23.5313  -32.1394   23.7507 O   0  0  0  0  0  0
  -31.6939  -18.2559   20.3253 C   0  0  0  0  0  0
  -30.4674  -20.2322   19.5896 C   0  0  0  0  0  0
  -30.5992  -17.8459   21.1124 C   0  0  0  0  0  0
  -29.3518  -19.8523   20.3708 C   0  0  0  0  0  0
  -31.6302  -19.4406   19.5704 C   0  0  0  0  0  0
  -29.4259  -18.6491   21.1325 C   0  0  0  0  0  0
  -30.7405  -16.5755   21.9612 C   0  0  0  0  0  0
  -28.0457  -20.6650   20.3264 C   0  0  0  0  0  0
  -27.9102  -24.4708   20.8055 C   0  0  0  0  0  0
  -28.5464  -23.0624   20.9599 C   0  0  0  0  0  0
  -28.5284  -25.3912   19.7261 C   0  0  0  0  0  0
  -30.1325  -15.3566   21.4149 N   0  0  0  0  0  0
  -28.1274  -22.0940   19.9148 N   0  3  0  0  0  0
  -32.9806  -19.9227   18.6110 Cl  0  0  0  0  0  0
  -28.0701  -18.1330   22.0780 Cl  0  0  0  0  0  0
  -31.4656  -12.4260   19.1032 H   0  0  0  0  0  0
  -30.3300  -11.3049   19.7981 H   0  0  0  0  0  0
  -29.7258  -11.8002   17.4162 H   0  0  0  0  0  0
  -29.6528  -13.5086   17.7660 H   0  0  0  0  0  0
  -27.8251  -11.3187   18.8129 H   0  0  0  0  0  0
  -27.3582  -12.6490   17.7905 H   0  0  0  0  0  0
  -27.7102  -14.2625   19.5916 H   0  0  0  0  0  0
  -28.6774  -11.9386   21.3162 H   0  0  0  0  0  0
  -28.4543  -13.5617   21.8827 H   0  0  0  0  0  0
  -25.2787   -9.5665   22.4793 H   0  0  0  0  0  0
  -24.0012   -7.4622   22.7455 H   0  0  0  0  0  0
  -21.0877   -8.8837   19.8936 H   0  0  0  0  0  0
  -22.3778  -10.9716   19.6183 H   0  0  0  0  0  0
  -21.1997   -7.6159   23.9751 H   0  0  0  0  0  0
  -21.1468   -6.0512   25.9088 H   0  0  0  0  0  0
  -22.0602   -2.7636   23.2824 H   0  0  0  0  0  0
  -22.4034  -11.9883   22.4809 H   0  0  0  0  0  0
  -21.1082  -13.1268   22.2575 H   0  0  0  0  0  0
  -24.6684  -15.8501   20.5179 H   0  0  0  0  0  0
  -26.2850  -15.6259   20.0879 H   0  0  0  0  0  0
  -26.7072  -32.5577   23.1168 H   0  0  0  0  0  0
  -25.0001  -33.9798   25.0460 H   0  0  0  0  0  0
  -22.6864  -31.3047   21.4055 H   0  0  0  0  0  0
  -23.3730  -35.9669   23.3310 H   0  0  0  0  0  0
  -24.3546  -36.8966   22.2043 H   0  0  0  0  0  0
  -23.7234  -37.6540   23.6658 H   0  0  0  0  0  0
  -26.0177  -31.5975   20.5794 H   0  0  0  0  0  0
  -26.8208  -30.9113   21.9632 H   0  0  0  0  0  0
  -28.0916  -29.1053   21.1726 H   0  0  0  0  0  0
  -26.0555  -25.9821   18.9865 H   0  0  0  0  0  0
  -23.9838  -27.2931   19.0258 H   0  0  0  0  0  0
  -23.7135  -30.5910   19.3987 H   0  0  0  0  0  0
  -22.7339  -29.2330   19.8728 H   0  0  0  0  0  0
  -25.1264  -36.2000   25.0827 H   0  0  0  0  0  0
  -20.9929  -28.3208   24.1467 H   0  0  0  0  0  0
  -20.5634  -26.2234   23.3627 H   0  0  0  0  0  0
  -21.6613  -26.7429   22.1230 H   0  0  0  0  0  0
  -19.6905  -25.6306   21.1214 H   0  0  0  0  0  0
  -19.6699  -27.3213   20.6749 H   0  0  0  0  0  0
  -17.4193  -26.6701   21.3988 H   0  0  0  0  0  0
  -18.0269  -26.0066   22.8992 H   0  0  0  0  0  0
  -19.7942  -30.7207   24.2308 H   0  0  0  0  0  0
  -17.5033  -31.6258   24.5153 H   0  0  0  0  0  0
  -15.5347  -30.2974   23.7659 H   0  0  0  0  0  0
  -15.8670  -28.0836   22.7012 H   0  0  0  0  0  0
  -24.5882  -30.7099   25.7869 H   0  0  0  0  0  0
  -24.8885  -32.2908   26.4921 H   0  0  0  0  0  0
  -25.8069  -30.8962   27.0279 H   0  0  0  0  0  0
  -26.2803  -29.6874   24.1097 H   0  0  0  0  0  0
  -27.4066  -29.7313   25.4479 H   0  0  0  0  0  0
  -27.8606  -30.4442   23.9177 H   0  0  0  0  0  0
  -27.2681  -33.3674   26.2022 H   0  0  0  0  0  0
  -28.3860  -32.6850   25.0336 H   0  0  0  0  0  0
  -28.0637  -31.8480   26.5448 H   0  0  0  0  0  0
  -28.2584  -38.0103   24.7511 H   0  0  0  0  0  0
  -28.1088  -36.2649   24.6277 H   0  0  0  0  0  0
  -27.2300  -37.1463   25.8857 H   0  0  0  0  0  0
  -20.9286  -29.8840   21.7072 H   0  0  0  0  0  0
  -26.0188  -38.2903   24.1426 H   0  0  0  0  0  0
  -32.5972  -17.6631   20.3029 H   0  0  0  0  0  0
  -30.4480  -21.1230   18.9813 H   0  0  0  0  0  0
  -30.3037  -16.7580   22.9440 H   0  0  0  0  0  0
  -31.7986  -16.3938   22.1613 H   0  0  0  0  0  0
  -27.5315  -20.6169   21.2863 H   0  0  0  0  0  0
  -27.3903  -20.1609   19.6155 H   0  0  0  0  0  0
  -28.0308  -24.9746   21.7646 H   0  0  0  0  0  0
  -26.8317  -24.3887   20.6637 H   0  0  0  0  0  0
  -28.2377  -22.6799   21.9332 H   0  0  0  0  0  0
  -29.6337  -23.1288   21.0037 H   0  0  0  0  0  0
  -28.1137  -25.2033   18.7369 H   0  0  0  0  0  0
  -29.5935  -25.1716   19.6406 H   0  0  0  0  0  0
  -29.2146  -15.1188   21.7604 H   0  0  0  0  0  0
  -27.1862  -22.3389   19.6545 H   0  0  0  0  0  0
  -28.6907  -22.1869   19.0856 H   0  0  0  0  0  0
  1 25  1  0  0  0
  1 30  2  0  0  0
  1 82  1  0  0  0
  2  3  1  0  0  0
  2 25  1  0  0  0
  2 86  1  0  0  0
  2 87  1  0  0  0
  3  4  1  0  0  0
  3 88  1  0  0  0
  3 89  1  0  0  0
  4  5  1  0  0  0
  4 90  1  0  0  0
  4 91  1  0  0  0
  5  6  1  0  0  0
  5 26  1  0  0  0
  5 92  1  0  0  0
  6 25  1  0  0  0
  6 93  1  0  0  0
  6 94  1  0  0  0
  7  8  2  0  0  0
  7 26  1  0  0  0
  7 29  1  0  0  0
  8  9  1  0  0  0
  8 22  1  0  0  0
  9 10  1  0  0  0
  9 27  2  0  0  0
 10 11  2  0  0  0
 10 15  1  0  0  0
 11 12  1  0  0  0
 11 95  1  0  0  0
 12 13  2  0  0  0
 12 96  1  0  0  0
 13 14  1  0  0  0
 13 31  1  0  0  0
 14 15  2  0  0  0
 14 97  1  0  0  0
 15 98  1  0  0  0
 16 17  2  0  0  0
 16 21  1  0  0  0
 16 31  1  0  0  0
 17 18  1  0  0  0
 17 99  1  0  0  0
 18 19  2  0  0  0
 18100  1  0  0  0
 19 20  1  0  0  0
 19 24  1  0  0  0
 20 21  2  0  0  0
 20101  1  0  0  0
 21 23  1  0  0  0
 22 28  1  0  0  0
 22 32  2  0  0  0
 26 27  1  0  0  0
 28102  1  0  0  0
 28103  1  0  0  0
 29104  1  0  0  0
 29105  1  0  0  0
 33 34  1  0  0  0
 33 66  1  0  0  0
 33 70  2  0  0  0
 34 36  1  0  0  0
 34 59  1  0  0  0
 34106  1  0  0  0
 35 44  2  0  0  0
 35 45  1  0  0  0
 35 68  1  0  0  0
 36 56  1  0  0  0
 36107  1  0  0  0
 37 39  1  0  0  0
 37 47  1  0  0  0
 37 66  1  0  0  0
 37108  1  0  0  0
 38 43  2  0  0  0
 38 46  1  0  0  0
 38 47  1  0  0  0
 39 64  1  0  0  0
 39 67  2  0  0  0
 40 52  1  0  0  0
 40 53  2  0  0  0
 40 58  1  0  0  0
 41109  1  0  0  0
 41110  1  0  0  0
 41111  1  0  0  0
 41 48  1  0  0  0
 42 43  1  0  0  0
 42 66  1  0  0  0
 42112  1  0  0  0
 42113  1  0  0  0
 43 44  1  0  0  0
 44114  1  0  0  0
 45 46  2  0  0  0
 45115  1  0  0  0
 46116  1  0  0  0
 47117  1  0  0  0
 47118  1  0  0  0
 48 56  1  0  0  0
 48 65  1  0  0  0
 48119  1  0  0  0
 49 50  1  0  0  0
 49 53  1  0  0  0
 49 64  1  0  0  0
 49120  1  0  0  0
 50 51  1  0  0  0
 50121  1  0  0  0
 50122  1  0  0  0
 51 52  1  0  0  0
 51123  1  0  0  0
 51124  1  0  0  0
 52125  1  0  0  0
 52126  1  0  0  0
 53 54  1  0  0  0
 54 55  2  0  0  0
 54127  1  0  0  0
 55 57  1  0  0  0
 55128  1  0  0  0
 56 69  2  0  0  0
 57 58  2  0  0  0
 57129  1  0  0  0
 58130  1  0  0  0
 59 60  1  0  0  0
 59 61  1  0  0  0
 59 62  1  0  0  0
 60131  1  0  0  0
 60132  1  0  0  0
 60133  1  0  0  0
 61134  1  0  0  0
 61135  1  0  0  0
 61136  1  0  0  0
 62137  1  0  0  0
 62138  1  0  0  0
 62139  1  0  0  0
 63 65  1  0  0  0
 63140  1  0  0  0
 63141  1  0  0  0
 63142  1  0  0  0
 64143  1  0  0  0
 65144  1  0  0  0
 68 81  1  0  0  0
 71 73  2  0  0  0
 71 75  1  0  0  0
 71145  1  0  0  0
 72 74  1  0  0  0
 72 75  2  0  0  0
 72146  1  0  0  0
 73 76  1  0  0  0
 73 77  1  0  0  0
 74 76  2  0  0  0
 74 78  1  0  0  0
 75 84  1  0  0  0
 76 85  1  0  0  0
 77 82  1  0  0  0
 77147  1  0  0  0
 77148  1  0  0  0
 78 83  1  0  0  0
 78149  1  0  0  0
 78150  1  0  0  0
 79 80  1  0  0  0
 79 81  1  0  0  0
 79151  1  0  0  0
 79152  1  0  0  0
 80 83  1  0  0  0
 80153  1  0  0  0
 80154  1  0  0  0
 81155  1  0  0  0
 81156  1  0  0  0
 82157  1  0  0  0
 83158  1  0  0  0
 83159  1  0  0  0
M  CHG  1  83   1
M  ISO  4   1 100  68 101  81 101  82 100
M  END
> <chiral flag>
0

> <version>
0

> <s_m_source_file>
/data/baiqing/PycharmProjects/Reinvent-master-3.2/result/LINK_invent/BTK/process_docking_weight1_custom_product_contain_oxygen_bond_distance_aromatic_linkinvent_7_9_3/rearranged_h_0040.sdf

> <i_m_source_file_index>
20

> <r_mmod_Potential_Energy-OPLS-2005>
-316.814056396484

> <r_mmod_Stretch_Energy-OPLS-2005>
37.5974235534668

> <r_mmod_Bend_Energy-OPLS-2005>
109.556449890137

> <r_mmod_Torsional_Energy-OPLS-2005>
201.863784790039

> <r_mmod_Improper_Torsional_Energy-OPLS-2005>
2.18230533599854

> <r_mmod_Van_der_Waal_Energy-OPLS-2005>
147.44123840332

> <r_mmod_Electrostatic_Energy-OPLS-2005>
-333.866912841797

> <r_mmod_Solvation_Energy-OPLS-2005>
-491.920440673828

> <b_mmod_Minimization_Converged-OPLS-2005>
0

> <r_mmod_RMS_Derivative-OPLS-2005>
3.01966977119446

$$$$
20
                    3D
 Structure written by MMmdl.
159167  0  0  1  0            999 V2000
  -30.6325  -14.7369   20.4654 C   0  0  0  0  0  0
  -30.4268  -12.4507   19.4773 C   0  0  0  0  0  0
  -29.5033  -12.4936   18.2412 C   0  0  0  0  0  0
  -28.0345  -12.3104   18.6637 C   0  0  0  0  0  0
  -27.6390  -13.2296   19.8481 C   0  0  2  0  0  0
  -28.6818  -13.1826   20.9869 C   0  0  0  0  0  0
  -25.2488  -13.8189   20.5679 C   0  0  0  0  0  0
  -24.1781  -13.0438   20.9232 C   0  0  0  0  0  0
  -24.6375  -11.6917   20.8781 C   0  0  0  0  0  0
  -23.9053  -10.4290   21.0427 C   0  0  0  0  0  0
  -24.3606   -9.4197   21.9194 C   0  0  0  0  0  0
  -23.6284   -8.2232   22.0759 C   0  0  0  0  0  0
  -22.4273   -8.0280   21.3535 C   0  0  0  0  0  0
  -21.9906   -9.0251   20.4636 C   0  0  0  0  0  0
  -22.7238  -10.2129   20.3055 C   0  0  0  0  0  0
  -21.6845   -6.0732   22.5272 C   0  0  0  0  0  0
  -21.4012   -6.5633   23.8209 C   0  0  0  0  0  0
  -21.3650   -5.6789   24.9171 C   0  0  0  0  0  0
  -21.6044   -4.3054   24.7221 C   0  0  0  0  0  0
  -21.8821   -3.8138   23.4344 C   0  0  0  0  0  0
  -21.9199   -4.6958   22.3401 C   0  0  0  0  0  0
  -22.7801  -13.5219   21.1871 C   0  0  0  0  0  0
  -22.1664   -4.2142   21.0979 F   0  0  0  0  0  0
  -21.5626   -3.4541   25.7733 F   0  0  0  0  0  0
  -29.9853  -13.5220   20.4012 N   0  0  0  0  0  0
  -26.2916  -12.9393   20.3279 N   0  0  0  0  0  0
  -25.9305  -11.6541   20.5784 N   0  0  0  0  0  0
  -22.0454  -12.8196   22.0428 N   0  0  0  0  0  0
  -25.4159  -15.1900   20.3978 N   0  0  0  0  0  0
  -31.8224  -14.7917   20.1442 O   0  0  0  0  0  0
  -21.6642   -6.8877   21.4229 O   0  0  0  0  0  0
  -22.3491  -14.5534   20.6738 O   0  0  0  0  0  0
  -24.6316  -31.8565   23.1990 C   0  0  0  0  0  0
  -25.9153  -32.4751   23.8325 C   0  0  1  0  0  0
  -27.2229  -27.2839   20.1527 C   0  0  0  0  0  0
  -25.5936  -33.8547   24.2257 N   0  0  0  0  0  0
  -23.4260  -30.4747   21.5430 C   0  0  2  0  0  0
  -24.8746  -28.9174   20.1161 C   0  0  0  0  0  0
  -22.7515  -29.4578   22.4936 C   0  0  0  0  0  0
  -18.0277  -28.1350   22.8474 C   0  0  0  0  0  0
  -24.1488  -36.7283   23.2632 C   0  0  0  0  0  0
  -25.9650  -30.7822   21.3669 C   0  0  0  0  0  0
  -26.0428  -29.3998   20.7216 C   0  0  0  0  0  0
  -27.2225  -28.5949   20.7273 C   0  0  0  0  0  0
  -26.0396  -26.8556   19.5192 C   0  0  0  0  0  0
  -24.8769  -27.6511   19.5039 C   0  0  0  0  0  0
  -23.6463  -29.8057   20.1577 C   0  0  0  0  0  0
  -25.4114  -36.3076   24.0309 C   0  0  1  0  0  0
  -20.5885  -28.3663   23.1278 C   0  0  2  0  0  0
  -20.6783  -26.9386   22.5399 C   0  0  0  0  0  0
  -19.5760  -26.6368   21.5187 C   0  0  0  0  0  0
  -18.1931  -26.7902   22.1593 C   0  0  0  0  0  0
  -19.1530  -28.8812   23.2880 C   0  0  0  0  0  0
  -18.9467  -30.1413   23.8908 C   0  0  0  0  0  0
  -17.6472  -30.6570   24.0522 C   0  0  0  0  0  0
  -25.9048  -34.9439   23.5091 C   0  0  0  0  0  0
  -16.5358  -29.9061   23.6322 C   0  0  0  0  0  0
  -16.7266  -28.6471   23.0351 C   0  0  0  0  0  0
  -26.4515  -31.6572   25.0710 C   0  0  0  0  0  0
  -25.3739  -31.3677   26.1440 C   0  0  0  0  0  0
  -27.0334  -30.3016   24.6101 C   0  0  0  0  0  0
  -27.6104  -32.4274   25.7472 C   0  0  0  0  0  0
  -27.5576  -37.1811   24.8467 C   0  0  0  0  0  0
  -21.4215  -29.3019   22.3693 N   0  0  0  0  0  0
  -26.4289  -37.3777   23.9411 N   0  0  0  0  0  0
  -24.6939  -31.0549   22.0944 N   0  0  0  0  0  0
  -23.4239  -28.8120   23.3025 O   0  0  0  0  0  0
  -28.3312  -26.4198   20.1666 O   0  0  0  0  0  0
  -26.5629  -34.8905   22.4665 O   0  0  0  0  0  0
  -23.5477  -32.1335   23.7315 O   0  0  0  0  0  0
  -32.0241  -19.0424   20.7522 C   0  0  0  0  0  0
  -31.6005  -17.7048   20.8159 C   0  0  0  0  0  0
  -31.1310  -20.0986   20.4873 C   0  0  0  0  0  0
  -29.7388  -19.8527   20.3439 C   0  0  0  0  0  0
  -29.3152  -18.4502   20.4406 C   0  0  0  0  0  0
  -30.2485  -17.3375   20.6337 C   0  0  0  0  0  0
  -31.7326  -21.4882   20.3112 C   0  0  0  0  0  0
  -27.8360  -18.1335   20.2940 C   0  0  0  0  0  0
  -28.8011  -21.0815   19.9129 C   0  0  0  0  0  0
  -28.6307  -23.7319   19.9565 C   0  0  0  0  0  0
  -28.1923  -25.0565   20.7701 C   0  0  0  0  0  0
  -29.8774  -15.8910   20.6707 N   0  0  0  0  0  0
  -28.7507  -22.3903   20.7112 N   0  3  0  0  0  0
  -31.4669  -12.5655   19.1705 H   0  0  0  0  0  0
  -30.3685  -11.4802   19.9733 H   0  0  0  0  0  0
  -29.7862  -11.7145   17.5327 H   0  0  0  0  0  0
  -29.6223  -13.4432   17.7182 H   0  0  0  0  0  0
  -27.9098  -11.2675   18.9556 H   0  0  0  0  0  0
  -27.3681  -12.4698   17.8153 H   0  0  0  0  0  0
  -27.6291  -14.2447   19.4497 H   0  0  0  0  0  0
  -28.7149  -12.1927   21.4447 H   0  0  0  0  0  0
  -28.4150  -13.8799   21.7828 H   0  0  0  0  0  0
  -25.2743   -9.5683   22.4778 H   0  0  0  0  0  0
  -23.9989   -7.4627   22.7482 H   0  0  0  0  0  0
  -21.0844   -8.8756   19.8940 H   0  0  0  0  0  0
  -22.3687  -10.9664   19.6170 H   0  0  0  0  0  0
  -21.2000   -7.6144   23.9702 H   0  0  0  0  0  0
  -21.1468   -6.0524   25.9074 H   0  0  0  0  0  0
  -22.0612   -2.7601   23.2848 H   0  0  0  0  0  0
  -22.4069  -11.9844   22.4771 H   0  0  0  0  0  0
  -21.1064  -13.1198   22.2636 H   0  0  0  0  0  0
  -24.6318  -15.8316   20.4626 H   0  0  0  0  0  0
  -26.2297  -15.6012   19.9615 H   0  0  0  0  0  0
  -26.7233  -32.5400   23.1086 H   0  0  0  0  0  0
  -25.0118  -33.9664   25.0436 H   0  0  0  0  0  0
  -22.7203  -31.2957   21.3989 H   0  0  0  0  0  0
  -23.3753  -35.9617   23.3263 H   0  0  0  0  0  0
  -24.3609  -36.8947   22.2071 H   0  0  0  0  0  0
  -23.7233  -37.6456   23.6691 H   0  0  0  0  0  0
  -26.0847  -31.5376   20.5887 H   0  0  0  0  0  0
  -26.8495  -30.8443   21.9879 H   0  0  0  0  0  0
  -28.1212  -28.9587   21.2074 H   0  0  0  0  0  0
  -26.0120  -25.8852   19.0377 H   0  0  0  0  0  0
  -23.9847  -27.2734   19.0232 H   0  0  0  0  0  0
  -23.7722  -30.5818   19.4018 H   0  0  0  0  0  0
  -22.7653  -29.2391   19.8528 H   0  0  0  0  0  0
  -25.1302  -36.1919   25.0806 H   0  0  0  0  0  0
  -20.9942  -28.3221   24.1410 H   0  0  0  0  0  0
  -20.5654  -26.2262   23.3597 H   0  0  0  0  0  0
  -21.6669  -26.7417   22.1215 H   0  0  0  0  0  0
  -19.6925  -25.6277   21.1208 H   0  0  0  0  0  0
  -19.6707  -27.3178   20.6724 H   0  0  0  0  0  0
  -17.4223  -26.6635   21.3982 H   0  0  0  0  0  0
  -18.0332  -26.0012   22.8949 H   0  0  0  0  0  0
  -19.7946  -30.7185   24.2322 H   0  0  0  0  0  0
  -17.5032  -31.6248   24.5126 H   0  0  0  0  0  0
  -15.5358  -30.2963   23.7626 H   0  0  0  0  0  0
  -15.8669  -28.0774   22.7097 H   0  0  0  0  0  0
  -24.5973  -30.6957   25.7773 H   0  0  0  0  0  0
  -24.8847  -32.2800   26.4850 H   0  0  0  0  0  0
  -25.8074  -30.8900   27.0228 H   0  0  0  0  0  0
  -26.2860  -29.6774   24.1191 H   0  0  0  0  0  0
  -27.4139  -29.7287   25.4559 H   0  0  0  0  0  0
  -27.8684  -30.4340   23.9222 H   0  0  0  0  0  0
  -27.2817  -33.3674   26.1911 H   0  0  0  0  0  0
  -28.3992  -32.6630   25.0316 H   0  0  0  0  0  0
  -28.0641  -31.8424   26.5485 H   0  0  0  0  0  0
  -28.2590  -38.0112   24.7533 H   0  0  0  0  0  0
  -28.1061  -36.2645   24.6268 H   0  0  0  0  0  0
  -27.2286  -37.1442   25.8862 H   0  0  0  0  0  0
  -20.9402  -29.8789   21.6926 H   0  0  0  0  0  0
  -26.0147  -38.2828   24.1433 H   0  0  0  0  0  0
  -33.0794  -19.2504   20.8787 H   0  0  0  0  0  0
  -32.3631  -16.9635   21.0006 H   0  0  0  0  0  0
  -32.8200  -21.4371   20.2295 H   0  0  0  0  0  0
  -31.5038  -22.1328   21.1608 H   0  0  0  0  0  0
  -31.3794  -21.9631   19.3954 H   0  0  0  0  0  0
  -27.2394  -18.7878   20.9311 H   0  0  0  0  0  0
  -27.5947  -17.1130   20.5878 H   0  0  0  0  0  0
  -27.5193  -18.2710   19.2596 H   0  0  0  0  0  0
  -27.7713  -20.7441   19.8008 H   0  0  0  0  0  0
  -29.1030  -21.3385   18.8957 H   0  0  0  0  0  0
  -29.6027  -23.9240   19.5029 H   0  0  0  0  0  0
  -27.9400  -23.6027   19.1224 H   0  0  0  0  0  0
  -28.8092  -25.0959   21.6688 H   0  0  0  0  0  0
  -27.1812  -24.9178   21.1549 H   0  0  0  0  0  0
  -28.8976  -15.7028   20.8060 H   0  0  0  0  0  0
  -29.5621  -22.4257   21.3069 H   0  0  0  0  0  0
  -27.9575  -22.3003   21.3289 H   0  0  0  0  0  0
  1 25  1  0  0  0
  1 30  2  0  0  0
  1 82  1  0  0  0
  2  3  1  0  0  0
  2 25  1  0  0  0
  2 84  1  0  0  0
  2 85  1  0  0  0
  3  4  1  0  0  0
  3 86  1  0  0  0
  3 87  1  0  0  0
  4  5  1  0  0  0
  4 88  1  0  0  0
  4 89  1  0  0  0
  5  6  1  0  0  0
  5 26  1  0  0  0
  5 90  1  0  0  0
  6 25  1  0  0  0
  6 91  1  0  0  0
  6 92  1  0  0  0
  7  8  2  0  0  0
  7 26  1  0  0  0
  7 29  1  0  0  0
  8  9  1  0  0  0
  8 22  1  0  0  0
  9 10  1  0  0  0
  9 27  2  0  0  0
 10 11  2  0  0  0
 10 15  1  0  0  0
 11 12  1  0  0  0
 11 93  1  0  0  0
 12 13  2  0  0  0
 12 94  1  0  0  0
 13 14  1  0  0  0
 13 31  1  0  0  0
 14 15  2  0  0  0
 14 95  1  0  0  0
 15 96  1  0  0  0
 16 17  2  0  0  0
 16 21  1  0  0  0
 16 31  1  0  0  0
 17 18  1  0  0  0
 17 97  1  0  0  0
 18 19  2  0  0  0
 18 98  1  0  0  0
 19 20  1  0  0  0
 19 24  1  0  0  0
 20 21  2  0  0  0
 20 99  1  0  0  0
 21 23  1  0  0  0
 22 28  1  0  0  0
 22 32  2  0  0  0
 26 27  1  0  0  0
 28100  1  0  0  0
 28101  1  0  0  0
 29102  1  0  0  0
 29103  1  0  0  0
 33 34  1  0  0  0
 33 66  1  0  0  0
 33 70  2  0  0  0
 34 36  1  0  0  0
 34 59  1  0  0  0
 34104  1  0  0  0
 35 44  2  0  0  0
 35 45  1  0  0  0
 35 68  1  0  0  0
 36 56  1  0  0  0
 36105  1  0  0  0
 37 39  1  0  0  0
 37 47  1  0  0  0
 37 66  1  0  0  0
 37106  1  0  0  0
 38 43  2  0  0  0
 38 46  1  0  0  0
 38 47  1  0  0  0
 39 64  1  0  0  0
 39 67  2  0  0  0
 40 52  1  0  0  0
 40 53  2  0  0  0
 40 58  1  0  0  0
 41107  1  0  0  0
 41108  1  0  0  0
 41109  1  0  0  0
 41 48  1  0  0  0
 42 43  1  0  0  0
 42 66  1  0  0  0
 42110  1  0  0  0
 42111  1  0  0  0
 43 44  1  0  0  0
 44112  1  0  0  0
 45 46  2  0  0  0
 45113  1  0  0  0
 46114  1  0  0  0
 47115  1  0  0  0
 47116  1  0  0  0
 48 56  1  0  0  0
 48 65  1  0  0  0
 48117  1  0  0  0
 49 50  1  0  0  0
 49 53  1  0  0  0
 49 64  1  0  0  0
 49118  1  0  0  0
 50 51  1  0  0  0
 50119  1  0  0  0
 50120  1  0  0  0
 51 52  1  0  0  0
 51121  1  0  0  0
 51122  1  0  0  0
 52123  1  0  0  0
 52124  1  0  0  0
 53 54  1  0  0  0
 54 55  2  0  0  0
 54125  1  0  0  0
 55 57  1  0  0  0
 55126  1  0  0  0
 56 69  2  0  0  0
 57 58  2  0  0  0
 57127  1  0  0  0
 58128  1  0  0  0
 59 60  1  0  0  0
 59 61  1  0  0  0
 59 62  1  0  0  0
 60129  1  0  0  0
 60130  1  0  0  0
 60131  1  0  0  0
 61132  1  0  0  0
 61133  1  0  0  0
 61134  1  0  0  0
 62135  1  0  0  0
 62136  1  0  0  0
 62137  1  0  0  0
 63 65  1  0  0  0
 63138  1  0  0  0
 63139  1  0  0  0
 63140  1  0  0  0
 64141  1  0  0  0
 65142  1  0  0  0
 68 81  1  0  0  0
 71 72  2  0  0  0
 71 73  1  0  0  0
 71143  1  0  0  0
 72 76  1  0  0  0
 72144  1  0  0  0
 73 74  2  0  0  0
 73 77  1  0  0  0
 74 75  1  0  0  0
 74 79  1  0  0  0
 75 76  2  0  0  0
 75 78  1  0  0  0
 76 82  1  0  0  0
 77145  1  0  0  0
 77146  1  0  0  0
 77147  1  0  0  0
 78148  1  0  0  0
 78149  1  0  0  0
 78150  1  0  0  0
 79 83  1  0  0  0
 79151  1  0  0  0
 79152  1  0  0  0
 80 81  1  0  0  0
 80 83  1  0  0  0
 80153  1  0  0  0
 80154  1  0  0  0
 81155  1  0  0  0
 81156  1  0  0  0
 82157  1  0  0  0
 83158  1  0  0  0
 83159  1  0  0  0
M  CHG  1  83   1
M  ISO  4   1 100  68 101  81 101  82 100
M  END
> <chiral flag>
0

> <version>
0

> <s_m_source_file>
/data/baiqing/PycharmProjects/Reinvent-master-3.2/result/LINK_invent/BTK/process_docking_weight1_custom_product_contain_oxygen_bond_distance_aromatic_linkinvent_7_9_3/rearranged_h_0040.sdf

> <i_m_source_file_index>
21

> <r_mmod_Potential_Energy-OPLS-2005>
-15.9458866119385

> <r_mmod_Stretch_Energy-OPLS-2005>
123.152862548828

> <r_mmod_Bend_Energy-OPLS-2005>
156.531341552734

> <r_mmod_Torsional_Energy-OPLS-2005>
235.235275268555

> <r_mmod_Improper_Torsional_Energy-OPLS-2005>
6.33227014541626

> <r_mmod_Van_der_Waal_Energy-OPLS-2005>
141.15461730957

> <r_mmod_Electrostatic_Energy-OPLS-2005>
-296.096435546875

> <r_mmod_Solvation_Energy-OPLS-2005>
-459.154876708984

> <b_mmod_Minimization_Converged-OPLS-2005>
0

> <r_mmod_RMS_Derivative-OPLS-2005>
3.07703542709351

$$$$
21
                    3D
 Structure written by MMmdl.
167175  0  0  1  0            999 V2000
  -30.7751  -14.4346   20.5888 C   0  0  0  0  0  0
  -30.4101  -12.2942   19.4238 C   0  0  0  0  0  0
  -29.4901  -12.4994   18.2031 C   0  0  0  0  0  0
  -28.0122  -12.3693   18.6208 C   0  0  0  0  0  0
  -27.6599  -13.2196   19.8721 C   0  0  2  0  0  0
  -28.7065  -13.0249   20.9948 C   0  0  0  0  0  0
  -25.2573  -13.8220   20.5710 C   0  0  0  0  0  0
  -24.1825  -13.0453   20.9169 C   0  0  0  0  0  0
  -24.6418  -11.6929   20.8725 C   0  0  0  0  0  0
  -23.9100  -10.4294   21.0413 C   0  0  0  0  0  0
  -24.3625   -9.4198   21.9191 C   0  0  0  0  0  0
  -23.6280   -8.2254   22.0765 C   0  0  0  0  0  0
  -22.4260   -8.0311   21.3569 C   0  0  0  0  0  0
  -21.9913   -9.0307   20.4681 C   0  0  0  0  0  0
  -22.7264  -10.2170   20.3075 C   0  0  0  0  0  0
  -21.6858   -6.0751   22.5289 C   0  0  0  0  0  0
  -21.4033   -6.5647   23.8226 C   0  0  0  0  0  0
  -21.3636   -5.6794   24.9180 C   0  0  0  0  0  0
  -21.6029   -4.3065   24.7228 C   0  0  0  0  0  0
  -21.8804   -3.8158   23.4355 C   0  0  0  0  0  0
  -21.9180   -4.6976   22.3413 C   0  0  0  0  0  0
  -22.7841  -13.5254   21.1817 C   0  0  0  0  0  0
  -22.1642   -4.2161   21.0997 F   0  0  0  0  0  0
  -21.5605   -3.4540   25.7736 F   0  0  0  0  0  0
  -30.0417  -13.2994   20.4313 N   0  0  0  0  0  0
  -26.3027  -12.9414   20.3383 N   0  0  0  0  0  0
  -25.9351  -11.6557   20.5805 N   0  0  0  0  0  0
  -22.0453  -12.8290   22.0398 N   0  0  0  0  0  0
  -25.4283  -15.1928   20.4154 N   0  0  0  0  0  0
  -31.8871  -14.5903   20.0790 O   0  0  0  0  0  0
  -21.6613   -6.8912   21.4269 O   0  0  0  0  0  0
  -22.3563  -14.5555   20.6656 O   0  0  0  0  0  0
  -24.6172  -31.8656   23.2123 C   0  0  0  0  0  0
  -25.9048  -32.4826   23.8403 C   0  0  1  0  0  0
  -27.2361  -27.4090   20.1061 C   0  0  0  0  0  0
  -25.5899  -33.8623   24.2357 N   0  0  0  0  0  0
  -23.4070  -30.4916   21.5512 C   0  0  2  0  0  0
  -24.8553  -28.9570   20.1118 C   0  0  0  0  0  0
  -22.7424  -29.4635   22.4967 C   0  0  0  0  0  0
  -18.0253  -28.1397   22.8467 C   0  0  0  0  0  0
  -24.1461  -36.7341   23.2625 C   0  0  0  0  0  0
  -25.9329  -30.8378   21.3502 C   0  0  0  0  0  0
  -26.0183  -29.4626   20.7062 C   0  0  0  0  0  0
  -27.2140  -28.6998   20.6897 C   0  0  0  0  0  0
  -26.0519  -26.9249   19.5020 C   0  0  0  0  0  0
  -24.8682  -27.6895   19.5050 C   0  0  0  0  0  0
  -23.6188  -29.8299   20.1622 C   0  0  0  0  0  0
  -25.4075  -36.3118   24.0340 C   0  0  1  0  0  0
  -20.5864  -28.3676   23.1315 C   0  0  2  0  0  0
  -20.6759  -26.9420   22.5405 C   0  0  0  0  0  0
  -19.5749  -26.6414   21.5182 C   0  0  0  0  0  0
  -18.1921  -26.7938   22.1609 C   0  0  0  0  0  0
  -19.1508  -28.8843   23.2890 C   0  0  0  0  0  0
  -18.9433  -30.1443   23.8923 C   0  0  0  0  0  0
  -17.6435  -30.6594   24.0556 C   0  0  0  0  0  0
  -25.8999  -34.9483   23.5144 C   0  0  0  0  0  0
  -16.5330  -29.9103   23.6306 C   0  0  0  0  0  0
  -16.7245  -28.6526   23.0321 C   0  0  0  0  0  0
  -26.4486  -31.6592   25.0716 C   0  0  0  0  0  0
  -25.3799  -31.3699   26.1500 C   0  0  0  0  0  0
  -27.0238  -30.3030   24.6013 C   0  0  0  0  0  0
  -27.6077  -32.4282   25.7518 C   0  0  0  0  0  0
  -27.5564  -37.1818   24.8472 C   0  0  0  0  0  0
  -21.4143  -29.3047   22.3734 N   0  0  0  0  0  0
  -26.4270  -37.3792   23.9424 N   0  0  0  0  0  0
  -24.6728  -31.0756   22.1021 N   0  0  0  0  0  0
  -23.4189  -28.8134   23.2982 O   0  0  0  0  0  0
  -28.4044  -26.6614   20.1180 O   0  0  0  0  0  0
  -26.5553  -34.8943   22.4708 O   0  0  0  0  0  0
  -23.5371  -32.1398   23.7539 O   0  0  0  0  0  0
  -30.8061  -25.1819   20.4963 C   0  0  0  0  0  0
  -30.6523  -20.3912   21.7046 C   0  0  0  0  0  0
  -30.5140  -20.6718   20.3330 C   0  0  0  0  0  0
  -30.7219  -17.9680   21.3069 C   0  0  0  0  0  0
  -30.5104  -19.5726   19.4252 C   0  0  0  0  0  0
  -30.5834  -18.2347   19.9184 C   0  0  0  0  0  0
  -30.7738  -19.0778   22.1889 C   0  0  0  0  0  0
  -31.9183  -25.8795   20.4765 C   0  0  0  0  0  0
  -27.7943  -17.7844   16.8683 C   0  0  0  0  0  0
  -28.9504  -18.4423   16.7011 C   0  0  0  0  0  0
  -29.6635  -24.5389   20.4953 C   0  0  0  0  0  0
  -30.9646  -16.5527   21.8757 C   0  0  0  0  0  0
  -30.4886  -22.1561   19.9004 C   0  0  0  0  0  0
  -29.2688  -19.7832   17.3274 C   0  0  0  0  0  0
  -28.2980  -25.2284   20.3456 C   0  0  0  0  0  0
  -30.5403  -19.7899   18.0350 N   0  0  0  0  0  0
  -30.2196  -15.4109   21.3206 N   0  0  0  0  0  0
  -29.5718  -23.0383   20.6913 N   0  3  0  0  0  0
  -30.5922  -17.2057   19.0371 F   0  0  0  0  0  0
  -31.0582  -18.8966   23.8853 Cl  0  0  0  0  0  0
  -31.4574  -12.3628   19.1235 H   0  0  0  0  0  0
  -30.2877  -11.2955   19.8442 H   0  0  0  0  0  0
  -29.7298  -11.7740   17.4228 H   0  0  0  0  0  0
  -29.6661  -13.4869   17.7689 H   0  0  0  0  0  0
  -27.8257  -11.3181   18.8399 H   0  0  0  0  0  0
  -27.3615  -12.6375   17.7840 H   0  0  0  0  0  0
  -27.6977  -14.2634   19.5651 H   0  0  0  0  0  0
  -28.6738  -11.9997   21.3670 H   0  0  0  0  0  0
  -28.4719  -13.6544   21.8535 H   0  0  0  0  0  0
  -25.2767   -9.5648   22.4801 H   0  0  0  0  0  0
  -23.9959   -7.4637   22.7485 H   0  0  0  0  0  0
  -21.0825   -8.8872   19.9006 H   0  0  0  0  0  0
  -22.3731  -10.9733   19.6215 H   0  0  0  0  0  0
  -21.2067   -7.6160   23.9740 H   0  0  0  0  0  0
  -21.1459   -6.0522   25.9080 H   0  0  0  0  0  0
  -22.0601   -2.7625   23.2847 H   0  0  0  0  0  0
  -22.3987  -11.9970   22.4857 H   0  0  0  0  0  0
  -21.1127  -13.1467   22.2611 H   0  0  0  0  0  0
  -24.6643  -15.8513   20.5181 H   0  0  0  0  0  0
  -26.2881  -15.6274   20.1069 H   0  0  0  0  0  0
  -26.7153  -32.5548   23.1196 H   0  0  0  0  0  0
  -25.0062  -33.9784   25.0511 H   0  0  0  0  0  0
  -22.6933  -31.3067   21.4125 H   0  0  0  0  0  0
  -23.3688  -35.9703   23.3319 H   0  0  0  0  0  0
  -24.3553  -36.8908   22.2030 H   0  0  0  0  0  0
  -23.7254  -37.6582   23.6614 H   0  0  0  0  0  0
  -26.0034  -31.5892   20.5616 H   0  0  0  0  0  0
  -26.8380  -30.9325   21.9375 H   0  0  0  0  0  0
  -28.1172  -29.0848   21.1422 H   0  0  0  0  0  0
  -26.0291  -25.9609   19.0151 H   0  0  0  0  0  0
  -23.9734  -27.3051   19.0313 H   0  0  0  0  0  0
  -23.7371  -30.6104   19.4093 H   0  0  0  0  0  0
  -22.7399  -29.2608   19.8561 H   0  0  0  0  0  0
  -25.1228  -36.1980   25.0823 H   0  0  0  0  0  0
  -20.9940  -28.3251   24.1445 H   0  0  0  0  0  0
  -20.5622  -26.2287   23.3582 H   0  0  0  0  0  0
  -21.6625  -26.7436   22.1218 H   0  0  0  0  0  0
  -19.6906  -25.6325   21.1190 H   0  0  0  0  0  0
  -19.6695  -27.3250   20.6734 H   0  0  0  0  0  0
  -17.4177  -26.6639   21.4040 H   0  0  0  0  0  0
  -18.0359  -26.0088   22.9024 H   0  0  0  0  0  0
  -19.7911  -30.7227   24.2355 H   0  0  0  0  0  0
  -17.4997  -31.6275   24.5162 H   0  0  0  0  0  0
  -15.5345  -30.3012   23.7621 H   0  0  0  0  0  0
  -15.8645  -28.0857   22.7031 H   0  0  0  0  0  0
  -24.6022  -30.6931   25.7945 H   0  0  0  0  0  0
  -24.8905  -32.2824   26.4926 H   0  0  0  0  0  0
  -25.8210  -30.8985   27.0284 H   0  0  0  0  0  0
  -26.2730  -29.6897   24.0992 H   0  0  0  0  0  0
  -27.3941  -29.7157   25.4427 H   0  0  0  0  0  0
  -27.8612  -30.4345   23.9147 H   0  0  0  0  0  0
  -27.2699  -33.3575   26.2139 H   0  0  0  0  0  0
  -28.3910  -32.6838   25.0369 H   0  0  0  0  0  0
  -28.0706  -31.8343   26.5416 H   0  0  0  0  0  0
  -28.2586  -38.0103   24.7457 H   0  0  0  0  0  0
  -28.1026  -36.2621   24.6323 H   0  0  0  0  0  0
  -27.2283  -37.1537   25.8876 H   0  0  0  0  0  0
  -20.9328  -29.8815   21.6987 H   0  0  0  0  0  0
  -26.0147  -38.2852   24.1462 H   0  0  0  0  0  0
  -30.7378  -21.1953   22.4200 H   0  0  0  0  0  0
  -32.4218  -26.0924   19.5460 H   0  0  0  0  0  0
  -32.3627  -26.2629   21.3804 H   0  0  0  0  0  0
  -27.6176  -16.8343   16.3825 H   0  0  0  0  0  0
  -27.0003  -18.1848   17.4852 H   0  0  0  0  0  0
  -29.7193  -18.0094   16.0741 H   0  0  0  0  0  0
  -32.0386  -16.3711   21.8348 H   0  0  0  0  0  0
  -30.7351  -16.5282   22.9413 H   0  0  0  0  0  0
  -30.2235  -22.2599   18.8493 H   0  0  0  0  0  0
  -31.5160  -22.5161   19.9965 H   0  0  0  0  0  0
  -28.4573  -20.1041   17.9805 H   0  0  0  0  0  0
  -29.3261  -20.5138   16.5142 H   0  0  0  0  0  0
  -27.7376  -25.0707   21.2699 H   0  0  0  0  0  0
  -27.7672  -24.7332   19.5322 H   0  0  0  0  0  0
  -31.1880  -20.5011   17.7062 H   0  0  0  0  0  0
  -29.2993  -15.2329   21.6924 H   0  0  0  0  0  0
  -29.7599  -22.8429   21.6606 H   0  0  0  0  0  0
  -28.6297  -22.7285   20.5295 H   0  0  0  0  0  0
  1 25  1  0  0  0
  1 30  2  0  0  0
  1 87  1  0  0  0
  2  3  1  0  0  0
  2 25  1  0  0  0
  2 91  1  0  0  0
  2 92  1  0  0  0
  3  4  1  0  0  0
  3 93  1  0  0  0
  3 94  1  0  0  0
  4  5  1  0  0  0
  4 95  1  0  0  0
  4 96  1  0  0  0
  5  6  1  0  0  0
  5 26  1  0  0  0
  5 97  1  0  0  0
  6 25  1  0  0  0
  6 98  1  0  0  0
  6 99  1  0  0  0
  7  8  2  0  0  0
  7 26  1  0  0  0
  7 29  1  0  0  0
  8  9  1  0  0  0
  8 22  1  0  0  0
  9 10  1  0  0  0
  9 27  2  0  0  0
 10 11  2  0  0  0
 10 15  1  0  0  0
 11 12  1  0  0  0
 11100  1  0  0  0
 12 13  2  0  0  0
 12101  1  0  0  0
 13 14  1  0  0  0
 13 31  1  0  0  0
 14 15  2  0  0  0
 14102  1  0  0  0
 15103  1  0  0  0
 16 17  2  0  0  0
 16 21  1  0  0  0
 16 31  1  0  0  0
 17 18  1  0  0  0
 17104  1  0  0  0
 18 19  2  0  0  0
 18105  1  0  0  0
 19 20  1  0  0  0
 19 24  1  0  0  0
 20 21  2  0  0  0
 20106  1  0  0  0
 21 23  1  0  0  0
 22 28  1  0  0  0
 22 32  2  0  0  0
 26 27  1  0  0  0
 28107  1  0  0  0
 28108  1  0  0  0
 29109  1  0  0  0
 29110  1  0  0  0
 33 34  1  0  0  0
 33 66  1  0  0  0
 33 70  2  0  0  0
 34 36  1  0  0  0
 34 59  1  0  0  0
 34111  1  0  0  0
 35 44  2  0  0  0
 35 45  1  0  0  0
 35 68  1  0  0  0
 36 56  1  0  0  0
 36112  1  0  0  0
 37 39  1  0  0  0
 37 47  1  0  0  0
 37 66  1  0  0  0
 37113  1  0  0  0
 38 43  2  0  0  0
 38 46  1  0  0  0
 38 47  1  0  0  0
 39 64  1  0  0  0
 39 67  2  0  0  0
 40 52  1  0  0  0
 40 53  2  0  0  0
 40 58  1  0  0  0
 41114  1  0  0  0
 41115  1  0  0  0
 41116  1  0  0  0
 41 48  1  0  0  0
 42 43  1  0  0  0
 42 66  1  0  0  0
 42117  1  0  0  0
 42118  1  0  0  0
 43 44  1  0  0  0
 44119  1  0  0  0
 45 46  2  0  0  0
 45120  1  0  0  0
 46121  1  0  0  0
 47122  1  0  0  0
 47123  1  0  0  0
 48 56  1  0  0  0
 48 65  1  0  0  0
 48124  1  0  0  0
 49 50  1  0  0  0
 49 53  1  0  0  0
 49 64  1  0  0  0
 49125  1  0  0  0
 50 51  1  0  0  0
 50126  1  0  0  0
 50127  1  0  0  0
 51 52  1  0  0  0
 51128  1  0  0  0
 51129  1  0  0  0
 52130  1  0  0  0
 52131  1  0  0  0
 53 54  1  0  0  0
 54 55  2  0  0  0
 54132  1  0  0  0
 55 57  1  0  0  0
 55133  1  0  0  0
 56 69  2  0  0  0
 57 58  2  0  0  0
 57134  1  0  0  0
 58135  1  0  0  0
 59 60  1  0  0  0
 59 61  1  0  0  0
 59 62  1  0  0  0
 60136  1  0  0  0
 60137  1  0  0  0
 60138  1  0  0  0
 61139  1  0  0  0
 61140  1  0  0  0
 61141  1  0  0  0
 62142  1  0  0  0
 62143  1  0  0  0
 62144  1  0  0  0
 63 65  1  0  0  0
 63145  1  0  0  0
 63146  1  0  0  0
 63147  1  0  0  0
 64148  1  0  0  0
 65149  1  0  0  0
 68 85  1  0  0  0
 71 78  2  0  0  0
 71 81  2  0  0  0
 72 73  2  0  0  0
 72 77  1  0  0  0
 72150  1  0  0  0
 73 75  1  0  0  0
 73 83  1  0  0  0
 74 76  1  0  0  0
 74 77  2  0  0  0
 74 82  1  0  0  0
 75 76  2  0  0  0
 75 86  1  0  0  0
 76 89  1  0  0  0
 77 90  1  0  0  0
 78151  1  0  0  0
 78152  1  0  0  0
 79 80  2  0  0  0
 79153  1  0  0  0
 79154  1  0  0  0
 80 84  1  0  0  0
 80155  1  0  0  0
 81 85  1  0  0  0
 81 88  1  0  0  0
 82 87  1  0  0  0
 82156  1  0  0  0
 82157  1  0  0  0
 83 88  1  0  0  0
 83158  1  0  0  0
 83159  1  0  0  0
 84 86  1  0  0  0
 84160  1  0  0  0
 84161  1  0  0  0
 85162  1  0  0  0
 85163  1  0  0  0
 86164  1  0  0  0
 87165  1  0  0  0
 88166  1  0  0  0
 88167  1  0  0  0
M  CHG  1  88   1
M  ISO  4   1 100  68 101  85 101  87 100
M  END
> <chiral flag>
0

> <version>
0

> <s_m_source_file>
/data/baiqing/PycharmProjects/Reinvent-master-3.2/result/LINK_invent/BTK/process_docking_weight1_custom_product_contain_oxygen_bond_distance_aromatic_linkinvent_7_9_3/rearranged_h_0040.sdf

> <i_m_source_file_index>
22

> <r_mmod_Potential_Energy-OPLS-2005>
-389.416961669922

> <r_mmod_Stretch_Energy-OPLS-2005>
47.898063659668

> <r_mmod_Bend_Energy-OPLS-2005>
115.059852600098

> <r_mmod_Torsional_Energy-OPLS-2005>
129.718612670898

> <r_mmod_Improper_Torsional_Energy-OPLS-2005>
7.12323951721191

> <r_mmod_Van_der_Waal_Energy-OPLS-2005>
148.739715576172

> <r_mmod_Electrostatic_Energy-OPLS-2005>
-341.063049316406

> <r_mmod_Solvation_Energy-OPLS-2005>
-511.392364501953

> <b_mmod_Minimization_Converged-OPLS-2005>
0

> <r_mmod_RMS_Derivative-OPLS-2005>
6.96490097045898

$$$$
22
                    3D
 Structure written by MMmdl.
162170  0  0  1  0            999 V2000
  -30.7845  -14.4300   20.4364 C   0  0  0  0  0  0
  -30.4127  -12.2312   19.4469 C   0  0  0  0  0  0
  -29.5226  -12.4641   18.2089 C   0  0  0  0  0  0
  -28.0334  -12.3575   18.6042 C   0  0  0  0  0  0
  -27.6670  -13.2085   19.8575 C   0  0  2  0  0  0
  -28.7188  -13.0585   20.9876 C   0  0  0  0  0  0
  -25.2581  -13.8070   20.5563 C   0  0  0  0  0  0
  -24.1887  -13.0331   20.9059 C   0  0  0  0  0  0
  -24.6446  -11.6820   20.8569 C   0  0  0  0  0  0
  -23.9140  -10.4231   21.0254 C   0  0  0  0  0  0
  -24.3735   -9.4255   21.9141 C   0  0  0  0  0  0
  -23.6389   -8.2322   22.0813 C   0  0  0  0  0  0
  -22.4386   -8.0340   21.3591 C   0  0  0  0  0  0
  -21.9957   -9.0255   20.4703 C   0  0  0  0  0  0
  -22.7269  -10.2105   20.2964 C   0  0  0  0  0  0
  -21.6872   -6.0848   22.5277 C   0  0  0  0  0  0
  -21.4080   -6.5729   23.8222 C   0  0  0  0  0  0
  -21.3602   -5.6851   24.9142 C   0  0  0  0  0  0
  -21.5959   -4.3105   24.7186 C   0  0  0  0  0  0
  -21.8816   -3.8256   23.4300 C   0  0  0  0  0  0
  -21.9207   -4.7086   22.3376 C   0  0  0  0  0  0
  -22.7899  -13.5144   21.1711 C   0  0  0  0  0  0
  -22.1688   -4.2271   21.0959 F   0  0  0  0  0  0
  -21.5515   -3.4571   25.7693 F   0  0  0  0  0  0
  -30.0604  -13.2776   20.4205 N   0  0  0  0  0  0
  -26.3084  -12.9301   20.3230 N   0  0  0  0  0  0
  -25.9408  -11.6447   20.5689 N   0  0  0  0  0  0
  -22.0524  -12.8237   22.0321 N   0  0  0  0  0  0
  -25.4087  -15.1796   20.4140 N   0  0  0  0  0  0
  -31.9472  -14.5147   20.0494 O   0  0  0  0  0  0
  -21.6688   -6.9022   21.4281 O   0  0  0  0  0  0
  -22.3609  -14.5398   20.6533 O   0  0  0  0  0  0
  -24.6216  -31.8673   23.2167 C   0  0  0  0  0  0
  -25.9094  -32.4872   23.8433 C   0  0  1  0  0  0
  -27.1970  -27.3809   20.0959 C   0  0  0  0  0  0
  -25.5946  -33.8665   24.2367 N   0  0  0  0  0  0
  -23.4051  -30.5009   21.5636 C   0  0  2  0  0  0
  -24.8513  -28.9918   20.1031 C   0  0  0  0  0  0
  -22.7361  -29.4687   22.5008 C   0  0  0  0  0  0
  -18.0120  -28.1179   22.8360 C   0  0  0  0  0  0
  -24.1524  -36.7302   23.2634 C   0  0  0  0  0  0
  -25.9452  -30.8099   21.3916 C   0  0  0  0  0  0
  -26.0182  -29.4570   20.7243 C   0  0  0  0  0  0
  -27.1985  -28.6626   20.7125 C   0  0  0  0  0  0
  -26.0145  -26.9957   19.4020 C   0  0  0  0  0  0
  -24.8487  -27.7631   19.4404 C   0  0  0  0  0  0
  -23.6237  -29.8737   20.1658 C   0  0  0  0  0  0
  -25.4142  -36.3092   24.0330 C   0  0  1  0  0  0
  -20.5800  -28.3638   23.1211 C   0  0  2  0  0  0
  -20.6829  -26.9386   22.5191 C   0  0  0  0  0  0
  -19.5664  -26.6117   21.5184 C   0  0  0  0  0  0
  -18.1763  -26.7701   22.1477 C   0  0  0  0  0  0
  -19.1354  -28.8688   23.2821 C   0  0  0  0  0  0
  -18.9212  -30.1217   23.9021 C   0  0  0  0  0  0
  -17.6238  -30.6376   24.0679 C   0  0  0  0  0  0
  -25.9024  -34.9498   23.5151 C   0  0  0  0  0  0
  -16.5225  -29.8865   23.6277 C   0  0  0  0  0  0
  -16.7125  -28.6301   23.0246 C   0  0  0  0  0  0
  -26.4515  -31.6626   25.0778 C   0  0  0  0  0  0
  -25.3716  -31.3746   26.1489 C   0  0  0  0  0  0
  -27.0339  -30.3054   24.6175 C   0  0  0  0  0  0
  -27.6089  -32.4350   25.7520 C   0  0  0  0  0  0
  -27.5587  -37.1818   24.8463 C   0  0  0  0  0  0
  -21.4087  -29.3204   22.3823 N   0  0  0  0  0  0
  -26.4290  -37.3791   23.9420 N   0  0  0  0  0  0
  -24.6726  -31.0711   22.1127 N   0  0  0  0  0  0
  -23.4104  -28.8153   23.2992 O   0  0  0  0  0  0
  -28.2835  -26.5050   20.1886 O   0  0  0  0  0  0
  -26.5576  -34.8907   22.4706 O   0  0  0  0  0  0
  -23.5391  -32.1437   23.7541 O   0  0  0  0  0  0
  -29.3460  -20.5092   20.1270 C   0  0  0  0  0  0
  -30.1100  -19.3310   20.0409 C   0  0  0  0  0  0
  -28.0911  -20.4850   20.7540 C   0  0  0  0  0  0
  -29.6825  -18.1175   20.6175 C   0  0  0  0  0  0
  -27.6575  -19.2876   21.4230 C   0  0  0  0  0  0
  -28.4684  -18.1029   21.3710 C   0  0  0  0  0  0
  -27.1908  -21.6530   20.5948 C   0  0  0  0  0  0
  -26.3423  -19.2784   22.2268 C   0  0  0  0  0  0
  -28.0041  -16.8274   22.0835 C   0  0  0  0  0  0
  -30.5913  -16.9045   20.3225 C   0  0  0  0  0  0
  -28.5437  -23.8944   20.7310 C   0  0  0  0  0  0
  -27.9719  -25.0998   19.9076 C   0  0  0  0  0  0
  -26.0197  -21.4130   20.0187 N   0  0  0  0  0  0
  -30.0934  -15.5526   20.6497 N   0  0  0  0  0  0
  -27.4069  -22.9424   20.9210 N   0  3  0  0  0  0
  -31.4715  -12.2279   19.1786 H   0  0  0  0  0  0
  -30.2401  -11.2408   19.8727 H   0  0  0  0  0  0
  -29.7684  -11.7397   17.4294 H   0  0  0  0  0  0
  -29.7118  -13.4543   17.7910 H   0  0  0  0  0  0
  -27.8315  -11.3063   18.8016 H   0  0  0  0  0  0
  -27.4091  -12.6306   17.7575 H   0  0  0  0  0  0
  -27.6822  -14.2478   19.5343 H   0  0  0  0  0  0
  -28.6732  -12.0600   21.4201 H   0  0  0  0  0  0
  -28.5113  -13.7445   21.8107 H   0  0  0  0  0  0
  -25.2883   -9.5724   22.4779 H   0  0  0  0  0  0
  -23.9961   -7.4770   22.7679 H   0  0  0  0  0  0
  -21.0775   -8.8850   19.9188 H   0  0  0  0  0  0
  -22.3711  -10.9687   19.6111 H   0  0  0  0  0  0
  -21.2232   -7.6273   23.9718 H   0  0  0  0  0  0
  -21.1330   -6.0630   25.9015 H   0  0  0  0  0  0
  -22.0683   -2.7755   23.2725 H   0  0  0  0  0  0
  -22.4039  -11.9890   22.4747 H   0  0  0  0  0  0
  -21.1229  -13.1439   22.2556 H   0  0  0  0  0  0
  -24.6193  -15.8048   20.5406 H   0  0  0  0  0  0
  -26.2756  -15.6505   20.1878 H   0  0  0  0  0  0
  -26.7212  -32.5601   23.1193 H   0  0  0  0  0  0
  -25.0187  -33.9822   25.0580 H   0  0  0  0  0  0
  -22.6960  -31.3228   21.4453 H   0  0  0  0  0  0
  -23.3755  -35.9657   23.3293 H   0  0  0  0  0  0
  -24.3602  -36.8894   22.2018 H   0  0  0  0  0  0
  -23.7256  -37.6517   23.6647 H   0  0  0  0  0  0
  -26.0816  -31.5789   20.6341 H   0  0  0  0  0  0
  -26.8268  -30.8499   22.0184 H   0  0  0  0  0  0
  -28.0900  -29.0173   21.2153 H   0  0  0  0  0  0
  -25.9480  -26.0936   18.8140 H   0  0  0  0  0  0
  -23.9658  -27.4159   18.9164 H   0  0  0  0  0  0
  -23.7726  -30.6741   19.4393 H   0  0  0  0  0  0
  -22.7405  -29.3175   19.8431 H   0  0  0  0  0  0
  -25.1295  -36.1936   25.0802 H   0  0  0  0  0  0
  -20.9903  -28.3286   24.1327 H   0  0  0  0  0  0
  -20.6207  -26.2111   23.3292 H   0  0  0  0  0  0
  -21.6627  -26.7649   22.0672 H   0  0  0  0  0  0
  -19.6698  -27.2733   20.6592 H   0  0  0  0  0  0
  -19.6897  -25.5927   21.1499 H   0  0  0  0  0  0
  -17.4085  -26.6655   21.3866 H   0  0  0  0  0  0
  -17.9774  -25.9811   22.8719 H   0  0  0  0  0  0
  -19.7636  -30.6852   24.2642 H   0  0  0  0  0  0
  -17.4722  -31.5996   24.5540 H   0  0  0  0  0  0
  -15.5226  -30.2743   23.7578 H   0  0  0  0  0  0
  -15.8395  -28.0727   22.7022 H   0  0  0  0  0  0
  -24.5911  -30.7104   25.7768 H   0  0  0  0  0  0
  -24.8902  -32.2906   26.4909 H   0  0  0  0  0  0
  -25.7979  -30.8877   27.0269 H   0  0  0  0  0  0
  -26.2860  -29.6841   24.1233 H   0  0  0  0  0  0
  -27.4071  -29.7281   25.4637 H   0  0  0  0  0  0
  -27.8757  -30.4364   23.9378 H   0  0  0  0  0  0
  -27.2739  -33.3661   26.2117 H   0  0  0  0  0  0
  -28.3881  -32.6903   25.0322 H   0  0  0  0  0  0
  -28.0847  -31.8499   26.5378 H   0  0  0  0  0  0
  -28.2597  -38.0121   24.7525 H   0  0  0  0  0  0
  -28.1098  -36.2643   24.6314 H   0  0  0  0  0  0
  -27.2331  -37.1501   25.8875 H   0  0  0  0  0  0
  -20.9239  -29.9358   21.7430 H   0  0  0  0  0  0
  -26.0167  -38.2869   24.1448 H   0  0  0  0  0  0
  -29.6955  -21.4045   19.6300 H   0  0  0  0  0  0
  -31.0237  -19.3532   19.4666 H   0  0  0  0  0  0
  -25.5013  -19.7580   21.7318 H   0  0  0  0  0  0
  -26.4724  -19.7836   23.1840 H   0  0  0  0  0  0
  -25.9251  -18.2994   22.4298 H   0  0  0  0  0  0
  -28.8256  -16.2990   22.5536 H   0  0  0  0  0  0
  -27.5253  -16.1555   21.3710 H   0  0  0  0  0  0
  -27.3266  -16.9682   22.9086 H   0  0  0  0  0  0
  -30.7826  -16.9323   19.2410 H   0  0  0  0  0  0
  -31.5699  -17.0688   20.7909 H   0  0  0  0  0  0
  -28.9061  -24.2133   21.7076 H   0  0  0  0  0  0
  -29.3895  -23.4405   20.2155 H   0  0  0  0  0  0
  -26.9199  -24.9648   20.1163 H   0  0  0  0  0  0
  -28.1054  -24.9026   18.8426 H   0  0  0  0  0  0
  -25.9009  -20.4974   19.6118 H   0  0  0  0  0  0
  -25.3830  -22.1339   19.7373 H   0  0  0  0  0  0
  -29.1523  -15.4656   21.0031 H   0  0  0  0  0  0
  -26.5980  -23.4246   21.2980 H   0  0  0  0  0  0
  1 25  1  0  0  0
  1 30  2  0  0  0
  1 84  1  0  0  0
  2  3  1  0  0  0
  2 25  1  0  0  0
  2 86  1  0  0  0
  2 87  1  0  0  0
  3  4  1  0  0  0
  3 88  1  0  0  0
  3 89  1  0  0  0
  4  5  1  0  0  0
  4 90  1  0  0  0
  4 91  1  0  0  0
  5  6  1  0  0  0
  5 26  1  0  0  0
  5 92  1  0  0  0
  6 25  1  0  0  0
  6 93  1  0  0  0
  6 94  1  0  0  0
  7  8  2  0  0  0
  7 26  1  0  0  0
  7 29  1  0  0  0
  8  9  1  0  0  0
  8 22  1  0  0  0
  9 10  1  0  0  0
  9 27  2  0  0  0
 10 11  2  0  0  0
 10 15  1  0  0  0
 11 12  1  0  0  0
 11 95  1  0  0  0
 12 13  2  0  0  0
 12 96  1  0  0  0
 13 14  1  0  0  0
 13 31  1  0  0  0
 14 15  2  0  0  0
 14 97  1  0  0  0
 15 98  1  0  0  0
 16 17  2  0  0  0
 16 21  1  0  0  0
 16 31  1  0  0  0
 17 18  1  0  0  0
 17 99  1  0  0  0
 18 19  2  0  0  0
 18100  1  0  0  0
 19 20  1  0  0  0
 19 24  1  0  0  0
 20 21  2  0  0  0
 20101  1  0  0  0
 21 23  1  0  0  0
 22 28  1  0  0  0
 22 32  2  0  0  0
 26 27  1  0  0  0
 28102  1  0  0  0
 28103  1  0  0  0
 29104  1  0  0  0
 29105  1  0  0  0
 33 34  1  0  0  0
 33 66  1  0  0  0
 33 70  2  0  0  0
 34 36  1  0  0  0
 34 59  1  0  0  0
 34106  1  0  0  0
 35 44  2  0  0  0
 35 45  1  0  0  0
 35 68  1  0  0  0
 36 56  1  0  0  0
 36107  1  0  0  0
 37 39  1  0  0  0
 37 47  1  0  0  0
 37 66  1  0  0  0
 37108  1  0  0  0
 38 43  2  0  0  0
 38 46  1  0  0  0
 38 47  1  0  0  0
 39 64  1  0  0  0
 39 67  2  0  0  0
 40 52  1  0  0  0
 40 53  2  0  0  0
 40 58  1  0  0  0
 41109  1  0  0  0
 41110  1  0  0  0
 41111  1  0  0  0
 41 48  1  0  0  0
 42 43  1  0  0  0
 42 66  1  0  0  0
 42112  1  0  0  0
 42113  1  0  0  0
 43 44  1  0  0  0
 44114  1  0  0  0
 45 46  2  0  0  0
 45115  1  0  0  0
 46116  1  0  0  0
 47117  1  0  0  0
 47118  1  0  0  0
 48 56  1  0  0  0
 48 65  1  0  0  0
 48119  1  0  0  0
 49 50  1  0  0  0
 49 53  1  0  0  0
 49 64  1  0  0  0
 49120  1  0  0  0
 50 51  1  0  0  0
 50121  1  0  0  0
 50122  1  0  0  0
 51 52  1  0  0  0
 51123  1  0  0  0
 51124  1  0  0  0
 52125  1  0  0  0
 52126  1  0  0  0
 53 54  1  0  0  0
 54 55  2  0  0  0
 54127  1  0  0  0
 55 57  1  0  0  0
 55128  1  0  0  0
 56 69  2  0  0  0
 57 58  2  0  0  0
 57129  1  0  0  0
 58130  1  0  0  0
 59 60  1  0  0  0
 59 61  1  0  0  0
 59 62  1  0  0  0
 60131  1  0  0  0
 60132  1  0  0  0
 60133  1  0  0  0
 61134  1  0  0  0
 61135  1  0  0  0
 61136  1  0  0  0
 62137  1  0  0  0
 62138  1  0  0  0
 62139  1  0  0  0
 63 65  1  0  0  0
 63140  1  0  0  0
 63141  1  0  0  0
 63142  1  0  0  0
 64143  1  0  0  0
 65144  1  0  0  0
 68 82  1  0  0  0
 71 72  2  0  0  0
 71 73  1  0  0  0
 71145  1  0  0  0
 72 74  1  0  0  0
 72146  1  0  0  0
 73 75  2  0  0  0
 73 77  1  0  0  0
 74 76  2  0  0  0
 74 80  1  0  0  0
 75 76  1  0  0  0
 75 78  1  0  0  0
 76 79  1  0  0  0
 77 83  1  0  0  0
 77 85  2  0  0  0
 78147  1  0  0  0
 78148  1  0  0  0
 78149  1  0  0  0
 79150  1  0  0  0
 79151  1  0  0  0
 79152  1  0  0  0
 80 84  1  0  0  0
 80153  1  0  0  0
 80154  1  0  0  0
 81 82  1  0  0  0
 81 85  1  0  0  0
 81155  1  0  0  0
 81156  1  0  0  0
 82157  1  0  0  0
 82158  1  0  0  0
 83159  1  0  0  0
 83160  1  0  0  0
 84161  1  0  0  0
 85162  1  0  0  0
M  CHG  1  85   1
M  ISO  4   1 100  68 101  82 101  84 100
M  END
> <chiral flag>
0

> <version>
0

> <s_m_source_file>
/data/baiqing/PycharmProjects/Reinvent-master-3.2/result/LINK_invent/BTK/process_docking_weight1_custom_product_contain_oxygen_bond_distance_aromatic_linkinvent_7_9_3/rearranged_h_0040.sdf

> <i_m_source_file_index>
23

> <r_mmod_Potential_Energy-OPLS-2005>
-88.2111587524414

> <r_mmod_Stretch_Energy-OPLS-2005>
56.6814079284668

> <r_mmod_Bend_Energy-OPLS-2005>
155.735214233398

> <r_mmod_Torsional_Energy-OPLS-2005>
263.972198486328

> <r_mmod_Improper_Torsional_Energy-OPLS-2005>
7.53253698348999

> <r_mmod_Van_der_Waal_Energy-OPLS-2005>
206.70915222168

> <r_mmod_Electrostatic_Energy-OPLS-2005>
-406.151306152344

> <r_mmod_Solvation_Energy-OPLS-2005>
-410.742553710938

> <b_mmod_Minimization_Converged-OPLS-2005>
0

> <r_mmod_RMS_Derivative-OPLS-2005>
13.8437919616699

$$$$
23
                    3D
 Structure written by MMmdl.
159167  0  0  1  0            999 V2000
  -31.7018  -14.6362   20.0589 C   0  0  0  0  0  0
  -30.3941  -12.4587   20.0467 C   0  0  0  0  0  0
  -29.0598  -11.8900   18.9688 C   0  0  0  0  0  0
  -27.5447  -12.6718   18.4356 C   0  0  0  0  0  0
  -26.9347  -14.2807   19.1815 C   0  0  2  0  0  0
  -29.7098  -15.3212   20.8972 C   0  0  0  0  0  0
  -24.8290  -14.0677   20.4776 C   0  0  0  0  0  0
  -23.9819  -13.1302   20.9529 C   0  0  0  0  0  0
  -24.5884  -11.8423   20.8261 C   0  0  0  0  0  0
  -23.9514  -10.4977   21.0015 C   0  0  0  0  0  0
  -24.4030   -9.4861   21.8890 C   0  0  0  0  0  0
  -23.6730   -8.2787   22.0603 C   0  0  0  0  0  0
  -22.4666   -8.0611   21.3542 C   0  0  0  0  0  0
  -22.0373   -9.0438   20.4478 C   0  0  0  0  0  0
  -22.7673  -10.2342   20.2684 C   0  0  0  0  0  0
  -21.7095   -6.0918   22.5340 C   0  0  0  0  0  0
  -21.4201   -6.5703   23.8327 C   0  0  0  0  0  0
  -21.3735   -5.6780   24.9187 C   0  0  0  0  0  0
  -21.6031   -4.3060   24.7184 C   0  0  0  0  0  0
  -21.8765   -3.8195   23.4281 C   0  0  0  0  0  0
  -21.9246   -4.7096   22.3362 C   0  0  0  0  0  0
  -22.5829  -13.4840   21.2703 C   0  0  0  0  0  0
  -22.1632   -4.2293   21.0961 F   0  0  0  0  0  0
  -21.5593   -3.4486   25.7681 F   0  0  0  0  0  0
  -30.7292  -13.9877   20.6952 N   0  0  0  0  0  0
  -25.8605  -13.4293   19.9492 N   0  0  0  0  0  0
  -25.8260  -12.0574   20.3371 N   0  0  0  0  0  0
  -21.9408  -12.7298   22.1482 N   0  0  0  0  0  0
  -24.7651  -15.4363   20.3236 N   0  0  0  0  0  0
  -32.8179  -14.3883   20.3631 O   0  0  0  0  0  0
  -21.7001   -6.9121   21.4333 O   0  0  0  0  0  0
  -22.0813  -14.4857   20.7617 O   0  0  0  0  0  0
  -24.6816  -31.8027   23.1584 C   0  0  0  0  0  0
  -25.9449  -32.4435   23.8101 C   0  0  1  0  0  0
  -27.0052  -26.6333   20.2946 C   0  0  0  0  0  0
  -25.6040  -33.8279   24.1992 N   0  0  0  0  0  0
  -23.4948  -30.4251   21.5164 C   0  0  2  0  0  0
  -24.9115  -28.7715   20.1126 C   0  0  0  0  0  0
  -22.7704  -29.4381   22.4753 C   0  0  0  0  0  0
  -18.0338  -28.1392   22.8466 C   0  0  0  0  0  0
  -24.1502  -36.7134   23.2658 C   0  0  0  0  0  0
  -26.0748  -30.5198   21.4229 C   0  0  0  0  0  0
  -26.0998  -29.0805   20.7814 C   0  0  0  0  0  0
  -27.1564  -28.0380   20.8286 C   0  0  0  0  0  0
  -25.8348  -26.5505   19.5234 C   0  0  0  0  0  0
  -24.8265  -27.5445   19.4397 C   0  0  0  0  0  0
  -23.7343  -29.7457   20.1387 C   0  0  0  0  0  0
  -25.4148  -36.2896   24.0310 C   0  0  1  0  0  0
  -20.5946  -28.3754   23.1164 C   0  0  2  0  0  0
  -20.6799  -26.9435   22.5388 C   0  0  0  0  0  0
  -19.5765  -26.6371   21.5210 C   0  0  0  0  0  0
  -18.1959  -26.7928   22.1625 C   0  0  0  0  0  0
  -19.1590  -28.8913   23.2789 C   0  0  0  0  0  0
  -18.9502  -30.1502   23.8843 C   0  0  0  0  0  0
  -17.6486  -30.6591   24.0559 C   0  0  0  0  0  0
  -25.9141  -34.9263   23.4979 C   0  0  0  0  0  0
  -16.5387  -29.9083   23.6318 C   0  0  0  0  0  0
  -16.7321  -28.6486   23.0377 C   0  0  0  0  0  0
  -26.4611  -31.6423   25.0682 C   0  0  0  0  0  0
  -25.3685  -31.3696   26.1284 C   0  0  0  0  0  0
  -27.0505  -30.2762   24.6535 C   0  0  0  0  0  0
  -27.6107  -32.4231   25.7463 C   0  0  0  0  0  0
  -27.5561  -37.1721   24.8477 C   0  0  0  0  0  0
  -21.4377  -29.3017   22.3470 N   0  0  0  0  0  0
  -26.4271  -37.3652   23.9425 N   0  0  0  0  0  0
  -24.7771  -30.9512   22.0835 N   0  0  0  0  0  0
  -23.4176  -28.7935   23.3039 O   0  0  0  0  0  0
  -27.8212  -25.3315   20.3428 O   0  0  0  0  0  0
  -26.5749  -34.8835   22.4581 O   0  0  0  0  0  0
  -23.5867  -32.1169   23.6565 O   0  0  0  0  0  0
  -29.0964  -14.3577   19.0288 C   0  0  0  0  0  0
  -28.2009  -13.8075   20.8340 C   0  0  0  0  0  0
  -28.2718  -16.8393   19.2413 C   0  0  0  0  0  0
  -27.5723  -16.8658   20.5518 C   0  0  0  0  0  0
  -29.0389  -15.7571   18.5675 C   0  0  0  0  0  0
  -27.4215  -15.3511   21.3177 C   0  0  0  0  0  0
  -27.1514  -18.6025   20.8517 C   0  0  0  0  0  0
  -26.7377  -15.3721   22.6757 C   0  0  0  0  0  0
  -30.4569  -16.0376   18.0825 C   0  0  0  0  0  0
  -27.1634  -21.8053   20.2930 C   0  0  0  0  0  0
  -27.5326  -23.6438   20.8293 C   0  0  0  0  0  0
  -26.0174  -18.7350   21.5405 N   0  0  0  0  0  0
  -31.5410  -15.5613   19.0309 N   0  0  0  0  0  0
  -27.6444  -20.0683   20.5458 N   0  3  0  0  0  0
  -31.3260  -12.1119   19.5998 H   0  0  0  0  0  0
  -30.3206  -11.8462   20.9427 H   0  0  0  0  0  0
  -28.7295  -10.9673   19.4483 H   0  0  0  0  0  0
  -29.5401  -11.5257   18.0576 H   0  0  0  0  0  0
  -26.7796  -11.9320   18.1724 H   0  0  0  0  0  0
  -27.7718  -12.9657   17.4042 H   0  0  0  0  0  0
  -26.4774  -14.9512   18.4385 H   0  0  0  0  0  0
  -29.6628  -15.3588   22.0003 H   0  0  0  0  0  0
  -30.1084  -16.3355   20.7756 H   0  0  0  0  0  0
  -25.3157   -9.6442   22.4482 H   0  0  0  0  0  0
  -24.0445   -7.5271   22.7430 H   0  0  0  0  0  0
  -21.1323   -8.8811   19.8813 H   0  0  0  0  0  0
  -22.4005  -10.9642   19.5612 H   0  0  0  0  0  0
  -21.2263   -7.6224   23.9882 H   0  0  0  0  0  0
  -21.1594   -6.0465   25.9124 H   0  0  0  0  0  0
  -22.0442   -2.7686   23.2693 H   0  0  0  0  0  0
  -22.3932  -11.9323   22.5701 H   0  0  0  0  0  0
  -20.9918  -12.9574   22.4081 H   0  0  0  0  0  0
  -24.3535  -15.8552   21.1424 H   0  0  0  0  0  0
  -24.0245  -15.5739   19.6403 H   0  0  0  0  0  0
  -26.7465  -32.4866   23.0743 H   0  0  0  0  0  0
  -25.0123  -33.9302   25.0109 H   0  0  0  0  0  0
  -22.8221  -31.2654   21.3445 H   0  0  0  0  0  0
  -23.3784  -35.9435   23.3276 H   0  0  0  0  0  0
  -24.3587  -36.8836   22.2074 H   0  0  0  0  0  0
  -23.7216  -37.6293   23.6758 H   0  0  0  0  0  0
  -26.2892  -31.2355   20.6278 H   0  0  0  0  0  0
  -26.9287  -30.5712   22.0864 H   0  0  0  0  0  0
  -28.0578  -28.2700   21.3813 H   0  0  0  0  0  0
  -25.6451  -25.6212   19.0075 H   0  0  0  0  0  0
  -23.9387  -27.3186   18.8718 H   0  0  0  0  0  0
  -23.9289  -30.5130   19.3885 H   0  0  0  0  0  0
  -22.8295  -29.2351   19.8038 H   0  0  0  0  0  0
  -25.1345  -36.1671   25.0802 H   0  0  0  0  0  0
  -21.0062  -28.3382   24.1279 H   0  0  0  0  0  0
  -20.5672  -26.2395   23.3640 H   0  0  0  0  0  0
  -21.6661  -26.7383   22.1188 H   0  0  0  0  0  0
  -19.6910  -25.6273   21.1265 H   0  0  0  0  0  0
  -19.6679  -27.3163   20.6725 H   0  0  0  0  0  0
  -17.4208  -26.6682   21.4047 H   0  0  0  0  0  0
  -18.0355  -26.0094   22.9042 H   0  0  0  0  0  0
  -19.8001  -30.7327   24.2184 H   0  0  0  0  0  0
  -17.5059  -31.6277   24.5170 H   0  0  0  0  0  0
  -15.5387  -30.2967   23.7704 H   0  0  0  0  0  0
  -15.8720  -28.0794   22.7132 H   0  0  0  0  0  0
  -24.5905  -30.7014   25.7543 H   0  0  0  0  0  0
  -24.8825  -32.2887   26.4567 H   0  0  0  0  0  0
  -25.7869  -30.8923   27.0149 H   0  0  0  0  0  0
  -26.3179  -29.6359   24.1586 H   0  0  0  0  0  0
  -27.3965  -29.7193   25.5244 H   0  0  0  0  0  0
  -27.9187  -30.3858   24.0030 H   0  0  0  0  0  0
  -27.2693  -33.3562   26.1939 H   0  0  0  0  0  0
  -28.3951  -32.6705   25.0302 H   0  0  0  0  0  0
  -28.0724  -31.8408   26.5436 H   0  0  0  0  0  0
  -28.2556  -38.0034   24.7531 H   0  0  0  0  0  0
  -28.1080  -36.2559   24.6320 H   0  0  0  0  0  0
  -27.2276  -37.1372   25.8877 H   0  0  0  0  0  0
  -20.9683  -29.8707   21.6566 H   0  0  0  0  0  0
  -26.0103  -38.2704   24.1451 H   0  0  0  0  0  0
  -29.7485  -13.8528   18.3254 H   0  0  0  0  0  0
  -28.1821  -12.8644   21.3570 H   0  0  0  0  0  0
  -28.4191  -17.8184   18.7919 H   0  0  0  0  0  0
  -27.4809  -15.2702   23.4634 H   0  0  0  0  0  0
  -26.0004  -14.5752   22.7721 H   0  0  0  0  0  0
  -26.2263  -16.3205   22.8324 H   0  0  0  0  0  0
  -30.6299  -15.5033   17.1493 H   0  0  0  0  0  0
  -30.5766  -17.0995   17.8440 H   0  0  0  0  0  0
  -27.2692  -21.8965   19.2092 H   0  0  0  0  0  0
  -26.0796  -21.7523   20.4210 H   0  0  0  0  0  0
  -28.3741  -23.5065   21.5064 H   0  0  0  0  0  0
  -26.7057  -23.8112   21.5259 H   0  0  0  0  0  0
  -25.6780  -19.6426   21.8048 H   0  0  0  0  0  0
  -25.5533  -17.9154   21.9000 H   0  0  0  0  0  0
  -32.4383  -15.9654   18.7964 H   0  0  0  0  0  0
  -28.5936  -20.0014   20.1855 H   0  0  0  0  0  0
  1 25  1  0  0  0
  1 30  2  0  0  0
  1 83  1  0  0  0
  2  3  1  0  0  0
  2 25  1  0  0  0
  2 85  1  0  0  0
  2 86  1  0  0  0
  3  4  1  0  0  0
  3 87  1  0  0  0
  3 88  1  0  0  0
  4  5  1  0  0  0
  4 89  1  0  0  0
  4 90  1  0  0  0
  5  6  1  0  0  0
  5 26  1  0  0  0
  5 91  1  0  0  0
  6 25  1  0  0  0
  6 92  1  0  0  0
  6 93  1  0  0  0
  7  8  2  0  0  0
  7 26  1  0  0  0
  7 29  1  0  0  0
  8  9  1  0  0  0
  8 22  1  0  0  0
  9 10  1  0  0  0
  9 27  2  0  0  0
 10 11  2  0  0  0
 10 15  1  0  0  0
 11 12  1  0  0  0
 11 94  1  0  0  0
 12 13  2  0  0  0
 12 95  1  0  0  0
 13 14  1  0  0  0
 13 31  1  0  0  0
 14 15  2  0  0  0
 14 96  1  0  0  0
 15 97  1  0  0  0
 16 17  2  0  0  0
 16 21  1  0  0  0
 16 31  1  0  0  0
 17 18  1  0  0  0
 17 98  1  0  0  0
 18 19  2  0  0  0
 18 99  1  0  0  0
 19 20  1  0  0  0
 19 24  1  0  0  0
 20 21  2  0  0  0
 20100  1  0  0  0
 21 23  1  0  0  0
 22 28  1  0  0  0
 22 32  2  0  0  0
 26 27  1  0  0  0
 28101  1  0  0  0
 28102  1  0  0  0
 29103  1  0  0  0
 29104  1  0  0  0
 33 34  1  0  0  0
 33 66  1  0  0  0
 33 70  2  0  0  0
 34 36  1  0  0  0
 34 59  1  0  0  0
 34105  1  0  0  0
 35 44  2  0  0  0
 35 45  1  0  0  0
 35 68  1  0  0  0
 36 56  1  0  0  0
 36106  1  0  0  0
 37 39  1  0  0  0
 37 47  1  0  0  0
 37 66  1  0  0  0
 37107  1  0  0  0
 38 43  2  0  0  0
 38 46  1  0  0  0
 38 47  1  0  0  0
 39 64  1  0  0  0
 39 67  2  0  0  0
 40 52  1  0  0  0
 40 53  2  0  0  0
 40 58  1  0  0  0
 41108  1  0  0  0
 41109  1  0  0  0
 41110  1  0  0  0
 41 48  1  0  0  0
 42 43  1  0  0  0
 42 66  1  0  0  0
 42111  1  0  0  0
 42112  1  0  0  0
 43 44  1  0  0  0
 44113  1  0  0  0
 45 46  2  0  0  0
 45114  1  0  0  0
 46115  1  0  0  0
 47116  1  0  0  0
 47117  1  0  0  0
 48 56  1  0  0  0
 48 65  1  0  0  0
 48118  1  0  0  0
 49 50  1  0  0  0
 49 53  1  0  0  0
 49 64  1  0  0  0
 49119  1  0  0  0
 50 51  1  0  0  0
 50120  1  0  0  0
 50121  1  0  0  0
 51 52  1  0  0  0
 51122  1  0  0  0
 51123  1  0  0  0
 52124  1  0  0  0
 52125  1  0  0  0
 53 54  1  0  0  0
 54 55  2  0  0  0
 54126  1  0  0  0
 55 57  1  0  0  0
 55127  1  0  0  0
 56 69  2  0  0  0
 57 58  2  0  0  0
 57128  1  0  0  0
 58129  1  0  0  0
 59 60  1  0  0  0
 59 61  1  0  0  0
 59 62  1  0  0  0
 60130  1  0  0  0
 60131  1  0  0  0
 60132  1  0  0  0
 61133  1  0  0  0
 61134  1  0  0  0
 61135  1  0  0  0
 62136  1  0  0  0
 62137  1  0  0  0
 62138  1  0  0  0
 63 65  1  0  0  0
 63139  1  0  0  0
 63140  1  0  0  0
 63141  1  0  0  0
 64142  1  0  0  0
 65143  1  0  0  0
 68 81  1  0  0  0
 71 72  2  0  0  0
 71 75  1  0  0  0
 71144  1  0  0  0
 72 76  1  0  0  0
 72145  1  0  0  0
 73 74  1  0  0  0
 73 75  2  0  0  0
 73146  1  0  0  0
 74 76  2  0  0  0
 74 77  1  0  0  0
 75 79  1  0  0  0
 76 78  1  0  0  0
 77 82  1  0  0  0
 77 84  2  0  0  0
 78147  1  0  0  0
 78148  1  0  0  0
 78149  1  0  0  0
 79 83  1  0  0  0
 79150  1  0  0  0
 79151  1  0  0  0
 80 81  1  0  0  0
 80 84  1  0  0  0
 80152  1  0  0  0
 80153  1  0  0  0
 81154  1  0  0  0
 81155  1  0  0  0
 82156  1  0  0  0
 82157  1  0  0  0
 83158  1  0  0  0
 84159  1  0  0  0
M  CHG  1  84   1
M  ISO  4   1 100  68 101  81 101  83 100
M  END
> <chiral flag>
0

> <version>
0

> <s_m_source_file>
/data/baiqing/PycharmProjects/Reinvent-master-3.2/result/LINK_invent/BTK/process_docking_weight1_custom_product_contain_oxygen_bond_distance_aromatic_linkinvent_7_9_3/rearranged_h_0040.sdf

> <i_m_source_file_index>
24

> <r_mmod_Potential_Energy-OPLS-2005>
12611.25390625

> <r_mmod_Stretch_Energy-OPLS-2005>
7005.78759765625

> <r_mmod_Bend_Energy-OPLS-2005>
1044.20166015625

> <r_mmod_Torsional_Energy-OPLS-2005>
468.855865478516

> <r_mmod_Improper_Torsional_Energy-OPLS-2005>
29.8338623046875

> <r_mmod_Van_der_Waal_Energy-OPLS-2005>
2791.6298828125

> <r_mmod_Electrostatic_Energy-OPLS-2005>
-419.410705566406

> <r_mmod_Solvation_Energy-OPLS-2005>
-415.229888916016

> <b_mmod_Minimization_Converged-OPLS-2005>
0

> <r_mmod_RMS_Derivative-OPLS-2005>
19.0654258728027

$$$$
24
                    3D
 Structure written by MMmdl.
170179  0  0  1  0            999 V2000
  -30.7287  -14.5514   20.5905 C   0  0  0  0  0  0
  -30.4134  -12.3706   19.5041 C   0  0  0  0  0  0
  -29.5056  -12.5224   18.2568 C   0  0  0  0  0  0
  -28.0219  -12.3759   18.6395 C   0  0  0  0  0  0
  -27.6324  -13.2485   19.8655 C   0  0  2  0  0  0
  -28.6693  -13.1117   21.0079 C   0  0  0  0  0  0
  -25.2449  -13.8262   20.5823 C   0  0  0  0  0  0
  -24.1797  -13.0535   20.9320 C   0  0  0  0  0  0
  -24.6319  -11.6932   20.8700 C   0  0  0  0  0  0
  -23.9095  -10.4289   21.0394 C   0  0  0  0  0  0
  -24.3573   -9.4144   21.9198 C   0  0  0  0  0  0
  -23.6301   -8.2122   22.0613 C   0  0  0  0  0  0
  -22.4327   -8.0121   21.3347 C   0  0  0  0  0  0
  -22.0011   -9.0167   20.4505 C   0  0  0  0  0  0
  -22.7274  -10.2142   20.3061 C   0  0  0  0  0  0
  -21.6861   -6.0663   22.5313 C   0  0  0  0  0  0
  -21.3977   -6.5531   23.8264 C   0  0  0  0  0  0
  -21.3723   -5.6698   24.9240 C   0  0  0  0  0  0
  -21.6158   -4.2978   24.7309 C   0  0  0  0  0  0
  -21.8725   -3.8044   23.4420 C   0  0  0  0  0  0
  -21.9153   -4.6870   22.3463 C   0  0  0  0  0  0
  -22.7805  -13.5252   21.2014 C   0  0  0  0  0  0
  -22.1614   -4.2009   21.1057 F   0  0  0  0  0  0
  -21.5780   -3.4478   25.7860 F   0  0  0  0  0  0
  -30.0085  -13.4055   20.4731 N   0  0  0  0  0  0
  -26.2848  -12.9505   20.3290 N   0  0  0  0  0  0
  -25.9195  -11.6620   20.5502 N   0  0  0  0  0  0
  -22.0471  -12.8220   22.0518 N   0  0  0  0  0  0
  -25.4126  -15.2068   20.4338 N   0  0  0  0  0  0
  -31.8661  -14.6372   20.1057 O   0  0  0  0  0  0
  -21.6584   -6.8807   21.4241 O   0  0  0  0  0  0
  -22.3557  -14.5658   20.6939 O   0  0  0  0  0  0
  -24.6266  -31.8834   23.2307 C   0  0  0  0  0  0
  -25.9186  -32.4739   23.8407 C   0  0  1  0  0  0
  -27.1021  -27.3634   20.0035 C   0  0  0  0  0  0
  -25.6104  -33.8507   24.2327 N   0  0  0  0  0  0
  -23.4063  -30.5071   21.6081 C   0  0  2  0  0  0
  -24.8247  -29.0316   20.0968 C   0  0  0  0  0  0
  -22.7508  -29.4698   22.5431 C   0  0  0  0  0  0
  -18.0176  -28.0765   22.8882 C   0  0  0  0  0  0
  -24.1519  -36.7266   23.2630 C   0  0  0  0  0  0
  -25.9584  -30.7917   21.4267 C   0  0  0  0  0  0
  -26.0048  -29.4424   20.7271 C   0  0  0  0  0  0
  -27.1603  -28.6016   20.7132 C   0  0  0  0  0  0
  -25.9886  -27.1589   19.1549 C   0  0  0  0  0  0
  -24.8126  -27.8896   19.3112 C   0  0  0  0  0  0
  -23.5844  -29.8770   20.2095 C   0  0  0  0  0  0
  -25.4155  -36.3024   24.0302 C   0  0  1  0  0  0
  -20.5950  -28.3008   23.1008 C   0  0  2  0  0  0
  -20.7573  -26.9752   22.3200 C   0  0  0  0  0  0
  -19.5244  -26.2955   21.7218 C   0  0  0  0  0  0
  -18.1306  -26.7315   22.2021 C   0  0  0  0  0  0
  -19.1661  -28.8092   23.2967 C   0  0  0  0  0  0
  -18.9793  -30.0978   23.8492 C   0  0  0  0  0  0
  -17.6849  -30.6508   23.9996 C   0  0  0  0  0  0
  -25.9137  -34.9385   23.5077 C   0  0  0  0  0  0
  -16.5599  -29.9069   23.6219 C   0  0  0  0  0  0
  -16.7206  -28.6002   23.1149 C   0  0  0  0  0  0
  -26.4520  -31.6491   25.0747 C   0  0  0  0  0  0
  -25.3759  -31.3777   26.1513 C   0  0  0  0  0  0
  -27.0491  -30.2882   24.6348 C   0  0  0  0  0  0
  -27.5969  -32.4219   25.7606 C   0  0  0  0  0  0
  -27.5568  -37.1801   24.8460 C   0  0  0  0  0  0
  -21.4235  -29.3256   22.4564 N   0  0  0  0  0  0
  -26.4320  -37.3703   23.9373 N   0  0  0  0  0  0
  -24.6821  -31.0785   22.1342 N   0  0  0  0  0  0
  -23.4348  -28.8026   23.3242 O   0  0  0  0  0  0
  -27.9563  -26.2794   20.1665 O   0  0  0  0  0  0
  -26.5551  -34.8892   22.4543 O   0  0  0  0  0  0
  -23.5399  -32.1730   23.7566 O   0  0  0  0  0  0
  -28.4792  -18.1671   20.6374 C   0  0  0  0  0  0
  -29.3745  -20.5505   21.8261 C   0  0  0  0  0  0
  -27.5966  -19.2807   20.7429 C   0  0  0  0  0  0
  -30.2916  -19.5027   21.5513 C   0  0  0  0  0  0
  -29.8201  -18.2335   21.0970 C   0  0  0  0  0  0
  -28.0059  -20.4130   21.4947 C   0  0  0  0  0  0
  -25.4504  -22.6251   20.3370 C   0  0  0  0  0  0
  -24.3079  -22.0427   20.8202 C   0  0  0  0  0  0
  -25.5683  -23.4736   19.0409 C   0  0  0  0  0  0
  -26.9761  -24.1900   18.9420 C   0  0  0  0  0  0
  -27.4328  -23.9343   21.3905 C   0  0  0  0  0  0
  -27.1780  -24.9921   20.2707 C   0  0  1  0  0  0
  -26.3283  -19.3057   19.8966 C   0  0  0  0  0  0
  -31.7693  -19.8572   21.6182 C   0  0  0  0  0  0
  -30.7598  -17.0075   20.9946 C   0  0  0  0  0  0
  -27.0599  -21.4914   21.9959 C   0  0  0  0  0  0
  -30.1464  -15.6571   21.0971 N   0  0  0  0  0  0
  -26.7997  -22.5861   21.0178 N   0  3  1  0  0  0
  -31.4696  -12.4523   19.2422 H   0  0  0  0  0  0
  -30.3080  -11.3939   19.9789 H   0  0  0  0  0  0
  -29.7788  -11.7838   17.5009 H   0  0  0  0  0  0
  -29.6566  -13.5046   17.8020 H   0  0  0  0  0  0
  -27.8656  -11.3183   18.8667 H   0  0  0  0  0  0
  -27.3754  -12.6080   17.7944 H   0  0  0  0  0  0
  -27.6200  -14.2909   19.5393 H   0  0  0  0  0  0
  -28.6549  -12.0888   21.3872 H   0  0  0  0  0  0
  -28.4042  -13.7512   21.8553 H   0  0  0  0  0  0
  -25.2591   -9.5604   22.4967 H   0  0  0  0  0  0
  -23.9890   -7.4511   22.7354 H   0  0  0  0  0  0
  -21.0918   -8.8746   19.8876 H   0  0  0  0  0  0
  -22.3557  -10.9704   19.6270 H   0  0  0  0  0  0
  -21.1838   -7.5994   23.9753 H   0  0  0  0  0  0
  -21.1724   -6.0431   25.9186 H   0  0  0  0  0  0
  -22.0426   -2.7462   23.2970 H   0  0  0  0  0  0
  -22.4094  -11.9875   22.4893 H   0  0  0  0  0  0
  -21.1012  -13.1096   22.2594 H   0  0  0  0  0  0
  -24.5949  -15.7973   20.4945 H   0  0  0  0  0  0
  -26.2168  -15.7081   20.0661 H   0  0  0  0  0  0
  -26.7283  -32.5243   23.1132 H   0  0  0  0  0  0
  -25.0280  -33.9694   25.0509 H   0  0  0  0  0  0
  -22.6702  -31.3113   21.5030 H   0  0  0  0  0  0
  -23.3729  -35.9637   23.3292 H   0  0  0  0  0  0
  -24.3724  -36.8881   22.2061 H   0  0  0  0  0  0
  -23.7377  -37.6481   23.6688 H   0  0  0  0  0  0
  -26.1654  -31.5955   20.7211 H   0  0  0  0  0  0
  -26.8178  -30.7586   22.0829 H   0  0  0  0  0  0
  -28.0380  -28.8720   21.2882 H   0  0  0  0  0  0
  -25.9540  -26.3782   18.4184 H   0  0  0  0  0  0
  -23.9410  -27.6116   18.7368 H   0  0  0  0  0  0
  -23.6491  -30.6770   19.4839 H   0  0  0  0  0  0
  -22.7193  -29.2909   19.8987 H   0  0  0  0  0  0
  -25.1348  -36.1784   25.0780 H   0  0  0  0  0  0
  -21.0058  -28.0780   24.0848 H   0  0  0  0  0  0
  -21.2950  -26.2819   22.9757 H   0  0  0  0  0  0
  -21.4493  -27.1296   21.4793 H   0  0  0  0  0  0
  -19.6104  -25.2570   22.0175 H   0  0  0  0  0  0
  -19.5582  -26.2679   20.6400 H   0  0  0  0  0  0
  -17.4955  -26.7231   21.3226 H   0  0  0  0  0  0
  -17.6907  -25.9967   22.8927 H   0  0  0  0  0  0
  -19.8489  -30.6759   24.1267 H   0  0  0  0  0  0
  -17.5662  -31.6595   24.3751 H   0  0  0  0  0  0
  -15.5686  -30.3023   23.7794 H   0  0  0  0  0  0
  -15.8371  -28.0237   22.8850 H   0  0  0  0  0  0
  -24.5801  -30.7252   25.7945 H   0  0  0  0  0  0
  -24.9172  -32.3048   26.4891 H   0  0  0  0  0  0
  -25.8099  -30.8957   27.0280 H   0  0  0  0  0  0
  -26.3216  -29.6460   24.1391 H   0  0  0  0  0  0
  -27.4248  -29.7209   25.4888 H   0  0  0  0  0  0
  -27.8994  -30.4161   23.9668 H   0  0  0  0  0  0
  -27.2425  -33.3429   26.2261 H   0  0  0  0  0  0
  -28.3813  -32.6929   25.0508 H   0  0  0  0  0  0
  -28.0607  -31.8298   26.5533 H   0  0  0  0  0  0
  -28.2534  -38.0135   24.7483 H   0  0  0  0  0  0
  -28.1121  -36.2643   24.6307 H   0  0  0  0  0  0
  -27.2302  -37.1463   25.8876 H   0  0  0  0  0  0
  -20.9276  -29.9428   21.8385 H   0  0  0  0  0  0
  -26.0121  -38.2698   24.1414 H   0  0  0  0  0  0
  -28.1973  -17.2829   20.0802 H   0  0  0  0  0  0
  -29.7244  -21.4840   22.2502 H   0  0  0  0  0  0
  -23.3750  -22.0716   20.3046 H   0  0  0  0  0  0
  -24.2299  -21.4713   21.7411 H   0  0  0  0  0  0
  -24.7558  -24.2177   19.0777 H   0  0  0  0  0  0
  -25.3519  -22.9012   18.1332 H   0  0  0  0  0  0
  -27.1193  -24.7717   18.0415 H   0  0  0  0  0  0
  -27.7773  -23.4422   18.8404 H   0  0  0  0  0  0
  -27.0555  -24.3183   22.3521 H   0  0  0  0  0  0
  -28.4940  -23.7804   21.5647 H   0  0  0  0  0  0
  -26.1843  -25.2955   20.5982 H   0  0  0  0  0  0
  -25.9028  -18.3104   19.8250 H   0  0  0  0  0  0
  -26.6300  -19.6070   18.8834 H   0  0  0  0  0  0
  -25.5307  -19.9637   20.2164 H   0  0  0  0  0  0
  -32.2503  -19.4516   22.5003 H   0  0  0  0  0  0
  -31.8830  -20.9406   21.6517 H   0  0  0  0  0  0
  -32.3097  -19.5673   20.7077 H   0  0  0  0  0  0
  -31.5182  -17.0838   21.7708 H   0  0  0  0  0  0
  -31.3105  -17.1042   20.0518 H   0  0  0  0  0  0
  -27.5717  -21.9527   22.8200 H   0  0  0  0  0  0
  -26.1859  -21.0467   22.4811 H   0  0  0  0  0  0
  -29.2292  -15.5742   21.5046 H   0  0  0  0  0  0
  -27.4269  -22.2782   20.2849 H   0  0  0  0  0  0
  1 25  1  0  0  0
  1 30  2  0  0  0
  1 87  1  0  0  0
  2  3  1  0  0  0
  2 25  1  0  0  0
  2 89  1  0  0  0
  2 90  1  0  0  0
  3  4  1  0  0  0
  3 91  1  0  0  0
  3 92  1  0  0  0
  4  5  1  0  0  0
  4 93  1  0  0  0
  4 94  1  0  0  0
  5  6  1  0  0  0
  5 26  1  0  0  0
  5 95  1  0  0  0
  6 25  1  0  0  0
  6 96  1  0  0  0
  6 97  1  0  0  0
  7  8  2  0  0  0
  7 26  1  0  0  0
  7 29  1  0  0  0
  8  9  1  0  0  0
  8 22  1  0  0  0
  9 10  1  0  0  0
  9 27  2  0  0  0
 10 11  2  0  0  0
 10 15  1  0  0  0
 11 12  1  0  0  0
 11 98  1  0  0  0
 12 13  2  0  0  0
 12 99  1  0  0  0
 13 14  1  0  0  0
 13 31  1  0  0  0
 14 15  2  0  0  0
 14100  1  0  0  0
 15101  1  0  0  0
 16 17  2  0  0  0
 16 21  1  0  0  0
 16 31  1  0  0  0
 17 18  1  0  0  0
 17102  1  0  0  0
 18 19  2  0  0  0
 18103  1  0  0  0
 19 20  1  0  0  0
 19 24  1  0  0  0
 20 21  2  0  0  0
 20104  1  0  0  0
 21 23  1  0  0  0
 22 28  1  0  0  0
 22 32  2  0  0  0
 26 27  1  0  0  0
 28105  1  0  0  0
 28106  1  0  0  0
 29107  1  0  0  0
 29108  1  0  0  0
 33 34  1  0  0  0
 33 66  1  0  0  0
 33 70  2  0  0  0
 34 36  1  0  0  0
 34 59  1  0  0  0
 34109  1  0  0  0
 35 44  2  0  0  0
 35 45  1  0  0  0
 35 68  1  0  0  0
 36 56  1  0  0  0
 36110  1  0  0  0
 37 39  1  0  0  0
 37 47  1  0  0  0
 37 66  1  0  0  0
 37111  1  0  0  0
 38 43  2  0  0  0
 38 46  1  0  0  0
 38 47  1  0  0  0
 39 64  1  0  0  0
 39 67  2  0  0  0
 40 52  1  0  0  0
 40 53  2  0  0  0
 40 58  1  0  0  0
 41112  1  0  0  0
 41113  1  0  0  0
 41114  1  0  0  0
 41 48  1  0  0  0
 42 43  1  0  0  0
 42 66  1  0  0  0
 42115  1  0  0  0
 42116  1  0  0  0
 43 44  1  0  0  0
 44117  1  0  0  0
 45 46  2  0  0  0
 45118  1  0  0  0
 46119  1  0  0  0
 47120  1  0  0  0
 47121  1  0  0  0
 48 56  1  0  0  0
 48 65  1  0  0  0
 48122  1  0  0  0
 49 50  1  0  0  0
 49 53  1  0  0  0
 49 64  1  0  0  0
 49123  1  0  0  0
 50 51  1  0  0  0
 50124  1  0  0  0
 50125  1  0  0  0
 51 52  1  0  0  0
 51126  1  0  0  0
 51127  1  0  0  0
 52128  1  0  0  0
 52129  1  0  0  0
 53 54  1  0  0  0
 54 55  2  0  0  0
 54130  1  0  0  0
 55 57  1  0  0  0
 55131  1  0  0  0
 56 69  2  0  0  0
 57 58  2  0  0  0
 57132  1  0  0  0
 58133  1  0  0  0
 59 60  1  0  0  0
 59 61  1  0  0  0
 59 62  1  0  0  0
 60134  1  0  0  0
 60135  1  0  0  0
 60136  1  0  0  0
 61137  1  0  0  0
 61138  1  0  0  0
 61139  1  0  0  0
 62140  1  0  0  0
 62141  1  0  0  0
 62142  1  0  0  0
 63 65  1  0  0  0
 63143  1  0  0  0
 63144  1  0  0  0
 63145  1  0  0  0
 64146  1  0  0  0
 65147  1  0  0  0
 68 82  1  0  0  0
 71 73  2  0  0  0
 71 75  1  0  0  0
 71148  1  0  0  0
 72 74  1  0  0  0
 72 76  2  0  0  0
 72149  1  0  0  0
 73 76  1  0  0  0
 73 83  1  0  0  0
 74 75  2  0  0  0
 74 84  1  0  0  0
 75 85  1  0  0  0
 76 86  1  0  0  0
 77 78  2  0  0  0
 77 79  1  0  0  0
 77 88  1  0  0  0
 78150  1  0  0  0
 78151  1  0  0  0
 79 80  1  0  0  0
 79152  1  0  0  0
 79153  1  0  0  0
 80 82  1  0  0  0
 80154  1  0  0  0
 80155  1  0  0  0
 81 82  1  0  0  0
 81 88  1  0  0  0
 81156  1  0  0  0
 81157  1  0  0  0
 82158  1  0  0  0
 83159  1  0  0  0
 83160  1  0  0  0
 83161  1  0  0  0
 84162  1  0  0  0
 84163  1  0  0  0
 84164  1  0  0  0
 85 87  1  0  0  0
 85165  1  0  0  0
 85166  1  0  0  0
 86167  1  0  0  0
 86168  1  0  0  0
 86 88  1  0  0  0
 87169  1  0  0  0
 88170  1  0  0  0
M  CHG  1  88   1
M  ISO  4   1 100  68 101  82 101  87 100
M  END
> <chiral flag>
0

> <version>
0

> <s_m_source_file>
/data/baiqing/PycharmProjects/Reinvent-master-3.2/result/LINK_invent/BTK/process_docking_weight1_custom_product_contain_oxygen_bond_distance_aromatic_linkinvent_7_9_3/rearranged_h_0040.sdf

> <i_m_source_file_index>
25

> <r_mmod_Potential_Energy-OPLS-2005>
193.385986328125

> <r_mmod_Stretch_Energy-OPLS-2005>
78.401496887207

> <r_mmod_Bend_Energy-OPLS-2005>
196.380950927734

> <r_mmod_Torsional_Energy-OPLS-2005>
324.315155029297

> <r_mmod_Improper_Torsional_Energy-OPLS-2005>
6.76390409469604

> <r_mmod_Van_der_Waal_Energy-OPLS-2005>
203.089828491211

> <r_mmod_Electrostatic_Energy-OPLS-2005>
-336.199737548828

> <r_mmod_Solvation_Energy-OPLS-2005>
-409.942169189453

> <b_mmod_Minimization_Converged-OPLS-2005>
0

> <r_mmod_RMS_Derivative-OPLS-2005>
27.2427158355713

$$$$
25
                    3D
 Structure written by MMmdl.
154162  0  0  1  0            999 V2000
  -30.6425  -14.6637   20.4886 C   0  0  0  0  0  0
  -30.4391  -12.4086   19.4549 C   0  0  0  0  0  0
  -29.5098  -12.5168   18.2260 C   0  0  0  0  0  0
  -28.0341  -12.3491   18.6395 C   0  0  0  0  0  0
  -27.6533  -13.2245   19.8633 C   0  0  2  0  0  0
  -28.7019  -13.1030   20.9936 C   0  0  0  0  0  0
  -25.2560  -13.8182   20.5721 C   0  0  0  0  0  0
  -24.1838  -13.0427   20.9195 C   0  0  0  0  0  0
  -24.6410  -11.6905   20.8717 C   0  0  0  0  0  0
  -23.9065  -10.4288   21.0386 C   0  0  0  0  0  0
  -24.3608   -9.4206   21.9171 C   0  0  0  0  0  0
  -23.6291   -8.2237   22.0738 C   0  0  0  0  0  0
  -22.4276   -8.0270   21.3530 C   0  0  0  0  0  0
  -21.9920   -9.0234   20.4629 C   0  0  0  0  0  0
  -22.7241  -10.2118   20.3037 C   0  0  0  0  0  0
  -21.6860   -6.0730   22.5275 C   0  0  0  0  0  0
  -21.4013   -6.5633   23.8203 C   0  0  0  0  0  0
  -21.3657   -5.6786   24.9174 C   0  0  0  0  0  0
  -21.6046   -4.3046   24.7230 C   0  0  0  0  0  0
  -21.8823   -3.8147   23.4344 C   0  0  0  0  0  0
  -21.9193   -4.6961   22.3400 C   0  0  0  0  0  0
  -22.7863  -13.5210   21.1872 C   0  0  0  0  0  0
  -22.1668   -4.2146   21.0979 F   0  0  0  0  0  0
  -21.5630   -3.4530   25.7735 F   0  0  0  0  0  0
  -30.0169  -13.4435   20.4251 N   0  0  0  0  0  0
  -26.3004  -12.9380   20.3334 N   0  0  0  0  0  0
  -25.9342  -11.6524   20.5745 N   0  0  0  0  0  0
  -22.0491  -12.8156   22.0381 N   0  0  0  0  0  0
  -25.4253  -15.1913   20.4184 N   0  0  0  0  0  0
  -31.8086  -14.7908   20.1062 O   0  0  0  0  0  0
  -21.6642   -6.8874   21.4235 O   0  0  0  0  0  0
  -22.3552  -14.5528   20.6738 O   0  0  0  0  0  0
  -24.6271  -31.8586   23.2005 C   0  0  0  0  0  0
  -25.9111  -32.4767   23.8337 C   0  0  1  0  0  0
  -27.2373  -27.3167   20.1245 C   0  0  0  0  0  0
  -25.5931  -33.8562   24.2267 N   0  0  0  0  0  0
  -23.4216  -30.4805   21.5444 C   0  0  2  0  0  0
  -24.8702  -28.9314   20.1183 C   0  0  0  0  0  0
  -22.7485  -29.4615   22.4952 C   0  0  0  0  0  0
  -18.0293  -28.1410   22.8496 C   0  0  0  0  0  0
  -24.1478  -36.7253   23.2629 C   0  0  0  0  0  0
  -25.9631  -30.7898   21.3725 C   0  0  0  0  0  0
  -26.0404  -29.4163   20.7168 C   0  0  0  0  0  0
  -27.2259  -28.6224   20.7062 C   0  0  0  0  0  0
  -26.0426  -26.8862   19.5019 C   0  0  0  0  0  0
  -24.8734  -27.6704   19.5026 C   0  0  0  0  0  0
  -23.6368  -29.8093   20.1628 C   0  0  0  0  0  0
  -25.4101  -36.3057   24.0335 C   0  0  1  0  0  0
  -20.5894  -28.3687   23.1317 C   0  0  2  0  0  0
  -20.6778  -26.9419   22.5418 C   0  0  0  0  0  0
  -19.5744  -26.6418   21.5217 C   0  0  0  0  0  0
  -18.1925  -26.7959   22.1632 C   0  0  0  0  0  0
  -19.1548  -28.8866   23.2900 C   0  0  0  0  0  0
  -18.9468  -30.1477   23.8905 C   0  0  0  0  0  0
  -17.6456  -30.6598   24.0575 C   0  0  0  0  0  0
  -25.9065  -34.9440   23.5108 C   0  0  0  0  0  0
  -16.5347  -29.9097   23.6349 C   0  0  0  0  0  0
  -16.7283  -28.6529   23.0358 C   0  0  0  0  0  0
  -26.4492  -31.6590   25.0712 C   0  0  0  0  0  0
  -25.3707  -31.3724   26.1419 C   0  0  0  0  0  0
  -27.0366  -30.3025   24.6167 C   0  0  0  0  0  0
  -27.6028  -32.4342   25.7500 C   0  0  0  0  0  0
  -27.5582  -37.1769   24.8441 C   0  0  0  0  0  0
  -21.4200  -29.3039   22.3695 N   0  0  0  0  0  0
  -26.4257  -37.3774   23.9438 N   0  0  0  0  0  0
  -24.6900  -31.0602   22.0954 N   0  0  0  0  0  0
  -23.4206  -28.8163   23.3032 O   0  0  0  0  0  0
  -28.3661  -26.4785   20.1453 O   0  0  0  0  0  0
  -26.5617  -34.8919   22.4663 O   0  0  0  0  0  0
  -23.5437  -32.1378   23.7345 O   0  0  0  0  0  0
  -29.0402  -19.5027   20.8858 C   0  0  0  0  0  0
  -28.9511  -18.0786   20.9910 C   0  0  0  0  0  0
  -31.2253  -17.8540   20.2728 C   0  0  0  0  0  0
  -30.2315  -20.1537   20.4747 C   0  0  0  0  0  0
  -31.3318  -19.2806   20.1783 C   0  0  0  0  0  0
  -30.0346  -17.2031   20.6897 C   0  0  0  0  0  0
  -29.3851  -24.0710   20.2323 C   0  0  0  0  0  0
  -32.6875  -19.8520   19.7821 C   0  0  0  0  0  0
  -30.4035  -21.7274   20.3853 C   0  0  0  0  0  0
  -28.1475  -25.0336   20.4291 C   0  0  0  0  0  0
  -29.8626  -15.7452   20.8303 N   0  0  0  0  0  0
  -29.2766  -22.7205   20.4840 N   0  0  0  0  0  0
  -30.4548  -24.5520   19.8463 O   0  0  0  0  0  0
  -31.4809  -12.5280   19.1497 H   0  0  0  0  0  0
  -30.3719  -11.4171   19.9040 H   0  0  0  0  0  0
  -29.7779  -11.7671   17.4796 H   0  0  0  0  0  0
  -29.6484  -13.4881   17.7466 H   0  0  0  0  0  0
  -27.8803  -11.2954   18.8770 H   0  0  0  0  0  0
  -27.3763  -12.5720   17.7983 H   0  0  0  0  0  0
  -27.6644  -14.2569   19.5126 H   0  0  0  0  0  0
  -28.7193  -12.0910   21.3988 H   0  0  0  0  0  0
  -28.4455  -13.7559   21.8290 H   0  0  0  0  0  0
  -25.2751   -9.5698   22.4735 H   0  0  0  0  0  0
  -24.0004   -7.4643   22.7464 H   0  0  0  0  0  0
  -21.0852   -8.8753   19.8937 H   0  0  0  0  0  0
  -22.3698  -10.9639   19.6132 H   0  0  0  0  0  0
  -21.2001   -7.6137   23.9705 H   0  0  0  0  0  0
  -21.1482   -6.0519   25.9073 H   0  0  0  0  0  0
  -22.0601   -2.7609   23.2842 H   0  0  0  0  0  0
  -22.4097  -11.9772   22.4701 H   0  0  0  0  0  0
  -21.1096  -13.1147   22.2575 H   0  0  0  0  0  0
  -24.6561  -15.8419   20.5370 H   0  0  0  0  0  0
  -26.2723  -15.6338   20.0846 H   0  0  0  0  0  0
  -26.7168  -32.5423   23.1081 H   0  0  0  0  0  0
  -25.0088  -33.9692   25.0416 H   0  0  0  0  0  0
  -22.7167  -31.3013   21.4006 H   0  0  0  0  0  0
  -23.3783  -35.9542   23.3237 H   0  0  0  0  0  0
  -24.3587  -36.8923   22.2054 H   0  0  0  0  0  0
  -23.7173  -37.6419   23.6676 H   0  0  0  0  0  0
  -26.1000  -31.5554   20.6081 H   0  0  0  0  0  0
  -26.8412  -30.8375   22.0056 H   0  0  0  0  0  0
  -28.1248  -28.9960   21.1776 H   0  0  0  0  0  0
  -25.9860  -25.9326   19.0012 H   0  0  0  0  0  0
  -23.9764  -27.2920   19.0313 H   0  0  0  0  0  0
  -23.7561  -30.5801   19.4004 H   0  0  0  0  0  0
  -22.7587  -29.2338   19.8637 H   0  0  0  0  0  0
  -25.1290  -36.1885   25.0829 H   0  0  0  0  0  0
  -21.0002  -28.3235   24.1431 H   0  0  0  0  0  0
  -20.5727  -26.2275   23.3602 H   0  0  0  0  0  0
  -21.6645  -26.7484   22.1182 H   0  0  0  0  0  0
  -19.6906  -25.6340   21.1231 H   0  0  0  0  0  0
  -19.6695  -27.3252   20.6766 H   0  0  0  0  0  0
  -17.4215  -26.6748   21.4001 H   0  0  0  0  0  0
  -18.0302  -26.0100   22.9035 H   0  0  0  0  0  0
  -19.7924  -30.7303   24.2267 H   0  0  0  0  0  0
  -17.5010  -31.6275   24.5188 H   0  0  0  0  0  0
  -15.5347  -30.2994   23.7685 H   0  0  0  0  0  0
  -15.8690  -28.0858   22.7054 H   0  0  0  0  0  0
  -24.5852  -30.7126   25.7720 H   0  0  0  0  0  0
  -24.8922  -32.2897   26.4865 H   0  0  0  0  0  0
  -25.8000  -30.8850   27.0182 H   0  0  0  0  0  0
  -26.2963  -29.6757   24.1177 H   0  0  0  0  0  0
  -27.4081  -29.7292   25.4673 H   0  0  0  0  0  0
  -27.8828  -30.4353   23.9414 H   0  0  0  0  0  0
  -27.2634  -33.3678   26.2021 H   0  0  0  0  0  0
  -28.3880  -32.6851   25.0351 H   0  0  0  0  0  0
  -28.0657  -31.8495   26.5468 H   0  0  0  0  0  0
  -28.2511  -38.0154   24.7633 H   0  0  0  0  0  0
  -28.1172  -36.2694   24.6095 H   0  0  0  0  0  0
  -27.2335  -37.1215   25.8846 H   0  0  0  0  0  0
  -20.9382  -29.8706   21.6861 H   0  0  0  0  0  0
  -26.0129  -38.2837   24.1499 H   0  0  0  0  0  0
  -28.1747  -20.0981   21.1433 H   0  0  0  0  0  0
  -28.0125  -17.6584   21.3209 H   0  0  0  0  0  0
  -32.0936  -17.2580   20.0318 H   0  0  0  0  0  0
  -33.3622  -19.0712   19.4274 H   0  0  0  0  0  0
  -33.1643  -20.3303   20.6388 H   0  0  0  0  0  0
  -32.6084  -20.5866   18.9814 H   0  0  0  0  0  0
  -30.8981  -21.9384   19.4383 H   0  0  0  0  0  0
  -31.1279  -21.9995   21.1557 H   0  0  0  0  0  0
  -27.8332  -24.9486   21.4703 H   0  0  0  0  0  0
  -27.3494  -24.6085   19.8258 H   0  0  0  0  0  0
  -28.9502  -15.4631   21.1571 H   0  0  0  0  0  0
  -28.3781  -22.3777   20.7974 H   0  0  0  0  0  0
  1 25  1  0  0  0
  1 30  2  0  0  0
  1 81  1  0  0  0
  2  3  1  0  0  0
  2 25  1  0  0  0
  2 84  1  0  0  0
  2 85  1  0  0  0
  3  4  1  0  0  0
  3 86  1  0  0  0
  3 87  1  0  0  0
  4  5  1  0  0  0
  4 88  1  0  0  0
  4 89  1  0  0  0
  5  6  1  0  0  0
  5 26  1  0  0  0
  5 90  1  0  0  0
  6 25  1  0  0  0
  6 91  1  0  0  0
  6 92  1  0  0  0
  7  8  2  0  0  0
  7 26  1  0  0  0
  7 29  1  0  0  0
  8  9  1  0  0  0
  8 22  1  0  0  0
  9 10  1  0  0  0
  9 27  2  0  0  0
 10 11  2  0  0  0
 10 15  1  0  0  0
 11 12  1  0  0  0
 11 93  1  0  0  0
 12 13  2  0  0  0
 12 94  1  0  0  0
 13 14  1  0  0  0
 13 31  1  0  0  0
 14 15  2  0  0  0
 14 95  1  0  0  0
 15 96  1  0  0  0
 16 17  2  0  0  0
 16 21  1  0  0  0
 16 31  1  0  0  0
 17 18  1  0  0  0
 17 97  1  0  0  0
 18 19  2  0  0  0
 18 98  1  0  0  0
 19 20  1  0  0  0
 19 24  1  0  0  0
 20 21  2  0  0  0
 20 99  1  0  0  0
 21 23  1  0  0  0
 22 28  1  0  0  0
 22 32  2  0  0  0
 26 27  1  0  0  0
 28100  1  0  0  0
 28101  1  0  0  0
 29102  1  0  0  0
 29103  1  0  0  0
 33 34  1  0  0  0
 33 66  1  0  0  0
 33 70  2  0  0  0
 34 36  1  0  0  0
 34 59  1  0  0  0
 34104  1  0  0  0
 35 44  2  0  0  0
 35 45  1  0  0  0
 35 68  1  0  0  0
 36 56  1  0  0  0
 36105  1  0  0  0
 37 39  1  0  0  0
 37 47  1  0  0  0
 37 66  1  0  0  0
 37106  1  0  0  0
 38 43  2  0  0  0
 38 46  1  0  0  0
 38 47  1  0  0  0
 39 64  1  0  0  0
 39 67  2  0  0  0
 40 52  1  0  0  0
 40 53  2  0  0  0
 40 58  1  0  0  0
 41107  1  0  0  0
 41108  1  0  0  0
 41109  1  0  0  0
 41 48  1  0  0  0
 42 43  1  0  0  0
 42 66  1  0  0  0
 42110  1  0  0  0
 42111  1  0  0  0
 43 44  1  0  0  0
 44112  1  0  0  0
 45 46  2  0  0  0
 45113  1  0  0  0
 46114  1  0  0  0
 47115  1  0  0  0
 47116  1  0  0  0
 48 56  1  0  0  0
 48 65  1  0  0  0
 48117  1  0  0  0
 49 50  1  0  0  0
 49 53  1  0  0  0
 49 64  1  0  0  0
 49118  1  0  0  0
 50 51  1  0  0  0
 50119  1  0  0  0
 50120  1  0  0  0
 51 52  1  0  0  0
 51121  1  0  0  0
 51122  1  0  0  0
 52123  1  0  0  0
 52124  1  0  0  0
 53 54  1  0  0  0
 54 55  2  0  0  0
 54125  1  0  0  0
 55 57  1  0  0  0
 55126  1  0  0  0
 56 69  2  0  0  0
 57 58  2  0  0  0
 57127  1  0  0  0
 58128  1  0  0  0
 59 60  1  0  0  0
 59 61  1  0  0  0
 59 62  1  0  0  0
 60129  1  0  0  0
 60130  1  0  0  0
 60131  1  0  0  0
 61132  1  0  0  0
 61133  1  0  0  0
 61134  1  0  0  0
 62135  1  0  0  0
 62136  1  0  0  0
 62137  1  0  0  0
 63 65  1  0  0  0
 63138  1  0  0  0
 63139  1  0  0  0
 63140  1  0  0  0
 64141  1  0  0  0
 65142  1  0  0  0
 68 80  1  0  0  0
 71 72  2  0  0  0
 71 74  1  0  0  0
 71143  1  0  0  0
 72 76  1  0  0  0
 72144  1  0  0  0
 73 75  1  0  0  0
 73 76  2  0  0  0
 73145  1  0  0  0
 74 75  2  0  0  0
 74 79  1  0  0  0
 75 78  1  0  0  0
 76 81  1  0  0  0
 77 80  1  0  0  0
 77 82  1  0  0  0
 77 83  2  0  0  0
 78146  1  0  0  0
 78147  1  0  0  0
 78148  1  0  0  0
 79 82  1  0  0  0
 79149  1  0  0  0
 79150  1  0  0  0
 80151  1  0  0  0
 80152  1  0  0  0
 81153  1  0  0  0
 82154  1  0  0  0
M  ISO  4   1 100  68 101  80 101  81 100
M  END
> <chiral flag>
0

> <version>
0

> <s_m_source_file>
/data/baiqing/PycharmProjects/Reinvent-master-3.2/result/LINK_invent/BTK/process_docking_weight1_custom_product_contain_oxygen_bond_distance_aromatic_linkinvent_7_9_3/rearranged_h_0040.sdf

> <i_m_source_file_index>
26

> <r_mmod_Potential_Energy-OPLS-2005>
-0.392907530069351

> <r_mmod_Stretch_Energy-OPLS-2005>
87.6348724365234

> <r_mmod_Bend_Energy-OPLS-2005>
144.139709472656

> <r_mmod_Torsional_Energy-OPLS-2005>
213.247940063477

> <r_mmod_Improper_Torsional_Energy-OPLS-2005>
3.8699848651886

> <r_mmod_Van_der_Waal_Energy-OPLS-2005>
145.981781005859

> <r_mmod_Electrostatic_Energy-OPLS-2005>
-400.476501464844

> <r_mmod_Solvation_Energy-OPLS-2005>
-245.944427490234

> <b_mmod_Minimization_Converged-OPLS-2005>
0

> <r_mmod_RMS_Derivative-OPLS-2005>
2.80290007591248

$$$$
26
                    3D
 Structure written by MMmdl.
174183  0  0  1  0            999 V2000
  -30.7407  -14.4839   20.5667 C   0  0  0  0  0  0
  -30.4105  -12.3192   19.4306 C   0  0  0  0  0  0
  -29.4909  -12.5107   18.2096 C   0  0  0  0  0  0
  -28.0147  -12.3678   18.6232 C   0  0  0  0  0  0
  -27.6573  -13.2195   19.8707 C   0  0  2  0  0  0
  -28.7017  -13.0438   20.9978 C   0  0  0  0  0  0
  -25.2567  -13.8196   20.5693 C   0  0  0  0  0  0
  -24.1832  -13.0446   20.9183 C   0  0  0  0  0  0
  -24.6403  -11.6920   20.8735 C   0  0  0  0  0  0
  -23.9072  -10.4296   21.0395 C   0  0  0  0  0  0
  -24.3620   -9.4214   21.9178 C   0  0  0  0  0  0
  -23.6296   -8.2249   22.0751 C   0  0  0  0  0  0
  -22.4280   -8.0285   21.3541 C   0  0  0  0  0  0
  -21.9917   -9.0256   20.4640 C   0  0  0  0  0  0
  -22.7243  -10.2136   20.3047 C   0  0  0  0  0  0
  -21.6857   -6.0737   22.5277 C   0  0  0  0  0  0
  -21.4015   -6.5637   23.8209 C   0  0  0  0  0  0
  -21.3663   -5.6792   24.9174 C   0  0  0  0  0  0
  -21.6046   -4.3055   24.7224 C   0  0  0  0  0  0
  -21.8819   -3.8146   23.4344 C   0  0  0  0  0  0
  -21.9191   -4.6965   22.3401 C   0  0  0  0  0  0
  -22.7853  -13.5233   21.1848 C   0  0  0  0  0  0
  -22.1661   -4.2148   21.0983 F   0  0  0  0  0  0
  -21.5628   -3.4539   25.7737 F   0  0  0  0  0  0
  -30.0300  -13.3292   20.4335 N   0  0  0  0  0  0
  -26.3010  -12.9389   20.3365 N   0  0  0  0  0  0
  -25.9335  -11.6532   20.5775 N   0  0  0  0  0  0
  -22.0498  -12.8206   22.0399 N   0  0  0  0  0  0
  -25.4261  -15.1920   20.4093 N   0  0  0  0  0  0
  -31.8770  -14.6031   20.1023 O   0  0  0  0  0  0
  -21.6643   -6.8884   21.4244 O   0  0  0  0  0  0
  -22.3537  -14.5543   20.6711 O   0  0  0  0  0  0
  -24.6186  -31.8683   23.2126 C   0  0  0  0  0  0
  -25.9073  -32.4828   23.8420 C   0  0  1  0  0  0
  -27.2114  -27.3963   20.0960 C   0  0  0  0  0  0
  -25.5935  -33.8626   24.2348 N   0  0  0  0  0  0
  -23.4069  -30.4947   21.5570 C   0  0  2  0  0  0
  -24.8495  -28.9757   20.1052 C   0  0  0  0  0  0
  -22.7443  -29.4639   22.5006 C   0  0  0  0  0  0
  -18.0276  -28.1365   22.8495 C   0  0  0  0  0  0
  -24.1491  -36.7304   23.2637 C   0  0  0  0  0  0
  -25.9435  -30.8200   21.3771 C   0  0  0  0  0  0
  -26.0156  -29.4581   20.7135 C   0  0  0  0  0  0
  -27.2006  -28.6757   20.7097 C   0  0  0  0  0  0
  -26.0308  -26.9728   19.4331 C   0  0  0  0  0  0
  -24.8545  -27.7344   19.4577 C   0  0  0  0  0  0
  -23.6126  -29.8419   20.1675 C   0  0  0  0  0  0
  -25.4113  -36.3116   24.0340 C   0  0  1  0  0  0
  -20.5872  -28.3654   23.1317 C   0  0  2  0  0  0
  -20.6763  -26.9392   22.5408 C   0  0  0  0  0  0
  -19.5743  -26.6381   21.5208 C   0  0  0  0  0  0
  -18.1917  -26.7917   22.1613 C   0  0  0  0  0  0
  -19.1527  -28.8832   23.2897 C   0  0  0  0  0  0
  -18.9452  -30.1437   23.8903 C   0  0  0  0  0  0
  -17.6451  -30.6580   24.0555 C   0  0  0  0  0  0
  -25.9044  -34.9482   23.5136 C   0  0  0  0  0  0
  -16.5345  -29.9070   23.6337 C   0  0  0  0  0  0
  -16.7264  -28.6482   23.0367 C   0  0  0  0  0  0
  -26.4483  -31.6612   25.0759 C   0  0  0  0  0  0
  -25.3729  -31.3695   26.1492 C   0  0  0  0  0  0
  -27.0332  -30.3059   24.6147 C   0  0  0  0  0  0
  -27.6062  -32.4339   25.7516 C   0  0  0  0  0  0
  -27.5591  -37.1807   24.8468 C   0  0  0  0  0  0
  -21.4168  -29.3027   22.3745 N   0  0  0  0  0  0
  -26.4305  -37.3797   23.9410 N   0  0  0  0  0  0
  -24.6748  -31.0748   22.1063 N   0  0  0  0  0  0
  -23.4213  -28.8156   23.3029 O   0  0  0  0  0  0
  -28.3218  -26.5589   20.1836 O   0  0  0  0  0  0
  -26.5598  -34.8924   22.4690 O   0  0  0  0  0  0
  -23.5370  -32.1465   23.7489 O   0  0  0  0  0  0
  -32.4841  -18.3872   21.7583 C   0  0  0  0  0  0
  -31.7519  -19.4896   21.2809 C   0  0  0  0  0  0
  -31.9303  -17.0945   21.7154 C   0  0  0  0  0  0
  -30.4377  -19.3177   20.7911 C   0  0  0  0  0  0
  -30.6353  -16.8797   21.1865 C   0  0  0  0  0  0
  -29.8799  -18.0061   20.7599 C   0  0  0  0  0  0
  -28.2813  -22.6419   20.7327 C   0  0  0  0  0  0
  -27.0494  -22.3201   20.2567 C   0  0  0  0  0  0
  -26.4311  -21.0053   20.2040 C   0  0  0  0  0  0
  -25.2756  -20.7851   19.5545 C   0  0  0  0  0  0
  -29.4979  -23.5386   23.4016 C   0  0  0  0  0  0
  -28.6592  -22.2566   23.5890 C   0  0  0  0  0  0
  -28.8858  -24.5218   22.3809 C   0  0  0  0  0  0
  -29.0126  -21.1219   22.6060 C   0  0  0  0  0  0
  -28.8516  -24.0854   20.8925 C   0  0  2  0  0  0
  -24.5865  -19.4410   19.4634 C   0  0  0  0  0  0
  -29.6744  -20.5399   20.2403 C   0  0  0  0  0  0
  -28.0124  -25.1384   20.0984 C   0  0  0  0  0  0
  -30.0949  -15.5519   21.0852 N   0  0  0  0  0  0
  -29.2759  -21.6070   21.2239 N   0  3  1  0  0  0
  -28.6247  -17.8184   20.2848 F   0  0  0  0  0  0
  -31.4566  -12.3934   19.1291 H   0  0  0  0  0  0
  -30.2942  -11.3176   19.8458 H   0  0  0  0  0  0
  -29.7338  -11.7843   17.4335 H   0  0  0  0  0  0
  -29.6575  -13.4960   17.7712 H   0  0  0  0  0  0
  -27.8302  -11.3127   18.8282 H   0  0  0  0  0  0
  -27.3634  -12.6328   17.7905 H   0  0  0  0  0  0
  -27.6882  -14.2619   19.5531 H   0  0  0  0  0  0
  -28.6808  -12.0239   21.3851 H   0  0  0  0  0  0
  -28.4677  -13.6873   21.8464 H   0  0  0  0  0  0
  -25.2767   -9.5686   22.4754 H   0  0  0  0  0  0
  -24.0001   -7.4644   22.7470 H   0  0  0  0  0  0
  -21.0854   -8.8781   19.8943 H   0  0  0  0  0  0
  -22.3711  -10.9675   19.6154 H   0  0  0  0  0  0
  -21.2014   -7.6143   23.9716 H   0  0  0  0  0  0
  -21.1484   -6.0520   25.9079 H   0  0  0  0  0  0
  -22.0597   -2.7606   23.2848 H   0  0  0  0  0  0
  -22.4118  -11.9851   22.4749 H   0  0  0  0  0  0
  -21.1116  -13.1221   22.2607 H   0  0  0  0  0  0
  -24.6539  -15.8420   20.5075 H   0  0  0  0  0  0
  -26.2775  -15.6354   20.0868 H   0  0  0  0  0  0
  -26.7139  -32.5523   23.1178 H   0  0  0  0  0  0
  -25.0121  -33.9789   25.0518 H   0  0  0  0  0  0
  -22.6964  -31.3132   21.4253 H   0  0  0  0  0  0
  -23.3767  -35.9627   23.3307 H   0  0  0  0  0  0
  -24.3578  -36.8904   22.2049 H   0  0  0  0  0  0
  -23.7222  -37.6500   23.6641 H   0  0  0  0  0  0
  -26.0719  -31.5907   20.6158 H   0  0  0  0  0  0
  -26.8256  -30.8607   22.0039 H   0  0  0  0  0  0
  -28.0910  -29.0303   21.2098 H   0  0  0  0  0  0
  -25.9820  -26.0341   18.9006 H   0  0  0  0  0  0
  -23.9644  -27.3657   18.9659 H   0  0  0  0  0  0
  -23.7138  -30.6236   19.4135 H   0  0  0  0  0  0
  -22.7351  -29.2622   19.8737 H   0  0  0  0  0  0
  -25.1279  -36.2001   25.0834 H   0  0  0  0  0  0
  -20.9945  -28.3216   24.1444 H   0  0  0  0  0  0
  -20.5690  -26.2255   23.3588 H   0  0  0  0  0  0
  -21.6630  -26.7450   22.1183 H   0  0  0  0  0  0
  -19.6908  -25.6297   21.1223 H   0  0  0  0  0  0
  -19.6681  -27.3199   20.6745 H   0  0  0  0  0  0
  -17.4191  -26.6699   21.4005 H   0  0  0  0  0  0
  -18.0287  -26.0044   22.8987 H   0  0  0  0  0  0
  -19.7928  -30.7242   24.2289 H   0  0  0  0  0  0
  -17.5008  -31.6265   24.5142 H   0  0  0  0  0  0
  -15.5343  -30.2967   23.7656 H   0  0  0  0  0  0
  -15.8663  -28.0791   22.7102 H   0  0  0  0  0  0
  -24.5936  -30.7011   25.7811 H   0  0  0  0  0  0
  -24.8872  -32.2828   26.4940 H   0  0  0  0  0  0
  -25.8069  -30.8872   27.0261 H   0  0  0  0  0  0
  -26.2893  -29.6811   24.1189 H   0  0  0  0  0  0
  -27.4095  -29.7302   25.4612 H   0  0  0  0  0  0
  -27.8732  -30.4381   23.9321 H   0  0  0  0  0  0
  -27.2702  -33.3650   26.2089 H   0  0  0  0  0  0
  -28.3866  -32.6879   25.0332 H   0  0  0  0  0  0
  -28.0740  -31.8469   26.5429 H   0  0  0  0  0  0
  -28.2603  -38.0114   24.7542 H   0  0  0  0  0  0
  -28.1096  -36.2643   24.6271 H   0  0  0  0  0  0
  -27.2308  -37.1432   25.8872 H   0  0  0  0  0  0
  -20.9347  -29.8765   21.6973 H   0  0  0  0  0  0
  -26.0208  -38.2884   24.1402 H   0  0  0  0  0  0
  -33.4851  -18.5300   22.1440 H   0  0  0  0  0  0
  -32.2105  -20.4695   21.2976 H   0  0  0  0  0  0
  -32.5224  -16.2646   22.0741 H   0  0  0  0  0  0
  -26.4049  -23.1171   19.9227 H   0  0  0  0  0  0
  -26.8841  -20.1652   20.7086 H   0  0  0  0  0  0
  -24.7787  -21.5994   19.0429 H   0  0  0  0  0  0
  -30.5364  -23.3066   23.1612 H   0  0  0  0  0  0
  -29.5383  -24.0527   24.3631 H   0  0  0  0  0  0
  -27.5965  -22.4938   23.5227 H   0  0  0  0  0  0
  -28.8002  -21.8799   24.6028 H   0  0  0  0  0  0
  -29.4276  -25.4671   22.4455 H   0  0  0  0  0  0
  -27.8715  -24.7563   22.7092 H   0  0  0  0  0  0
  -28.2204  -20.3727   22.6037 H   0  0  0  0  0  0
  -29.9011  -20.6224   22.9905 H   0  0  0  0  0  0
  -29.8681  -24.0938   20.4965 H   0  0  0  0  0  0
  -25.1134  -18.6775   20.0377 H   0  0  0  0  0  0
  -24.5388  -19.1145   18.4235 H   0  0  0  0  0  0
  -23.5669  -19.5146   19.8431 H   0  0  0  0  0  0
  -28.8174  -20.1771   19.6808 H   0  0  0  0  0  0
  -30.3030  -21.0156   19.4868 H   0  0  0  0  0  0
  -27.0158  -25.0071   20.5176 H   0  0  0  0  0  0
  -27.9729  -24.8585   19.0447 H   0  0  0  0  0  0
  -29.1073  -15.4445   21.2588 H   0  0  0  0  0  0
  -30.1418  -22.1097   21.3431 H   0  0  0  0  0  0
  1 25  1  0  0  0
  1 30  2  0  0  0
  1 89  1  0  0  0
  2  3  1  0  0  0
  2 25  1  0  0  0
  2 92  1  0  0  0
  2 93  1  0  0  0
  3  4  1  0  0  0
  3 94  1  0  0  0
  3 95  1  0  0  0
  4  5  1  0  0  0
  4 96  1  0  0  0
  4 97  1  0  0  0
  5  6  1  0  0  0
  5 26  1  0  0  0
  5 98  1  0  0  0
  6 25  1  0  0  0
  6 99  1  0  0  0
  6100  1  0  0  0
  7  8  2  0  0  0
  7 26  1  0  0  0
  7 29  1  0  0  0
  8  9  1  0  0  0
  8 22  1  0  0  0
  9 10  1  0  0  0
  9 27  2  0  0  0
 10 11  2  0  0  0
 10 15  1  0  0  0
 11 12  1  0  0  0
 11101  1  0  0  0
 12 13  2  0  0  0
 12102  1  0  0  0
 13 14  1  0  0  0
 13 31  1  0  0  0
 14 15  2  0  0  0
 14103  1  0  0  0
 15104  1  0  0  0
 16 17  2  0  0  0
 16 21  1  0  0  0
 16 31  1  0  0  0
 17 18  1  0  0  0
 17105  1  0  0  0
 18 19  2  0  0  0
 18106  1  0  0  0
 19 20  1  0  0  0
 19 24  1  0  0  0
 20 21  2  0  0  0
 20107  1  0  0  0
 21 23  1  0  0  0
 22 28  1  0  0  0
 22 32  2  0  0  0
 26 27  1  0  0  0
 28108  1  0  0  0
 28109  1  0  0  0
 29110  1  0  0  0
 29111  1  0  0  0
 33 34  1  0  0  0
 33 66  1  0  0  0
 33 70  2  0  0  0
 34 36  1  0  0  0
 34 59  1  0  0  0
 34112  1  0  0  0
 35 44  2  0  0  0
 35 45  1  0  0  0
 35 68  1  0  0  0
 36 56  1  0  0  0
 36113  1  0  0  0
 37 39  1  0  0  0
 37 47  1  0  0  0
 37 66  1  0  0  0
 37114  1  0  0  0
 38 43  2  0  0  0
 38 46  1  0  0  0
 38 47  1  0  0  0
 39 64  1  0  0  0
 39 67  2  0  0  0
 40 52  1  0  0  0
 40 53  2  0  0  0
 40 58  1  0  0  0
 41115  1  0  0  0
 41116  1  0  0  0
 41117  1  0  0  0
 41 48  1  0  0  0
 42 43  1  0  0  0
 42 66  1  0  0  0
 42118  1  0  0  0
 42119  1  0  0  0
 43 44  1  0  0  0
 44120  1  0  0  0
 45 46  2  0  0  0
 45121  1  0  0  0
 46122  1  0  0  0
 47123  1  0  0  0
 47124  1  0  0  0
 48 56  1  0  0  0
 48 65  1  0  0  0
 48125  1  0  0  0
 49 50  1  0  0  0
 49 53  1  0  0  0
 49 64  1  0  0  0
 49126  1  0  0  0
 50 51  1  0  0  0
 50127  1  0  0  0
 50128  1  0  0  0
 51 52  1  0  0  0
 51129  1  0  0  0
 51130  1  0  0  0
 52131  1  0  0  0
 52132  1  0  0  0
 53 54  1  0  0  0
 54 55  2  0  0  0
 54133  1  0  0  0
 55 57  1  0  0  0
 55134  1  0  0  0
 56 69  2  0  0  0
 57 58  2  0  0  0
 57135  1  0  0  0
 58136  1  0  0  0
 59 60  1  0  0  0
 59 61  1  0  0  0
 59 62  1  0  0  0
 60137  1  0  0  0
 60138  1  0  0  0
 60139  1  0  0  0
 61140  1  0  0  0
 61141  1  0  0  0
 61142  1  0  0  0
 62143  1  0  0  0
 62144  1  0  0  0
 62145  1  0  0  0
 63 65  1  0  0  0
 63146  1  0  0  0
 63147  1  0  0  0
 63148  1  0  0  0
 64149  1  0  0  0
 65150  1  0  0  0
 68 88  1  0  0  0
 71 72  2  0  0  0
 71 73  1  0  0  0
 71151  1  0  0  0
 72 74  1  0  0  0
 72152  1  0  0  0
 73 75  2  0  0  0
 73153  1  0  0  0
 74 76  2  0  0  0
 74 87  1  0  0  0
 75 76  1  0  0  0
 75 89  1  0  0  0
 76 91  1  0  0  0
 77 78  2  0  0  0
 77 85  1  0  0  0
 77 90  1  0  0  0
 78 79  1  0  0  0
 78154  1  0  0  0
 79 80  2  0  0  0
 79155  1  0  0  0
 80 86  1  0  0  0
 80156  1  0  0  0
 81 82  1  0  0  0
 81 83  1  0  0  0
 81157  1  0  0  0
 81158  1  0  0  0
 82 84  1  0  0  0
 82159  1  0  0  0
 82160  1  0  0  0
 83 85  1  0  0  0
 83161  1  0  0  0
 83162  1  0  0  0
 84 90  1  0  0  0
 84163  1  0  0  0
 84164  1  0  0  0
 85 88  1  0  0  0
 85165  1  0  0  0
 86166  1  0  0  0
 86167  1  0  0  0
 86168  1  0  0  0
 87169  1  0  0  0
 87170  1  0  0  0
 87 90  1  0  0  0
 88171  1  0  0  0
 88172  1  0  0  0
 89173  1  0  0  0
 90174  1  0  0  0
M  CHG  1  90   1
M  ISO  4   1 100  68 101  88 101  89 100
M  END
> <chiral flag>
0

> <version>
0

> <s_m_source_file>
/data/baiqing/PycharmProjects/Reinvent-master-3.2/result/LINK_invent/BTK/process_docking_weight1_custom_product_contain_oxygen_bond_distance_aromatic_linkinvent_7_9_3/rearranged_h_0040.sdf

> <i_m_source_file_index>
27

> <r_mmod_Potential_Energy-OPLS-2005>
-102.086013793945

> <r_mmod_Stretch_Energy-OPLS-2005>
53.1667900085449

> <r_mmod_Bend_Energy-OPLS-2005>
125.68180847168

> <r_mmod_Torsional_Energy-OPLS-2005>
242.703826904297

> <r_mmod_Improper_Torsional_Energy-OPLS-2005>
3.94183039665222

> <r_mmod_Van_der_Waal_Energy-OPLS-2005>
174.774002075195

> <r_mmod_Electrostatic_Energy-OPLS-2005>
-303.543670654297

> <r_mmod_Solvation_Energy-OPLS-2005>
-423.206329345703

> <b_mmod_Minimization_Converged-OPLS-2005>
0

> <r_mmod_RMS_Derivative-OPLS-2005>
1.3779228925705

$$$$
27
                    3D
 Structure written by MMmdl.
156164  0  0  1  0            999 V2000
  -30.7147  -14.4861   20.6115 C   0  0  0  0  0  0
  -30.4201  -12.3405   19.4206 C   0  0  0  0  0  0
  -29.4906  -12.5103   18.2028 C   0  0  0  0  0  0
  -28.0134  -12.3462   18.6147 C   0  0  0  0  0  0
  -27.6556  -13.1880   19.8672 C   0  0  2  0  0  0
  -28.6965  -12.9721   20.9911 C   0  0  0  0  0  0
  -25.2567  -13.8113   20.5651 C   0  0  0  0  0  0
  -24.1818  -13.0410   20.9194 C   0  0  0  0  0  0
  -24.6348  -11.6872   20.8780 C   0  0  0  0  0  0
  -23.9025  -10.4271   21.0450 C   0  0  0  0  0  0
  -24.3579   -9.4171   21.9212 C   0  0  0  0  0  0
  -23.6254   -8.2203   22.0761 C   0  0  0  0  0  0
  -22.4242   -8.0253   21.3543 C   0  0  0  0  0  0
  -21.9882   -9.0240   20.4657 C   0  0  0  0  0  0
  -22.7211  -10.2121   20.3091 C   0  0  0  0  0  0
  -21.6826   -6.0715   22.5292 C   0  0  0  0  0  0
  -21.3992   -6.5623   23.8227 C   0  0  0  0  0  0
  -21.3669   -5.6777   24.9193 C   0  0  0  0  0  0
  -21.6044   -4.3039   24.7238 C   0  0  0  0  0  0
  -21.8811   -3.8130   23.4362 C   0  0  0  0  0  0
  -21.9174   -4.6945   22.3419 C   0  0  0  0  0  0
  -22.7860  -13.5264   21.1855 C   0  0  0  0  0  0
  -22.1651   -4.2132   21.0995 F   0  0  0  0  0  0
  -21.5635   -3.4518   25.7748 F   0  0  0  0  0  0
  -30.0161  -13.3221   20.4486 N   0  0  0  0  0  0
  -26.2968  -12.9234   20.3314 N   0  0  0  0  0  0
  -25.9257  -11.6425   20.5775 N   0  0  0  0  0  0
  -22.0432  -12.8314   22.0407 N   0  0  0  0  0  0
  -25.4294  -15.1826   20.4008 N   0  0  0  0  0  0
  -31.8129  -14.6565   20.0801 O   0  0  0  0  0  0
  -21.6602   -6.8853   21.4248 O   0  0  0  0  0  0
  -22.3605  -14.5585   20.6687 O   0  0  0  0  0  0
  -24.6159  -31.8674   23.2074 C   0  0  0  0  0  0
  -25.9062  -32.4811   23.8371 C   0  0  1  0  0  0
  -27.2231  -27.4070   20.1150 C   0  0  0  0  0  0
  -25.5932  -33.8609   24.2303 N   0  0  0  0  0  0
  -23.4039  -30.4895   21.5484 C   0  0  2  0  0  0
  -24.8493  -28.9476   20.1177 C   0  0  0  0  0  0
  -22.7413  -29.4652   22.4983 C   0  0  0  0  0  0
  -18.0283  -28.1358   22.8483 C   0  0  0  0  0  0
  -24.1485  -36.7307   23.2632 C   0  0  0  0  0  0
  -25.9322  -30.8248   21.3634 C   0  0  0  0  0  0
  -26.0094  -29.4553   20.7165 C   0  0  0  0  0  0
  -27.2020  -28.6928   20.7084 C   0  0  0  0  0  0
  -26.0508  -26.9231   19.5014 C   0  0  0  0  0  0
  -24.8655  -27.6820   19.5061 C   0  0  0  0  0  0
  -23.6136  -29.8190   20.1630 C   0  0  0  0  0  0
  -25.4110  -36.3103   24.0324 C   0  0  1  0  0  0
  -20.5869  -28.3649   23.1320 C   0  0  2  0  0  0
  -20.6772  -26.9377   22.5405 C   0  0  0  0  0  0
  -19.5748  -26.6341   21.5210 C   0  0  0  0  0  0
  -18.1923  -26.7904   22.1608 C   0  0  0  0  0  0
  -19.1523  -28.8823   23.2908 C   0  0  0  0  0  0
  -18.9448  -30.1433   23.8906 C   0  0  0  0  0  0
  -17.6438  -30.6559   24.0568 C   0  0  0  0  0  0
  -25.9047  -34.9469   23.5109 C   0  0  0  0  0  0
  -16.5340  -29.9055   23.6302 C   0  0  0  0  0  0
  -16.7271  -28.6481   23.0316 C   0  0  0  0  0  0
  -26.4472  -31.6597   25.0704 C   0  0  0  0  0  0
  -25.3746  -31.3725   26.1465 C   0  0  0  0  0  0
  -27.0281  -30.3037   24.6075 C   0  0  0  0  0  0
  -27.6033  -32.4319   25.7476 C   0  0  0  0  0  0
  -27.5580  -37.1809   24.8464 C   0  0  0  0  0  0
  -21.4139  -29.3047   22.3746 N   0  0  0  0  0  0
  -26.4294  -37.3791   23.9402 N   0  0  0  0  0  0
  -24.6685  -31.0753   22.0983 N   0  0  0  0  0  0
  -23.4184  -28.8195   23.3018 O   0  0  0  0  0  0
  -28.3808  -26.6562   20.0917 O   0  0  0  0  0  0
  -26.5588  -34.8926   22.4658 O   0  0  0  0  0  0
  -23.5363  -32.1440   23.7483 O   0  0  0  0  0  0
  -29.5899  -18.1533   20.2847 C   0  0  0  0  0  0
  -27.5759  -19.6917   21.4846 C   0  0  0  0  0  0
  -28.8014  -17.5605   21.2970 C   0  0  0  0  0  0
  -28.3352  -20.2712   20.4429 C   0  0  0  0  0  0
  -27.7987  -18.3610   21.9082 C   0  0  0  0  0  0
  -29.3693  -19.4881   19.8643 C   0  0  0  0  0  0
  -28.9568  -16.0712   21.6712 C   0  0  0  0  0  0
  -27.9271  -21.6514   19.8822 C   0  0  0  0  0  0
  -27.9260  -24.1513   20.0578 C   0  0  0  0  0  0
  -28.3797  -25.4193   20.8439 C   0  0  0  0  0  0
  -30.2786  -15.4564   21.4450 N   0  0  0  0  0  0
  -28.3822  -22.8480   20.6470 N   0  3  0  0  0  0
  -26.7929  -17.7241   23.1607 Cl  0  0  0  0  0  0
  -30.3640  -20.1179   18.5997 Cl  0  0  0  0  0  0
  -31.4601  -12.4533   19.1100 H   0  0  0  0  0  0
  -30.3467  -11.3283   19.8181 H   0  0  0  0  0  0
  -29.7441  -11.7819   17.4322 H   0  0  0  0  0  0
  -29.6444  -13.4953   17.7593 H   0  0  0  0  0  0
  -27.8374  -11.2885   18.8124 H   0  0  0  0  0  0
  -27.3585  -12.6104   17.7826 H   0  0  0  0  0  0
  -27.6948  -14.2256   19.5393 H   0  0  0  0  0  0
  -28.6920  -11.9246   21.2987 H   0  0  0  0  0  0
  -28.4510  -13.5221   21.8959 H   0  0  0  0  0  0
  -25.2725   -9.5626   22.4784 H   0  0  0  0  0  0
  -23.9935   -7.4584   22.7484 H   0  0  0  0  0  0
  -21.0806   -8.8798   19.8966 H   0  0  0  0  0  0
  -22.3699  -10.9668   19.6208 H   0  0  0  0  0  0
  -21.1978   -7.6128   23.9733 H   0  0  0  0  0  0
  -21.1513   -6.0503   25.9098 H   0  0  0  0  0  0
  -22.0578   -2.7582   23.2879 H   0  0  0  0  0  0
  -22.3955  -11.9972   22.4882 H   0  0  0  0  0  0
  -21.1076  -13.1457   22.2575 H   0  0  0  0  0  0
  -24.6576  -15.8309   20.5018 H   0  0  0  0  0  0
  -26.2654  -15.6162   20.0337 H   0  0  0  0  0  0
  -26.7124  -32.5490   23.1123 H   0  0  0  0  0  0
  -25.0131  -33.9772   25.0490 H   0  0  0  0  0  0
  -22.6954  -31.3086   21.4064 H   0  0  0  0  0  0
  -23.3738  -35.9644   23.3304 H   0  0  0  0  0  0
  -24.3596  -36.8915   22.2044 H   0  0  0  0  0  0
  -23.7239  -37.6518   23.6642 H   0  0  0  0  0  0
  -26.0466  -31.5871   20.5914 H   0  0  0  0  0  0
  -26.8201  -30.8807   21.9803 H   0  0  0  0  0  0
  -28.1003  -29.0790   21.1694 H   0  0  0  0  0  0
  -26.0484  -25.9675   19.0004 H   0  0  0  0  0  0
  -23.9764  -27.2874   19.0335 H   0  0  0  0  0  0
  -23.7296  -30.5909   19.4017 H   0  0  0  0  0  0
  -22.7359  -29.2414   19.8664 H   0  0  0  0  0  0
  -25.1289  -36.1961   25.0815 H   0  0  0  0  0  0
  -20.9978  -28.3205   24.1437 H   0  0  0  0  0  0
  -20.5705  -26.2252   23.3593 H   0  0  0  0  0  0
  -21.6640  -26.7417   22.1184 H   0  0  0  0  0  0
  -19.6913  -25.6246   21.1266 H   0  0  0  0  0  0
  -19.6686  -27.3104   20.6703 H   0  0  0  0  0  0
  -17.4207  -26.6678   21.3989 H   0  0  0  0  0  0
  -18.0299  -26.0018   22.8979 H   0  0  0  0  0  0
  -19.7929  -30.7239   24.2276 H   0  0  0  0  0  0
  -17.4988  -31.6226   24.5185 H   0  0  0  0  0  0
  -15.5341  -30.2947   23.7611 H   0  0  0  0  0  0
  -15.8679  -28.0810   22.6986 H   0  0  0  0  0  0
  -24.5916  -30.7071   25.7833 H   0  0  0  0  0  0
  -24.8954  -32.2893   26.4909 H   0  0  0  0  0  0
  -25.8135  -30.8919   27.0221 H   0  0  0  0  0  0
  -26.2822  -29.6825   24.1112 H   0  0  0  0  0  0
  -27.4032  -29.7252   25.4524 H   0  0  0  0  0  0
  -27.8662  -30.4351   23.9227 H   0  0  0  0  0  0
  -27.2638  -33.3602   26.2082 H   0  0  0  0  0  0
  -28.3838  -32.6914   25.0316 H   0  0  0  0  0  0
  -28.0692  -31.8425   26.5384 H   0  0  0  0  0  0
  -28.2598  -38.0105   24.7508 H   0  0  0  0  0  0
  -28.1076  -36.2635   24.6289 H   0  0  0  0  0  0
  -27.2304  -37.1456   25.8872 H   0  0  0  0  0  0
  -20.9291  -29.8824   21.7017 H   0  0  0  0  0  0
  -26.0173  -38.2864   24.1424 H   0  0  0  0  0  0
  -30.3567  -17.5743   19.7905 H   0  0  0  0  0  0
  -26.7744  -20.2567   21.9410 H   0  0  0  0  0  0
  -28.1659  -15.5593   21.1383 H   0  0  0  0  0  0
  -28.7424  -15.9370   22.7307 H   0  0  0  0  0  0
  -26.8367  -21.6742   19.8245 H   0  0  0  0  0  0
  -28.2589  -21.7438   18.8476 H   0  0  0  0  0  0
  -28.2983  -24.2124   19.0349 H   0  0  0  0  0  0
  -26.8382  -24.1379   19.9953 H   0  0  0  0  0  0
  -29.4097  -25.2755   21.1721 H   0  0  0  0  0  0
  -27.7928  -25.5285   21.7570 H   0  0  0  0  0  0
  -31.0287  -16.0949   21.6601 H   0  0  0  0  0  0
  -29.3900  -22.8337   20.6896 H   0  0  0  0  0  0
  -28.0386  -22.7675   21.5919 H   0  0  0  0  0  0
  1 25  1  0  0  0
  1 30  2  0  0  0
  1 81  1  0  0  0
  2  3  1  0  0  0
  2 25  1  0  0  0
  2 85  1  0  0  0
  2 86  1  0  0  0
  3  4  1  0  0  0
  3 87  1  0  0  0
  3 88  1  0  0  0
  4  5  1  0  0  0
  4 89  1  0  0  0
  4 90  1  0  0  0
  5  6  1  0  0  0
  5 26  1  0  0  0
  5 91  1  0  0  0
  6 25  1  0  0  0
  6 92  1  0  0  0
  6 93  1  0  0  0
  7  8  2  0  0  0
  7 26  1  0  0  0
  7 29  1  0  0  0
  8  9  1  0  0  0
  8 22  1  0  0  0
  9 10  1  0  0  0
  9 27  2  0  0  0
 10 11  2  0  0  0
 10 15  1  0  0  0
 11 12  1  0  0  0
 11 94  1  0  0  0
 12 13  2  0  0  0
 12 95  1  0  0  0
 13 14  1  0  0  0
 13 31  1  0  0  0
 14 15  2  0  0  0
 14 96  1  0  0  0
 15 97  1  0  0  0
 16 17  2  0  0  0
 16 21  1  0  0  0
 16 31  1  0  0  0
 17 18  1  0  0  0
 17 98  1  0  0  0
 18 19  2  0  0  0
 18 99  1  0  0  0
 19 20  1  0  0  0
 19 24  1  0  0  0
 20 21  2  0  0  0
 20100  1  0  0  0
 21 23  1  0  0  0
 22 28  1  0  0  0
 22 32  2  0  0  0
 26 27  1  0  0  0
 28101  1  0  0  0
 28102  1  0  0  0
 29103  1  0  0  0
 29104  1  0  0  0
 33 34  1  0  0  0
 33 66  1  0  0  0
 33 70  2  0  0  0
 34 36  1  0  0  0
 34 59  1  0  0  0
 34105  1  0  0  0
 35 44  2  0  0  0
 35 45  1  0  0  0
 35 68  1  0  0  0
 36 56  1  0  0  0
 36106  1  0  0  0
 37 39  1  0  0  0
 37 47  1  0  0  0
 37 66  1  0  0  0
 37107  1  0  0  0
 38 43  2  0  0  0
 38 46  1  0  0  0
 38 47  1  0  0  0
 39 64  1  0  0  0
 39 67  2  0  0  0
 40 52  1  0  0  0
 40 53  2  0  0  0
 40 58  1  0  0  0
 41108  1  0  0  0
 41109  1  0  0  0
 41110  1  0  0  0
 41 48  1  0  0  0
 42 43  1  0  0  0
 42 66  1  0  0  0
 42111  1  0  0  0
 42112  1  0  0  0
 43 44  1  0  0  0
 44113  1  0  0  0
 45 46  2  0  0  0
 45114  1  0  0  0
 46115  1  0  0  0
 47116  1  0  0  0
 47117  1  0  0  0
 48 56  1  0  0  0
 48 65  1  0  0  0
 48118  1  0  0  0
 49 50  1  0  0  0
 49 53  1  0  0  0
 49 64  1  0  0  0
 49119  1  0  0  0
 50 51  1  0  0  0
 50120  1  0  0  0
 50121  1  0  0  0
 51 52  1  0  0  0
 51122  1  0  0  0
 51123  1  0  0  0
 52124  1  0  0  0
 52125  1  0  0  0
 53 54  1  0  0  0
 54 55  2  0  0  0
 54126  1  0  0  0
 55 57  1  0  0  0
 55127  1  0  0  0
 56 69  2  0  0  0
 57 58  2  0  0  0
 57128  1  0  0  0
 58129  1  0  0  0
 59 60  1  0  0  0
 59 61  1  0  0  0
 59 62  1  0  0  0
 60130  1  0  0  0
 60131  1  0  0  0
 60132  1  0  0  0
 61133  1  0  0  0
 61134  1  0  0  0
 61135  1  0  0  0
 62136  1  0  0  0
 62137  1  0  0  0
 62138  1  0  0  0
 63 65  1  0  0  0
 63139  1  0  0  0
 63140  1  0  0  0
 63141  1  0  0  0
 64142  1  0  0  0
 65143  1  0  0  0
 68 80  1  0  0  0
 71 73  2  0  0  0
 71 76  1  0  0  0
 71144  1  0  0  0
 72 74  1  0  0  0
 72 75  2  0  0  0
 72145  1  0  0  0
 73 75  1  0  0  0
 73 77  1  0  0  0
 74 76  2  0  0  0
 74 78  1  0  0  0
 75 83  1  0  0  0
 76 84  1  0  0  0
 77 81  1  0  0  0
 77146  1  0  0  0
 77147  1  0  0  0
 78 82  1  0  0  0
 78148  1  0  0  0
 78149  1  0  0  0
 79 80  1  0  0  0
 79 82  1  0  0  0
 79150  1  0  0  0
 79151  1  0  0  0
 80152  1  0  0  0
 80153  1  0  0  0
 81154  1  0  0  0
 82155  1  0  0  0
 82156  1  0  0  0
M  CHG  1  82   1
M  ISO  4   1 100  68 101  80 101  81 100
M  END
> <chiral flag>
0

> <version>
0

> <s_m_source_file>
/data/baiqing/PycharmProjects/Reinvent-master-3.2/result/LINK_invent/BTK/process_docking_weight1_custom_product_contain_oxygen_bond_distance_aromatic_linkinvent_7_9_3/rearranged_h_0040.sdf

> <i_m_source_file_index>
28

> <r_mmod_Potential_Energy-OPLS-2005>
-220.431732177734

> <r_mmod_Stretch_Energy-OPLS-2005>
43.6197319030762

> <r_mmod_Bend_Energy-OPLS-2005>
126.763580322266

> <r_mmod_Torsional_Energy-OPLS-2005>
249.385482788086

> <r_mmod_Improper_Torsional_Energy-OPLS-2005>
4.98998880386353

> <r_mmod_Van_der_Waal_Energy-OPLS-2005>
141.418334960938

> <r_mmod_Electrostatic_Energy-OPLS-2005>
-333.249328613281

> <r_mmod_Solvation_Energy-OPLS-2005>
-467.997222900391

> <b_mmod_Minimization_Converged-OPLS-2005>
0

> <r_mmod_RMS_Derivative-OPLS-2005>
2.94629812240601

$$$$
28
                    3D
 Structure written by MMmdl.
167176  0  0  1  0            999 V2000
  -30.6020  -14.6257   20.4080 C   0  0  0  0  0  0
  -30.4507  -12.3321   19.4755 C   0  0  0  0  0  0
  -29.5118  -12.3425   18.2462 C   0  0  0  0  0  0
  -28.0175  -12.3056   18.6401 C   0  0  0  0  0  0
  -27.6509  -13.1949   19.8639 C   0  0  2  0  0  0
  -28.7074  -13.0580   20.9852 C   0  0  0  0  0  0
  -25.2595  -13.8122   20.5754 C   0  0  0  0  0  0
  -24.1827  -13.0382   20.9256 C   0  0  0  0  0  0
  -24.6375  -11.6877   20.8822 C   0  0  0  0  0  0
  -23.9043  -10.4265   21.0450 C   0  0  0  0  0  0
  -24.3603   -9.4170   21.9209 C   0  0  0  0  0  0
  -23.6273   -8.2200   22.0739 C   0  0  0  0  0  0
  -22.4265   -8.0264   21.3534 C   0  0  0  0  0  0
  -21.9913   -9.0229   20.4652 C   0  0  0  0  0  0
  -22.7228  -10.2118   20.3069 C   0  0  0  0  0  0
  -21.6850   -6.0731   22.5285 C   0  0  0  0  0  0
  -21.4005   -6.5635   23.8225 C   0  0  0  0  0  0
  -21.3653   -5.6794   24.9188 C   0  0  0  0  0  0
  -21.6063   -4.3061   24.7249 C   0  0  0  0  0  0
  -21.8815   -3.8144   23.4372 C   0  0  0  0  0  0
  -21.9184   -4.6948   22.3426 C   0  0  0  0  0  0
  -22.7847  -13.5203   21.1881 C   0  0  0  0  0  0
  -22.1665   -4.2133   21.0992 F   0  0  0  0  0  0
  -21.5621   -3.4544   25.7760 F   0  0  0  0  0  0
  -30.0151  -13.3917   20.4006 N   0  0  0  0  0  0
  -26.2994  -12.9251   20.3420 N   0  0  0  0  0  0
  -25.9301  -11.6446   20.5941 N   0  0  0  0  0  0
  -22.0482  -12.8174   22.0458 N   0  0  0  0  0  0
  -25.4255  -15.1829   20.4152 N   0  0  0  0  0  0
  -31.7942  -14.7863   20.1267 O   0  0  0  0  0  0
  -21.6628   -6.8864   21.4252 O   0  0  0  0  0  0
  -22.3541  -14.5486   20.6741 O   0  0  0  0  0  0
  -24.6262  -31.8676   23.2065 C   0  0  0  0  0  0
  -25.9128  -32.4846   23.8396 C   0  0  1  0  0  0
  -27.1932  -27.3530   20.0851 C   0  0  0  0  0  0
  -25.5930  -33.8622   24.2325 N   0  0  0  0  0  0
  -23.4123  -30.4969   21.5542 C   0  0  2  0  0  0
  -24.8371  -28.9481   20.1171 C   0  0  0  0  0  0
  -22.7409  -29.4744   22.5007 C   0  0  0  0  0  0
  -18.0280  -28.1428   22.8427 C   0  0  0  0  0  0
  -24.1470  -36.7292   23.2626 C   0  0  0  0  0  0
  -25.9494  -30.8008   21.3666 C   0  0  0  0  0  0
  -26.0072  -29.4302   20.7128 C   0  0  0  0  0  0
  -27.1872  -28.6396   20.6926 C   0  0  0  0  0  0
  -25.9841  -26.9000   19.5041 C   0  0  0  0  0  0
  -24.8167  -27.6819   19.5163 C   0  0  0  0  0  0
  -23.6123  -29.8292   20.1712 C   0  0  0  0  0  0
  -25.4102  -36.3124   24.0323 C   0  0  1  0  0  0
  -20.5864  -28.3790   23.1202 C   0  0  2  0  0  0
  -20.6805  -26.9527   22.5362 C   0  0  0  0  0  0
  -19.5819  -26.6418   21.5162 C   0  0  0  0  0  0
  -18.1987  -26.7967   22.1561 C   0  0  0  0  0  0
  -19.1530  -28.8916   23.2817 C   0  0  0  0  0  0
  -18.9461  -30.1497   23.8877 C   0  0  0  0  0  0
  -17.6471  -30.6631   24.0565 C   0  0  0  0  0  0
  -25.9051  -34.9490   23.5134 C   0  0  0  0  0  0
  -16.5362  -29.9123   23.6329 C   0  0  0  0  0  0
  -16.7272  -28.6541   23.0335 C   0  0  0  0  0  0
  -26.4502  -31.6620   25.0739 C   0  0  0  0  0  0
  -25.3708  -31.3713   26.1445 C   0  0  0  0  0  0
  -27.0324  -30.3043   24.6165 C   0  0  0  0  0  0
  -27.6106  -32.4319   25.7480 C   0  0  0  0  0  0
  -27.5589  -37.1798   24.8478 C   0  0  0  0  0  0
  -21.4146  -29.3139   22.3626 N   0  0  0  0  0  0
  -26.4314  -37.3800   23.9410 N   0  0  0  0  0  0
  -24.6840  -31.0707   22.1007 N   0  0  0  0  0  0
  -23.4099  -28.8262   23.3116 O   0  0  0  0  0  0
  -28.3510  -26.5717   20.1138 O   0  0  0  0  0  0
  -26.5617  -34.8954   22.4705 O   0  0  0  0  0  0
  -23.5438  -32.1474   23.7427 O   0  0  0  0  0  0
  -28.9635  -18.2016   17.8562 C   0  0  0  0  0  0
  -29.6459  -18.2066   20.5568 C   0  0  0  0  0  0
  -28.9568  -19.4227   18.5495 C   0  0  0  0  0  0
  -29.3382  -16.9959   18.4709 C   0  0  0  0  0  0
  -29.3462  -19.4617   19.9132 C   0  0  0  0  0  0
  -29.6460  -16.9531   19.8570 C   0  0  0  0  0  0
  -27.9438  -22.9712   20.3470 C   0  0  0  0  0  0
  -28.7775  -24.0281   20.1251 C   0  0  0  0  0  0
  -26.4345  -22.9497   20.1404 C   0  0  0  0  0  0
  -25.9053  -21.8793   21.0989 C   0  0  0  0  0  0
  -27.0331  -20.8557   21.1172 C   0  0  0  0  0  0
  -28.5208  -20.6528   17.7650 C   0  0  0  0  0  0
  -29.3741  -15.7682   17.5937 C   0  0  0  0  0  0
  -29.5036  -20.8434   20.6304 C   0  0  0  0  0  0
  -28.4400  -25.3256   19.3537 C   0  0  0  0  0  0
  -29.7387  -15.6745   20.5608 N   0  0  0  0  0  0
  -28.2825  -21.6407   21.0271 N   0  3  2  0  0  0
  -31.4884  -12.4580   19.1619 H   0  0  0  0  0  0
  -30.4191  -11.3622   19.9744 H   0  0  0  0  0  0
  -29.7278  -11.4735   17.6231 H   0  0  0  0  0  0
  -29.7259  -13.1903   17.6115 H   0  0  0  0  0  0
  -27.7837  -11.2670   18.8765 H   0  0  0  0  0  0
  -27.3937  -12.5557   17.7805 H   0  0  0  0  0  0
  -27.6508  -14.2252   19.5224 H   0  0  0  0  0  0
  -28.7299  -12.0361   21.3659 H   0  0  0  0  0  0
  -28.4812  -13.6984   21.8393 H   0  0  0  0  0  0
  -25.2740   -9.5624   22.4810 H   0  0  0  0  0  0
  -23.9988   -7.4570   22.7424 H   0  0  0  0  0  0
  -21.0860   -8.8743   19.8950 H   0  0  0  0  0  0
  -22.3689  -10.9657   19.6191 H   0  0  0  0  0  0
  -21.1996   -7.6143   23.9730 H   0  0  0  0  0  0
  -21.1494   -6.0524   25.9093 H   0  0  0  0  0  0
  -22.0609   -2.7606   23.2874 H   0  0  0  0  0  0
  -22.4109  -11.9831   22.4829 H   0  0  0  0  0  0
  -21.1103  -13.1214   22.2634 H   0  0  0  0  0  0
  -24.6495  -15.8238   20.5313 H   0  0  0  0  0  0
  -26.2637  -15.6412   20.0772 H   0  0  0  0  0  0
  -26.7195  -32.5504   23.1150 H   0  0  0  0  0  0
  -25.0091  -33.9781   25.0479 H   0  0  0  0  0  0
  -22.7131  -31.3223   21.4119 H   0  0  0  0  0  0
  -23.3772  -35.9596   23.3321 H   0  0  0  0  0  0
  -24.3586  -36.8896   22.2052 H   0  0  0  0  0  0
  -23.7183  -37.6475   23.6630 H   0  0  0  0  0  0
  -26.0812  -31.5567   20.5920 H   0  0  0  0  0  0
  -26.8383  -30.8484   21.9862 H   0  0  0  0  0  0
  -28.0920  -29.0042   21.1583 H   0  0  0  0  0  0
  -25.8778  -25.9272   19.0584 H   0  0  0  0  0  0
  -23.9050  -27.2920   19.0749 H   0  0  0  0  0  0
  -23.7164  -30.5978   19.4042 H   0  0  0  0  0  0
  -22.7333  -29.2457   19.8920 H   0  0  0  0  0  0
  -25.1286  -36.2012   25.0813 H   0  0  0  0  0  0
  -20.9948  -28.3440   24.1332 H   0  0  0  0  0  0
  -20.5669  -26.2484   23.3624 H   0  0  0  0  0  0
  -21.6694  -26.7584   22.1206 H   0  0  0  0  0  0
  -19.7035  -25.6298   21.1318 H   0  0  0  0  0  0
  -19.6771  -27.3124   20.6601 H   0  0  0  0  0  0
  -17.4254  -26.6602   21.3997 H   0  0  0  0  0  0
  -18.0506  -26.0121   22.8987 H   0  0  0  0  0  0
  -19.7948  -30.7284   24.2239 H   0  0  0  0  0  0
  -17.5054  -31.6310   24.5190 H   0  0  0  0  0  0
  -15.5370  -30.3059   23.7679 H   0  0  0  0  0  0
  -15.8637  -28.0883   22.7083 H   0  0  0  0  0  0
  -24.5939  -30.7031   25.7726 H   0  0  0  0  0  0
  -24.8818  -32.2844   26.4836 H   0  0  0  0  0  0
  -25.8008  -30.8901   27.0236 H   0  0  0  0  0  0
  -26.2884  -29.6832   24.1178 H   0  0  0  0  0  0
  -27.4009  -29.7287   25.4669 H   0  0  0  0  0  0
  -27.8764  -30.4358   23.9396 H   0  0  0  0  0  0
  -27.2796  -33.3657   26.2033 H   0  0  0  0  0  0
  -28.3899  -32.6824   25.0261 H   0  0  0  0  0  0
  -28.0790  -31.8441   26.5390 H   0  0  0  0  0  0
  -28.2629  -38.0076   24.7555 H   0  0  0  0  0  0
  -28.1070  -36.2631   24.6290 H   0  0  0  0  0  0
  -27.2319  -37.1426   25.8880 H   0  0  0  0  0  0
  -20.9369  -29.8837   21.6777 H   0  0  0  0  0  0
  -26.0225  -38.2887   24.1390 H   0  0  0  0  0  0
  -28.6682  -18.1931   16.8163 H   0  0  0  0  0  0
  -29.8826  -18.2041   21.6123 H   0  0  0  0  0  0
  -29.8181  -23.9464   20.4159 H   0  0  0  0  0  0
  -26.2174  -22.6804   19.1072 H   0  0  0  0  0  0
  -25.9670  -23.9180   20.3252 H   0  0  0  0  0  0
  -24.9471  -21.4558   20.7962 H   0  0  0  0  0  0
  -25.7608  -22.2995   22.0962 H   0  0  0  0  0  0
  -26.8921  -20.2350   20.2308 H   0  0  0  0  0  0
  -27.0244  -20.2143   22.0002 H   0  0  0  0  0  0
  -28.7900  -20.5303   16.7175 H   0  0  0  0  0  0
  -28.9864  -21.5798   18.0870 H   0  0  0  0  0  0
  -27.4381  -20.7768   17.7941 H   0  0  0  0  0  0
  -28.5368  -15.1228   17.8306 H   0  0  0  0  0  0
  -30.3201  -15.2503   17.7352 H   0  0  0  0  0  0
  -29.2969  -16.0008   16.5331 H   0  0  0  0  0  0
  -30.0859  -20.6709   21.5369 H   0  0  0  0  0  0
  -30.1434  -21.4807   20.0196 H   0  0  0  0  0  0
  -27.6336  -25.1322   18.6537 H   0  0  0  0  0  0
  -29.2898  -25.4727   18.6925 H   0  0  0  0  0  0
  -28.8392  -15.3316   20.8593 H   0  0  0  0  0  0
  -28.4928  -21.8729   21.9886 H   0  0  0  0  0  0
  1 25  1  0  0  0
  1 30  2  0  0  0
  1 86  1  0  0  0
  2  3  1  0  0  0
  2 25  1  0  0  0
  2 88  1  0  0  0
  2 89  1  0  0  0
  3  4  1  0  0  0
  3 90  1  0  0  0
  3 91  1  0  0  0
  4  5  1  0  0  0
  4 92  1  0  0  0
  4 93  1  0  0  0
  5  6  1  0  0  0
  5 26  1  0  0  0
  5 94  1  0  0  0
  6 25  1  0  0  0
  6 95  1  0  0  0
  6 96  1  0  0  0
  7  8  2  0  0  0
  7 26  1  0  0  0
  7 29  1  0  0  0
  8  9  1  0  0  0
  8 22  1  0  0  0
  9 10  1  0  0  0
  9 27  2  0  0  0
 10 11  2  0  0  0
 10 15  1  0  0  0
 11 12  1  0  0  0
 11 97  1  0  0  0
 12 13  2  0  0  0
 12 98  1  0  0  0
 13 14  1  0  0  0
 13 31  1  0  0  0
 14 15  2  0  0  0
 14 99  1  0  0  0
 15100  1  0  0  0
 16 17  2  0  0  0
 16 21  1  0  0  0
 16 31  1  0  0  0
 17 18  1  0  0  0
 17101  1  0  0  0
 18 19  2  0  0  0
 18102  1  0  0  0
 19 20  1  0  0  0
 19 24  1  0  0  0
 20 21  2  0  0  0
 20103  1  0  0  0
 21 23  1  0  0  0
 22 28  1  0  0  0
 22 32  2  0  0  0
 26 27  1  0  0  0
 28104  1  0  0  0
 28105  1  0  0  0
 29106  1  0  0  0
 29107  1  0  0  0
 33 34  1  0  0  0
 33 66  1  0  0  0
 33 70  2  0  0  0
 34 36  1  0  0  0
 34 59  1  0  0  0
 34108  1  0  0  0
 35 44  2  0  0  0
 35 45  1  0  0  0
 35 68  1  0  0  0
 36 56  1  0  0  0
 36109  1  0  0  0
 37 39  1  0  0  0
 37 47  1  0  0  0
 37 66  1  0  0  0
 37110  1  0  0  0
 38 43  2  0  0  0
 38 46  1  0  0  0
 38 47  1  0  0  0
 39 64  1  0  0  0
 39 67  2  0  0  0
 40 52  1  0  0  0
 40 53  2  0  0  0
 40 58  1  0  0  0
 41111  1  0  0  0
 41112  1  0  0  0
 41113  1  0  0  0
 41 48  1  0  0  0
 42 43  1  0  0  0
 42 66  1  0  0  0
 42114  1  0  0  0
 42115  1  0  0  0
 43 44  1  0  0  0
 44116  1  0  0  0
 45 46  2  0  0  0
 45117  1  0  0  0
 46118  1  0  0  0
 47119  1  0  0  0
 47120  1  0  0  0
 48 56  1  0  0  0
 48 65  1  0  0  0
 48121  1  0  0  0
 49 50  1  0  0  0
 49 53  1  0  0  0
 49 64  1  0  0  0
 49122  1  0  0  0
 50 51  1  0  0  0
 50123  1  0  0  0
 50124  1  0  0  0
 51 52  1  0  0  0
 51125  1  0  0  0
 51126  1  0  0  0
 52127  1  0  0  0
 52128  1  0  0  0
 53 54  1  0  0  0
 54 55  2  0  0  0
 54129  1  0  0  0
 55 57  1  0  0  0
 55130  1  0  0  0
 56 69  2  0  0  0
 57 58  2  0  0  0
 57131  1  0  0  0
 58132  1  0  0  0
 59 60  1  0  0  0
 59 61  1  0  0  0
 59 62  1  0  0  0
 60133  1  0  0  0
 60134  1  0  0  0
 60135  1  0  0  0
 61136  1  0  0  0
 61137  1  0  0  0
 61138  1  0  0  0
 62139  1  0  0  0
 62140  1  0  0  0
 62141  1  0  0  0
 63 65  1  0  0  0
 63142  1  0  0  0
 63143  1  0  0  0
 63144  1  0  0  0
 64145  1  0  0  0
 65146  1  0  0  0
 68 85  1  0  0  0
 71 73  2  0  0  0
 71 74  1  0  0  0
 71147  1  0  0  0
 72 75  2  0  0  0
 72 76  1  0  0  0
 72148  1  0  0  0
 73 75  1  0  0  0
 73 82  1  0  0  0
 74 76  2  0  0  0
 74 83  1  0  0  0
 75 84  1  0  0  0
 76 86  1  0  0  0
 77 78  2  0  0  0
 77 79  1  0  0  0
 77 87  1  0  0  0
 78 85  1  0  0  0
 78149  1  0  0  0
 79 80  1  0  0  0
 79150  1  0  0  0
 79151  1  0  0  0
 80 81  1  0  0  0
 80152  1  0  0  0
 80153  1  0  0  0
 81 87  1  0  0  0
 81154  1  0  0  0
 81155  1  0  0  0
 82156  1  0  0  0
 82157  1  0  0  0
 82158  1  0  0  0
 83159  1  0  0  0
 83160  1  0  0  0
 83161  1  0  0  0
 84162  1  0  0  0
 84163  1  0  0  0
 84 87  1  0  0  0
 85164  1  0  0  0
 85165  1  0  0  0
 86166  1  0  0  0
 87167  1  0  0  0
M  CHG  1  87   1
M  ISO  4   1 100  68 101  85 101  86 100
M  END
> <chiral flag>
0

> <version>
0

> <s_m_source_file>
/data/baiqing/PycharmProjects/Reinvent-master-3.2/result/LINK_invent/BTK/process_docking_weight1_custom_product_contain_oxygen_bond_distance_aromatic_linkinvent_7_9_3/rearranged_h_0040.sdf

> <i_m_source_file_index>
29

> <r_mmod_Potential_Energy-OPLS-2005>
-15.3445177078247

> <r_mmod_Stretch_Energy-OPLS-2005>
66.7121734619141

> <r_mmod_Bend_Energy-OPLS-2005>
175.436538696289

> <r_mmod_Torsional_Energy-OPLS-2005>
278.335510253906

> <r_mmod_Improper_Torsional_Energy-OPLS-2005>
7.91699886322021

> <r_mmod_Van_der_Waal_Energy-OPLS-2005>
145.501647949219

> <r_mmod_Electrostatic_Energy-OPLS-2005>
-291.823455810547

> <r_mmod_Solvation_Energy-OPLS-2005>
-445.297241210938

> <b_mmod_Minimization_Converged-OPLS-2005>
0

> <r_mmod_RMS_Derivative-OPLS-2005>
6.89819860458374

$$$$
29
                    3D
 Structure written by MMmdl.
179188  0  0  1  0            999 V2000
  -30.6230  -14.6048   20.4565 C   0  0  0  0  0  0
  -30.4458  -12.3387   19.4854 C   0  0  0  0  0  0
  -29.5303  -12.4145   18.2418 C   0  0  0  0  0  0
  -28.0301  -12.3677   18.6200 C   0  0  0  0  0  0
  -27.6549  -13.2171   19.8684 C   0  0  2  0  0  0
  -28.6951  -13.0606   20.9968 C   0  0  0  0  0  0
  -25.2551  -13.8183   20.5669 C   0  0  0  0  0  0
  -24.1806  -13.0471   20.9158 C   0  0  0  0  0  0
  -24.6342  -11.6935   20.8703 C   0  0  0  0  0  0
  -23.8984  -10.4340   21.0375 C   0  0  0  0  0  0
  -24.3547   -9.4269   21.9142 C   0  0  0  0  0  0
  -23.6285   -8.2270   22.0695 C   0  0  0  0  0  0
  -22.4275   -8.0275   21.3482 C   0  0  0  0  0  0
  -21.9883   -9.0235   20.4583 C   0  0  0  0  0  0
  -22.7160  -10.2144   20.3012 C   0  0  0  0  0  0
  -21.6859   -6.0734   22.5255 C   0  0  0  0  0  0
  -21.4010   -6.5634   23.8186 C   0  0  0  0  0  0
  -21.3664   -5.6764   24.9151 C   0  0  0  0  0  0
  -21.6068   -4.3033   24.7184 C   0  0  0  0  0  0
  -21.8841   -3.8128   23.4302 C   0  0  0  0  0  0
  -21.9194   -4.6970   22.3367 C   0  0  0  0  0  0
  -22.7821  -13.5256   21.1844 C   0  0  0  0  0  0
  -22.1667   -4.2152   21.0961 F   0  0  0  0  0  0
  -21.5635   -3.4516   25.7689 F   0  0  0  0  0  0
  -30.0166  -13.3810   20.4340 N   0  0  0  0  0  0
  -26.2985  -12.9344   20.3328 N   0  0  0  0  0  0
  -25.9278  -11.6519   20.5743 N   0  0  0  0  0  0
  -22.0426  -12.8234   22.0366 N   0  0  0  0  0  0
  -25.4353  -15.1904   20.4131 N   0  0  0  0  0  0
  -31.7926  -14.7565   20.0861 O   0  0  0  0  0  0
  -21.6645   -6.8873   21.4212 O   0  0  0  0  0  0
  -22.3527  -14.5582   20.6713 O   0  0  0  0  0  0
  -24.6288  -31.8627   23.1983 C   0  0  0  0  0  0
  -25.9154  -32.4765   23.8336 C   0  0  1  0  0  0
  -27.2507  -27.3530   20.1151 C   0  0  0  0  0  0
  -25.5935  -33.8556   24.2264 N   0  0  0  0  0  0
  -23.4181  -30.4881   21.5415 C   0  0  2  0  0  0
  -24.8685  -28.9442   20.1015 C   0  0  0  0  0  0
  -22.7497  -29.4669   22.4917 C   0  0  0  0  0  0
  -18.0286  -28.1381   22.8474 C   0  0  0  0  0  0
  -24.1463  -36.7287   23.2650 C   0  0  0  0  0  0
  -25.9606  -30.7992   21.3684 C   0  0  0  0  0  0
  -26.0345  -29.4319   20.7058 C   0  0  0  0  0  0
  -27.2258  -28.6528   20.6956 C   0  0  0  0  0  0
  -26.0586  -26.9027   19.4954 C   0  0  0  0  0  0
  -24.8850  -27.6840   19.4799 C   0  0  0  0  0  0
  -23.6286  -29.8193   20.1562 C   0  0  0  0  0  0
  -25.4090  -36.3074   24.0340 C   0  0  1  0  0  0
  -20.5898  -28.3700   23.1239 C   0  0  2  0  0  0
  -20.6762  -26.9419   22.5392 C   0  0  0  0  0  0
  -19.5731  -26.6380   21.5202 C   0  0  0  0  0  0
  -18.1920  -26.7919   22.1621 C   0  0  0  0  0  0
  -19.1547  -28.8850   23.2848 C   0  0  0  0  0  0
  -18.9481  -30.1441   23.8871 C   0  0  0  0  0  0
  -17.6488  -30.6575   24.0553 C   0  0  0  0  0  0
  -25.9052  -34.9451   23.5112 C   0  0  0  0  0  0
  -16.5370  -29.9081   23.6326 C   0  0  0  0  0  0
  -16.7280  -28.6498   23.0352 C   0  0  0  0  0  0
  -26.4522  -31.6563   25.0716 C   0  0  0  0  0  0
  -25.3751  -31.3730   26.1441 C   0  0  0  0  0  0
  -27.0420  -30.2976   24.6226 C   0  0  0  0  0  0
  -27.6039  -32.4343   25.7517 C   0  0  0  0  0  0
  -27.5564  -37.1808   24.8472 C   0  0  0  0  0  0
  -21.4205  -29.3056   22.3643 N   0  0  0  0  0  0
  -26.4265  -37.3778   23.9425 N   0  0  0  0  0  0
  -24.6873  -31.0694   22.0898 N   0  0  0  0  0  0
  -23.4250  -28.8229   23.3002 O   0  0  0  0  0  0
  -28.4031  -26.5548   20.1780 O   0  0  0  0  0  0
  -26.5644  -34.8947   22.4691 O   0  0  0  0  0  0
  -23.5457  -32.1407   23.7329 O   0  0  0  0  0  0
  -29.3194  -18.3704   18.1058 C   0  0  0  0  0  0
  -29.6579  -18.1754   20.8647 C   0  0  0  0  0  0
  -29.1866  -19.5359   18.8803 C   0  0  0  0  0  0
  -29.5874  -17.1135   18.6803 C   0  0  0  0  0  0
  -29.3909  -19.4625   20.2847 C   0  0  0  0  0  0
  -29.7514  -16.9759   20.0889 C   0  0  0  0  0  0
  -29.6045  -23.2733   21.3560 C   0  0  0  0  0  0
  -29.2716  -23.7104   22.5876 C   0  0  0  0  0  0
  -32.0179  -23.9350   19.3660 C   0  0  0  0  0  0
  -32.3753  -22.8434   20.3932 C   0  0  0  0  0  0
  -30.8389  -24.8476   19.7540 C   0  0  0  0  0  0
  -31.3904  -21.6568   20.3662 C   0  0  0  0  0  0
  -29.5110  -24.1281   20.0593 C   0  0  2  0  0  0
  -28.7700  -20.8127   18.1501 C   0  0  0  0  0  0
  -29.6155  -15.9417   17.7223 C   0  0  0  0  0  0
  -30.1298  -23.7076   24.9907 C   0  0  0  0  0  0
  -29.1623  -20.7166   21.1780 C   0  0  0  0  0  0
  -29.3933  -22.9293   23.8924 C   0  0  0  0  0  0
  -28.2702  -25.1141   19.9290 C   0  0  0  0  0  0
  -29.8253  -15.6734   20.7426 N   0  0  0  0  0  0
  -30.1609  -21.8519   21.1831 N   0  3  2  0  0  0
  -31.4938  -12.4513   19.1968 H   0  0  0  0  0  0
  -30.3750  -11.3553   19.9552 H   0  0  0  0  0  0
  -29.7600  -11.5826   17.5746 H   0  0  0  0  0  0
  -29.7712  -13.2992   17.6600 H   0  0  0  0  0  0
  -27.7824  -11.3220   18.8024 H   0  0  0  0  0  0
  -27.4151  -12.6754   17.7730 H   0  0  0  0  0  0
  -27.6692  -14.2599   19.5575 H   0  0  0  0  0  0
  -28.6923  -12.0390   21.3809 H   0  0  0  0  0  0
  -28.4516  -13.7003   21.8465 H   0  0  0  0  0  0
  -25.2684   -9.5791   22.4708 H   0  0  0  0  0  0
  -24.0018   -7.4675   22.7415 H   0  0  0  0  0  0
  -21.0787   -8.8727   19.8903 H   0  0  0  0  0  0
  -22.3572  -10.9663   19.6115 H   0  0  0  0  0  0
  -21.2008   -7.6133   23.9702 H   0  0  0  0  0  0
  -21.1458   -6.0473   25.9053 H   0  0  0  0  0  0
  -22.0618   -2.7596   23.2759 H   0  0  0  0  0  0
  -22.3997  -11.9852   22.4715 H   0  0  0  0  0  0
  -21.1020  -13.1226   22.2542 H   0  0  0  0  0  0
  -24.6780  -15.8551   20.5269 H   0  0  0  0  0  0
  -26.3003  -15.6251   20.1163 H   0  0  0  0  0  0
  -26.7255  -32.5457   23.1122 H   0  0  0  0  0  0
  -25.0032  -33.9659   25.0372 H   0  0  0  0  0  0
  -22.7092  -31.3069   21.4007 H   0  0  0  0  0  0
  -23.3724  -35.9627   23.3322 H   0  0  0  0  0  0
  -24.3544  -36.8899   22.2067 H   0  0  0  0  0  0
  -23.7228  -37.6497   23.6658 H   0  0  0  0  0  0
  -26.1157  -31.5656   20.6062 H   0  0  0  0  0  0
  -26.8325  -30.8273   22.0113 H   0  0  0  0  0  0
  -28.1228  -29.0333   21.1638 H   0  0  0  0  0  0
  -26.0055  -25.9353   19.0195 H   0  0  0  0  0  0
  -23.9996  -27.3023   18.9895 H   0  0  0  0  0  0
  -23.7309  -30.5957   19.3972 H   0  0  0  0  0  0
  -22.7470  -29.2473   19.8607 H   0  0  0  0  0  0
  -25.1274  -36.1916   25.0834 H   0  0  0  0  0  0
  -21.0005  -28.3294   24.1353 H   0  0  0  0  0  0
  -20.5626  -26.2363   23.3630 H   0  0  0  0  0  0
  -21.6636  -26.7424   22.1213 H   0  0  0  0  0  0
  -19.6895  -25.6302   21.1204 H   0  0  0  0  0  0
  -19.6620  -27.3202   20.6741 H   0  0  0  0  0  0
  -17.4200  -26.6675   21.4008 H   0  0  0  0  0  0
  -18.0289  -26.0052   22.9002 H   0  0  0  0  0  0
  -19.7973  -30.7227   24.2250 H   0  0  0  0  0  0
  -17.5064  -31.6244   24.5175 H   0  0  0  0  0  0
  -15.5374  -30.2990   23.7641 H   0  0  0  0  0  0
  -15.8683  -28.0797   22.7098 H   0  0  0  0  0  0
  -24.5843  -30.7179   25.7763 H   0  0  0  0  0  0
  -24.9053  -32.2930   26.4920 H   0  0  0  0  0  0
  -25.8040  -30.8832   27.0189 H   0  0  0  0  0  0
  -26.3049  -29.6666   24.1242 H   0  0  0  0  0  0
  -27.4099  -29.7266   25.4764 H   0  0  0  0  0  0
  -27.8900  -30.4232   23.9490 H   0  0  0  0  0  0
  -27.2557  -33.3600   26.2104 H   0  0  0  0  0  0
  -28.3841  -32.6992   25.0372 H   0  0  0  0  0  0
  -28.0727  -31.8506   26.5446 H   0  0  0  0  0  0
  -28.2597  -38.0091   24.7515 H   0  0  0  0  0  0
  -28.1035  -36.2634   24.6273 H   0  0  0  0  0  0
  -27.2299  -37.1433   25.8878 H   0  0  0  0  0  0
  -20.9406  -29.8809   21.6852 H   0  0  0  0  0  0
  -26.0144  -38.2862   24.1372 H   0  0  0  0  0  0
  -29.1505  -18.4336   17.0394 H   0  0  0  0  0  0
  -29.7465  -18.0940   21.9400 H   0  0  0  0  0  0
  -28.8846  -24.7155   22.6857 H   0  0  0  0  0  0
  -31.8149  -23.4746   18.3962 H   0  0  0  0  0  0
  -32.8934  -24.5666   19.2064 H   0  0  0  0  0  0
  -32.4970  -23.2525   21.3984 H   0  0  0  0  0  0
  -33.3598  -22.4567   20.1210 H   0  0  0  0  0  0
  -30.6779  -25.5230   18.9124 H   0  0  0  0  0  0
  -31.1143  -25.4816   20.5973 H   0  0  0  0  0  0
  -31.8977  -20.7620   20.7303 H   0  0  0  0  0  0
  -31.1583  -21.4436   19.3312 H   0  0  0  0  0  0
  -29.3643  -23.4049   19.2582 H   0  0  0  0  0  0
  -28.3227  -20.5767   17.1836 H   0  0  0  0  0  0
  -29.6137  -21.4639   17.9272 H   0  0  0  0  0  0
  -28.0180  -21.3831   18.6937 H   0  0  0  0  0  0
  -29.3406  -16.2423   16.7108 H   0  0  0  0  0  0
  -28.8923  -15.1971   18.0335 H   0  0  0  0  0  0
  -30.6129  -15.5070   17.6676 H   0  0  0  0  0  0
  -30.1777  -23.1212   25.9090 H   0  0  0  0  0  0
  -29.6283  -24.6456   25.2357 H   0  0  0  0  0  0
  -31.1540  -23.9401   24.6982 H   0  0  0  0  0  0
  -29.0950  -20.3659   22.2074 H   0  0  0  0  0  0
  -28.1682  -21.1077   20.9670 H   0  0  0  0  0  0
  -29.9179  -21.9857   23.7463 H   0  0  0  0  0  0
  -28.3904  -22.6732   24.2381 H   0  0  0  0  0  0
  -27.4466  -24.7218   20.5289 H   0  0  0  0  0  0
  -27.9638  -25.0243   18.8852 H   0  0  0  0  0  0
  -28.9998  -15.4297   21.2710 H   0  0  0  0  0  0
  -30.5729  -21.6707   22.0884 H   0  0  0  0  0  0
  1 25  1  0  0  0
  1 30  2  0  0  0
  1 90  1  0  0  0
  2  3  1  0  0  0
  2 25  1  0  0  0
  2 92  1  0  0  0
  2 93  1  0  0  0
  3  4  1  0  0  0
  3 94  1  0  0  0
  3 95  1  0  0  0
  4  5  1  0  0  0
  4 96  1  0  0  0
  4 97  1  0  0  0
  5  6  1  0  0  0
  5 26  1  0  0  0
  5 98  1  0  0  0
  6 25  1  0  0  0
  6 99  1  0  0  0
  6100  1  0  0  0
  7  8  2  0  0  0
  7 26  1  0  0  0
  7 29  1  0  0  0
  8  9  1  0  0  0
  8 22  1  0  0  0
  9 10  1  0  0  0
  9 27  2  0  0  0
 10 11  2  0  0  0
 10 15  1  0  0  0
 11 12  1  0  0  0
 11101  1  0  0  0
 12 13  2  0  0  0
 12102  1  0  0  0
 13 14  1  0  0  0
 13 31  1  0  0  0
 14 15  2  0  0  0
 14103  1  0  0  0
 15104  1  0  0  0
 16 17  2  0  0  0
 16 21  1  0  0  0
 16 31  1  0  0  0
 17 18  1  0  0  0
 17105  1  0  0  0
 18 19  2  0  0  0
 18106  1  0  0  0
 19 20  1  0  0  0
 19 24  1  0  0  0
 20 21  2  0  0  0
 20107  1  0  0  0
 21 23  1  0  0  0
 22 28  1  0  0  0
 22 32  2  0  0  0
 26 27  1  0  0  0
 28108  1  0  0  0
 28109  1  0  0  0
 29110  1  0  0  0
 29111  1  0  0  0
 33 34  1  0  0  0
 33 66  1  0  0  0
 33 70  2  0  0  0
 34 36  1  0  0  0
 34 59  1  0  0  0
 34112  1  0  0  0
 35 44  2  0  0  0
 35 45  1  0  0  0
 35 68  1  0  0  0
 36 56  1  0  0  0
 36113  1  0  0  0
 37 39  1  0  0  0
 37 47  1  0  0  0
 37 66  1  0  0  0
 37114  1  0  0  0
 38 43  2  0  0  0
 38 46  1  0  0  0
 38 47  1  0  0  0
 39 64  1  0  0  0
 39 67  2  0  0  0
 40 52  1  0  0  0
 40 53  2  0  0  0
 40 58  1  0  0  0
 41115  1  0  0  0
 41116  1  0  0  0
 41117  1  0  0  0
 41 48  1  0  0  0
 42 43  1  0  0  0
 42 66  1  0  0  0
 42118  1  0  0  0
 42119  1  0  0  0
 43 44  1  0  0  0
 44120  1  0  0  0
 45 46  2  0  0  0
 45121  1  0  0  0
 46122  1  0  0  0
 47123  1  0  0  0
 47124  1  0  0  0
 48 56  1  0  0  0
 48 65  1  0  0  0
 48125  1  0  0  0
 49 50  1  0  0  0
 49 53  1  0  0  0
 49 64  1  0  0  0
 49126  1  0  0  0
 50 51  1  0  0  0
 50127  1  0  0  0
 50128  1  0  0  0
 51 52  1  0  0  0
 51129  1  0  0  0
 51130  1  0  0  0
 52131  1  0  0  0
 52132  1  0  0  0
 53 54  1  0  0  0
 54 55  2  0  0  0
 54133  1  0  0  0
 55 57  1  0  0  0
 55134  1  0  0  0
 56 69  2  0  0  0
 57 58  2  0  0  0
 57135  1  0  0  0
 58136  1  0  0  0
 59 60  1  0  0  0
 59 61  1  0  0  0
 59 62  1  0  0  0
 60137  1  0  0  0
 60138  1  0  0  0
 60139  1  0  0  0
 61140  1  0  0  0
 61141  1  0  0  0
 61142  1  0  0  0
 62143  1  0  0  0
 62144  1  0  0  0
 62145  1  0  0  0
 63 65  1  0  0  0
 63146  1  0  0  0
 63147  1  0  0  0
 63148  1  0  0  0
 64149  1  0  0  0
 65150  1  0  0  0
 68 89  1  0  0  0
 71 73  2  0  0  0
 71 74  1  0  0  0
 71151  1  0  0  0
 72 75  2  0  0  0
 72 76  1  0  0  0
 72152  1  0  0  0
 73 75  1  0  0  0
 73 84  1  0  0  0
 74 76  2  0  0  0
 74 85  1  0  0  0
 75 87  1  0  0  0
 76 90  1  0  0  0
 77 78  2  0  0  0
 77 83  1  0  0  0
 77 91  1  0  0  0
 78 88  1  0  0  0
 78153  1  0  0  0
 79 80  1  0  0  0
 79 81  1  0  0  0
 79154  1  0  0  0
 79155  1  0  0  0
 80 82  1  0  0  0
 80156  1  0  0  0
 80157  1  0  0  0
 81 83  1  0  0  0
 81158  1  0  0  0
 81159  1  0  0  0
 82 91  1  0  0  0
 82160  1  0  0  0
 82161  1  0  0  0
 83 89  1  0  0  0
 83162  1  0  0  0
 84163  1  0  0  0
 84164  1  0  0  0
 84165  1  0  0  0
 85166  1  0  0  0
 85167  1  0  0  0
 85168  1  0  0  0
 86 88  1  0  0  0
 86169  1  0  0  0
 86170  1  0  0  0
 86171  1  0  0  0
 87172  1  0  0  0
 87173  1  0  0  0
 87 91  1  0  0  0
 88174  1  0  0  0
 88175  1  0  0  0
 89176  1  0  0  0
 89177  1  0  0  0
 90178  1  0  0  0
 91179  1  0  0  0
M  CHG  1  91   1
M  ISO  4   1 100  68 101  89 101  90 100
M  END
> <chiral flag>
0

> <version>
0

> <s_m_source_file>
/data/baiqing/PycharmProjects/Reinvent-master-3.2/result/LINK_invent/BTK/process_docking_weight1_custom_product_contain_oxygen_bond_distance_aromatic_linkinvent_7_9_3/rearranged_h_0040.sdf

> <i_m_source_file_index>
30

> <r_mmod_Potential_Energy-OPLS-2005>
4.47823858261108

> <r_mmod_Stretch_Energy-OPLS-2005>
73.7046737670898

> <r_mmod_Bend_Energy-OPLS-2005>
169.007629394531

> <r_mmod_Torsional_Energy-OPLS-2005>
276.142883300781

> <r_mmod_Improper_Torsional_Energy-OPLS-2005>
6.32565832138062

> <r_mmod_Van_der_Waal_Energy-OPLS-2005>
146.352691650391

> <r_mmod_Electrostatic_Energy-OPLS-2005>
-284.60400390625

> <r_mmod_Solvation_Energy-OPLS-2005>
-422.473205566406

> <b_mmod_Minimization_Converged-OPLS-2005>
0

> <r_mmod_RMS_Derivative-OPLS-2005>
4.73951244354248

$$$$
30
                    3D
 Structure written by MMmdl.
162170  0  0  1  0            999 V2000
  -30.6997  -14.7560   20.3685 C   0  0  0  0  0  0
  -30.4299  -12.4514   19.4587 C   0  0  0  0  0  0
  -29.4984  -12.3497   18.2389 C   0  0  0  0  0  0
  -28.0162  -12.2798   18.6312 C   0  0  0  0  0  0
  -27.6378  -13.2290   19.8016 C   0  0  2  0  0  0
  -28.7019  -13.2622   20.9153 C   0  0  0  0  0  0
  -25.2585  -13.8211   20.5571 C   0  0  0  0  0  0
  -24.1851  -13.0510   20.9122 C   0  0  0  0  0  0
  -24.6411  -11.6972   20.8808 C   0  0  0  0  0  0
  -23.9078  -10.4315   21.0502 C   0  0  0  0  0  0
  -24.3677   -9.4215   21.9222 C   0  0  0  0  0  0
  -23.6355   -8.2246   22.0762 C   0  0  0  0  0  0
  -22.4274   -8.0335   21.3586 C   0  0  0  0  0  0
  -21.9909   -9.0327   20.4625 C   0  0  0  0  0  0
  -22.7288  -10.2196   20.3056 C   0  0  0  0  0  0
  -21.6858   -6.0728   22.5285 C   0  0  0  0  0  0
  -21.3971   -6.5612   23.8208 C   0  0  0  0  0  0
  -21.3688   -5.6792   24.9177 C   0  0  0  0  0  0
  -21.6056   -4.3052   24.7242 C   0  0  0  0  0  0
  -21.8789   -3.8136   23.4351 C   0  0  0  0  0  0
  -21.9160   -4.6951   22.3405 C   0  0  0  0  0  0
  -22.7870  -13.5311   21.1800 C   0  0  0  0  0  0
  -22.1632   -4.2102   21.0995 F   0  0  0  0  0  0
  -21.5706   -3.4543   25.7787 F   0  0  0  0  0  0
  -29.9777  -13.5895   20.2792 N   0  0  0  0  0  0
  -26.2997  -12.9422   20.3143 N   0  0  0  0  0  0
  -25.9346  -11.6548   20.5809 N   0  0  0  0  0  0
  -22.0523  -12.8305   22.0309 N   0  0  0  0  0  0
  -25.4282  -15.1975   20.4082 N   0  0  0  0  0  0
  -31.9180  -14.7203   20.2379 O   0  0  0  0  0  0
  -21.6650   -6.8942   21.4269 O   0  0  0  0  0  0
  -22.3510  -14.5594   20.6710 O   0  0  0  0  0  0
  -24.6352  -31.8551   23.2003 C   0  0  0  0  0  0
  -25.9162  -32.4739   23.8360 C   0  0  1  0  0  0
  -27.2039  -27.2347   20.0803 C   0  0  0  0  0  0
  -25.5947  -33.8543   24.2266 N   0  0  0  0  0  0
  -23.4302  -30.4800   21.5506 C   0  0  2  0  0  0
  -24.8673  -28.9329   20.0997 C   0  0  0  0  0  0
  -22.7523  -29.4561   22.4933 C   0  0  0  0  0  0
  -18.0286  -28.1388   22.8494 C   0  0  0  0  0  0
  -24.1474  -36.7267   23.2652 C   0  0  0  0  0  0
  -25.9825  -30.7495   21.3917 C   0  0  0  0  0  0
  -26.0431  -29.3746   20.7169 C   0  0  0  0  0  0
  -27.2150  -28.5404   20.6969 C   0  0  0  0  0  0
  -25.9987  -26.8786   19.4322 C   0  0  0  0  0  0
  -24.8519  -27.6926   19.4501 C   0  0  0  0  0  0
  -23.6453  -29.8307   20.1600 C   0  0  0  0  0  0
  -25.4113  -36.3068   24.0341 C   0  0  1  0  0  0
  -20.5905  -28.3684   23.1290 C   0  0  2  0  0  0
  -20.6768  -26.9400   22.5417 C   0  0  0  0  0  0
  -19.5740  -26.6371   21.5224 C   0  0  0  0  0  0
  -18.1930  -26.7927   22.1637 C   0  0  0  0  0  0
  -19.1552  -28.8852   23.2872 C   0  0  0  0  0  0
  -18.9461  -30.1462   23.8867 C   0  0  0  0  0  0
  -17.6462  -30.6587   24.0555 C   0  0  0  0  0  0
  -25.9065  -34.9430   23.5109 C   0  0  0  0  0  0
  -16.5353  -29.9080   23.6347 C   0  0  0  0  0  0
  -16.7266  -28.6508   23.0348 C   0  0  0  0  0  0
  -26.4503  -31.6587   25.0774 C   0  0  0  0  0  0
  -25.3719  -31.3724   26.1490 C   0  0  0  0  0  0
  -27.0379  -30.3007   24.6311 C   0  0  0  0  0  0
  -27.6031  -32.4352   25.7544 C   0  0  0  0  0  0
  -27.5565  -37.1811   24.8482 C   0  0  0  0  0  0
  -21.4226  -29.3036   22.3698 N   0  0  0  0  0  0
  -26.4289  -37.3773   23.9404 N   0  0  0  0  0  0
  -24.7023  -31.0484   22.1016 N   0  0  0  0  0  0
  -23.4244  -28.8128   23.3031 O   0  0  0  0  0  0
  -28.2824  -26.3031   20.1169 O   0  0  0  0  0  0
  -26.5646  -34.8917   22.4681 O   0  0  0  0  0  0
  -23.5507  -32.1383   23.7282 O   0  0  0  0  0  0
  -28.5811  -16.7365   17.0761 C   0  0  0  0  0  0
  -28.0252  -18.5676   18.5475 C   0  0  0  0  0  0
  -27.6900  -17.7456   17.4519 C   0  0  0  0  0  0
  -29.6464  -16.3770   17.9154 C   0  0  0  0  0  0
  -29.1288  -18.2608   19.3776 C   0  0  0  0  0  0
  -29.7056  -16.9085   19.2424 C   0  0  0  0  0  0
  -26.4986  -18.0344   16.5640 C   0  0  0  0  0  0
  -30.7853  -15.6198   17.2430 C   0  0  0  0  0  0
  -29.8729  -19.5406   19.9736 C   0  0  0  0  0  0
  -29.0045  -23.6096   20.1690 C   0  0  0  0  0  0
  -28.9449  -22.1106   19.4871 C   0  0  0  0  0  0
  -28.0744  -24.8579   19.6827 C   0  0  0  0  0  0
  -30.0943  -16.0107   20.3630 N   0  0  0  0  0  0
  -29.1832  -20.8670   20.3827 N   0  3  0  0  0  0
  -31.4542  -12.5898   19.0976 H   0  0  0  0  0  0
  -30.4268  -11.5323   20.0401 H   0  0  0  0  0  0
  -29.7531  -11.4525   17.6700 H   0  0  0  0  0  0
  -29.6591  -13.1874   17.5762 H   0  0  0  0  0  0
  -27.8113  -11.2403   18.8994 H   0  0  0  0  0  0
  -27.4162  -12.5152   17.7483 H   0  0  0  0  0  0
  -27.6208  -14.2275   19.3615 H   0  0  0  0  0  0
  -28.4475  -14.0090   21.6711 H   0  0  0  0  0  0
  -28.7653  -12.2995   21.4282 H   0  0  0  0  0  0
  -25.2916   -9.5598   22.4690 H   0  0  0  0  0  0
  -24.0040   -7.4607   22.7490 H   0  0  0  0  0  0
  -21.0818   -8.8948   19.8899 H   0  0  0  0  0  0
  -22.3933  -10.9792   19.6105 H   0  0  0  0  0  0
  -21.1914   -7.6107   23.9676 H   0  0  0  0  0  0
  -21.1563   -6.0556   25.9090 H   0  0  0  0  0  0
  -22.0522   -2.7562   23.2917 H   0  0  0  0  0  0
  -22.4219  -12.0021   22.4729 H   0  0  0  0  0  0
  -21.1102  -13.1359   22.2413 H   0  0  0  0  0  0
  -24.6669  -15.8597   20.5259 H   0  0  0  0  0  0
  -26.2890  -15.6216   20.0852 H   0  0  0  0  0  0
  -26.7220  -32.5340   23.1097 H   0  0  0  0  0  0
  -25.0060  -33.9679   25.0390 H   0  0  0  0  0  0
  -22.7265  -31.3044   21.4159 H   0  0  0  0  0  0
  -23.3740  -35.9592   23.3346 H   0  0  0  0  0  0
  -24.3551  -36.8857   22.2055 H   0  0  0  0  0  0
  -23.7223  -37.6480   23.6653 H   0  0  0  0  0  0
  -26.1481  -31.5159   20.6320 H   0  0  0  0  0  0
  -26.8518  -30.7772   22.0391 H   0  0  0  0  0  0
  -28.1182  -28.8783   21.1862 H   0  0  0  0  0  0
  -25.8952  -25.9467   18.8987 H   0  0  0  0  0  0
  -23.9537  -27.3630   18.9451 H   0  0  0  0  0  0
  -23.7757  -30.6192   19.4178 H   0  0  0  0  0  0
  -22.7570  -29.2820   19.8453 H   0  0  0  0  0  0
  -25.1288  -36.1927   25.0838 H   0  0  0  0  0  0
  -20.9962  -28.3236   24.1413 H   0  0  0  0  0  0
  -20.5671  -26.2285   23.3623 H   0  0  0  0  0  0
  -21.6639  -26.7423   22.1209 H   0  0  0  0  0  0
  -19.6898  -25.6275   21.1257 H   0  0  0  0  0  0
  -19.6674  -27.3176   20.6757 H   0  0  0  0  0  0
  -17.4193  -26.6669   21.4035 H   0  0  0  0  0  0
  -18.0314  -26.0071   22.9034 H   0  0  0  0  0  0
  -19.7927  -30.7294   24.2221 H   0  0  0  0  0  0
  -17.5002  -31.6256   24.5157 H   0  0  0  0  0  0
  -15.5347  -30.2959   23.7673 H   0  0  0  0  0  0
  -15.8675  -28.0806   22.7072 H   0  0  0  0  0  0
  -24.5886  -30.7092   25.7825 H   0  0  0  0  0  0
  -24.8927  -32.2874   26.4960 H   0  0  0  0  0  0
  -25.8039  -30.8870   27.0250 H   0  0  0  0  0  0
  -26.3008  -29.6748   24.1278 H   0  0  0  0  0  0
  -27.3982  -29.7278   25.4866 H   0  0  0  0  0  0
  -27.8909  -30.4283   23.9648 H   0  0  0  0  0  0
  -27.2620  -33.3654   26.2092 H   0  0  0  0  0  0
  -28.3842  -32.6917   25.0381 H   0  0  0  0  0  0
  -28.0701  -31.8517   26.5483 H   0  0  0  0  0  0
  -28.2622  -38.0075   24.7489 H   0  0  0  0  0  0
  -28.1033  -36.2603   24.6361 H   0  0  0  0  0  0
  -27.2286  -37.1526   25.8896 H   0  0  0  0  0  0
  -20.9436  -29.8790   21.6925 H   0  0  0  0  0  0
  -26.0169  -38.2855   24.1381 H   0  0  0  0  0  0
  -28.4682  -16.2676   16.1062 H   0  0  0  0  0  0
  -27.4932  -19.4940   18.6847 H   0  0  0  0  0  0
  -26.8219  -18.2126   15.5351 H   0  0  0  0  0  0
  -25.9427  -18.9121   16.9046 H   0  0  0  0  0  0
  -25.8200  -17.1783   16.5653 H   0  0  0  0  0  0
  -31.3534  -16.3346   16.6535 H   0  0  0  0  0  0
  -30.4318  -14.8657   16.5447 H   0  0  0  0  0  0
  -31.5223  -15.1742   17.8878 H   0  0  0  0  0  0
  -30.6654  -19.7795   19.2608 H   0  0  0  0  0  0
  -30.4073  -19.1843   20.8603 H   0  0  0  0  0  0
  -30.0385  -23.9418   20.0935 H   0  0  0  0  0  0
  -28.8221  -23.4920   21.2357 H   0  0  0  0  0  0
  -29.6789  -22.0856   18.6775 H   0  0  0  0  0  0
  -27.9849  -21.9741   18.9871 H   0  0  0  0  0  0
  -27.0729  -24.5628   19.9942 H   0  0  0  0  0  0
  -28.0544  -24.8653   18.5942 H   0  0  0  0  0  0
  -30.2811  -16.5061   21.2253 H   0  0  0  0  0  0
  -29.8376  -21.2182   21.0618 H   0  0  0  0  0  0
  -28.3513  -20.6586   20.9036 H   0  0  0  0  0  0
  1 25  1  0  0  0
  1 30  2  0  0  0
  1 83  1  0  0  0
  2  3  1  0  0  0
  2 25  1  0  0  0
  2 85  1  0  0  0
  2 86  1  0  0  0
  3  4  1  0  0  0
  3 87  1  0  0  0
  3 88  1  0  0  0
  4  5  1  0  0  0
  4 89  1  0  0  0
  4 90  1  0  0  0
  5  6  1  0  0  0
  5 26  1  0  0  0
  5 91  1  0  0  0
  6 25  1  0  0  0
  6 92  1  0  0  0
  6 93  1  0  0  0
  7  8  2  0  0  0
  7 26  1  0  0  0
  7 29  1  0  0  0
  8  9  1  0  0  0
  8 22  1  0  0  0
  9 10  1  0  0  0
  9 27  2  0  0  0
 10 11  2  0  0  0
 10 15  1  0  0  0
 11 12  1  0  0  0
 11 94  1  0  0  0
 12 13  2  0  0  0
 12 95  1  0  0  0
 13 14  1  0  0  0
 13 31  1  0  0  0
 14 15  2  0  0  0
 14 96  1  0  0  0
 15 97  1  0  0  0
 16 17  2  0  0  0
 16 21  1  0  0  0
 16 31  1  0  0  0
 17 18  1  0  0  0
 17 98  1  0  0  0
 18 19  2  0  0  0
 18 99  1  0  0  0
 19 20  1  0  0  0
 19 24  1  0  0  0
 20 21  2  0  0  0
 20100  1  0  0  0
 21 23  1  0  0  0
 22 28  1  0  0  0
 22 32  2  0  0  0
 26 27  1  0  0  0
 28101  1  0  0  0
 28102  1  0  0  0
 29103  1  0  0  0
 29104  1  0  0  0
 33 34  1  0  0  0
 33 66  1  0  0  0
 33 70  2  0  0  0
 34 36  1  0  0  0
 34 59  1  0  0  0
 34105  1  0  0  0
 35 44  2  0  0  0
 35 45  1  0  0  0
 35 68  1  0  0  0
 36 56  1  0  0  0
 36106  1  0  0  0
 37 39  1  0  0  0
 37 47  1  0  0  0
 37 66  1  0  0  0
 37107  1  0  0  0
 38 43  2  0  0  0
 38 46  1  0  0  0
 38 47  1  0  0  0
 39 64  1  0  0  0
 39 67  2  0  0  0
 40 52  1  0  0  0
 40 53  2  0  0  0
 40 58  1  0  0  0
 41108  1  0  0  0
 41109  1  0  0  0
 41110  1  0  0  0
 41 48  1  0  0  0
 42 43  1  0  0  0
 42 66  1  0  0  0
 42111  1  0  0  0
 42112  1  0  0  0
 43 44  1  0  0  0
 44113  1  0  0  0
 45 46  2  0  0  0
 45114  1  0  0  0
 46115  1  0  0  0
 47116  1  0  0  0
 47117  1  0  0  0
 48 56  1  0  0  0
 48 65  1  0  0  0
 48118  1  0  0  0
 49 50  1  0  0  0
 49 53  1  0  0  0
 49 64  1  0  0  0
 49119  1  0  0  0
 50 51  1  0  0  0
 50120  1  0  0  0
 50121  1  0  0  0
 51 52  1  0  0  0
 51122  1  0  0  0
 51123  1  0  0  0
 52124  1  0  0  0
 52125  1  0  0  0
 53 54  1  0  0  0
 54 55  2  0  0  0
 54126  1  0  0  0
 55 57  1  0  0  0
 55127  1  0  0  0
 56 69  2  0  0  0
 57 58  2  0  0  0
 57128  1  0  0  0
 58129  1  0  0  0
 59 60  1  0  0  0
 59 61  1  0  0  0
 59 62  1  0  0  0
 60130  1  0  0  0
 60131  1  0  0  0
 60132  1  0  0  0
 61133  1  0  0  0
 61134  1  0  0  0
 61135  1  0  0  0
 62136  1  0  0  0
 62137  1  0  0  0
 62138  1  0  0  0
 63 65  1  0  0  0
 63139  1  0  0  0
 63140  1  0  0  0
 63141  1  0  0  0
 64142  1  0  0  0
 65143  1  0  0  0
 68 82  1  0  0  0
 71 73  2  0  0  0
 71 74  1  0  0  0
 71144  1  0  0  0
 72 73  1  0  0  0
 72 75  2  0  0  0
 72145  1  0  0  0
 73 77  1  0  0  0
 74 76  2  0  0  0
 74 78  1  0  0  0
 75 76  1  0  0  0
 75 79  1  0  0  0
 76 83  1  0  0  0
 77146  1  0  0  0
 77147  1  0  0  0
 77148  1  0  0  0
 78149  1  0  0  0
 78150  1  0  0  0
 78151  1  0  0  0
 79 84  1  0  0  0
 79152  1  0  0  0
 79153  1  0  0  0
 80 81  1  0  0  0
 80 82  1  0  0  0
 80154  1  0  0  0
 80155  1  0  0  0
 81 84  1  0  0  0
 81156  1  0  0  0
 81157  1  0  0  0
 82158  1  0  0  0
 82159  1  0  0  0
 83160  1  0  0  0
 84161  1  0  0  0
 84162  1  0  0  0
M  CHG  1  84   1
M  ISO  4   1 100  68 101  82 101  83 100
M  END
> <chiral flag>
0

> <version>
0

> <s_m_source_file>
/data/baiqing/PycharmProjects/Reinvent-master-3.2/result/LINK_invent/BTK/process_docking_weight1_custom_product_contain_oxygen_bond_distance_aromatic_linkinvent_7_9_3/rearranged_h_0040.sdf

> <i_m_source_file_index>
31

> <r_mmod_Potential_Energy-OPLS-2005>
287.149780273438

> <r_mmod_Stretch_Energy-OPLS-2005>
153.059600830078

> <r_mmod_Bend_Energy-OPLS-2005>
231.336639404297

> <r_mmod_Torsional_Energy-OPLS-2005>
439.492370605469

> <r_mmod_Improper_Torsional_Energy-OPLS-2005>
14.0205678939819

> <r_mmod_Van_der_Waal_Energy-OPLS-2005>
136.032073974609

> <r_mmod_Electrostatic_Energy-OPLS-2005>
-322.431030273438

> <r_mmod_Solvation_Energy-OPLS-2005>
-482.656921386719

> <b_mmod_Minimization_Converged-OPLS-2005>
0

> <r_mmod_RMS_Derivative-OPLS-2005>
9.60211658477783

$$$$
31
                    3D
 Structure written by MMmdl.
153161  0  0  1  0            999 V2000
  -30.6137  -14.7195   20.4375 C   0  0  0  0  0  0
  -30.4369  -12.4309   19.4762 C   0  0  0  0  0  0
  -29.5086  -12.4741   18.2412 C   0  0  0  0  0  0
  -28.0342  -12.3174   18.6537 C   0  0  0  0  0  0
  -27.6461  -13.2259   19.8498 C   0  0  2  0  0  0
  -28.6899  -13.1540   20.9871 C   0  0  0  0  0  0
  -25.2539  -13.8203   20.5671 C   0  0  0  0  0  0
  -24.1817  -13.0457   20.9197 C   0  0  0  0  0  0
  -24.6406  -11.6933   20.8771 C   0  0  0  0  0  0
  -23.9076  -10.4313   21.0413 C   0  0  0  0  0  0
  -24.3629   -9.4216   21.9177 C   0  0  0  0  0  0
  -23.6314   -8.2247   22.0742 C   0  0  0  0  0  0
  -22.4292   -8.0288   21.3534 C   0  0  0  0  0  0
  -21.9925   -9.0261   20.4643 C   0  0  0  0  0  0
  -22.7247  -10.2148   20.3052 C   0  0  0  0  0  0
  -21.6860   -6.0745   22.5278 C   0  0  0  0  0  0
  -21.4019   -6.5649   23.8211 C   0  0  0  0  0  0
  -21.3660   -5.6801   24.9173 C   0  0  0  0  0  0
  -21.6042   -4.3060   24.7218 C   0  0  0  0  0  0
  -21.8824   -3.8151   23.4344 C   0  0  0  0  0  0
  -21.9195   -4.6970   22.3397 C   0  0  0  0  0  0
  -22.7837  -13.5236   21.1851 C   0  0  0  0  0  0
  -22.1656   -4.2149   21.0971 F   0  0  0  0  0  0
  -21.5623   -3.4546   25.7733 F   0  0  0  0  0  0
  -29.9981  -13.4905   20.4123 N   0  0  0  0  0  0
  -26.2962  -12.9402   20.3283 N   0  0  0  0  0  0
  -25.9335  -11.6554   20.5803 N   0  0  0  0  0  0
  -22.0489  -12.8224   22.0422 N   0  0  0  0  0  0
  -25.4267  -15.1926   20.4051 N   0  0  0  0  0  0
  -31.8018  -14.8251   20.1225 O   0  0  0  0  0  0
  -21.6650   -6.8888   21.4240 O   0  0  0  0  0  0
  -22.3514  -14.5529   20.6685 O   0  0  0  0  0  0
  -24.6281  -31.8571   23.2016 C   0  0  0  0  0  0
  -25.9117  -32.4761   23.8350 C   0  0  1  0  0  0
  -27.2155  -27.2788   20.1248 C   0  0  0  0  0  0
  -25.5930  -33.8572   24.2270 N   0  0  0  0  0  0
  -23.4244  -30.4817   21.5432 C   0  0  2  0  0  0
  -24.8711  -28.9357   20.1075 C   0  0  0  0  0  0
  -22.7494  -29.4604   22.4901 C   0  0  0  0  0  0
  -18.0290  -28.1389   22.8466 C   0  0  0  0  0  0
  -24.1488  -36.7299   23.2637 C   0  0  0  0  0  0
  -25.9695  -30.7725   21.3828 C   0  0  0  0  0  0
  -26.0401  -29.3977   20.7246 C   0  0  0  0  0  0
  -27.2126  -28.5790   20.7298 C   0  0  0  0  0  0
  -26.0300  -26.8970   19.4520 C   0  0  0  0  0  0
  -24.8701  -27.6922   19.4615 C   0  0  0  0  0  0
  -23.6429  -29.8210   20.1573 C   0  0  0  0  0  0
  -25.4114  -36.3081   24.0323 C   0  0  1  0  0  0
  -20.5893  -28.3700   23.1253 C   0  0  2  0  0  0
  -20.6778  -26.9416   22.5401 C   0  0  0  0  0  0
  -19.5760  -26.6380   21.5198 C   0  0  0  0  0  0
  -18.1941  -26.7927   22.1612 C   0  0  0  0  0  0
  -19.1543  -28.8859   23.2855 C   0  0  0  0  0  0
  -18.9470  -30.1459   23.8876 C   0  0  0  0  0  0
  -17.6471  -30.6586   24.0561 C   0  0  0  0  0  0
  -25.9053  -34.9445   23.5096 C   0  0  0  0  0  0
  -16.5361  -29.9087   23.6327 C   0  0  0  0  0  0
  -16.7277  -28.6510   23.0334 C   0  0  0  0  0  0
  -26.4495  -31.6588   25.0737 C   0  0  0  0  0  0
  -25.3729  -31.3743   26.1468 C   0  0  0  0  0  0
  -27.0349  -30.3004   24.6226 C   0  0  0  0  0  0
  -27.6047  -32.4332   25.7515 C   0  0  0  0  0  0
  -27.5581  -37.1806   24.8461 C   0  0  0  0  0  0
  -21.4203  -29.3052   22.3653 N   0  0  0  0  0  0
  -26.4290  -37.3780   23.9406 N   0  0  0  0  0  0
  -24.6927  -31.0545   22.0990 N   0  0  0  0  0  0
  -23.4206  -28.8125   23.2977 O   0  0  0  0  0  0
  -28.3083  -26.3872   20.2138 O   0  0  0  0  0  0
  -26.5627  -34.8913   22.4665 O   0  0  0  0  0  0
  -23.5435  -32.1394   23.7315 O   0  0  0  0  0  0
  -29.8529  -19.7864   18.7495 C   0  0  0  0  0  0
  -30.1358  -18.6145   18.0287 C   0  0  0  0  0  0
  -29.5558  -19.7406   20.1248 C   0  0  0  0  0  0
  -29.8941  -17.1920   20.0313 C   0  0  0  0  0  0
  -30.1460  -17.3441   18.6352 C   0  0  0  0  0  0
  -29.5802  -18.4221   20.7501 C   0  0  0  0  0  0
  -29.3138  -21.1300   20.8673 C   0  0  0  0  0  0
  -28.9674  -23.7638   20.6110 C   0  0  0  0  0  0
  -28.0987  -24.9304   19.9210 C   0  0  0  0  0  0
  -29.8293  -15.8392   20.6463 N   0  0  0  0  0  0
  -28.7685  -22.3299   20.0832 N   0  3  0  0  0  0
  -30.4028  -16.0162   17.5588 Cl  0  0  0  0  0  0
  -29.2300  -18.3036   22.4385 Cl  0  0  0  0  0  0
  -31.4755  -12.5587   19.1659 H   0  0  0  0  0  0
  -30.3885  -11.4543   19.9608 H   0  0  0  0  0  0
  -29.7853  -11.6885   17.5380 H   0  0  0  0  0  0
  -29.6371  -13.4125   17.7056 H   0  0  0  0  0  0
  -27.8857  -11.2723   18.9271 H   0  0  0  0  0  0
  -27.3764  -12.5042   17.8037 H   0  0  0  0  0  0
  -27.6453  -14.2458   19.4647 H   0  0  0  0  0  0
  -28.7169  -12.1570   21.4277 H   0  0  0  0  0  0
  -28.4286  -13.8392   21.7948 H   0  0  0  0  0  0
  -25.2774   -9.5686   22.4754 H   0  0  0  0  0  0
  -24.0022   -7.4642   22.7467 H   0  0  0  0  0  0
  -21.0841   -8.8788   19.8972 H   0  0  0  0  0  0
  -22.3696  -10.9687   19.6164 H   0  0  0  0  0  0
  -21.2016   -7.6157   23.9711 H   0  0  0  0  0  0
  -21.1470   -6.0527   25.9078 H   0  0  0  0  0  0
  -22.0603   -2.7611   23.2837 H   0  0  0  0  0  0
  -22.4119  -11.9892   22.4807 H   0  0  0  0  0  0
  -21.1101  -13.1234   22.2634 H   0  0  0  0  0  0
  -24.6619  -15.8512   20.5063 H   0  0  0  0  0  0
  -26.2728  -15.6237   20.0562 H   0  0  0  0  0  0
  -26.7182  -32.5412   23.1091 H   0  0  0  0  0  0
  -25.0095  -33.9729   25.0424 H   0  0  0  0  0  0
  -22.7193  -31.3030   21.3992 H   0  0  0  0  0  0
  -23.3747  -35.9636   23.3296 H   0  0  0  0  0  0
  -24.3575  -36.8928   22.2053 H   0  0  0  0  0  0
  -23.7244  -37.6497   23.6668 H   0  0  0  0  0  0
  -26.1091  -31.5318   20.6124 H   0  0  0  0  0  0
  -26.8467  -30.8190   22.0159 H   0  0  0  0  0  0
  -28.1017  -28.9212   21.2409 H   0  0  0  0  0  0
  -25.9600  -25.9637   18.9139 H   0  0  0  0  0  0
  -23.9782  -27.3401   18.9607 H   0  0  0  0  0  0
  -23.7728  -30.5995   19.4046 H   0  0  0  0  0  0
  -22.7607  -29.2577   19.8464 H   0  0  0  0  0  0
  -25.1292  -36.1933   25.0816 H   0  0  0  0  0  0
  -20.9982  -28.3282   24.1372 H   0  0  0  0  0  0
  -20.5657  -26.2321   23.3613 H   0  0  0  0  0  0
  -21.6648  -26.7435   22.1204 H   0  0  0  0  0  0
  -19.6928  -25.6284   21.1241 H   0  0  0  0  0  0
  -19.6696  -27.3174   20.6716 H   0  0  0  0  0  0
  -17.4207  -26.6650   21.4021 H   0  0  0  0  0  0
  -18.0358  -26.0077   22.9018 H   0  0  0  0  0  0
  -19.7954  -30.7274   24.2233 H   0  0  0  0  0  0
  -17.5035  -31.6257   24.5179 H   0  0  0  0  0  0
  -15.5363  -30.2986   23.7670 H   0  0  0  0  0  0
  -15.8677  -28.0836   22.7043 H   0  0  0  0  0  0
  -24.5878  -30.7120   25.7798 H   0  0  0  0  0  0
  -24.8962  -32.2927   26.4909 H   0  0  0  0  0  0
  -25.8053  -30.8901   27.0237 H   0  0  0  0  0  0
  -26.2944  -29.6746   24.1235 H   0  0  0  0  0  0
  -27.4014  -29.7263   25.4747 H   0  0  0  0  0  0
  -27.8826  -30.4271   23.9488 H   0  0  0  0  0  0
  -27.2638  -33.3617   26.2108 H   0  0  0  0  0  0
  -28.3858  -32.6922   25.0353 H   0  0  0  0  0  0
  -28.0724  -31.8460   26.5428 H   0  0  0  0  0  0
  -28.2588  -38.0111   24.7508 H   0  0  0  0  0  0
  -28.1084  -36.2641   24.6280 H   0  0  0  0  0  0
  -27.2304  -37.1446   25.8865 H   0  0  0  0  0  0
  -20.9388  -29.8813   21.6891 H   0  0  0  0  0  0
  -26.0167  -38.2851   24.1411 H   0  0  0  0  0  0
  -29.8709  -20.7264   18.2183 H   0  0  0  0  0  0
  -30.3375  -18.6902   16.9694 H   0  0  0  0  0  0
  -30.2714  -21.4240   21.2967 H   0  0  0  0  0  0
  -28.6471  -20.9646   21.7154 H   0  0  0  0  0  0
  -28.7508  -23.7724   21.6798 H   0  0  0  0  0  0
  -30.0257  -24.0085   20.5181 H   0  0  0  0  0  0
  -27.0726  -24.6652   20.1702 H   0  0  0  0  0  0
  -28.1881  -24.8242   18.8396 H   0  0  0  0  0  0
  -28.9710  -15.6533   21.1420 H   0  0  0  0  0  0
  -27.7809  -22.1625   19.9645 H   0  0  0  0  0  0
  -29.1750  -22.2967   19.1625 H   0  0  0  0  0  0
  1 25  1  0  0  0
  1 30  2  0  0  0
  1 80  1  0  0  0
  2  3  1  0  0  0
  2 25  1  0  0  0
  2 84  1  0  0  0
  2 85  1  0  0  0
  3  4  1  0  0  0
  3 86  1  0  0  0
  3 87  1  0  0  0
  4  5  1  0  0  0
  4 88  1  0  0  0
  4 89  1  0  0  0
  5  6  1  0  0  0
  5 26  1  0  0  0
  5 90  1  0  0  0
  6 25  1  0  0  0
  6 91  1  0  0  0
  6 92  1  0  0  0
  7  8  2  0  0  0
  7 26  1  0  0  0
  7 29  1  0  0  0
  8  9  1  0  0  0
  8 22  1  0  0  0
  9 10  1  0  0  0
  9 27  2  0  0  0
 10 11  2  0  0  0
 10 15  1  0  0  0
 11 12  1  0  0  0
 11 93  1  0  0  0
 12 13  2  0  0  0
 12 94  1  0  0  0
 13 14  1  0  0  0
 13 31  1  0  0  0
 14 15  2  0  0  0
 14 95  1  0  0  0
 15 96  1  0  0  0
 16 17  2  0  0  0
 16 21  1  0  0  0
 16 31  1  0  0  0
 17 18  1  0  0  0
 17 97  1  0  0  0
 18 19  2  0  0  0
 18 98  1  0  0  0
 19 20  1  0  0  0
 19 24  1  0  0  0
 20 21  2  0  0  0
 20 99  1  0  0  0
 21 23  1  0  0  0
 22 28  1  0  0  0
 22 32  2  0  0  0
 26 27  1  0  0  0
 28100  1  0  0  0
 28101  1  0  0  0
 29102  1  0  0  0
 29103  1  0  0  0
 33 34  1  0  0  0
 33 66  1  0  0  0
 33 70  2  0  0  0
 34 36  1  0  0  0
 34 59  1  0  0  0
 34104  1  0  0  0
 35 44  2  0  0  0
 35 45  1  0  0  0
 35 68  1  0  0  0
 36 56  1  0  0  0
 36105  1  0  0  0
 37 39  1  0  0  0
 37 47  1  0  0  0
 37 66  1  0  0  0
 37106  1  0  0  0
 38 43  2  0  0  0
 38 46  1  0  0  0
 38 47  1  0  0  0
 39 64  1  0  0  0
 39 67  2  0  0  0
 40 52  1  0  0  0
 40 53  2  0  0  0
 40 58  1  0  0  0
 41107  1  0  0  0
 41108  1  0  0  0
 41109  1  0  0  0
 41 48  1  0  0  0
 42 43  1  0  0  0
 42 66  1  0  0  0
 42110  1  0  0  0
 42111  1  0  0  0
 43 44  1  0  0  0
 44112  1  0  0  0
 45 46  2  0  0  0
 45113  1  0  0  0
 46114  1  0  0  0
 47115  1  0  0  0
 47116  1  0  0  0
 48 56  1  0  0  0
 48 65  1  0  0  0
 48117  1  0  0  0
 49 50  1  0  0  0
 49 53  1  0  0  0
 49 64  1  0  0  0
 49118  1  0  0  0
 50 51  1  0  0  0
 50119  1  0  0  0
 50120  1  0  0  0
 51 52  1  0  0  0
 51121  1  0  0  0
 51122  1  0  0  0
 52123  1  0  0  0
 52124  1  0  0  0
 53 54  1  0  0  0
 54 55  2  0  0  0
 54125  1  0  0  0
 55 57  1  0  0  0
 55126  1  0  0  0
 56 69  2  0  0  0
 57 58  2  0  0  0
 57127  1  0  0  0
 58128  1  0  0  0
 59 60  1  0  0  0
 59 61  1  0  0  0
 59 62  1  0  0  0
 60129  1  0  0  0
 60130  1  0  0  0
 60131  1  0  0  0
 61132  1  0  0  0
 61133  1  0  0  0
 61134  1  0  0  0
 62135  1  0  0  0
 62136  1  0  0  0
 62137  1  0  0  0
 63 65  1  0  0  0
 63138  1  0  0  0
 63139  1  0  0  0
 63140  1  0  0  0
 64141  1  0  0  0
 65142  1  0  0  0
 68 79  1  0  0  0
 71 72  2  0  0  0
 71 73  1  0  0  0
 71143  1  0  0  0
 72 75  1  0  0  0
 72144  1  0  0  0
 73 76  2  0  0  0
 73 77  1  0  0  0
 74 75  2  0  0  0
 74 76  1  0  0  0
 74 80  1  0  0  0
 75 82  1  0  0  0
 76 83  1  0  0  0
 77 81  1  0  0  0
 77145  1  0  0  0
 77146  1  0  0  0
 78 79  1  0  0  0
 78 81  1  0  0  0
 78147  1  0  0  0
 78148  1  0  0  0
 79149  1  0  0  0
 79150  1  0  0  0
 80151  1  0  0  0
 81152  1  0  0  0
 81153  1  0  0  0
M  CHG  1  81   1
M  ISO  4   1 100  68 101  79 101  80 100
M  END
> <chiral flag>
0

> <version>
0

> <s_m_source_file>
/data/baiqing/PycharmProjects/Reinvent-master-3.2/result/LINK_invent/BTK/process_docking_weight1_custom_product_contain_oxygen_bond_distance_aromatic_linkinvent_7_9_3/rearranged_h_0040.sdf

> <i_m_source_file_index>
32

> <r_mmod_Potential_Energy-OPLS-2005>
-81.4897689819336

> <r_mmod_Stretch_Energy-OPLS-2005>
112.866928100586

> <r_mmod_Bend_Energy-OPLS-2005>
149.720962524414

> <r_mmod_Torsional_Energy-OPLS-2005>
237.740005493164

> <r_mmod_Improper_Torsional_Energy-OPLS-2005>
5.17846822738647

> <r_mmod_Van_der_Waal_Energy-OPLS-2005>
143.688003540039

> <r_mmod_Electrostatic_Energy-OPLS-2005>
-315.982421875

> <r_mmod_Solvation_Energy-OPLS-2005>
-493.424438476562

> <b_mmod_Minimization_Converged-OPLS-2005>
0

> <r_mmod_RMS_Derivative-OPLS-2005>
1.75817584991455

$$$$
32
                    3D
 Structure written by MMmdl.
167176  0  0  1  0            999 V2000
  -30.6431  -14.6150   20.5308 C   0  0  0  0  0  0
  -30.4394  -12.3834   19.4525 C   0  0  0  0  0  0
  -29.5087  -12.5093   18.2256 C   0  0  0  0  0  0
  -28.0327  -12.3439   18.6400 C   0  0  0  0  0  0
  -27.6559  -13.2159   19.8667 C   0  0  2  0  0  0
  -28.6988  -13.0621   20.9970 C   0  0  0  0  0  0
  -25.2553  -13.8176   20.5683 C   0  0  0  0  0  0
  -24.1815  -13.0445   20.9187 C   0  0  0  0  0  0
  -24.6376  -11.6916   20.8722 C   0  0  0  0  0  0
  -23.9049  -10.4299   21.0398 C   0  0  0  0  0  0
  -24.3606   -9.4213   21.9173 C   0  0  0  0  0  0
  -23.6283   -8.2242   22.0739 C   0  0  0  0  0  0
  -22.4263   -8.0275   21.3536 C   0  0  0  0  0  0
  -21.9902   -9.0246   20.4639 C   0  0  0  0  0  0
  -22.7225  -10.2129   20.3052 C   0  0  0  0  0  0
  -21.6847   -6.0727   22.5274 C   0  0  0  0  0  0
  -21.4009   -6.5633   23.8210 C   0  0  0  0  0  0
  -21.3665   -5.6784   24.9171 C   0  0  0  0  0  0
  -21.6050   -4.3047   24.7226 C   0  0  0  0  0  0
  -21.8822   -3.8139   23.4348 C   0  0  0  0  0  0
  -21.9193   -4.6952   22.3403 C   0  0  0  0  0  0
  -22.7845  -13.5234   21.1873 C   0  0  0  0  0  0
  -22.1661   -4.2140   21.0981 F   0  0  0  0  0  0
  -21.5638   -3.4534   25.7741 F   0  0  0  0  0  0
  -30.0216  -13.3970   20.4408 N   0  0  0  0  0  0
  -26.2988  -12.9358   20.3324 N   0  0  0  0  0  0
  -25.9309  -11.6516   20.5757 N   0  0  0  0  0  0
  -22.0485  -12.8211   22.0425 N   0  0  0  0  0  0
  -25.4301  -15.1898   20.4111 N   0  0  0  0  0  0
  -31.7935  -14.7873   20.1152 O   0  0  0  0  0  0
  -21.6632   -6.8869   21.4236 O   0  0  0  0  0  0
  -22.3536  -14.5546   20.6734 O   0  0  0  0  0  0
  -24.6227  -31.8617   23.2058 C   0  0  0  0  0  0
  -25.9087  -32.4793   23.8376 C   0  0  1  0  0  0
  -27.2207  -27.3195   20.1320 C   0  0  0  0  0  0
  -25.5904  -33.8593   24.2285 N   0  0  0  0  0  0
  -23.4177  -30.4842   21.5470 C   0  0  2  0  0  0
  -24.8684  -28.9435   20.1131 C   0  0  0  0  0  0
  -22.7467  -29.4620   22.4944 C   0  0  0  0  0  0
  -18.0281  -28.1388   22.8489 C   0  0  0  0  0  0
  -24.1487  -36.7312   23.2639 C   0  0  0  0  0  0
  -25.9585  -30.7882   21.3851 C   0  0  0  0  0  0
  -26.0321  -29.4136   20.7358 C   0  0  0  0  0  0
  -27.2095  -28.6084   20.7465 C   0  0  0  0  0  0
  -26.0573  -26.9371   19.4300 C   0  0  0  0  0  0
  -24.8817  -27.7080   19.4517 C   0  0  0  0  0  0
  -23.6350  -29.8203   20.1627 C   0  0  0  0  0  0
  -25.4112  -36.3092   24.0326 C   0  0  1  0  0  0
  -20.5879  -28.3692   23.1285 C   0  0  2  0  0  0
  -20.6772  -26.9415   22.5415 C   0  0  0  0  0  0
  -19.5750  -26.6390   21.5219 C   0  0  0  0  0  0
  -18.1929  -26.7931   22.1626 C   0  0  0  0  0  0
  -19.1531  -28.8855   23.2883 C   0  0  0  0  0  0
  -18.9455  -30.1461   23.8898 C   0  0  0  0  0  0
  -17.6455  -30.6590   24.0560 C   0  0  0  0  0  0
  -25.9048  -34.9464   23.5107 C   0  0  0  0  0  0
  -16.5348  -29.9094   23.6329 C   0  0  0  0  0  0
  -16.7267  -28.6508   23.0354 C   0  0  0  0  0  0
  -26.4492  -31.6594   25.0735 C   0  0  0  0  0  0
  -25.3727  -31.3733   26.1465 C   0  0  0  0  0  0
  -27.0344  -30.3012   24.6200 C   0  0  0  0  0  0
  -27.6050  -32.4342   25.7489 C   0  0  0  0  0  0
  -27.5580  -37.1814   24.8461 C   0  0  0  0  0  0
  -21.4179  -29.3043   22.3684 N   0  0  0  0  0  0
  -26.4293  -37.3783   23.9400 N   0  0  0  0  0  0
  -24.6841  -31.0633   22.1022 N   0  0  0  0  0  0
  -23.4194  -28.8161   23.3023 O   0  0  0  0  0  0
  -28.3365  -26.4679   20.1344 O   0  0  0  0  0  0
  -26.5629  -34.8917   22.4682 O   0  0  0  0  0  0
  -23.5384  -32.1422   23.7386 O   0  0  0  0  0  0
  -30.7251  -19.3629   21.3644 C   0  0  0  0  0  0
  -29.1868  -17.6966   19.7498 C   0  0  0  0  0  0
  -29.9462  -19.9899   20.3496 C   0  0  0  0  0  0
  -30.7531  -17.9468   21.5638 C   0  0  0  0  0  0
  -29.1687  -19.1063   19.5361 C   0  0  0  0  0  0
  -29.9866  -17.0777   20.7404 C   0  0  0  0  0  0
  -29.2904  -24.0644   20.1123 C   0  0  0  0  0  0
  -30.1967  -24.4094   19.1773 C   0  0  0  0  0  0
  -26.9183  -23.0844   21.5574 C   0  0  0  0  0  0
  -26.8781  -24.4560   20.8807 C   0  0  0  0  0  0
  -27.7772  -22.1138   20.7408 C   0  0  0  0  0  0
  -28.2807  -25.0980   20.7353 C   0  0  2  0  0  0
  -31.6090  -17.3680   22.6777 C   0  0  0  0  0  0
  -28.2950  -19.6025   18.3922 C   0  0  0  0  0  0
  -30.1058  -21.5393   20.0557 C   0  0  0  0  0  0
  -29.8679  -15.6465   20.9742 N   0  0  0  0  0  0
  -29.1746  -22.5935   20.6456 N   0  3  2  0  0  0
  -31.4813  -12.5083   19.1505 H   0  0  0  0  0  0
  -30.3729  -11.3843   19.8864 H   0  0  0  0  0  0
  -29.7715  -11.7613   17.4771 H   0  0  0  0  0  0
  -29.6520  -13.4805   17.7496 H   0  0  0  0  0  0
  -27.8767  -11.2916   18.8777 H   0  0  0  0  0  0
  -27.3751  -12.5664   17.8000 H   0  0  0  0  0  0
  -27.6787  -14.2527   19.5293 H   0  0  0  0  0  0
  -28.7018  -12.0405   21.3779 H   0  0  0  0  0  0
  -28.4420  -13.6898   21.8513 H   0  0  0  0  0  0
  -25.2753   -9.5691   22.4749 H   0  0  0  0  0  0
  -23.9999   -7.4636   22.7454 H   0  0  0  0  0  0
  -21.0840   -8.8761   19.8940 H   0  0  0  0  0  0
  -22.3681  -10.9662   19.6161 H   0  0  0  0  0  0
  -21.1986   -7.6141   23.9709 H   0  0  0  0  0  0
  -21.1489   -6.0514   25.9073 H   0  0  0  0  0  0
  -22.0596   -2.7601   23.2849 H   0  0  0  0  0  0
  -22.4095  -11.9865   22.4808 H   0  0  0  0  0  0
  -21.1102  -13.1230   22.2629 H   0  0  0  0  0  0
  -24.6671  -15.8498   20.5177 H   0  0  0  0  0  0
  -26.2850  -15.6231   20.0870 H   0  0  0  0  0  0
  -26.7144  -32.5466   23.1114 H   0  0  0  0  0  0
  -24.9999  -33.9739   25.0395 H   0  0  0  0  0  0
  -22.7096  -31.3032   21.4047 H   0  0  0  0  0  0
  -23.3739  -35.9657   23.3306 H   0  0  0  0  0  0
  -24.3576  -36.8932   22.2051 H   0  0  0  0  0  0
  -23.7253  -37.6521   23.6666 H   0  0  0  0  0  0
  -26.0928  -31.5464   20.6131 H   0  0  0  0  0  0
  -26.8391  -30.8384   22.0148 H   0  0  0  0  0  0
  -28.0996  -28.9620   21.2483 H   0  0  0  0  0  0
  -26.0469  -26.0319   18.8449 H   0  0  0  0  0  0
  -24.0012  -27.3556   18.9320 H   0  0  0  0  0  0
  -23.7526  -30.5965   19.4063 H   0  0  0  0  0  0
  -22.7559  -29.2475   19.8612 H   0  0  0  0  0  0
  -25.1290  -36.1952   25.0819 H   0  0  0  0  0  0
  -20.9960  -28.3271   24.1412 H   0  0  0  0  0  0
  -20.5681  -26.2305   23.3615 H   0  0  0  0  0  0
  -21.6640  -26.7457   22.1204 H   0  0  0  0  0  0
  -19.6921  -25.6310   21.1239 H   0  0  0  0  0  0
  -19.6685  -27.3205   20.6746 H   0  0  0  0  0  0
  -17.4199  -26.6668   21.4028 H   0  0  0  0  0  0
  -18.0332  -26.0079   22.9019 H   0  0  0  0  0  0
  -19.7930  -30.7273   24.2266 H   0  0  0  0  0  0
  -17.5012  -31.6266   24.5172 H   0  0  0  0  0  0
  -15.5352  -30.2991   23.7663 H   0  0  0  0  0  0
  -15.8663  -28.0829   22.7073 H   0  0  0  0  0  0
  -24.5900  -30.7086   25.7796 H   0  0  0  0  0  0
  -24.8927  -32.2901   26.4891 H   0  0  0  0  0  0
  -25.8053  -30.8903   27.0233 H   0  0  0  0  0  0
  -26.2932  -29.6762   24.1196 H   0  0  0  0  0  0
  -27.4009  -29.7269   25.4721 H   0  0  0  0  0  0
  -27.8819  -30.4299   23.9461 H   0  0  0  0  0  0
  -27.2654  -33.3636   26.2068 H   0  0  0  0  0  0
  -28.3841  -32.6910   25.0303 H   0  0  0  0  0  0
  -28.0745  -31.8472   26.5392 H   0  0  0  0  0  0
  -28.2591  -38.0117   24.7493 H   0  0  0  0  0  0
  -28.1077  -36.2639   24.6296 H   0  0  0  0  0  0
  -27.2298  -37.1479   25.8867 H   0  0  0  0  0  0
  -20.9367  -29.8751   21.6881 H   0  0  0  0  0  0
  -26.0172  -38.2861   24.1394 H   0  0  0  0  0  0
  -31.3453  -19.9829   21.9969 H   0  0  0  0  0  0
  -28.5690  -17.0704   19.1211 H   0  0  0  0  0  0
  -30.2562  -25.4301   18.8298 H   0  0  0  0  0  0
  -30.8982  -23.7174   18.7393 H   0  0  0  0  0  0
  -25.9047  -22.6878   21.6327 H   0  0  0  0  0  0
  -27.2948  -23.1699   22.5784 H   0  0  0  0  0  0
  -26.2162  -25.1070   21.4538 H   0  0  0  0  0  0
  -26.4264  -24.3036   19.9029 H   0  0  0  0  0  0
  -27.3658  -22.0004   19.7377 H   0  0  0  0  0  0
  -27.7369  -21.1328   21.2147 H   0  0  0  0  0  0
  -28.6449  -25.2537   21.7524 H   0  0  0  0  0  0
  -32.1209  -18.1481   23.2416 H   0  0  0  0  0  0
  -32.3668  -16.7020   22.2635 H   0  0  0  0  0  0
  -30.9965  -16.7959   23.3751 H   0  0  0  0  0  0
  -28.5221  -20.6113   18.0563 H   0  0  0  0  0  0
  -27.2456  -19.5757   18.6841 H   0  0  0  0  0  0
  -28.4094  -18.9512   17.5252 H   0  0  0  0  0  0
  -30.1195  -21.6592   18.9751 H   0  0  0  0  0  0
  -31.1148  -21.8175   20.3596 H   0  0  0  0  0  0
  -28.9479  -15.3400   21.2553 H   0  0  0  0  0  0
  -29.4742  -22.6222   21.6088 H   0  0  0  0  0  0
  1 25  1  0  0  0
  1 30  2  0  0  0
  1 86  1  0  0  0
  2  3  1  0  0  0
  2 25  1  0  0  0
  2 88  1  0  0  0
  2 89  1  0  0  0
  3  4  1  0  0  0
  3 90  1  0  0  0
  3 91  1  0  0  0
  4  5  1  0  0  0
  4 92  1  0  0  0
  4 93  1  0  0  0
  5  6  1  0  0  0
  5 26  1  0  0  0
  5 94  1  0  0  0
  6 25  1  0  0  0
  6 95  1  0  0  0
  6 96  1  0  0  0
  7  8  2  0  0  0
  7 26  1  0  0  0
  7 29  1  0  0  0
  8  9  1  0  0  0
  8 22  1  0  0  0
  9 10  1  0  0  0
  9 27  2  0  0  0
 10 11  2  0  0  0
 10 15  1  0  0  0
 11 12  1  0  0  0
 11 97  1  0  0  0
 12 13  2  0  0  0
 12 98  1  0  0  0
 13 14  1  0  0  0
 13 31  1  0  0  0
 14 15  2  0  0  0
 14 99  1  0  0  0
 15100  1  0  0  0
 16 17  2  0  0  0
 16 21  1  0  0  0
 16 31  1  0  0  0
 17 18  1  0  0  0
 17101  1  0  0  0
 18 19  2  0  0  0
 18102  1  0  0  0
 19 20  1  0  0  0
 19 24  1  0  0  0
 20 21  2  0  0  0
 20103  1  0  0  0
 21 23  1  0  0  0
 22 28  1  0  0  0
 22 32  2  0  0  0
 26 27  1  0  0  0
 28104  1  0  0  0
 28105  1  0  0  0
 29106  1  0  0  0
 29107  1  0  0  0
 33 34  1  0  0  0
 33 66  1  0  0  0
 33 70  2  0  0  0
 34 36  1  0  0  0
 34 59  1  0  0  0
 34108  1  0  0  0
 35 44  2  0  0  0
 35 45  1  0  0  0
 35 68  1  0  0  0
 36 56  1  0  0  0
 36109  1  0  0  0
 37 39  1  0  0  0
 37 47  1  0  0  0
 37 66  1  0  0  0
 37110  1  0  0  0
 38 43  2  0  0  0
 38 46  1  0  0  0
 38 47  1  0  0  0
 39 64  1  0  0  0
 39 67  2  0  0  0
 40 52  1  0  0  0
 40 53  2  0  0  0
 40 58  1  0  0  0
 41111  1  0  0  0
 41112  1  0  0  0
 41113  1  0  0  0
 41 48  1  0  0  0
 42 43  1  0  0  0
 42 66  1  0  0  0
 42114  1  0  0  0
 42115  1  0  0  0
 43 44  1  0  0  0
 44116  1  0  0  0
 45 46  2  0  0  0
 45117  1  0  0  0
 46118  1  0  0  0
 47119  1  0  0  0
 47120  1  0  0  0
 48 56  1  0  0  0
 48 65  1  0  0  0
 48121  1  0  0  0
 49 50  1  0  0  0
 49 53  1  0  0  0
 49 64  1  0  0  0
 49122  1  0  0  0
 50 51  1  0  0  0
 50123  1  0  0  0
 50124  1  0  0  0
 51 52  1  0  0  0
 51125  1  0  0  0
 51126  1  0  0  0
 52127  1  0  0  0
 52128  1  0  0  0
 53 54  1  0  0  0
 54 55  2  0  0  0
 54129  1  0  0  0
 55 57  1  0  0  0
 55130  1  0  0  0
 56 69  2  0  0  0
 57 58  2  0  0  0
 57131  1  0  0  0
 58132  1  0  0  0
 59 60  1  0  0  0
 59 61  1  0  0  0
 59 62  1  0  0  0
 60133  1  0  0  0
 60134  1  0  0  0
 60135  1  0  0  0
 61136  1  0  0  0
 61137  1  0  0  0
 61138  1  0  0  0
 62139  1  0  0  0
 62140  1  0  0  0
 62141  1  0  0  0
 63 65  1  0  0  0
 63142  1  0  0  0
 63143  1  0  0  0
 63144  1  0  0  0
 64145  1  0  0  0
 65146  1  0  0  0
 68 82  1  0  0  0
 71 73  2  0  0  0
 71 74  1  0  0  0
 71147  1  0  0  0
 72 75  2  0  0  0
 72 76  1  0  0  0
 72148  1  0  0  0
 73 75  1  0  0  0
 73 85  1  0  0  0
 74 76  2  0  0  0
 74 83  1  0  0  0
 75 84  1  0  0  0
 76 86  1  0  0  0
 77 78  2  0  0  0
 77 82  1  0  0  0
 77 87  1  0  0  0
 78149  1  0  0  0
 78150  1  0  0  0
 79 80  1  0  0  0
 79 81  1  0  0  0
 79151  1  0  0  0
 79152  1  0  0  0
 80 82  1  0  0  0
 80153  1  0  0  0
 80154  1  0  0  0
 81 87  1  0  0  0
 81155  1  0  0  0
 81156  1  0  0  0
 82157  1  0  0  0
 83158  1  0  0  0
 83159  1  0  0  0
 83160  1  0  0  0
 84161  1  0  0  0
 84162  1  0  0  0
 84163  1  0  0  0
 85164  1  0  0  0
 85165  1  0  0  0
 85 87  1  0  0  0
 86166  1  0  0  0
 87167  1  0  0  0
M  CHG  1  87   1
M  ISO  4   1 100  68 101  82 101  86 100
M  END
> <chiral flag>
0

> <version>
0

> <s_m_source_file>
/data/baiqing/PycharmProjects/Reinvent-master-3.2/result/LINK_invent/BTK/process_docking_weight1_custom_product_contain_oxygen_bond_distance_aromatic_linkinvent_7_9_3/rearranged_h_0040.sdf

> <i_m_source_file_index>
33

> <r_mmod_Potential_Energy-OPLS-2005>
-15.9920415878296

> <r_mmod_Stretch_Energy-OPLS-2005>
89.2673110961914

> <r_mmod_Bend_Energy-OPLS-2005>
152.04035949707

> <r_mmod_Torsional_Energy-OPLS-2005>
263.655944824219

> <r_mmod_Improper_Torsional_Energy-OPLS-2005>
5.60903692245483

> <r_mmod_Van_der_Waal_Energy-OPLS-2005>
152.676513671875

> <r_mmod_Electrostatic_Energy-OPLS-2005>
-291.522979736328

> <r_mmod_Solvation_Energy-OPLS-2005>
-431.778900146484

> <b_mmod_Minimization_Converged-OPLS-2005>
0

> <r_mmod_RMS_Derivative-OPLS-2005>
1.82406795024872

$$$$
33
                    3D
 Structure written by MMmdl.
156164  0  0  1  0            999 V2000
  -30.6429  -14.5517   20.5591 C   0  0  0  0  0  0
  -30.4425  -12.3543   19.4296 C   0  0  0  0  0  0
  -29.5061  -12.5131   18.2123 C   0  0  0  0  0  0
  -28.0278  -12.3577   18.6248 C   0  0  0  0  0  0
  -27.6606  -13.2056   19.8724 C   0  0  2  0  0  0
  -28.7047  -13.0025   20.9946 C   0  0  0  0  0  0
  -25.2585  -13.8141   20.5661 C   0  0  0  0  0  0
  -24.1843  -13.0427   20.9172 C   0  0  0  0  0  0
  -24.6401  -11.6893   20.8736 C   0  0  0  0  0  0
  -23.9055  -10.4287   21.0412 C   0  0  0  0  0  0
  -24.3604   -9.4199   21.9183 C   0  0  0  0  0  0
  -23.6283   -8.2236   22.0752 C   0  0  0  0  0  0
  -22.4268   -8.0270   21.3539 C   0  0  0  0  0  0
  -21.9899   -9.0248   20.4648 C   0  0  0  0  0  0
  -22.7230  -10.2125   20.3060 C   0  0  0  0  0  0
  -21.6849   -6.0717   22.5271 C   0  0  0  0  0  0
  -21.4023   -6.5628   23.8204 C   0  0  0  0  0  0
  -21.3662   -5.6784   24.9168 C   0  0  0  0  0  0
  -21.6042   -4.3045   24.7225 C   0  0  0  0  0  0
  -21.8819   -3.8133   23.4348 C   0  0  0  0  0  0
  -21.9201   -4.6946   22.3400 C   0  0  0  0  0  0
  -22.7870  -13.5228   21.1837 C   0  0  0  0  0  0
  -22.1658   -4.2132   21.0976 F   0  0  0  0  0  0
  -21.5635   -3.4531   25.7735 F   0  0  0  0  0  0
  -30.0263  -13.3413   20.4388 N   0  0  0  0  0  0
  -26.3026  -12.9307   20.3341 N   0  0  0  0  0  0
  -25.9332  -11.6473   20.5765 N   0  0  0  0  0  0
  -22.0501  -12.8247   22.0400 N   0  0  0  0  0  0
  -25.4299  -15.1863   20.4053 N   0  0  0  0  0  0
  -31.7921  -14.7581   20.1562 O   0  0  0  0  0  0
  -21.6637   -6.8865   21.4233 O   0  0  0  0  0  0
  -22.3562  -14.5530   20.6661 O   0  0  0  0  0  0
  -24.6174  -31.8649   23.2038 C   0  0  0  0  0  0
  -25.9058  -32.4815   23.8351 C   0  0  1  0  0  0
  -27.2394  -27.3997   20.1137 C   0  0  0  0  0  0
  -25.5903  -33.8612   24.2290 N   0  0  0  0  0  0
  -23.4061  -30.4857   21.5461 C   0  0  2  0  0  0
  -24.8536  -28.9386   20.1187 C   0  0  0  0  0  0
  -22.7433  -29.4646   22.4982 C   0  0  0  0  0  0
  -18.0280  -28.1382   22.8495 C   0  0  0  0  0  0
  -24.1492  -36.7297   23.2637 C   0  0  0  0  0  0
  -25.9368  -30.8210   21.3592 C   0  0  0  0  0  0
  -26.0152  -29.4508   20.7105 C   0  0  0  0  0  0
  -27.2123  -28.6921   20.6945 C   0  0  0  0  0  0
  -26.0591  -26.9020   19.5236 C   0  0  0  0  0  0
  -24.8730  -27.6652   19.5204 C   0  0  0  0  0  0
  -23.6162  -29.8108   20.1635 C   0  0  0  0  0  0
  -25.4116  -36.3104   24.0331 C   0  0  1  0  0  0
  -20.5871  -28.3662   23.1327 C   0  0  2  0  0  0
  -20.6775  -26.9400   22.5426 C   0  0  0  0  0  0
  -19.5753  -26.6384   21.5226 C   0  0  0  0  0  0
  -18.1927  -26.7931   22.1631 C   0  0  0  0  0  0
  -19.1530  -28.8843   23.2905 C   0  0  0  0  0  0
  -18.9458  -30.1451   23.8910 C   0  0  0  0  0  0
  -17.6459  -30.6589   24.0571 C   0  0  0  0  0  0
  -25.9046  -34.9477   23.5108 C   0  0  0  0  0  0
  -16.5349  -29.9086   23.6336 C   0  0  0  0  0  0
  -16.7269  -28.6507   23.0348 C   0  0  0  0  0  0
  -26.4466  -31.6615   25.0705 C   0  0  0  0  0  0
  -25.3724  -31.3721   26.1451 C   0  0  0  0  0  0
  -27.0291  -30.3067   24.6072 C   0  0  0  0  0  0
  -27.6045  -32.4329   25.7456 C   0  0  0  0  0  0
  -27.5578  -37.1798   24.8459 C   0  0  0  0  0  0
  -21.4155  -29.3023   22.3735 N   0  0  0  0  0  0
  -26.4294  -37.3798   23.9411 N   0  0  0  0  0  0
  -24.6721  -31.0732   22.0944 N   0  0  0  0  0  0
  -23.4202  -28.8214   23.3039 O   0  0  0  0  0  0
  -28.4125  -26.6645   20.0826 O   0  0  0  0  0  0
  -26.5614  -34.8927   22.4671 O   0  0  0  0  0  0
  -23.5362  -32.1413   23.7425 O   0  0  0  0  0  0
  -29.9014  -18.0064   20.4367 C   0  0  0  0  0  0
  -30.5885  -18.5053   23.1119 C   0  0  0  0  0  0
  -30.0448  -19.3579   20.8798 C   0  0  0  0  0  0
  -30.1083  -16.9058   21.3234 C   0  0  0  0  0  0
  -30.3914  -19.5836   22.2285 C   0  0  0  0  0  0
  -30.4418  -17.1751   22.6719 C   0  0  0  0  0  0
  -29.9464  -20.5677   19.9167 C   0  0  0  0  0  0
  -28.2988  -24.1479   19.6323 C   0  0  0  0  0  0
  -29.4017  -23.0221   19.6560 C   0  0  0  0  0  0
  -28.4095  -25.3289   20.6502 C   0  0  0  0  0  0
  -29.8129  -15.5558   20.9352 N   0  0  0  0  0  0
  -29.0778  -21.7210   20.3356 N   0  3  0  0  0  0
  -30.5326  -20.8544   22.6785 F   0  0  0  0  0  0
  -30.6322  -15.8906   23.8154 Cl  0  0  0  0  0  0
  -31.4832  -12.4888   19.1280 H   0  0  0  0  0  0
  -30.3709  -11.3462   19.8392 H   0  0  0  0  0  0
  -29.7589  -11.7790   17.4448 H   0  0  0  0  0  0
  -29.6572  -13.4939   17.7581 H   0  0  0  0  0  0
  -27.8564  -11.3018   18.8350 H   0  0  0  0  0  0
  -27.3727  -12.6132   17.7914 H   0  0  0  0  0  0
  -27.6928  -14.2499   19.5624 H   0  0  0  0  0  0
  -28.7018  -11.9653   21.3310 H   0  0  0  0  0  0
  -28.4579  -13.5935   21.8788 H   0  0  0  0  0  0
  -25.2756   -9.5670   22.4750 H   0  0  0  0  0  0
  -23.9981   -7.4637   22.7484 H   0  0  0  0  0  0
  -21.0819   -8.8777   19.8976 H   0  0  0  0  0  0
  -22.3689  -10.9655   19.6170 H   0  0  0  0  0  0
  -21.2004   -7.6135   23.9694 H   0  0  0  0  0  0
  -21.1492   -6.0517   25.9065 H   0  0  0  0  0  0
  -22.0599   -2.7595   23.2851 H   0  0  0  0  0  0
  -22.4109  -11.9920   22.4808 H   0  0  0  0  0  0
  -21.1118  -13.1297   22.2594 H   0  0  0  0  0  0
  -24.6576  -15.8351   20.5067 H   0  0  0  0  0  0
  -26.2709  -15.6263   20.0567 H   0  0  0  0  0  0
  -26.7123  -32.5524   23.1103 H   0  0  0  0  0  0
  -25.0076  -33.9753   25.0447 H   0  0  0  0  0  0
  -22.6961  -31.3037   21.4053 H   0  0  0  0  0  0
  -23.3757  -35.9629   23.3324 H   0  0  0  0  0  0
  -24.3578  -36.8895   22.2047 H   0  0  0  0  0  0
  -23.7241  -37.6501   23.6644 H   0  0  0  0  0  0
  -26.0499  -31.5841   20.5876 H   0  0  0  0  0  0
  -26.8233  -30.8760   21.9797 H   0  0  0  0  0  0
  -28.1127  -29.0903   21.1412 H   0  0  0  0  0  0
  -26.0572  -25.9280   19.0555 H   0  0  0  0  0  0
  -23.9804  -27.2646   19.0599 H   0  0  0  0  0  0
  -23.7253  -30.5841   19.4023 H   0  0  0  0  0  0
  -22.7389  -29.2325   19.8677 H   0  0  0  0  0  0
  -25.1299  -36.1954   25.0824 H   0  0  0  0  0  0
  -20.9957  -28.3221   24.1449 H   0  0  0  0  0  0
  -20.5704  -26.2263   23.3608 H   0  0  0  0  0  0
  -21.6643  -26.7459   22.1206 H   0  0  0  0  0  0
  -19.6916  -25.6298   21.1243 H   0  0  0  0  0  0
  -19.6696  -27.3214   20.6774 H   0  0  0  0  0  0
  -17.4207  -26.6693   21.4022 H   0  0  0  0  0  0
  -18.0313  -26.0063   22.9019 H   0  0  0  0  0  0
  -19.7932  -30.7267   24.2280 H   0  0  0  0  0  0
  -17.5013  -31.6274   24.5160 H   0  0  0  0  0  0
  -15.5350  -30.2993   23.7649 H   0  0  0  0  0  0
  -15.8673  -28.0835   22.7042 H   0  0  0  0  0  0
  -24.5863  -30.7122   25.7759 H   0  0  0  0  0  0
  -24.8953  -32.2884   26.4944 H   0  0  0  0  0  0
  -25.8055  -30.8829   27.0187 H   0  0  0  0  0  0
  -26.2827  -29.6848   24.1117 H   0  0  0  0  0  0
  -27.4067  -29.7284   25.4508 H   0  0  0  0  0  0
  -27.8663  -30.4405   23.9221 H   0  0  0  0  0  0
  -27.2669  -33.3603   26.2089 H   0  0  0  0  0  0
  -28.3812  -32.6935   25.0259 H   0  0  0  0  0  0
  -28.0773  -31.8435   26.5316 H   0  0  0  0  0  0
  -28.2599  -38.0094   24.7528 H   0  0  0  0  0  0
  -28.1076  -36.2625   24.6273 H   0  0  0  0  0  0
  -27.2299  -37.1432   25.8864 H   0  0  0  0  0  0
  -20.9327  -29.8727   21.6933 H   0  0  0  0  0  0
  -26.0182  -38.2877   24.1419 H   0  0  0  0  0  0
  -29.6378  -17.8091   19.4077 H   0  0  0  0  0  0
  -30.8425  -18.7043   24.1419 H   0  0  0  0  0  0
  -29.6312  -20.2223   18.9310 H   0  0  0  0  0  0
  -30.9673  -20.9328   19.7887 H   0  0  0  0  0  0
  -27.3004  -23.7124   19.6736 H   0  0  0  0  0  0
  -28.3528  -24.6042   18.6429 H   0  0  0  0  0  0
  -30.3426  -23.4110   20.0459 H   0  0  0  0  0  0
  -29.6055  -22.7741   18.6137 H   0  0  0  0  0  0
  -29.3476  -25.2384   21.1994 H   0  0  0  0  0  0
  -27.6288  -25.2384   21.4079 H   0  0  0  0  0  0
  -28.8856  -15.2395   21.1718 H   0  0  0  0  0  0
  -29.1899  -21.8421   21.3313 H   0  0  0  0  0  0
  -28.1209  -21.4691   20.1511 H   0  0  0  0  0  0
  1 25  1  0  0  0
  1 30  2  0  0  0
  1 81  1  0  0  0
  2  3  1  0  0  0
  2 25  1  0  0  0
  2 85  1  0  0  0
  2 86  1  0  0  0
  3  4  1  0  0  0
  3 87  1  0  0  0
  3 88  1  0  0  0
  4  5  1  0  0  0
  4 89  1  0  0  0
  4 90  1  0  0  0
  5  6  1  0  0  0
  5 26  1  0  0  0
  5 91  1  0  0  0
  6 25  1  0  0  0
  6 92  1  0  0  0
  6 93  1  0  0  0
  7  8  2  0  0  0
  7 26  1  0  0  0
  7 29  1  0  0  0
  8  9  1  0  0  0
  8 22  1  0  0  0
  9 10  1  0  0  0
  9 27  2  0  0  0
 10 11  2  0  0  0
 10 15  1  0  0  0
 11 12  1  0  0  0
 11 94  1  0  0  0
 12 13  2  0  0  0
 12 95  1  0  0  0
 13 14  1  0  0  0
 13 31  1  0  0  0
 14 15  2  0  0  0
 14 96  1  0  0  0
 15 97  1  0  0  0
 16 17  2  0  0  0
 16 21  1  0  0  0
 16 31  1  0  0  0
 17 18  1  0  0  0
 17 98  1  0  0  0
 18 19  2  0  0  0
 18 99  1  0  0  0
 19 20  1  0  0  0
 19 24  1  0  0  0
 20 21  2  0  0  0
 20100  1  0  0  0
 21 23  1  0  0  0
 22 28  1  0  0  0
 22 32  2  0  0  0
 26 27  1  0  0  0
 28101  1  0  0  0
 28102  1  0  0  0
 29103  1  0  0  0
 29104  1  0  0  0
 33 34  1  0  0  0
 33 66  1  0  0  0
 33 70  2  0  0  0
 34 36  1  0  0  0
 34 59  1  0  0  0
 34105  1  0  0  0
 35 44  2  0  0  0
 35 45  1  0  0  0
 35 68  1  0  0  0
 36 56  1  0  0  0
 36106  1  0  0  0
 37 39  1  0  0  0
 37 47  1  0  0  0
 37 66  1  0  0  0
 37107  1  0  0  0
 38 43  2  0  0  0
 38 46  1  0  0  0
 38 47  1  0  0  0
 39 64  1  0  0  0
 39 67  2  0  0  0
 40 52  1  0  0  0
 40 53  2  0  0  0
 40 58  1  0  0  0
 41108  1  0  0  0
 41109  1  0  0  0
 41110  1  0  0  0
 41 48  1  0  0  0
 42 43  1  0  0  0
 42 66  1  0  0  0
 42111  1  0  0  0
 42112  1  0  0  0
 43 44  1  0  0  0
 44113  1  0  0  0
 45 46  2  0  0  0
 45114  1  0  0  0
 46115  1  0  0  0
 47116  1  0  0  0
 47117  1  0  0  0
 48 56  1  0  0  0
 48 65  1  0  0  0
 48118  1  0  0  0
 49 50  1  0  0  0
 49 53  1  0  0  0
 49 64  1  0  0  0
 49119  1  0  0  0
 50 51  1  0  0  0
 50120  1  0  0  0
 50121  1  0  0  0
 51 52  1  0  0  0
 51122  1  0  0  0
 51123  1  0  0  0
 52124  1  0  0  0
 52125  1  0  0  0
 53 54  1  0  0  0
 54 55  2  0  0  0
 54126  1  0  0  0
 55 57  1  0  0  0
 55127  1  0  0  0
 56 69  2  0  0  0
 57 58  2  0  0  0
 57128  1  0  0  0
 58129  1  0  0  0
 59 60  1  0  0  0
 59 61  1  0  0  0
 59 62  1  0  0  0
 60130  1  0  0  0
 60131  1  0  0  0
 60132  1  0  0  0
 61133  1  0  0  0
 61134  1  0  0  0
 61135  1  0  0  0
 62136  1  0  0  0
 62137  1  0  0  0
 62138  1  0  0  0
 63 65  1  0  0  0
 63139  1  0  0  0
 63140  1  0  0  0
 63141  1  0  0  0
 64142  1  0  0  0
 65143  1  0  0  0
 68 80  1  0  0  0
 71 73  2  0  0  0
 71 74  1  0  0  0
 71144  1  0  0  0
 72 75  2  0  0  0
 72 76  1  0  0  0
 72145  1  0  0  0
 73 75  1  0  0  0
 73 77  1  0  0  0
 74 76  2  0  0  0
 74 81  1  0  0  0
 75 83  1  0  0  0
 76 84  1  0  0  0
 77 82  1  0  0  0
 77146  1  0  0  0
 77147  1  0  0  0
 78 79  1  0  0  0
 78 80  1  0  0  0
 78148  1  0  0  0
 78149  1  0  0  0
 79 82  1  0  0  0
 79150  1  0  0  0
 79151  1  0  0  0
 80152  1  0  0  0
 80153  1  0  0  0
 81154  1  0  0  0
 82155  1  0  0  0
 82156  1  0  0  0
M  CHG  1  82   1
M  ISO  4   1 100  68 101  80 101  81 100
M  END
> <chiral flag>
0

> <version>
0

> <s_m_source_file>
/data/baiqing/PycharmProjects/Reinvent-master-3.2/result/LINK_invent/BTK/process_docking_weight1_custom_product_contain_oxygen_bond_distance_aromatic_linkinvent_7_9_3/rearranged_h_0040.sdf

> <i_m_source_file_index>
34

> <r_mmod_Potential_Energy-OPLS-2005>
-238.746047973633

> <r_mmod_Stretch_Energy-OPLS-2005>
49.3798408508301

> <r_mmod_Bend_Energy-OPLS-2005>
112.941162109375

> <r_mmod_Torsional_Energy-OPLS-2005>
273.446685791016

> <r_mmod_Improper_Torsional_Energy-OPLS-2005>
6.91950941085815

> <r_mmod_Van_der_Waal_Energy-OPLS-2005>
140.616744995117

> <r_mmod_Electrostatic_Energy-OPLS-2005>
-361.247711181641

> <r_mmod_Solvation_Energy-OPLS-2005>
-482.510223388672

> <b_mmod_Minimization_Converged-OPLS-2005>
0

> <r_mmod_RMS_Derivative-OPLS-2005>
1.79959690570831

$$$$
34
                    3D
 Structure written by MMmdl.
160168  0  0  1  0            999 V2000
  -30.7158  -14.4677   20.5245 C   0  0  0  0  0  0
  -30.4078  -12.2898   19.4267 C   0  0  0  0  0  0
  -29.4890  -12.4916   18.2050 C   0  0  0  0  0  0
  -28.0100  -12.3571   18.6175 C   0  0  0  0  0  0
  -27.6562  -13.2042   19.8690 C   0  0  2  0  0  0
  -28.7022  -13.0101   20.9927 C   0  0  0  0  0  0
  -25.2564  -13.8146   20.5647 C   0  0  0  0  0  0
  -24.1817  -13.0447   20.9147 C   0  0  0  0  0  0
  -24.6358  -11.6904   20.8702 C   0  0  0  0  0  0
  -23.9026  -10.4301   21.0378 C   0  0  0  0  0  0
  -24.3599   -9.4216   21.9138 C   0  0  0  0  0  0
  -23.6281   -8.2251   22.0723 C   0  0  0  0  0  0
  -22.4265   -8.0281   21.3536 C   0  0  0  0  0  0
  -21.9870   -9.0254   20.4653 C   0  0  0  0  0  0
  -22.7175  -10.2140   20.3049 C   0  0  0  0  0  0
  -21.6869   -6.0721   22.5273 C   0  0  0  0  0  0
  -21.4026   -6.5634   23.8197 C   0  0  0  0  0  0
  -21.3655   -5.6788   24.9168 C   0  0  0  0  0  0
  -21.6031   -4.3047   24.7230 C   0  0  0  0  0  0
  -21.8817   -3.8139   23.4356 C   0  0  0  0  0  0
  -21.9202   -4.6946   22.3412 C   0  0  0  0  0  0
  -22.7843  -13.5261   21.1818 C   0  0  0  0  0  0
  -22.1664   -4.2123   21.0984 F   0  0  0  0  0  0
  -21.5623   -3.4527   25.7742 F   0  0  0  0  0  0
  -30.0227  -13.3026   20.4222 N   0  0  0  0  0  0
  -26.2982  -12.9310   20.3310 N   0  0  0  0  0  0
  -25.9282  -11.6492   20.5737 N   0  0  0  0  0  0
  -22.0508  -12.8245   22.0374 N   0  0  0  0  0  0
  -25.4321  -15.1864   20.4089 N   0  0  0  0  0  0
  -31.8891  -14.5746   20.1692 O   0  0  0  0  0  0
  -21.6661   -6.8857   21.4224 O   0  0  0  0  0  0
  -22.3559  -14.5601   20.6695 O   0  0  0  0  0  0
  -24.6170  -31.8676   23.2112 C   0  0  0  0  0  0
  -25.9080  -32.4801   23.8391 C   0  0  1  0  0  0
  -27.2211  -27.4010   20.1024 C   0  0  0  0  0  0
  -25.5953  -33.8607   24.2315 N   0  0  0  0  0  0
  -23.4046  -30.4962   21.5492 C   0  0  2  0  0  0
  -24.8497  -28.9637   20.1120 C   0  0  0  0  0  0
  -22.7417  -29.4668   22.4945 C   0  0  0  0  0  0
  -18.0300  -28.1352   22.8477 C   0  0  0  0  0  0
  -24.1494  -36.7292   23.2625 C   0  0  0  0  0  0
  -25.9409  -30.8204   21.3747 C   0  0  0  0  0  0
  -26.0154  -29.4570   20.7111 C   0  0  0  0  0  0
  -27.2047  -28.6846   20.7030 C   0  0  0  0  0  0
  -26.0379  -26.9491   19.4671 C   0  0  0  0  0  0
  -24.8569  -27.7092   19.4855 C   0  0  0  0  0  0
  -23.6166  -29.8373   20.1623 C   0  0  0  0  0  0
  -25.4108  -36.3092   24.0323 C   0  0  1  0  0  0
  -20.5880  -28.3690   23.1303 C   0  0  2  0  0  0
  -20.6793  -26.9411   22.5467 C   0  0  0  0  0  0
  -19.5817  -26.6360   21.5222 C   0  0  0  0  0  0
  -18.1993  -26.7886   22.1646 C   0  0  0  0  0  0
  -19.1529  -28.8837   23.2873 C   0  0  0  0  0  0
  -18.9438  -30.1454   23.8854 C   0  0  0  0  0  0
  -17.6439  -30.6584   24.0495 C   0  0  0  0  0  0
  -25.9045  -34.9459   23.5102 C   0  0  0  0  0  0
  -16.5340  -29.9049   23.6285 C   0  0  0  0  0  0
  -16.7280  -28.6448   23.0352 C   0  0  0  0  0  0
  -26.4488  -31.6597   25.0738 C   0  0  0  0  0  0
  -25.3753  -31.3760   26.1499 C   0  0  0  0  0  0
  -27.0313  -30.3017   24.6168 C   0  0  0  0  0  0
  -27.6054  -32.4315   25.7500 C   0  0  0  0  0  0
  -27.5573  -37.1801   24.8449 C   0  0  0  0  0  0
  -21.4149  -29.3057   22.3704 N   0  0  0  0  0  0
  -26.4276  -37.3787   23.9397 N   0  0  0  0  0  0
  -24.6719  -31.0756   22.1025 N   0  0  0  0  0  0
  -23.4177  -28.8204   23.2990 O   0  0  0  0  0  0
  -28.3493  -26.5947   20.1797 O   0  0  0  0  0  0
  -26.5597  -34.8907   22.4658 O   0  0  0  0  0  0
  -23.5370  -32.1455   23.7507 O   0  0  0  0  0  0
  -29.1434  -19.9936   20.5712 C   0  0  0  0  0  0
  -30.0335  -19.7537   22.8097 C   0  0  0  0  0  0
  -29.6680  -20.5972   21.7361 C   0  0  0  0  0  0
  -28.9716  -18.5866   20.4860 C   0  0  0  0  0  0
  -29.3425  -17.7463   21.5724 C   0  0  0  0  0  0
  -29.8689  -18.3533   22.7358 C   0  0  0  0  0  0
  -29.1745  -24.2958   20.8593 C   0  0  0  0  0  0
  -28.3747  -18.0027   19.2151 C   0  0  0  0  0  0
  -27.4630  -22.6270   21.5385 C   0  0  0  0  0  0
  -29.8857  -22.1220   21.8682 C   0  0  0  0  0  0
  -29.1820  -16.2139   21.5258 C   0  0  0  0  0  0
  -28.0878  -25.1630   20.1580 C   0  0  0  0  0  0
  -29.9893  -15.5944   20.4742 N   0  0  0  0  0  0
  -28.8561  -23.0480   21.3279 N   0  0  0  0  0  0
  -30.3221  -24.7502   20.9411 O   0  0  0  0  0  0
  -30.2215  -17.5907   23.7987 F   0  0  0  0  0  0
  -31.4556  -12.3631   19.1306 H   0  0  0  0  0  0
  -30.2823  -11.2867   19.8376 H   0  0  0  0  0  0
  -29.7278  -11.7698   17.4232 H   0  0  0  0  0  0
  -29.6598  -13.4796   17.7761 H   0  0  0  0  0  0
  -27.8172  -11.3025   18.8173 H   0  0  0  0  0  0
  -27.3562  -12.6268   17.7860 H   0  0  0  0  0  0
  -27.6948  -14.2451   19.5505 H   0  0  0  0  0  0
  -28.6850  -11.9849   21.3649 H   0  0  0  0  0  0
  -28.4806  -13.6378   21.8552 H   0  0  0  0  0  0
  -25.2754   -9.5680   22.4696 H   0  0  0  0  0  0
  -24.0000   -7.4631   22.7425 H   0  0  0  0  0  0
  -21.0789   -8.8752   19.8977 H   0  0  0  0  0  0
  -22.3588  -10.9677   19.6182 H   0  0  0  0  0  0
  -21.2014   -7.6141   23.9681 H   0  0  0  0  0  0
  -21.1481   -6.0535   25.9060 H   0  0  0  0  0  0
  -22.0600   -2.7599   23.2871 H   0  0  0  0  0  0
  -22.4169  -11.9862   22.4649 H   0  0  0  0  0  0
  -21.1152  -13.1255   22.2699 H   0  0  0  0  0  0
  -24.6790  -15.8488   20.5553 H   0  0  0  0  0  0
  -26.2771  -15.6098   20.0502 H   0  0  0  0  0  0
  -26.7139  -32.5479   23.1129 H   0  0  0  0  0  0
  -25.0138  -33.9759   25.0487 H   0  0  0  0  0  0
  -22.6932  -31.3143   21.4136 H   0  0  0  0  0  0
  -23.3746  -35.9634   23.3302 H   0  0  0  0  0  0
  -24.3578  -36.8899   22.2034 H   0  0  0  0  0  0
  -23.7270  -37.6503   23.6640 H   0  0  0  0  0  0
  -26.0749  -31.5928   20.6172 H   0  0  0  0  0  0
  -26.8192  -30.8563   22.0068 H   0  0  0  0  0  0
  -28.0979  -29.0512   21.1913 H   0  0  0  0  0  0
  -25.9963  -25.9945   18.9633 H   0  0  0  0  0  0
  -23.9609  -27.3230   19.0198 H   0  0  0  0  0  0
  -23.7328  -30.6151   19.4062 H   0  0  0  0  0  0
  -22.7369  -29.2672   19.8577 H   0  0  0  0  0  0
  -25.1291  -36.1920   25.0815 H   0  0  0  0  0  0
  -20.9954  -28.3299   24.1427 H   0  0  0  0  0  0
  -20.5662  -26.2316   23.3671 H   0  0  0  0  0  0
  -21.6668  -26.7431   22.1297 H   0  0  0  0  0  0
  -19.7032  -25.6252   21.1281 H   0  0  0  0  0  0
  -19.6765  -27.3164   20.6754 H   0  0  0  0  0  0
  -17.4253  -26.6503   21.4076 H   0  0  0  0  0  0
  -18.0489  -26.0058   22.9085 H   0  0  0  0  0  0
  -19.7912  -30.7288   24.2197 H   0  0  0  0  0  0
  -17.4978  -31.6280   24.5066 H   0  0  0  0  0  0
  -15.5329  -30.2934   23.7606 H   0  0  0  0  0  0
  -15.8697  -28.0747   22.7081 H   0  0  0  0  0  0
  -24.5901  -30.7110   25.7880 H   0  0  0  0  0  0
  -24.8973  -32.2950   26.4903 H   0  0  0  0  0  0
  -25.8123  -30.8977   27.0280 H   0  0  0  0  0  0
  -26.2908  -29.6803   24.1120 H   0  0  0  0  0  0
  -27.3941  -29.7223   25.4670 H   0  0  0  0  0  0
  -27.8805  -30.4286   23.9452 H   0  0  0  0  0  0
  -27.2655  -33.3580   26.2126 H   0  0  0  0  0  0
  -28.3854  -32.6927   25.0341 H   0  0  0  0  0  0
  -28.0732  -31.8416   26.5389 H   0  0  0  0  0  0
  -28.2584  -38.0112   24.7500 H   0  0  0  0  0  0
  -28.1096  -36.2637   24.6271 H   0  0  0  0  0  0
  -27.2292  -37.1435   25.8860 H   0  0  0  0  0  0
  -20.9322  -29.8791   21.6932 H   0  0  0  0  0  0
  -26.0157  -38.2852   24.1436 H   0  0  0  0  0  0
  -28.8691  -20.6175   19.7316 H   0  0  0  0  0  0
  -30.4455  -20.1776   23.7123 H   0  0  0  0  0  0
  -28.0696  -18.7866   18.5207 H   0  0  0  0  0  0
  -27.4970  -17.3967   19.4374 H   0  0  0  0  0  0
  -29.1002  -17.3774   18.6949 H   0  0  0  0  0  0
  -26.8892  -23.3920   22.0625 H   0  0  0  0  0  0
  -27.3852  -21.7402   22.1673 H   0  0  0  0  0  0
  -26.9727  -22.4036   20.5906 H   0  0  0  0  0  0
  -30.8609  -22.3364   21.4252 H   0  0  0  0  0  0
  -29.9933  -22.3610   22.9280 H   0  0  0  0  0  0
  -28.1308  -15.9811   21.3595 H   0  0  0  0  0  0
  -29.4311  -15.7729   22.4923 H   0  0  0  0  0  0
  -27.1309  -24.9714   20.6371 H   0  0  0  0  0  0
  -28.0070  -24.8275   19.1231 H   0  0  0  0  0  0
  -30.5069  -16.3018   19.9751 H   0  0  0  0  0  0
  1 25  1  0  0  0
  1 30  2  0  0  0
  1 83  1  0  0  0
  2  3  1  0  0  0
  2 25  1  0  0  0
  2 87  1  0  0  0
  2 88  1  0  0  0
  3  4  1  0  0  0
  3 89  1  0  0  0
  3 90  1  0  0  0
  4  5  1  0  0  0
  4 91  1  0  0  0
  4 92  1  0  0  0
  5  6  1  0  0  0
  5 26  1  0  0  0
  5 93  1  0  0  0
  6 25  1  0  0  0
  6 94  1  0  0  0
  6 95  1  0  0  0
  7  8  2  0  0  0
  7 26  1  0  0  0
  7 29  1  0  0  0
  8  9  1  0  0  0
  8 22  1  0  0  0
  9 10  1  0  0  0
  9 27  2  0  0  0
 10 11  2  0  0  0
 10 15  1  0  0  0
 11 12  1  0  0  0
 11 96  1  0  0  0
 12 13  2  0  0  0
 12 97  1  0  0  0
 13 14  1  0  0  0
 13 31  1  0  0  0
 14 15  2  0  0  0
 14 98  1  0  0  0
 15 99  1  0  0  0
 16 17  2  0  0  0
 16 21  1  0  0  0
 16 31  1  0  0  0
 17 18  1  0  0  0
 17100  1  0  0  0
 18 19  2  0  0  0
 18101  1  0  0  0
 19 20  1  0  0  0
 19 24  1  0  0  0
 20 21  2  0  0  0
 20102  1  0  0  0
 21 23  1  0  0  0
 22 28  1  0  0  0
 22 32  2  0  0  0
 26 27  1  0  0  0
 28103  1  0  0  0
 28104  1  0  0  0
 29105  1  0  0  0
 29106  1  0  0  0
 33 34  1  0  0  0
 33 66  1  0  0  0
 33 70  2  0  0  0
 34 36  1  0  0  0
 34 59  1  0  0  0
 34107  1  0  0  0
 35 44  2  0  0  0
 35 45  1  0  0  0
 35 68  1  0  0  0
 36 56  1  0  0  0
 36108  1  0  0  0
 37 39  1  0  0  0
 37 47  1  0  0  0
 37 66  1  0  0  0
 37109  1  0  0  0
 38 43  2  0  0  0
 38 46  1  0  0  0
 38 47  1  0  0  0
 39 64  1  0  0  0
 39 67  2  0  0  0
 40 52  1  0  0  0
 40 53  2  0  0  0
 40 58  1  0  0  0
 41110  1  0  0  0
 41111  1  0  0  0
 41112  1  0  0  0
 41 48  1  0  0  0
 42 43  1  0  0  0
 42 66  1  0  0  0
 42113  1  0  0  0
 42114  1  0  0  0
 43 44  1  0  0  0
 44115  1  0  0  0
 45 46  2  0  0  0
 45116  1  0  0  0
 46117  1  0  0  0
 47118  1  0  0  0
 47119  1  0  0  0
 48 56  1  0  0  0
 48 65  1  0  0  0
 48120  1  0  0  0
 49 50  1  0  0  0
 49 53  1  0  0  0
 49 64  1  0  0  0
 49121  1  0  0  0
 50 51  1  0  0  0
 50122  1  0  0  0
 50123  1  0  0  0
 51 52  1  0  0  0
 51124  1  0  0  0
 51125  1  0  0  0
 52126  1  0  0  0
 52127  1  0  0  0
 53 54  1  0  0  0
 54 55  2  0  0  0
 54128  1  0  0  0
 55 57  1  0  0  0
 55129  1  0  0  0
 56 69  2  0  0  0
 57 58  2  0  0  0
 57130  1  0  0  0
 58131  1  0  0  0
 59 60  1  0  0  0
 59 61  1  0  0  0
 59 62  1  0  0  0
 60132  1  0  0  0
 60133  1  0  0  0
 60134  1  0  0  0
 61135  1  0  0  0
 61136  1  0  0  0
 61137  1  0  0  0
 62138  1  0  0  0
 62139  1  0  0  0
 62140  1  0  0  0
 63 65  1  0  0  0
 63141  1  0  0  0
 63142  1  0  0  0
 63143  1  0  0  0
 64144  1  0  0  0
 65145  1  0  0  0
 68 82  1  0  0  0
 71 73  2  0  0  0
 71 74  1  0  0  0
 71146  1  0  0  0
 72 73  1  0  0  0
 72 76  2  0  0  0
 72147  1  0  0  0
 73 80  1  0  0  0
 74 75  2  0  0  0
 74 78  1  0  0  0
 75 76  1  0  0  0
 75 81  1  0  0  0
 76 86  1  0  0  0
 77 82  1  0  0  0
 77 84  1  0  0  0
 77 85  2  0  0  0
 78148  1  0  0  0
 78149  1  0  0  0
 78150  1  0  0  0
 79 84  1  0  0  0
 79151  1  0  0  0
 79152  1  0  0  0
 79153  1  0  0  0
 80 84  1  0  0  0
 80154  1  0  0  0
 80155  1  0  0  0
 81 83  1  0  0  0
 81156  1  0  0  0
 81157  1  0  0  0
 82158  1  0  0  0
 82159  1  0  0  0
 83160  1  0  0  0
M  ISO  4   1 100  68 101  82 101  83 100
M  END
> <chiral flag>
0

> <version>
0

> <s_m_source_file>
/data/baiqing/PycharmProjects/Reinvent-master-3.2/result/LINK_invent/BTK/process_docking_weight1_custom_product_contain_oxygen_bond_distance_aromatic_linkinvent_7_9_3/rearranged_h_0040.sdf

> <i_m_source_file_index>
35

> <r_mmod_Potential_Energy-OPLS-2005>
39.7825393676758

> <r_mmod_Stretch_Energy-OPLS-2005>
46.9126739501953

> <r_mmod_Bend_Energy-OPLS-2005>
113.919853210449

> <r_mmod_Torsional_Energy-OPLS-2005>
271.29736328125

> <r_mmod_Improper_Torsional_Energy-OPLS-2005>
22.4397449493408

> <r_mmod_Van_der_Waal_Energy-OPLS-2005>
162.878570556641

> <r_mmod_Electrostatic_Energy-OPLS-2005>
-371.297332763672

> <r_mmod_Solvation_Energy-OPLS-2005>
-229.555328369141

> <b_mmod_Minimization_Converged-OPLS-2005>
0

> <r_mmod_RMS_Derivative-OPLS-2005>
3.30475664138794

$$$$
35
                    3D
 Structure written by MMmdl.
182191  0  0  1  0            999 V2000
  -30.3235  -15.2842   20.4198 C   0  0  0  0  0  0
  -30.4346  -12.8210   19.5518 C   0  0  0  0  0  0
  -29.5399  -12.5825   18.3027 C   0  0  0  0  0  0
  -28.0885  -12.2785   18.7198 C   0  0  0  0  0  0
  -27.6016  -13.2469   19.8227 C   0  0  2  0  0  0
  -28.6141  -13.4139   20.9688 C   0  0  0  0  0  0
  -25.2251  -13.7842   20.5554 C   0  0  0  0  0  0
  -24.1665  -13.0185   20.9359 C   0  0  0  0  0  0
  -24.6343  -11.6701   20.8884 C   0  0  0  0  0  0
  -23.9028  -10.4124   21.0485 C   0  0  0  0  0  0
  -24.3575   -9.4052   21.9257 C   0  0  0  0  0  0
  -23.6219   -8.2116   22.0787 C   0  0  0  0  0  0
  -22.4228   -8.0180   21.3549 C   0  0  0  0  0  0
  -21.9867   -9.0172   20.4667 C   0  0  0  0  0  0
  -22.7219  -10.2034   20.3080 C   0  0  0  0  0  0
  -21.6811   -6.0675   22.5296 C   0  0  0  0  0  0
  -21.3985   -6.5598   23.8234 C   0  0  0  0  0  0
  -21.3664   -5.6765   24.9199 C   0  0  0  0  0  0
  -21.6048   -4.3036   24.7265 C   0  0  0  0  0  0
  -21.8800   -3.8104   23.4400 C   0  0  0  0  0  0
  -21.9158   -4.6895   22.3433 C   0  0  0  0  0  0
  -22.7716  -13.5044   21.2000 C   0  0  0  0  0  0
  -22.1635   -4.2087   21.1015 F   0  0  0  0  0  0
  -21.5652   -3.4508   25.7790 F   0  0  0  0  0  0
  -29.8375  -13.9483   20.3640 N   0  0  0  0  0  0
  -26.2726  -12.9207   20.3130 N   0  0  0  0  0  0
  -25.9285  -11.6381   20.5798 N   0  0  0  0  0  0
  -22.0283  -12.8139   22.0552 N   0  0  0  0  0  0
  -25.3614  -15.1393   20.3457 N   0  0  0  0  0  0
  -31.5405  -15.3503   20.1701 O   0  0  0  0  0  0
  -21.6561   -6.8818   21.4261 O   0  0  0  0  0  0
  -22.3492  -14.5346   20.6763 O   0  0  0  0  0  0
  -24.6078  -31.8705   23.2207 C   0  0  0  0  0  0
  -25.9033  -32.4846   23.8460 C   0  0  1  0  0  0
  -28.0638  -27.2117   19.4988 C   0  0  0  0  0  0
  -25.5893  -33.8640   24.2354 N   0  0  0  0  0  0
  -23.3691  -30.4398   21.5950 C   0  0  2  0  0  0
  -24.5529  -28.4650   20.4994 C   0  0  0  0  0  0
  -22.7000  -29.4975   22.5941 C   0  0  0  0  0  0
  -18.0179  -28.1378   22.8521 C   0  0  0  0  0  0
  -24.1493  -36.7357   23.2660 C   0  0  0  0  0  0
  -25.8946  -30.8081   21.4079 C   0  0  0  0  0  0
  -26.0834  -29.3634   21.0815 C   0  0  0  0  0  0
  -27.8203  -28.8221   20.5792 C   0  0  0  0  0  0
  -26.4551  -26.2264   18.8225 C   0  0  0  0  0  0
  -24.6687  -26.8828   19.3929 C   0  0  0  0  0  0
  -23.5077  -29.5564   20.3173 C   0  0  0  0  0  0
  -25.4086  -36.3088   24.0349 C   0  0  1  0  0  0
  -20.5681  -28.3586   23.1603 C   0  0  2  0  0  0
  -20.6699  -26.9415   22.5497 C   0  0  0  0  0  0
  -19.5721  -26.6429   21.5225 C   0  0  0  0  0  0
  -18.1873  -26.7941   22.1599 C   0  0  0  0  0  0
  -19.1398  -28.8803   23.3026 C   0  0  0  0  0  0
  -18.9355  -30.1412   23.9044 C   0  0  0  0  0  0
  -17.6378  -30.6619   24.0587 C   0  0  0  0  0  0
  -25.9005  -34.9476   23.5124 C   0  0  0  0  0  0
  -16.5285  -29.9123   23.6292 C   0  0  0  0  0  0
  -16.7167  -28.6516   23.0341 C   0  0  0  0  0  0
  -26.4587  -31.6751   25.0821 C   0  0  0  0  0  0
  -25.3986  -31.3833   26.1677 C   0  0  0  0  0  0
  -27.0371  -30.3175   24.6351 C   0  0  0  0  0  0
  -27.6172  -32.4604   25.7420 C   0  0  0  0  0  0
  -27.5576  -37.1810   24.8439 C   0  0  0  0  0  0
  -21.3887  -29.3117   22.4245 N   0  0  0  0  0  0
  -26.4251  -37.3767   23.9429 N   0  0  0  0  0  0
  -24.6461  -31.0552   22.1274 N   0  0  0  0  0  0
  -23.3687  -28.8858   23.4268 O   0  0  0  0  0  0
  -28.9128  -26.4124   20.1613 O   0  0  0  0  0  0
  -26.5548  -34.8933   22.4674 O   0  0  0  0  0  0
  -23.5281  -32.1593   23.7598 O   0  0  0  0  0  0
  -28.3749  -21.0516   20.7450 C   0  0  0  0  0  0
  -28.3099  -19.5075   20.5922 C   0  0  0  0  0  0
  -27.2834  -22.1442   20.5668 C   0  0  0  0  0  0
  -26.9497  -19.1762   20.4177 C   0  0  0  0  0  0
  -26.1460  -21.5300   19.9407 C   0  0  0  0  0  0
  -25.9843  -20.1018   19.9139 C   0  0  0  0  0  0
  -26.3502  -27.0372   20.9358 C   0  0  0  0  0  0
  -26.2432  -28.4429   19.0079 C   0  0  0  0  0  0
  -24.8278  -26.0123   23.9386 C   0  0  0  0  0  0
  -26.2079  -26.2425   24.5255 C   0  0  0  0  0  0
  -24.6975  -24.6661   23.2039 C   0  0  0  0  0  0
  -27.3332  -26.0400   23.4971 C   0  0  0  0  0  0
  -24.8292  -24.8389   21.6655 C   0  0  0  0  0  0
  -27.4215  -26.9543   22.2097 C   0  0  1  0  0  0
  -26.4678  -17.8516   20.9711 C   0  0  0  0  0  0
  -25.0139  -22.3532   19.3010 C   0  0  0  0  0  0
  -24.6942  -19.4923   19.3550 C   0  0  0  0  0  0
  -29.5077  -18.1851   20.6379 C   0  0  0  0  0  0
  -27.2524  -23.9100   20.8403 C   0  0  0  0  0  0
  -28.8876  -26.6825   21.5922 C   0  0  0  0  0  0
  -29.4542  -16.4927   20.5813 N   0  0  0  0  0  0
  -26.2028  -25.2276   21.1907 N   0  3  1  0  0  0
  -31.4531  -13.0550   19.2294 H   0  0  0  0  0  0
  -30.5254  -11.9078   20.1466 H   0  0  0  0  0  0
  -29.9285  -11.7732   17.6873 H   0  0  0  0  0  0
  -29.5493  -13.4778   17.6782 H   0  0  0  0  0  0
  -28.0604  -11.2529   19.0935 H   0  0  0  0  0  0
  -27.4194  -12.3096   17.8592 H   0  0  0  0  0  0
  -27.5148  -14.2127   19.3279 H   0  0  0  0  0  0
  -28.7926  -12.4741   21.4888 H   0  0  0  0  0  0
  -28.2273  -14.1150   21.7125 H   0  0  0  0  0  0
  -25.2701   -9.5491   22.4865 H   0  0  0  0  0  0
  -23.9879   -7.4456   22.7479 H   0  0  0  0  0  0
  -21.0812   -8.8697   19.8940 H   0  0  0  0  0  0
  -22.3710  -10.9578   19.6176 H   0  0  0  0  0  0
  -21.1982   -7.6098   23.9728 H   0  0  0  0  0  0
  -21.1527   -6.0508   25.9123 H   0  0  0  0  0  0
  -22.0578   -2.7544   23.2918 H   0  0  0  0  0  0
  -22.3781  -11.9772   22.4991 H   0  0  0  0  0  0
  -21.0897  -13.1207   22.2627 H   0  0  0  0  0  0
  -24.5340  -15.7264   20.3719 H   0  0  0  0  0  0
  -26.1016  -15.5214   19.7759 H   0  0  0  0  0  0
  -26.7205  -32.5738   23.1368 H   0  0  0  0  0  0
  -25.0073  -33.9780   25.0513 H   0  0  0  0  0  0
  -22.6849  -31.2608   21.3802 H   0  0  0  0  0  0
  -23.3673  -35.9773   23.3294 H   0  0  0  0  0  0
  -24.3599  -36.9006   22.2085 H   0  0  0  0  0  0
  -23.7358  -37.6587   23.6714 H   0  0  0  0  0  0
  -25.8691  -31.3724   20.4704 H   0  0  0  0  0  0
  -26.8283  -31.0812   21.8819 H   0  0  0  0  0  0
  -28.6478  -29.4202   20.9320 H   0  0  0  0  0  0
  -26.5629  -25.3283   18.2296 H   0  0  0  0  0  0
  -23.7727  -26.4452   18.9629 H   0  0  0  0  0  0
  -23.8168  -30.1875   19.4831 H   0  0  0  0  0  0
  -22.5591  -29.1160   20.0021 H   0  0  0  0  0  0
  -25.1279  -36.1876   25.0830 H   0  0  0  0  0  0
  -20.9639  -28.3069   24.1768 H   0  0  0  0  0  0
  -20.5592  -26.2225   23.3630 H   0  0  0  0  0  0
  -21.6599  -26.7542   22.1350 H   0  0  0  0  0  0
  -19.6883  -25.6343   21.1232 H   0  0  0  0  0  0
  -19.6701  -27.3268   20.6780 H   0  0  0  0  0  0
  -17.4155  -26.6664   21.3981 H   0  0  0  0  0  0
  -18.0325  -26.0065   22.8986 H   0  0  0  0  0  0
  -19.7837  -30.7152   24.2511 H   0  0  0  0  0  0
  -17.4938  -31.6295   24.5175 H   0  0  0  0  0  0
  -15.5296  -30.3088   23.7520 H   0  0  0  0  0  0
  -15.8529  -28.0865   22.7071 H   0  0  0  0  0  0
  -24.5768  -30.7702   25.7981 H   0  0  0  0  0  0
  -24.9748  -32.3047   26.5674 H   0  0  0  0  0  0
  -25.8397  -30.8423   27.0057 H   0  0  0  0  0  0
  -27.5600  -29.8326   25.4616 H   0  0  0  0  0  0
  -27.7688  -30.4183   23.8364 H   0  0  0  0  0  0
  -26.2504  -29.6411   24.3008 H   0  0  0  0  0  0
  -27.2674  -33.3802   26.2122 H   0  0  0  0  0  0
  -28.3767  -32.7443   25.0113 H   0  0  0  0  0  0
  -28.1159  -31.8829   26.5212 H   0  0  0  0  0  0
  -28.2534  -38.0149   24.7460 H   0  0  0  0  0  0
  -28.1117  -36.2678   24.6217 H   0  0  0  0  0  0
  -27.2358  -37.1436   25.8857 H   0  0  0  0  0  0
  -20.9226  -29.8595   21.7201 H   0  0  0  0  0  0
  -26.0105  -38.2823   24.1409 H   0  0  0  0  0  0
  -29.3529  -21.4205   21.0345 H   0  0  0  0  0  0
  -26.6331  -29.4437   18.8095 H   0  0  0  0  0  0
  -25.7691  -28.2724   18.0314 H   0  0  0  0  0  0
  -24.6266  -26.8262   23.2525 H   0  0  0  0  0  0
  -24.0876  -26.0982   24.7368 H   0  0  0  0  0  0
  -26.3393  -25.5364   25.3497 H   0  0  0  0  0  0
  -26.2540  -27.2300   24.9911 H   0  0  0  0  0  0
  -23.7132  -24.2559   23.4370 H   0  0  0  0  0  0
  -25.3831  -23.9205   23.6069 H   0  0  0  0  0  0
  -27.4471  -24.9769   23.2995 H   0  0  0  0  0  0
  -28.2484  -26.2368   24.0635 H   0  0  0  0  0  0
  -24.1013  -25.5954   21.3941 H   0  0  0  0  0  0
  -24.4953  -23.9351   21.1818 H   0  0  0  0  0  0
  -27.4085  -27.9194   22.7206 H   0  0  0  0  0  0
  -27.1285  -17.0237   20.7719 H   0  0  0  0  0  0
  -25.4838  -17.5632   20.6342 H   0  0  0  0  0  0
  -26.3804  -17.9452   22.0531 H   0  0  0  0  0  0
  -25.1947  -23.4121   19.1650 H   0  0  0  0  0  0
  -24.1031  -22.2578   19.8904 H   0  0  0  0  0  0
  -24.7787  -22.0153   18.2913 H   0  0  0  0  0  0
  -24.9194  -18.5621   18.8323 H   0  0  0  0  0  0
  -24.1690  -20.0827   18.6145 H   0  0  0  0  0  0
  -23.9942  -19.2825   20.1615 H   0  0  0  0  0  0
  -30.1001  -18.3964   21.5278 H   0  0  0  0  0  0
  -30.1798  -18.4387   19.8163 H   0  0  0  0  0  0
  -26.6919  -23.4443   21.6457 H   0  0  0  0  0  0
  -27.0477  -23.9523   19.7852 H   0  0  0  0  0  0
  -29.3806  -25.8420   22.0817 H   0  0  0  0  0  0
  -29.5775  -27.5050   21.8026 H   0  0  0  0  0  0
  -28.5136  -16.1703   20.7408 H   0  0  0  0  0  0
  -26.5643  -25.2653   22.1309 H   0  0  0  0  0  0
  1 25  1  0  0  0
  1 30  2  0  0  0
  1 91  1  0  0  0
  2  3  1  0  0  0
  2 25  1  0  0  0
  2 93  1  0  0  0
  2 94  1  0  0  0
  3  4  1  0  0  0
  3 95  1  0  0  0
  3 96  1  0  0  0
  4  5  1  0  0  0
  4 97  1  0  0  0
  4 98  1  0  0  0
  5  6  1  0  0  0
  5 26  1  0  0  0
  5 99  1  0  0  0
  6 25  1  0  0  0
  6100  1  0  0  0
  6101  1  0  0  0
  7  8  2  0  0  0
  7 26  1  0  0  0
  7 29  1  0  0  0
  8  9  1  0  0  0
  8 22  1  0  0  0
  9 10  1  0  0  0
  9 27  2  0  0  0
 10 11  2  0  0  0
 10 15  1  0  0  0
 11 12  1  0  0  0
 11102  1  0  0  0
 12 13  2  0  0  0
 12103  1  0  0  0
 13 14  1  0  0  0
 13 31  1  0  0  0
 14 15  2  0  0  0
 14104  1  0  0  0
 15105  1  0  0  0
 16 17  2  0  0  0
 16 21  1  0  0  0
 16 31  1  0  0  0
 17 18  1  0  0  0
 17106  1  0  0  0
 18 19  2  0  0  0
 18107  1  0  0  0
 19 20  1  0  0  0
 19 24  1  0  0  0
 20 21  2  0  0  0
 20108  1  0  0  0
 21 23  1  0  0  0
 22 28  1  0  0  0
 22 32  2  0  0  0
 26 27  1  0  0  0
 28109  1  0  0  0
 28110  1  0  0  0
 29111  1  0  0  0
 29112  1  0  0  0
 33 34  1  0  0  0
 33 66  1  0  0  0
 33 70  2  0  0  0
 34 36  1  0  0  0
 34 59  1  0  0  0
 34113  1  0  0  0
 35 44  2  0  0  0
 35 45  1  0  0  0
 35 68  1  0  0  0
 36 56  1  0  0  0
 36114  1  0  0  0
 37 39  1  0  0  0
 37 47  1  0  0  0
 37 66  1  0  0  0
 37115  1  0  0  0
 38 43  2  0  0  0
 38 46  1  0  0  0
 38 47  1  0  0  0
 39 64  1  0  0  0
 39 67  2  0  0  0
 40 52  1  0  0  0
 40 53  2  0  0  0
 40 58  1  0  0  0
 41116  1  0  0  0
 41117  1  0  0  0
 41118  1  0  0  0
 41 48  1  0  0  0
 42 43  1  0  0  0
 42 66  1  0  0  0
 42119  1  0  0  0
 42120  1  0  0  0
 43 44  1  0  0  0
 44121  1  0  0  0
 45 46  2  0  0  0
 45122  1  0  0  0
 46123  1  0  0  0
 47124  1  0  0  0
 47125  1  0  0  0
 48 56  1  0  0  0
 48 65  1  0  0  0
 48126  1  0  0  0
 49 50  1  0  0  0
 49 53  1  0  0  0
 49 64  1  0  0  0
 49127  1  0  0  0
 50 51  1  0  0  0
 50128  1  0  0  0
 50129  1  0  0  0
 51 52  1  0  0  0
 51130  1  0  0  0
 51131  1  0  0  0
 52132  1  0  0  0
 52133  1  0  0  0
 53 54  1  0  0  0
 54 55  2  0  0  0
 54134  1  0  0  0
 55 57  1  0  0  0
 55135  1  0  0  0
 56 69  2  0  0  0
 57 58  2  0  0  0
 57136  1  0  0  0
 58137  1  0  0  0
 59 60  1  0  0  0
 59 61  1  0  0  0
 59 62  1  0  0  0
 60138  1  0  0  0
 60139  1  0  0  0
 60140  1  0  0  0
 61141  1  0  0  0
 61142  1  0  0  0
 61143  1  0  0  0
 62144  1  0  0  0
 62145  1  0  0  0
 62146  1  0  0  0
 63 65  1  0  0  0
 63147  1  0  0  0
 63148  1  0  0  0
 63149  1  0  0  0
 64150  1  0  0  0
 65151  1  0  0  0
 68 90  1  0  0  0
 71 72  2  0  0  0
 71 73  1  0  0  0
 71152  1  0  0  0
 72 74  1  0  0  0
 72 88  1  0  0  0
 73 75  2  0  0  0
 73 89  1  0  0  0
 74 76  2  0  0  0
 74 85  1  0  0  0
 75 76  1  0  0  0
 75 86  1  0  0  0
 76 87  1  0  0  0
 77 78  2  0  0  0
 77 84  1  0  0  0
 77 92  1  0  0  0
 78153  1  0  0  0
 78154  1  0  0  0
 79 80  1  0  0  0
 79 81  1  0  0  0
 79155  1  0  0  0
 79156  1  0  0  0
 80 82  1  0  0  0
 80157  1  0  0  0
 80158  1  0  0  0
 81 83  1  0  0  0
 81159  1  0  0  0
 81160  1  0  0  0
 82 84  1  0  0  0
 82161  1  0  0  0
 82162  1  0  0  0
 83 92  1  0  0  0
 83163  1  0  0  0
 83164  1  0  0  0
 84 90  1  0  0  0
 84165  1  0  0  0
 85166  1  0  0  0
 85167  1  0  0  0
 85168  1  0  0  0
 86169  1  0  0  0
 86170  1  0  0  0
 86171  1  0  0  0
 87172  1  0  0  0
 87173  1  0  0  0
 87174  1  0  0  0
 88 91  1  0  0  0
 88175  1  0  0  0
 88176  1  0  0  0
 89177  1  0  0  0
 89178  1  0  0  0
 89 92  1  0  0  0
 90179  1  0  0  0
 90180  1  0  0  0
 91181  1  0  0  0
 92182  1  0  0  0
M  CHG  1  92   1
M  ISO  4   1 100  68 101  90 101  91 100
M  END
> <chiral flag>
0

> <version>
0

> <s_m_source_file>
/data/baiqing/PycharmProjects/Reinvent-master-3.2/result/LINK_invent/BTK/process_docking_weight1_custom_product_contain_oxygen_bond_distance_aromatic_linkinvent_7_9_3/rearranged_h_0040.sdf

> <i_m_source_file_index>
36

> <r_mmod_Potential_Energy-OPLS-2005>
11396.8740234375

> <r_mmod_Stretch_Energy-OPLS-2005>
6765.05908203125

> <r_mmod_Bend_Energy-OPLS-2005>
861.173950195312

> <r_mmod_Torsional_Energy-OPLS-2005>
489.12060546875

> <r_mmod_Improper_Torsional_Energy-OPLS-2005>
45.4529800415039

> <r_mmod_Van_der_Waal_Energy-OPLS-2005>
3220.40991210938

> <r_mmod_Electrostatic_Energy-OPLS-2005>
-367.723815917969

> <r_mmod_Solvation_Energy-OPLS-2005>
-379.233734130859

> <b_mmod_Minimization_Converged-OPLS-2005>
0

> <r_mmod_RMS_Derivative-OPLS-2005>
15.626275062561

$$$$
36
                    3D
 Structure written by MMmdl.
165173  0  0  1  0            999 V2000
  -30.7332  -14.4348   20.5983 C   0  0  0  0  0  0
  -30.4247  -12.2965   19.4203 C   0  0  0  0  0  0
  -29.4935  -12.5028   18.2079 C   0  0  0  0  0  0
  -28.0162  -12.3626   18.6233 C   0  0  0  0  0  0
  -27.6653  -13.2051   19.8792 C   0  0  2  0  0  0
  -28.7070  -12.9815   20.9999 C   0  0  0  0  0  0
  -25.2597  -13.8163   20.5664 C   0  0  0  0  0  0
  -24.1839  -13.0446   20.9162 C   0  0  0  0  0  0
  -24.6386  -11.6912   20.8735 C   0  0  0  0  0  0
  -23.9040  -10.4296   21.0401 C   0  0  0  0  0  0
  -24.3603   -9.4214   21.9171 C   0  0  0  0  0  0
  -23.6297   -8.2242   22.0743 C   0  0  0  0  0  0
  -22.4273   -8.0271   21.3542 C   0  0  0  0  0  0
  -21.9900   -9.0231   20.4640 C   0  0  0  0  0  0
  -22.7214  -10.2120   20.3051 C   0  0  0  0  0  0
  -21.6840   -6.0740   22.5274 C   0  0  0  0  0  0
  -21.4001   -6.5645   23.8205 C   0  0  0  0  0  0
  -21.3668   -5.6797   24.9169 C   0  0  0  0  0  0
  -21.6056   -4.3062   24.7218 C   0  0  0  0  0  0
  -21.8818   -3.8152   23.4335 C   0  0  0  0  0  0
  -21.9192   -4.6970   22.3393 C   0  0  0  0  0  0
  -22.7859  -13.5247   21.1836 C   0  0  0  0  0  0
  -22.1653   -4.2156   21.0969 F   0  0  0  0  0  0
  -21.5642   -3.4546   25.7730 F   0  0  0  0  0  0
  -30.0422  -13.2737   20.4485 N   0  0  0  0  0  0
  -26.3043  -12.9334   20.3384 N   0  0  0  0  0  0
  -25.9320  -11.6494   20.5789 N   0  0  0  0  0  0
  -22.0504  -12.8243   22.0411 N   0  0  0  0  0  0
  -25.4353  -15.1872   20.4038 N   0  0  0  0  0  0
  -31.8482  -14.6249   20.1079 O   0  0  0  0  0  0
  -21.6633   -6.8875   21.4236 O   0  0  0  0  0  0
  -22.3555  -14.5567   20.6698 O   0  0  0  0  0  0
  -24.6114  -31.8697   23.2110 C   0  0  0  0  0  0
  -25.9019  -32.4830   23.8395 C   0  0  1  0  0  0
  -27.2369  -27.4612   20.0934 C   0  0  0  0  0  0
  -25.5888  -33.8623   24.2327 N   0  0  0  0  0  0
  -23.3989  -30.4945   21.5491 C   0  0  2  0  0  0
  -24.8479  -28.9622   20.1131 C   0  0  0  0  0  0
  -22.7392  -29.4671   22.4965 C   0  0  0  0  0  0
  -18.0270  -28.1386   22.8493 C   0  0  0  0  0  0
  -24.1488  -36.7319   23.2635 C   0  0  0  0  0  0
  -25.9246  -30.8441   21.3594 C   0  0  0  0  0  0
  -26.0056  -29.4795   20.7097 C   0  0  0  0  0  0
  -27.2060  -28.7355   20.6991 C   0  0  0  0  0  0
  -26.0671  -26.9550   19.4888 C   0  0  0  0  0  0
  -24.8726  -27.6977   19.5007 C   0  0  0  0  0  0
  -23.6082  -29.8254   20.1629 C   0  0  0  0  0  0
  -25.4106  -36.3110   24.0336 C   0  0  1  0  0  0
  -20.5860  -28.3664   23.1322 C   0  0  2  0  0  0
  -20.6759  -26.9404   22.5416 C   0  0  0  0  0  0
  -19.5738  -26.6397   21.5212 C   0  0  0  0  0  0
  -18.1919  -26.7937   22.1629 C   0  0  0  0  0  0
  -19.1519  -28.8840   23.2916 C   0  0  0  0  0  0
  -18.9453  -30.1449   23.8926 C   0  0  0  0  0  0
  -17.6454  -30.6590   24.0579 C   0  0  0  0  0  0
  -25.9029  -34.9474   23.5130 C   0  0  0  0  0  0
  -16.5345  -29.9098   23.6324 C   0  0  0  0  0  0
  -16.7267  -28.6519   23.0344 C   0  0  0  0  0  0
  -26.4467  -31.6603   25.0706 C   0  0  0  0  0  0
  -25.3752  -31.3715   26.1472 C   0  0  0  0  0  0
  -27.0285  -30.3045   24.6062 C   0  0  0  0  0  0
  -27.6041  -32.4318   25.7464 C   0  0  0  0  0  0
  -27.5582  -37.1811   24.8464 C   0  0  0  0  0  0
  -21.4121  -29.3044   22.3728 N   0  0  0  0  0  0
  -26.4291  -37.3791   23.9407 N   0  0  0  0  0  0
  -24.6632  -31.0828   22.0983 N   0  0  0  0  0  0
  -23.4180  -28.8209   23.2989 O   0  0  0  0  0  0
  -28.3877  -26.7121   20.0909 O   0  0  0  0  0  0
  -26.5587  -34.8928   22.4685 O   0  0  0  0  0  0
  -23.5321  -32.1417   23.7536 O   0  0  0  0  0  0
  -29.9332  -17.2816   18.9134 C   0  0  0  0  0  0
  -29.2059  -19.4565   18.1093 C   0  0  0  0  0  0
  -29.5129  -18.1085   17.8586 C   0  0  0  0  0  0
  -30.0852  -17.7837   20.2246 C   0  0  0  0  0  0
  -29.3432  -19.9938   19.4073 C   0  0  0  0  0  0
  -29.8391  -19.1715   20.4633 C   0  0  0  0  0  0
  -29.3676  -17.5302   16.4661 C   0  0  0  0  0  0
  -30.0820  -19.7827   21.8419 C   0  0  0  0  0  0
  -30.5139  -16.8199   21.3478 C   0  0  0  0  0  0
  -28.8573  -21.4301   19.6322 C   0  0  0  0  0  0
  -29.3921  -24.5084   20.6070 C   0  0  0  0  0  0
  -29.2705  -23.8485   19.2138 C   0  0  0  0  0  0
  -28.2871  -25.5390   20.9020 C   0  0  0  0  0  0
  -30.0621  -15.4293   21.1953 N   0  0  0  0  0  0
  -29.8079  -22.4628   19.1625 N   0  3  0  0  0  0
  -31.4683  -12.3945   19.1151 H   0  0  0  0  0  0
  -30.3239  -11.2841   19.8162 H   0  0  0  0  0  0
  -29.7324  -11.7804   17.4265 H   0  0  0  0  0  0
  -29.6604  -13.4935   17.7796 H   0  0  0  0  0  0
  -27.8287  -11.3075   18.8258 H   0  0  0  0  0  0
  -27.3623  -12.6323   17.7943 H   0  0  0  0  0  0
  -27.7151  -14.2527   19.5830 H   0  0  0  0  0  0
  -28.6728  -11.9474   21.3465 H   0  0  0  0  0  0
  -28.4705  -13.5869   21.8764 H   0  0  0  0  0  0
  -25.2754   -9.5700   22.4731 H   0  0  0  0  0  0
  -24.0019   -7.4641   22.7461 H   0  0  0  0  0  0
  -21.0827   -8.8732   19.8949 H   0  0  0  0  0  0
  -22.3659  -10.9649   19.6158 H   0  0  0  0  0  0
  -21.1968   -7.6152   23.9707 H   0  0  0  0  0  0
  -21.1504   -6.0528   25.9076 H   0  0  0  0  0  0
  -22.0595   -2.7618   23.2818 H   0  0  0  0  0  0
  -22.4137  -11.9908   22.4802 H   0  0  0  0  0  0
  -21.1117  -13.1251   22.2611 H   0  0  0  0  0  0
  -24.6694  -15.8447   20.5002 H   0  0  0  0  0  0
  -26.2883  -15.6186   20.0682 H   0  0  0  0  0  0
  -26.7087  -32.5562   23.1167 H   0  0  0  0  0  0
  -25.0060  -33.9778   25.0493 H   0  0  0  0  0  0
  -22.6871  -31.3106   21.4100 H   0  0  0  0  0  0
  -23.3737  -35.9665   23.3307 H   0  0  0  0  0  0
  -24.3594  -36.8921   22.2047 H   0  0  0  0  0  0
  -23.7256  -37.6535   23.6645 H   0  0  0  0  0  0
  -26.0318  -31.6115   20.5910 H   0  0  0  0  0  0
  -26.8142  -30.9007   21.9747 H   0  0  0  0  0  0
  -28.0991  -29.1292   21.1641 H   0  0  0  0  0  0
  -26.0820  -25.9871   19.0078 H   0  0  0  0  0  0
  -23.9833  -27.2953   19.0346 H   0  0  0  0  0  0
  -23.7146  -30.5993   19.4021 H   0  0  0  0  0  0
  -22.7337  -29.2426   19.8672 H   0  0  0  0  0  0
  -25.1288  -36.1969   25.0831 H   0  0  0  0  0  0
  -20.9976  -28.3239   24.1435 H   0  0  0  0  0  0
  -20.5665  -26.2279   23.3605 H   0  0  0  0  0  0
  -21.6634  -26.7455   22.1210 H   0  0  0  0  0  0
  -19.6899  -25.6316   21.1225 H   0  0  0  0  0  0
  -19.6674  -27.3222   20.6756 H   0  0  0  0  0  0
  -17.4191  -26.6691   21.4030 H   0  0  0  0  0  0
  -18.0323  -26.0077   22.9022 H   0  0  0  0  0  0
  -19.7930  -30.7258   24.2307 H   0  0  0  0  0  0
  -17.5015  -31.6270   24.5183 H   0  0  0  0  0  0
  -15.5353  -30.3017   23.7627 H   0  0  0  0  0  0
  -15.8670  -28.0858   22.7027 H   0  0  0  0  0  0
  -24.5909  -30.7072   25.7835 H   0  0  0  0  0  0
  -24.8963  -32.2875   26.4935 H   0  0  0  0  0  0
  -25.8118  -30.8884   27.0219 H   0  0  0  0  0  0
  -26.2810  -29.6808   24.1139 H   0  0  0  0  0  0
  -27.4090  -29.7277   25.4504 H   0  0  0  0  0  0
  -27.8638  -30.4369   23.9177 H   0  0  0  0  0  0
  -27.2655  -33.3599   26.2081 H   0  0  0  0  0  0
  -28.3832  -32.6905   25.0282 H   0  0  0  0  0  0
  -28.0734  -31.8420   26.5353 H   0  0  0  0  0  0
  -28.2606  -38.0100   24.7505 H   0  0  0  0  0  0
  -28.1069  -36.2633   24.6296 H   0  0  0  0  0  0
  -27.2305  -37.1475   25.8868 H   0  0  0  0  0  0
  -20.9263  -29.8800   21.6985 H   0  0  0  0  0  0
  -26.0183  -38.2870   24.1401 H   0  0  0  0  0  0
  -30.1401  -16.2455   18.6913 H   0  0  0  0  0  0
  -28.8429  -20.0769   17.2996 H   0  0  0  0  0  0
  -29.0615  -16.4836   16.5107 H   0  0  0  0  0  0
  -30.3178  -17.5897   15.9340 H   0  0  0  0  0  0
  -28.6134  -18.0721   15.8947 H   0  0  0  0  0  0
  -29.1546  -19.8404   22.4104 H   0  0  0  0  0  0
  -30.4945  -20.7881   21.7619 H   0  0  0  0  0  0
  -30.8095  -19.2271   22.4309 H   0  0  0  0  0  0
  -30.0948  -17.1495   22.2969 H   0  0  0  0  0  0
  -31.5988  -16.8638   21.4601 H   0  0  0  0  0  0
  -28.5924  -21.5990   20.6757 H   0  0  0  0  0  0
  -27.9210  -21.5436   19.0839 H   0  0  0  0  0  0
  -30.3733  -24.9705   20.7210 H   0  0  0  0  0  0
  -29.3303  -23.7452   21.3834 H   0  0  0  0  0  0
  -29.8051  -24.4627   18.4863 H   0  0  0  0  0  0
  -28.2310  -23.8441   18.8810 H   0  0  0  0  0  0
  -28.3539  -25.8483   21.9461 H   0  0  0  0  0  0
  -27.3173  -25.0487   20.7986 H   0  0  0  0  0  0
  -29.1487  -15.2074   21.5606 H   0  0  0  0  0  0
  -30.0214  -22.2553   18.1998 H   0  0  0  0  0  0
  -30.6720  -22.3997   19.6738 H   0  0  0  0  0  0
  1 25  1  0  0  0
  1 30  2  0  0  0
  1 84  1  0  0  0
  2  3  1  0  0  0
  2 25  1  0  0  0
  2 86  1  0  0  0
  2 87  1  0  0  0
  3  4  1  0  0  0
  3 88  1  0  0  0
  3 89  1  0  0  0
  4  5  1  0  0  0
  4 90  1  0  0  0
  4 91  1  0  0  0
  5  6  1  0  0  0
  5 26  1  0  0  0
  5 92  1  0  0  0
  6 25  1  0  0  0
  6 93  1  0  0  0
  6 94  1  0  0  0
  7  8  2  0  0  0
  7 26  1  0  0  0
  7 29  1  0  0  0
  8  9  1  0  0  0
  8 22  1  0  0  0
  9 10  1  0  0  0
  9 27  2  0  0  0
 10 11  2  0  0  0
 10 15  1  0  0  0
 11 12  1  0  0  0
 11 95  1  0  0  0
 12 13  2  0  0  0
 12 96  1  0  0  0
 13 14  1  0  0  0
 13 31  1  0  0  0
 14 15  2  0  0  0
 14 97  1  0  0  0
 15 98  1  0  0  0
 16 17  2  0  0  0
 16 21  1  0  0  0
 16 31  1  0  0  0
 17 18  1  0  0  0
 17 99  1  0  0  0
 18 19  2  0  0  0
 18100  1  0  0  0
 19 20  1  0  0  0
 19 24  1  0  0  0
 20 21  2  0  0  0
 20101  1  0  0  0
 21 23  1  0  0  0
 22 28  1  0  0  0
 22 32  2  0  0  0
 26 27  1  0  0  0
 28102  1  0  0  0
 28103  1  0  0  0
 29104  1  0  0  0
 29105  1  0  0  0
 33 34  1  0  0  0
 33 66  1  0  0  0
 33 70  2  0  0  0
 34 36  1  0  0  0
 34 59  1  0  0  0
 34106  1  0  0  0
 35 44  2  0  0  0
 35 45  1  0  0  0
 35 68  1  0  0  0
 36 56  1  0  0  0
 36107  1  0  0  0
 37 39  1  0  0  0
 37 47  1  0  0  0
 37 66  1  0  0  0
 37108  1  0  0  0
 38 43  2  0  0  0
 38 46  1  0  0  0
 38 47  1  0  0  0
 39 64  1  0  0  0
 39 67  2  0  0  0
 40 52  1  0  0  0
 40 53  2  0  0  0
 40 58  1  0  0  0
 41109  1  0  0  0
 41110  1  0  0  0
 41111  1  0  0  0
 41 48  1  0  0  0
 42 43  1  0  0  0
 42 66  1  0  0  0
 42112  1  0  0  0
 42113  1  0  0  0
 43 44  1  0  0  0
 44114  1  0  0  0
 45 46  2  0  0  0
 45115  1  0  0  0
 46116  1  0  0  0
 47117  1  0  0  0
 47118  1  0  0  0
 48 56  1  0  0  0
 48 65  1  0  0  0
 48119  1  0  0  0
 49 50  1  0  0  0
 49 53  1  0  0  0
 49 64  1  0  0  0
 49120  1  0  0  0
 50 51  1  0  0  0
 50121  1  0  0  0
 50122  1  0  0  0
 51 52  1  0  0  0
 51123  1  0  0  0
 51124  1  0  0  0
 52125  1  0  0  0
 52126  1  0  0  0
 53 54  1  0  0  0
 54 55  2  0  0  0
 54127  1  0  0  0
 55 57  1  0  0  0
 55128  1  0  0  0
 56 69  2  0  0  0
 57 58  2  0  0  0
 57129  1  0  0  0
 58130  1  0  0  0
 59 60  1  0  0  0
 59 61  1  0  0  0
 59 62  1  0  0  0
 60131  1  0  0  0
 60132  1  0  0  0
 60133  1  0  0  0
 61134  1  0  0  0
 61135  1  0  0  0
 61136  1  0  0  0
 62137  1  0  0  0
 62138  1  0  0  0
 62139  1  0  0  0
 63 65  1  0  0  0
 63140  1  0  0  0
 63141  1  0  0  0
 63142  1  0  0  0
 64143  1  0  0  0
 65144  1  0  0  0
 68 83  1  0  0  0
 71 73  2  0  0  0
 71 74  1  0  0  0
 71145  1  0  0  0
 72 73  1  0  0  0
 72 75  2  0  0  0
 72146  1  0  0  0
 73 77  1  0  0  0
 74 76  2  0  0  0
 74 79  1  0  0  0
 75 76  1  0  0  0
 75 80  1  0  0  0
 76 78  1  0  0  0
 77147  1  0  0  0
 77148  1  0  0  0
 77149  1  0  0  0
 78150  1  0  0  0
 78151  1  0  0  0
 78152  1  0  0  0
 79 84  1  0  0  0
 79153  1  0  0  0
 79154  1  0  0  0
 80 85  1  0  0  0
 80155  1  0  0  0
 80156  1  0  0  0
 81 82  1  0  0  0
 81 83  1  0  0  0
 81157  1  0  0  0
 81158  1  0  0  0
 82 85  1  0  0  0
 82159  1  0  0  0
 82160  1  0  0  0
 83161  1  0  0  0
 83162  1  0  0  0
 84163  1  0  0  0
 85164  1  0  0  0
 85165  1  0  0  0
M  CHG  1  85   1
M  ISO  4   1 100  68 101  83 101  84 100
M  END
> <chiral flag>
0

> <version>
0

> <s_m_source_file>
/data/baiqing/PycharmProjects/Reinvent-master-3.2/result/LINK_invent/BTK/process_docking_weight1_custom_product_contain_oxygen_bond_distance_aromatic_linkinvent_7_9_3/rearranged_h_0040.sdf

> <i_m_source_file_index>
37

> <r_mmod_Potential_Energy-OPLS-2005>
-312.355560302734

> <r_mmod_Stretch_Energy-OPLS-2005>
37.009693145752

> <r_mmod_Bend_Energy-OPLS-2005>
90.2552108764648

> <r_mmod_Torsional_Energy-OPLS-2005>
217.759033203125

> <r_mmod_Improper_Torsional_Energy-OPLS-2005>
3.33616638183594

> <r_mmod_Van_der_Waal_Energy-OPLS-2005>
154.11067199707

> <r_mmod_Electrostatic_Energy-OPLS-2005>
-365.101715087891

> <r_mmod_Solvation_Energy-OPLS-2005>
-459.619934082031

> <b_mmod_Minimization_Converged-OPLS-2005>
0

> <r_mmod_RMS_Derivative-OPLS-2005>
2.319167137146

$$$$
37
                    3D
 Structure written by MMmdl.
162170  0  0  1  0            999 V2000
  -30.6843  -14.4345   20.6545 C   0  0  0  0  0  0
  -30.4406  -12.3161   19.4034 C   0  0  0  0  0  0
  -29.5019  -12.5470   18.2002 C   0  0  0  0  0  0
  -28.0203  -12.4048   18.6101 C   0  0  0  0  0  0
  -27.6748  -13.2005   19.8984 C   0  0  2  0  0  0
  -28.7142  -12.9034   21.0007 C   0  0  0  0  0  0
  -25.2621  -13.8158   20.5627 C   0  0  0  0  0  0
  -24.1887  -13.0460   20.9158 C   0  0  0  0  0  0
  -24.6436  -11.6920   20.8727 C   0  0  0  0  0  0
  -23.9095  -10.4316   21.0401 C   0  0  0  0  0  0
  -24.3643   -9.4214   21.9171 C   0  0  0  0  0  0
  -23.6314   -8.2248   22.0738 C   0  0  0  0  0  0
  -22.4292   -8.0285   21.3523 C   0  0  0  0  0  0
  -21.9936   -9.0280   20.4634 C   0  0  0  0  0  0
  -22.7270  -10.2156   20.3051 C   0  0  0  0  0  0
  -21.6858   -6.0732   22.5273 C   0  0  0  0  0  0
  -21.4022   -6.5628   23.8210 C   0  0  0  0  0  0
  -21.3664   -5.6775   24.9171 C   0  0  0  0  0  0
  -21.6053   -4.3044   24.7219 C   0  0  0  0  0  0
  -21.8824   -3.8134   23.4341 C   0  0  0  0  0  0
  -21.9206   -4.6957   22.3393 C   0  0  0  0  0  0
  -22.7896  -13.5222   21.1818 C   0  0  0  0  0  0
  -22.1662   -4.2135   21.0973 F   0  0  0  0  0  0
  -21.5633   -3.4535   25.7736 F   0  0  0  0  0  0
  -30.0447  -13.2499   20.4662 N   0  0  0  0  0  0
  -26.3105  -12.9330   20.3467 N   0  0  0  0  0  0
  -25.9368  -11.6488   20.5799 N   0  0  0  0  0  0
  -22.0578  -12.8222   22.0411 N   0  0  0  0  0  0
  -25.4349  -15.1852   20.3804 N   0  0  0  0  0  0
  -31.7462  -14.7284   20.0951 O   0  0  0  0  0  0
  -21.6639   -6.8891   21.4235 O   0  0  0  0  0  0
  -22.3557  -14.5525   20.6666 O   0  0  0  0  0  0
  -24.6102  -31.8703   23.2151 C   0  0  0  0  0  0
  -25.9004  -32.4833   23.8424 C   0  0  1  0  0  0
  -27.2401  -27.4780   20.0796 C   0  0  0  0  0  0
  -25.5889  -33.8628   24.2367 N   0  0  0  0  0  0
  -23.3985  -30.4936   21.5531 C   0  0  2  0  0  0
  -24.8438  -28.9613   20.1173 C   0  0  0  0  0  0
  -22.7402  -29.4682   22.5053 C   0  0  0  0  0  0
  -18.0286  -28.1438   22.8518 C   0  0  0  0  0  0
  -24.1482  -36.7320   23.2633 C   0  0  0  0  0  0
  -25.9236  -30.8479   21.3629 C   0  0  0  0  0  0
  -26.0028  -29.4868   20.7038 C   0  0  0  0  0  0
  -27.2077  -28.7538   20.6767 C   0  0  0  0  0  0
  -26.0670  -26.9511   19.4993 C   0  0  0  0  0  0
  -24.8680  -27.6893   19.5167 C   0  0  0  0  0  0
  -23.6033  -29.8232   20.1683 C   0  0  0  0  0  0
  -25.4095  -36.3121   24.0339 C   0  0  1  0  0  0
  -20.5858  -28.3728   23.1427 C   0  0  2  0  0  0
  -20.6768  -26.9443   22.5603 C   0  0  0  0  0  0
  -19.5798  -26.6409   21.5354 C   0  0  0  0  0  0
  -18.1963  -26.7947   22.1734 C   0  0  0  0  0  0
  -19.1527  -28.8907   23.2898 C   0  0  0  0  0  0
  -18.9503  -30.1574   23.8776 C   0  0  0  0  0  0
  -17.6508  -30.6689   24.0452 C   0  0  0  0  0  0
  -25.9007  -34.9482   23.5157 C   0  0  0  0  0  0
  -16.5388  -29.9151   23.6305 C   0  0  0  0  0  0
  -16.7288  -28.6531   23.0388 C   0  0  0  0  0  0
  -26.4457  -31.6595   25.0735 C   0  0  0  0  0  0
  -25.3758  -31.3676   26.1517 C   0  0  0  0  0  0
  -27.0287  -30.3045   24.6098 C   0  0  0  0  0  0
  -27.6038  -32.4320   25.7499 C   0  0  0  0  0  0
  -27.5588  -37.1802   24.8463 C   0  0  0  0  0  0
  -21.4134  -29.3081   22.3818 N   0  0  0  0  0  0
  -26.4300  -37.3798   23.9404 N   0  0  0  0  0  0
  -24.6624  -31.0834   22.1030 N   0  0  0  0  0  0
  -23.4163  -28.8211   23.3087 O   0  0  0  0  0  0
  -28.4125  -26.7640   20.0661 O   0  0  0  0  0  0
  -26.5581  -34.8918   22.4726 O   0  0  0  0  0  0
  -23.5298  -32.1434   23.7550 O   0  0  0  0  0  0
  -29.3755  -18.9673   21.4420 C   0  0  0  0  0  0
  -27.1520  -19.6131   22.1738 C   0  0  0  0  0  0
  -28.3787  -19.9585   21.5778 C   0  0  0  0  0  0
  -29.1828  -17.6476   21.9248 C   0  0  0  0  0  0
  -27.9437  -17.3248   22.5586 C   0  0  0  0  0  0
  -26.9249  -18.3087   22.6448 C   0  0  0  0  0  0
  -27.6875  -15.9552   23.1691 C   0  0  0  0  0  0
  -30.3686  -16.6718   21.7916 C   0  0  0  0  0  0
  -28.6257  -21.4049   21.1509 C   0  0  0  0  0  0
  -28.3688  -24.3057   19.8566 C   0  0  0  0  0  0
  -27.2593  -23.2711   20.1862 C   0  0  0  0  0  0
  -28.3582  -25.5356   20.7898 C   0  0  0  0  0  0
  -30.0300  -15.2878   21.4589 N   0  0  0  0  0  0
  -27.6858  -21.8513   20.0995 N   0  3  0  0  0  0
  -25.3802  -17.9680   23.3430 Cl  0  0  0  0  0  0
  -31.4833  -12.4512   19.1038 H   0  0  0  0  0  0
  -30.3613  -11.2871   19.7603 H   0  0  0  0  0  0
  -29.7398  -11.8475   17.3980 H   0  0  0  0  0  0
  -29.6722  -13.5440   17.7879 H   0  0  0  0  0  0
  -27.8154  -11.3471   18.7661 H   0  0  0  0  0  0
  -27.3745  -12.7260   17.7915 H   0  0  0  0  0  0
  -27.7418  -14.2619   19.6603 H   0  0  0  0  0  0
  -28.6921  -11.8453   21.2672 H   0  0  0  0  0  0
  -28.4704  -13.4137   21.9296 H   0  0  0  0  0  0
  -25.2802   -9.5662   22.4739 H   0  0  0  0  0  0
  -24.0016   -7.4629   22.7458 H   0  0  0  0  0  0
  -21.0866   -8.8817   19.8947 H   0  0  0  0  0  0
  -22.3747  -10.9702   19.6154 H   0  0  0  0  0  0
  -21.2009   -7.6136   23.9706 H   0  0  0  0  0  0
  -21.1478   -6.0506   25.9070 H   0  0  0  0  0  0
  -22.0608   -2.7601   23.2846 H   0  0  0  0  0  0
  -22.4234  -11.9872   22.4750 H   0  0  0  0  0  0
  -21.1200  -13.1234   22.2661 H   0  0  0  0  0  0
  -24.6630  -15.8396   20.4383 H   0  0  0  0  0  0
  -26.2784  -15.5998   20.0060 H   0  0  0  0  0  0
  -26.7070  -32.5564   23.1187 H   0  0  0  0  0  0
  -25.0045  -33.9812   25.0516 H   0  0  0  0  0  0
  -22.6872  -31.3117   21.4138 H   0  0  0  0  0  0
  -23.3757  -35.9646   23.3313 H   0  0  0  0  0  0
  -24.3570  -36.8918   22.2046 H   0  0  0  0  0  0
  -23.7223  -37.6517   23.6646 H   0  0  0  0  0  0
  -26.0328  -31.6249   20.6040 H   0  0  0  0  0  0
  -26.8111  -30.8968   21.9821 H   0  0  0  0  0  0
  -28.1077  -29.1566   21.1222 H   0  0  0  0  0  0
  -26.0823  -25.9759   19.0321 H   0  0  0  0  0  0
  -23.9753  -27.2731   19.0704 H   0  0  0  0  0  0
  -23.7098  -30.5985   19.4082 H   0  0  0  0  0  0
  -22.7290  -29.2401   19.8738 H   0  0  0  0  0  0
  -25.1278  -36.2009   25.0835 H   0  0  0  0  0  0
  -20.9840  -28.3374   24.1591 H   0  0  0  0  0  0
  -20.5557  -26.2380   23.3820 H   0  0  0  0  0  0
  -21.6672  -26.7457   22.1504 H   0  0  0  0  0  0
  -19.6726  -27.3233   20.6911 H   0  0  0  0  0  0
  -19.7018  -25.6323   21.1375 H   0  0  0  0  0  0
  -17.4229  -26.6664   21.4153 H   0  0  0  0  0  0
  -18.0386  -26.0180   22.9219 H   0  0  0  0  0  0
  -19.7994  -30.7463   24.2022 H   0  0  0  0  0  0
  -17.5098  -31.6416   24.4977 H   0  0  0  0  0  0
  -15.5400  -30.3090   23.7629 H   0  0  0  0  0  0
  -15.8686  -28.0763   22.7211 H   0  0  0  0  0  0
  -24.5941  -30.7000   25.7897 H   0  0  0  0  0  0
  -24.8942  -32.2813   26.5007 H   0  0  0  0  0  0
  -25.8159  -30.8846   27.0248 H   0  0  0  0  0  0
  -26.2828  -29.6811   24.1164 H   0  0  0  0  0  0
  -27.4068  -29.7279   25.4545 H   0  0  0  0  0  0
  -27.8656  -30.4380   23.9244 H   0  0  0  0  0  0
  -27.2645  -33.3605   26.2114 H   0  0  0  0  0  0
  -28.3822  -32.6898   25.0306 H   0  0  0  0  0  0
  -28.0736  -31.8421   26.5381 H   0  0  0  0  0  0
  -28.2604  -38.0106   24.7510 H   0  0  0  0  0  0
  -28.1083  -36.2625   24.6299 H   0  0  0  0  0  0
  -27.2288  -37.1455   25.8862 H   0  0  0  0  0  0
  -20.9268  -29.8896   21.7138 H   0  0  0  0  0  0
  -26.0203  -38.2883   24.1415 H   0  0  0  0  0  0
  -30.3215  -19.2293   20.9868 H   0  0  0  0  0  0
  -26.3765  -20.3563   22.2911 H   0  0  0  0  0  0
  -28.5832  -15.5703   23.6562 H   0  0  0  0  0  0
  -27.3697  -15.2637   22.3952 H   0  0  0  0  0  0
  -26.9100  -15.9561   23.9312 H   0  0  0  0  0  0
  -31.0580  -17.0567   21.0388 H   0  0  0  0  0  0
  -30.9128  -16.6790   22.7348 H   0  0  0  0  0  0
  -29.6496  -21.5388   20.7985 H   0  0  0  0  0  0
  -28.5240  -22.0297   22.0398 H   0  0  0  0  0  0
  -28.2568  -24.6263   18.8187 H   0  0  0  0  0  0
  -29.3605  -23.8538   19.9033 H   0  0  0  0  0  0
  -26.4359  -23.4226   19.4865 H   0  0  0  0  0  0
  -26.8301  -23.4481   21.1740 H   0  0  0  0  0  0
  -29.2325  -25.4923   21.4412 H   0  0  0  0  0  0
  -27.5056  -25.5234   21.4727 H   0  0  0  0  0  0
  -29.1895  -14.9268   21.8780 H   0  0  0  0  0  0
  -26.8573  -21.2906   20.2062 H   0  0  0  0  0  0
  -28.0660  -21.6423   19.1917 H   0  0  0  0  0  0
  1 25  1  0  0  0
  1 30  2  0  0  0
  1 83  1  0  0  0
  2  3  1  0  0  0
  2 25  1  0  0  0
  2 86  1  0  0  0
  2 87  1  0  0  0
  3  4  1  0  0  0
  3 88  1  0  0  0
  3 89  1  0  0  0
  4  5  1  0  0  0
  4 90  1  0  0  0
  4 91  1  0  0  0
  5  6  1  0  0  0
  5 26  1  0  0  0
  5 92  1  0  0  0
  6 25  1  0  0  0
  6 93  1  0  0  0
  6 94  1  0  0  0
  7  8  2  0  0  0
  7 26  1  0  0  0
  7 29  1  0  0  0
  8  9  1  0  0  0
  8 22  1  0  0  0
  9 10  1  0  0  0
  9 27  2  0  0  0
 10 11  2  0  0  0
 10 15  1  0  0  0
 11 12  1  0  0  0
 11 95  1  0  0  0
 12 13  2  0  0  0
 12 96  1  0  0  0
 13 14  1  0  0  0
 13 31  1  0  0  0
 14 15  2  0  0  0
 14 97  1  0  0  0
 15 98  1  0  0  0
 16 17  2  0  0  0
 16 21  1  0  0  0
 16 31  1  0  0  0
 17 18  1  0  0  0
 17 99  1  0  0  0
 18 19  2  0  0  0
 18100  1  0  0  0
 19 20  1  0  0  0
 19 24  1  0  0  0
 20 21  2  0  0  0
 20101  1  0  0  0
 21 23  1  0  0  0
 22 28  1  0  0  0
 22 32  2  0  0  0
 26 27  1  0  0  0
 28102  1  0  0  0
 28103  1  0  0  0
 29104  1  0  0  0
 29105  1  0  0  0
 33 34  1  0  0  0
 33 66  1  0  0  0
 33 70  2  0  0  0
 34 36  1  0  0  0
 34 59  1  0  0  0
 34106  1  0  0  0
 35 44  2  0  0  0
 35 45  1  0  0  0
 35 68  1  0  0  0
 36 56  1  0  0  0
 36107  1  0  0  0
 37 39  1  0  0  0
 37 47  1  0  0  0
 37 66  1  0  0  0
 37108  1  0  0  0
 38 43  2  0  0  0
 38 46  1  0  0  0
 38 47  1  0  0  0
 39 64  1  0  0  0
 39 67  2  0  0  0
 40 52  1  0  0  0
 40 53  2  0  0  0
 40 58  1  0  0  0
 41109  1  0  0  0
 41110  1  0  0  0
 41111  1  0  0  0
 41 48  1  0  0  0
 42 43  1  0  0  0
 42 66  1  0  0  0
 42112  1  0  0  0
 42113  1  0  0  0
 43 44  1  0  0  0
 44114  1  0  0  0
 45 46  2  0  0  0
 45115  1  0  0  0
 46116  1  0  0  0
 47117  1  0  0  0
 47118  1  0  0  0
 48 56  1  0  0  0
 48 65  1  0  0  0
 48119  1  0  0  0
 49 50  1  0  0  0
 49 53  1  0  0  0
 49 64  1  0  0  0
 49120  1  0  0  0
 50 51  1  0  0  0
 50121  1  0  0  0
 50122  1  0  0  0
 51 52  1  0  0  0
 51123  1  0  0  0
 51124  1  0  0  0
 52125  1  0  0  0
 52126  1  0  0  0
 53 54  1  0  0  0
 54 55  2  0  0  0
 54127  1  0  0  0
 55 57  1  0  0  0
 55128  1  0  0  0
 56 69  2  0  0  0
 57 58  2  0  0  0
 57129  1  0  0  0
 58130  1  0  0  0
 59 60  1  0  0  0
 59 61  1  0  0  0
 59 62  1  0  0  0
 60131  1  0  0  0
 60132  1  0  0  0
 60133  1  0  0  0
 61134  1  0  0  0
 61135  1  0  0  0
 61136  1  0  0  0
 62137  1  0  0  0
 62138  1  0  0  0
 62139  1  0  0  0
 63 65  1  0  0  0
 63140  1  0  0  0
 63141  1  0  0  0
 63142  1  0  0  0
 64143  1  0  0  0
 65144  1  0  0  0
 68 82  1  0  0  0
 71 73  2  0  0  0
 71 74  1  0  0  0
 71145  1  0  0  0
 72 73  1  0  0  0
 72 76  2  0  0  0
 72146  1  0  0  0
 73 79  1  0  0  0
 74 75  2  0  0  0
 74 78  1  0  0  0
 75 76  1  0  0  0
 75 77  1  0  0  0
 76 85  1  0  0  0
 77147  1  0  0  0
 77148  1  0  0  0
 77149  1  0  0  0
 78 83  1  0  0  0
 78150  1  0  0  0
 78151  1  0  0  0
 79 84  1  0  0  0
 79152  1  0  0  0
 79153  1  0  0  0
 80 81  1  0  0  0
 80 82  1  0  0  0
 80154  1  0  0  0
 80155  1  0  0  0
 81 84  1  0  0  0
 81156  1  0  0  0
 81157  1  0  0  0
 82158  1  0  0  0
 82159  1  0  0  0
 83160  1  0  0  0
 84161  1  0  0  0
 84162  1  0  0  0
M  CHG  1  84   1
M  ISO  4   1 100  68 101  82 101  83 100
M  END
> <chiral flag>
0

> <version>
0

> <s_m_source_file>
/data/baiqing/PycharmProjects/Reinvent-master-3.2/result/LINK_invent/BTK/process_docking_weight1_custom_product_contain_oxygen_bond_distance_aromatic_linkinvent_7_9_3/rearranged_h_0040.sdf

> <i_m_source_file_index>
38

> <r_mmod_Potential_Energy-OPLS-2005>
-296.765197753906

> <r_mmod_Stretch_Energy-OPLS-2005>
36.1248435974121

> <r_mmod_Bend_Energy-OPLS-2005>
94.6446838378906

> <r_mmod_Torsional_Energy-OPLS-2005>
235.370666503906

> <r_mmod_Improper_Torsional_Energy-OPLS-2005>
2.72463822364807

> <r_mmod_Van_der_Waal_Energy-OPLS-2005>
152.008605957031

> <r_mmod_Electrostatic_Energy-OPLS-2005>
-350.200164794922

> <r_mmod_Solvation_Energy-OPLS-2005>
-477.205780029297

> <b_mmod_Minimization_Converged-OPLS-2005>
0

> <r_mmod_RMS_Derivative-OPLS-2005>
4.47019624710083

$$$$
38
                    3D
 Structure written by MMmdl.
156164  0  0  1  0            999 V2000
  -30.6284  -14.6262   20.5053 C   0  0  0  0  0  0
  -30.4405  -12.3873   19.4444 C   0  0  0  0  0  0
  -29.5063  -12.5098   18.2199 C   0  0  0  0  0  0
  -28.0293  -12.3465   18.6320 C   0  0  0  0  0  0
  -27.6542  -13.2123   19.8636 C   0  0  2  0  0  0
  -28.7011  -13.0605   20.9907 C   0  0  0  0  0  0
  -25.2559  -13.8153   20.5683 C   0  0  0  0  0  0
  -24.1823  -13.0418   20.9175 C   0  0  0  0  0  0
  -24.6396  -11.6889   20.8725 C   0  0  0  0  0  0
  -23.9064  -10.4276   21.0402 C   0  0  0  0  0  0
  -24.3616   -9.4188   21.9183 C   0  0  0  0  0  0
  -23.6280   -8.2232   22.0756 C   0  0  0  0  0  0
  -22.4265   -8.0276   21.3548 C   0  0  0  0  0  0
  -21.9900   -9.0249   20.4650 C   0  0  0  0  0  0
  -22.7236  -10.2123   20.3055 C   0  0  0  0  0  0
  -21.6848   -6.0723   22.5279 C   0  0  0  0  0  0
  -21.4011   -6.5627   23.8214 C   0  0  0  0  0  0
  -21.3660   -5.6782   24.9176 C   0  0  0  0  0  0
  -21.6050   -4.3045   24.7227 C   0  0  0  0  0  0
  -21.8818   -3.8136   23.4350 C   0  0  0  0  0  0
  -21.9186   -4.6951   22.3403 C   0  0  0  0  0  0
  -22.7848  -13.5221   21.1839 C   0  0  0  0  0  0
  -22.1657   -4.2134   21.0980 F   0  0  0  0  0  0
  -21.5629   -3.4530   25.7743 F   0  0  0  0  0  0
  -30.0177  -13.4023   20.4281 N   0  0  0  0  0  0
  -26.2992  -12.9336   20.3321 N   0  0  0  0  0  0
  -25.9324  -11.6492   20.5744 N   0  0  0  0  0  0
  -22.0487  -12.8228   22.0403 N   0  0  0  0  0  0
  -25.4244  -15.1879   20.4138 N   0  0  0  0  0  0
  -31.7909  -14.7957   20.1267 O   0  0  0  0  0  0
  -21.6629   -6.8872   21.4245 O   0  0  0  0  0  0
  -22.3536  -14.5524   20.6678 O   0  0  0  0  0  0
  -24.6264  -31.8606   23.2027 C   0  0  0  0  0  0
  -25.9115  -32.4779   23.8355 C   0  0  1  0  0  0
  -27.2242  -27.3263   20.1105 C   0  0  0  0  0  0
  -25.5931  -33.8578   24.2282 N   0  0  0  0  0  0
  -23.4191  -30.4855   21.5458 C   0  0  2  0  0  0
  -24.8643  -28.9448   20.1094 C   0  0  0  0  0  0
  -22.7476  -29.4632   22.4935 C   0  0  0  0  0  0
  -18.0284  -28.1388   22.8481 C   0  0  0  0  0  0
  -24.1488  -36.7298   23.2639 C   0  0  0  0  0  0
  -25.9603  -30.7943   21.3721 C   0  0  0  0  0  0
  -26.0340  -29.4231   20.7127 C   0  0  0  0  0  0
  -27.2174  -28.6270   20.7013 C   0  0  0  0  0  0
  -26.0277  -26.9009   19.4846 C   0  0  0  0  0  0
  -24.8637  -27.6900   19.4847 C   0  0  0  0  0  0
  -23.6319  -29.8234   20.1600 C   0  0  0  0  0  0
  -25.4111  -36.3083   24.0329 C   0  0  1  0  0  0
  -20.5886  -28.3690   23.1283 C   0  0  2  0  0  0
  -20.6772  -26.9413   22.5408 C   0  0  0  0  0  0
  -19.5751  -26.6388   21.5206 C   0  0  0  0  0  0
  -18.1930  -26.7932   22.1619 C   0  0  0  0  0  0
  -19.1536  -28.8856   23.2878 C   0  0  0  0  0  0
  -18.9460  -30.1455   23.8898 C   0  0  0  0  0  0
  -17.6459  -30.6587   24.0565 C   0  0  0  0  0  0
  -25.9048  -34.9450   23.5105 C   0  0  0  0  0  0
  -16.5351  -29.9087   23.6326 C   0  0  0  0  0  0
  -16.7271  -28.6506   23.0345 C   0  0  0  0  0  0
  -26.4503  -31.6586   25.0722 C   0  0  0  0  0  0
  -25.3746  -31.3718   26.1456 C   0  0  0  0  0  0
  -27.0344  -30.3012   24.6169 C   0  0  0  0  0  0
  -27.6065  -32.4321   25.7492 C   0  0  0  0  0  0
  -27.5579  -37.1802   24.8463 C   0  0  0  0  0  0
  -21.4188  -29.3045   22.3679 N   0  0  0  0  0  0
  -26.4291  -37.3775   23.9408 N   0  0  0  0  0  0
  -24.6877  -31.0631   22.0969 N   0  0  0  0  0  0
  -23.4201  -28.8164   23.3007 O   0  0  0  0  0  0
  -28.3479  -26.4850   20.1544 O   0  0  0  0  0  0
  -26.5612  -34.8920   22.4668 O   0  0  0  0  0  0
  -23.5433  -32.1402   23.7359 O   0  0  0  0  0  0
  -29.3031  -19.2165   19.5140 C   0  0  0  0  0  0
  -30.6383  -17.9226   21.5997 C   0  0  0  0  0  0
  -29.2741  -17.7916   19.6160 C   0  0  0  0  0  0
  -29.9931  -20.0375   20.4441 C   0  0  0  0  0  0
  -29.9600  -17.1061   20.6595 C   0  0  0  0  0  0
  -30.6580  -19.3461   21.5011 C   0  0  0  0  0  0
  -28.4942  -17.0077   18.5754 C   0  0  0  0  0  0
  -30.1624  -21.5879   20.2020 C   0  0  0  0  0  0
  -29.3361  -24.0319   20.3161 C   0  0  0  0  0  0
  -28.1176  -25.0228   20.0979 C   0  0  0  0  0  0
  -29.8146  -15.6675   20.8563 N   0  0  0  0  0  0
  -29.0064  -22.5428   20.3976 N   0  3  0  0  0  0
  -31.5379  -20.2186   22.7067 Cl  0  0  0  0  0  0
  -31.4808  -12.5153   19.1400 H   0  0  0  0  0  0
  -30.3779  -11.3891   19.8797 H   0  0  0  0  0  0
  -29.7677  -11.7642   17.4677 H   0  0  0  0  0  0
  -29.6468  -13.4826   17.7460 H   0  0  0  0  0  0
  -27.8644  -11.2921   18.8568 H   0  0  0  0  0  0
  -27.3763  -12.5830   17.7912 H   0  0  0  0  0  0
  -27.6715  -14.2474   19.5252 H   0  0  0  0  0  0
  -28.7100  -12.0363   21.3667 H   0  0  0  0  0  0
  -28.4493  -13.6872   21.8473 H   0  0  0  0  0  0
  -25.2768   -9.5642   22.4745 H   0  0  0  0  0  0
  -23.9978   -7.4617   22.7476 H   0  0  0  0  0  0
  -21.0828   -8.8781   19.8955 H   0  0  0  0  0  0
  -22.3715  -10.9660   19.6153 H   0  0  0  0  0  0
  -21.2009   -7.6137   23.9716 H   0  0  0  0  0  0
  -21.1486   -6.0512   25.9080 H   0  0  0  0  0  0
  -22.0597   -2.7595   23.2861 H   0  0  0  0  0  0
  -22.4097  -11.9892   22.4804 H   0  0  0  0  0  0
  -21.1110  -13.1268   22.2610 H   0  0  0  0  0  0
  -24.6557  -15.8388   20.5335 H   0  0  0  0  0  0
  -26.2747  -15.6348   20.1000 H   0  0  0  0  0  0
  -26.7185  -32.5453   23.1108 H   0  0  0  0  0  0
  -25.0080  -33.9723   25.0428 H   0  0  0  0  0  0
  -22.7128  -31.3060   21.4049 H   0  0  0  0  0  0
  -23.3743  -35.9638   23.3303 H   0  0  0  0  0  0
  -24.3580  -36.8916   22.2053 H   0  0  0  0  0  0
  -23.7249  -37.6505   23.6658 H   0  0  0  0  0  0
  -26.0924  -31.5590   20.6052 H   0  0  0  0  0  0
  -26.8411  -30.8413   22.0012 H   0  0  0  0  0  0
  -28.1156  -28.9920   21.1791 H   0  0  0  0  0  0
  -25.9533  -25.9474   18.9858 H   0  0  0  0  0  0
  -23.9692  -27.3219   19.0005 H   0  0  0  0  0  0
  -23.7482  -30.6015   19.4047 H   0  0  0  0  0  0
  -22.7523  -29.2524   19.8577 H   0  0  0  0  0  0
  -25.1290  -36.1936   25.0821 H   0  0  0  0  0  0
  -20.9974  -28.3260   24.1406 H   0  0  0  0  0  0
  -20.5662  -26.2298   23.3604 H   0  0  0  0  0  0
  -21.6643  -26.7437   22.1210 H   0  0  0  0  0  0
  -19.6913  -25.6298   21.1235 H   0  0  0  0  0  0
  -19.6693  -27.3197   20.6735 H   0  0  0  0  0  0
  -17.4196  -26.6669   21.4025 H   0  0  0  0  0  0
  -18.0338  -26.0077   22.9020 H   0  0  0  0  0  0
  -19.7933  -30.7271   24.2272 H   0  0  0  0  0  0
  -17.5012  -31.6265   24.5169 H   0  0  0  0  0  0
  -15.5351  -30.2990   23.7653 H   0  0  0  0  0  0
  -15.8669  -28.0829   22.7059 H   0  0  0  0  0  0
  -24.5919  -30.7067   25.7790 H   0  0  0  0  0  0
  -24.8944  -32.2881   26.4897 H   0  0  0  0  0  0
  -25.8086  -30.8889   27.0220 H   0  0  0  0  0  0
  -26.2911  -29.6758   24.1210 H   0  0  0  0  0  0
  -27.4064  -29.7272   25.4667 H   0  0  0  0  0  0
  -27.8772  -30.4300   23.9375 H   0  0  0  0  0  0
  -27.2672  -33.3613   26.2081 H   0  0  0  0  0  0
  -28.3867  -32.6893   25.0316 H   0  0  0  0  0  0
  -28.0742  -31.8440   26.5399 H   0  0  0  0  0  0
  -28.2596  -38.0099   24.7501 H   0  0  0  0  0  0
  -28.1075  -36.2629   24.6294 H   0  0  0  0  0  0
  -27.2299  -37.1455   25.8868 H   0  0  0  0  0  0
  -20.9360  -29.8785   21.6910 H   0  0  0  0  0  0
  -26.0172  -38.2853   24.1403 H   0  0  0  0  0  0
  -28.8004  -19.6916   18.6831 H   0  0  0  0  0  0
  -31.1466  -17.4557   22.4310 H   0  0  0  0  0  0
  -28.2974  -17.6136   17.6905 H   0  0  0  0  0  0
  -27.5349  -16.6899   18.9816 H   0  0  0  0  0  0
  -29.0455  -16.1244   18.2521 H   0  0  0  0  0  0
  -30.5001  -21.7040   19.1716 H   0  0  0  0  0  0
  -30.9934  -21.9564   20.8007 H   0  0  0  0  0  0
  -29.8604  -24.3111   21.2306 H   0  0  0  0  0  0
  -30.0438  -24.1908   19.5019 H   0  0  0  0  0  0
  -27.3492  -24.7783   20.8330 H   0  0  0  0  0  0
  -27.7061  -24.7759   19.1195 H   0  0  0  0  0  0
  -28.8828  -15.3659   21.0946 H   0  0  0  0  0  0
  -28.5912  -22.3536   21.2963 H   0  0  0  0  0  0
  -28.3157  -22.3158   19.6999 H   0  0  0  0  0  0
  1 25  1  0  0  0
  1 30  2  0  0  0
  1 81  1  0  0  0
  2  3  1  0  0  0
  2 25  1  0  0  0
  2 84  1  0  0  0
  2 85  1  0  0  0
  3  4  1  0  0  0
  3 86  1  0  0  0
  3 87  1  0  0  0
  4  5  1  0  0  0
  4 88  1  0  0  0
  4 89  1  0  0  0
  5  6  1  0  0  0
  5 26  1  0  0  0
  5 90  1  0  0  0
  6 25  1  0  0  0
  6 91  1  0  0  0
  6 92  1  0  0  0
  7  8  2  0  0  0
  7 26  1  0  0  0
  7 29  1  0  0  0
  8  9  1  0  0  0
  8 22  1  0  0  0
  9 10  1  0  0  0
  9 27  2  0  0  0
 10 11  2  0  0  0
 10 15  1  0  0  0
 11 12  1  0  0  0
 11 93  1  0  0  0
 12 13  2  0  0  0
 12 94  1  0  0  0
 13 14  1  0  0  0
 13 31  1  0  0  0
 14 15  2  0  0  0
 14 95  1  0  0  0
 15 96  1  0  0  0
 16 17  2  0  0  0
 16 21  1  0  0  0
 16 31  1  0  0  0
 17 18  1  0  0  0
 17 97  1  0  0  0
 18 19  2  0  0  0
 18 98  1  0  0  0
 19 20  1  0  0  0
 19 24  1  0  0  0
 20 21  2  0  0  0
 20 99  1  0  0  0
 21 23  1  0  0  0
 22 28  1  0  0  0
 22 32  2  0  0  0
 26 27  1  0  0  0
 28100  1  0  0  0
 28101  1  0  0  0
 29102  1  0  0  0
 29103  1  0  0  0
 33 34  1  0  0  0
 33 66  1  0  0  0
 33 70  2  0  0  0
 34 36  1  0  0  0
 34 59  1  0  0  0
 34104  1  0  0  0
 35 44  2  0  0  0
 35 45  1  0  0  0
 35 68  1  0  0  0
 36 56  1  0  0  0
 36105  1  0  0  0
 37 39  1  0  0  0
 37 47  1  0  0  0
 37 66  1  0  0  0
 37106  1  0  0  0
 38 43  2  0  0  0
 38 46  1  0  0  0
 38 47  1  0  0  0
 39 64  1  0  0  0
 39 67  2  0  0  0
 40 52  1  0  0  0
 40 53  2  0  0  0
 40 58  1  0  0  0
 41107  1  0  0  0
 41108  1  0  0  0
 41109  1  0  0  0
 41 48  1  0  0  0
 42 43  1  0  0  0
 42 66  1  0  0  0
 42110  1  0  0  0
 42111  1  0  0  0
 43 44  1  0  0  0
 44112  1  0  0  0
 45 46  2  0  0  0
 45113  1  0  0  0
 46114  1  0  0  0
 47115  1  0  0  0
 47116  1  0  0  0
 48 56  1  0  0  0
 48 65  1  0  0  0
 48117  1  0  0  0
 49 50  1  0  0  0
 49 53  1  0  0  0
 49 64  1  0  0  0
 49118  1  0  0  0
 50 51  1  0  0  0
 50119  1  0  0  0
 50120  1  0  0  0
 51 52  1  0  0  0
 51121  1  0  0  0
 51122  1  0  0  0
 52123  1  0  0  0
 52124  1  0  0  0
 53 54  1  0  0  0
 54 55  2  0  0  0
 54125  1  0  0  0
 55 57  1  0  0  0
 55126  1  0  0  0
 56 69  2  0  0  0
 57 58  2  0  0  0
 57127  1  0  0  0
 58128  1  0  0  0
 59 60  1  0  0  0
 59 61  1  0  0  0
 59 62  1  0  0  0
 60129  1  0  0  0
 60130  1  0  0  0
 60131  1  0  0  0
 61132  1  0  0  0
 61133  1  0  0  0
 61134  1  0  0  0
 62135  1  0  0  0
 62136  1  0  0  0
 62137  1  0  0  0
 63 65  1  0  0  0
 63138  1  0  0  0
 63139  1  0  0  0
 63140  1  0  0  0
 64141  1  0  0  0
 65142  1  0  0  0
 68 80  1  0  0  0
 71 73  2  0  0  0
 71 74  1  0  0  0
 71143  1  0  0  0
 72 75  2  0  0  0
 72 76  1  0  0  0
 72144  1  0  0  0
 73 75  1  0  0  0
 73 77  1  0  0  0
 74 76  2  0  0  0
 74 78  1  0  0  0
 75 81  1  0  0  0
 76 83  1  0  0  0
 77145  1  0  0  0
 77146  1  0  0  0
 77147  1  0  0  0
 78 82  1  0  0  0
 78148  1  0  0  0
 78149  1  0  0  0
 79 80  1  0  0  0
 79 82  1  0  0  0
 79150  1  0  0  0
 79151  1  0  0  0
 80152  1  0  0  0
 80153  1  0  0  0
 81154  1  0  0  0
 82155  1  0  0  0
 82156  1  0  0  0
M  CHG  1  82   1
M  ISO  4   1 100  68 101  80 101  81 100
M  END
> <chiral flag>
0

> <version>
0

> <s_m_source_file>
/data/baiqing/PycharmProjects/Reinvent-master-3.2/result/LINK_invent/BTK/process_docking_weight1_custom_product_contain_oxygen_bond_distance_aromatic_linkinvent_7_9_3/rearranged_h_0040.sdf

> <i_m_source_file_index>
39

> <r_mmod_Potential_Energy-OPLS-2005>
-135.164184570312

> <r_mmod_Stretch_Energy-OPLS-2005>
75.1016235351562

> <r_mmod_Bend_Energy-OPLS-2005>
126.764350891113

> <r_mmod_Torsional_Energy-OPLS-2005>
233.653747558594

> <r_mmod_Improper_Torsional_Energy-OPLS-2005>
5.93656492233276

> <r_mmod_Van_der_Waal_Energy-OPLS-2005>
139.219604492188

> <r_mmod_Electrostatic_Energy-OPLS-2005>
-290.225952148438

> <r_mmod_Solvation_Energy-OPLS-2005>
-470.257629394531

> <b_mmod_Minimization_Converged-OPLS-2005>
0

> <r_mmod_RMS_Derivative-OPLS-2005>
1.03966426849365

$$$$
39
                    3D
 Structure written by MMmdl.
167176  0  0  1  0            999 V2000
  -30.5935  -14.7490   20.4749 C   0  0  0  0  0  0
  -30.4399  -12.4639   19.4567 C   0  0  0  0  0  0
  -29.5076  -12.5066   18.2261 C   0  0  0  0  0  0
  -28.0352  -12.3251   18.6464 C   0  0  0  0  0  0
  -27.6406  -13.2256   19.8469 C   0  0  2  0  0  0
  -28.6892  -13.1545   20.9772 C   0  0  0  0  0  0
  -25.2514  -13.8180   20.5690 C   0  0  0  0  0  0
  -24.1803  -13.0433   20.9209 C   0  0  0  0  0  0
  -24.6387  -11.6909   20.8751 C   0  0  0  0  0  0
  -23.9063  -10.4289   21.0411 C   0  0  0  0  0  0
  -24.3615   -9.4205   21.9188 C   0  0  0  0  0  0
  -23.6289   -8.2241   22.0756 C   0  0  0  0  0  0
  -22.4272   -8.0280   21.3545 C   0  0  0  0  0  0
  -21.9907   -9.0254   20.4649 C   0  0  0  0  0  0
  -22.7236  -10.2132   20.3060 C   0  0  0  0  0  0
  -21.6852   -6.0734   22.5278 C   0  0  0  0  0  0
  -21.4014   -6.5638   23.8211 C   0  0  0  0  0  0
  -21.3659   -5.6792   24.9174 C   0  0  0  0  0  0
  -21.6045   -4.3054   24.7225 C   0  0  0  0  0  0
  -21.8819   -3.8145   23.4347 C   0  0  0  0  0  0
  -21.9192   -4.6961   22.3402 C   0  0  0  0  0  0
  -22.7826  -13.5223   21.1867 C   0  0  0  0  0  0
  -22.1662   -4.2147   21.0979 F   0  0  0  0  0  0
  -21.5627   -3.4538   25.7739 F   0  0  0  0  0  0
  -29.9834  -13.5187   20.3871 N   0  0  0  0  0  0
  -26.2933  -12.9374   20.3271 N   0  0  0  0  0  0
  -25.9316  -11.6525   20.5752 N   0  0  0  0  0  0
  -22.0468  -12.8220   22.0424 N   0  0  0  0  0  0
  -25.4189  -15.1907   20.4098 N   0  0  0  0  0  0
  -31.7912  -14.8637   20.1976 O   0  0  0  0  0  0
  -21.6639   -6.8876   21.4240 O   0  0  0  0  0  0
  -22.3516  -14.5530   20.6712 O   0  0  0  0  0  0
  -24.6312  -31.8545   23.1965 C   0  0  0  0  0  0
  -25.9135  -32.4751   23.8318 C   0  0  1  0  0  0
  -27.2251  -27.2626   20.1403 C   0  0  0  0  0  0
  -25.5928  -33.8552   24.2247 N   0  0  0  0  0  0
  -23.4283  -30.4744   21.5403 C   0  0  2  0  0  0
  -24.8761  -28.9115   20.1196 C   0  0  0  0  0  0
  -22.7500  -29.4597   22.4921 C   0  0  0  0  0  0
  -18.0289  -28.1389   22.8484 C   0  0  0  0  0  0
  -24.1488  -36.7283   23.2641 C   0  0  0  0  0  0
  -25.9727  -30.7692   21.3732 C   0  0  0  0  0  0
  -26.0479  -29.3882   20.7220 C   0  0  0  0  0  0
  -27.2287  -28.5789   20.7129 C   0  0  0  0  0  0
  -26.0289  -26.8406   19.5262 C   0  0  0  0  0  0
  -24.8707  -27.6452   19.5114 C   0  0  0  0  0  0
  -23.6476  -29.8009   20.1596 C   0  0  0  0  0  0
  -25.4115  -36.3067   24.0325 C   0  0  1  0  0  0
  -20.5892  -28.3698   23.1274 C   0  0  2  0  0  0
  -20.6777  -26.9416   22.5411 C   0  0  0  0  0  0
  -19.5752  -26.6385   21.5214 C   0  0  0  0  0  0
  -18.1932  -26.7931   22.1625 C   0  0  0  0  0  0
  -19.1543  -28.8861   23.2873 C   0  0  0  0  0  0
  -18.9464  -30.1461   23.8892 C   0  0  0  0  0  0
  -17.6464  -30.6590   24.0563 C   0  0  0  0  0  0
  -25.9055  -34.9437   23.5090 C   0  0  0  0  0  0
  -16.5355  -29.9087   23.6331 C   0  0  0  0  0  0
  -16.7277  -28.6505   23.0353 C   0  0  0  0  0  0
  -26.4504  -31.6578   25.0710 C   0  0  0  0  0  0
  -25.3725  -31.3732   26.1431 C   0  0  0  0  0  0
  -27.0353  -30.2994   24.6195 C   0  0  0  0  0  0
  -27.6053  -32.4322   25.7488 C   0  0  0  0  0  0
  -27.5577  -37.1796   24.8465 C   0  0  0  0  0  0
  -21.4207  -29.3044   22.3664 N   0  0  0  0  0  0
  -26.4289  -37.3766   23.9408 N   0  0  0  0  0  0
  -24.6966  -31.0509   22.0936 N   0  0  0  0  0  0
  -23.4198  -28.8145   23.3028 O   0  0  0  0  0  0
  -28.3414  -26.4010   20.1042 O   0  0  0  0  0  0
  -26.5633  -34.8915   22.4663 O   0  0  0  0  0  0
  -23.5462  -32.1363   23.7263 O   0  0  0  0  0  0
  -29.9898  -19.8471   22.3224 C   0  0  0  0  0  0
  -30.5915  -18.7345   22.9326 C   0  0  0  0  0  0
  -29.4225  -19.7913   21.0317 C   0  0  0  0  0  0
  -30.5882  -17.4585   22.3366 C   0  0  0  0  0  0
  -29.4108  -18.4525   20.4231 C   0  0  0  0  0  0
  -29.9782  -17.2584   21.0681 C   0  0  0  0  0  0
  -28.5378  -23.7548   19.7435 C   0  0  0  0  0  0
  -28.1782  -23.7455   18.4489 C   0  0  0  0  0  0
  -29.6802  -23.7125   22.4344 C   0  0  0  0  0  0
  -29.2352  -25.0826   21.9048 C   0  0  0  0  0  0
  -30.3487  -22.9225   21.3028 C   0  0  0  0  0  0
  -28.2804  -25.0175   20.6943 C   0  0  1  0  0  0
  -31.1735  -16.3152   23.1538 C   0  0  0  0  0  0
  -28.7221  -18.2786   19.0787 C   0  0  0  0  0  0
  -28.6747  -21.1299   20.5043 C   0  0  0  0  0  0
  -29.7659  -15.8605   20.5983 N   0  0  0  0  0  0
  -29.3571  -22.5104   20.2862 N   0  3  1  0  0  0
  -31.4764  -12.6094   19.1478 H   0  0  0  0  0  0
  -30.4028  -11.4863   19.9399 H   0  0  0  0  0  0
  -29.7898  -11.7333   17.5105 H   0  0  0  0  0  0
  -29.6260  -13.4600   17.7083 H   0  0  0  0  0  0
  -27.8973  -11.2764   18.9130 H   0  0  0  0  0  0
  -27.3739  -12.5119   17.7995 H   0  0  0  0  0  0
  -27.6330  -14.2462   19.4644 H   0  0  0  0  0  0
  -28.7319  -12.1532   21.4081 H   0  0  0  0  0  0
  -28.4259  -13.8283   21.7944 H   0  0  0  0  0  0
  -25.2758   -9.5680   22.4765 H   0  0  0  0  0  0
  -23.9996   -7.4633   22.7476 H   0  0  0  0  0  0
  -21.0837   -8.8775   19.8956 H   0  0  0  0  0  0
  -22.3694  -10.9673   19.6172 H   0  0  0  0  0  0
  -21.2008   -7.6147   23.9714 H   0  0  0  0  0  0
  -21.1480   -6.0522   25.9076 H   0  0  0  0  0  0
  -22.0598   -2.7607   23.2848 H   0  0  0  0  0  0
  -22.4079  -11.9879   22.4812 H   0  0  0  0  0  0
  -21.1087  -13.1251   22.2630 H   0  0  0  0  0  0
  -24.6464  -15.8384   20.5211 H   0  0  0  0  0  0
  -26.2575  -15.6358   20.0624 H   0  0  0  0  0  0
  -26.7203  -32.5407   23.1062 H   0  0  0  0  0  0
  -25.0065  -33.9686   25.0386 H   0  0  0  0  0  0
  -22.7248  -31.2960   21.3905 H   0  0  0  0  0  0
  -23.3749  -35.9616   23.3302 H   0  0  0  0  0  0
  -24.3575  -36.8908   22.2055 H   0  0  0  0  0  0
  -23.7243  -37.6483   23.6669 H   0  0  0  0  0  0
  -26.1066  -31.5269   20.5999 H   0  0  0  0  0  0
  -26.8517  -30.8236   22.0040 H   0  0  0  0  0  0
  -28.1341  -28.9470   21.1750 H   0  0  0  0  0  0
  -25.9846  -25.8689   19.0565 H   0  0  0  0  0  0
  -23.9724  -27.2734   19.0377 H   0  0  0  0  0  0
  -23.7750  -30.5732   19.4002 H   0  0  0  0  0  0
  -22.7658  -29.2342   19.8554 H   0  0  0  0  0  0
  -25.1298  -36.1912   25.0817 H   0  0  0  0  0  0
  -20.9982  -28.3277   24.1396 H   0  0  0  0  0  0
  -20.5675  -26.2309   23.3615 H   0  0  0  0  0  0
  -21.6645  -26.7439   22.1207 H   0  0  0  0  0  0
  -19.6913  -25.6294   21.1247 H   0  0  0  0  0  0
  -19.6689  -27.3192   20.6742 H   0  0  0  0  0  0
  -17.4201  -26.6677   21.4029 H   0  0  0  0  0  0
  -18.0333  -26.0076   22.9024 H   0  0  0  0  0  0
  -19.7940  -30.7279   24.2259 H   0  0  0  0  0  0
  -17.5018  -31.6269   24.5165 H   0  0  0  0  0  0
  -15.5355  -30.2987   23.7658 H   0  0  0  0  0  0
  -15.8676  -28.0822   22.7071 H   0  0  0  0  0  0
  -24.5902  -30.7078   25.7761 H   0  0  0  0  0  0
  -24.8917  -32.2904   26.4841 H   0  0  0  0  0  0
  -25.8041  -30.8921   27.0217 H   0  0  0  0  0  0
  -26.2938  -29.6736   24.1215 H   0  0  0  0  0  0
  -27.4031  -29.7262   25.4716 H   0  0  0  0  0  0
  -27.8814  -30.4268   23.9438 H   0  0  0  0  0  0
  -27.2656  -33.3626   26.2052 H   0  0  0  0  0  0
  -28.3873  -32.6877   25.0325 H   0  0  0  0  0  0
  -28.0712  -31.8458   26.5417 H   0  0  0  0  0  0
  -28.2594  -38.0093   24.7508 H   0  0  0  0  0  0
  -28.1072  -36.2623   24.6295 H   0  0  0  0  0  0
  -27.2295  -37.1450   25.8868 H   0  0  0  0  0  0
  -20.9395  -29.8762   21.6862 H   0  0  0  0  0  0
  -26.0166  -38.2839   24.1409 H   0  0  0  0  0  0
  -29.9425  -20.7543   22.9060 H   0  0  0  0  0  0
  -31.0152  -18.8632   23.9193 H   0  0  0  0  0  0
  -27.6637  -24.5889   18.0123 H   0  0  0  0  0  0
  -28.3900  -22.9093   17.7983 H   0  0  0  0  0  0
  -28.8373  -23.1612   22.8532 H   0  0  0  0  0  0
  -30.3919  -23.8558   23.2482 H   0  0  0  0  0  0
  -30.1272  -25.6416   21.6177 H   0  0  0  0  0  0
  -28.7722  -25.6617   22.7046 H   0  0  0  0  0  0
  -30.9591  -22.0998   21.6589 H   0  0  0  0  0  0
  -31.0729  -23.5694   20.8056 H   0  0  0  0  0  0
  -27.2755  -24.8596   21.0893 H   0  0  0  0  0  0
  -31.4402  -16.6360   24.1612 H   0  0  0  0  0  0
  -32.0807  -15.9334   22.6861 H   0  0  0  0  0  0
  -30.4570  -15.5005   23.2595 H   0  0  0  0  0  0
  -29.0204  -19.0656   18.3865 H   0  0  0  0  0  0
  -27.6390  -18.3144   19.1988 H   0  0  0  0  0  0
  -28.9775  -17.3318   18.6035 H   0  0  0  0  0  0
  -27.8656  -21.3094   21.2126 H   0  0  0  0  0  0
  -28.1654  -20.8896   19.5725 H   0  0  0  0  0  0
  -28.7939  -15.6227   20.4838 H   0  0  0  0  0  0
  -29.9750  -22.2647   19.5276 H   0  0  0  0  0  0
  1 25  1  0  0  0
  1 30  2  0  0  0
  1 86  1  0  0  0
  2  3  1  0  0  0
  2 25  1  0  0  0
  2 88  1  0  0  0
  2 89  1  0  0  0
  3  4  1  0  0  0
  3 90  1  0  0  0
  3 91  1  0  0  0
  4  5  1  0  0  0
  4 92  1  0  0  0
  4 93  1  0  0  0
  5  6  1  0  0  0
  5 26  1  0  0  0
  5 94  1  0  0  0
  6 25  1  0  0  0
  6 95  1  0  0  0
  6 96  1  0  0  0
  7  8  2  0  0  0
  7 26  1  0  0  0
  7 29  1  0  0  0
  8  9  1  0  0  0
  8 22  1  0  0  0
  9 10  1  0  0  0
  9 27  2  0  0  0
 10 11  2  0  0  0
 10 15  1  0  0  0
 11 12  1  0  0  0
 11 97  1  0  0  0
 12 13  2  0  0  0
 12 98  1  0  0  0
 13 14  1  0  0  0
 13 31  1  0  0  0
 14 15  2  0  0  0
 14 99  1  0  0  0
 15100  1  0  0  0
 16 17  2  0  0  0
 16 21  1  0  0  0
 16 31  1  0  0  0
 17 18  1  0  0  0
 17101  1  0  0  0
 18 19  2  0  0  0
 18102  1  0  0  0
 19 20  1  0  0  0
 19 24  1  0  0  0
 20 21  2  0  0  0
 20103  1  0  0  0
 21 23  1  0  0  0
 22 28  1  0  0  0
 22 32  2  0  0  0
 26 27  1  0  0  0
 28104  1  0  0  0
 28105  1  0  0  0
 29106  1  0  0  0
 29107  1  0  0  0
 33 34  1  0  0  0
 33 66  1  0  0  0
 33 70  2  0  0  0
 34 36  1  0  0  0
 34 59  1  0  0  0
 34108  1  0  0  0
 35 44  2  0  0  0
 35 45  1  0  0  0
 35 68  1  0  0  0
 36 56  1  0  0  0
 36109  1  0  0  0
 37 39  1  0  0  0
 37 47  1  0  0  0
 37 66  1  0  0  0
 37110  1  0  0  0
 38 43  2  0  0  0
 38 46  1  0  0  0
 38 47  1  0  0  0
 39 64  1  0  0  0
 39 67  2  0  0  0
 40 52  1  0  0  0
 40 53  2  0  0  0
 40 58  1  0  0  0
 41111  1  0  0  0
 41112  1  0  0  0
 41113  1  0  0  0
 41 48  1  0  0  0
 42 43  1  0  0  0
 42 66  1  0  0  0
 42114  1  0  0  0
 42115  1  0  0  0
 43 44  1  0  0  0
 44116  1  0  0  0
 45 46  2  0  0  0
 45117  1  0  0  0
 46118  1  0  0  0
 47119  1  0  0  0
 47120  1  0  0  0
 48 56  1  0  0  0
 48 65  1  0  0  0
 48121  1  0  0  0
 49 50  1  0  0  0
 49 53  1  0  0  0
 49 64  1  0  0  0
 49122  1  0  0  0
 50 51  1  0  0  0
 50123  1  0  0  0
 50124  1  0  0  0
 51 52  1  0  0  0
 51125  1  0  0  0
 51126  1  0  0  0
 52127  1  0  0  0
 52128  1  0  0  0
 53 54  1  0  0  0
 54 55  2  0  0  0
 54129  1  0  0  0
 55 57  1  0  0  0
 55130  1  0  0  0
 56 69  2  0  0  0
 57 58  2  0  0  0
 57131  1  0  0  0
 58132  1  0  0  0
 59 60  1  0  0  0
 59 61  1  0  0  0
 59 62  1  0  0  0
 60133  1  0  0  0
 60134  1  0  0  0
 60135  1  0  0  0
 61136  1  0  0  0
 61137  1  0  0  0
 61138  1  0  0  0
 62139  1  0  0  0
 62140  1  0  0  0
 62141  1  0  0  0
 63 65  1  0  0  0
 63142  1  0  0  0
 63143  1  0  0  0
 63144  1  0  0  0
 64145  1  0  0  0
 65146  1  0  0  0
 68 82  1  0  0  0
 71 72  2  0  0  0
 71 73  1  0  0  0
 71147  1  0  0  0
 72 74  1  0  0  0
 72148  1  0  0  0
 73 75  2  0  0  0
 73 85  1  0  0  0
 74 76  2  0  0  0
 74 83  1  0  0  0
 75 76  1  0  0  0
 75 84  1  0  0  0
 76 86  1  0  0  0
 77 78  2  0  0  0
 77 82  1  0  0  0
 77 87  1  0  0  0
 78149  1  0  0  0
 78150  1  0  0  0
 79 80  1  0  0  0
 79 81  1  0  0  0
 79151  1  0  0  0
 79152  1  0  0  0
 80 82  1  0  0  0
 80153  1  0  0  0
 80154  1  0  0  0
 81 87  1  0  0  0
 81155  1  0  0  0
 81156  1  0  0  0
 82157  1  0  0  0
 83158  1  0  0  0
 83159  1  0  0  0
 83160  1  0  0  0
 84161  1  0  0  0
 84162  1  0  0  0
 84163  1  0  0  0
 85164  1  0  0  0
 85165  1  0  0  0
 85 87  1  0  0  0
 86166  1  0  0  0
 87167  1  0  0  0
M  CHG  1  87   1
M  ISO  4   1 100  68 101  82 101  86 100
M  END
> <chiral flag>
0

> <version>
0

> <s_m_source_file>
/data/baiqing/PycharmProjects/Reinvent-master-3.2/result/LINK_invent/BTK/process_docking_weight1_custom_product_contain_oxygen_bond_distance_aromatic_linkinvent_7_9_3/rearranged_h_0040.sdf

> <i_m_source_file_index>
40

> <r_mmod_Potential_Energy-OPLS-2005>
99.5999526977539

> <r_mmod_Stretch_Energy-OPLS-2005>
146.284622192383

> <r_mmod_Bend_Energy-OPLS-2005>
197.885162353516

> <r_mmod_Torsional_Energy-OPLS-2005>
269.144256591797

> <r_mmod_Improper_Torsional_Energy-OPLS-2005>
9.49412727355957

> <r_mmod_Van_der_Waal_Energy-OPLS-2005>
138.665283203125

> <r_mmod_Electrostatic_Energy-OPLS-2005>
-310.549621582031

> <r_mmod_Solvation_Energy-OPLS-2005>
-434.49169921875

> <b_mmod_Minimization_Converged-OPLS-2005>
0

> <r_mmod_RMS_Derivative-OPLS-2005>
0.286764860153198

$$$$
40
                    3D
 Structure written by MMmdl.
174183  0  0  1  0            999 V2000
  -30.6791  -14.5363   20.5361 C   0  0  0  0  0  0
  -30.4264  -12.3400   19.4330 C   0  0  0  0  0  0
  -29.5006  -12.5037   18.2100 C   0  0  0  0  0  0
  -28.0197  -12.3630   18.6171 C   0  0  0  0  0  0
  -27.6561  -13.2166   19.8632 C   0  0  2  0  0  0
  -28.6991  -13.0362   20.9880 C   0  0  0  0  0  0
  -25.2560  -13.8180   20.5663 C   0  0  0  0  0  0
  -24.1836  -13.0439   20.9174 C   0  0  0  0  0  0
  -24.6411  -11.6909   20.8737 C   0  0  0  0  0  0
  -23.9082  -10.4292   21.0412 C   0  0  0  0  0  0
  -24.3628   -9.4204   21.9188 C   0  0  0  0  0  0
  -23.6293   -8.2247   22.0764 C   0  0  0  0  0  0
  -22.4270   -8.0288   21.3556 C   0  0  0  0  0  0
  -21.9911   -9.0266   20.4656 C   0  0  0  0  0  0
  -22.7257  -10.2136   20.3062 C   0  0  0  0  0  0
  -21.6848   -6.0736   22.5288 C   0  0  0  0  0  0
  -21.4018   -6.5640   23.8222 C   0  0  0  0  0  0
  -21.3661   -5.6788   24.9185 C   0  0  0  0  0  0
  -21.6046   -4.3052   24.7231 C   0  0  0  0  0  0
  -21.8824   -3.8145   23.4350 C   0  0  0  0  0  0
  -21.9195   -4.6964   22.3405 C   0  0  0  0  0  0
  -22.7853  -13.5227   21.1833 C   0  0  0  0  0  0
  -22.1660   -4.2151   21.0981 F   0  0  0  0  0  0
  -21.5623   -3.4534   25.7741 F   0  0  0  0  0  0
  -30.0208  -13.3484   20.4259 N   0  0  0  0  0  0
  -26.3000  -12.9372   20.3312 N   0  0  0  0  0  0
  -25.9340  -11.6526   20.5756 N   0  0  0  0  0  0
  -22.0500  -12.8230   22.0391 N   0  0  0  0  0  0
  -25.4244  -15.1904   20.4060 N   0  0  0  0  0  0
  -31.8484  -14.6738   20.1679 O   0  0  0  0  0  0
  -21.6626   -6.8887   21.4249 O   0  0  0  0  0  0
  -22.3538  -14.5535   20.6684 O   0  0  0  0  0  0
  -24.6178  -31.8649   23.2053 C   0  0  0  0  0  0
  -25.9054  -32.4805   23.8371 C   0  0  1  0  0  0
  -27.2393  -27.4021   20.1152 C   0  0  0  0  0  0
  -25.5899  -33.8603   24.2306 N   0  0  0  0  0  0
  -23.4082  -30.4856   21.5460 C   0  0  2  0  0  0
  -24.8575  -28.9398   20.1199 C   0  0  0  0  0  0
  -22.7423  -29.4647   22.4970 C   0  0  0  0  0  0
  -18.0279  -28.1382   22.8488 C   0  0  0  0  0  0
  -24.1486  -36.7310   23.2638 C   0  0  0  0  0  0
  -25.9387  -30.8229   21.3606 C   0  0  0  0  0  0
  -26.0187  -29.4518   20.7131 C   0  0  0  0  0  0
  -27.2156  -28.6937   20.6988 C   0  0  0  0  0  0
  -26.0621  -26.9072   19.5180 C   0  0  0  0  0  0
  -24.8757  -27.6684   19.5177 C   0  0  0  0  0  0
  -23.6201  -29.8106   20.1638 C   0  0  0  0  0  0
  -25.4107  -36.3100   24.0334 C   0  0  1  0  0  0
  -20.5869  -28.3676   23.1304 C   0  0  2  0  0  0
  -20.6769  -26.9409   22.5413 C   0  0  0  0  0  0
  -19.5749  -26.6389   21.5208 C   0  0  0  0  0  0
  -18.1928  -26.7928   22.1621 C   0  0  0  0  0  0
  -19.1527  -28.8844   23.2897 C   0  0  0  0  0  0
  -18.9455  -30.1448   23.8910 C   0  0  0  0  0  0
  -17.6458  -30.6587   24.0566 C   0  0  0  0  0  0
  -25.9039  -34.9466   23.5120 C   0  0  0  0  0  0
  -16.5349  -29.9090   23.6328 C   0  0  0  0  0  0
  -16.7268  -28.6507   23.0349 C   0  0  0  0  0  0
  -26.4478  -31.6589   25.0708 C   0  0  0  0  0  0
  -25.3745  -31.3684   26.1456 C   0  0  0  0  0  0
  -27.0317  -30.3033   24.6084 C   0  0  0  0  0  0
  -27.6053  -32.4307   25.7478 C   0  0  0  0  0  0
  -27.5578  -37.1809   24.8464 C   0  0  0  0  0  0
  -21.4145  -29.3040   22.3703 N   0  0  0  0  0  0
  -26.4291  -37.3786   23.9406 N   0  0  0  0  0  0
  -24.6732  -31.0732   22.0957 N   0  0  0  0  0  0
  -23.4182  -28.8200   23.3033 O   0  0  0  0  0  0
  -28.4018  -26.6536   20.0810 O   0  0  0  0  0  0
  -26.5604  -34.8922   22.4683 O   0  0  0  0  0  0
  -23.5364  -32.1402   23.7438 O   0  0  0  0  0  0
  -28.3485  -20.0904   18.5478 C   0  0  0  0  0  0
  -29.2179  -19.3296   20.6818 C   0  0  0  0  0  0
  -28.5753  -20.3496   19.9140 C   0  0  0  0  0  0
  -28.7939  -18.9021   17.9408 C   0  0  0  0  0  0
  -29.6423  -18.0909   20.1002 C   0  0  0  0  0  0
  -29.4470  -17.9080   18.7044 C   0  0  0  0  0  0
  -28.5303  -24.1389   19.8717 C   0  0  0  0  0  0
  -28.7453  -24.1953   18.5407 C   0  0  0  0  0  0
  -29.2397  -23.1181   17.7123 C   0  0  0  0  0  0
  -29.2485  -23.1760   16.3715 C   0  0  0  0  0  0
  -29.9824  -24.1013   22.4181 C   0  0  0  0  0  0
  -29.6700  -25.4301   21.6817 C   0  0  0  0  0  0
  -29.9397  -22.8637   21.4901 C   0  0  0  0  0  0
  -28.4088  -25.3816   20.7800 C   0  0  1  0  0  0
  -28.5521  -18.7000   16.4554 C   0  0  0  0  0  0
  -29.7922  -22.0845   15.4758 C   0  0  0  0  0  0
  -30.3704  -17.0252   20.9673 C   0  0  0  0  0  0
  -27.9162  -21.6163   20.5317 C   0  0  0  0  0  0
  -29.9267  -15.6059   20.8923 N   0  0  0  0  0  0
  -28.6630  -22.9065   20.7576 N   0  3  2  0  0  0
  -30.0113  -16.4908   17.8854 Cl  0  0  0  0  0  0
  -31.4703  -12.4451   19.1337 H   0  0  0  0  0  0
  -30.3363  -11.3383   19.8554 H   0  0  0  0  0  0
  -29.7521  -11.7666   17.4463 H   0  0  0  0  0  0
  -29.6627  -13.4829   17.7564 H   0  0  0  0  0  0
  -27.8298  -11.3081   18.8182 H   0  0  0  0  0  0
  -27.3750  -12.6307   17.7786 H   0  0  0  0  0  0
  -27.6872  -14.2588   19.5439 H   0  0  0  0  0  0
  -28.6894  -12.0100   21.3570 H   0  0  0  0  0  0
  -28.4610  -13.6640   21.8482 H   0  0  0  0  0  0
  -25.2785   -9.5662   22.4757 H   0  0  0  0  0  0
  -24.0005   -7.4632   22.7480 H   0  0  0  0  0  0
  -21.0851   -8.8799   19.8947 H   0  0  0  0  0  0
  -22.3744  -10.9678   19.6160 H   0  0  0  0  0  0
  -21.2010   -7.6143   23.9730 H   0  0  0  0  0  0
  -21.1467   -6.0512   25.9089 H   0  0  0  0  0  0
  -22.0592   -2.7602   23.2854 H   0  0  0  0  0  0
  -22.4102  -11.9884   22.4772 H   0  0  0  0  0  0
  -21.1124  -13.1272   22.2601 H   0  0  0  0  0  0
  -24.6476  -15.8363   20.4979 H   0  0  0  0  0  0
  -26.2575  -15.6277   20.0335 H   0  0  0  0  0  0
  -26.7129  -32.5512   23.1143 H   0  0  0  0  0  0
  -25.0054  -33.9759   25.0454 H   0  0  0  0  0  0
  -22.6991  -31.3031   21.4005 H   0  0  0  0  0  0
  -23.3744  -35.9648   23.3304 H   0  0  0  0  0  0
  -24.3579  -36.8925   22.2052 H   0  0  0  0  0  0
  -23.7246  -37.6517   23.6656 H   0  0  0  0  0  0
  -26.0509  -31.5849   20.5880 H   0  0  0  0  0  0
  -26.8265  -30.8816   21.9785 H   0  0  0  0  0  0
  -28.1163  -29.0901   21.1468 H   0  0  0  0  0  0
  -26.0644  -25.9355   19.0450 H   0  0  0  0  0  0
  -23.9843  -27.2694   19.0539 H   0  0  0  0  0  0
  -23.7310  -30.5812   19.3998 H   0  0  0  0  0  0
  -22.7443  -29.2296   19.8690 H   0  0  0  0  0  0
  -25.1285  -36.1960   25.0828 H   0  0  0  0  0  0
  -20.9968  -28.3250   24.1421 H   0  0  0  0  0  0
  -20.5673  -26.2285   23.3602 H   0  0  0  0  0  0
  -21.6640  -26.7452   22.1204 H   0  0  0  0  0  0
  -19.6914  -25.6302   21.1231 H   0  0  0  0  0  0
  -19.6691  -27.3205   20.6741 H   0  0  0  0  0  0
  -17.4198  -26.6676   21.4023 H   0  0  0  0  0  0
  -18.0335  -26.0067   22.9014 H   0  0  0  0  0  0
  -19.7932  -30.7258   24.2287 H   0  0  0  0  0  0
  -17.5016  -31.6267   24.5168 H   0  0  0  0  0  0
  -15.5352  -30.3001   23.7641 H   0  0  0  0  0  0
  -15.8668  -28.0832   22.7058 H   0  0  0  0  0  0
  -24.5920  -30.7032   25.7786 H   0  0  0  0  0  0
  -24.8937  -32.2833   26.4925 H   0  0  0  0  0  0
  -25.8103  -30.8836   27.0201 H   0  0  0  0  0  0
  -26.2858  -29.6788   24.1150 H   0  0  0  0  0  0
  -27.4107  -29.7274   25.4538 H   0  0  0  0  0  0
  -27.8683  -30.4360   23.9220 H   0  0  0  0  0  0
  -27.2672  -33.3598   26.2081 H   0  0  0  0  0  0
  -28.3854  -32.6878   25.0300 H   0  0  0  0  0  0
  -28.0731  -31.8411   26.5375 H   0  0  0  0  0  0
  -28.2592  -38.0110   24.7515 H   0  0  0  0  0  0
  -28.1078  -36.2640   24.6286 H   0  0  0  0  0  0
  -27.2296  -37.1455   25.8867 H   0  0  0  0  0  0
  -20.9311  -29.8755   21.6912 H   0  0  0  0  0  0
  -26.0177  -38.2862   24.1409 H   0  0  0  0  0  0
  -27.8068  -20.8106   17.9505 H   0  0  0  0  0  0
  -29.3613  -19.4815   21.7426 H   0  0  0  0  0  0
  -28.6884  -25.1727   18.0807 H   0  0  0  0  0  0
  -29.6614  -22.2468   18.1866 H   0  0  0  0  0  0
  -28.8504  -24.0467   15.8674 H   0  0  0  0  0  0
  -29.2650  -23.9719   23.2295 H   0  0  0  0  0  0
  -30.9599  -24.1670   22.8980 H   0  0  0  0  0  0
  -30.5292  -25.6845   21.0582 H   0  0  0  0  0  0
  -29.5784  -26.2425   22.4035 H   0  0  0  0  0  0
  -30.0216  -21.9520   22.0828 H   0  0  0  0  0  0
  -30.7707  -22.8644   20.7831 H   0  0  0  0  0  0
  -27.5186  -25.2804   21.4044 H   0  0  0  0  0  0
  -27.9972  -19.5304   16.0199 H   0  0  0  0  0  0
  -27.9811  -17.7879   16.2806 H   0  0  0  0  0  0
  -29.5020  -18.6193   15.9259 H   0  0  0  0  0  0
  -30.1926  -21.2524   16.0561 H   0  0  0  0  0  0
  -30.5921  -22.4780   14.8475 H   0  0  0  0  0  0
  -29.0030  -21.7019   14.8283 H   0  0  0  0  0  0
  -30.3009  -17.3199   22.0151 H   0  0  0  0  0  0
  -31.4312  -17.0974   20.7227 H   0  0  0  0  0  0
  -27.5437  -21.3126   21.5103 H   0  0  0  0  0  0
  -27.0157  -21.8487   19.9617 H   0  0  0  0  0  0
  -28.9641  -15.4209   21.1270 H   0  0  0  0  0  0
  -28.0820  -23.1722   21.5378 H   0  0  0  0  0  0
  1 25  1  0  0  0
  1 30  2  0  0  0
  1 89  1  0  0  0
  2  3  1  0  0  0
  2 25  1  0  0  0
  2 92  1  0  0  0
  2 93  1  0  0  0
  3  4  1  0  0  0
  3 94  1  0  0  0
  3 95  1  0  0  0
  4  5  1  0  0  0
  4 96  1  0  0  0
  4 97  1  0  0  0
  5  6  1  0  0  0
  5 26  1  0  0  0
  5 98  1  0  0  0
  6 25  1  0  0  0
  6 99  1  0  0  0
  6100  1  0  0  0
  7  8  2  0  0  0
  7 26  1  0  0  0
  7 29  1  0  0  0
  8  9  1  0  0  0
  8 22  1  0  0  0
  9 10  1  0  0  0
  9 27  2  0  0  0
 10 11  2  0  0  0
 10 15  1  0  0  0
 11 12  1  0  0  0
 11101  1  0  0  0
 12 13  2  0  0  0
 12102  1  0  0  0
 13 14  1  0  0  0
 13 31  1  0  0  0
 14 15  2  0  0  0
 14103  1  0  0  0
 15104  1  0  0  0
 16 17  2  0  0  0
 16 21  1  0  0  0
 16 31  1  0  0  0
 17 18  1  0  0  0
 17105  1  0  0  0
 18 19  2  0  0  0
 18106  1  0  0  0
 19 20  1  0  0  0
 19 24  1  0  0  0
 20 21  2  0  0  0
 20107  1  0  0  0
 21 23  1  0  0  0
 22 28  1  0  0  0
 22 32  2  0  0  0
 26 27  1  0  0  0
 28108  1  0  0  0
 28109  1  0  0  0
 29110  1  0  0  0
 29111  1  0  0  0
 33 34  1  0  0  0
 33 66  1  0  0  0
 33 70  2  0  0  0
 34 36  1  0  0  0
 34 59  1  0  0  0
 34112  1  0  0  0
 35 44  2  0  0  0
 35 45  1  0  0  0
 35 68  1  0  0  0
 36 56  1  0  0  0
 36113  1  0  0  0
 37 39  1  0  0  0
 37 47  1  0  0  0
 37 66  1  0  0  0
 37114  1  0  0  0
 38 43  2  0  0  0
 38 46  1  0  0  0
 38 47  1  0  0  0
 39 64  1  0  0  0
 39 67  2  0  0  0
 40 52  1  0  0  0
 40 53  2  0  0  0
 40 58  1  0  0  0
 41115  1  0  0  0
 41116  1  0  0  0
 41117  1  0  0  0
 41 48  1  0  0  0
 42 43  1  0  0  0
 42 66  1  0  0  0
 42118  1  0  0  0
 42119  1  0  0  0
 43 44  1  0  0  0
 44120  1  0  0  0
 45 46  2  0  0  0
 45121  1  0  0  0
 46122  1  0  0  0
 47123  1  0  0  0
 47124  1  0  0  0
 48 56  1  0  0  0
 48 65  1  0  0  0
 48125  1  0  0  0
 49 50  1  0  0  0
 49 53  1  0  0  0
 49 64  1  0  0  0
 49126  1  0  0  0
 50 51  1  0  0  0
 50127  1  0  0  0
 50128  1  0  0  0
 51 52  1  0  0  0
 51129  1  0  0  0
 51130  1  0  0  0
 52131  1  0  0  0
 52132  1  0  0  0
 53 54  1  0  0  0
 54 55  2  0  0  0
 54133  1  0  0  0
 55 57  1  0  0  0
 55134  1  0  0  0
 56 69  2  0  0  0
 57 58  2  0  0  0
 57135  1  0  0  0
 58136  1  0  0  0
 59 60  1  0  0  0
 59 61  1  0  0  0
 59 62  1  0  0  0
 60137  1  0  0  0
 60138  1  0  0  0
 60139  1  0  0  0
 61140  1  0  0  0
 61141  1  0  0  0
 61142  1  0  0  0
 62143  1  0  0  0
 62144  1  0  0  0
 62145  1  0  0  0
 63 65  1  0  0  0
 63146  1  0  0  0
 63147  1  0  0  0
 63148  1  0  0  0
 64149  1  0  0  0
 65150  1  0  0  0
 68 84  1  0  0  0
 71 73  2  0  0  0
 71 74  1  0  0  0
 71151  1  0  0  0
 72 73  1  0  0  0
 72 75  2  0  0  0
 72152  1  0  0  0
 73 88  1  0  0  0
 74 76  2  0  0  0
 74 85  1  0  0  0
 75 76  1  0  0  0
 75 87  1  0  0  0
 76 91  1  0  0  0
 77 78  2  0  0  0
 77 84  1  0  0  0
 77 90  1  0  0  0
 78 79  1  0  0  0
 78153  1  0  0  0
 79 80  2  0  0  0
 79154  1  0  0  0
 80 86  1  0  0  0
 80155  1  0  0  0
 81 82  1  0  0  0
 81 83  1  0  0  0
 81156  1  0  0  0
 81157  1  0  0  0
 82 84  1  0  0  0
 82158  1  0  0  0
 82159  1  0  0  0
 83 90  1  0  0  0
 83160  1  0  0  0
 83161  1  0  0  0
 84162  1  0  0  0
 85163  1  0  0  0
 85164  1  0  0  0
 85165  1  0  0  0
 86166  1  0  0  0
 86167  1  0  0  0
 86168  1  0  0  0
 87 89  1  0  0  0
 87169  1  0  0  0
 87170  1  0  0  0
 88171  1  0  0  0
 88172  1  0  0  0
 88 90  1  0  0  0
 89173  1  0  0  0
 90174  1  0  0  0
M  CHG  1  90   1
M  ISO  4   1 100  68 101  84 101  89 100
M  END
> <chiral flag>
0

> <version>
0

> <s_m_source_file>
/data/baiqing/PycharmProjects/Reinvent-master-3.2/result/LINK_invent/BTK/process_docking_weight1_custom_product_contain_oxygen_bond_distance_aromatic_linkinvent_7_9_3/rearranged_h_0040.sdf

> <i_m_source_file_index>
41

> <r_mmod_Potential_Energy-OPLS-2005>
-106.76286315918

> <r_mmod_Stretch_Energy-OPLS-2005>
55.5856971740723

> <r_mmod_Bend_Energy-OPLS-2005>
162.223495483398

> <r_mmod_Torsional_Energy-OPLS-2005>
244.328903198242

> <r_mmod_Improper_Torsional_Energy-OPLS-2005>
6.38003587722778

> <r_mmod_Van_der_Waal_Energy-OPLS-2005>
134.861099243164

> <r_mmod_Electrostatic_Energy-OPLS-2005>
-287.532135009766

> <r_mmod_Solvation_Energy-OPLS-2005>
-443.567962646484

> <b_mmod_Minimization_Converged-OPLS-2005>
0

> <r_mmod_RMS_Derivative-OPLS-2005>
1.24549376964569

$$$$
41
                    3D
 Structure written by MMmdl.
163172  0  0  1  0            999 V2000
  -30.6406  -14.6701   20.4854 C   0  0  0  0  0  0
  -30.4260  -12.4150   19.4525 C   0  0  0  0  0  0
  -29.5003  -12.4990   18.2209 C   0  0  0  0  0  0
  -28.0257  -12.3351   18.6380 C   0  0  0  0  0  0
  -27.6423  -13.2255   19.8505 C   0  0  2  0  0  0
  -28.6882  -13.1300   20.9813 C   0  0  0  0  0  0
  -25.2513  -13.8188   20.5683 C   0  0  0  0  0  0
  -24.1804  -13.0441   20.9214 C   0  0  0  0  0  0
  -24.6388  -11.6917   20.8755 C   0  0  0  0  0  0
  -23.9063  -10.4295   21.0412 C   0  0  0  0  0  0
  -24.3618   -9.4209   21.9187 C   0  0  0  0  0  0
  -23.6295   -8.2242   22.0754 C   0  0  0  0  0  0
  -22.4277   -8.0280   21.3543 C   0  0  0  0  0  0
  -21.9913   -9.0253   20.4644 C   0  0  0  0  0  0
  -22.7240  -10.2134   20.3057 C   0  0  0  0  0  0
  -21.6854   -6.0735   22.5279 C   0  0  0  0  0  0
  -21.4013   -6.5640   23.8212 C   0  0  0  0  0  0
  -21.3659   -5.6793   24.9175 C   0  0  0  0  0  0
  -21.6044   -4.3055   24.7225 C   0  0  0  0  0  0
  -21.8819   -3.8146   23.4347 C   0  0  0  0  0  0
  -21.9194   -4.6963   22.3403 C   0  0  0  0  0  0
  -22.7826  -13.5226   21.1873 C   0  0  0  0  0  0
  -22.1662   -4.2148   21.0981 F   0  0  0  0  0  0
  -21.5629   -3.4538   25.7737 F   0  0  0  0  0  0
  -29.9924  -13.4652   20.3971 N   0  0  0  0  0  0
  -26.2935  -12.9385   20.3277 N   0  0  0  0  0  0
  -25.9313  -11.6533   20.5756 N   0  0  0  0  0  0
  -22.0472  -12.8211   22.0425 N   0  0  0  0  0  0
  -25.4200  -15.1906   20.4063 N   0  0  0  0  0  0
  -31.8297  -14.7637   20.1713 O   0  0  0  0  0  0
  -21.6642   -6.8877   21.4241 O   0  0  0  0  0  0
  -22.3512  -14.5533   20.6723 O   0  0  0  0  0  0
  -24.6270  -31.8577   23.1980 C   0  0  0  0  0  0
  -25.9113  -32.4762   23.8316 C   0  0  1  0  0  0
  -27.2302  -27.3081   20.1066 C   0  0  0  0  0  0
  -25.5930  -33.8562   24.2253 N   0  0  0  0  0  0
  -23.4199  -30.4794   21.5412 C   0  0  2  0  0  0
  -24.8636  -28.9247   20.1109 C   0  0  0  0  0  0
  -22.7470  -29.4617   22.4927 C   0  0  0  0  0  0
  -18.0286  -28.1390   22.8485 C   0  0  0  0  0  0
  -24.1487  -36.7274   23.2641 C   0  0  0  0  0  0
  -25.9598  -30.7860   21.3652 C   0  0  0  0  0  0
  -26.0323  -29.4113   20.7072 C   0  0  0  0  0  0
  -27.2139  -28.6144   20.6915 C   0  0  0  0  0  0
  -26.0235  -26.8522   19.5347 C   0  0  0  0  0  0
  -24.8605  -27.6499   19.5196 C   0  0  0  0  0  0
  -23.6330  -29.8079   20.1580 C   0  0  0  0  0  0
  -25.4114  -36.3070   24.0331 C   0  0  1  0  0  0
  -20.5885  -28.3690   23.1285 C   0  0  2  0  0  0
  -20.6773  -26.9413   22.5414 C   0  0  0  0  0  0
  -19.5751  -26.6387   21.5213 C   0  0  0  0  0  0
  -18.1930  -26.7933   22.1621 C   0  0  0  0  0  0
  -19.1539  -28.8855   23.2880 C   0  0  0  0  0  0
  -18.9464  -30.1455   23.8896 C   0  0  0  0  0  0
  -17.6467  -30.6592   24.0564 C   0  0  0  0  0  0
  -25.9058  -34.9444   23.5094 C   0  0  0  0  0  0
  -16.5355  -29.9094   23.6329 C   0  0  0  0  0  0
  -16.7274  -28.6512   23.0349 C   0  0  0  0  0  0
  -26.4495  -31.6581   25.0695 C   0  0  0  0  0  0
  -25.3730  -31.3720   26.1423 C   0  0  0  0  0  0
  -27.0341  -30.3010   24.6145 C   0  0  0  0  0  0
  -27.6053  -32.4317   25.7472 C   0  0  0  0  0  0
  -27.5576  -37.1791   24.8468 C   0  0  0  0  0  0
  -21.4184  -29.3041   22.3677 N   0  0  0  0  0  0
  -26.4285  -37.3771   23.9419 N   0  0  0  0  0  0
  -24.6881  -31.0582   22.0921 N   0  0  0  0  0  0
  -23.4194  -28.8163   23.3014 O   0  0  0  0  0  0
  -28.3932  -26.5221   20.1629 O   0  0  0  0  0  0
  -26.5624  -34.8920   22.4659 O   0  0  0  0  0  0
  -23.5434  -32.1376   23.7314 O   0  0  0  0  0  0
  -28.2617  -20.4686   20.5572 C   0  0  0  0  0  0
  -30.7362  -19.4063   19.8536 C   0  0  0  0  0  0
  -28.6091  -19.1190   20.9244 C   0  0  0  0  0  0
  -29.8687  -18.5440   20.5719 C   0  0  0  0  0  0
  -29.1307  -21.3195   19.8135 C   0  0  0  0  0  0
  -30.3948  -20.7398   19.4885 C   0  0  0  0  0  0
  -28.6287  -22.7310   17.8708 C   0  0  0  0  0  0
  -28.2092  -21.7328   17.0724 C   0  0  0  0  0  0
  -29.0418  -24.0732   17.2824 C   0  0  0  0  0  0
  -28.3648  -25.2552   17.9781 C   0  0  0  0  0  0
  -28.3190  -23.7759   20.1163 C   0  0  0  0  0  0
  -28.6475  -25.2197   19.4885 C   0  0  2  0  0  0
  -27.6156  -18.3015   21.7288 C   0  0  0  0  0  0
  -30.4387  -17.1636   21.1073 C   0  0  0  0  0  0
  -28.7334  -22.6007   19.2615 N   0  0  0  0  0  0
  -29.8983  -15.7963   20.7613 N   0  0  0  0  0  0
  -31.5924  -21.6549   18.6356 Cl  0  0  0  0  0  0
  -31.4674  -12.5324   19.1476 H   0  0  0  0  0  0
  -30.3600  -11.4319   19.9210 H   0  0  0  0  0  0
  -29.7699  -11.7331   17.4925 H   0  0  0  0  0  0
  -29.6363  -13.4591   17.7205 H   0  0  0  0  0  0
  -27.8711  -11.2851   18.8881 H   0  0  0  0  0  0
  -27.3682  -12.5440   17.7935 H   0  0  0  0  0  0
  -27.6461  -14.2524   19.4850 H   0  0  0  0  0  0
  -28.7102  -12.1259   21.4070 H   0  0  0  0  0  0
  -28.4351  -13.8031   21.8020 H   0  0  0  0  0  0
  -25.2762   -9.5686   22.4762 H   0  0  0  0  0  0
  -24.0004   -7.4632   22.7471 H   0  0  0  0  0  0
  -21.0845   -8.8768   19.8948 H   0  0  0  0  0  0
  -22.3696  -10.9673   19.6165 H   0  0  0  0  0  0
  -21.2004   -7.6149   23.9715 H   0  0  0  0  0  0
  -21.1481   -6.0523   25.9076 H   0  0  0  0  0  0
  -22.0599   -2.7608   23.2847 H   0  0  0  0  0  0
  -22.4094  -11.9871   22.4805 H   0  0  0  0  0  0
  -21.1088  -13.1227   22.2632 H   0  0  0  0  0  0
  -24.6448  -15.8375   20.5007 H   0  0  0  0  0  0
  -26.2506  -15.6230   20.0244 H   0  0  0  0  0  0
  -26.7177  -32.5419   23.1058 H   0  0  0  0  0  0
  -25.0093  -33.9703   25.0408 H   0  0  0  0  0  0
  -22.7145  -31.3001   21.3952 H   0  0  0  0  0  0
  -23.3758  -35.9598   23.3306 H   0  0  0  0  0  0
  -24.3576  -36.8889   22.2054 H   0  0  0  0  0  0
  -23.7231  -37.6474   23.6660 H   0  0  0  0  0  0
  -26.0906  -31.5491   20.5966 H   0  0  0  0  0  0
  -26.8407  -30.8355   21.9936 H   0  0  0  0  0  0
  -28.1154  -28.9893   21.1552 H   0  0  0  0  0  0
  -25.9384  -25.8544   19.1388 H   0  0  0  0  0  0
  -23.9547  -27.2584   19.0775 H   0  0  0  0  0  0
  -23.7539  -30.5814   19.3988 H   0  0  0  0  0  0
  -22.7518  -29.2386   19.8568 H   0  0  0  0  0  0
  -25.1297  -36.1911   25.0823 H   0  0  0  0  0  0
  -20.9979  -28.3263   24.1405 H   0  0  0  0  0  0
  -20.5666  -26.2302   23.3612 H   0  0  0  0  0  0
  -21.6642  -26.7440   22.1209 H   0  0  0  0  0  0
  -19.6916  -25.6299   21.1238 H   0  0  0  0  0  0
  -19.6694  -27.3199   20.6744 H   0  0  0  0  0  0
  -17.4201  -26.6680   21.4023 H   0  0  0  0  0  0
  -18.0327  -26.0077   22.9019 H   0  0  0  0  0  0
  -19.7946  -30.7265   24.2269 H   0  0  0  0  0  0
  -17.5028  -31.6273   24.5166 H   0  0  0  0  0  0
  -15.5355  -30.2998   23.7663 H   0  0  0  0  0  0
  -15.8673  -28.0835   22.7063 H   0  0  0  0  0  0
  -24.5922  -30.7048   25.7756 H   0  0  0  0  0  0
  -24.8899  -32.2884   26.4826 H   0  0  0  0  0  0
  -25.8058  -30.8923   27.0210 H   0  0  0  0  0  0
  -26.2913  -29.6754   24.1182 H   0  0  0  0  0  0
  -27.4070  -29.7271   25.4637 H   0  0  0  0  0  0
  -27.8763  -30.4312   23.9343 H   0  0  0  0  0  0
  -27.2671  -33.3627   26.2031 H   0  0  0  0  0  0
  -28.3875  -32.6855   25.0308 H   0  0  0  0  0  0
  -28.0703  -31.8448   26.5404 H   0  0  0  0  0  0
  -28.2590  -38.0093   24.7523 H   0  0  0  0  0  0
  -28.1074  -36.2625   24.6280 H   0  0  0  0  0  0
  -27.2296  -37.1416   25.8870 H   0  0  0  0  0  0
  -20.9363  -29.8763   21.6886 H   0  0  0  0  0  0
  -26.0162  -38.2840   24.1434 H   0  0  0  0  0  0
  -27.2836  -20.8473   20.8169 H   0  0  0  0  0  0
  -31.7233  -19.0530   19.5929 H   0  0  0  0  0  0
  -28.1480  -21.8604   16.0007 H   0  0  0  0  0  0
  -27.9112  -20.7704   17.4642 H   0  0  0  0  0  0
  -28.8093  -24.1031   16.2168 H   0  0  0  0  0  0
  -30.1269  -24.1629   17.3561 H   0  0  0  0  0  0
  -27.3039  -25.2017   17.7531 H   0  0  0  0  0  0
  -28.7299  -26.1894   17.5507 H   0  0  0  0  0  0
  -27.2461  -23.7001   20.2939 H   0  0  0  0  0  0
  -28.7959  -23.6898   21.0931 H   0  0  0  0  0  0
  -29.7376  -25.2281   19.5342 H   0  0  0  0  0  0
  -26.6772  -18.8377   21.8733 H   0  0  0  0  0  0
  -28.0207  -18.0643   22.7126 H   0  0  0  0  0  0
  -27.3869  -17.3669   21.2173 H   0  0  0  0  0  0
  -30.3919  -17.2272   22.1951 H   0  0  0  0  0  0
  -31.5093  -17.1648   20.8971 H   0  0  0  0  0  0
  -28.9131  -15.6511   20.9146 H   0  0  0  0  0  0
  1 25  1  0  0  0
  1 30  2  0  0  0
  1 86  1  0  0  0
  2  3  1  0  0  0
  2 25  1  0  0  0
  2 88  1  0  0  0
  2 89  1  0  0  0
  3  4  1  0  0  0
  3 90  1  0  0  0
  3 91  1  0  0  0
  4  5  1  0  0  0
  4 92  1  0  0  0
  4 93  1  0  0  0
  5  6  1  0  0  0
  5 26  1  0  0  0
  5 94  1  0  0  0
  6 25  1  0  0  0
  6 95  1  0  0  0
  6 96  1  0  0  0
  7  8  2  0  0  0
  7 26  1  0  0  0
  7 29  1  0  0  0
  8  9  1  0  0  0
  8 22  1  0  0  0
  9 10  1  0  0  0
  9 27  2  0  0  0
 10 11  2  0  0  0
 10 15  1  0  0  0
 11 12  1  0  0  0
 11 97  1  0  0  0
 12 13  2  0  0  0
 12 98  1  0  0  0
 13 14  1  0  0  0
 13 31  1  0  0  0
 14 15  2  0  0  0
 14 99  1  0  0  0
 15100  1  0  0  0
 16 17  2  0  0  0
 16 21  1  0  0  0
 16 31  1  0  0  0
 17 18  1  0  0  0
 17101  1  0  0  0
 18 19  2  0  0  0
 18102  1  0  0  0
 19 20  1  0  0  0
 19 24  1  0  0  0
 20 21  2  0  0  0
 20103  1  0  0  0
 21 23  1  0  0  0
 22 28  1  0  0  0
 22 32  2  0  0  0
 26 27  1  0  0  0
 28104  1  0  0  0
 28105  1  0  0  0
 29106  1  0  0  0
 29107  1  0  0  0
 33 34  1  0  0  0
 33 66  1  0  0  0
 33 70  2  0  0  0
 34 36  1  0  0  0
 34 59  1  0  0  0
 34108  1  0  0  0
 35 44  2  0  0  0
 35 45  1  0  0  0
 35 68  1  0  0  0
 36 56  1  0  0  0
 36109  1  0  0  0
 37 39  1  0  0  0
 37 47  1  0  0  0
 37 66  1  0  0  0
 37110  1  0  0  0
 38 43  2  0  0  0
 38 46  1  0  0  0
 38 47  1  0  0  0
 39 64  1  0  0  0
 39 67  2  0  0  0
 40 52  1  0  0  0
 40 53  2  0  0  0
 40 58  1  0  0  0
 41111  1  0  0  0
 41112  1  0  0  0
 41113  1  0  0  0
 41 48  1  0  0  0
 42 43  1  0  0  0
 42 66  1  0  0  0
 42114  1  0  0  0
 42115  1  0  0  0
 43 44  1  0  0  0
 44116  1  0  0  0
 45 46  2  0  0  0
 45117  1  0  0  0
 46118  1  0  0  0
 47119  1  0  0  0
 47120  1  0  0  0
 48 56  1  0  0  0
 48 65  1  0  0  0
 48121  1  0  0  0
 49 50  1  0  0  0
 49 53  1  0  0  0
 49 64  1  0  0  0
 49122  1  0  0  0
 50 51  1  0  0  0
 50123  1  0  0  0
 50124  1  0  0  0
 51 52  1  0  0  0
 51125  1  0  0  0
 51126  1  0  0  0
 52127  1  0  0  0
 52128  1  0  0  0
 53 54  1  0  0  0
 54 55  2  0  0  0
 54129  1  0  0  0
 55 57  1  0  0  0
 55130  1  0  0  0
 56 69  2  0  0  0
 57 58  2  0  0  0
 57131  1  0  0  0
 58132  1  0  0  0
 59 60  1  0  0  0
 59 61  1  0  0  0
 59 62  1  0  0  0
 60133  1  0  0  0
 60134  1  0  0  0
 60135  1  0  0  0
 61136  1  0  0  0
 61137  1  0  0  0
 61138  1  0  0  0
 62139  1  0  0  0
 62140  1  0  0  0
 62141  1  0  0  0
 63 65  1  0  0  0
 63142  1  0  0  0
 63143  1  0  0  0
 63144  1  0  0  0
 64145  1  0  0  0
 65146  1  0  0  0
 68 82  1  0  0  0
 71 73  2  0  0  0
 71 75  1  0  0  0
 71147  1  0  0  0
 72 74  2  0  0  0
 72 76  1  0  0  0
 72148  1  0  0  0
 73 74  1  0  0  0
 73 83  1  0  0  0
 74 84  1  0  0  0
 75 76  2  0  0  0
 75 85  1  0  0  0
 76 87  1  0  0  0
 77 78  2  0  0  0
 77 79  1  0  0  0
 77 85  1  0  0  0
 78149  1  0  0  0
 78150  1  0  0  0
 79 80  1  0  0  0
 79151  1  0  0  0
 79152  1  0  0  0
 80 82  1  0  0  0
 80153  1  0  0  0
 80154  1  0  0  0
 81 82  1  0  0  0
 81 85  1  0  0  0
 81155  1  0  0  0
 81156  1  0  0  0
 82157  1  0  0  0
 83158  1  0  0  0
 83159  1  0  0  0
 83160  1  0  0  0
 84 86  1  0  0  0
 84161  1  0  0  0
 84162  1  0  0  0
 86163  1  0  0  0
M  ISO  4   1 100  68 101  82 101  86 100
M  END
> <chiral flag>
0

> <version>
0

> <s_m_source_file>
/data/baiqing/PycharmProjects/Reinvent-master-3.2/result/LINK_invent/BTK/process_docking_weight1_custom_product_contain_oxygen_bond_distance_aromatic_linkinvent_7_9_3/rearranged_h_0040.sdf

> <i_m_source_file_index>
42

> <r_mmod_Potential_Energy-OPLS-2005>
136.02604675293

> <r_mmod_Stretch_Energy-OPLS-2005>
93.6568374633789

> <r_mmod_Bend_Energy-OPLS-2005>
192.656845092773

> <r_mmod_Torsional_Energy-OPLS-2005>
252.943817138672

> <r_mmod_Improper_Torsional_Energy-OPLS-2005>
6.23046398162842

> <r_mmod_Van_der_Waal_Energy-OPLS-2005>
143.937377929688

> <r_mmod_Electrostatic_Energy-OPLS-2005>
-403.356140136719

> <r_mmod_Solvation_Energy-OPLS-2005>
-205.44123840332

> <b_mmod_Minimization_Converged-OPLS-2005>
0

> <r_mmod_RMS_Derivative-OPLS-2005>
0.520710706710815

$$$$
42
                    3D
 Structure written by MMmdl.
183192  0  0  1  0            999 V2000
  -30.6877  -14.4689   20.5154 C   0  0  0  0  0  0
  -30.4279  -12.2886   19.4170 C   0  0  0  0  0  0
  -29.4973  -12.4888   18.2035 C   0  0  0  0  0  0
  -28.0198  -12.3502   18.6171 C   0  0  0  0  0  0
  -27.6625  -13.1989   19.8665 C   0  0  2  0  0  0
  -28.7054  -12.9924   20.9881 C   0  0  0  0  0  0
  -25.2612  -13.8148   20.5662 C   0  0  0  0  0  0
  -24.1861  -13.0442   20.9178 C   0  0  0  0  0  0
  -24.6413  -11.6903   20.8740 C   0  0  0  0  0  0
  -23.9076  -10.4296   21.0410 C   0  0  0  0  0  0
  -24.3627   -9.4207   21.9194 C   0  0  0  0  0  0
  -23.6302   -8.2246   22.0772 C   0  0  0  0  0  0
  -22.4283   -8.0287   21.3557 C   0  0  0  0  0  0
  -21.9919   -9.0248   20.4656 C   0  0  0  0  0  0
  -22.7247  -10.2130   20.3064 C   0  0  0  0  0  0
  -21.6857   -6.0734   22.5289 C   0  0  0  0  0  0
  -21.4012   -6.5645   23.8221 C   0  0  0  0  0  0
  -21.3657   -5.6799   24.9178 C   0  0  0  0  0  0
  -21.6045   -4.3064   24.7239 C   0  0  0  0  0  0
  -21.8830   -3.8161   23.4366 C   0  0  0  0  0  0
  -21.9198   -4.6969   22.3407 C   0  0  0  0  0  0
  -22.7887  -13.5261   21.1821 C   0  0  0  0  0  0
  -22.1671   -4.2154   21.0991 F   0  0  0  0  0  0
  -21.5623   -3.4554   25.7757 F   0  0  0  0  0  0
  -30.0367  -13.2799   20.4283 N   0  0  0  0  0  0
  -26.3046  -12.9294   20.3319 N   0  0  0  0  0  0
  -25.9320  -11.6473   20.5740 N   0  0  0  0  0  0
  -22.0509  -12.8267   22.0361 N   0  0  0  0  0  0
  -25.4339  -15.1852   20.4079 N   0  0  0  0  0  0
  -31.8600  -14.6184   20.1667 O   0  0  0  0  0  0
  -21.6652   -6.8883   21.4266 O   0  0  0  0  0  0
  -22.3573  -14.5567   20.6665 O   0  0  0  0  0  0
  -24.6098  -31.8699   23.2103 C   0  0  0  0  0  0
  -25.9012  -32.4828   23.8397 C   0  0  1  0  0  0
  -27.2400  -27.4669   20.0858 C   0  0  0  0  0  0
  -25.5890  -33.8635   24.2335 N   0  0  0  0  0  0
  -23.3987  -30.4886   21.5525 C   0  0  2  0  0  0
  -24.8474  -28.9556   20.1173 C   0  0  0  0  0  0
  -22.7388  -29.4629   22.5025 C   0  0  0  0  0  0
  -18.0261  -28.1366   22.8501 C   0  0  0  0  0  0
  -24.1474  -36.7294   23.2641 C   0  0  0  0  0  0
  -25.9220  -30.8416   21.3605 C   0  0  0  0  0  0
  -26.0012  -29.4734   20.7185 C   0  0  0  0  0  0
  -27.1996  -28.7282   20.7158 C   0  0  0  0  0  0
  -26.0722  -26.9500   19.4886 C   0  0  0  0  0  0
  -24.8748  -27.6907   19.5027 C   0  0  0  0  0  0
  -23.6055  -29.8172   20.1668 C   0  0  0  0  0  0
  -25.4100  -36.3118   24.0336 C   0  0  1  0  0  0
  -20.5844  -28.3625   23.1344 C   0  0  2  0  0  0
  -20.6738  -26.9366   22.5421 C   0  0  0  0  0  0
  -19.5718  -26.6376   21.5210 C   0  0  0  0  0  0
  -18.1899  -26.7916   22.1611 C   0  0  0  0  0  0
  -19.1511  -28.8815   23.2916 C   0  0  0  0  0  0
  -18.9455  -30.1431   23.8910 C   0  0  0  0  0  0
  -17.6456  -30.6570   24.0569 C   0  0  0  0  0  0
  -25.9040  -34.9485   23.5132 C   0  0  0  0  0  0
  -16.5343  -29.9077   23.6335 C   0  0  0  0  0  0
  -16.7256  -28.6500   23.0353 C   0  0  0  0  0  0
  -26.4470  -31.6585   25.0708 C   0  0  0  0  0  0
  -25.3751  -31.3647   26.1455 C   0  0  0  0  0  0
  -27.0318  -30.3065   24.6016 C   0  0  0  0  0  0
  -27.6029  -32.4313   25.7489 C   0  0  0  0  0  0
  -27.5584  -37.1793   24.8466 C   0  0  0  0  0  0
  -21.4122  -29.3006   22.3770 N   0  0  0  0  0  0
  -26.4282  -37.3807   23.9434 N   0  0  0  0  0  0
  -24.6620  -31.0795   22.1004 N   0  0  0  0  0  0
  -23.4178  -28.8175   23.3049 O   0  0  0  0  0  0
  -28.3989  -26.7344   20.0862 O   0  0  0  0  0  0
  -26.5607  -34.8926   22.4693 O   0  0  0  0  0  0
  -23.5299  -32.1442   23.7512 O   0  0  0  0  0  0
  -30.9717  -18.9386   19.6854 C   0  0  0  0  0  0
  -30.5326  -19.7472   20.7529 C   0  0  0  0  0  0
  -30.7148  -17.5554   19.6440 C   0  0  0  0  0  0
  -29.8082  -19.1349   21.8127 C   0  0  0  0  0  0
  -29.6683  -17.7145   21.8504 C   0  0  0  0  0  0
  -30.1321  -16.9126   20.7705 C   0  0  0  0  0  0
  -31.1907  -23.3802   19.4570 C   0  0  0  0  0  0
  -34.2508  -21.8022   18.1489 C   0  0  0  0  0  0
  -32.9515  -22.0523   18.3799 C   0  0  0  0  0  0
  -32.4169  -23.3149   18.8719 C   0  0  0  0  0  0
  -30.4352  -24.6544   19.8216 C   0  0  0  0  0  0
  -28.9232  -22.7401   17.7664 C   0  0  0  0  0  0
  -28.4023  -24.0731   18.3594 C   0  0  0  0  0  0
  -29.4372  -21.6735   18.7710 C   0  0  0  0  0  0
  -29.5267  -25.0979   18.6510 C   0  0  1  0  0  0
  -31.0553  -16.8373   18.3482 C   0  0  0  0  0  0
  -29.2035  -19.9942   22.9242 C   0  0  0  0  0  0
  -29.0333  -17.0376   23.0678 C   0  0  0  0  0  0
  -33.2045  -24.5965   18.6137 C   0  0  0  0  0  0
  -30.9666  -21.2291   20.7838 C   0  0  0  0  0  0
  -28.9992  -26.5399   18.8121 C   0  0  0  0  0  0
  -29.8842  -15.5054   20.8242 N   0  0  0  0  0  0
  -30.3277  -22.2082   19.8412 N   0  3  1  0  0  0
  -31.4703  -12.3868   19.1125 H   0  0  0  0  0  0
  -30.3311  -11.2807   19.8237 H   0  0  0  0  0  0
  -29.7313  -11.7623   17.4249 H   0  0  0  0  0  0
  -29.6604  -13.4730   17.7613 H   0  0  0  0  0  0
  -27.8396  -11.2943   18.8210 H   0  0  0  0  0  0
  -27.3698  -12.6116   17.7823 H   0  0  0  0  0  0
  -27.7022  -14.2408   19.5542 H   0  0  0  0  0  0
  -28.6733  -11.9641   21.3561 H   0  0  0  0  0  0
  -28.4791  -13.6181   21.8528 H   0  0  0  0  0  0
  -25.2773   -9.5683   22.4761 H   0  0  0  0  0  0
  -24.0016   -7.4645   22.7512 H   0  0  0  0  0  0
  -21.0850   -8.8771   19.8958 H   0  0  0  0  0  0
  -22.3728  -10.9661   19.6165 H   0  0  0  0  0  0
  -21.2000   -7.6149   23.9734 H   0  0  0  0  0  0
  -21.1462   -6.0527   25.9083 H   0  0  0  0  0  0
  -22.0609   -2.7620   23.2881 H   0  0  0  0  0  0
  -22.4119  -11.9937   22.4748 H   0  0  0  0  0  0
  -21.1099  -13.1255   22.2525 H   0  0  0  0  0  0
  -24.6696  -15.8408   20.5218 H   0  0  0  0  0  0
  -26.2843  -15.6240   20.0792 H   0  0  0  0  0  0
  -26.7075  -32.5575   23.1164 H   0  0  0  0  0  0
  -25.0049  -33.9797   25.0489 H   0  0  0  0  0  0
  -22.6854  -31.3032   21.4128 H   0  0  0  0  0  0
  -23.3755  -35.9607   23.3284 H   0  0  0  0  0  0
  -24.3573  -36.8936   22.2062 H   0  0  0  0  0  0
  -23.7180  -37.6468   23.6666 H   0  0  0  0  0  0
  -26.0224  -31.6014   20.5840 H   0  0  0  0  0  0
  -26.8130  -30.9061   21.9725 H   0  0  0  0  0  0
  -28.0924  -29.1192   21.1845 H   0  0  0  0  0  0
  -26.0883  -25.9757   19.0211 H   0  0  0  0  0  0
  -23.9865  -27.2867   19.0400 H   0  0  0  0  0  0
  -23.7037  -30.5919   19.4041 H   0  0  0  0  0  0
  -22.7321  -29.2302   19.8750 H   0  0  0  0  0  0
  -25.1272  -36.1987   25.0826 H   0  0  0  0  0  0
  -20.9936  -28.3174   24.1462 H   0  0  0  0  0  0
  -20.5632  -26.2227   23.3601 H   0  0  0  0  0  0
  -21.6608  -26.7396   22.1227 H   0  0  0  0  0  0
  -19.6877  -25.6296   21.1215 H   0  0  0  0  0  0
  -19.6666  -27.3219   20.6765 H   0  0  0  0  0  0
  -17.4168  -26.6699   21.4006 H   0  0  0  0  0  0
  -18.0283  -26.0042   22.8992 H   0  0  0  0  0  0
  -19.7919  -30.7260   24.2280 H   0  0  0  0  0  0
  -17.5002  -31.6246   24.5164 H   0  0  0  0  0  0
  -15.5358  -30.2987   23.7637 H   0  0  0  0  0  0
  -15.8660  -28.0836   22.7051 H   0  0  0  0  0  0
  -24.5953  -30.6970   25.7778 H   0  0  0  0  0  0
  -24.8907  -32.2775   26.4930 H   0  0  0  0  0  0
  -25.8130  -30.8803   27.0189 H   0  0  0  0  0  0
  -26.2838  -29.6820   24.1127 H   0  0  0  0  0  0
  -27.4203  -29.7304   25.4415 H   0  0  0  0  0  0
  -27.8607  -30.4437   23.9077 H   0  0  0  0  0  0
  -27.2644  -33.3611   26.2074 H   0  0  0  0  0  0
  -28.3857  -32.6877   25.0339 H   0  0  0  0  0  0
  -28.0678  -31.8436   26.5417 H   0  0  0  0  0  0
  -28.2562  -38.0134   24.7590 H   0  0  0  0  0  0
  -28.1121  -36.2664   24.6201 H   0  0  0  0  0  0
  -27.2302  -37.1340   25.8868 H   0  0  0  0  0  0
  -20.9290  -29.8777   21.7034 H   0  0  0  0  0  0
  -26.0171  -38.2868   24.1490 H   0  0  0  0  0  0
  -31.5101  -19.3755   18.8576 H   0  0  0  0  0  0
  -34.5632  -20.8448   17.7563 H   0  0  0  0  0  0
  -35.0284  -22.5274   18.3428 H   0  0  0  0  0  0
  -32.2618  -21.2588   18.1403 H   0  0  0  0  0  0
  -31.1390  -25.4460   20.0818 H   0  0  0  0  0  0
  -29.8402  -24.5019   20.7241 H   0  0  0  0  0  0
  -29.7007  -22.9499   17.0301 H   0  0  0  0  0  0
  -28.1228  -22.2821   17.1823 H   0  0  0  0  0  0
  -27.7806  -23.8998   19.2392 H   0  0  0  0  0  0
  -27.7365  -24.5167   17.6188 H   0  0  0  0  0  0
  -29.9416  -20.9001   18.1949 H   0  0  0  0  0  0
  -28.5875  -21.1893   19.2527 H   0  0  0  0  0  0
  -30.1458  -25.1436   17.7534 H   0  0  0  0  0  0
  -30.9680  -17.5190   17.5002 H   0  0  0  0  0  0
  -30.3789  -16.0054   18.1566 H   0  0  0  0  0  0
  -32.0810  -16.4704   18.3659 H   0  0  0  0  0  0
  -28.8551  -20.9561   22.5497 H   0  0  0  0  0  0
  -29.9286  -20.1783   23.7178 H   0  0  0  0  0  0
  -28.3203  -19.5296   23.3615 H   0  0  0  0  0  0
  -29.2426  -17.5857   23.9865 H   0  0  0  0  0  0
  -29.4322  -16.0388   23.2424 H   0  0  0  0  0  0
  -27.9532  -16.9516   22.9484 H   0  0  0  0  0  0
  -32.5637  -25.4092   18.2721 H   0  0  0  0  0  0
  -33.9676  -24.4619   17.8462 H   0  0  0  0  0  0
  -33.7033  -24.9190   19.5295 H   0  0  0  0  0  0
  -32.0469  -21.2232   20.6532 H   0  0  0  0  0  0
  -30.8569  -21.6407   21.7860 H   0  0  0  0  0  0
  -28.3322  -26.7935   17.9838 H   0  0  0  0  0  0
  -29.8331  -27.2369   18.7439 H   0  0  0  0  0  0
  -28.9835  -15.2385   21.1860 H   0  0  0  0  0  0
  -29.6342  -22.6116   20.4502 H   0  0  0  0  0  0
  1 25  1  0  0  0
  1 30  2  0  0  0
  1 92  1  0  0  0
  2  3  1  0  0  0
  2 25  1  0  0  0
  2 94  1  0  0  0
  2 95  1  0  0  0
  3  4  1  0  0  0
  3 96  1  0  0  0
  3 97  1  0  0  0
  4  5  1  0  0  0
  4 98  1  0  0  0
  4 99  1  0  0  0
  5  6  1  0  0  0
  5 26  1  0  0  0
  5100  1  0  0  0
  6 25  1  0  0  0
  6101  1  0  0  0
  6102  1  0  0  0
  7  8  2  0  0  0
  7 26  1  0  0  0
  7 29  1  0  0  0
  8  9  1  0  0  0
  8 22  1  0  0  0
  9 10  1  0  0  0
  9 27  2  0  0  0
 10 11  2  0  0  0
 10 15  1  0  0  0
 11 12  1  0  0  0
 11103  1  0  0  0
 12 13  2  0  0  0
 12104  1  0  0  0
 13 14  1  0  0  0
 13 31  1  0  0  0
 14 15  2  0  0  0
 14105  1  0  0  0
 15106  1  0  0  0
 16 17  2  0  0  0
 16 21  1  0  0  0
 16 31  1  0  0  0
 17 18  1  0  0  0
 17107  1  0  0  0
 18 19  2  0  0  0
 18108  1  0  0  0
 19 20  1  0  0  0
 19 24  1  0  0  0
 20 21  2  0  0  0
 20109  1  0  0  0
 21 23  1  0  0  0
 22 28  1  0  0  0
 22 32  2  0  0  0
 26 27  1  0  0  0
 28110  1  0  0  0
 28111  1  0  0  0
 29112  1  0  0  0
 29113  1  0  0  0
 33 34  1  0  0  0
 33 66  1  0  0  0
 33 70  2  0  0  0
 34 36  1  0  0  0
 34 59  1  0  0  0
 34114  1  0  0  0
 35 44  2  0  0  0
 35 45  1  0  0  0
 35 68  1  0  0  0
 36 56  1  0  0  0
 36115  1  0  0  0
 37 39  1  0  0  0
 37 47  1  0  0  0
 37 66  1  0  0  0
 37116  1  0  0  0
 38 43  2  0  0  0
 38 46  1  0  0  0
 38 47  1  0  0  0
 39 64  1  0  0  0
 39 67  2  0  0  0
 40 52  1  0  0  0
 40 53  2  0  0  0
 40 58  1  0  0  0
 41117  1  0  0  0
 41118  1  0  0  0
 41119  1  0  0  0
 41 48  1  0  0  0
 42 43  1  0  0  0
 42 66  1  0  0  0
 42120  1  0  0  0
 42121  1  0  0  0
 43 44  1  0  0  0
 44122  1  0  0  0
 45 46  2  0  0  0
 45123  1  0  0  0
 46124  1  0  0  0
 47125  1  0  0  0
 47126  1  0  0  0
 48 56  1  0  0  0
 48 65  1  0  0  0
 48127  1  0  0  0
 49 50  1  0  0  0
 49 53  1  0  0  0
 49 64  1  0  0  0
 49128  1  0  0  0
 50 51  1  0  0  0
 50129  1  0  0  0
 50130  1  0  0  0
 51 52  1  0  0  0
 51131  1  0  0  0
 51132  1  0  0  0
 52133  1  0  0  0
 52134  1  0  0  0
 53 54  1  0  0  0
 54 55  2  0  0  0
 54135  1  0  0  0
 55 57  1  0  0  0
 55136  1  0  0  0
 56 69  2  0  0  0
 57 58  2  0  0  0
 57137  1  0  0  0
 58138  1  0  0  0
 59 60  1  0  0  0
 59 61  1  0  0  0
 59 62  1  0  0  0
 60139  1  0  0  0
 60140  1  0  0  0
 60141  1  0  0  0
 61142  1  0  0  0
 61143  1  0  0  0
 61144  1  0  0  0
 62145  1  0  0  0
 62146  1  0  0  0
 62147  1  0  0  0
 63 65  1  0  0  0
 63148  1  0  0  0
 63149  1  0  0  0
 63150  1  0  0  0
 64151  1  0  0  0
 65152  1  0  0  0
 68 91  1  0  0  0
 71 72  2  0  0  0
 71 73  1  0  0  0
 71153  1  0  0  0
 72 74  1  0  0  0
 72 90  1  0  0  0
 73 76  2  0  0  0
 73 86  1  0  0  0
 74 75  2  0  0  0
 74 87  1  0  0  0
 75 76  1  0  0  0
 75 88  1  0  0  0
 76 92  1  0  0  0
 77 80  2  0  0  0
 77 81  1  0  0  0
 77 93  1  0  0  0
 78 79  2  0  0  0
 78154  1  0  0  0
 78155  1  0  0  0
 79 80  1  0  0  0
 79156  1  0  0  0
 80 89  1  0  0  0
 81 85  1  0  0  0
 81157  1  0  0  0
 81158  1  0  0  0
 82 83  1  0  0  0
 82 84  1  0  0  0
 82159  1  0  0  0
 82160  1  0  0  0
 83 85  1  0  0  0
 83161  1  0  0  0
 83162  1  0  0  0
 84 93  1  0  0  0
 84163  1  0  0  0
 84164  1  0  0  0
 85 91  1  0  0  0
 85165  1  0  0  0
 86166  1  0  0  0
 86167  1  0  0  0
 86168  1  0  0  0
 87169  1  0  0  0
 87170  1  0  0  0
 87171  1  0  0  0
 88172  1  0  0  0
 88173  1  0  0  0
 88174  1  0  0  0
 89175  1  0  0  0
 89176  1  0  0  0
 89177  1  0  0  0
 90178  1  0  0  0
 90179  1  0  0  0
 90 93  1  0  0  0
 91180  1  0  0  0
 91181  1  0  0  0
 92182  1  0  0  0
 93183  1  0  0  0
M  CHG  1  93   1
M  ISO  4   1 100  68 101  91 101  92 100
M  END
> <chiral flag>
0

> <version>
0

> <s_m_source_file>
/data/baiqing/PycharmProjects/Reinvent-master-3.2/result/LINK_invent/BTK/process_docking_weight1_custom_product_contain_oxygen_bond_distance_aromatic_linkinvent_7_9_3/rearranged_h_0040.sdf

> <i_m_source_file_index>
43

> <r_mmod_Potential_Energy-OPLS-2005>
-78.4651718139648

> <r_mmod_Stretch_Energy-OPLS-2005>
44.6588363647461

> <r_mmod_Bend_Energy-OPLS-2005>
139.085983276367

> <r_mmod_Torsional_Energy-OPLS-2005>
291.880615234375

> <r_mmod_Improper_Torsional_Energy-OPLS-2005>
5.44690656661987

> <r_mmod_Van_der_Waal_Energy-OPLS-2005>
171.197296142578

> <r_mmod_Electrostatic_Energy-OPLS-2005>
-338.546936035156

> <r_mmod_Solvation_Energy-OPLS-2005>
-406.199249267578

> <b_mmod_Minimization_Converged-OPLS-2005>
0

> <r_mmod_RMS_Derivative-OPLS-2005>
3.47527456283569

$$$$
43
                    3D
 Structure written by MMmdl.
164173  0  0  1  0            999 V2000
  -30.6036  -14.6460   20.5046 C   0  0  0  0  0  0
  -30.4398  -12.3966   19.4523 C   0  0  0  0  0  0
  -29.5090  -12.5202   18.2240 C   0  0  0  0  0  0
  -28.0312  -12.3533   18.6342 C   0  0  0  0  0  0
  -27.6551  -13.2153   19.8674 C   0  0  2  0  0  0
  -28.6996  -13.0579   20.9962 C   0  0  0  0  0  0
  -25.2591  -13.8164   20.5705 C   0  0  0  0  0  0
  -24.1845  -13.0441   20.9184 C   0  0  0  0  0  0
  -24.6411  -11.6911   20.8743 C   0  0  0  0  0  0
  -23.9074  -10.4290   21.0401 C   0  0  0  0  0  0
  -24.3633   -9.4202   21.9170 C   0  0  0  0  0  0
  -23.6311   -8.2229   22.0724 C   0  0  0  0  0  0
  -22.4286   -8.0280   21.3525 C   0  0  0  0  0  0
  -21.9931   -9.0250   20.4614 C   0  0  0  0  0  0
  -22.7256  -10.2133   20.3035 C   0  0  0  0  0  0
  -21.6855   -6.0745   22.5276 C   0  0  0  0  0  0
  -21.4008   -6.5641   23.8218 C   0  0  0  0  0  0
  -21.3661   -5.6788   24.9178 C   0  0  0  0  0  0
  -21.6052   -4.3051   24.7214 C   0  0  0  0  0  0
  -21.8821   -3.8147   23.4335 C   0  0  0  0  0  0
  -21.9189   -4.6972   22.3403 C   0  0  0  0  0  0
  -22.7870  -13.5233   21.1865 C   0  0  0  0  0  0
  -22.1664   -4.2158   21.0974 F   0  0  0  0  0  0
  -21.5637   -3.4531   25.7726 F   0  0  0  0  0  0
  -30.0136  -13.4102   20.4362 N   0  0  0  0  0  0
  -26.3012  -12.9343   20.3344 N   0  0  0  0  0  0
  -25.9340  -11.6498   20.5762 N   0  0  0  0  0  0
  -22.0516  -12.8201   22.0408 N   0  0  0  0  0  0
  -25.4349  -15.1873   20.4120 N   0  0  0  0  0  0
  -31.7658  -14.8238   20.1276 O   0  0  0  0  0  0
  -21.6646   -6.8882   21.4234 O   0  0  0  0  0  0
  -22.3546  -14.5537   20.6711 O   0  0  0  0  0  0
  -24.6260  -31.8600   23.2030 C   0  0  0  0  0  0
  -25.9125  -32.4776   23.8350 C   0  0  1  0  0  0
  -27.2311  -27.3257   20.0991 C   0  0  0  0  0  0
  -25.5965  -33.8586   24.2275 N   0  0  0  0  0  0
  -23.4161  -30.4842   21.5461 C   0  0  2  0  0  0
  -24.8591  -28.9351   20.1141 C   0  0  0  0  0  0
  -22.7447  -29.4644   22.4954 C   0  0  0  0  0  0
  -18.0281  -28.1379   22.8500 C   0  0  0  0  0  0
  -24.1487  -36.7269   23.2632 C   0  0  0  0  0  0
  -25.9563  -30.7935   21.3690 C   0  0  0  0  0  0
  -26.0286  -29.4215   20.7082 C   0  0  0  0  0  0
  -27.2117  -28.6289   20.6864 C   0  0  0  0  0  0
  -26.0262  -26.8762   19.5162 C   0  0  0  0  0  0
  -24.8599  -27.6667   19.5122 C   0  0  0  0  0  0
  -23.6275  -29.8158   20.1616 C   0  0  0  0  0  0
  -25.4112  -36.3077   24.0333 C   0  0  1  0  0  0
  -20.5872  -28.3697   23.1285 C   0  0  2  0  0  0
  -20.6770  -26.9433   22.5401 C   0  0  0  0  0  0
  -19.5745  -26.6389   21.5212 C   0  0  0  0  0  0
  -18.1925  -26.7933   22.1617 C   0  0  0  0  0  0
  -19.1535  -28.8860   23.2886 C   0  0  0  0  0  0
  -18.9461  -30.1458   23.8902 C   0  0  0  0  0  0
  -17.6461  -30.6588   24.0573 C   0  0  0  0  0  0
  -25.9076  -34.9450   23.5096 C   0  0  0  0  0  0
  -16.5352  -29.9080   23.6337 C   0  0  0  0  0  0
  -16.7270  -28.6491   23.0380 C   0  0  0  0  0  0
  -26.4509  -31.6597   25.0722 C   0  0  0  0  0  0
  -25.3787  -31.3725   26.1489 C   0  0  0  0  0  0
  -27.0349  -30.3037   24.6152 C   0  0  0  0  0  0
  -27.6068  -32.4359   25.7471 C   0  0  0  0  0  0
  -27.5589  -37.1766   24.8453 C   0  0  0  0  0  0
  -21.4167  -29.3050   22.3688 N   0  0  0  0  0  0
  -26.4266  -37.3799   23.9455 N   0  0  0  0  0  0
  -24.6850  -31.0620   22.0961 N   0  0  0  0  0  0
  -23.4183  -28.8191   23.3041 O   0  0  0  0  0  0
  -28.4098  -26.5638   20.1392 O   0  0  0  0  0  0
  -26.5623  -34.8919   22.4647 O   0  0  0  0  0  0
  -23.5429  -32.1389   23.7379 O   0  0  0  0  0  0
  -30.1123  -19.3585   19.7230 C   0  0  0  0  0  0
  -29.2721  -19.2804   21.9622 C   0  0  0  0  0  0
  -29.6420  -20.0867   20.8539 C   0  0  0  0  0  0
  -30.1845  -17.9247   19.6925 C   0  0  0  0  0  0
  -29.3615  -17.8585   21.9613 C   0  0  0  0  0  0
  -29.8335  -17.1324   20.8316 C   0  0  0  0  0  0
  -28.8428  -24.0117   20.6001 C   0  0  0  0  0  0
  -28.8640  -23.5579   17.7188 C   0  0  0  0  0  0
  -28.0253  -24.7202   18.2662 C   0  0  0  0  0  0
  -28.9751  -22.3759   18.7121 C   0  0  0  0  0  0
  -28.6588  -25.2049   19.5804 C   0  0  1  0  0  0
  -30.6139  -17.2645   18.3943 C   0  0  0  0  0  0
  -28.9476  -17.1137   23.2205 C   0  0  0  0  0  0
  -29.6929  -21.6617   21.0534 C   0  0  0  0  0  0
  -29.1257  -22.7324   20.1363 N   0  0  0  0  0  0
  -29.7666  -15.6671   20.8731 N   0  0  0  0  0  0
  -28.8178  -24.2751   21.8068 O   0  0  0  0  0  0
  -31.4809  -12.5293   19.1556 H   0  0  0  0  0  0
  -30.3764  -11.3969   19.8857 H   0  0  0  0  0  0
  -29.7776  -11.7795   17.4691 H   0  0  0  0  0  0
  -29.6484  -13.4962   17.7559 H   0  0  0  0  0  0
  -27.8650  -11.2993   18.8566 H   0  0  0  0  0  0
  -27.3755  -12.5944   17.7963 H   0  0  0  0  0  0
  -27.6740  -14.2522   19.5330 H   0  0  0  0  0  0
  -28.7185  -12.0309   21.3620 H   0  0  0  0  0  0
  -28.4451  -13.6743   21.8604 H   0  0  0  0  0  0
  -25.2778   -9.5681   22.4754 H   0  0  0  0  0  0
  -24.0024   -7.4621   22.7447 H   0  0  0  0  0  0
  -21.0859   -8.8759   19.8931 H   0  0  0  0  0  0
  -22.3703  -10.9671   19.6143 H   0  0  0  0  0  0
  -21.1991   -7.6147   23.9733 H   0  0  0  0  0  0
  -21.1486   -6.0505   25.9084 H   0  0  0  0  0  0
  -22.0597   -2.7606   23.2823 H   0  0  0  0  0  0
  -22.4145  -11.9856   22.4765 H   0  0  0  0  0  0
  -21.1132  -13.1192   22.2634 H   0  0  0  0  0  0
  -24.6737  -15.8484   20.5191 H   0  0  0  0  0  0
  -26.2922  -15.6209   20.0952 H   0  0  0  0  0  0
  -26.7186  -32.5423   23.1086 H   0  0  0  0  0  0
  -25.0252  -33.9741   25.0512 H   0  0  0  0  0  0
  -22.7104  -31.3051   21.4049 H   0  0  0  0  0  0
  -23.3802  -35.9548   23.3209 H   0  0  0  0  0  0
  -24.3598  -36.8971   22.2064 H   0  0  0  0  0  0
  -23.7158  -37.6403   23.6719 H   0  0  0  0  0  0
  -26.0912  -31.5607   20.6056 H   0  0  0  0  0  0
  -26.8363  -30.8385   21.9987 H   0  0  0  0  0  0
  -28.1152  -29.0099   21.1421 H   0  0  0  0  0  0
  -25.9318  -25.9041   19.0756 H   0  0  0  0  0  0
  -23.9577  -27.2791   19.0590 H   0  0  0  0  0  0
  -23.7458  -30.5924   19.4051 H   0  0  0  0  0  0
  -22.7474  -29.2453   19.8599 H   0  0  0  0  0  0
  -25.1285  -36.1896   25.0825 H   0  0  0  0  0  0
  -20.9987  -28.3263   24.1395 H   0  0  0  0  0  0
  -20.5691  -26.2315   23.3601 H   0  0  0  0  0  0
  -21.6633  -26.7473   22.1178 H   0  0  0  0  0  0
  -19.6912  -25.6296   21.1250 H   0  0  0  0  0  0
  -19.6674  -27.3193   20.6739 H   0  0  0  0  0  0
  -17.4204  -26.6726   21.4005 H   0  0  0  0  0  0
  -18.0309  -26.0042   22.8976 H   0  0  0  0  0  0
  -19.7937  -30.7290   24.2266 H   0  0  0  0  0  0
  -17.5011  -31.6279   24.5154 H   0  0  0  0  0  0
  -15.5357  -30.3004   23.7653 H   0  0  0  0  0  0
  -15.8657  -28.0806   22.7136 H   0  0  0  0  0  0
  -24.5930  -30.7100   25.7834 H   0  0  0  0  0  0
  -24.9026  -32.2891   26.4994 H   0  0  0  0  0  0
  -25.8153  -30.8846   27.0218 H   0  0  0  0  0  0
  -26.2884  -29.6772   24.1254 H   0  0  0  0  0  0
  -27.4150  -29.7309   25.4615 H   0  0  0  0  0  0
  -27.8719  -30.4339   23.9292 H   0  0  0  0  0  0
  -27.2698  -33.3717   26.1958 H   0  0  0  0  0  0
  -28.3915  -32.6839   25.0308 H   0  0  0  0  0  0
  -28.0710  -31.8553   26.5455 H   0  0  0  0  0  0
  -28.2534  -38.0136   24.7658 H   0  0  0  0  0  0
  -28.1157  -36.2689   24.6089 H   0  0  0  0  0  0
  -27.2345  -37.1164   25.8853 H   0  0  0  0  0  0
  -20.9366  -29.8762   21.6875 H   0  0  0  0  0  0
  -26.0127  -38.2845   24.1554 H   0  0  0  0  0  0
  -30.4555  -19.8924   18.8524 H   0  0  0  0  0  0
  -28.9377  -19.7698   22.8669 H   0  0  0  0  0  0
  -29.8652  -23.9200   17.4788 H   0  0  0  0  0  0
  -28.4505  -23.2060   16.7732 H   0  0  0  0  0  0
  -27.0193  -24.3358   18.4221 H   0  0  0  0  0  0
  -27.9717  -25.5274   17.5358 H   0  0  0  0  0  0
  -29.8349  -21.7953   18.3943 H   0  0  0  0  0  0
  -28.1014  -21.7284   18.6199 H   0  0  0  0  0  0
  -29.6970  -25.3731   19.2931 H   0  0  0  0  0  0
  -30.5878  -17.9712   17.5637 H   0  0  0  0  0  0
  -29.9485  -16.4399   18.1382 H   0  0  0  0  0  0
  -31.6310  -16.8835   18.4739 H   0  0  0  0  0  0
  -28.7647  -17.7998   24.0482 H   0  0  0  0  0  0
  -29.7314  -16.4228   23.5316 H   0  0  0  0  0  0
  -28.0339  -16.5454   23.0478 H   0  0  0  0  0  0
  -30.7483  -21.9054   21.1773 H   0  0  0  0  0  0
  -29.2655  -21.8407   22.0410 H   0  0  0  0  0  0
  -28.9107  -15.3137   21.2701 H   0  0  0  0  0  0
  1 25  1  0  0  0
  1 30  2  0  0  0
  1 86  1  0  0  0
  2  3  1  0  0  0
  2 25  1  0  0  0
  2 88  1  0  0  0
  2 89  1  0  0  0
  3  4  1  0  0  0
  3 90  1  0  0  0
  3 91  1  0  0  0
  4  5  1  0  0  0
  4 92  1  0  0  0
  4 93  1  0  0  0
  5  6  1  0  0  0
  5 26  1  0  0  0
  5 94  1  0  0  0
  6 25  1  0  0  0
  6 95  1  0  0  0
  6 96  1  0  0  0
  7  8  2  0  0  0
  7 26  1  0  0  0
  7 29  1  0  0  0
  8  9  1  0  0  0
  8 22  1  0  0  0
  9 10  1  0  0  0
  9 27  2  0  0  0
 10 11  2  0  0  0
 10 15  1  0  0  0
 11 12  1  0  0  0
 11 97  1  0  0  0
 12 13  2  0  0  0
 12 98  1  0  0  0
 13 14  1  0  0  0
 13 31  1  0  0  0
 14 15  2  0  0  0
 14 99  1  0  0  0
 15100  1  0  0  0
 16 17  2  0  0  0
 16 21  1  0  0  0
 16 31  1  0  0  0
 17 18  1  0  0  0
 17101  1  0  0  0
 18 19  2  0  0  0
 18102  1  0  0  0
 19 20  1  0  0  0
 19 24  1  0  0  0
 20 21  2  0  0  0
 20103  1  0  0  0
 21 23  1  0  0  0
 22 28  1  0  0  0
 22 32  2  0  0  0
 26 27  1  0  0  0
 28104  1  0  0  0
 28105  1  0  0  0
 29106  1  0  0  0
 29107  1  0  0  0
 33 34  1  0  0  0
 33 66  1  0  0  0
 33 70  2  0  0  0
 34 36  1  0  0  0
 34 59  1  0  0  0
 34108  1  0  0  0
 35 44  2  0  0  0
 35 45  1  0  0  0
 35 68  1  0  0  0
 36 56  1  0  0  0
 36109  1  0  0  0
 37 39  1  0  0  0
 37 47  1  0  0  0
 37 66  1  0  0  0
 37110  1  0  0  0
 38 43  2  0  0  0
 38 46  1  0  0  0
 38 47  1  0  0  0
 39 64  1  0  0  0
 39 67  2  0  0  0
 40 52  1  0  0  0
 40 53  2  0  0  0
 40 58  1  0  0  0
 41111  1  0  0  0
 41112  1  0  0  0
 41113  1  0  0  0
 41 48  1  0  0  0
 42 43  1  0  0  0
 42 66  1  0  0  0
 42114  1  0  0  0
 42115  1  0  0  0
 43 44  1  0  0  0
 44116  1  0  0  0
 45 46  2  0  0  0
 45117  1  0  0  0
 46118  1  0  0  0
 47119  1  0  0  0
 47120  1  0  0  0
 48 56  1  0  0  0
 48 65  1  0  0  0
 48121  1  0  0  0
 49 50  1  0  0  0
 49 53  1  0  0  0
 49 64  1  0  0  0
 49122  1  0  0  0
 50 51  1  0  0  0
 50123  1  0  0  0
 50124  1  0  0  0
 51 52  1  0  0  0
 51125  1  0  0  0
 51126  1  0  0  0
 52127  1  0  0  0
 52128  1  0  0  0
 53 54  1  0  0  0
 54 55  2  0  0  0
 54129  1  0  0  0
 55 57  1  0  0  0
 55130  1  0  0  0
 56 69  2  0  0  0
 57 58  2  0  0  0
 57131  1  0  0  0
 58132  1  0  0  0
 59 60  1  0  0  0
 59 61  1  0  0  0
 59 62  1  0  0  0
 60133  1  0  0  0
 60134  1  0  0  0
 60135  1  0  0  0
 61136  1  0  0  0
 61137  1  0  0  0
 61138  1  0  0  0
 62139  1  0  0  0
 62140  1  0  0  0
 62141  1  0  0  0
 63 65  1  0  0  0
 63142  1  0  0  0
 63143  1  0  0  0
 63144  1  0  0  0
 64145  1  0  0  0
 65146  1  0  0  0
 68 81  1  0  0  0
 71 73  2  0  0  0
 71 74  1  0  0  0
 71147  1  0  0  0
 72 73  1  0  0  0
 72 75  2  0  0  0
 72148  1  0  0  0
 73 84  1  0  0  0
 74 76  2  0  0  0
 74 82  1  0  0  0
 75 76  1  0  0  0
 75 83  1  0  0  0
 76 86  1  0  0  0
 77 81  1  0  0  0
 77 85  1  0  0  0
 77 87  2  0  0  0
 78 79  1  0  0  0
 78 80  1  0  0  0
 78149  1  0  0  0
 78150  1  0  0  0
 79 81  1  0  0  0
 79151  1  0  0  0
 79152  1  0  0  0
 80 85  1  0  0  0
 80153  1  0  0  0
 80154  1  0  0  0
 81155  1  0  0  0
 82156  1  0  0  0
 82157  1  0  0  0
 82158  1  0  0  0
 83159  1  0  0  0
 83160  1  0  0  0
 83161  1  0  0  0
 84 85  1  0  0  0
 84162  1  0  0  0
 84163  1  0  0  0
 86164  1  0  0  0
M  ISO  4   1 100  68 101  81 101  86 100
M  END
> <chiral flag>
0

> <version>
0

> <s_m_source_file>
/data/baiqing/PycharmProjects/Reinvent-master-3.2/result/LINK_invent/BTK/process_docking_weight1_custom_product_contain_oxygen_bond_distance_aromatic_linkinvent_7_9_3/rearranged_h_0040.sdf

> <i_m_source_file_index>
44

> <r_mmod_Potential_Energy-OPLS-2005>
152.965713500977

> <r_mmod_Stretch_Energy-OPLS-2005>
91.0753860473633

> <r_mmod_Bend_Energy-OPLS-2005>
215.569091796875

> <r_mmod_Torsional_Energy-OPLS-2005>
248.652145385742

> <r_mmod_Improper_Torsional_Energy-OPLS-2005>
5.66997814178467

> <r_mmod_Van_der_Waal_Energy-OPLS-2005>
156.048614501953

> <r_mmod_Electrostatic_Energy-OPLS-2005>
-371.834930419922

> <r_mmod_Solvation_Energy-OPLS-2005>
-236.433059692383

> <b_mmod_Minimization_Converged-OPLS-2005>
0

> <r_mmod_RMS_Derivative-OPLS-2005>
2.45415329933167

$$$$
44
                    3D
 Structure written by MMmdl.
184193  0  0  1  0            999 V2000
  -30.7212  -14.5198   20.5783 C   0  0  0  0  0  0
  -30.4187  -12.3439   19.4299 C   0  0  0  0  0  0
  -29.4936  -12.5052   18.2087 C   0  0  0  0  0  0
  -28.0169  -12.3594   18.6240 C   0  0  0  0  0  0
  -27.6546  -13.2197   19.8645 C   0  0  2  0  0  0
  -28.6990  -13.0509   20.9894 C   0  0  0  0  0  0
  -25.2561  -13.8172   20.5673 C   0  0  0  0  0  0
  -24.1832  -13.0439   20.9184 C   0  0  0  0  0  0
  -24.6404  -11.6911   20.8729 C   0  0  0  0  0  0
  -23.9073  -10.4285   21.0395 C   0  0  0  0  0  0
  -24.3621   -9.4209   21.9185 C   0  0  0  0  0  0
  -23.6293   -8.2242   22.0764 C   0  0  0  0  0  0
  -22.4278   -8.0270   21.3546 C   0  0  0  0  0  0
  -21.9912   -9.0240   20.4647 C   0  0  0  0  0  0
  -22.7239  -10.2123   20.3052 C   0  0  0  0  0  0
  -21.6848   -6.0730   22.5288 C   0  0  0  0  0  0
  -21.4007   -6.5639   23.8215 C   0  0  0  0  0  0
  -21.3657   -5.6795   24.9176 C   0  0  0  0  0  0
  -21.6041   -4.3057   24.7220 C   0  0  0  0  0  0
  -21.8821   -3.8148   23.4342 C   0  0  0  0  0  0
  -21.9192   -4.6963   22.3403 C   0  0  0  0  0  0
  -22.7858  -13.5234   21.1833 C   0  0  0  0  0  0
  -22.1665   -4.2151   21.0977 F   0  0  0  0  0  0
  -21.5623   -3.4548   25.7729 F   0  0  0  0  0  0
  -30.0222  -13.3570   20.4241 N   0  0  0  0  0  0
  -26.3009  -12.9371   20.3330 N   0  0  0  0  0  0
  -25.9344  -11.6522   20.5769 N   0  0  0  0  0  0
  -22.0502  -12.8213   22.0377 N   0  0  0  0  0  0
  -25.4258  -15.1883   20.4051 N   0  0  0  0  0  0
  -31.8546  -14.6638   20.1156 O   0  0  0  0  0  0
  -21.6643   -6.8873   21.4245 O   0  0  0  0  0  0
  -22.3541  -14.5537   20.6678 O   0  0  0  0  0  0
  -24.6220  -31.8655   23.2034 C   0  0  0  0  0  0
  -25.9095  -32.4805   23.8353 C   0  0  1  0  0  0
  -27.2453  -27.3862   20.0584 C   0  0  0  0  0  0
  -25.5984  -33.8610   24.2316 N   0  0  0  0  0  0
  -23.4104  -30.4899   21.5479 C   0  0  2  0  0  0
  -24.8536  -28.9496   20.1195 C   0  0  0  0  0  0
  -22.7462  -29.4653   22.4935 C   0  0  0  0  0  0
  -18.0305  -28.1372   22.8487 C   0  0  0  0  0  0
  -24.1491  -36.7233   23.2628 C   0  0  0  0  0  0
  -25.9465  -30.8061   21.3684 C   0  0  0  0  0  0
  -26.0231  -29.4388   20.7132 C   0  0  0  0  0  0
  -27.2171  -28.6681   20.6811 C   0  0  0  0  0  0
  -26.0276  -26.9151   19.5033 C   0  0  0  0  0  0
  -24.8558  -27.6855   19.5145 C   0  0  0  0  0  0
  -23.6219  -29.8275   20.1649 C   0  0  0  0  0  0
  -25.4119  -36.3073   24.0326 C   0  0  1  0  0  0
  -20.5896  -28.3674   23.1246 C   0  0  2  0  0  0
  -20.6802  -26.9404   22.5375 C   0  0  0  0  0  0
  -19.5781  -26.6369   21.5180 C   0  0  0  0  0  0
  -18.1963  -26.7921   22.1590 C   0  0  0  0  0  0
  -19.1555  -28.8842   23.2868 C   0  0  0  0  0  0
  -18.9496  -30.1452   23.8885 C   0  0  0  0  0  0
  -17.6505  -30.6591   24.0581 C   0  0  0  0  0  0
  -25.9075  -34.9461   23.5087 C   0  0  0  0  0  0
  -16.5395  -29.9104   23.6346 C   0  0  0  0  0  0
  -16.7294  -28.6515   23.0357 C   0  0  0  0  0  0
  -26.4461  -31.6612   25.0724 C   0  0  0  0  0  0
  -25.3704  -31.3684   26.1454 C   0  0  0  0  0  0
  -27.0322  -30.3082   24.6092 C   0  0  0  0  0  0
  -27.6049  -32.4334   25.7486 C   0  0  0  0  0  0
  -27.5571  -37.1768   24.8496 C   0  0  0  0  0  0
  -21.4184  -29.3043   22.3676 N   0  0  0  0  0  0
  -26.4291  -37.3779   23.9444 N   0  0  0  0  0  0
  -24.6780  -31.0701   22.0962 N   0  0  0  0  0  0
  -23.4209  -28.8180   23.2981 O   0  0  0  0  0  0
  -28.4272  -26.6365   20.0041 O   0  0  0  0  0  0
  -26.5608  -34.8944   22.4631 O   0  0  0  0  0  0
  -23.5397  -32.1421   23.7367 O   0  0  0  0  0  0
  -31.3527  -19.0604   20.9527 C   0  0  0  0  0  0
  -31.1182  -20.4380   20.7723 C   0  0  0  0  0  0
  -30.3306  -18.1777   21.3646 C   0  0  0  0  0  0
  -29.8391  -21.0019   20.9691 C   0  0  0  0  0  0
  -29.0253  -18.7215   21.5503 C   0  0  0  0  0  0
  -28.7787  -20.1204   21.3372 C   0  0  0  0  0  0
  -29.7600  -24.5955   19.2976 C   0  0  0  0  0  0
  -35.8529  -24.0059   18.5636 C   0  0  0  0  0  0
  -31.0467  -24.9708   19.0920 C   0  0  0  0  0  0
  -34.5978  -23.6204   18.8402 C   0  0  0  0  0  0
  -32.2125  -24.1005   19.1113 C   0  0  0  0  0  0
  -33.4579  -24.5187   18.8265 C   0  0  0  0  0  0
  -28.3032  -23.6925   16.5906 C   0  0  0  0  0  0
  -28.7311  -25.1645   16.4235 C   0  0  0  0  0  0
  -29.4929  -22.7811   16.9590 C   0  0  0  0  0  0
  -28.5356  -26.1112   17.6277 C   0  0  0  0  0  0
  -29.5199  -22.1925   18.3833 C   0  0  0  0  0  0
  -28.5342  -25.5176   19.0672 C   0  0  2  0  0  0
  -27.8886  -17.8256   22.0352 C   0  0  0  0  0  0
  -27.3780  -20.6823   21.5721 C   0  0  0  0  0  0
  -30.7618  -16.7382   21.7629 C   0  0  0  0  0  0
  -29.6922  -22.5511   20.8592 C   0  0  0  0  0  0
  -30.0904  -15.5450   21.1948 N   0  0  0  0  0  0
  -29.3305  -23.1445   19.5219 N   0  3  1  0  0  0
  -31.4634  -12.4324   19.1282 H   0  0  0  0  0  0
  -30.3184  -11.3457   19.8574 H   0  0  0  0  0  0
  -29.7437  -11.7657   17.4477 H   0  0  0  0  0  0
  -29.6502  -13.4828   17.7482 H   0  0  0  0  0  0
  -27.8405  -11.3052   18.8379 H   0  0  0  0  0  0
  -27.3633  -12.6111   17.7865 H   0  0  0  0  0  0
  -27.6816  -14.2603   19.5403 H   0  0  0  0  0  0
  -28.6921  -12.0288   21.3695 H   0  0  0  0  0  0
  -28.4542  -13.6839   21.8435 H   0  0  0  0  0  0
  -25.2772   -9.5684   22.4760 H   0  0  0  0  0  0
  -23.9996   -7.4643   22.7496 H   0  0  0  0  0  0
  -21.0845   -8.8745   19.8954 H   0  0  0  0  0  0
  -22.3698  -10.9651   19.6145 H   0  0  0  0  0  0
  -21.2004   -7.6149   23.9712 H   0  0  0  0  0  0
  -21.1474   -6.0530   25.9075 H   0  0  0  0  0  0
  -22.0601   -2.7615   23.2844 H   0  0  0  0  0  0
  -22.4122  -11.9869   22.4755 H   0  0  0  0  0  0
  -21.1117  -13.1216   22.2573 H   0  0  0  0  0  0
  -24.6523  -15.8376   20.4934 H   0  0  0  0  0  0
  -26.2663  -15.6206   20.0448 H   0  0  0  0  0  0
  -26.7161  -32.5480   23.1103 H   0  0  0  0  0  0
  -25.0341  -33.9775   25.0598 H   0  0  0  0  0  0
  -22.7047  -31.3106   21.4110 H   0  0  0  0  0  0
  -23.3807  -35.9531   23.3323 H   0  0  0  0  0  0
  -24.3564  -36.8794   22.2042 H   0  0  0  0  0  0
  -23.7210  -37.6416   23.6633 H   0  0  0  0  0  0
  -26.0765  -31.5730   20.6012 H   0  0  0  0  0  0
  -26.8250  -30.8524   21.9965 H   0  0  0  0  0  0
  -28.1215  -29.0593   21.1251 H   0  0  0  0  0  0
  -25.9413  -25.9489   19.0312 H   0  0  0  0  0  0
  -23.9591  -27.2913   19.0572 H   0  0  0  0  0  0
  -23.7415  -30.6088   19.4122 H   0  0  0  0  0  0
  -22.7419  -29.2581   19.8588 H   0  0  0  0  0  0
  -25.1289  -36.1872   25.0812 H   0  0  0  0  0  0
  -21.0021  -28.3259   24.1343 H   0  0  0  0  0  0
  -20.5701  -26.2304   23.3571 H   0  0  0  0  0  0
  -21.6665  -26.7443   22.1152 H   0  0  0  0  0  0
  -19.6971  -25.6280   21.1213 H   0  0  0  0  0  0
  -19.6715  -27.3194   20.6718 H   0  0  0  0  0  0
  -17.4222  -26.6676   21.4000 H   0  0  0  0  0  0
  -18.0387  -26.0035   22.8959 H   0  0  0  0  0  0
  -19.7987  -30.7276   24.2215 H   0  0  0  0  0  0
  -17.5077  -31.6274   24.5199 H   0  0  0  0  0  0
  -15.5404  -30.3030   23.7643 H   0  0  0  0  0  0
  -15.8680  -28.0842   22.7052 H   0  0  0  0  0  0
  -24.5970  -30.6931   25.7740 H   0  0  0  0  0  0
  -24.8785  -32.2826   26.4823 H   0  0  0  0  0  0
  -25.8031  -30.8908   27.0257 H   0  0  0  0  0  0
  -26.2867  -29.6841   24.1156 H   0  0  0  0  0  0
  -27.4157  -29.7288   25.4492 H   0  0  0  0  0  0
  -27.8662  -30.4454   23.9212 H   0  0  0  0  0  0
  -27.2729  -33.3711   26.1954 H   0  0  0  0  0  0
  -28.3900  -32.6762   25.0319 H   0  0  0  0  0  0
  -28.0696  -31.8536   26.5463 H   0  0  0  0  0  0
  -28.2576  -38.0078   24.7565 H   0  0  0  0  0  0
  -28.1069  -36.2600   24.6299 H   0  0  0  0  0  0
  -27.2280  -37.1352   25.8897 H   0  0  0  0  0  0
  -20.9384  -29.8790   21.6889 H   0  0  0  0  0  0
  -26.0141  -38.2828   24.1517 H   0  0  0  0  0  0
  -32.3641  -18.6932   20.8306 H   0  0  0  0  0  0
  -31.9561  -21.0721   20.5118 H   0  0  0  0  0  0
  -36.6659  -23.2923   18.5882 H   0  0  0  0  0  0
  -36.1038  -25.0236   18.3069 H   0  0  0  0  0  0
  -31.2116  -26.0095   18.8422 H   0  0  0  0  0  0
  -34.4331  -22.5804   19.0841 H   0  0  0  0  0  0
  -32.0936  -23.0571   19.3564 H   0  0  0  0  0  0
  -33.6192  -25.5575   18.5713 H   0  0  0  0  0  0
  -27.9142  -23.3478   15.6285 H   0  0  0  0  0  0
  -27.4623  -23.5805   17.2725 H   0  0  0  0  0  0
  -28.1730  -25.5886   15.5879 H   0  0  0  0  0  0
  -29.7673  -25.2195   16.0884 H   0  0  0  0  0  0
  -30.4441  -23.2722   16.7572 H   0  0  0  0  0  0
  -29.4891  -21.9365   16.2686 H   0  0  0  0  0  0
  -27.6062  -26.6473   17.4489 H   0  0  0  0  0  0
  -29.3082  -26.8787   17.5701 H   0  0  0  0  0  0
  -30.4839  -21.6904   18.4750 H   0  0  0  0  0  0
  -28.7629  -21.4119   18.4599 H   0  0  0  0  0  0
  -27.6674  -24.8723   19.1937 H   0  0  0  0  0  0
  -28.2384  -16.9150   22.5161 H   0  0  0  0  0  0
  -27.2500  -17.5428   21.1985 H   0  0  0  0  0  0
  -27.2709  -18.3304   22.7779 H   0  0  0  0  0  0
  -27.1947  -21.6085   21.0306 H   0  0  0  0  0  0
  -27.2262  -20.8783   22.6347 H   0  0  0  0  0  0
  -26.6050  -19.9884   21.2420 H   0  0  0  0  0  0
  -30.6499  -16.6732   22.8456 H   0  0  0  0  0  0
  -31.8392  -16.6558   21.6120 H   0  0  0  0  0  0
  -30.6382  -22.9833   21.1809 H   0  0  0  0  0  0
  -28.9830  -22.9135   21.6050 H   0  0  0  0  0  0
  -29.1336  -15.3857   21.4649 H   0  0  0  0  0  0
  -28.3234  -23.1846   19.5750 H   0  0  0  0  0  0
  1 25  1  0  0  0
  1 30  2  0  0  0
  1 93  1  0  0  0
  2  3  1  0  0  0
  2 25  1  0  0  0
  2 95  1  0  0  0
  2 96  1  0  0  0
  3  4  1  0  0  0
  3 97  1  0  0  0
  3 98  1  0  0  0
  4  5  1  0  0  0
  4 99  1  0  0  0
  4100  1  0  0  0
  5  6  1  0  0  0
  5 26  1  0  0  0
  5101  1  0  0  0
  6 25  1  0  0  0
  6102  1  0  0  0
  6103  1  0  0  0
  7  8  2  0  0  0
  7 26  1  0  0  0
  7 29  1  0  0  0
  8  9  1  0  0  0
  8 22  1  0  0  0
  9 10  1  0  0  0
  9 27  2  0  0  0
 10 11  2  0  0  0
 10 15  1  0  0  0
 11 12  1  0  0  0
 11104  1  0  0  0
 12 13  2  0  0  0
 12105  1  0  0  0
 13 14  1  0  0  0
 13 31  1  0  0  0
 14 15  2  0  0  0
 14106  1  0  0  0
 15107  1  0  0  0
 16 17  2  0  0  0
 16 21  1  0  0  0
 16 31  1  0  0  0
 17 18  1  0  0  0
 17108  1  0  0  0
 18 19  2  0  0  0
 18109  1  0  0  0
 19 20  1  0  0  0
 19 24  1  0  0  0
 20 21  2  0  0  0
 20110  1  0  0  0
 21 23  1  0  0  0
 22 28  1  0  0  0
 22 32  2  0  0  0
 26 27  1  0  0  0
 28111  1  0  0  0
 28112  1  0  0  0
 29113  1  0  0  0
 29114  1  0  0  0
 33 34  1  0  0  0
 33 66  1  0  0  0
 33 70  2  0  0  0
 34 36  1  0  0  0
 34 59  1  0  0  0
 34115  1  0  0  0
 35 44  2  0  0  0
 35 45  1  0  0  0
 35 68  1  0  0  0
 36 56  1  0  0  0
 36116  1  0  0  0
 37 39  1  0  0  0
 37 47  1  0  0  0
 37 66  1  0  0  0
 37117  1  0  0  0
 38 43  2  0  0  0
 38 46  1  0  0  0
 38 47  1  0  0  0
 39 64  1  0  0  0
 39 67  2  0  0  0
 40 52  1  0  0  0
 40 53  2  0  0  0
 40 58  1  0  0  0
 41118  1  0  0  0
 41119  1  0  0  0
 41120  1  0  0  0
 41 48  1  0  0  0
 42 43  1  0  0  0
 42 66  1  0  0  0
 42121  1  0  0  0
 42122  1  0  0  0
 43 44  1  0  0  0
 44123  1  0  0  0
 45 46  2  0  0  0
 45124  1  0  0  0
 46125  1  0  0  0
 47126  1  0  0  0
 47127  1  0  0  0
 48 56  1  0  0  0
 48 65  1  0  0  0
 48128  1  0  0  0
 49 50  1  0  0  0
 49 53  1  0  0  0
 49 64  1  0  0  0
 49129  1  0  0  0
 50 51  1  0  0  0
 50130  1  0  0  0
 50131  1  0  0  0
 51 52  1  0  0  0
 51132  1  0  0  0
 51133  1  0  0  0
 52134  1  0  0  0
 52135  1  0  0  0
 53 54  1  0  0  0
 54 55  2  0  0  0
 54136  1  0  0  0
 55 57  1  0  0  0
 55137  1  0  0  0
 56 69  2  0  0  0
 57 58  2  0  0  0
 57138  1  0  0  0
 58139  1  0  0  0
 59 60  1  0  0  0
 59 61  1  0  0  0
 59 62  1  0  0  0
 60140  1  0  0  0
 60141  1  0  0  0
 60142  1  0  0  0
 61143  1  0  0  0
 61144  1  0  0  0
 61145  1  0  0  0
 62146  1  0  0  0
 62147  1  0  0  0
 62148  1  0  0  0
 63 65  1  0  0  0
 63149  1  0  0  0
 63150  1  0  0  0
 63151  1  0  0  0
 64152  1  0  0  0
 65153  1  0  0  0
 68 88  1  0  0  0
 71 72  2  0  0  0
 71 73  1  0  0  0
 71154  1  0  0  0
 72 74  1  0  0  0
 72155  1  0  0  0
 73 75  2  0  0  0
 73 91  1  0  0  0
 74 76  2  0  0  0
 74 92  1  0  0  0
 75 76  1  0  0  0
 75 89  1  0  0  0
 76 90  1  0  0  0
 77 79  2  0  0  0
 77 88  1  0  0  0
 77 94  1  0  0  0
 78 80  2  0  0  0
 78156  1  0  0  0
 78157  1  0  0  0
 79 81  1  0  0  0
 79158  1  0  0  0
 80 82  1  0  0  0
 80159  1  0  0  0
 81 82  2  0  0  0
 81160  1  0  0  0
 82161  1  0  0  0
 83 84  1  0  0  0
 83 85  1  0  0  0
 83162  1  0  0  0
 83163  1  0  0  0
 84 86  1  0  0  0
 84164  1  0  0  0
 84165  1  0  0  0
 85 87  1  0  0  0
 85166  1  0  0  0
 85167  1  0  0  0
 86 88  1  0  0  0
 86168  1  0  0  0
 86169  1  0  0  0
 87 94  1  0  0  0
 87170  1  0  0  0
 87171  1  0  0  0
 88172  1  0  0  0
 89173  1  0  0  0
 89174  1  0  0  0
 89175  1  0  0  0
 90176  1  0  0  0
 90177  1  0  0  0
 90178  1  0  0  0
 91 93  1  0  0  0
 91179  1  0  0  0
 91180  1  0  0  0
 92181  1  0  0  0
 92182  1  0  0  0
 92 94  1  0  0  0
 93183  1  0  0  0
 94184  1  0  0  0
M  CHG  1  94   1
M  ISO  4   1 100  68 101  88 101  93 100
M  END
> <chiral flag>
0

> <version>
0

> <s_m_source_file>
/data/baiqing/PycharmProjects/Reinvent-master-3.2/result/LINK_invent/BTK/process_docking_weight1_custom_product_contain_oxygen_bond_distance_aromatic_linkinvent_7_9_3/rearranged_h_0040.sdf

> <i_m_source_file_index>
45

> <r_mmod_Potential_Energy-OPLS-2005>
-96.9127731323242

> <r_mmod_Stretch_Energy-OPLS-2005>
64.4476089477539

> <r_mmod_Bend_Energy-OPLS-2005>
153.102844238281

> <r_mmod_Torsional_Energy-OPLS-2005>
233.731826782227

> <r_mmod_Improper_Torsional_Energy-OPLS-2005>
4.086745262146

> <r_mmod_Van_der_Waal_Energy-OPLS-2005>
167.725158691406

> <r_mmod_Electrostatic_Energy-OPLS-2005>
-333.144714355469

> <r_mmod_Solvation_Energy-OPLS-2005>
-407.953552246094

> <b_mmod_Minimization_Converged-OPLS-2005>
0

> <r_mmod_RMS_Derivative-OPLS-2005>
4.01285886764526

$$$$
45
                    3D
 Structure written by MMmdl.
172181  0  0  1  0            999 V2000
  -30.5736  -14.7265   20.3555 C   0  0  0  0  0  0
  -30.4287  -12.4303   19.4164 C   0  0  0  0  0  0
  -29.4892  -12.4979   18.1921 C   0  0  0  0  0  0
  -28.0073  -12.3493   18.6094 C   0  0  0  0  0  0
  -27.6224  -13.2376   19.8246 C   0  0  2  0  0  0
  -28.6830  -13.1835   20.9396 C   0  0  0  0  0  0
  -25.2427  -13.8249   20.5734 C   0  0  0  0  0  0
  -24.1726  -13.0409   20.9233 C   0  0  0  0  0  0
  -24.6380  -11.6920   20.8755 C   0  0  0  0  0  0
  -23.9070  -10.4266   21.0417 C   0  0  0  0  0  0
  -24.3621   -9.4180   21.9191 C   0  0  0  0  0  0
  -23.6297   -8.2217   22.0754 C   0  0  0  0  0  0
  -22.4278   -8.0267   21.3547 C   0  0  0  0  0  0
  -21.9899   -9.0241   20.4644 C   0  0  0  0  0  0
  -22.7246  -10.2121   20.3058 C   0  0  0  0  0  0
  -21.6832   -6.0740   22.5275 C   0  0  0  0  0  0
  -21.4023   -6.5638   23.8220 C   0  0  0  0  0  0
  -21.3658   -5.6790   24.9173 C   0  0  0  0  0  0
  -21.6040   -4.3054   24.7216 C   0  0  0  0  0  0
  -21.8809   -3.8150   23.4336 C   0  0  0  0  0  0
  -21.9192   -4.6963   22.3400 C   0  0  0  0  0  0
  -22.7739  -13.5179   21.1832 C   0  0  0  0  0  0
  -22.1648   -4.2143   21.0983 F   0  0  0  0  0  0
  -21.5612   -3.4547   25.7739 F   0  0  0  0  0  0
  -29.9781  -13.4966   20.3260 N   0  0  0  0  0  0
  -26.2831  -12.9439   20.3233 N   0  0  0  0  0  0
  -25.9300  -11.6568   20.5738 N   0  0  0  0  0  0
  -22.0387  -12.8209   22.0439 N   0  0  0  0  0  0
  -25.4003  -15.1986   20.4279 N   0  0  0  0  0  0
  -31.8032  -14.8314   20.3153 O   0  0  0  0  0  0
  -21.6630   -6.8878   21.4234 O   0  0  0  0  0  0
  -22.3405  -14.5449   20.6639 O   0  0  0  0  0  0
  -24.6414  -31.8515   23.1975 C   0  0  0  0  0  0
  -25.9213  -32.4751   23.8346 C   0  0  1  0  0  0
  -27.1966  -27.2153   20.1347 C   0  0  0  0  0  0
  -25.5986  -33.8550   24.2242 N   0  0  0  0  0  0
  -23.4369  -30.4795   21.5444 C   0  0  2  0  0  0
  -24.8746  -28.9205   20.1196 C   0  0  0  0  0  0
  -22.7536  -29.4603   22.4932 C   0  0  0  0  0  0
  -18.0293  -28.1451   22.8517 C   0  0  0  0  0  0
  -24.1460  -36.7231   23.2641 C   0  0  0  0  0  0
  -25.9879  -30.7651   21.3694 C   0  0  0  0  0  0
  -26.0580  -29.3790   20.7153 C   0  0  0  0  0  0
  -27.2265  -28.5442   20.6953 C   0  0  0  0  0  0
  -25.9815  -26.8287   19.5273 C   0  0  0  0  0  0
  -24.8415  -27.6547   19.5216 C   0  0  0  0  0  0
  -23.6558  -29.8184   20.1612 C   0  0  0  0  0  0
  -25.4096  -36.3063   24.0335 C   0  0  1  0  0  0
  -20.5881  -28.3729   23.1275 C   0  0  2  0  0  0
  -20.6771  -26.9454   22.5431 C   0  0  0  0  0  0
  -19.5737  -26.6414   21.5236 C   0  0  0  0  0  0
  -18.1915  -26.8011   22.1640 C   0  0  0  0  0  0
  -19.1552  -28.8918   23.2897 C   0  0  0  0  0  0
  -18.9482  -30.1517   23.8915 C   0  0  0  0  0  0
  -17.6477  -30.6642   24.0592 C   0  0  0  0  0  0
  -25.9045  -34.9431   23.5073 C   0  0  0  0  0  0
  -16.5352  -29.9157   23.6349 C   0  0  0  0  0  0
  -16.7281  -28.6576   23.0367 C   0  0  0  0  0  0
  -26.4512  -31.6625   25.0778 C   0  0  0  0  0  0
  -25.3675  -31.3896   26.1466 C   0  0  0  0  0  0
  -27.0361  -30.3021   24.6343 C   0  0  0  0  0  0
  -27.6033  -32.4399   25.7598 C   0  0  0  0  0  0
  -27.5569  -37.1783   24.8489 C   0  0  0  0  0  0
  -21.4244  -29.3052   22.3653 N   0  0  0  0  0  0
  -26.4264  -37.3774   23.9451 N   0  0  0  0  0  0
  -24.7104  -31.0474   22.0951 N   0  0  0  0  0  0
  -23.4192  -28.8111   23.3037 O   0  0  0  0  0  0
  -28.2796  -26.2943   20.1464 O   0  0  0  0  0  0
  -26.5617  -34.8914   22.4635 O   0  0  0  0  0  0
  -23.5532  -32.1350   23.7207 O   0  0  0  0  0  0
  -29.2668  -17.1175   21.9254 C   0  0  0  0  0  0
  -29.2970  -18.3553   19.8358 C   0  0  0  0  0  0
  -28.7324  -18.2473   22.5682 C   0  0  0  0  0  0
  -28.8162  -19.5743   20.4800 C   0  0  0  0  0  0
  -28.4827  -19.4534   21.8599 C   0  0  0  0  0  0
  -29.5145  -17.1040   20.5455 C   0  0  0  0  0  0
  -30.8573  -22.3158   17.5821 C   0  0  0  0  0  0
  -29.9220  -23.4987   17.2529 C   0  0  0  0  0  0
  -31.5385  -22.4192   18.9713 C   0  0  0  0  0  0
  -28.6690  -23.6382   18.1383 C   0  0  0  0  0  0
  -30.7471  -21.9656   20.2295 C   0  0  0  0  0  0
  -28.9828  -23.6921   19.6437 C   0  0  1  0  0  0
  -28.3552  -18.1091   24.0349 C   0  0  0  0  0  0
  -27.7922  -20.5803   22.6235 C   0  0  0  0  0  0
  -28.5528  -20.9656   19.7178 C   0  0  0  0  0  0
  -28.0635  -24.8026   20.4104 C   0  0  0  0  0  0
  -29.7744  -15.7842   19.9487 N   0  0  0  0  0  0
  -29.2752  -22.2503   20.2093 N   0  3  1  0  0  0
  -31.4648  -12.5787   19.1061 H   0  0  0  0  0  0
  -30.3902  -11.4529   19.9021 H   0  0  0  0  0  0
  -29.7472  -11.7394   17.4557 H   0  0  0  0  0  0
  -29.6231  -13.4594   17.6927 H   0  0  0  0  0  0
  -27.8216  -11.2998   18.8462 H   0  0  0  0  0  0
  -27.3585  -12.5879   17.7623 H   0  0  0  0  0  0
  -27.5925  -14.2550   19.4365 H   0  0  0  0  0  0
  -28.6981  -12.2096   21.4280 H   0  0  0  0  0  0
  -28.4466  -13.9195   21.7109 H   0  0  0  0  0  0
  -25.2768   -9.5635   22.4772 H   0  0  0  0  0  0
  -23.9985   -7.4595   22.7478 H   0  0  0  0  0  0
  -21.0818   -8.8779   19.8958 H   0  0  0  0  0  0
  -22.3717  -10.9663   19.6162 H   0  0  0  0  0  0
  -21.2040   -7.6166   23.9711 H   0  0  0  0  0  0
  -21.1476   -6.0540   25.9079 H   0  0  0  0  0  0
  -22.0593   -2.7613   23.2847 H   0  0  0  0  0  0
  -22.3989  -11.9949   22.5004 H   0  0  0  0  0  0
  -21.0972  -13.1202   22.2526 H   0  0  0  0  0  0
  -24.6240  -15.8389   20.5611 H   0  0  0  0  0  0
  -26.2684  -15.6707   20.2003 H   0  0  0  0  0  0
  -26.7311  -32.5360   23.1111 H   0  0  0  0  0  0
  -25.0267  -33.9677   25.0486 H   0  0  0  0  0  0
  -22.7362  -31.3052   21.3999 H   0  0  0  0  0  0
  -23.3737  -35.9553   23.3327 H   0  0  0  0  0  0
  -24.3532  -36.8825   22.2052 H   0  0  0  0  0  0
  -23.7150  -37.6410   23.6635 H   0  0  0  0  0  0
  -26.1084  -31.5223   20.5919 H   0  0  0  0  0  0
  -26.8690  -30.8208   22.0004 H   0  0  0  0  0  0
  -28.1436  -28.8988   21.1452 H   0  0  0  0  0  0
  -25.8771  -25.8592   19.0620 H   0  0  0  0  0  0
  -23.9243  -27.2935   19.0758 H   0  0  0  0  0  0
  -23.8018  -30.5949   19.4131 H   0  0  0  0  0  0
  -22.7685  -29.2714   19.8390 H   0  0  0  0  0  0
  -25.1254  -36.1930   25.0828 H   0  0  0  0  0  0
  -20.9981  -28.3333   24.1382 H   0  0  0  0  0  0
  -20.5677  -26.2344   23.3646 H   0  0  0  0  0  0
  -21.6643  -26.7512   22.1202 H   0  0  0  0  0  0
  -19.6872  -25.6307   21.1314 H   0  0  0  0  0  0
  -19.6685  -27.3196   20.6742 H   0  0  0  0  0  0
  -17.4193  -26.6792   21.4041 H   0  0  0  0  0  0
  -18.0310  -26.0171   22.9054 H   0  0  0  0  0  0
  -19.7924  -30.7366   24.2289 H   0  0  0  0  0  0
  -17.4994  -31.6317   24.5219 H   0  0  0  0  0  0
  -15.5342  -30.3049   23.7665 H   0  0  0  0  0  0
  -15.8673  -28.0876   22.7076 H   0  0  0  0  0  0
  -24.5833  -30.7263   25.7804 H   0  0  0  0  0  0
  -24.8889  -32.3126   26.4745 H   0  0  0  0  0  0
  -25.7898  -30.9172   27.0341 H   0  0  0  0  0  0
  -26.2990  -29.6778   24.1279 H   0  0  0  0  0  0
  -27.3884  -29.7296   25.4926 H   0  0  0  0  0  0
  -27.8913  -30.4229   23.9699 H   0  0  0  0  0  0
  -27.2609  -33.3711   26.2116 H   0  0  0  0  0  0
  -28.3905  -32.6954   25.0510 H   0  0  0  0  0  0
  -28.0633  -31.8590   26.5593 H   0  0  0  0  0  0
  -28.2603  -38.0066   24.7531 H   0  0  0  0  0  0
  -28.1043  -36.2591   24.6316 H   0  0  0  0  0  0
  -27.2310  -37.1469   25.8901 H   0  0  0  0  0  0
  -20.9462  -29.8784   21.6840 H   0  0  0  0  0  0
  -26.0133  -38.2846   24.1468 H   0  0  0  0  0  0
  -29.4163  -16.2102   22.4923 H   0  0  0  0  0  0
  -29.4759  -18.3635   18.7676 H   0  0  0  0  0  0
  -31.6578  -22.3259   16.8433 H   0  0  0  0  0  0
  -30.3681  -21.3601   17.4166 H   0  0  0  0  0  0
  -29.5846  -23.4032   16.2191 H   0  0  0  0  0  0
  -30.5031  -24.4260   17.2955 H   0  0  0  0  0  0
  -31.8871  -23.4411   19.1110 H   0  0  0  0  0  0
  -32.4575  -21.8365   18.9449 H   0  0  0  0  0  0
  -27.9508  -22.8513   17.9175 H   0  0  0  0  0  0
  -28.1615  -24.5581   17.8457 H   0  0  0  0  0  0
  -31.1981  -22.4380   21.1033 H   0  0  0  0  0  0
  -30.9545  -20.9084   20.3944 H   0  0  0  0  0  0
  -29.9265  -24.2235   19.7479 H   0  0  0  0  0  0
  -28.4157  -17.0759   24.3801 H   0  0  0  0  0  0
  -27.3276  -18.4322   24.1839 H   0  0  0  0  0  0
  -29.0048  -18.7095   24.6698 H   0  0  0  0  0  0
  -28.3237  -20.8026   23.5478 H   0  0  0  0  0  0
  -26.7916  -20.2507   22.8968 H   0  0  0  0  0  0
  -27.6653  -21.5180   22.0892 H   0  0  0  0  0  0
  -27.4734  -21.1255   19.6930 H   0  0  0  0  0  0
  -28.8018  -20.7700   18.6789 H   0  0  0  0  0  0
  -28.2243  -24.6678   21.4826 H   0  0  0  0  0  0
  -27.0243  -24.5110   20.2683 H   0  0  0  0  0  0
  -29.0101  -15.4659   19.3702 H   0  0  0  0  0  0
  -29.0252  -22.2850   21.1865 H   0  0  0  0  0  0
  1 25  1  0  0  0
  1 30  2  0  0  0
  1 87  1  0  0  0
  2  3  1  0  0  0
  2 25  1  0  0  0
  2 89  1  0  0  0
  2 90  1  0  0  0
  3  4  1  0  0  0
  3 91  1  0  0  0
  3 92  1  0  0  0
  4  5  1  0  0  0
  4 93  1  0  0  0
  4 94  1  0  0  0
  5  6  1  0  0  0
  5 26  1  0  0  0
  5 95  1  0  0  0
  6 25  1  0  0  0
  6 96  1  0  0  0
  6 97  1  0  0  0
  7  8  2  0  0  0
  7 26  1  0  0  0
  7 29  1  0  0  0
  8  9  1  0  0  0
  8 22  1  0  0  0
  9 10  1  0  0  0
  9 27  2  0  0  0
 10 11  2  0  0  0
 10 15  1  0  0  0
 11 12  1  0  0  0
 11 98  1  0  0  0
 12 13  2  0  0  0
 12 99  1  0  0  0
 13 14  1  0  0  0
 13 31  1  0  0  0
 14 15  2  0  0  0
 14100  1  0  0  0
 15101  1  0  0  0
 16 17  2  0  0  0
 16 21  1  0  0  0
 16 31  1  0  0  0
 17 18  1  0  0  0
 17102  1  0  0  0
 18 19  2  0  0  0
 18103  1  0  0  0
 19 20  1  0  0  0
 19 24  1  0  0  0
 20 21  2  0  0  0
 20104  1  0  0  0
 21 23  1  0  0  0
 22 28  1  0  0  0
 22 32  2  0  0  0
 26 27  1  0  0  0
 28105  1  0  0  0
 28106  1  0  0  0
 29107  1  0  0  0
 29108  1  0  0  0
 33 34  1  0  0  0
 33 66  1  0  0  0
 33 70  2  0  0  0
 34 36  1  0  0  0
 34 59  1  0  0  0
 34109  1  0  0  0
 35 44  2  0  0  0
 35 45  1  0  0  0
 35 68  1  0  0  0
 36 56  1  0  0  0
 36110  1  0  0  0
 37 39  1  0  0  0
 37 47  1  0  0  0
 37 66  1  0  0  0
 37111  1  0  0  0
 38 43  2  0  0  0
 38 46  1  0  0  0
 38 47  1  0  0  0
 39 64  1  0  0  0
 39 67  2  0  0  0
 40 52  1  0  0  0
 40 53  2  0  0  0
 40 58  1  0  0  0
 41112  1  0  0  0
 41113  1  0  0  0
 41114  1  0  0  0
 41 48  1  0  0  0
 42 43  1  0  0  0
 42 66  1  0  0  0
 42115  1  0  0  0
 42116  1  0  0  0
 43 44  1  0  0  0
 44117  1  0  0  0
 45 46  2  0  0  0
 45118  1  0  0  0
 46119  1  0  0  0
 47120  1  0  0  0
 47121  1  0  0  0
 48 56  1  0  0  0
 48 65  1  0  0  0
 48122  1  0  0  0
 49 50  1  0  0  0
 49 53  1  0  0  0
 49 64  1  0  0  0
 49123  1  0  0  0
 50 51  1  0  0  0
 50124  1  0  0  0
 50125  1  0  0  0
 51 52  1  0  0  0
 51126  1  0  0  0
 51127  1  0  0  0
 52128  1  0  0  0
 52129  1  0  0  0
 53 54  1  0  0  0
 54 55  2  0  0  0
 54130  1  0  0  0
 55 57  1  0  0  0
 55131  1  0  0  0
 56 69  2  0  0  0
 57 58  2  0  0  0
 57132  1  0  0  0
 58133  1  0  0  0
 59 60  1  0  0  0
 59 61  1  0  0  0
 59 62  1  0  0  0
 60134  1  0  0  0
 60135  1  0  0  0
 60136  1  0  0  0
 61137  1  0  0  0
 61138  1  0  0  0
 61139  1  0  0  0
 62140  1  0  0  0
 62141  1  0  0  0
 62142  1  0  0  0
 63 65  1  0  0  0
 63143  1  0  0  0
 63144  1  0  0  0
 63145  1  0  0  0
 64146  1  0  0  0
 65147  1  0  0  0
 68 86  1  0  0  0
 71 73  2  0  0  0
 71 76  1  0  0  0
 71148  1  0  0  0
 72 74  1  0  0  0
 72 76  2  0  0  0
 72149  1  0  0  0
 73 75  1  0  0  0
 73 83  1  0  0  0
 74 75  2  0  0  0
 74 85  1  0  0  0
 75 84  1  0  0  0
 76 87  1  0  0  0
 77 78  1  0  0  0
 77 79  1  0  0  0
 77150  1  0  0  0
 77151  1  0  0  0
 78 80  1  0  0  0
 78152  1  0  0  0
 78153  1  0  0  0
 79 81  1  0  0  0
 79154  1  0  0  0
 79155  1  0  0  0
 80 82  1  0  0  0
 80156  1  0  0  0
 80157  1  0  0  0
 81 88  1  0  0  0
 81158  1  0  0  0
 81159  1  0  0  0
 82 86  1  0  0  0
 82 88  1  0  0  0
 82160  1  0  0  0
 83161  1  0  0  0
 83162  1  0  0  0
 83163  1  0  0  0
 84164  1  0  0  0
 84165  1  0  0  0
 84166  1  0  0  0
 85167  1  0  0  0
 85168  1  0  0  0
 85 88  1  0  0  0
 86169  1  0  0  0
 86170  1  0  0  0
 87171  1  0  0  0
 88172  1  0  0  0
M  CHG  1  88   1
M  ISO  4   1 100  68 101  86 101  87 100
M  END
> <chiral flag>
0

> <version>
0

> <s_m_source_file>
/data/baiqing/PycharmProjects/Reinvent-master-3.2/result/LINK_invent/BTK/process_docking_weight1_custom_product_contain_oxygen_bond_distance_aromatic_linkinvent_7_9_3/rearranged_h_0040.sdf

> <i_m_source_file_index>
46

> <r_mmod_Potential_Energy-OPLS-2005>
297.357513427734

> <r_mmod_Stretch_Energy-OPLS-2005>
147.174468994141

> <r_mmod_Bend_Energy-OPLS-2005>
206.244827270508

> <r_mmod_Torsional_Energy-OPLS-2005>
335.781311035156

> <r_mmod_Improper_Torsional_Energy-OPLS-2005>
17.3778438568115

> <r_mmod_Van_der_Waal_Energy-OPLS-2005>
148.521011352539

> <r_mmod_Electrostatic_Energy-OPLS-2005>
-249.331359863281

> <r_mmod_Solvation_Energy-OPLS-2005>
-417.601745605469

> <b_mmod_Minimization_Converged-OPLS-2005>
0

> <r_mmod_RMS_Derivative-OPLS-2005>
7.33093643188477

$$$$
46
                    3D
 Structure written by MMmdl.
159167  0  0  1  0            999 V2000
  -30.7092  -14.4762   20.5476 C   0  0  0  0  0  0
  -30.4356  -12.2927   19.4352 C   0  0  0  0  0  0
  -29.4967  -12.4808   18.2262 C   0  0  0  0  0  0
  -28.0212  -12.3366   18.6425 C   0  0  0  0  0  0
  -27.6645  -13.2030   19.8797 C   0  0  2  0  0  0
  -28.7090  -13.0066   21.0019 C   0  0  0  0  0  0
  -25.2571  -13.8158   20.5664 C   0  0  0  0  0  0
  -24.1811  -13.0458   20.9156 C   0  0  0  0  0  0
  -24.6371  -11.6926   20.8733 C   0  0  0  0  0  0
  -23.9055  -10.4312   21.0406 C   0  0  0  0  0  0
  -24.3597   -9.4226   21.9181 C   0  0  0  0  0  0
  -23.6279   -8.2253   22.0742 C   0  0  0  0  0  0
  -22.4268   -8.0278   21.3533 C   0  0  0  0  0  0
  -21.9908   -9.0260   20.4639 C   0  0  0  0  0  0
  -22.7232  -10.2145   20.3059 C   0  0  0  0  0  0
  -21.6844   -6.0731   22.5290 C   0  0  0  0  0  0
  -21.4021   -6.5640   23.8228 C   0  0  0  0  0  0
  -21.3653   -5.6781   24.9184 C   0  0  0  0  0  0
  -21.6042   -4.3052   24.7223 C   0  0  0  0  0  0
  -21.8818   -3.8147   23.4349 C   0  0  0  0  0  0
  -21.9191   -4.6959   22.3407 C   0  0  0  0  0  0
  -22.7839  -13.5265   21.1831 C   0  0  0  0  0  0
  -22.1651   -4.2131   21.0983 F   0  0  0  0  0  0
  -21.5619   -3.4548   25.7746 F   0  0  0  0  0  0
  -30.0443  -13.2913   20.4461 N   0  0  0  0  0  0
  -26.3018  -12.9333   20.3393 N   0  0  0  0  0  0
  -25.9303  -11.6511   20.5795 N   0  0  0  0  0  0
  -22.0479  -12.8243   22.0383 N   0  0  0  0  0  0
  -25.4341  -15.1867   20.4099 N   0  0  0  0  0  0
  -31.8290  -14.6506   20.0580 O   0  0  0  0  0  0
  -21.6634   -6.8870   21.4254 O   0  0  0  0  0  0
  -22.3531  -14.5590   20.6693 O   0  0  0  0  0  0
  -24.6204  -31.8635   23.2050 C   0  0  0  0  0  0
  -25.9050  -32.4803   23.8364 C   0  0  1  0  0  0
  -27.2319  -27.3989   20.0950 C   0  0  0  0  0  0
  -25.5913  -33.8594   24.2297 N   0  0  0  0  0  0
  -23.4118  -30.4894   21.5442 C   0  0  2  0  0  0
  -24.8509  -28.9372   20.1220 C   0  0  0  0  0  0
  -22.7472  -29.4696   22.4925 C   0  0  0  0  0  0
  -18.0371  -28.1365   22.8525 C   0  0  0  0  0  0
  -24.1484  -36.7309   23.2640 C   0  0  0  0  0  0
  -25.9420  -30.8162   21.3613 C   0  0  0  0  0  0
  -26.0123  -29.4442   20.7138 C   0  0  0  0  0  0
  -27.2105  -28.6852   20.6890 C   0  0  0  0  0  0
  -26.0451  -26.9027   19.5111 C   0  0  0  0  0  0
  -24.8633  -27.6669   19.5177 C   0  0  0  0  0  0
  -23.6195  -29.8127   20.1608 C   0  0  0  0  0  0
  -25.4113  -36.3089   24.0327 C   0  0  1  0  0  0
  -20.5928  -28.3731   23.1176 C   0  0  2  0  0  0
  -20.6910  -26.9526   22.5098 C   0  0  0  0  0  0
  -19.5740  -26.6277   21.5126 C   0  0  0  0  0  0
  -18.2049  -26.7874   22.1716 C   0  0  0  0  0  0
  -19.1593  -28.8885   23.2891 C   0  0  0  0  0  0
  -18.9472  -30.1579   23.8731 C   0  0  0  0  0  0
  -17.6399  -30.6561   24.0506 C   0  0  0  0  0  0
  -25.9034  -34.9479   23.5099 C   0  0  0  0  0  0
  -16.5322  -29.8921   23.6388 C   0  0  0  0  0  0
  -16.7334  -28.6354   23.0427 C   0  0  0  0  0  0
  -26.4486  -31.6592   25.0703 C   0  0  0  0  0  0
  -25.3756  -31.3698   26.1467 C   0  0  0  0  0  0
  -27.0328  -30.3042   24.6081 C   0  0  0  0  0  0
  -27.6071  -32.4314   25.7476 C   0  0  0  0  0  0
  -27.5581  -37.1808   24.8468 C   0  0  0  0  0  0
  -21.4185  -29.3238   22.3758 N   0  0  0  0  0  0
  -26.4293  -37.3789   23.9404 N   0  0  0  0  0  0
  -24.6759  -31.0743   22.0934 N   0  0  0  0  0  0
  -23.4227  -28.8118   23.2877 O   0  0  0  0  0  0
  -28.4092  -26.6884   19.9906 O   0  0  0  0  0  0
  -26.5622  -34.8925   22.4654 O   0  0  0  0  0  0
  -23.5383  -32.1400   23.7398 O   0  0  0  0  0  0
  -27.5310  -19.0939   22.3911 C   0  0  0  0  0  0
  -27.5684  -20.2218   21.5591 C   0  0  0  0  0  0
  -28.4076  -18.0057   22.1967 C   0  0  0  0  0  0
  -28.5053  -20.3128   20.5135 C   0  0  0  0  0  0
  -29.3713  -18.0469   21.1501 C   0  0  0  0  0  0
  -29.4116  -19.2180   20.3140 C   0  0  0  0  0  0
  -28.3279  -16.8489   23.1820 C   0  0  0  0  0  0
  -30.4517  -16.9260   21.0287 C   0  0  0  0  0  0
  -28.4495  -21.5825   19.6247 C   0  0  0  0  0  0
  -28.1348  -24.1223   19.7675 C   0  0  0  0  0  0
  -28.5251  -25.3849   20.6009 C   0  0  0  0  0  0
  -30.0304  -15.5036   21.0920 N   0  0  0  0  0  0
  -28.6933  -22.8617   20.3656 N   0  3  0  0  0  0
  -30.5905  -19.3529   19.0530 Cl  0  0  0  0  0  0
  -31.4740  -12.3981   19.1092 H   0  0  0  0  0  0
  -30.3579  -11.2780   19.8418 H   0  0  0  0  0  0
  -29.7384  -11.7660   17.4378 H   0  0  0  0  0  0
  -29.6536  -13.4757   17.8010 H   0  0  0  0  0  0
  -27.8470  -11.2835   18.8683 H   0  0  0  0  0  0
  -27.3625  -12.5658   17.8061 H   0  0  0  0  0  0
  -27.7081  -14.2441   19.5583 H   0  0  0  0  0  0
  -28.6681  -11.9783   21.3638 H   0  0  0  0  0  0
  -28.4731  -13.6262   21.8645 H   0  0  0  0  0  0
  -25.2727   -9.5693   22.4780 H   0  0  0  0  0  0
  -23.9978   -7.4637   22.7467 H   0  0  0  0  0  0
  -21.0830   -8.8780   19.8939 H   0  0  0  0  0  0
  -22.3679  -10.9682   19.6163 H   0  0  0  0  0  0
  -21.2027   -7.6148   23.9720 H   0  0  0  0  0  0
  -21.1469   -6.0521   25.9075 H   0  0  0  0  0  0
  -22.0602   -2.7608   23.2866 H   0  0  0  0  0  0
  -22.4067  -11.9908   22.4782 H   0  0  0  0  0  0
  -21.1098  -13.1286   22.2601 H   0  0  0  0  0  0
  -24.6798  -15.8514   20.5384 H   0  0  0  0  0  0
  -26.2991  -15.6277   20.1236 H   0  0  0  0  0  0
  -26.7103  -32.5489   23.1111 H   0  0  0  0  0  0
  -25.0053  -33.9752   25.0449 H   0  0  0  0  0  0
  -22.7028  -31.3102   21.3995 H   0  0  0  0  0  0
  -23.3735  -35.9644   23.3294 H   0  0  0  0  0  0
  -24.3582  -36.8933   22.2052 H   0  0  0  0  0  0
  -23.7250  -37.6511   23.6671 H   0  0  0  0  0  0
  -26.0587  -31.5735   20.5845 H   0  0  0  0  0  0
  -26.8262  -30.8708   21.9822 H   0  0  0  0  0  0
  -28.1202  -29.0867   21.1149 H   0  0  0  0  0  0
  -26.0357  -25.9468   19.0145 H   0  0  0  0  0  0
  -23.9707  -27.2792   19.0462 H   0  0  0  0  0  0
  -23.7338  -30.5782   19.3963 H   0  0  0  0  0  0
  -22.7409  -29.2377   19.8702 H   0  0  0  0  0  0
  -25.1283  -36.1938   25.0827 H   0  0  0  0  0  0
  -21.0124  -28.3170   24.1242 H   0  0  0  0  0  0
  -20.6160  -26.2236   23.3216 H   0  0  0  0  0  0
  -21.6707  -26.7757   22.0700 H   0  0  0  0  0  0
  -19.6734  -25.5990   21.1556 H   0  0  0  0  0  0
  -19.6532  -27.2799   20.6391 H   0  0  0  0  0  0
  -17.4191  -26.6471   21.4303 H   0  0  0  0  0  0
  -18.0645  -26.0044   22.9185 H   0  0  0  0  0  0
  -19.7951  -30.7662   24.1669 H   0  0  0  0  0  0
  -17.4861  -31.6297   24.4944 H   0  0  0  0  0  0
  -15.5286  -30.2689   23.7745 H   0  0  0  0  0  0
  -15.8767  -28.0600   22.7236 H   0  0  0  0  0  0
  -24.5943  -30.7034   25.7801 H   0  0  0  0  0  0
  -24.8970  -32.2864   26.4926 H   0  0  0  0  0  0
  -25.8141  -30.8870   27.0216 H   0  0  0  0  0  0
  -26.2870  -29.6795   24.1167 H   0  0  0  0  0  0
  -27.4140  -29.7295   25.4532 H   0  0  0  0  0  0
  -27.8684  -30.4372   23.9209 H   0  0  0  0  0  0
  -27.2693  -33.3604   26.2091 H   0  0  0  0  0  0
  -28.3881  -32.6880   25.0301 H   0  0  0  0  0  0
  -28.0749  -31.8414   26.5373 H   0  0  0  0  0  0
  -28.2590  -38.0114   24.7505 H   0  0  0  0  0  0
  -28.1083  -36.2640   24.6292 H   0  0  0  0  0  0
  -27.2306  -37.1455   25.8878 H   0  0  0  0  0  0
  -20.9413  -29.9302   21.7252 H   0  0  0  0  0  0
  -26.0158  -38.2845   24.1441 H   0  0  0  0  0  0
  -26.8216  -19.0737   23.2046 H   0  0  0  0  0  0
  -26.8622  -21.0283   21.7230 H   0  0  0  0  0  0
  -29.3084  -16.6563   23.6201 H   0  0  0  0  0  0
  -27.9649  -15.9437   22.6994 H   0  0  0  0  0  0
  -27.6478  -17.0555   24.0118 H   0  0  0  0  0  0
  -31.0375  -17.0534   20.1220 H   0  0  0  0  0  0
  -31.1661  -17.0889   21.8379 H   0  0  0  0  0  0
  -27.4471  -21.6156   19.1968 H   0  0  0  0  0  0
  -29.1165  -21.5192   18.7662 H   0  0  0  0  0  0
  -28.4831  -24.2259   18.7372 H   0  0  0  0  0  0
  -27.0469  -24.0498   19.7196 H   0  0  0  0  0  0
  -29.5889  -25.3013   20.8104 H   0  0  0  0  0  0
  -28.0345  -25.3783   21.5786 H   0  0  0  0  0  0
  -29.1713  -15.2743   21.5656 H   0  0  0  0  0  0
  -29.6884  -22.9642   20.4776 H   0  0  0  0  0  0
  -28.2976  -22.7531   21.2844 H   0  0  0  0  0  0
  1 25  1  0  0  0
  1 30  2  0  0  0
  1 82  1  0  0  0
  2  3  1  0  0  0
  2 25  1  0  0  0
  2 85  1  0  0  0
  2 86  1  0  0  0
  3  4  1  0  0  0
  3 87  1  0  0  0
  3 88  1  0  0  0
  4  5  1  0  0  0
  4 89  1  0  0  0
  4 90  1  0  0  0
  5  6  1  0  0  0
  5 26  1  0  0  0
  5 91  1  0  0  0
  6 25  1  0  0  0
  6 92  1  0  0  0
  6 93  1  0  0  0
  7  8  2  0  0  0
  7 26  1  0  0  0
  7 29  1  0  0  0
  8  9  1  0  0  0
  8 22  1  0  0  0
  9 10  1  0  0  0
  9 27  2  0  0  0
 10 11  2  0  0  0
 10 15  1  0  0  0
 11 12  1  0  0  0
 11 94  1  0  0  0
 12 13  2  0  0  0
 12 95  1  0  0  0
 13 14  1  0  0  0
 13 31  1  0  0  0
 14 15  2  0  0  0
 14 96  1  0  0  0
 15 97  1  0  0  0
 16 17  2  0  0  0
 16 21  1  0  0  0
 16 31  1  0  0  0
 17 18  1  0  0  0
 17 98  1  0  0  0
 18 19  2  0  0  0
 18 99  1  0  0  0
 19 20  1  0  0  0
 19 24  1  0  0  0
 20 21  2  0  0  0
 20100  1  0  0  0
 21 23  1  0  0  0
 22 28  1  0  0  0
 22 32  2  0  0  0
 26 27  1  0  0  0
 28101  1  0  0  0
 28102  1  0  0  0
 29103  1  0  0  0
 29104  1  0  0  0
 33 34  1  0  0  0
 33 66  1  0  0  0
 33 70  2  0  0  0
 34 36  1  0  0  0
 34 59  1  0  0  0
 34105  1  0  0  0
 35 44  2  0  0  0
 35 45  1  0  0  0
 35 68  1  0  0  0
 36 56  1  0  0  0
 36106  1  0  0  0
 37 39  1  0  0  0
 37 47  1  0  0  0
 37 66  1  0  0  0
 37107  1  0  0  0
 38 43  2  0  0  0
 38 46  1  0  0  0
 38 47  1  0  0  0
 39 64  1  0  0  0
 39 67  2  0  0  0
 40 52  1  0  0  0
 40 53  2  0  0  0
 40 58  1  0  0  0
 41108  1  0  0  0
 41109  1  0  0  0
 41110  1  0  0  0
 41 48  1  0  0  0
 42 43  1  0  0  0
 42 66  1  0  0  0
 42111  1  0  0  0
 42112  1  0  0  0
 43 44  1  0  0  0
 44113  1  0  0  0
 45 46  2  0  0  0
 45114  1  0  0  0
 46115  1  0  0  0
 47116  1  0  0  0
 47117  1  0  0  0
 48 56  1  0  0  0
 48 65  1  0  0  0
 48118  1  0  0  0
 49 50  1  0  0  0
 49 53  1  0  0  0
 49 64  1  0  0  0
 49119  1  0  0  0
 50 51  1  0  0  0
 50120  1  0  0  0
 50121  1  0  0  0
 51 52  1  0  0  0
 51122  1  0  0  0
 51123  1  0  0  0
 52124  1  0  0  0
 52125  1  0  0  0
 53 54  1  0  0  0
 54 55  2  0  0  0
 54126  1  0  0  0
 55 57  1  0  0  0
 55127  1  0  0  0
 56 69  2  0  0  0
 57 58  2  0  0  0
 57128  1  0  0  0
 58129  1  0  0  0
 59 60  1  0  0  0
 59 61  1  0  0  0
 59 62  1  0  0  0
 60130  1  0  0  0
 60131  1  0  0  0
 60132  1  0  0  0
 61133  1  0  0  0
 61134  1  0  0  0
 61135  1  0  0  0
 62136  1  0  0  0
 62137  1  0  0  0
 62138  1  0  0  0
 63 65  1  0  0  0
 63139  1  0  0  0
 63140  1  0  0  0
 63141  1  0  0  0
 64142  1  0  0  0
 65143  1  0  0  0
 68 81  1  0  0  0
 71 72  2  0  0  0
 71 73  1  0  0  0
 71144  1  0  0  0
 72 74  1  0  0  0
 72145  1  0  0  0
 73 75  2  0  0  0
 73 77  1  0  0  0
 74 76  2  0  0  0
 74 79  1  0  0  0
 75 76  1  0  0  0
 75 78  1  0  0  0
 76 84  1  0  0  0
 77146  1  0  0  0
 77147  1  0  0  0
 77148  1  0  0  0
 78 82  1  0  0  0
 78149  1  0  0  0
 78150  1  0  0  0
 79 83  1  0  0  0
 79151  1  0  0  0
 79152  1  0  0  0
 80 81  1  0  0  0
 80 83  1  0  0  0
 80153  1  0  0  0
 80154  1  0  0  0
 81155  1  0  0  0
 81156  1  0  0  0
 82157  1  0  0  0
 83158  1  0  0  0
 83159  1  0  0  0
M  CHG  1  83   1
M  ISO  4   1 100  68 101  81 101  82 100
M  END
> <chiral flag>
0

> <version>
0

> <s_m_source_file>
/data/baiqing/PycharmProjects/Reinvent-master-3.2/result/LINK_invent/BTK/process_docking_weight1_custom_product_contain_oxygen_bond_distance_aromatic_linkinvent_7_9_3/rearranged_h_0040.sdf

> <i_m_source_file_index>
47

> <r_mmod_Potential_Energy-OPLS-2005>
-222.186172485352

> <r_mmod_Stretch_Energy-OPLS-2005>
51.4100341796875

> <r_mmod_Bend_Energy-OPLS-2005>
113.396873474121

> <r_mmod_Torsional_Energy-OPLS-2005>
212.229385375977

> <r_mmod_Improper_Torsional_Energy-OPLS-2005>
4.00494337081909

> <r_mmod_Van_der_Waal_Energy-OPLS-2005>
147.983016967773

> <r_mmod_Electrostatic_Energy-OPLS-2005>
-311.177124023438

> <r_mmod_Solvation_Energy-OPLS-2005>
-455.456970214844

> <b_mmod_Minimization_Converged-OPLS-2005>
0

> <r_mmod_RMS_Derivative-OPLS-2005>
8.15394687652588

$$$$
47
                    3D
 Structure written by MMmdl.
162170  0  0  1  0            999 V2000
  -30.7439  -14.5439   20.5459 C   0  0  0  0  0  0
  -30.4162  -12.3493   19.4578 C   0  0  0  0  0  0
  -29.4969  -12.4865   18.2277 C   0  0  0  0  0  0
  -28.0215  -12.3324   18.6411 C   0  0  0  0  0  0
  -27.6464  -13.2222   19.8538 C   0  0  2  0  0  0
  -28.6918  -13.1086   20.9892 C   0  0  0  0  0  0
  -25.2484  -13.8163   20.5690 C   0  0  0  0  0  0
  -24.1769  -13.0430   20.9239 C   0  0  0  0  0  0
  -24.6341  -11.6915   20.8769 C   0  0  0  0  0  0
  -23.9019  -10.4283   21.0413 C   0  0  0  0  0  0
  -24.3568   -9.4206   21.9194 C   0  0  0  0  0  0
  -23.6274   -8.2225   22.0731 C   0  0  0  0  0  0
  -22.4257   -8.0250   21.3522 C   0  0  0  0  0  0
  -21.9879   -9.0225   20.4627 C   0  0  0  0  0  0
  -22.7191  -10.2123   20.3062 C   0  0  0  0  0  0
  -21.6846   -6.0710   22.5297 C   0  0  0  0  0  0
  -21.3989   -6.5615   23.8234 C   0  0  0  0  0  0
  -21.3660   -5.6769   24.9202 C   0  0  0  0  0  0
  -21.6052   -4.3037   24.7263 C   0  0  0  0  0  0
  -21.8806   -3.8122   23.4378 C   0  0  0  0  0  0
  -21.9185   -4.6931   22.3434 C   0  0  0  0  0  0
  -22.7794  -13.5240   21.1881 C   0  0  0  0  0  0
  -22.1664   -4.2113   21.1014 F   0  0  0  0  0  0
  -21.5646   -3.4522   25.7773 F   0  0  0  0  0  0
  -30.0229  -13.3897   20.4258 N   0  0  0  0  0  0
  -26.2934  -12.9381   20.3315 N   0  0  0  0  0  0
  -25.9271  -11.6529   20.5764 N   0  0  0  0  0  0
  -22.0430  -12.8264   22.0439 N   0  0  0  0  0  0
  -25.4089  -15.1872   20.4053 N   0  0  0  0  0  0
  -31.8890  -14.6367   20.1005 O   0  0  0  0  0  0
  -21.6629   -6.8853   21.4258 O   0  0  0  0  0  0
  -22.3495  -14.5535   20.6685 O   0  0  0  0  0  0
  -24.6165  -31.8648   23.2073 C   0  0  0  0  0  0
  -25.9070  -32.4805   23.8352 C   0  0  1  0  0  0
  -27.2417  -27.4190   20.1078 C   0  0  0  0  0  0
  -25.5938  -33.8608   24.2295 N   0  0  0  0  0  0
  -23.4063  -30.4853   21.5480 C   0  0  2  0  0  0
  -24.8570  -28.9438   20.1179 C   0  0  0  0  0  0
  -22.7409  -29.4650   22.4999 C   0  0  0  0  0  0
  -18.0292  -28.1352   22.8459 C   0  0  0  0  0  0
  -24.1496  -36.7299   23.2628 C   0  0  0  0  0  0
  -25.9357  -30.8271   21.3615 C   0  0  0  0  0  0
  -26.0166  -29.4587   20.7116 C   0  0  0  0  0  0
  -27.2150  -28.7054   20.6995 C   0  0  0  0  0  0
  -26.0685  -26.9194   19.5077 C   0  0  0  0  0  0
  -24.8780  -27.6726   19.5142 C   0  0  0  0  0  0
  -23.6157  -29.8099   20.1666 C   0  0  0  0  0  0
  -25.4122  -36.3097   24.0319 C   0  0  1  0  0  0
  -20.5874  -28.3666   23.1321 C   0  0  2  0  0  0
  -20.6818  -26.9411   22.5417 C   0  0  0  0  0  0
  -19.5833  -26.6417   21.5166 C   0  0  0  0  0  0
  -18.1998  -26.7902   22.1562 C   0  0  0  0  0  0
  -19.1529  -28.8823   23.2879 C   0  0  0  0  0  0
  -18.9436  -30.1413   23.8908 C   0  0  0  0  0  0
  -17.6443  -30.6546   24.0547 C   0  0  0  0  0  0
  -25.9051  -34.9469   23.5101 C   0  0  0  0  0  0
  -16.5333  -29.9048   23.6299 C   0  0  0  0  0  0
  -16.7277  -28.6460   23.0323 C   0  0  0  0  0  0
  -26.4502  -31.6605   25.0692 C   0  0  0  0  0  0
  -25.3765  -31.3763   26.1441 C   0  0  0  0  0  0
  -27.0336  -30.3037   24.6114 C   0  0  0  0  0  0
  -27.6074  -32.4322   25.7463 C   0  0  0  0  0  0
  -27.5591  -37.1802   24.8462 C   0  0  0  0  0  0
  -21.4131  -29.3047   22.3735 N   0  0  0  0  0  0
  -26.4309  -37.3782   23.9398 N   0  0  0  0  0  0
  -24.6708  -31.0731   22.0973 N   0  0  0  0  0  0
  -23.4174  -28.8189   23.3038 O   0  0  0  0  0  0
  -28.3866  -26.6465   20.0940 O   0  0  0  0  0  0
  -26.5590  -34.8923   22.4655 O   0  0  0  0  0  0
  -23.5368  -32.1405   23.7480 O   0  0  0  0  0  0
  -27.9949  -19.6838   20.5311 C   0  0  0  0  0  0
  -30.4934  -19.4456   21.7222 C   0  0  0  0  0  0
  -28.5009  -20.8011   21.2404 C   0  0  0  0  0  0
  -28.7043  -18.4602   20.4254 C   0  0  0  0  0  0
  -29.8057  -20.6902   21.7957 C   0  0  0  0  0  0
  -29.9468  -18.2984   21.0902 C   0  0  0  0  0  0
  -27.5367  -21.8896   21.5662 C   0  0  0  0  0  0
  -28.0996  -17.3496   19.5915 C   0  0  0  0  0  0
  -30.4793  -21.8515   22.5166 C   0  0  0  0  0  0
  -30.7823  -16.9880   21.0935 C   0  0  0  0  0  0
  -28.4412  -24.1115   20.4826 C   0  0  0  0  0  0
  -28.4115  -25.5698   21.0549 C   0  0  0  0  0  0
  -26.4736  -21.4972   22.2629 N   0  0  0  0  0  0
  -30.1286  -15.6467   21.0389 N   0  0  0  0  0  0
  -27.5676  -23.2158   21.2826 N   0  3  0  0  0  0
  -31.4625  -12.4229   19.1564 H   0  0  0  0  0  0
  -30.3178  -11.3647   19.9171 H   0  0  0  0  0  0
  -29.7565  -11.7348   17.4824 H   0  0  0  0  0  0
  -29.6469  -13.4585   17.7564 H   0  0  0  0  0  0
  -27.8623  -11.2827   18.8938 H   0  0  0  0  0  0
  -27.3645  -12.5415   17.7965 H   0  0  0  0  0  0
  -27.6534  -14.2490   19.4909 H   0  0  0  0  0  0
  -28.6800  -12.1054   21.4164 H   0  0  0  0  0  0
  -28.4445  -13.7892   21.8048 H   0  0  0  0  0  0
  -25.2667   -9.5707   22.4818 H   0  0  0  0  0  0
  -24.0001   -7.4613   22.7418 H   0  0  0  0  0  0
  -21.0828   -8.8732   19.8922 H   0  0  0  0  0  0
  -22.3624  -10.9683   19.6202 H   0  0  0  0  0  0
  -21.1947   -7.6106   23.9740 H   0  0  0  0  0  0
  -21.1515   -6.0497   25.9112 H   0  0  0  0  0  0
  -22.0574   -2.7578   23.2924 H   0  0  0  0  0  0
  -22.4017  -11.9935   22.4858 H   0  0  0  0  0  0
  -21.1017  -13.1292   22.2577 H   0  0  0  0  0  0
  -24.6300  -15.8301   20.4943 H   0  0  0  0  0  0
  -26.2407  -15.6248   20.0339 H   0  0  0  0  0  0
  -26.7140  -32.5517   23.1105 H   0  0  0  0  0  0
  -25.0155  -33.9762   25.0487 H   0  0  0  0  0  0
  -22.6952  -31.3013   21.4043 H   0  0  0  0  0  0
  -23.3744  -35.9648   23.3301 H   0  0  0  0  0  0
  -24.3590  -36.8902   22.2043 H   0  0  0  0  0  0
  -23.7261  -37.6509   23.6637 H   0  0  0  0  0  0
  -26.0504  -31.5961   20.5956 H   0  0  0  0  0  0
  -26.8213  -30.8794   21.9848 H   0  0  0  0  0  0
  -28.1123  -29.1022   21.1529 H   0  0  0  0  0  0
  -26.0774  -25.9460   19.0388 H   0  0  0  0  0  0
  -23.9875  -27.2698   19.0521 H   0  0  0  0  0  0
  -23.7230  -30.5776   19.4008 H   0  0  0  0  0  0
  -22.7404  -29.2275   19.8728 H   0  0  0  0  0  0
  -25.1301  -36.1958   25.0808 H   0  0  0  0  0  0
  -20.9963  -28.3262   24.1441 H   0  0  0  0  0  0
  -20.5718  -26.2264   23.3595 H   0  0  0  0  0  0
  -21.6712  -26.7499   22.1244 H   0  0  0  0  0  0
  -19.7020  -25.6371   21.1112 H   0  0  0  0  0  0
  -19.6764  -27.3279   20.6736 H   0  0  0  0  0  0
  -17.4291  -26.6646   21.3945 H   0  0  0  0  0  0
  -18.0450  -26.0012   22.8941 H   0  0  0  0  0  0
  -19.7902  -30.7215   24.2313 H   0  0  0  0  0  0
  -17.5001  -31.6230   24.5133 H   0  0  0  0  0  0
  -15.5347  -30.2948   23.7611 H   0  0  0  0  0  0
  -15.8672  -28.0779   22.7026 H   0  0  0  0  0  0
  -24.5906  -30.7144   25.7789 H   0  0  0  0  0  0
  -24.8999  -32.2953   26.4868 H   0  0  0  0  0  0
  -25.8106  -30.8941   27.0203 H   0  0  0  0  0  0
  -26.2896  -29.6766   24.1193 H   0  0  0  0  0  0
  -27.4099  -29.7323   25.4605 H   0  0  0  0  0  0
  -27.8723  -30.4303   23.9264 H   0  0  0  0  0  0
  -27.2677  -33.3583   26.2099 H   0  0  0  0  0  0
  -28.3862  -32.6943   25.0291 H   0  0  0  0  0  0
  -28.0762  -31.8411   26.5335 H   0  0  0  0  0  0
  -28.2618  -38.0088   24.7497 H   0  0  0  0  0  0
  -28.1068  -36.2621   24.6298 H   0  0  0  0  0  0
  -27.2297  -37.1463   25.8859 H   0  0  0  0  0  0
  -20.9302  -29.8788   21.6969 H   0  0  0  0  0  0
  -26.0188  -38.2854   24.1392 H   0  0  0  0  0  0
  -27.0132  -19.7572   20.0837 H   0  0  0  0  0  0
  -31.4674  -19.3630   22.1858 H   0  0  0  0  0  0
  -27.2799  -17.7149   18.9737 H   0  0  0  0  0  0
  -27.7200  -16.5673   20.2436 H   0  0  0  0  0  0
  -28.8462  -16.9184   18.9238 H   0  0  0  0  0  0
  -31.2904  -21.5070   23.1617 H   0  0  0  0  0  0
  -29.7855  -22.4131   23.1416 H   0  0  0  0  0  0
  -30.9141  -22.5370   21.7904 H   0  0  0  0  0  0
  -31.4114  -16.9926   21.9865 H   0  0  0  0  0  0
  -31.4666  -17.0910   20.2500 H   0  0  0  0  0  0
  -29.4615  -23.7342   20.4376 H   0  0  0  0  0  0
  -28.0674  -24.1223   19.4589 H   0  0  0  0  0  0
  -29.3114  -25.7131   21.6522 H   0  0  0  0  0  0
  -27.5906  -25.6833   21.7666 H   0  0  0  0  0  0
  -26.4284  -20.5258   22.5357 H   0  0  0  0  0  0
  -25.7380  -22.1047   22.5819 H   0  0  0  0  0  0
  -29.1891  -15.5583   21.3930 H   0  0  0  0  0  0
  -26.7739  -23.7345   21.6285 H   0  0  0  0  0  0
  1 25  1  0  0  0
  1 30  2  0  0  0
  1 84  1  0  0  0
  2  3  1  0  0  0
  2 25  1  0  0  0
  2 86  1  0  0  0
  2 87  1  0  0  0
  3  4  1  0  0  0
  3 88  1  0  0  0
  3 89  1  0  0  0
  4  5  1  0  0  0
  4 90  1  0  0  0
  4 91  1  0  0  0
  5  6  1  0  0  0
  5 26  1  0  0  0
  5 92  1  0  0  0
  6 25  1  0  0  0
  6 93  1  0  0  0
  6 94  1  0  0  0
  7  8  2  0  0  0
  7 26  1  0  0  0
  7 29  1  0  0  0
  8  9  1  0  0  0
  8 22  1  0  0  0
  9 10  1  0  0  0
  9 27  2  0  0  0
 10 11  2  0  0  0
 10 15  1  0  0  0
 11 12  1  0  0  0
 11 95  1  0  0  0
 12 13  2  0  0  0
 12 96  1  0  0  0
 13 14  1  0  0  0
 13 31  1  0  0  0
 14 15  2  0  0  0
 14 97  1  0  0  0
 15 98  1  0  0  0
 16 17  2  0  0  0
 16 21  1  0  0  0
 16 31  1  0  0  0
 17 18  1  0  0  0
 17 99  1  0  0  0
 18 19  2  0  0  0
 18100  1  0  0  0
 19 20  1  0  0  0
 19 24  1  0  0  0
 20 21  2  0  0  0
 20101  1  0  0  0
 21 23  1  0  0  0
 22 28  1  0  0  0
 22 32  2  0  0  0
 26 27  1  0  0  0
 28102  1  0  0  0
 28103  1  0  0  0
 29104  1  0  0  0
 29105  1  0  0  0
 33 34  1  0  0  0
 33 66  1  0  0  0
 33 70  2  0  0  0
 34 36  1  0  0  0
 34 59  1  0  0  0
 34106  1  0  0  0
 35 44  2  0  0  0
 35 45  1  0  0  0
 35 68  1  0  0  0
 36 56  1  0  0  0
 36107  1  0  0  0
 37 39  1  0  0  0
 37 47  1  0  0  0
 37 66  1  0  0  0
 37108  1  0  0  0
 38 43  2  0  0  0
 38 46  1  0  0  0
 38 47  1  0  0  0
 39 64  1  0  0  0
 39 67  2  0  0  0
 40 52  1  0  0  0
 40 53  2  0  0  0
 40 58  1  0  0  0
 41109  1  0  0  0
 41110  1  0  0  0
 41111  1  0  0  0
 41 48  1  0  0  0
 42 43  1  0  0  0
 42 66  1  0  0  0
 42112  1  0  0  0
 42113  1  0  0  0
 43 44  1  0  0  0
 44114  1  0  0  0
 45 46  2  0  0  0
 45115  1  0  0  0
 46116  1  0  0  0
 47117  1  0  0  0
 47118  1  0  0  0
 48 56  1  0  0  0
 48 65  1  0  0  0
 48119  1  0  0  0
 49 50  1  0  0  0
 49 53  1  0  0  0
 49 64  1  0  0  0
 49120  1  0  0  0
 50 51  1  0  0  0
 50121  1  0  0  0
 50122  1  0  0  0
 51 52  1  0  0  0
 51123  1  0  0  0
 51124  1  0  0  0
 52125  1  0  0  0
 52126  1  0  0  0
 53 54  1  0  0  0
 54 55  2  0  0  0
 54127  1  0  0  0
 55 57  1  0  0  0
 55128  1  0  0  0
 56 69  2  0  0  0
 57 58  2  0  0  0
 57129  1  0  0  0
 58130  1  0  0  0
 59 60  1  0  0  0
 59 61  1  0  0  0
 59 62  1  0  0  0
 60131  1  0  0  0
 60132  1  0  0  0
 60133  1  0  0  0
 61134  1  0  0  0
 61135  1  0  0  0
 61136  1  0  0  0
 62137  1  0  0  0
 62138  1  0  0  0
 62139  1  0  0  0
 63 65  1  0  0  0
 63140  1  0  0  0
 63141  1  0  0  0
 63142  1  0  0  0
 64143  1  0  0  0
 65144  1  0  0  0
 68 82  1  0  0  0
 71 73  2  0  0  0
 71 74  1  0  0  0
 71145  1  0  0  0
 72 75  2  0  0  0
 72 76  1  0  0  0
 72146  1  0  0  0
 73 75  1  0  0  0
 73 77  1  0  0  0
 74 76  2  0  0  0
 74 78  1  0  0  0
 75 79  1  0  0  0
 76 80  1  0  0  0
 77 83  1  0  0  0
 77 85  2  0  0  0
 78147  1  0  0  0
 78148  1  0  0  0
 78149  1  0  0  0
 79150  1  0  0  0
 79151  1  0  0  0
 79152  1  0  0  0
 80 84  1  0  0  0
 80153  1  0  0  0
 80154  1  0  0  0
 81 82  1  0  0  0
 81 85  1  0  0  0
 81155  1  0  0  0
 81156  1  0  0  0
 82157  1  0  0  0
 82158  1  0  0  0
 83159  1  0  0  0
 83160  1  0  0  0
 84161  1  0  0  0
 85162  1  0  0  0
M  CHG  1  85   1
M  ISO  4   1 100  68 101  82 101  84 100
M  END
> <chiral flag>
0

> <version>
0

> <s_m_source_file>
/data/baiqing/PycharmProjects/Reinvent-master-3.2/result/LINK_invent/BTK/process_docking_weight1_custom_product_contain_oxygen_bond_distance_aromatic_linkinvent_7_9_3/rearranged_h_0040.sdf

> <i_m_source_file_index>
48

> <r_mmod_Potential_Energy-OPLS-2005>
-200.299453735352

> <r_mmod_Stretch_Energy-OPLS-2005>
48.6886672973633

> <r_mmod_Bend_Energy-OPLS-2005>
139.363922119141

> <r_mmod_Torsional_Energy-OPLS-2005>
243.094085693359

> <r_mmod_Improper_Torsional_Energy-OPLS-2005>
4.97010850906372

> <r_mmod_Van_der_Waal_Energy-OPLS-2005>
144.503890991211

> <r_mmod_Electrostatic_Energy-OPLS-2005>
-401.126098632812

> <r_mmod_Solvation_Energy-OPLS-2005>
-403.865264892578

> <b_mmod_Minimization_Converged-OPLS-2005>
0

> <r_mmod_RMS_Derivative-OPLS-2005>
3.51647615432739

$$$$
48
                    3D
 Structure written by MMmdl.
162170  0  0  1  0            999 V2000
  -30.6276  -14.6235   20.4979 C   0  0  0  0  0  0
  -30.4381  -12.3805   19.4496 C   0  0  0  0  0  0
  -29.5075  -12.5081   18.2227 C   0  0  0  0  0  0
  -28.0300  -12.3482   18.6345 C   0  0  0  0  0  0
  -27.6561  -13.2152   19.8664 C   0  0  2  0  0  0
  -28.7014  -13.0600   20.9950 C   0  0  0  0  0  0
  -25.2573  -13.8168   20.5684 C   0  0  0  0  0  0
  -24.1833  -13.0436   20.9177 C   0  0  0  0  0  0
  -24.6398  -11.6905   20.8735 C   0  0  0  0  0  0
  -23.9065  -10.4290   21.0400 C   0  0  0  0  0  0
  -24.3615   -9.4207   21.9180 C   0  0  0  0  0  0
  -23.6288   -8.2244   22.0755 C   0  0  0  0  0  0
  -22.4272   -8.0280   21.3544 C   0  0  0  0  0  0
  -21.9907   -9.0253   20.4648 C   0  0  0  0  0  0
  -22.7236  -10.2131   20.3051 C   0  0  0  0  0  0
  -21.6851   -6.0732   22.5277 C   0  0  0  0  0  0
  -21.4014   -6.5639   23.8210 C   0  0  0  0  0  0
  -21.3660   -5.6793   24.9175 C   0  0  0  0  0  0
  -21.6042   -4.3055   24.7225 C   0  0  0  0  0  0
  -21.8821   -3.8145   23.4347 C   0  0  0  0  0  0
  -21.9194   -4.6960   22.3402 C   0  0  0  0  0  0
  -22.7856  -13.5232   21.1841 C   0  0  0  0  0  0
  -22.1661   -4.2147   21.0978 F   0  0  0  0  0  0
  -21.5630   -3.4537   25.7737 F   0  0  0  0  0  0
  -30.0193  -13.3976   20.4332 N   0  0  0  0  0  0
  -26.3006  -12.9347   20.3335 N   0  0  0  0  0  0
  -25.9330  -11.6503   20.5764 N   0  0  0  0  0  0
  -22.0500  -12.8226   22.0400 N   0  0  0  0  0  0
  -25.4284  -15.1889   20.4103 N   0  0  0  0  0  0
  -31.7867  -14.7894   20.1065 O   0  0  0  0  0  0
  -21.6640   -6.8874   21.4239 O   0  0  0  0  0  0
  -22.3540  -14.5539   20.6692 O   0  0  0  0  0  0
  -24.6259  -31.8606   23.2044 C   0  0  0  0  0  0
  -25.9113  -32.4782   23.8359 C   0  0  1  0  0  0
  -27.2250  -27.3293   20.1083 C   0  0  0  0  0  0
  -25.5937  -33.8582   24.2292 N   0  0  0  0  0  0
  -23.4187  -30.4860   21.5469 C   0  0  2  0  0  0
  -24.8633  -28.9446   20.1118 C   0  0  0  0  0  0
  -22.7476  -29.4633   22.4944 C   0  0  0  0  0  0
  -18.0291  -28.1385   22.8492 C   0  0  0  0  0  0
  -24.1489  -36.7284   23.2639 C   0  0  0  0  0  0
  -25.9601  -30.7942   21.3744 C   0  0  0  0  0  0
  -26.0334  -29.4237   20.7147 C   0  0  0  0  0  0
  -27.2165  -28.6281   20.7035 C   0  0  0  0  0  0
  -26.0273  -26.9016   19.4859 C   0  0  0  0  0  0
  -24.8621  -27.6877   19.4907 C   0  0  0  0  0  0
  -23.6316  -29.8238   20.1612 C   0  0  0  0  0  0
  -25.4115  -36.3085   24.0335 C   0  0  1  0  0  0
  -20.5893  -28.3687   23.1288 C   0  0  2  0  0  0
  -20.6789  -26.9410   22.5413 C   0  0  0  0  0  0
  -19.5762  -26.6384   21.5220 C   0  0  0  0  0  0
  -18.1939  -26.7931   22.1622 C   0  0  0  0  0  0
  -19.1543  -28.8853   23.2886 C   0  0  0  0  0  0
  -18.9466  -30.1457   23.8896 C   0  0  0  0  0  0
  -17.6466  -30.6588   24.0567 C   0  0  0  0  0  0
  -25.9049  -34.9454   23.5111 C   0  0  0  0  0  0
  -16.5357  -29.9088   23.6335 C   0  0  0  0  0  0
  -16.7277  -28.6506   23.0354 C   0  0  0  0  0  0
  -26.4503  -31.6589   25.0723 C   0  0  0  0  0  0
  -25.3740  -31.3726   26.1448 C   0  0  0  0  0  0
  -27.0350  -30.3020   24.6162 C   0  0  0  0  0  0
  -27.6062  -32.4321   25.7494 C   0  0  0  0  0  0
  -27.5581  -37.1796   24.8468 C   0  0  0  0  0  0
  -21.4191  -29.3040   22.3678 N   0  0  0  0  0  0
  -26.4293  -37.3782   23.9414 N   0  0  0  0  0  0
  -24.6874  -31.0631   22.0986 N   0  0  0  0  0  0
  -23.4208  -28.8168   23.3013 O   0  0  0  0  0  0
  -28.3511  -26.4911   20.1501 O   0  0  0  0  0  0
  -26.5607  -34.8925   22.4670 O   0  0  0  0  0  0
  -23.5427  -32.1396   23.7378 O   0  0  0  0  0  0
  -30.0986  -19.1977   19.3966 C   0  0  0  0  0  0
  -29.9564  -20.0442   20.5270 C   0  0  0  0  0  0
  -30.0830  -17.7735   19.4849 C   0  0  0  0  0  0
  -29.7711  -19.3892   21.7814 C   0  0  0  0  0  0
  -29.7868  -17.9542   21.8860 C   0  0  0  0  0  0
  -29.9569  -17.1151   20.7425 C   0  0  0  0  0  0
  -30.1812  -16.9744   18.1953 C   0  0  0  0  0  0
  -29.5820  -20.2305   23.0416 C   0  0  0  0  0  0
  -29.6262  -17.2995   23.2575 C   0  0  0  0  0  0
  -30.1842  -21.6010   20.3877 C   0  0  0  0  0  0
  -29.3296  -24.0358   20.3114 C   0  0  0  0  0  0
  -28.1347  -25.0334   20.0066 C   0  0  0  0  0  0
  -29.8237  -15.6637   20.8748 N   0  0  0  0  0  0
  -29.0124  -22.5440   20.2411 N   0  3  0  0  0  0
  -31.4804  -12.5013   19.1488 H   0  0  0  0  0  0
  -30.3667  -11.3827   19.8853 H   0  0  0  0  0  0
  -29.7687  -11.7611   17.4722 H   0  0  0  0  0  0
  -29.6528  -13.4806   17.7494 H   0  0  0  0  0  0
  -27.8638  -11.2943   18.8613 H   0  0  0  0  0  0
  -27.3757  -12.5832   17.7944 H   0  0  0  0  0  0
  -27.6776  -14.2525   19.5311 H   0  0  0  0  0  0
  -28.7081  -12.0367   21.3730 H   0  0  0  0  0  0
  -28.4497  -13.6887   21.8503 H   0  0  0  0  0  0
  -25.2762   -9.5685   22.4752 H   0  0  0  0  0  0
  -23.9999   -7.4637   22.7477 H   0  0  0  0  0  0
  -21.0837   -8.8767   19.8954 H   0  0  0  0  0  0
  -22.3691  -10.9667   19.6159 H   0  0  0  0  0  0
  -21.2004   -7.6146   23.9712 H   0  0  0  0  0  0
  -21.1480   -6.0522   25.9076 H   0  0  0  0  0  0
  -22.0598   -2.7605   23.2846 H   0  0  0  0  0  0
  -22.4114  -11.9884   22.4782 H   0  0  0  0  0  0
  -21.1120  -13.1254   22.2614 H   0  0  0  0  0  0
  -24.6601  -15.8424   20.5173 H   0  0  0  0  0  0
  -26.2814  -15.6313   20.0918 H   0  0  0  0  0  0
  -26.7174  -32.5452   23.1101 H   0  0  0  0  0  0
  -25.0127  -33.9732   25.0465 H   0  0  0  0  0  0
  -22.7126  -31.3069   21.4066 H   0  0  0  0  0  0
  -23.3762  -35.9603   23.3302 H   0  0  0  0  0  0
  -24.3583  -36.8897   22.2052 H   0  0  0  0  0  0
  -23.7228  -37.6483   23.6652 H   0  0  0  0  0  0
  -26.0944  -31.5608   20.6099 H   0  0  0  0  0  0
  -26.8403  -30.8383   22.0044 H   0  0  0  0  0  0
  -28.1136  -28.9933   21.1834 H   0  0  0  0  0  0
  -25.9536  -25.9459   18.9902 H   0  0  0  0  0  0
  -23.9654  -27.3148   19.0145 H   0  0  0  0  0  0
  -23.7494  -30.6018   19.4057 H   0  0  0  0  0  0
  -22.7517  -29.2525   19.8591 H   0  0  0  0  0  0
  -25.1297  -36.1935   25.0827 H   0  0  0  0  0  0
  -20.9985  -28.3254   24.1408 H   0  0  0  0  0  0
  -20.5714  -26.2289   23.3608 H   0  0  0  0  0  0
  -21.6655  -26.7456   22.1187 H   0  0  0  0  0  0
  -19.6930  -25.6299   21.1241 H   0  0  0  0  0  0
  -19.6708  -27.3204   20.6759 H   0  0  0  0  0  0
  -17.4218  -26.6689   21.4012 H   0  0  0  0  0  0
  -18.0325  -26.0077   22.9014 H   0  0  0  0  0  0
  -19.7944  -30.7281   24.2253 H   0  0  0  0  0  0
  -17.5023  -31.6270   24.5166 H   0  0  0  0  0  0
  -15.5357  -30.2990   23.7672 H   0  0  0  0  0  0
  -15.8675  -28.0830   22.7063 H   0  0  0  0  0  0
  -24.5919  -30.7070   25.7779 H   0  0  0  0  0  0
  -24.8929  -32.2896   26.4859 H   0  0  0  0  0  0
  -25.8068  -30.8916   27.0227 H   0  0  0  0  0  0
  -26.2922  -29.6763   24.1203 H   0  0  0  0  0  0
  -27.4092  -29.7277   25.4645 H   0  0  0  0  0  0
  -27.8770  -30.4331   23.9364 H   0  0  0  0  0  0
  -27.2676  -33.3629   26.2058 H   0  0  0  0  0  0
  -28.3882  -32.6862   25.0325 H   0  0  0  0  0  0
  -28.0717  -31.8450   26.5421 H   0  0  0  0  0  0
  -28.2592  -38.0098   24.7528 H   0  0  0  0  0  0
  -28.1084  -36.2632   24.6280 H   0  0  0  0  0  0
  -27.2300  -37.1422   25.8870 H   0  0  0  0  0  0
  -20.9366  -29.8747   21.6878 H   0  0  0  0  0  0
  -26.0175  -38.2854   24.1427 H   0  0  0  0  0  0
  -30.2455  -19.6549   18.4276 H   0  0  0  0  0  0
  -30.0205  -17.6042   17.3201 H   0  0  0  0  0  0
  -29.4315  -16.1833   18.1685 H   0  0  0  0  0  0
  -31.1677  -16.5213   18.1011 H   0  0  0  0  0  0
  -29.2230  -21.2359   22.8303 H   0  0  0  0  0  0
  -30.5230  -20.3167   23.5860 H   0  0  0  0  0  0
  -28.8403  -19.7888   23.7075 H   0  0  0  0  0  0
  -30.1263  -17.8705   24.0388 H   0  0  0  0  0  0
  -30.0652  -16.3037   23.3029 H   0  0  0  0  0  0
  -28.5704  -17.2159   23.5144 H   0  0  0  0  0  0
  -30.8351  -21.7616   19.5272 H   0  0  0  0  0  0
  -30.7817  -21.9287   21.2388 H   0  0  0  0  0  0
  -29.7203  -24.2542   21.3058 H   0  0  0  0  0  0
  -30.1399  -24.2496   19.6135 H   0  0  0  0  0  0
  -27.3022  -24.7537   20.6546 H   0  0  0  0  0  0
  -27.8147  -24.8375   18.9830 H   0  0  0  0  0  0
  -28.9585  -15.3607   21.2942 H   0  0  0  0  0  0
  -28.3388  -22.3189   20.9549 H   0  0  0  0  0  0
  -28.5799  -22.3382   19.3541 H   0  0  0  0  0  0
  1 25  1  0  0  0
  1 30  2  0  0  0
  1 83  1  0  0  0
  2  3  1  0  0  0
  2 25  1  0  0  0
  2 85  1  0  0  0
  2 86  1  0  0  0
  3  4  1  0  0  0
  3 87  1  0  0  0
  3 88  1  0  0  0
  4  5  1  0  0  0
  4 89  1  0  0  0
  4 90  1  0  0  0
  5  6  1  0  0  0
  5 26  1  0  0  0
  5 91  1  0  0  0
  6 25  1  0  0  0
  6 92  1  0  0  0
  6 93  1  0  0  0
  7  8  2  0  0  0
  7 26  1  0  0  0
  7 29  1  0  0  0
  8  9  1  0  0  0
  8 22  1  0  0  0
  9 10  1  0  0  0
  9 27  2  0  0  0
 10 11  2  0  0  0
 10 15  1  0  0  0
 11 12  1  0  0  0
 11 94  1  0  0  0
 12 13  2  0  0  0
 12 95  1  0  0  0
 13 14  1  0  0  0
 13 31  1  0  0  0
 14 15  2  0  0  0
 14 96  1  0  0  0
 15 97  1  0  0  0
 16 17  2  0  0  0
 16 21  1  0  0  0
 16 31  1  0  0  0
 17 18  1  0  0  0
 17 98  1  0  0  0
 18 19  2  0  0  0
 18 99  1  0  0  0
 19 20  1  0  0  0
 19 24  1  0  0  0
 20 21  2  0  0  0
 20100  1  0  0  0
 21 23  1  0  0  0
 22 28  1  0  0  0
 22 32  2  0  0  0
 26 27  1  0  0  0
 28101  1  0  0  0
 28102  1  0  0  0
 29103  1  0  0  0
 29104  1  0  0  0
 33 34  1  0  0  0
 33 66  1  0  0  0
 33 70  2  0  0  0
 34 36  1  0  0  0
 34 59  1  0  0  0
 34105  1  0  0  0
 35 44  2  0  0  0
 35 45  1  0  0  0
 35 68  1  0  0  0
 36 56  1  0  0  0
 36106  1  0  0  0
 37 39  1  0  0  0
 37 47  1  0  0  0
 37 66  1  0  0  0
 37107  1  0  0  0
 38 43  2  0  0  0
 38 46  1  0  0  0
 38 47  1  0  0  0
 39 64  1  0  0  0
 39 67  2  0  0  0
 40 52  1  0  0  0
 40 53  2  0  0  0
 40 58  1  0  0  0
 41108  1  0  0  0
 41109  1  0  0  0
 41110  1  0  0  0
 41 48  1  0  0  0
 42 43  1  0  0  0
 42 66  1  0  0  0
 42111  1  0  0  0
 42112  1  0  0  0
 43 44  1  0  0  0
 44113  1  0  0  0
 45 46  2  0  0  0
 45114  1  0  0  0
 46115  1  0  0  0
 47116  1  0  0  0
 47117  1  0  0  0
 48 56  1  0  0  0
 48 65  1  0  0  0
 48118  1  0  0  0
 49 50  1  0  0  0
 49 53  1  0  0  0
 49 64  1  0  0  0
 49119  1  0  0  0
 50 51  1  0  0  0
 50120  1  0  0  0
 50121  1  0  0  0
 51 52  1  0  0  0
 51122  1  0  0  0
 51123  1  0  0  0
 52124  1  0  0  0
 52125  1  0  0  0
 53 54  1  0  0  0
 54 55  2  0  0  0
 54126  1  0  0  0
 55 57  1  0  0  0
 55127  1  0  0  0
 56 69  2  0  0  0
 57 58  2  0  0  0
 57128  1  0  0  0
 58129  1  0  0  0
 59 60  1  0  0  0
 59 61  1  0  0  0
 59 62  1  0  0  0
 60130  1  0  0  0
 60131  1  0  0  0
 60132  1  0  0  0
 61133  1  0  0  0
 61134  1  0  0  0
 61135  1  0  0  0
 62136  1  0  0  0
 62137  1  0  0  0
 62138  1  0  0  0
 63 65  1  0  0  0
 63139  1  0  0  0
 63140  1  0  0  0
 63141  1  0  0  0
 64142  1  0  0  0
 65143  1  0  0  0
 68 82  1  0  0  0
 71 72  2  0  0  0
 71 73  1  0  0  0
 71144  1  0  0  0
 72 74  1  0  0  0
 72 80  1  0  0  0
 73 76  2  0  0  0
 73 77  1  0  0  0
 74 75  2  0  0  0
 74 78  1  0  0  0
 75 76  1  0  0  0
 75 79  1  0  0  0
 76 83  1  0  0  0
 77145  1  0  0  0
 77146  1  0  0  0
 77147  1  0  0  0
 78148  1  0  0  0
 78149  1  0  0  0
 78150  1  0  0  0
 79151  1  0  0  0
 79152  1  0  0  0
 79153  1  0  0  0
 80 84  1  0  0  0
 80154  1  0  0  0
 80155  1  0  0  0
 81 82  1  0  0  0
 81 84  1  0  0  0
 81156  1  0  0  0
 81157  1  0  0  0
 82158  1  0  0  0
 82159  1  0  0  0
 83160  1  0  0  0
 84161  1  0  0  0
 84162  1  0  0  0
M  CHG  1  84   1
M  ISO  4   1 100  68 101  82 101  83 100
M  END
> <chiral flag>
0

> <version>
0

> <s_m_source_file>
/data/baiqing/PycharmProjects/Reinvent-master-3.2/result/LINK_invent/BTK/process_docking_weight1_custom_product_contain_oxygen_bond_distance_aromatic_linkinvent_7_9_3/rearranged_h_0040.sdf

> <i_m_source_file_index>
49

> <r_mmod_Potential_Energy-OPLS-2005>
-151.395797729492

> <r_mmod_Stretch_Energy-OPLS-2005>
79.0251693725586

> <r_mmod_Bend_Energy-OPLS-2005>
128.603973388672

> <r_mmod_Torsional_Energy-OPLS-2005>
224.385925292969

> <r_mmod_Improper_Torsional_Energy-OPLS-2005>
4.85715961456299

> <r_mmod_Van_der_Waal_Energy-OPLS-2005>
151.305740356445

> <r_mmod_Electrostatic_Energy-OPLS-2005>
-326.134094238281

> <r_mmod_Solvation_Energy-OPLS-2005>
-456.768768310547

> <b_mmod_Minimization_Converged-OPLS-2005>
0

> <r_mmod_RMS_Derivative-OPLS-2005>
0.787300705909729

$$$$
49
                    3D
 Structure written by MMmdl.
154162  0  0  1  0            999 V2000
  -30.7179  -14.4792   20.5717 C   0  0  0  0  0  0
  -30.4187  -12.3138   19.4258 C   0  0  0  0  0  0
  -29.4921  -12.4972   18.2075 C   0  0  0  0  0  0
  -28.0150  -12.3571   18.6231 C   0  0  0  0  0  0
  -27.6585  -13.2098   19.8703 C   0  0  2  0  0  0
  -28.7012  -13.0175   20.9944 C   0  0  0  0  0  0
  -25.2582  -13.8168   20.5683 C   0  0  0  0  0  0
  -24.1838  -13.0445   20.9184 C   0  0  0  0  0  0
  -24.6394  -11.6911   20.8744 C   0  0  0  0  0  0
  -23.9062  -10.4295   21.0411 C   0  0  0  0  0  0
  -24.3613   -9.4209   21.9188 C   0  0  0  0  0  0
  -23.6290   -8.2245   22.0757 C   0  0  0  0  0  0
  -22.4273   -8.0283   21.3545 C   0  0  0  0  0  0
  -21.9908   -9.0257   20.4647 C   0  0  0  0  0  0
  -22.7236  -10.2137   20.3058 C   0  0  0  0  0  0
  -21.6854   -6.0738   22.5279 C   0  0  0  0  0  0
  -21.4012   -6.5641   23.8212 C   0  0  0  0  0  0
  -21.3656   -5.6794   24.9174 C   0  0  0  0  0  0
  -21.6045   -4.3058   24.7226 C   0  0  0  0  0  0
  -21.8820   -3.8148   23.4347 C   0  0  0  0  0  0
  -21.9193   -4.6966   22.3402 C   0  0  0  0  0  0
  -22.7858  -13.5241   21.1844 C   0  0  0  0  0  0
  -22.1663   -4.2152   21.0981 F   0  0  0  0  0  0
  -21.5628   -3.4540   25.7738 F   0  0  0  0  0  0
  -30.0288  -13.3134   20.4333 N   0  0  0  0  0  0
  -26.3014  -12.9342   20.3355 N   0  0  0  0  0  0
  -25.9320  -11.6500   20.5772 N   0  0  0  0  0  0
  -22.0496  -12.8236   22.0398 N   0  0  0  0  0  0
  -25.4312  -15.1887   20.4084 N   0  0  0  0  0  0
  -31.8554  -14.6282   20.1159 O   0  0  0  0  0  0
  -21.6639   -6.8880   21.4240 O   0  0  0  0  0  0
  -22.3548  -14.5551   20.6695 O   0  0  0  0  0  0
  -24.6155  -31.8679   23.2108 C   0  0  0  0  0  0
  -25.9047  -32.4821   23.8403 C   0  0  1  0  0  0
  -27.2270  -27.4236   20.0929 C   0  0  0  0  0  0
  -25.5906  -33.8619   24.2335 N   0  0  0  0  0  0
  -23.4028  -30.4935   21.5512 C   0  0  2  0  0  0
  -24.8470  -28.9620   20.1111 C   0  0  0  0  0  0
  -22.7416  -29.4653   22.4979 C   0  0  0  0  0  0
  -18.0274  -28.1367   22.8486 C   0  0  0  0  0  0
  -24.1491  -36.7314   23.2638 C   0  0  0  0  0  0
  -25.9335  -30.8303   21.3656 C   0  0  0  0  0  0
  -26.0091  -29.4658   20.7085 C   0  0  0  0  0  0
  -27.2015  -28.7038   20.6965 C   0  0  0  0  0  0
  -26.0440  -26.9403   19.4847 C   0  0  0  0  0  0
  -24.8597  -27.6995   19.4960 C   0  0  0  0  0  0
  -23.6110  -29.8312   20.1637 C   0  0  0  0  0  0
  -25.4110  -36.3109   24.0337 C   0  0  1  0  0  0
  -20.5864  -28.3657   23.1314 C   0  0  2  0  0  0
  -20.6767  -26.9394   22.5411 C   0  0  0  0  0  0
  -19.5750  -26.6373   21.5203 C   0  0  0  0  0  0
  -18.1926  -26.7914   22.1614 C   0  0  0  0  0  0
  -19.1522  -28.8827   23.2899 C   0  0  0  0  0  0
  -18.9453  -30.1435   23.8909 C   0  0  0  0  0  0
  -17.6457  -30.6579   24.0557 C   0  0  0  0  0  0
  -25.9034  -34.9474   23.5131 C   0  0  0  0  0  0
  -16.5347  -29.9079   23.6320 C   0  0  0  0  0  0
  -16.7264  -28.6493   23.0342 C   0  0  0  0  0  0
  -26.4473  -31.6601   25.0735 C   0  0  0  0  0  0
  -25.3745  -31.3700   26.1492 C   0  0  0  0  0  0
  -27.0306  -30.3049   24.6097 C   0  0  0  0  0  0
  -27.6050  -32.4319   25.7497 C   0  0  0  0  0  0
  -27.5584  -37.1812   24.8465 C   0  0  0  0  0  0
  -21.4141  -29.3030   22.3725 N   0  0  0  0  0  0
  -26.4296  -37.3792   23.9408 N   0  0  0  0  0  0
  -24.6690  -31.0779   22.1010 N   0  0  0  0  0  0
  -23.4192  -28.8188   23.3013 O   0  0  0  0  0  0
  -28.3872  -26.6635   20.1401 O   0  0  0  0  0  0
  -26.5590  -34.8924   22.4687 O   0  0  0  0  0  0
  -23.5347  -32.1432   23.7501 O   0  0  0  0  0  0
  -31.7599  -17.0872   21.8872 C   0  0  0  0  0  0
  -32.2692  -18.3920   22.0065 C   0  0  0  0  0  0
  -29.7776  -17.9771   20.7846 C   0  0  0  0  0  0
  -30.2802  -19.3030   20.9033 C   0  0  0  0  0  0
  -30.5229  -16.8588   21.2453 C   0  0  0  0  0  0
  -31.5544  -19.4922   21.4984 C   0  0  0  0  0  0
  -29.5155  -20.4456   20.3382 C   0  0  0  0  0  0
  -29.0898  -21.5538   20.9891 C   0  0  0  0  0  0
  -28.3434  -22.7323   20.3603 C   0  0  0  0  0  0
  -29.1524  -24.0570   20.2785 C   0  0  0  0  0  0
  -28.2809  -25.2651   19.8016 C   0  0  0  0  0  0
  -30.0292  -15.5243   21.0828 N   0  0  0  0  0  0
  -32.3110  -21.0474   21.5658 Cl  0  0  0  0  0  0
  -29.2748  -21.7773   22.6956 Cl  0  0  0  0  0  0
  -31.4630  -12.4051   19.1222 H   0  0  0  0  0  0
  -30.3175  -11.3091   19.8387 H   0  0  0  0  0  0
  -29.7331  -11.7622   17.4384 H   0  0  0  0  0  0
  -29.6582  -13.4772   17.7578 H   0  0  0  0  0  0
  -27.8310  -11.3026   18.8320 H   0  0  0  0  0  0
  -27.3620  -12.6183   17.7894 H   0  0  0  0  0  0
  -27.6955  -14.2531   19.5568 H   0  0  0  0  0  0
  -28.6810  -11.9906   21.3630 H   0  0  0  0  0  0
  -28.4648  -13.6430   21.8565 H   0  0  0  0  0  0
  -25.2759   -9.5688   22.4761 H   0  0  0  0  0  0
  -24.0002   -7.4637   22.7476 H   0  0  0  0  0  0
  -21.0841   -8.8776   19.8951 H   0  0  0  0  0  0
  -22.3696  -10.9677   19.6168 H   0  0  0  0  0  0
  -21.2003   -7.6150   23.9716 H   0  0  0  0  0  0
  -21.1476   -6.0525   25.9077 H   0  0  0  0  0  0
  -22.0601   -2.7612   23.2847 H   0  0  0  0  0  0
  -22.4104  -11.9892   22.4782 H   0  0  0  0  0  0
  -21.1116  -13.1265   22.2603 H   0  0  0  0  0  0
  -24.6653  -15.8453   20.5134 H   0  0  0  0  0  0
  -26.2823  -15.6247   20.0768 H   0  0  0  0  0  0
  -26.7117  -32.5525   23.1168 H   0  0  0  0  0  0
  -25.0093  -33.9777   25.0505 H   0  0  0  0  0  0
  -22.6910  -31.3102   21.4147 H   0  0  0  0  0  0
  -23.3747  -35.9654   23.3307 H   0  0  0  0  0  0
  -24.3590  -36.8919   22.2053 H   0  0  0  0  0  0
  -23.7247  -37.6523   23.6648 H   0  0  0  0  0  0
  -26.0489  -31.5986   20.5998 H   0  0  0  0  0  0
  -26.8199  -30.8799   21.9861 H   0  0  0  0  0  0
  -28.0973  -29.0845   21.1671 H   0  0  0  0  0  0
  -26.0122  -25.9739   19.0026 H   0  0  0  0  0  0
  -23.9661  -27.3057   19.0321 H   0  0  0  0  0  0
  -23.7244  -30.6095   19.4080 H   0  0  0  0  0  0
  -22.7327  -29.2565   19.8650 H   0  0  0  0  0  0
  -25.1283  -36.1978   25.0829 H   0  0  0  0  0  0
  -20.9953  -28.3223   24.1432 H   0  0  0  0  0  0
  -20.5666  -26.2266   23.3598 H   0  0  0  0  0  0
  -21.6641  -26.7437   22.1208 H   0  0  0  0  0  0
  -19.6913  -25.6283   21.1233 H   0  0  0  0  0  0
  -19.6692  -27.3189   20.6738 H   0  0  0  0  0  0
  -17.4196  -26.6659   21.4016 H   0  0  0  0  0  0
  -18.0327  -26.0050   22.9004 H   0  0  0  0  0  0
  -19.7935  -30.7238   24.2288 H   0  0  0  0  0  0
  -17.5017  -31.6260   24.5158 H   0  0  0  0  0  0
  -15.5350  -30.2985   23.7637 H   0  0  0  0  0  0
  -15.8662  -28.0820   22.7047 H   0  0  0  0  0  0
  -24.5920  -30.7037   25.7843 H   0  0  0  0  0  0
  -24.8936  -32.2853   26.4955 H   0  0  0  0  0  0
  -25.8114  -30.8874   27.0244 H   0  0  0  0  0  0
  -26.2853  -29.6813   24.1151 H   0  0  0  0  0  0
  -27.4092  -29.7278   25.4543 H   0  0  0  0  0  0
  -27.8679  -30.4381   23.9242 H   0  0  0  0  0  0
  -27.2673  -33.3611   26.2097 H   0  0  0  0  0  0
  -28.3854  -32.6887   25.0321 H   0  0  0  0  0  0
  -28.0727  -31.8429   26.5396 H   0  0  0  0  0  0
  -28.2599  -38.0114   24.7510 H   0  0  0  0  0  0
  -28.1079  -36.2640   24.6288 H   0  0  0  0  0  0
  -27.2301  -37.1464   25.8869 H   0  0  0  0  0  0
  -20.9293  -29.8782   21.6979 H   0  0  0  0  0  0
  -26.0185  -38.2870   24.1404 H   0  0  0  0  0  0
  -32.3422  -16.2618   22.2724 H   0  0  0  0  0  0
  -33.2335  -18.5494   22.4673 H   0  0  0  0  0  0
  -28.8227  -17.8195   20.3040 H   0  0  0  0  0  0
  -29.3178  -20.3795   19.2783 H   0  0  0  0  0  0
  -27.4345  -22.8921   20.9415 H   0  0  0  0  0  0
  -28.0097  -22.4496   19.3610 H   0  0  0  0  0  0
  -29.9959  -23.8792   19.6067 H   0  0  0  0  0  0
  -29.6043  -24.2782   21.2483 H   0  0  0  0  0  0
  -29.1878  -25.6603   19.3414 H   0  0  0  0  0  0
  -27.8619  -25.2661   20.8113 H   0  0  0  0  0  0
  -29.0497  -15.3652   21.2652 H   0  0  0  0  0  0
  1 25  1  0  0  0
  1 30  2  0  0  0
  1 82  1  0  0  0
  2  3  1  0  0  0
  2 25  1  0  0  0
  2 85  1  0  0  0
  2 86  1  0  0  0
  3  4  1  0  0  0
  3 87  1  0  0  0
  3 88  1  0  0  0
  4  5  1  0  0  0
  4 89  1  0  0  0
  4 90  1  0  0  0
  5  6  1  0  0  0
  5 26  1  0  0  0
  5 91  1  0  0  0
  6 25  1  0  0  0
  6 92  1  0  0  0
  6 93  1  0  0  0
  7  8  2  0  0  0
  7 26  1  0  0  0
  7 29  1  0  0  0
  8  9  1  0  0  0
  8 22  1  0  0  0
  9 10  1  0  0  0
  9 27  2  0  0  0
 10 11  2  0  0  0
 10 15  1  0  0  0
 11 12  1  0  0  0
 11 94  1  0  0  0
 12 13  2  0  0  0
 12 95  1  0  0  0
 13 14  1  0  0  0
 13 31  1  0  0  0
 14 15  2  0  0  0
 14 96  1  0  0  0
 15 97  1  0  0  0
 16 17  2  0  0  0
 16 21  1  0  0  0
 16 31  1  0  0  0
 17 18  1  0  0  0
 17 98  1  0  0  0
 18 19  2  0  0  0
 18 99  1  0  0  0
 19 20  1  0  0  0
 19 24  1  0  0  0
 20 21  2  0  0  0
 20100  1  0  0  0
 21 23  1  0  0  0
 22 28  1  0  0  0
 22 32  2  0  0  0
 26 27  1  0  0  0
 28101  1  0  0  0
 28102  1  0  0  0
 29103  1  0  0  0
 29104  1  0  0  0
 33 34  1  0  0  0
 33 66  1  0  0  0
 33 70  2  0  0  0
 34 36  1  0  0  0
 34 59  1  0  0  0
 34105  1  0  0  0
 35 44  2  0  0  0
 35 45  1  0  0  0
 35 68  1  0  0  0
 36 56  1  0  0  0
 36106  1  0  0  0
 37 39  1  0  0  0
 37 47  1  0  0  0
 37 66  1  0  0  0
 37107  1  0  0  0
 38 43  2  0  0  0
 38 46  1  0  0  0
 38 47  1  0  0  0
 39 64  1  0  0  0
 39 67  2  0  0  0
 40 52  1  0  0  0
 40 53  2  0  0  0
 40 58  1  0  0  0
 41108  1  0  0  0
 41109  1  0  0  0
 41110  1  0  0  0
 41 48  1  0  0  0
 42 43  1  0  0  0
 42 66  1  0  0  0
 42111  1  0  0  0
 42112  1  0  0  0
 43 44  1  0  0  0
 44113  1  0  0  0
 45 46  2  0  0  0
 45114  1  0  0  0
 46115  1  0  0  0
 47116  1  0  0  0
 47117  1  0  0  0
 48 56  1  0  0  0
 48 65  1  0  0  0
 48118  1  0  0  0
 49 50  1  0  0  0
 49 53  1  0  0  0
 49 64  1  0  0  0
 49119  1  0  0  0
 50 51  1  0  0  0
 50120  1  0  0  0
 50121  1  0  0  0
 51 52  1  0  0  0
 51122  1  0  0  0
 51123  1  0  0  0
 52124  1  0  0  0
 52125  1  0  0  0
 53 54  1  0  0  0
 54 55  2  0  0  0
 54126  1  0  0  0
 55 57  1  0  0  0
 55127  1  0  0  0
 56 69  2  0  0  0
 57 58  2  0  0  0
 57128  1  0  0  0
 58129  1  0  0  0
 59 60  1  0  0  0
 59 61  1  0  0  0
 59 62  1  0  0  0
 60130  1  0  0  0
 60131  1  0  0  0
 60132  1  0  0  0
 61133  1  0  0  0
 61134  1  0  0  0
 61135  1  0  0  0
 62136  1  0  0  0
 62137  1  0  0  0
 62138  1  0  0  0
 63 65  1  0  0  0
 63139  1  0  0  0
 63140  1  0  0  0
 63141  1  0  0  0
 64142  1  0  0  0
 65143  1  0  0  0
 68 81  1  0  0  0
 71 72  2  0  0  0
 71 75  1  0  0  0
 71144  1  0  0  0
 72 76  1  0  0  0
 72145  1  0  0  0
 73 74  1  0  0  0
 73 75  2  0  0  0
 73146  1  0  0  0
 74 76  2  0  0  0
 74 77  1  0  0  0
 75 82  1  0  0  0
 76 83  1  0  0  0
 77 78  2  0  0  0
 77147  1  0  0  0
 78 79  1  0  0  0
 78 84  1  0  0  0
 79 80  1  0  0  0
 79148  1  0  0  0
 79149  1  0  0  0
 80 81  1  0  0  0
 80150  1  0  0  0
 80151  1  0  0  0
 81152  1  0  0  0
 81153  1  0  0  0
 82154  1  0  0  0
M  ISO  4   1 100  68 101  81 101  82 100
M  END
> <chiral flag>
0

> <version>
0

> <s_m_source_file>
/data/baiqing/PycharmProjects/Reinvent-master-3.2/result/LINK_invent/BTK/process_docking_weight1_custom_product_contain_oxygen_bond_distance_aromatic_linkinvent_7_9_3/rearranged_h_0040.sdf

> <i_m_source_file_index>
50

> <r_mmod_Potential_Energy-OPLS-2005>
203.265335083008

> <r_mmod_Stretch_Energy-OPLS-2005>
40.8920745849609

> <r_mmod_Bend_Energy-OPLS-2005>
308.002136230469

> <r_mmod_Torsional_Energy-OPLS-2005>
243.462646484375

> <r_mmod_Improper_Torsional_Energy-OPLS-2005>
4.30745792388916

> <r_mmod_Van_der_Waal_Energy-OPLS-2005>
163.031021118164

> <r_mmod_Electrostatic_Energy-OPLS-2005>
-367.090881347656

> <r_mmod_Solvation_Energy-OPLS-2005>
-205.337448120117

> <b_mmod_Minimization_Converged-OPLS-2005>
0

> <r_mmod_RMS_Derivative-OPLS-2005>
0.660479128360748

$$$$
50
                    3D
 Structure written by MMmdl.
162170  0  0  1  0            999 V2000
  -30.7085  -14.5135   20.4760 C   0  0  0  0  0  0
  -30.4117  -12.3016   19.4467 C   0  0  0  0  0  0
  -29.4986  -12.4626   18.2136 C   0  0  0  0  0  0
  -28.0173  -12.3386   18.6251 C   0  0  0  0  0  0
  -27.6507  -13.2162   19.8546 C   0  0  2  0  0  0
  -28.6956  -13.0858   20.9848 C   0  0  0  0  0  0
  -25.2565  -13.8159   20.5708 C   0  0  0  0  0  0
  -24.1830  -13.0444   20.9175 C   0  0  0  0  0  0
  -24.6392  -11.6906   20.8725 C   0  0  0  0  0  0
  -23.9076  -10.4288   21.0383 C   0  0  0  0  0  0
  -24.3632   -9.4208   21.9167 C   0  0  0  0  0  0
  -23.6306   -8.2248   22.0747 C   0  0  0  0  0  0
  -22.4283   -8.0284   21.3543 C   0  0  0  0  0  0
  -21.9916   -9.0257   20.4642 C   0  0  0  0  0  0
  -22.7246  -10.2134   20.3041 C   0  0  0  0  0  0
  -21.6862   -6.0742   22.5283 C   0  0  0  0  0  0
  -21.4016   -6.5643   23.8218 C   0  0  0  0  0  0
  -21.3654   -5.6793   24.9178 C   0  0  0  0  0  0
  -21.6048   -4.3059   24.7225 C   0  0  0  0  0  0
  -21.8823   -3.8151   23.4342 C   0  0  0  0  0  0
  -21.9196   -4.6970   22.3400 C   0  0  0  0  0  0
  -22.7849  -13.5230   21.1839 C   0  0  0  0  0  0
  -22.1669   -4.2163   21.0978 F   0  0  0  0  0  0
  -21.5618   -3.4539   25.7732 F   0  0  0  0  0  0
  -30.0169  -13.3436   20.4052 N   0  0  0  0  0  0
  -26.2989  -12.9365   20.3316 N   0  0  0  0  0  0
  -25.9322  -11.6516   20.5752 N   0  0  0  0  0  0
  -22.0501  -12.8233   22.0395 N   0  0  0  0  0  0
  -25.4286  -15.1882   20.4169 N   0  0  0  0  0  0
  -31.9196  -14.5720   20.2404 O   0  0  0  0  0  0
  -21.6646   -6.8885   21.4244 O   0  0  0  0  0  0
  -22.3537  -14.5539   20.6678 O   0  0  0  0  0  0
  -24.6195  -31.8670   23.2099 C   0  0  0  0  0  0
  -25.9089  -32.4812   23.8388 C   0  0  1  0  0  0
  -27.2199  -27.3902   20.0985 C   0  0  0  0  0  0
  -25.5939  -33.8609   24.2330 N   0  0  0  0  0  0
  -23.4060  -30.4948   21.5511 C   0  0  2  0  0  0
  -24.8508  -28.9663   20.1098 C   0  0  0  0  0  0
  -22.7428  -29.4664   22.4976 C   0  0  0  0  0  0
  -18.0271  -28.1380   22.8491 C   0  0  0  0  0  0
  -24.1497  -36.7312   23.2629 C   0  0  0  0  0  0
  -25.9419  -30.8197   21.3719 C   0  0  0  0  0  0
  -26.0155  -29.4520   20.7167 C   0  0  0  0  0  0
  -27.1997  -28.6701   20.7136 C   0  0  0  0  0  0
  -26.0408  -26.9593   19.4396 C   0  0  0  0  0  0
  -24.8619  -27.7210   19.4679 C   0  0  0  0  0  0
  -23.6160  -29.8375   20.1633 C   0  0  0  0  0  0
  -25.4112  -36.3105   24.0339 C   0  0  1  0  0  0
  -20.5872  -28.3682   23.1308 C   0  0  2  0  0  0
  -20.6771  -26.9416   22.5413 C   0  0  0  0  0  0
  -19.5746  -26.6375   21.5216 C   0  0  0  0  0  0
  -18.1920  -26.7920   22.1628 C   0  0  0  0  0  0
  -19.1531  -28.8847   23.2885 C   0  0  0  0  0  0
  -18.9464  -30.1452   23.8892 C   0  0  0  0  0  0
  -17.6468  -30.6589   24.0561 C   0  0  0  0  0  0
  -25.9056  -34.9469   23.5130 C   0  0  0  0  0  0
  -16.5351  -29.9092   23.6316 C   0  0  0  0  0  0
  -16.7256  -28.6507   23.0334 C   0  0  0  0  0  0
  -26.4478  -31.6598   25.0727 C   0  0  0  0  0  0
  -25.3726  -31.3734   26.1471 C   0  0  0  0  0  0
  -27.0258  -30.3008   24.6108 C   0  0  0  0  0  0
  -27.6050  -32.4299   25.7490 C   0  0  0  0  0  0
  -27.5589  -37.1790   24.8444 C   0  0  0  0  0  0
  -21.4160  -29.3047   22.3714 N   0  0  0  0  0  0
  -26.4275  -37.3811   23.9433 N   0  0  0  0  0  0
  -24.6738  -31.0755   22.1015 N   0  0  0  0  0  0
  -23.4200  -28.8200   23.3011 O   0  0  0  0  0  0
  -28.3628  -26.5943   20.1647 O   0  0  0  0  0  0
  -26.5598  -34.8920   22.4677 O   0  0  0  0  0  0
  -23.5374  -32.1420   23.7480 O   0  0  0  0  0  0
  -29.6637  -19.0186   22.9860 C   0  0  0  0  0  0
  -30.2662  -17.8307   23.4211 C   0  0  0  0  0  0
  -29.0095  -19.0627   21.7439 C   0  0  0  0  0  0
  -28.9516  -17.8629   20.9635 C   0  0  0  0  0  0
  -29.7494  -16.6999   21.2902 C   0  0  0  0  0  0
  -30.3346  -16.6885   22.6013 C   0  0  0  0  0  0
  -27.9138  -17.8136   19.8434 C   0  0  0  0  0  0
  -30.1064  -16.1064   18.8807 C   0  0  0  0  0  0
  -28.3038  -20.3791   21.3229 C   0  0  0  0  0  0
  -29.0335  -24.1650   20.7253 C   0  0  0  0  0  0
  -28.5662  -22.6978   20.4412 C   0  0  0  0  0  0
  -28.2183  -25.1768   19.8688 C   0  0  0  0  0  0
  -29.9675  -15.6451   20.2876 N   0  0  0  0  0  0
  -29.1508  -21.6091   21.2861 N   0  3  0  0  0  0
  -31.1473  -15.3425   23.3316 Cl  0  0  0  0  0  0
  -31.4624  -12.3681   19.1592 H   0  0  0  0  0  0
  -30.2820  -11.3156   19.8961 H   0  0  0  0  0  0
  -29.7414  -11.7055   17.4655 H   0  0  0  0  0  0
  -29.6732  -13.4264   17.7353 H   0  0  0  0  0  0
  -27.8307  -11.2877   18.8509 H   0  0  0  0  0  0
  -27.3712  -12.5852   17.7818 H   0  0  0  0  0  0
  -27.6661  -14.2488   19.5070 H   0  0  0  0  0  0
  -28.6707  -12.0873   21.4230 H   0  0  0  0  0  0
  -28.4778  -13.7881   21.7924 H   0  0  0  0  0  0
  -25.2785   -9.5696   22.4737 H   0  0  0  0  0  0
  -24.0021   -7.4644   22.7470 H   0  0  0  0  0  0
  -21.0849   -8.8768   19.8954 H   0  0  0  0  0  0
  -22.3700  -10.9667   19.6145 H   0  0  0  0  0  0
  -21.2009   -7.6156   23.9731 H   0  0  0  0  0  0
  -21.1472   -6.0517   25.9085 H   0  0  0  0  0  0
  -22.0602   -2.7613   23.2839 H   0  0  0  0  0  0
  -22.4125  -11.9906   22.4804 H   0  0  0  0  0  0
  -21.1112  -13.1248   22.2576 H   0  0  0  0  0  0
  -24.6712  -15.8511   20.5425 H   0  0  0  0  0  0
  -26.3000  -15.6238   20.1504 H   0  0  0  0  0  0
  -26.7150  -32.5519   23.1141 H   0  0  0  0  0  0
  -25.0085  -33.9770   25.0464 H   0  0  0  0  0  0
  -22.6961  -31.3137   21.4156 H   0  0  0  0  0  0
  -23.3758  -35.9641   23.3263 H   0  0  0  0  0  0
  -24.3581  -36.8940   22.2038 H   0  0  0  0  0  0
  -23.7228  -37.6505   23.6648 H   0  0  0  0  0  0
  -26.0616  -31.5851   20.6043 H   0  0  0  0  0  0
  -26.8283  -30.8680   21.9939 H   0  0  0  0  0  0
  -28.0928  -29.0354   21.2010 H   0  0  0  0  0  0
  -25.9882  -26.0338   18.8854 H   0  0  0  0  0  0
  -23.9732  -27.3510   18.9757 H   0  0  0  0  0  0
  -23.7299  -30.6173   19.4082 H   0  0  0  0  0  0
  -22.7381  -29.2639   19.8606 H   0  0  0  0  0  0
  -25.1275  -36.1950   25.0824 H   0  0  0  0  0  0
  -20.9945  -28.3241   24.1437 H   0  0  0  0  0  0
  -20.5679  -26.2287   23.3601 H   0  0  0  0  0  0
  -21.6642  -26.7447   22.1210 H   0  0  0  0  0  0
  -19.6910  -25.6279   21.1252 H   0  0  0  0  0  0
  -19.6690  -27.3184   20.6748 H   0  0  0  0  0  0
  -17.4187  -26.6652   21.4028 H   0  0  0  0  0  0
  -18.0339  -26.0062   22.9037 H   0  0  0  0  0  0
  -19.7939  -30.7266   24.2260 H   0  0  0  0  0  0
  -17.5018  -31.6276   24.5164 H   0  0  0  0  0  0
  -15.5351  -30.3002   23.7640 H   0  0  0  0  0  0
  -15.8653  -28.0832   22.7043 H   0  0  0  0  0  0
  -24.5977  -30.6963   25.7868 H   0  0  0  0  0  0
  -24.8824  -32.2884   26.4800 H   0  0  0  0  0  0
  -25.8100  -30.9046   27.0296 H   0  0  0  0  0  0
  -26.2792  -29.6833   24.1087 H   0  0  0  0  0  0
  -27.3905  -29.7188   25.4585 H   0  0  0  0  0  0
  -27.8714  -30.4280   23.9338 H   0  0  0  0  0  0
  -27.2684  -33.3624   26.2031 H   0  0  0  0  0  0
  -28.3898  -32.6790   25.0341 H   0  0  0  0  0  0
  -28.0662  -31.8417   26.5428 H   0  0  0  0  0  0
  -28.2557  -38.0142   24.7577 H   0  0  0  0  0  0
  -28.1140  -36.2664   24.6169 H   0  0  0  0  0  0
  -27.2318  -37.1333   25.8849 H   0  0  0  0  0  0
  -20.9326  -29.8783   21.6950 H   0  0  0  0  0  0
  -26.0158  -38.2882   24.1467 H   0  0  0  0  0  0
  -29.6616  -19.8785   23.6435 H   0  0  0  0  0  0
  -30.7092  -17.8017   24.4055 H   0  0  0  0  0  0
  -26.9954  -18.3186   20.1419 H   0  0  0  0  0  0
  -27.5960  -16.7942   19.6392 H   0  0  0  0  0  0
  -28.2804  -18.2773   18.9274 H   0  0  0  0  0  0
  -30.5370  -17.1078   18.8421 H   0  0  0  0  0  0
  -29.1586  -16.1047   18.3482 H   0  0  0  0  0  0
  -30.7581  -15.4901   18.2563 H   0  0  0  0  0  0
  -27.4565  -20.5482   21.9893 H   0  0  0  0  0  0
  -27.8839  -20.2767   20.3257 H   0  0  0  0  0  0
  -30.1006  -24.2768   20.5306 H   0  0  0  0  0  0
  -28.8708  -24.3949   21.7775 H   0  0  0  0  0  0
  -28.7541  -22.4536   19.3951 H   0  0  0  0  0  0
  -27.4821  -22.6595   20.5671 H   0  0  0  0  0  0
  -27.1937  -24.8472   20.0261 H   0  0  0  0  0  0
  -28.4385  -25.0272   18.8120 H   0  0  0  0  0  0
  -30.0597  -21.3662   20.9270 H   0  0  0  0  0  0
  -29.2649  -21.9371   22.2302 H   0  0  0  0  0  0
  1 25  1  0  0  0
  1 30  2  0  0  0
  1 83  1  0  0  0
  2  3  1  0  0  0
  2 25  1  0  0  0
  2 86  1  0  0  0
  2 87  1  0  0  0
  3  4  1  0  0  0
  3 88  1  0  0  0
  3 89  1  0  0  0
  4  5  1  0  0  0
  4 90  1  0  0  0
  4 91  1  0  0  0
  5  6  1  0  0  0
  5 26  1  0  0  0
  5 92  1  0  0  0
  6 25  1  0  0  0
  6 93  1  0  0  0
  6 94  1  0  0  0
  7  8  2  0  0  0
  7 26  1  0  0  0
  7 29  1  0  0  0
  8  9  1  0  0  0
  8 22  1  0  0  0
  9 10  1  0  0  0
  9 27  2  0  0  0
 10 11  2  0  0  0
 10 15  1  0  0  0
 11 12  1  0  0  0
 11 95  1  0  0  0
 12 13  2  0  0  0
 12 96  1  0  0  0
 13 14  1  0  0  0
 13 31  1  0  0  0
 14 15  2  0  0  0
 14 97  1  0  0  0
 15 98  1  0  0  0
 16 17  2  0  0  0
 16 21  1  0  0  0
 16 31  1  0  0  0
 17 18  1  0  0  0
 17 99  1  0  0  0
 18 19  2  0  0  0
 18100  1  0  0  0
 19 20  1  0  0  0
 19 24  1  0  0  0
 20 21  2  0  0  0
 20101  1  0  0  0
 21 23  1  0  0  0
 22 28  1  0  0  0
 22 32  2  0  0  0
 26 27  1  0  0  0
 28102  1  0  0  0
 28103  1  0  0  0
 29104  1  0  0  0
 29105  1  0  0  0
 33 34  1  0  0  0
 33 66  1  0  0  0
 33 70  2  0  0  0
 34 36  1  0  0  0
 34 59  1  0  0  0
 34106  1  0  0  0
 35 44  2  0  0  0
 35 45  1  0  0  0
 35 68  1  0  0  0
 36 56  1  0  0  0
 36107  1  0  0  0
 37 39  1  0  0  0
 37 47  1  0  0  0
 37 66  1  0  0  0
 37108  1  0  0  0
 38 43  2  0  0  0
 38 46  1  0  0  0
 38 47  1  0  0  0
 39 64  1  0  0  0
 39 67  2  0  0  0
 40 52  1  0  0  0
 40 53  2  0  0  0
 40 58  1  0  0  0
 41109  1  0  0  0
 41110  1  0  0  0
 41111  1  0  0  0
 41 48  1  0  0  0
 42 43  1  0  0  0
 42 66  1  0  0  0
 42112  1  0  0  0
 42113  1  0  0  0
 43 44  1  0  0  0
 44114  1  0  0  0
 45 46  2  0  0  0
 45115  1  0  0  0
 46116  1  0  0  0
 47117  1  0  0  0
 47118  1  0  0  0
 48 56  1  0  0  0
 48 65  1  0  0  0
 48119  1  0  0  0
 49 50  1  0  0  0
 49 53  1  0  0  0
 49 64  1  0  0  0
 49120  1  0  0  0
 50 51  1  0  0  0
 50121  1  0  0  0
 50122  1  0  0  0
 51 52  1  0  0  0
 51123  1  0  0  0
 51124  1  0  0  0
 52125  1  0  0  0
 52126  1  0  0  0
 53 54  1  0  0  0
 54 55  2  0  0  0
 54127  1  0  0  0
 55 57  1  0  0  0
 55128  1  0  0  0
 56 69  2  0  0  0
 57 58  2  0  0  0
 57129  1  0  0  0
 58130  1  0  0  0
 59 60  1  0  0  0
 59 61  1  0  0  0
 59 62  1  0  0  0
 60131  1  0  0  0
 60132  1  0  0  0
 60133  1  0  0  0
 61134  1  0  0  0
 61135  1  0  0  0
 61136  1  0  0  0
 62137  1  0  0  0
 62138  1  0  0  0
 62139  1  0  0  0
 63 65  1  0  0  0
 63140  1  0  0  0
 63141  1  0  0  0
 63142  1  0  0  0
 64143  1  0  0  0
 65144  1  0  0  0
 68 82  1  0  0  0
 71 72  2  0  0  0
 71 73  1  0  0  0
 71145  1  0  0  0
 72 76  1  0  0  0
 72146  1  0  0  0
 73 74  2  0  0  0
 73 79  1  0  0  0
 74 75  1  0  0  0
 74 77  1  0  0  0
 75 76  2  0  0  0
 75 83  1  0  0  0
 76 85  1  0  0  0
 77147  1  0  0  0
 77148  1  0  0  0
 77149  1  0  0  0
 78 83  1  0  0  0
 78150  1  0  0  0
 78151  1  0  0  0
 78152  1  0  0  0
 79 84  1  0  0  0
 79153  1  0  0  0
 79154  1  0  0  0
 80 81  1  0  0  0
 80 82  1  0  0  0
 80155  1  0  0  0
 80156  1  0  0  0
 81 84  1  0  0  0
 81157  1  0  0  0
 81158  1  0  0  0
 82159  1  0  0  0
 82160  1  0  0  0
 84161  1  0  0  0
 84162  1  0  0  0
M  CHG  1  84   1
M  ISO  4   1 100  68 101  82 101  83 100
M  END
> <chiral flag>
0

> <version>
0

> <s_m_source_file>
/data/baiqing/PycharmProjects/Reinvent-master-3.2/result/LINK_invent/BTK/process_docking_weight1_custom_product_contain_oxygen_bond_distance_aromatic_linkinvent_7_9_3/rearranged_h_0040.sdf

> <i_m_source_file_index>
51

> <r_mmod_Potential_Energy-OPLS-2005>
28.0469646453857

> <r_mmod_Stretch_Energy-OPLS-2005>
61.6347045898438

> <r_mmod_Bend_Energy-OPLS-2005>
132.001495361328

> <r_mmod_Torsional_Energy-OPLS-2005>
302.928741455078

> <r_mmod_Improper_Torsional_Energy-OPLS-2005>
19.5446739196777

> <r_mmod_Van_der_Waal_Energy-OPLS-2005>
187.175216674805

> <r_mmod_Electrostatic_Energy-OPLS-2005>
-230.964309692383

> <r_mmod_Solvation_Energy-OPLS-2005>
-477.068725585938

> <b_mmod_Minimization_Converged-OPLS-2005>
0

> <r_mmod_RMS_Derivative-OPLS-2005>
2.92365288734436

$$$$
51
                    3D
 Structure written by MMmdl.
173182  0  0  1  0            999 V2000
  -30.4861  -15.3567   21.4188 C   0  0  0  0  0  0
  -30.3129  -14.3697   17.6469 C   0  0  0  0  0  0
  -28.9551  -13.1762   17.1542 C   0  0  0  0  0  0
  -27.8704  -12.3444   18.3460 C   0  0  0  0  0  0
  -27.6774  -12.7070   20.0728 C   0  0  2  0  0  0
  -29.0290  -13.3030   21.2363 C   0  0  0  0  0  0
  -25.2415  -13.6700   20.6541 C   0  0  0  0  0  0
  -24.1430  -12.9563   20.9929 C   0  0  0  0  0  0
  -24.5715  -11.6019   20.9620 C   0  0  0  0  0  0
  -23.8398  -10.3731   21.0857 C   0  0  0  0  0  0
  -24.3113   -9.3664   21.9500 C   0  0  0  0  0  0
  -23.5900   -8.1706   22.0809 C   0  0  0  0  0  0
  -22.3951   -7.9898   21.3490 C   0  0  0  0  0  0
  -21.9551   -8.9872   20.4625 C   0  0  0  0  0  0
  -22.6781  -10.1771   20.3207 C   0  0  0  0  0  0
  -21.6647   -6.0535   22.5278 C   0  0  0  0  0  0
  -21.3867   -6.5522   23.8201 C   0  0  0  0  0  0
  -21.3599   -5.6723   24.9203 C   0  0  0  0  0  0
  -21.6038   -4.2992   24.7281 C   0  0  0  0  0  0
  -21.8837   -3.8038   23.4430 C   0  0  0  0  0  0
  -21.9134   -4.6802   22.3449 C   0  0  0  0  0  0
  -22.7525  -13.4836   21.2002 C   0  0  0  0  0  0
  -22.1634   -4.1998   21.1027 F   0  0  0  0  0  0
  -21.5656   -3.4507   25.7826 F   0  0  0  0  0  0
  -30.2994  -14.4740   20.6067 N   0  0  0  0  0  0
  -26.3064  -12.7066   20.5716 N   0  0  0  0  0  0
  -25.8585  -11.4774   20.7396 N   0  0  0  0  0  0
  -21.9882  -12.8141   22.0534 N   0  0  0  0  0  0
  -25.3157  -15.0261   20.3337 N   0  0  0  0  0  0
  -31.6519  -15.6366   21.6340 O   0  0  0  0  0  0
  -21.6302   -6.8566   21.4201 O   0  0  0  0  0  0
  -22.3597  -14.5198   20.6629 O   0  0  0  0  0  0
  -24.6827  -31.8008   23.1486 C   0  0  0  0  0  0
  -25.9411  -32.4479   23.8048 C   0  0  1  0  0  0
  -27.3252  -26.8102   20.0825 C   0  0  0  0  0  0
  -25.5986  -33.8298   24.1946 N   0  0  0  0  0  0
  -23.5085  -30.3973   21.5052 C   0  0  2  0  0  0
  -24.9742  -28.7425   20.1150 C   0  0  0  0  0  0
  -22.7760  -29.4313   22.4739 C   0  0  0  0  0  0
  -18.0329  -28.1433   22.8447 C   0  0  0  0  0  0
  -24.1488  -36.7162   23.2651 C   0  0  0  0  0  0
  -26.0888  -30.5588   21.3963 C   0  0  0  0  0  0
  -26.1686  -29.1344   20.7299 C   0  0  0  0  0  0
  -27.3215  -28.1950   20.6796 C   0  0  0  0  0  0
  -26.0645  -26.5857   19.4719 C   0  0  0  0  0  0
  -24.9515  -27.4868   19.4785 C   0  0  0  0  0  0
  -23.7581  -29.6833   20.1452 C   0  0  0  0  0  0
  -25.4135  -36.2897   24.0280 C   0  0  1  0  0  0
  -20.5963  -28.3784   23.1150 C   0  0  2  0  0  0
  -20.6804  -26.9447   22.5404 C   0  0  0  0  0  0
  -19.5783  -26.6378   21.5216 C   0  0  0  0  0  0
  -18.1961  -26.7957   22.1615 C   0  0  0  0  0  0
  -19.1596  -28.8934   23.2777 C   0  0  0  0  0  0
  -18.9506  -30.1518   23.8823 C   0  0  0  0  0  0
  -17.6498  -30.6613   24.0551 C   0  0  0  0  0  0
  -25.9117  -34.9290   23.4949 C   0  0  0  0  0  0
  -16.5384  -29.9100   23.6352 C   0  0  0  0  0  0
  -16.7310  -28.6524   23.0361 C   0  0  0  0  0  0
  -26.4590  -31.6504   25.0663 C   0  0  0  0  0  0
  -25.3661  -31.3819   26.1283 C   0  0  0  0  0  0
  -27.0534  -30.2855   24.6529 C   0  0  0  0  0  0
  -27.6029  -32.4365   25.7495 C   0  0  0  0  0  0
  -27.5562  -37.1728   24.8459 C   0  0  0  0  0  0
  -21.4408  -29.3032   22.3488 N   0  0  0  0  0  0
  -26.4256  -37.3665   23.9420 N   0  0  0  0  0  0
  -24.7837  -30.9494   22.0710 N   0  0  0  0  0  0
  -23.4209  -28.7904   23.3073 O   0  0  0  0  0  0
  -28.4393  -25.7456   20.0078 O   0  0  0  0  0  0
  -26.5761  -34.8868   22.4568 O   0  0  0  0  0  0
  -23.5851  -32.1048   23.6464 O   0  0  0  0  0  0
  -30.1579  -12.8657   19.1862 C   0  0  0  0  0  0
  -29.3291  -16.1515   18.8816 C   0  0  0  0  0  0
  -28.7200  -14.6791   19.1295 C   0  0  0  0  0  0
  -31.8213  -13.5356   19.1652 C   0  0  0  0  0  0
  -30.8276  -16.5488   18.9351 C   0  0  0  0  0  0
  -32.0108  -15.2902   19.0311 C   0  0  0  0  0  0
  -29.5262  -21.1844   18.4730 C   0  0  0  0  0  0
  -28.9248  -20.7943   17.3357 C   0  0  0  0  0  0
  -29.6064  -22.8867   18.8477 C   0  0  0  0  0  0
  -28.4798  -21.3428   20.9419 C   0  0  0  0  0  0
  -28.5188  -22.9865   21.1055 C   0  0  0  0  0  0
  -29.7087  -20.2399   20.7510 C   0  0  0  0  0  0
  -28.7032  -24.0206   19.8808 C   0  0  2  0  0  0
  -33.0148  -12.6157   19.2946 C   0  0  0  0  0  0
  -33.4415  -15.7960   18.9993 C   0  0  0  0  0  0
  -28.1557  -15.5743   20.4650 C   0  0  0  0  0  0
  -30.9434  -18.3764   18.8574 C   0  0  0  0  0  0
  -29.2839  -16.0093   21.4640 N   0  0  0  0  0  0
  -30.1893  -19.8944   19.3437 N   0  3  1  0  0  0
  -30.1786  -15.2409   16.9904 H   0  0  0  0  0  0
  -31.1693  -13.9918   17.0613 H   0  0  0  0  0  0
  -29.3824  -12.4157   16.5004 H   0  0  0  0  0  0
  -28.3049  -13.7350   16.4808 H   0  0  0  0  0  0
  -28.1186  -11.2825   18.2972 H   0  0  0  0  0  0
  -26.8765  -12.3478   17.8951 H   0  0  0  0  0  0
  -27.1047  -13.4644   19.6015 H   0  0  0  0  0  0
  -29.5778  -12.4263   21.5864 H   0  0  0  0  0  0
  -28.5944  -13.6277   22.1834 H   0  0  0  0  0  0
  -25.2203   -9.5105   22.5185 H   0  0  0  0  0  0
  -23.9557   -7.4041   22.7481 H   0  0  0  0  0  0
  -21.0501   -8.8352   19.8925 H   0  0  0  0  0  0
  -22.3300  -10.9378   19.6354 H   0  0  0  0  0  0
  -21.1799   -7.6022   23.9644 H   0  0  0  0  0  0
  -21.1429   -6.0490   25.9094 H   0  0  0  0  0  0
  -22.0704   -2.7506   23.2972 H   0  0  0  0  0  0
  -22.3262  -11.9786   22.5083 H   0  0  0  0  0  0
  -21.0533  -13.1375   22.2589 H   0  0  0  0  0  0
  -24.4327  -15.5158   20.2318 H   0  0  0  0  0  0
  -25.9935  -15.3171   19.6420 H   0  0  0  0  0  0
  -26.7505  -32.4971   23.0778 H   0  0  0  0  0  0
  -25.0043  -33.9342   25.0037 H   0  0  0  0  0  0
  -22.8319  -31.2321   21.3108 H   0  0  0  0  0  0
  -23.3766  -35.9473   23.3237 H   0  0  0  0  0  0
  -24.3559  -36.8904   22.2082 H   0  0  0  0  0  0
  -23.7222  -37.6310   23.6776 H   0  0  0  0  0  0
  -26.2806  -31.2958   20.6148 H   0  0  0  0  0  0
  -26.9410  -30.6238   22.0620 H   0  0  0  0  0  0
  -28.2363  -28.5202   21.1537 H   0  0  0  0  0  0
  -25.9270  -25.6415   18.9641 H   0  0  0  0  0  0
  -24.0448  -27.1729   18.9807 H   0  0  0  0  0  0
  -23.9186  -30.4402   19.3765 H   0  0  0  0  0  0
  -22.8671  -29.1370   19.8294 H   0  0  0  0  0  0
  -25.1336  -36.1652   25.0766 H   0  0  0  0  0  0
  -21.0036  -28.3412   24.1281 H   0  0  0  0  0  0
  -20.5678  -26.2406   23.3662 H   0  0  0  0  0  0
  -21.6664  -26.7407   22.1212 H   0  0  0  0  0  0
  -19.6944  -25.6269   21.1299 H   0  0  0  0  0  0
  -19.6735  -27.3140   20.6708 H   0  0  0  0  0  0
  -17.4230  -26.6681   21.4022 H   0  0  0  0  0  0
  -18.0361  -26.0128   22.9042 H   0  0  0  0  0  0
  -19.7983  -30.7351   24.2161 H   0  0  0  0  0  0
  -17.5052  -31.6283   24.5171 H   0  0  0  0  0  0
  -15.5383  -30.2985   23.7727 H   0  0  0  0  0  0
  -15.8705  -28.0829   22.7119 H   0  0  0  0  0  0
  -24.5829  -30.7200   25.7571 H   0  0  0  0  0  0
  -24.8880  -32.3055   26.4555 H   0  0  0  0  0  0
  -25.7835  -30.9060   27.0166 H   0  0  0  0  0  0
  -26.3259  -29.6464   24.1523 H   0  0  0  0  0  0
  -27.3996  -29.7295   25.5252 H   0  0  0  0  0  0
  -27.9206  -30.4003   24.0024 H   0  0  0  0  0  0
  -27.2543  -33.3708   26.1906 H   0  0  0  0  0  0
  -28.3931  -32.6869   25.0404 H   0  0  0  0  0  0
  -28.0599  -31.8618   26.5560 H   0  0  0  0  0  0
  -28.2513  -38.0088   24.7546 H   0  0  0  0  0  0
  -28.1121  -36.2610   24.6219 H   0  0  0  0  0  0
  -27.2287  -37.1281   25.8862 H   0  0  0  0  0  0
  -20.9724  -29.8698   21.6555 H   0  0  0  0  0  0
  -26.0075  -38.2700   24.1471 H   0  0  0  0  0  0
  -29.9852  -11.8110   19.3605 H   0  0  0  0  0  0
  -28.6779  -17.0058   18.7332 H   0  0  0  0  0  0
  -28.4776  -21.5136   16.6656 H   0  0  0  0  0  0
  -28.8724  -19.7532   17.0517 H   0  0  0  0  0  0
  -29.5474  -23.3491   17.8627 H   0  0  0  0  0  0
  -30.6583  -23.0142   19.1085 H   0  0  0  0  0  0
  -27.6628  -21.0929   20.2641 H   0  0  0  0  0  0
  -28.0744  -21.0379   21.9075 H   0  0  0  0  0  0
  -29.2713  -23.2094   21.8645 H   0  0  0  0  0  0
  -27.5836  -23.2719   21.5864 H   0  0  0  0  0  0
  -29.3976  -19.2991   21.2028 H   0  0  0  0  0  0
  -30.5752  -20.5619   21.3307 H   0  0  0  0  0  0
  -29.6653  -24.4007   20.2280 H   0  0  0  0  0  0
  -32.6903  -11.5781   19.3867 H   0  0  0  0  0  0
  -33.5913  -12.8735   20.1842 H   0  0  0  0  0  0
  -33.6603  -12.6964   18.4202 H   0  0  0  0  0  0
  -34.1290  -15.0347   18.6349 H   0  0  0  0  0  0
  -33.7608  -16.1009   19.9967 H   0  0  0  0  0  0
  -33.5224  -16.6593   18.3379 H   0  0  0  0  0  0
  -27.4957  -15.0548   21.1393 H   0  0  0  0  0  0
  -27.5032  -16.4259   20.2396 H   0  0  0  0  0  0
  -31.0695  -18.5331   17.7859 H   0  0  0  0  0  0
  -31.9475  -18.5262   19.2540 H   0  0  0  0  0  0
  -29.2003  -16.8851   21.9545 H   0  0  0  0  0  0
  -31.1180  -20.2695   19.4676 H   0  0  0  0  0  0
  1 25  1  0  0  0
  1 30  2  0  0  0
  1 88  1  0  0  0
  2  3  1  0  0  0
  2 25  1  0  0  0
  2 90  1  0  0  0
  2 91  1  0  0  0
  3  4  1  0  0  0
  3 92  1  0  0  0
  3 93  1  0  0  0
  4  5  1  0  0  0
  4 94  1  0  0  0
  4 95  1  0  0  0
  5  6  1  0  0  0
  5 26  1  0  0  0
  5 96  1  0  0  0
  6 25  1  0  0  0
  6 97  1  0  0  0
  6 98  1  0  0  0
  7  8  2  0  0  0
  7 26  1  0  0  0
  7 29  1  0  0  0
  8  9  1  0  0  0
  8 22  1  0  0  0
  9 10  1  0  0  0
  9 27  2  0  0  0
 10 11  2  0  0  0
 10 15  1  0  0  0
 11 12  1  0  0  0
 11 99  1  0  0  0
 12 13  2  0  0  0
 12100  1  0  0  0
 13 14  1  0  0  0
 13 31  1  0  0  0
 14 15  2  0  0  0
 14101  1  0  0  0
 15102  1  0  0  0
 16 17  2  0  0  0
 16 21  1  0  0  0
 16 31  1  0  0  0
 17 18  1  0  0  0
 17103  1  0  0  0
 18 19  2  0  0  0
 18104  1  0  0  0
 19 20  1  0  0  0
 19 24  1  0  0  0
 20 21  2  0  0  0
 20105  1  0  0  0
 21 23  1  0  0  0
 22 28  1  0  0  0
 22 32  2  0  0  0
 26 27  1  0  0  0
 28106  1  0  0  0
 28107  1  0  0  0
 29108  1  0  0  0
 29109  1  0  0  0
 33 34  1  0  0  0
 33 66  1  0  0  0
 33 70  2  0  0  0
 34 36  1  0  0  0
 34 59  1  0  0  0
 34110  1  0  0  0
 35 44  2  0  0  0
 35 45  1  0  0  0
 35 68  1  0  0  0
 36 56  1  0  0  0
 36111  1  0  0  0
 37 39  1  0  0  0
 37 47  1  0  0  0
 37 66  1  0  0  0
 37112  1  0  0  0
 38 43  2  0  0  0
 38 46  1  0  0  0
 38 47  1  0  0  0
 39 64  1  0  0  0
 39 67  2  0  0  0
 40 52  1  0  0  0
 40 53  2  0  0  0
 40 58  1  0  0  0
 41113  1  0  0  0
 41114  1  0  0  0
 41115  1  0  0  0
 41 48  1  0  0  0
 42 43  1  0  0  0
 42 66  1  0  0  0
 42116  1  0  0  0
 42117  1  0  0  0
 43 44  1  0  0  0
 44118  1  0  0  0
 45 46  2  0  0  0
 45119  1  0  0  0
 46120  1  0  0  0
 47121  1  0  0  0
 47122  1  0  0  0
 48 56  1  0  0  0
 48 65  1  0  0  0
 48123  1  0  0  0
 49 50  1  0  0  0
 49 53  1  0  0  0
 49 64  1  0  0  0
 49124  1  0  0  0
 50 51  1  0  0  0
 50125  1  0  0  0
 50126  1  0  0  0
 51 52  1  0  0  0
 51127  1  0  0  0
 51128  1  0  0  0
 52129  1  0  0  0
 52130  1  0  0  0
 53 54  1  0  0  0
 54 55  2  0  0  0
 54131  1  0  0  0
 55 57  1  0  0  0
 55132  1  0  0  0
 56 69  2  0  0  0
 57 58  2  0  0  0
 57133  1  0  0  0
 58134  1  0  0  0
 59 60  1  0  0  0
 59 61  1  0  0  0
 59 62  1  0  0  0
 60135  1  0  0  0
 60136  1  0  0  0
 60137  1  0  0  0
 61138  1  0  0  0
 61139  1  0  0  0
 61140  1  0  0  0
 62141  1  0  0  0
 62142  1  0  0  0
 62143  1  0  0  0
 63 65  1  0  0  0
 63144  1  0  0  0
 63145  1  0  0  0
 63146  1  0  0  0
 64147  1  0  0  0
 65148  1  0  0  0
 68 83  1  0  0  0
 71 73  2  0  0  0
 71 74  1  0  0  0
 71149  1  0  0  0
 72 73  1  0  0  0
 72 75  2  0  0  0
 72150  1  0  0  0
 73 86  1  0  0  0
 74 76  2  0  0  0
 74 84  1  0  0  0
 75 76  1  0  0  0
 75 87  1  0  0  0
 76 85  1  0  0  0
 77 78  2  0  0  0
 77 79  1  0  0  0
 77 89  1  0  0  0
 78151  1  0  0  0
 78152  1  0  0  0
 79 83  1  0  0  0
 79153  1  0  0  0
 79154  1  0  0  0
 80 81  1  0  0  0
 80 82  1  0  0  0
 80155  1  0  0  0
 80156  1  0  0  0
 81 83  1  0  0  0
 81157  1  0  0  0
 81158  1  0  0  0
 82 89  1  0  0  0
 82159  1  0  0  0
 82160  1  0  0  0
 83161  1  0  0  0
 84162  1  0  0  0
 84163  1  0  0  0
 84164  1  0  0  0
 85165  1  0  0  0
 85166  1  0  0  0
 85167  1  0  0  0
 86 88  1  0  0  0
 86168  1  0  0  0
 86169  1  0  0  0
 87170  1  0  0  0
 87171  1  0  0  0
 87 89  1  0  0  0
 88172  1  0  0  0
 89173  1  0  0  0
M  CHG  1  89   1
M  ISO  4   1 100  68 101  83 101  88 100
M  END
> <chiral flag>
0

> <version>
0

> <s_m_source_file>
/data/baiqing/PycharmProjects/Reinvent-master-3.2/result/LINK_invent/BTK/process_docking_weight1_custom_product_contain_oxygen_bond_distance_aromatic_linkinvent_7_9_3/rearranged_h_0040.sdf

> <i_m_source_file_index>
52

> <r_mmod_Potential_Energy-OPLS-2005>
13770.9716796875

> <r_mmod_Stretch_Energy-OPLS-2005>
7360.00439453125

> <r_mmod_Bend_Energy-OPLS-2005>
1354.40344238281

> <r_mmod_Torsional_Energy-OPLS-2005>
492.64892578125

> <r_mmod_Improper_Torsional_Energy-OPLS-2005>
54.5612945556641

> <r_mmod_Van_der_Waal_Energy-OPLS-2005>
3288.72094726562

> <r_mmod_Electrostatic_Energy-OPLS-2005>
-290.866455078125

> <r_mmod_Solvation_Energy-OPLS-2005>
-453.019073486328

> <b_mmod_Minimization_Converged-OPLS-2005>
0

> <r_mmod_RMS_Derivative-OPLS-2005>
5.57947731018066

$$$$
52
                    3D
 Structure written by MMmdl.
172181  0  0  1  0            999 V2000
  -30.6384  -14.5142   20.5574 C   0  0  0  0  0  0
  -30.4387  -12.3268   19.4196 C   0  0  0  0  0  0
  -29.5018  -12.5092   18.2055 C   0  0  0  0  0  0
  -28.0199  -12.3641   18.6141 C   0  0  0  0  0  0
  -27.6612  -13.1968   19.8736 C   0  0  2  0  0  0
  -28.7032  -12.9604   20.9896 C   0  0  0  0  0  0
  -25.2597  -13.8137   20.5674 C   0  0  0  0  0  0
  -24.1830  -13.0434   20.9167 C   0  0  0  0  0  0
  -24.6369  -11.6895   20.8723 C   0  0  0  0  0  0
  -23.9031  -10.4292   21.0398 C   0  0  0  0  0  0
  -24.3588   -9.4214   21.9181 C   0  0  0  0  0  0
  -23.6270   -8.2248   22.0752 C   0  0  0  0  0  0
  -22.4257   -8.0282   21.3544 C   0  0  0  0  0  0
  -21.9884   -9.0253   20.4647 C   0  0  0  0  0  0
  -22.7207  -10.2135   20.3052 C   0  0  0  0  0  0
  -21.6855   -6.0724   22.5273 C   0  0  0  0  0  0
  -21.4019   -6.5627   23.8205 C   0  0  0  0  0  0
  -21.3663   -5.6782   24.9168 C   0  0  0  0  0  0
  -21.6042   -4.3043   24.7221 C   0  0  0  0  0  0
  -21.8821   -3.8138   23.4345 C   0  0  0  0  0  0
  -21.9194   -4.6952   22.3399 C   0  0  0  0  0  0
  -22.7862  -13.5256   21.1838 C   0  0  0  0  0  0
  -22.1660   -4.2139   21.0978 F   0  0  0  0  0  0
  -21.5630   -3.4529   25.7735 F   0  0  0  0  0  0
  -30.0306  -13.3003   20.4426 N   0  0  0  0  0  0
  -26.3009  -12.9280   20.3341 N   0  0  0  0  0  0
  -25.9287  -11.6452   20.5740 N   0  0  0  0  0  0
  -22.0481  -12.8267   22.0391 N   0  0  0  0  0  0
  -25.4356  -15.1855   20.4106 N   0  0  0  0  0  0
  -31.7863  -14.7217   20.1536 O   0  0  0  0  0  0
  -21.6636   -6.8870   21.4235 O   0  0  0  0  0  0
  -22.3564  -14.5576   20.6696 O   0  0  0  0  0  0
  -24.6147  -31.8673   23.2085 C   0  0  0  0  0  0
  -25.9038  -32.4816   23.8388 C   0  0  1  0  0  0
  -27.2391  -27.4271   20.1089 C   0  0  0  0  0  0
  -25.5888  -33.8614   24.2323 N   0  0  0  0  0  0
  -23.4032  -30.4893   21.5488 C   0  0  2  0  0  0
  -24.8516  -28.9466   20.1225 C   0  0  0  0  0  0
  -22.7402  -29.4663   22.4991 C   0  0  0  0  0  0
  -18.0270  -28.1376   22.8491 C   0  0  0  0  0  0
  -24.1484  -36.7316   23.2636 C   0  0  0  0  0  0
  -25.9309  -30.8320   21.3606 C   0  0  0  0  0  0
  -26.0107  -29.4617   20.7165 C   0  0  0  0  0  0
  -27.2090  -28.7106   20.7032 C   0  0  0  0  0  0
  -26.0638  -26.9234   19.5145 C   0  0  0  0  0  0
  -24.8727  -27.6761   19.5197 C   0  0  0  0  0  0
  -23.6133  -29.8147   20.1663 C   0  0  0  0  0  0
  -25.4102  -36.3108   24.0337 C   0  0  1  0  0  0
  -20.5858  -28.3666   23.1313 C   0  0  2  0  0  0
  -20.6759  -26.9401   22.5414 C   0  0  0  0  0  0
  -19.5738  -26.6384   21.5208 C   0  0  0  0  0  0
  -18.1917  -26.7924   22.1620 C   0  0  0  0  0  0
  -19.1518  -28.8838   23.2901 C   0  0  0  0  0  0
  -18.9450  -30.1441   23.8913 C   0  0  0  0  0  0
  -17.6454  -30.6584   24.0565 C   0  0  0  0  0  0
  -25.9032  -34.9471   23.5129 C   0  0  0  0  0  0
  -16.5346  -29.9086   23.6323 C   0  0  0  0  0  0
  -16.7259  -28.6503   23.0347 C   0  0  0  0  0  0
  -26.4468  -31.6591   25.0712 C   0  0  0  0  0  0
  -25.3741  -31.3702   26.1468 C   0  0  0  0  0  0
  -27.0296  -30.3034   24.6076 C   0  0  0  0  0  0
  -27.6049  -32.4303   25.7474 C   0  0  0  0  0  0
  -27.5579  -37.1809   24.8462 C   0  0  0  0  0  0
  -21.4133  -29.3037   22.3724 N   0  0  0  0  0  0
  -26.4289  -37.3793   23.9409 N   0  0  0  0  0  0
  -24.6679  -31.0774   22.0981 N   0  0  0  0  0  0
  -23.4173  -28.8205   23.3038 O   0  0  0  0  0  0
  -28.4185  -26.7168   20.0343 O   0  0  0  0  0  0
  -26.5600  -34.8925   22.4696 O   0  0  0  0  0  0
  -23.5341  -32.1423   23.7480 O   0  0  0  0  0  0
  -30.4549  -19.2380   20.6553 C   0  0  0  0  0  0
  -29.0630  -17.4058   22.2245 C   0  0  0  0  0  0
  -29.6713  -19.7341   21.7276 C   0  0  0  0  0  0
  -30.5345  -17.8513   20.3508 C   0  0  0  0  0  0
  -28.9492  -18.7864   22.5052 C   0  0  0  0  0  0
  -29.8654  -16.9033   21.1791 C   0  0  0  0  0  0
  -30.4727  -24.4006   22.1899 C   0  0  0  0  0  0
  -29.9335  -25.6537   21.4746 C   0  0  0  0  0  0
  -28.4129  -24.2286   19.9496 C   0  0  0  0  0  0
  -30.8353  -23.2503   21.2198 C   0  0  0  0  0  0
  -28.4025  -22.8787   20.7424 C   0  0  0  0  0  0
  -28.5451  -25.5154   20.8183 C   0  0  2  0  0  0
  -31.3141  -17.4520   19.1107 C   0  0  0  0  0  0
  -28.8768  -19.4314   24.9671 C   0  0  0  0  0  0
  -28.0689  -19.1862   23.6850 C   0  0  0  0  0  0
  -29.7211  -21.2312   22.1246 C   0  0  0  0  0  0
  -29.8049  -15.4753   21.0207 N   0  0  0  0  0  0
  -29.7396  -22.2580   21.0290 N   0  3  2  0  0  0
  -31.4801  -12.4556   19.1190 H   0  0  0  0  0  0
  -30.3648  -11.3130   19.8160 H   0  0  0  0  0  0
  -29.7470  -11.7831   17.4295 H   0  0  0  0  0  0
  -29.6645  -13.4932   17.7626 H   0  0  0  0  0  0
  -27.8292  -11.3074   18.8053 H   0  0  0  0  0  0
  -27.3732  -12.6437   17.7818 H   0  0  0  0  0  0
  -27.7063  -14.2458   19.5804 H   0  0  0  0  0  0
  -28.6912  -11.9144   21.2993 H   0  0  0  0  0  0
  -28.4571  -13.5254   21.8904 H   0  0  0  0  0  0
  -25.2727   -9.5700   22.4754 H   0  0  0  0  0  0
  -23.9984   -7.4642   22.7469 H   0  0  0  0  0  0
  -21.0815   -8.8764   19.8953 H   0  0  0  0  0  0
  -22.3655  -10.9669   19.6161 H   0  0  0  0  0  0
  -21.2013   -7.6134   23.9707 H   0  0  0  0  0  0
  -21.1482   -6.0510   25.9071 H   0  0  0  0  0  0
  -22.0597   -2.7598   23.2846 H   0  0  0  0  0  0
  -22.4064  -11.9918   22.4788 H   0  0  0  0  0  0
  -21.1107  -13.1321   22.2588 H   0  0  0  0  0  0
  -24.6725  -15.8442   20.5216 H   0  0  0  0  0  0
  -26.2899  -15.6230   20.0891 H   0  0  0  0  0  0
  -26.7112  -32.5537   23.1159 H   0  0  0  0  0  0
  -25.0051  -33.9775   25.0476 H   0  0  0  0  0  0
  -22.6921  -31.3057   21.4054 H   0  0  0  0  0  0
  -23.3740  -35.9654   23.3300 H   0  0  0  0  0  0
  -24.3584  -36.8931   22.2051 H   0  0  0  0  0  0
  -23.7241  -37.6522   23.6653 H   0  0  0  0  0  0
  -26.0374  -31.5929   20.5864 H   0  0  0  0  0  0
  -26.8205  -30.8932   21.9754 H   0  0  0  0  0  0
  -28.1103  -29.1126   21.1445 H   0  0  0  0  0  0
  -26.0689  -25.9612   19.0257 H   0  0  0  0  0  0
  -23.9831  -27.2748   19.0539 H   0  0  0  0  0  0
  -23.7218  -30.5849   19.4019 H   0  0  0  0  0  0
  -22.7377  -29.2327   19.8731 H   0  0  0  0  0  0
  -25.1275  -36.1975   25.0829 H   0  0  0  0  0  0
  -20.9950  -28.3232   24.1433 H   0  0  0  0  0  0
  -20.5651  -26.2275   23.3603 H   0  0  0  0  0  0
  -21.6633  -26.7441   22.1213 H   0  0  0  0  0  0
  -19.6899  -25.6299   21.1227 H   0  0  0  0  0  0
  -19.6674  -27.3204   20.6745 H   0  0  0  0  0  0
  -17.4184  -26.6670   21.4025 H   0  0  0  0  0  0
  -18.0322  -26.0064   22.9015 H   0  0  0  0  0  0
  -19.7929  -30.7250   24.2291 H   0  0  0  0  0  0
  -17.5015  -31.6268   24.5158 H   0  0  0  0  0  0
  -15.5349  -30.2997   23.7640 H   0  0  0  0  0  0
  -15.8658  -28.0829   22.7056 H   0  0  0  0  0  0
  -24.5903  -30.7058   25.7812 H   0  0  0  0  0  0
  -24.8947  -32.2862   26.4931 H   0  0  0  0  0  0
  -25.8101  -30.8862   27.0215 H   0  0  0  0  0  0
  -26.2835  -29.6799   24.1134 H   0  0  0  0  0  0
  -27.4078  -29.7267   25.4526 H   0  0  0  0  0  0
  -27.8663  -30.4360   23.9213 H   0  0  0  0  0  0
  -27.2679  -33.3604   26.2062 H   0  0  0  0  0  0
  -28.3856  -32.6852   25.0296 H   0  0  0  0  0  0
  -28.0711  -31.8412   26.5382 H   0  0  0  0  0  0
  -28.2595  -38.0107   24.7511 H   0  0  0  0  0  0
  -28.1074  -36.2639   24.6278 H   0  0  0  0  0  0
  -27.2303  -37.1453   25.8867 H   0  0  0  0  0  0
  -20.9286  -29.8774   21.6962 H   0  0  0  0  0  0
  -26.0177  -38.2870   24.1408 H   0  0  0  0  0  0
  -31.0221  -19.9317   20.0504 H   0  0  0  0  0  0
  -28.5158  -16.7079   22.8437 H   0  0  0  0  0  0
  -29.7937  -24.0722   22.9774 H   0  0  0  0  0  0
  -31.3863  -24.6967   22.7066 H   0  0  0  0  0  0
  -30.6598  -25.9616   20.7211 H   0  0  0  0  0  0
  -29.8954  -26.4781   22.1883 H   0  0  0  0  0  0
  -27.4578  -24.2858   19.4304 H   0  0  0  0  0  0
  -29.1576  -24.2161   19.1540 H   0  0  0  0  0  0
  -31.7366  -22.7437   21.5689 H   0  0  0  0  0  0
  -31.1300  -23.6558   20.2514 H   0  0  0  0  0  0
  -27.8273  -22.1415   20.1808 H   0  0  0  0  0  0
  -27.8468  -23.0349   21.6677 H   0  0  0  0  0  0
  -27.7848  -25.4988   21.6021 H   0  0  0  0  0  0
  -31.3777  -18.2800   18.4043 H   0  0  0  0  0  0
  -30.8306  -16.6274   18.5874 H   0  0  0  0  0  0
  -32.3306  -17.1611   19.3746 H   0  0  0  0  0  0
  -28.2194  -19.7011   25.7947 H   0  0  0  0  0  0
  -29.6006  -20.2368   24.8460 H   0  0  0  0  0  0
  -29.4248  -18.5356   25.2609 H   0  0  0  0  0  0
  -27.3457  -18.3916   23.8758 H   0  0  0  0  0  0
  -27.4560  -20.0514   23.4337 H   0  0  0  0  0  0
  -30.6233  -21.3132   22.7308 H   0  0  0  0  0  0
  -28.9288  -21.4920   22.8212 H   0  0  0  0  0  0
  -28.9516  -15.0677   21.3696 H   0  0  0  0  0  0
  -29.9965  -21.7471   20.1979 H   0  0  0  0  0  0
  1 25  1  0  0  0
  1 30  2  0  0  0
  1 87  1  0  0  0
  2  3  1  0  0  0
  2 25  1  0  0  0
  2 89  1  0  0  0
  2 90  1  0  0  0
  3  4  1  0  0  0
  3 91  1  0  0  0
  3 92  1  0  0  0
  4  5  1  0  0  0
  4 93  1  0  0  0
  4 94  1  0  0  0
  5  6  1  0  0  0
  5 26  1  0  0  0
  5 95  1  0  0  0
  6 25  1  0  0  0
  6 96  1  0  0  0
  6 97  1  0  0  0
  7  8  2  0  0  0
  7 26  1  0  0  0
  7 29  1  0  0  0
  8  9  1  0  0  0
  8 22  1  0  0  0
  9 10  1  0  0  0
  9 27  2  0  0  0
 10 11  2  0  0  0
 10 15  1  0  0  0
 11 12  1  0  0  0
 11 98  1  0  0  0
 12 13  2  0  0  0
 12 99  1  0  0  0
 13 14  1  0  0  0
 13 31  1  0  0  0
 14 15  2  0  0  0
 14100  1  0  0  0
 15101  1  0  0  0
 16 17  2  0  0  0
 16 21  1  0  0  0
 16 31  1  0  0  0
 17 18  1  0  0  0
 17102  1  0  0  0
 18 19  2  0  0  0
 18103  1  0  0  0
 19 20  1  0  0  0
 19 24  1  0  0  0
 20 21  2  0  0  0
 20104  1  0  0  0
 21 23  1  0  0  0
 22 28  1  0  0  0
 22 32  2  0  0  0
 26 27  1  0  0  0
 28105  1  0  0  0
 28106  1  0  0  0
 29107  1  0  0  0
 29108  1  0  0  0
 33 34  1  0  0  0
 33 66  1  0  0  0
 33 70  2  0  0  0
 34 36  1  0  0  0
 34 59  1  0  0  0
 34109  1  0  0  0
 35 44  2  0  0  0
 35 45  1  0  0  0
 35 68  1  0  0  0
 36 56  1  0  0  0
 36110  1  0  0  0
 37 39  1  0  0  0
 37 47  1  0  0  0
 37 66  1  0  0  0
 37111  1  0  0  0
 38 43  2  0  0  0
 38 46  1  0  0  0
 38 47  1  0  0  0
 39 64  1  0  0  0
 39 67  2  0  0  0
 40 52  1  0  0  0
 40 53  2  0  0  0
 40 58  1  0  0  0
 41112  1  0  0  0
 41113  1  0  0  0
 41114  1  0  0  0
 41 48  1  0  0  0
 42 43  1  0  0  0
 42 66  1  0  0  0
 42115  1  0  0  0
 42116  1  0  0  0
 43 44  1  0  0  0
 44117  1  0  0  0
 45 46  2  0  0  0
 45118  1  0  0  0
 46119  1  0  0  0
 47120  1  0  0  0
 47121  1  0  0  0
 48 56  1  0  0  0
 48 65  1  0  0  0
 48122  1  0  0  0
 49 50  1  0  0  0
 49 53  1  0  0  0
 49 64  1  0  0  0
 49123  1  0  0  0
 50 51  1  0  0  0
 50124  1  0  0  0
 50125  1  0  0  0
 51 52  1  0  0  0
 51126  1  0  0  0
 51127  1  0  0  0
 52128  1  0  0  0
 52129  1  0  0  0
 53 54  1  0  0  0
 54 55  2  0  0  0
 54130  1  0  0  0
 55 57  1  0  0  0
 55131  1  0  0  0
 56 69  2  0  0  0
 57 58  2  0  0  0
 57132  1  0  0  0
 58133  1  0  0  0
 59 60  1  0  0  0
 59 61  1  0  0  0
 59 62  1  0  0  0
 60134  1  0  0  0
 60135  1  0  0  0
 60136  1  0  0  0
 61137  1  0  0  0
 61138  1  0  0  0
 61139  1  0  0  0
 62140  1  0  0  0
 62141  1  0  0  0
 62142  1  0  0  0
 63 65  1  0  0  0
 63143  1  0  0  0
 63144  1  0  0  0
 63145  1  0  0  0
 64146  1  0  0  0
 65147  1  0  0  0
 68 82  1  0  0  0
 71 73  2  0  0  0
 71 74  1  0  0  0
 71148  1  0  0  0
 72 75  2  0  0  0
 72 76  1  0  0  0
 72149  1  0  0  0
 73 75  1  0  0  0
 73 86  1  0  0  0
 74 76  2  0  0  0
 74 83  1  0  0  0
 75 85  1  0  0  0
 76 87  1  0  0  0
 77 78  1  0  0  0
 77 80  1  0  0  0
 77150  1  0  0  0
 77151  1  0  0  0
 78 82  1  0  0  0
 78152  1  0  0  0
 78153  1  0  0  0
 79 81  1  0  0  0
 79 82  1  0  0  0
 79154  1  0  0  0
 79155  1  0  0  0
 80 88  1  0  0  0
 80156  1  0  0  0
 80157  1  0  0  0
 81 88  1  0  0  0
 81158  1  0  0  0
 81159  1  0  0  0
 82160  1  0  0  0
 83161  1  0  0  0
 83162  1  0  0  0
 83163  1  0  0  0
 84 85  1  0  0  0
 84164  1  0  0  0
 84165  1  0  0  0
 84166  1  0  0  0
 85167  1  0  0  0
 85168  1  0  0  0
 86169  1  0  0  0
 86170  1  0  0  0
 86 88  1  0  0  0
 87171  1  0  0  0
 88172  1  0  0  0
M  CHG  1  88   1
M  ISO  4   1 100  68 101  82 101  87 100
M  END
> <chiral flag>
0

> <version>
0

> <s_m_source_file>
/data/baiqing/PycharmProjects/Reinvent-master-3.2/result/LINK_invent/BTK/process_docking_weight1_custom_product_contain_oxygen_bond_distance_aromatic_linkinvent_7_9_3/rearranged_h_0040.sdf

> <i_m_source_file_index>
53

> <r_mmod_Potential_Energy-OPLS-2005>
-82.5744400024414

> <r_mmod_Stretch_Energy-OPLS-2005>
47.3023796081543

> <r_mmod_Bend_Energy-OPLS-2005>
142.11784362793

> <r_mmod_Torsional_Energy-OPLS-2005>
286.547790527344

> <r_mmod_Improper_Torsional_Energy-OPLS-2005>
4.35093927383423

> <r_mmod_Van_der_Waal_Energy-OPLS-2005>
155.733688354492

> <r_mmod_Electrostatic_Energy-OPLS-2005>
-305.292022705078

> <r_mmod_Solvation_Energy-OPLS-2005>
-428.874572753906

> <b_mmod_Minimization_Converged-OPLS-2005>
0

> <r_mmod_RMS_Derivative-OPLS-2005>
1.0379730463028

$$$$
53
                    3D
 Structure written by MMmdl.
173182  0  0  1  0            999 V2000
  -30.7289  -14.4934   20.6107 C   0  0  0  0  0  0
  -30.4098  -12.3291   19.4507 C   0  0  0  0  0  0
  -29.4936  -12.5115   18.2244 C   0  0  0  0  0  0
  -28.0164  -12.3584   18.6325 C   0  0  0  0  0  0
  -27.6515  -13.2166   19.8727 C   0  0  2  0  0  0
  -28.6885  -13.0413   21.0059 C   0  0  0  0  0  0
  -25.2526  -13.8177   20.5685 C   0  0  0  0  0  0
  -24.1803  -13.0452   20.9179 C   0  0  0  0  0  0
  -24.6362  -11.6915   20.8729 C   0  0  0  0  0  0
  -23.9046  -10.4296   21.0395 C   0  0  0  0  0  0
  -24.3606   -9.4209   21.9171 C   0  0  0  0  0  0
  -23.6286   -8.2248   22.0739 C   0  0  0  0  0  0
  -22.4266   -8.0286   21.3542 C   0  0  0  0  0  0
  -21.9904   -9.0247   20.4633 C   0  0  0  0  0  0
  -22.7224  -10.2128   20.3039 C   0  0  0  0  0  0
  -21.6842   -6.0741   22.5271 C   0  0  0  0  0  0
  -21.4016   -6.5638   23.8207 C   0  0  0  0  0  0
  -21.3668   -5.6790   24.9167 C   0  0  0  0  0  0
  -21.6041   -4.3054   24.7207 C   0  0  0  0  0  0
  -21.8822   -3.8151   23.4325 C   0  0  0  0  0  0
  -21.9192   -4.6972   22.3388 C   0  0  0  0  0  0
  -22.7821  -13.5218   21.1854 C   0  0  0  0  0  0
  -22.1662   -4.2161   21.0965 F   0  0  0  0  0  0
  -21.5632   -3.4536   25.7720 F   0  0  0  0  0  0
  -30.0194  -13.3375   20.4562 N   0  0  0  0  0  0
  -26.2961  -12.9366   20.3359 N   0  0  0  0  0  0
  -25.9288  -11.6517   20.5764 N   0  0  0  0  0  0
  -22.0472  -12.8216   22.0414 N   0  0  0  0  0  0
  -25.4249  -15.1905   20.4092 N   0  0  0  0  0  0
  -31.8349  -14.6403   20.0836 O   0  0  0  0  0  0
  -21.6634   -6.8886   21.4238 O   0  0  0  0  0  0
  -22.3508  -14.5527   20.6690 O   0  0  0  0  0  0
  -24.6154  -31.8644   23.2068 C   0  0  0  0  0  0
  -25.9041  -32.4785   23.8365 C   0  0  1  0  0  0
  -27.2189  -27.3813   20.1204 C   0  0  0  0  0  0
  -25.5907  -33.8589   24.2312 N   0  0  0  0  0  0
  -23.4018  -30.4928   21.5436 C   0  0  2  0  0  0
  -24.8444  -28.9548   20.1122 C   0  0  0  0  0  0
  -22.7404  -29.4643   22.4885 C   0  0  0  0  0  0
  -18.0294  -28.1389   22.8458 C   0  0  0  0  0  0
  -24.1492  -36.7331   23.2638 C   0  0  0  0  0  0
  -25.9347  -30.8124   21.3680 C   0  0  0  0  0  0
  -26.0039  -29.4404   20.7270 C   0  0  0  0  0  0
  -27.1852  -28.6572   20.7379 C   0  0  0  0  0  0
  -26.0491  -26.9520   19.4537 C   0  0  0  0  0  0
  -24.8638  -27.7061   19.4761 C   0  0  0  0  0  0
  -23.6135  -29.8338   20.1561 C   0  0  0  0  0  0
  -25.4097  -36.3086   24.0345 C   0  0  1  0  0  0
  -20.5903  -28.3649   23.1289 C   0  0  2  0  0  0
  -20.6781  -26.9367   22.5401 C   0  0  0  0  0  0
  -19.5767  -26.6373   21.5197 C   0  0  0  0  0  0
  -18.1941  -26.7919   22.1600 C   0  0  0  0  0  0
  -19.1545  -28.8826   23.2880 C   0  0  0  0  0  0
  -18.9472  -30.1441   23.8856 C   0  0  0  0  0  0
  -17.6475  -30.6574   24.0545 C   0  0  0  0  0  0
  -25.9031  -34.9450   23.5121 C   0  0  0  0  0  0
  -16.5366  -29.9061   23.6337 C   0  0  0  0  0  0
  -16.7283  -28.6511   23.0284 C   0  0  0  0  0  0
  -26.4448  -31.6572   25.0708 C   0  0  0  0  0  0
  -25.3747  -31.3738   26.1495 C   0  0  0  0  0  0
  -27.0298  -30.3008   24.6124 C   0  0  0  0  0  0
  -27.6000  -32.4310   25.7509 C   0  0  0  0  0  0
  -27.5575  -37.1811   24.8468 C   0  0  0  0  0  0
  -21.4122  -29.3031   22.3665 N   0  0  0  0  0  0
  -26.4273  -37.3779   23.9435 N   0  0  0  0  0  0
  -24.6690  -31.0731   22.0982 N   0  0  0  0  0  0
  -23.4188  -28.8148   23.2887 O   0  0  0  0  0  0
  -28.4221  -26.6862   20.1019 O   0  0  0  0  0  0
  -26.5553  -34.8898   22.4659 O   0  0  0  0  0  0
  -23.5346  -32.1416   23.7453 O   0  0  0  0  0  0
  -30.4928  -19.0051   20.7563 C   0  0  0  0  0  0
  -30.2724  -18.0949   21.8125 C   0  0  0  0  0  0
  -29.6607  -18.5770   23.0007 C   0  0  0  0  0  0
  -29.4444  -19.9803   23.1844 C   0  0  0  0  0  0
  -29.8159  -20.9082   22.1609 C   0  0  0  0  0  0
  -30.2662  -20.3877   20.9211 C   0  0  0  0  0  0
  -29.1565  -24.7362   21.5264 C   0  0  0  0  0  0
  -29.8597  -25.4772   22.4056 C   0  0  0  0  0  0
  -26.3404  -23.7992   20.2543 C   0  0  0  0  0  0
  -26.3974  -23.9380   21.7873 C   0  0  0  0  0  0
  -27.6192  -24.2363   19.4799 C   0  0  0  0  0  0
  -27.4975  -23.0790   22.4368 C   0  0  0  0  0  0
  -28.6012  -25.2337   20.1707 C   0  0  2  0  0  0
  -29.3132  -17.5963   24.1213 C   0  0  0  0  0  0
  -28.8798  -20.4615   24.5234 C   0  0  0  0  0  0
  -30.9416  -16.7050   21.7267 C   0  0  0  0  0  0
  -29.8996  -22.4411   22.3932 C   0  0  0  0  0  0
  -30.1703  -15.5057   21.3196 N   0  0  0  0  0  0
  -28.8171  -23.2773   21.7858 N   0  3  2  0  0  0
  -30.6321  -21.4485   19.6025 Cl  0  0  0  0  0  0
  -31.4567  -12.4084   19.1550 H   0  0  0  0  0  0
  -30.3018  -11.3238   19.8643 H   0  0  0  0  0  0
  -29.7436  -11.7861   17.4497 H   0  0  0  0  0  0
  -29.6569  -13.4973   17.7897 H   0  0  0  0  0  0
  -27.8413  -11.3028   18.8516 H   0  0  0  0  0  0
  -27.3619  -12.6070   17.7954 H   0  0  0  0  0  0
  -27.6820  -14.2563   19.5479 H   0  0  0  0  0  0
  -28.6654  -12.0169   21.3808 H   0  0  0  0  0  0
  -28.4375  -13.6713   21.8605 H   0  0  0  0  0  0
  -25.2740   -9.5695   22.4759 H   0  0  0  0  0  0
  -23.9992   -7.4635   22.7447 H   0  0  0  0  0  0
  -21.0842   -8.8753   19.8927 H   0  0  0  0  0  0
  -22.3666  -10.9669   19.6155 H   0  0  0  0  0  0
  -21.2011   -7.6142   23.9716 H   0  0  0  0  0  0
  -21.1489   -6.0514   25.9073 H   0  0  0  0  0  0
  -22.0595   -2.7613   23.2807 H   0  0  0  0  0  0
  -22.4088  -11.9875   22.4815 H   0  0  0  0  0  0
  -21.1079  -13.1237   22.2597 H   0  0  0  0  0  0
  -24.6616  -15.8497   20.5137 H   0  0  0  0  0  0
  -26.2824  -15.6266   20.0950 H   0  0  0  0  0  0
  -26.7066  -32.5438   23.1077 H   0  0  0  0  0  0
  -25.0133  -33.9765   25.0507 H   0  0  0  0  0  0
  -22.6932  -31.3126   21.4072 H   0  0  0  0  0  0
  -23.3723  -35.9695   23.3290 H   0  0  0  0  0  0
  -24.3602  -36.8966   22.2065 H   0  0  0  0  0  0
  -23.7293  -37.6554   23.6655 H   0  0  0  0  0  0
  -26.0527  -31.5675   20.5903 H   0  0  0  0  0  0
  -26.8248  -30.8706   21.9813 H   0  0  0  0  0  0
  -28.0766  -29.0246   21.2273 H   0  0  0  0  0  0
  -26.0204  -26.0682   18.8501 H   0  0  0  0  0  0
  -23.9833  -27.3302   18.9711 H   0  0  0  0  0  0
  -23.7272  -30.6149   19.4013 H   0  0  0  0  0  0
  -22.7339  -29.2668   19.8500 H   0  0  0  0  0  0
  -25.1281  -36.1923   25.0837 H   0  0  0  0  0  0
  -21.0012  -28.3190   24.1407 H   0  0  0  0  0  0
  -20.5709  -26.2207   23.3567 H   0  0  0  0  0  0
  -21.6634  -26.7386   22.1191 H   0  0  0  0  0  0
  -19.6899  -25.6288   21.1211 H   0  0  0  0  0  0
  -19.6741  -27.3177   20.6738 H   0  0  0  0  0  0
  -17.4209  -26.6665   21.4006 H   0  0  0  0  0  0
  -18.0315  -26.0100   22.9041 H   0  0  0  0  0  0
  -19.7957  -30.7294   24.2161 H   0  0  0  0  0  0
  -17.5035  -31.6243   24.5162 H   0  0  0  0  0  0
  -15.5354  -30.2942   23.7727 H   0  0  0  0  0  0
  -15.8683  -28.0870   22.6921 H   0  0  0  0  0  0
  -24.5885  -30.7071   25.7928 H   0  0  0  0  0  0
  -24.8974  -32.2926   26.4938 H   0  0  0  0  0  0
  -25.8148  -30.8972   27.0260 H   0  0  0  0  0  0
  -26.2867  -29.6776   24.1114 H   0  0  0  0  0  0
  -27.4026  -29.7252   25.4608 H   0  0  0  0  0  0
  -27.8726  -30.4354   23.9334 H   0  0  0  0  0  0
  -27.2547  -33.3585   26.2087 H   0  0  0  0  0  0
  -28.3812  -32.6914   25.0364 H   0  0  0  0  0  0
  -28.0601  -31.8427   26.5456 H   0  0  0  0  0  0
  -28.2557  -38.0132   24.7487 H   0  0  0  0  0  0
  -28.1092  -36.2657   24.6287 H   0  0  0  0  0  0
  -27.2304  -37.1476   25.8871 H   0  0  0  0  0  0
  -20.9191  -29.8837   21.7014 H   0  0  0  0  0  0
  -26.0152  -38.2859   24.1412 H   0  0  0  0  0  0
  -30.9405  -18.6612   19.8332 H   0  0  0  0  0  0
  -30.0924  -26.5096   22.1885 H   0  0  0  0  0  0
  -30.2267  -25.0821   23.3414 H   0  0  0  0  0  0
  -25.4659  -24.3455   19.9068 H   0  0  0  0  0  0
  -26.1189  -22.7641   19.9947 H   0  0  0  0  0  0
  -25.4333  -23.6524   22.2106 H   0  0  0  0  0  0
  -26.5280  -24.9872   22.0626 H   0  0  0  0  0  0
  -27.3759  -24.5616   18.4686 H   0  0  0  0  0  0
  -28.1825  -23.3215   19.2831 H   0  0  0  0  0  0
  -27.2143  -22.0267   22.3842 H   0  0  0  0  0  0
  -27.5667  -23.3327   23.4941 H   0  0  0  0  0  0
  -29.4943  -25.1499   19.5498 H   0  0  0  0  0  0
  -29.2777  -16.5648   23.7726 H   0  0  0  0  0  0
  -28.3263  -17.7914   24.5379 H   0  0  0  0  0  0
  -30.0452  -17.6546   24.9283 H   0  0  0  0  0  0
  -29.5836  -20.2550   25.3311 H   0  0  0  0  0  0
  -27.9413  -19.9564   24.7518 H   0  0  0  0  0  0
  -28.6475  -21.5219   24.5694 H   0  0  0  0  0  0
  -31.4035  -16.4939   22.6912 H   0  0  0  0  0  0
  -31.7950  -16.8431   21.0623 H   0  0  0  0  0  0
  -30.8567  -22.7673   21.9830 H   0  0  0  0  0  0
  -29.9958  -22.6786   23.4514 H   0  0  0  0  0  0
  -29.2521  -15.3735   21.7148 H   0  0  0  0  0  0
  -28.6970  -22.8701   20.8689 H   0  0  0  0  0  0
  1 25  1  0  0  0
  1 30  2  0  0  0
  1 88  1  0  0  0
  2  3  1  0  0  0
  2 25  1  0  0  0
  2 91  1  0  0  0
  2 92  1  0  0  0
  3  4  1  0  0  0
  3 93  1  0  0  0
  3 94  1  0  0  0
  4  5  1  0  0  0
  4 95  1  0  0  0
  4 96  1  0  0  0
  5  6  1  0  0  0
  5 26  1  0  0  0
  5 97  1  0  0  0
  6 25  1  0  0  0
  6 98  1  0  0  0
  6 99  1  0  0  0
  7  8  2  0  0  0
  7 26  1  0  0  0
  7 29  1  0  0  0
  8  9  1  0  0  0
  8 22  1  0  0  0
  9 10  1  0  0  0
  9 27  2  0  0  0
 10 11  2  0  0  0
 10 15  1  0  0  0
 11 12  1  0  0  0
 11100  1  0  0  0
 12 13  2  0  0  0
 12101  1  0  0  0
 13 14  1  0  0  0
 13 31  1  0  0  0
 14 15  2  0  0  0
 14102  1  0  0  0
 15103  1  0  0  0
 16 17  2  0  0  0
 16 21  1  0  0  0
 16 31  1  0  0  0
 17 18  1  0  0  0
 17104  1  0  0  0
 18 19  2  0  0  0
 18105  1  0  0  0
 19 20  1  0  0  0
 19 24  1  0  0  0
 20 21  2  0  0  0
 20106  1  0  0  0
 21 23  1  0  0  0
 22 28  1  0  0  0
 22 32  2  0  0  0
 26 27  1  0  0  0
 28107  1  0  0  0
 28108  1  0  0  0
 29109  1  0  0  0
 29110  1  0  0  0
 33 34  1  0  0  0
 33 66  1  0  0  0
 33 70  2  0  0  0
 34 36  1  0  0  0
 34 59  1  0  0  0
 34111  1  0  0  0
 35 44  2  0  0  0
 35 45  1  0  0  0
 35 68  1  0  0  0
 36 56  1  0  0  0
 36112  1  0  0  0
 37 39  1  0  0  0
 37 47  1  0  0  0
 37 66  1  0  0  0
 37113  1  0  0  0
 38 43  2  0  0  0
 38 46  1  0  0  0
 38 47  1  0  0  0
 39 64  1  0  0  0
 39 67  2  0  0  0
 40 52  1  0  0  0
 40 53  2  0  0  0
 40 58  1  0  0  0
 41114  1  0  0  0
 41115  1  0  0  0
 41116  1  0  0  0
 41 48  1  0  0  0
 42 43  1  0  0  0
 42 66  1  0  0  0
 42117  1  0  0  0
 42118  1  0  0  0
 43 44  1  0  0  0
 44119  1  0  0  0
 45 46  2  0  0  0
 45120  1  0  0  0
 46121  1  0  0  0
 47122  1  0  0  0
 47123  1  0  0  0
 48 56  1  0  0  0
 48 65  1  0  0  0
 48124  1  0  0  0
 49 50  1  0  0  0
 49 53  1  0  0  0
 49 64  1  0  0  0
 49125  1  0  0  0
 50 51  1  0  0  0
 50126  1  0  0  0
 50127  1  0  0  0
 51 52  1  0  0  0
 51128  1  0  0  0
 51129  1  0  0  0
 52130  1  0  0  0
 52131  1  0  0  0
 53 54  1  0  0  0
 54 55  2  0  0  0
 54132  1  0  0  0
 55 57  1  0  0  0
 55133  1  0  0  0
 56 69  2  0  0  0
 57 58  2  0  0  0
 57134  1  0  0  0
 58135  1  0  0  0
 59 60  1  0  0  0
 59 61  1  0  0  0
 59 62  1  0  0  0
 60136  1  0  0  0
 60137  1  0  0  0
 60138  1  0  0  0
 61139  1  0  0  0
 61140  1  0  0  0
 61141  1  0  0  0
 62142  1  0  0  0
 62143  1  0  0  0
 62144  1  0  0  0
 63 65  1  0  0  0
 63145  1  0  0  0
 63146  1  0  0  0
 63147  1  0  0  0
 64148  1  0  0  0
 65149  1  0  0  0
 68 83  1  0  0  0
 71 72  2  0  0  0
 71 76  1  0  0  0
 71150  1  0  0  0
 72 73  1  0  0  0
 72 86  1  0  0  0
 73 74  2  0  0  0
 73 84  1  0  0  0
 74 75  1  0  0  0
 74 85  1  0  0  0
 75 76  2  0  0  0
 75 87  1  0  0  0
 76 90  1  0  0  0
 77 78  2  0  0  0
 77 83  1  0  0  0
 77 89  1  0  0  0
 78151  1  0  0  0
 78152  1  0  0  0
 79 80  1  0  0  0
 79 81  1  0  0  0
 79153  1  0  0  0
 79154  1  0  0  0
 80 82  1  0  0  0
 80155  1  0  0  0
 80156  1  0  0  0
 81 83  1  0  0  0
 81157  1  0  0  0
 81158  1  0  0  0
 82 89  1  0  0  0
 82159  1  0  0  0
 82160  1  0  0  0
 83161  1  0  0  0
 84162  1  0  0  0
 84163  1  0  0  0
 84164  1  0  0  0
 85165  1  0  0  0
 85166  1  0  0  0
 85167  1  0  0  0
 86 88  1  0  0  0
 86168  1  0  0  0
 86169  1  0  0  0
 87170  1  0  0  0
 87171  1  0  0  0
 87 89  1  0  0  0
 88172  1  0  0  0
 89173  1  0  0  0
M  CHG  1  89   1
M  ISO  4   1 100  68 101  83 101  88 100
M  END
> <chiral flag>
0

> <version>
0

> <s_m_source_file>
/data/baiqing/PycharmProjects/Reinvent-master-3.2/result/LINK_invent/BTK/process_docking_weight1_custom_product_contain_oxygen_bond_distance_aromatic_linkinvent_7_9_3/rearranged_h_0040.sdf

> <i_m_source_file_index>
54

> <r_mmod_Potential_Energy-OPLS-2005>
-92.7069091796875

> <r_mmod_Stretch_Energy-OPLS-2005>
57.3846817016602

> <r_mmod_Bend_Energy-OPLS-2005>
173.138046264648

> <r_mmod_Torsional_Energy-OPLS-2005>
243.089248657227

> <r_mmod_Improper_Torsional_Energy-OPLS-2005>
4.83718156814575

> <r_mmod_Van_der_Waal_Energy-OPLS-2005>
170.101333618164

> <r_mmod_Electrostatic_Energy-OPLS-2005>
-357.805084228516

> <r_mmod_Solvation_Energy-OPLS-2005>
-401.506713867188

> <b_mmod_Minimization_Converged-OPLS-2005>
0

> <r_mmod_RMS_Derivative-OPLS-2005>
3.71446204185486

$$$$
54
                    3D
 Structure written by MMmdl.
158167  0  0  1  0            999 V2000
  -30.5058  -14.9320   20.4466 C   0  0  0  0  0  0
  -30.4547  -12.5774   19.4967 C   0  0  0  0  0  0
  -29.5276  -12.5367   18.2570 C   0  0  0  0  0  0
  -28.0587  -12.3199   18.6712 C   0  0  0  0  0  0
  -27.6369  -13.2382   19.8472 C   0  0  2  0  0  0
  -28.6799  -13.2226   20.9869 C   0  0  0  0  0  0
  -25.2399  -13.8109   20.5512 C   0  0  0  0  0  0
  -24.1763  -13.0374   20.9204 C   0  0  0  0  0  0
  -24.6402  -11.6876   20.8782 C   0  0  0  0  0  0
  -23.9082  -10.4261   21.0431 C   0  0  0  0  0  0
  -24.3625   -9.4175   21.9206 C   0  0  0  0  0  0
  -23.6290   -8.2217   22.0765 C   0  0  0  0  0  0
  -22.4272   -8.0268   21.3545 C   0  0  0  0  0  0
  -21.9917   -9.0246   20.4650 C   0  0  0  0  0  0
  -22.7257  -10.2118   20.3069 C   0  0  0  0  0  0
  -21.6846   -6.0728   22.5281 C   0  0  0  0  0  0
  -21.4009   -6.5633   23.8214 C   0  0  0  0  0  0
  -21.3659   -5.6785   24.9178 C   0  0  0  0  0  0
  -21.6043   -4.3050   24.7227 C   0  0  0  0  0  0
  -21.8818   -3.8142   23.4349 C   0  0  0  0  0  0
  -21.9190   -4.6957   22.3404 C   0  0  0  0  0  0
  -22.7785  -13.5167   21.1863 C   0  0  0  0  0  0
  -22.1659   -4.2145   21.0980 F   0  0  0  0  0  0
  -21.5630   -3.4535   25.7741 F   0  0  0  0  0  0
  -29.9638  -13.6487   20.4077 N   0  0  0  0  0  0
  -26.2905  -12.9380   20.3237 N   0  0  0  0  0  0
  -25.9348  -11.6525   20.5798 N   0  0  0  0  0  0
  -22.0442  -12.8178   22.0443 N   0  0  0  0  0  0
  -25.3857  -15.1775   20.3542 N   0  0  0  0  0  0
  -31.6875  -15.0734   20.1104 O   0  0  0  0  0  0
  -21.6628   -6.8873   21.4243 O   0  0  0  0  0  0
  -22.3473  -14.5478   20.6716 O   0  0  0  0  0  0
  -24.6412  -31.8451   23.1871 C   0  0  0  0  0  0
  -25.9188  -32.4704   23.8261 C   0  0  1  0  0  0
  -27.2249  -27.1488   20.1636 C   0  0  0  0  0  0
  -25.5950  -33.8512   24.2186 N   0  0  0  0  0  0
  -23.4454  -30.4616   21.5331 C   0  0  2  0  0  0
  -24.8972  -28.8818   20.1191 C   0  0  0  0  0  0
  -22.7559  -29.4540   22.4861 C   0  0  0  0  0  0
  -18.0309  -28.1391   22.8471 C   0  0  0  0  0  0
  -24.1497  -36.7257   23.2640 C   0  0  0  0  0  0
  -25.9990  -30.7222   21.3843 C   0  0  0  0  0  0
  -26.0736  -29.3305   20.7348 C   0  0  0  0  0  0
  -27.2415  -28.4813   20.7369 C   0  0  0  0  0  0
  -26.0236  -26.7895   19.5201 C   0  0  0  0  0  0
  -24.8829  -27.6220   19.4990 C   0  0  0  0  0  0
  -23.6741  -29.7854   20.1549 C   0  0  0  0  0  0
  -25.4126  -36.3036   24.0315 C   0  0  1  0  0  0
  -20.5918  -28.3714   23.1239 C   0  0  2  0  0  0
  -20.6801  -26.9417   22.5405 C   0  0  0  0  0  0
  -19.5777  -26.6377   21.5211 C   0  0  0  0  0  0
  -18.1950  -26.7927   22.1615 C   0  0  0  0  0  0
  -19.1565  -28.8867   23.2844 C   0  0  0  0  0  0
  -18.9486  -30.1461   23.8872 C   0  0  0  0  0  0
  -17.6486  -30.6589   24.0555 C   0  0  0  0  0  0
  -25.9075  -34.9415   23.5059 C   0  0  0  0  0  0
  -16.5373  -29.9089   23.6337 C   0  0  0  0  0  0
  -16.7294  -28.6510   23.0351 C   0  0  0  0  0  0
  -26.4516  -31.6565   25.0694 C   0  0  0  0  0  0
  -25.3694  -31.3764   26.1385 C   0  0  0  0  0  0
  -27.0380  -30.2966   24.6249 C   0  0  0  0  0  0
  -27.6050  -32.4323   25.7480 C   0  0  0  0  0  0
  -27.5580  -37.1782   24.8460 C   0  0  0  0  0  0
  -21.4252  -29.3046   22.3614 N   0  0  0  0  0  0
  -26.4289  -37.3748   23.9410 N   0  0  0  0  0  0
  -24.7147  -31.0308   22.0904 N   0  0  0  0  0  0
  -23.4202  -28.8090   23.3006 O   0  0  0  0  0  0
  -28.2994  -26.1946   20.1254 O   0  0  0  0  0  0
  -26.5655  -34.8912   22.4636 O   0  0  0  0  0  0
  -23.5537  -32.1333   23.7092 O   0  0  0  0  0  0
  -28.1469  -19.5756   21.4004 C   0  0  0  0  0  0
  -30.3084  -18.5677   20.0432 C   0  0  0  0  0  0
  -28.4445  -18.1628   21.4152 C   0  0  0  0  0  0
  -28.9067  -20.6260   20.7691 C   0  0  0  0  0  0
  -29.5313  -17.5493   20.7132 C   0  0  0  0  0  0
  -30.0315  -20.0162   20.0785 C   0  0  0  0  0  0
  -28.6609  -23.3433   20.2609 C   0  0  0  0  0  0
  -27.5641  -23.6422   22.9196 C   0  0  0  0  0  0
  -27.2016  -24.7550   21.9451 C   0  0  0  0  0  0
  -27.6638  -22.2732   22.2234 C   0  0  0  0  0  0
  -28.3064  -24.8474   20.8977 C   0  0  2  0  0  0
  -27.5464  -17.2844   22.2699 C   0  0  0  0  0  0
  -28.5225  -22.1268   21.0135 N   0  0  0  0  0  0
  -29.6326  -16.0115   20.7306 N   0  0  0  0  0  0
  -29.0703  -23.3166   19.0970 O   0  0  0  0  0  0
  -31.1744  -21.0318   19.2772 Cl  0  0  0  0  0  0
  -31.4855  -12.7550   19.1859 H   0  0  0  0  0  0
  -30.4604  -11.6136   20.0085 H   0  0  0  0  0  0
  -29.8439  -11.7474   17.5739 H   0  0  0  0  0  0
  -29.6159  -13.4734   17.7049 H   0  0  0  0  0  0
  -27.9509  -11.2751   18.9655 H   0  0  0  0  0  0
  -27.3962  -12.4651   17.8168 H   0  0  0  0  0  0
  -27.6119  -14.2491   19.4396 H   0  0  0  0  0  0
  -28.7615  -12.2270   21.4253 H   0  0  0  0  0  0
  -28.3768  -13.8860   21.7979 H   0  0  0  0  0  0
  -25.2768   -9.5641   22.4789 H   0  0  0  0  0  0
  -23.9989   -7.4601   22.7484 H   0  0  0  0  0  0
  -21.0851   -8.8774   19.8951 H   0  0  0  0  0  0
  -22.3729  -10.9663   19.6179 H   0  0  0  0  0  0
  -21.2001   -7.6141   23.9718 H   0  0  0  0  0  0
  -21.1481   -6.0517   25.9080 H   0  0  0  0  0  0
  -22.0596   -2.7606   23.2850 H   0  0  0  0  0  0
  -22.4054  -11.9844   22.4840 H   0  0  0  0  0  0
  -21.1066  -13.1220   22.2658 H   0  0  0  0  0  0
  -24.5928  -15.8058   20.4248 H   0  0  0  0  0  0
  -26.1918  -15.6076   19.9206 H   0  0  0  0  0  0
  -26.7249  -32.5322   23.0988 H   0  0  0  0  0  0
  -25.0097  -33.9638   25.0333 H   0  0  0  0  0  0
  -22.7467  -31.2860   21.3749 H   0  0  0  0  0  0
  -23.3773  -35.9575   23.3283 H   0  0  0  0  0  0
  -24.3586  -36.8913   22.2059 H   0  0  0  0  0  0
  -23.7247  -37.6446   23.6693 H   0  0  0  0  0  0
  -26.1484  -31.4729   20.6071 H   0  0  0  0  0  0
  -26.8717  -30.7787   22.0234 H   0  0  0  0  0  0
  -28.1458  -28.8266   21.2175 H   0  0  0  0  0  0
  -25.9613  -25.8231   19.0397 H   0  0  0  0  0  0
  -23.9851  -27.2715   19.0091 H   0  0  0  0  0  0
  -23.8143  -30.5584   19.3981 H   0  0  0  0  0  0
  -22.7891  -29.2284   19.8423 H   0  0  0  0  0  0
  -25.1313  -36.1863   25.0808 H   0  0  0  0  0  0
  -20.9999  -28.3310   24.1363 H   0  0  0  0  0  0
  -20.5705  -26.2324   23.3624 H   0  0  0  0  0  0
  -21.6671  -26.7434   22.1199 H   0  0  0  0  0  0
  -19.6945  -25.6281   21.1270 H   0  0  0  0  0  0
  -19.6726  -27.3165   20.6720 H   0  0  0  0  0  0
  -17.4222  -26.6672   21.4010 H   0  0  0  0  0  0
  -18.0337  -26.0066   22.9009 H   0  0  0  0  0  0
  -19.7963  -30.7280   24.2234 H   0  0  0  0  0  0
  -17.5046  -31.6271   24.5153 H   0  0  0  0  0  0
  -15.5377  -30.2990   23.7671 H   0  0  0  0  0  0
  -15.8690  -28.0829   22.7071 H   0  0  0  0  0  0
  -24.5887  -30.7094   25.7707 H   0  0  0  0  0  0
  -24.8862  -32.2953   26.4716 H   0  0  0  0  0  0
  -25.7963  -30.9008   27.0222 H   0  0  0  0  0  0
  -26.2992  -29.6688   24.1254 H   0  0  0  0  0  0
  -27.4017  -29.7256   25.4801 H   0  0  0  0  0  0
  -27.8884  -30.4220   23.9544 H   0  0  0  0  0  0
  -27.2657  -33.3663   26.1973 H   0  0  0  0  0  0
  -28.3903  -32.6821   25.0330 H   0  0  0  0  0  0
  -28.0660  -31.8495   26.5464 H   0  0  0  0  0  0
  -28.2568  -38.0103   24.7523 H   0  0  0  0  0  0
  -28.1107  -36.2636   24.6266 H   0  0  0  0  0  0
  -27.2299  -37.1392   25.8860 H   0  0  0  0  0  0
  -20.9455  -29.8780   21.6818 H   0  0  0  0  0  0
  -26.0158  -38.2815   24.1433 H   0  0  0  0  0  0
  -27.2605  -19.8411   21.9535 H   0  0  0  0  0  0
  -31.1692  -18.2423   19.4779 H   0  0  0  0  0  0
  -26.8155  -23.5910   23.7114 H   0  0  0  0  0  0
  -28.5075  -23.8737   23.4175 H   0  0  0  0  0  0
  -27.1186  -25.6932   22.4948 H   0  0  0  0  0  0
  -26.2352  -24.5698   21.4751 H   0  0  0  0  0  0
  -26.6531  -21.9677   21.9450 H   0  0  0  0  0  0
  -28.0053  -21.5880   22.9999 H   0  0  0  0  0  0
  -29.2130  -25.0087   21.4826 H   0  0  0  0  0  0
  -26.8981  -17.8676   22.9243 H   0  0  0  0  0  0
  -28.1345  -16.6235   22.9071 H   0  0  0  0  0  0
  -26.9109  -16.6774   21.6379 H   0  0  0  0  0  0
  -28.7624  -15.6089   21.0415 H   0  0  0  0  0  0
  1 25  1  0  0  0
  1 30  2  0  0  0
  1 84  1  0  0  0
  2  3  1  0  0  0
  2 25  1  0  0  0
  2 87  1  0  0  0
  2 88  1  0  0  0
  3  4  1  0  0  0
  3 89  1  0  0  0
  3 90  1  0  0  0
  4  5  1  0  0  0
  4 91  1  0  0  0
  4 92  1  0  0  0
  5  6  1  0  0  0
  5 26  1  0  0  0
  5 93  1  0  0  0
  6 25  1  0  0  0
  6 94  1  0  0  0
  6 95  1  0  0  0
  7  8  2  0  0  0
  7 26  1  0  0  0
  7 29  1  0  0  0
  8  9  1  0  0  0
  8 22  1  0  0  0
  9 10  1  0  0  0
  9 27  2  0  0  0
 10 11  2  0  0  0
 10 15  1  0  0  0
 11 12  1  0  0  0
 11 96  1  0  0  0
 12 13  2  0  0  0
 12 97  1  0  0  0
 13 14  1  0  0  0
 13 31  1  0  0  0
 14 15  2  0  0  0
 14 98  1  0  0  0
 15 99  1  0  0  0
 16 17  2  0  0  0
 16 21  1  0  0  0
 16 31  1  0  0  0
 17 18  1  0  0  0
 17100  1  0  0  0
 18 19  2  0  0  0
 18101  1  0  0  0
 19 20  1  0  0  0
 19 24  1  0  0  0
 20 21  2  0  0  0
 20102  1  0  0  0
 21 23  1  0  0  0
 22 28  1  0  0  0
 22 32  2  0  0  0
 26 27  1  0  0  0
 28103  1  0  0  0
 28104  1  0  0  0
 29105  1  0  0  0
 29106  1  0  0  0
 33 34  1  0  0  0
 33 66  1  0  0  0
 33 70  2  0  0  0
 34 36  1  0  0  0
 34 59  1  0  0  0
 34107  1  0  0  0
 35 44  2  0  0  0
 35 45  1  0  0  0
 35 68  1  0  0  0
 36 56  1  0  0  0
 36108  1  0  0  0
 37 39  1  0  0  0
 37 47  1  0  0  0
 37 66  1  0  0  0
 37109  1  0  0  0
 38 43  2  0  0  0
 38 46  1  0  0  0
 38 47  1  0  0  0
 39 64  1  0  0  0
 39 67  2  0  0  0
 40 52  1  0  0  0
 40 53  2  0  0  0
 40 58  1  0  0  0
 41110  1  0  0  0
 41111  1  0  0  0
 41112  1  0  0  0
 41 48  1  0  0  0
 42 43  1  0  0  0
 42 66  1  0  0  0
 42113  1  0  0  0
 42114  1  0  0  0
 43 44  1  0  0  0
 44115  1  0  0  0
 45 46  2  0  0  0
 45116  1  0  0  0
 46117  1  0  0  0
 47118  1  0  0  0
 47119  1  0  0  0
 48 56  1  0  0  0
 48 65  1  0  0  0
 48120  1  0  0  0
 49 50  1  0  0  0
 49 53  1  0  0  0
 49 64  1  0  0  0
 49121  1  0  0  0
 50 51  1  0  0  0
 50122  1  0  0  0
 50123  1  0  0  0
 51 52  1  0  0  0
 51124  1  0  0  0
 51125  1  0  0  0
 52126  1  0  0  0
 52127  1  0  0  0
 53 54  1  0  0  0
 54 55  2  0  0  0
 54128  1  0  0  0
 55 57  1  0  0  0
 55129  1  0  0  0
 56 69  2  0  0  0
 57 58  2  0  0  0
 57130  1  0  0  0
 58131  1  0  0  0
 59 60  1  0  0  0
 59 61  1  0  0  0
 59 62  1  0  0  0
 60132  1  0  0  0
 60133  1  0  0  0
 60134  1  0  0  0
 61135  1  0  0  0
 61136  1  0  0  0
 61137  1  0  0  0
 62138  1  0  0  0
 62139  1  0  0  0
 62140  1  0  0  0
 63 65  1  0  0  0
 63141  1  0  0  0
 63142  1  0  0  0
 63143  1  0  0  0
 64144  1  0  0  0
 65145  1  0  0  0
 68 81  1  0  0  0
 71 73  2  0  0  0
 71 74  1  0  0  0
 71146  1  0  0  0
 72 75  2  0  0  0
 72 76  1  0  0  0
 72147  1  0  0  0
 73 75  1  0  0  0
 73 82  1  0  0  0
 74 76  2  0  0  0
 74 83  1  0  0  0
 75 84  1  0  0  0
 76 86  1  0  0  0
 77 81  1  0  0  0
 77 83  1  0  0  0
 77 85  2  0  0  0
 78 79  1  0  0  0
 78 80  1  0  0  0
 78148  1  0  0  0
 78149  1  0  0  0
 79 81  1  0  0  0
 79150  1  0  0  0
 79151  1  0  0  0
 80 83  1  0  0  0
 80152  1  0  0  0
 80153  1  0  0  0
 81154  1  0  0  0
 82155  1  0  0  0
 82156  1  0  0  0
 82157  1  0  0  0
 84158  1  0  0  0
M  ISO  4   1 100  68 101  81 101  84 100
M  END
> <chiral flag>
0

> <version>
0

> <s_m_source_file>
/data/baiqing/PycharmProjects/Reinvent-master-3.2/result/LINK_invent/BTK/process_docking_weight1_custom_product_contain_oxygen_bond_distance_aromatic_linkinvent_7_9_3/rearranged_h_0040.sdf

> <i_m_source_file_index>
55

> <r_mmod_Potential_Energy-OPLS-2005>
632.945434570312

> <r_mmod_Stretch_Energy-OPLS-2005>
252.900772094727

> <r_mmod_Bend_Energy-OPLS-2005>
319.017944335938

> <r_mmod_Torsional_Energy-OPLS-2005>
284.210723876953

> <r_mmod_Improper_Torsional_Energy-OPLS-2005>
4.77037239074707

> <r_mmod_Van_der_Waal_Energy-OPLS-2005>
147.163040161133

> <r_mmod_Electrostatic_Energy-OPLS-2005>
-323.164367675781

> <r_mmod_Solvation_Energy-OPLS-2005>
-229.688812255859

> <b_mmod_Minimization_Converged-OPLS-2005>
0

> <r_mmod_RMS_Derivative-OPLS-2005>
0.915490448474884

$$$$
55
                    3D
 Structure written by MMmdl.
187196  0  0  1  0            999 V2000
  -30.7052  -14.3849   20.4743 C   0  0  0  0  0  0
  -30.4103  -12.2181   19.4214 C   0  0  0  0  0  0
  -29.4946  -12.4768   18.2034 C   0  0  0  0  0  0
  -28.0051  -12.3670   18.5983 C   0  0  0  0  0  0
  -27.6598  -13.1910   19.8706 C   0  0  2  0  0  0
  -28.7054  -12.9717   20.9936 C   0  0  0  0  0  0
  -25.2612  -13.8163   20.5655 C   0  0  0  0  0  0
  -24.1833  -13.0483   20.9149 C   0  0  0  0  0  0
  -24.6354  -11.6943   20.8757 C   0  0  0  0  0  0
  -23.9030  -10.4323   21.0403 C   0  0  0  0  0  0
  -24.3606   -9.4223   21.9169 C   0  0  0  0  0  0
  -23.6302   -8.2267   22.0763 C   0  0  0  0  0  0
  -22.4277   -8.0293   21.3564 C   0  0  0  0  0  0
  -21.9899   -9.0231   20.4652 C   0  0  0  0  0  0
  -22.7204  -10.2122   20.3040 C   0  0  0  0  0  0
  -21.6861   -6.0751   22.5281 C   0  0  0  0  0  0
  -21.4009   -6.5650   23.8222 C   0  0  0  0  0  0
  -21.3662   -5.6804   24.9170 C   0  0  0  0  0  0
  -21.6022   -4.3067   24.7224 C   0  0  0  0  0  0
  -21.8839   -3.8153   23.4348 C   0  0  0  0  0  0
  -21.9192   -4.6985   22.3400 C   0  0  0  0  0  0
  -22.7856  -13.5288   21.1793 C   0  0  0  0  0  0
  -22.1676   -4.2168   21.0978 F   0  0  0  0  0  0
  -21.5602   -3.4508   25.7721 F   0  0  0  0  0  0
  -30.0519  -13.2047   20.4429 N   0  0  0  0  0  0
  -26.3009  -12.9283   20.3344 N   0  0  0  0  0  0
  -25.9258  -11.6489   20.5793 N   0  0  0  0  0  0
  -22.0534  -12.8287   22.0385 N   0  0  0  0  0  0
  -25.4346  -15.1899   20.4075 N   0  0  0  0  0  0
  -31.8826  -14.5516   20.1454 O   0  0  0  0  0  0
  -21.6661   -6.8875   21.4252 O   0  0  0  0  0  0
  -22.3538  -14.5559   20.6589 O   0  0  0  0  0  0
  -24.6150  -31.8669   23.2088 C   0  0  0  0  0  0
  -25.9023  -32.4840   23.8397 C   0  0  1  0  0  0
  -27.2613  -27.4839   20.0863 C   0  0  0  0  0  0
  -25.5864  -33.8636   24.2325 N   0  0  0  0  0  0
  -23.4046  -30.4899   21.5414 C   0  0  2  0  0  0
  -24.8569  -28.9627   20.1089 C   0  0  0  0  0  0
  -22.7445  -29.4652   22.4934 C   0  0  0  0  0  0
  -18.0278  -28.1375   22.8473 C   0  0  0  0  0  0
  -24.1498  -36.7397   23.2631 C   0  0  0  0  0  0
  -25.9296  -30.8549   21.3507 C   0  0  0  0  0  0
  -26.0116  -29.4907   20.6996 C   0  0  0  0  0  0
  -27.2162  -28.7598   20.6818 C   0  0  0  0  0  0
  -26.0923  -26.9558   19.4944 C   0  0  0  0  0  0
  -24.8922  -27.6936   19.5026 C   0  0  0  0  0  0
  -23.6140  -29.8242   20.1549 C   0  0  0  0  0  0
  -25.4102  -36.3147   24.0326 C   0  0  1  0  0  0
  -20.5881  -28.3678   23.1313 C   0  0  2  0  0  0
  -20.6797  -26.9402   22.5431 C   0  0  0  0  0  0
  -19.5774  -26.6383   21.5239 C   0  0  0  0  0  0
  -18.1934  -26.7913   22.1622 C   0  0  0  0  0  0
  -19.1527  -28.8842   23.2890 C   0  0  0  0  0  0
  -18.9430  -30.1438   23.8919 C   0  0  0  0  0  0
  -17.6427  -30.6572   24.0558 C   0  0  0  0  0  0
  -25.9007  -34.9501   23.5134 C   0  0  0  0  0  0
  -16.5331  -29.9061   23.6305 C   0  0  0  0  0  0
  -16.7255  -28.6486   23.0313 C   0  0  0  0  0  0
  -26.4459  -31.6610   25.0713 C   0  0  0  0  0  0
  -25.3743  -31.3719   26.1483 C   0  0  0  0  0  0
  -27.0281  -30.3051   24.6068 C   0  0  0  0  0  0
  -27.6036  -32.4360   25.7443 C   0  0  0  0  0  0
  -27.5594  -37.1864   24.8434 C   0  0  0  0  0  0
  -21.4165  -29.3030   22.3687 N   0  0  0  0  0  0
  -26.4319  -37.3801   23.9371 N   0  0  0  0  0  0
  -24.6655  -31.0863   22.0908 N   0  0  0  0  0  0
  -23.4250  -28.8188   23.2942 O   0  0  0  0  0  0
  -28.4497  -26.7928   20.0774 O   0  0  0  0  0  0
  -26.5584  -34.8941   22.4708 O   0  0  0  0  0  0
  -23.5347  -32.1350   23.7515 O   0  0  0  0  0  0
  -30.4217  -17.9321   21.7535 C   0  0  0  0  0  0
  -29.9950  -17.8980   20.4164 C   0  0  0  0  0  0
  -30.3155  -19.0979   22.5395 C   0  0  0  0  0  0
  -29.5235  -19.0721   19.7982 C   0  0  0  0  0  0
  -29.2937  -20.2211   20.5871 C   0  0  0  0  0  0
  -29.7306  -20.2617   21.9487 C   0  0  0  0  0  0
  -32.1664  -14.8025   25.4937 C   0  0  0  0  0  0
  -30.6397  -14.7446   25.3448 C   0  0  0  0  0  0
  -32.8283  -15.9615   24.7379 C   0  0  0  0  0  0
  -29.9475  -15.8998   26.0877 C   0  0  0  0  0  0
  -32.3359  -17.3717   25.1265 C   0  0  0  0  0  0
  -29.8128  -17.2293   25.3038 C   0  0  0  0  0  0
  -29.2911  -19.1064   18.2872 C   0  0  0  0  0  0
  -28.5505  -21.3876   19.9368 C   0  0  0  0  0  0
  -30.0255  -16.5874   19.6552 C   0  0  0  0  0  0
  -30.8629  -19.0593   23.9822 C   0  0  0  0  0  0
  -29.5568  -21.5640   22.7390 C   0  0  0  0  0  0
  -29.6825  -25.1616   21.3945 C   0  0  0  0  0  0
  -29.4996  -24.0100   22.4110 C   0  0  0  0  0  0
  -28.3886  -25.4736   20.6146 C   0  0  0  0  0  0
  -29.8697  -15.4180   20.5118 N   0  0  0  0  0  0
  -31.0085  -17.6704   24.5224 N   0  3  0  0  0  0
  -30.1259  -22.7265   22.0202 N   0  3  0  0  0  0
  -31.4656  -12.2726   19.1436 H   0  0  0  0  0  0
  -30.2504  -11.2082   19.8026 H   0  0  0  0  0  0
  -29.7234  -11.7650   17.4081 H   0  0  0  0  0  0
  -29.6898  -13.4713   17.7964 H   0  0  0  0  0  0
  -27.7700  -11.3115   18.7468 H   0  0  0  0  0  0
  -27.3830  -12.6889   17.7637 H   0  0  0  0  0  0
  -27.6888  -14.2369   19.5693 H   0  0  0  0  0  0
  -28.4910  -13.6199   21.8450 H   0  0  0  0  0  0
  -28.6470  -11.9512   21.3736 H   0  0  0  0  0  0
  -25.2765   -9.5688   22.4734 H   0  0  0  0  0  0
  -24.0038   -7.4630   22.7468 H   0  0  0  0  0  0
  -21.0847   -8.8681   19.8967 H   0  0  0  0  0  0
  -22.3635  -10.9623   19.6122 H   0  0  0  0  0  0
  -21.2028   -7.6145   23.9689 H   0  0  0  0  0  0
  -21.1470   -6.0542   25.9068 H   0  0  0  0  0  0
  -22.0625   -2.7621   23.2821 H   0  0  0  0  0  0
  -22.4176  -11.9947   22.4738 H   0  0  0  0  0  0
  -21.1113  -13.1234   22.2587 H   0  0  0  0  0  0
  -24.6632  -15.8419   20.4855 H   0  0  0  0  0  0
  -26.2869  -15.6437   20.1061 H   0  0  0  0  0  0
  -26.7128  -32.5580   23.1194 H   0  0  0  0  0  0
  -24.9960  -33.9767   25.0447 H   0  0  0  0  0  0
  -22.6890  -31.3025   21.4040 H   0  0  0  0  0  0
  -23.3726  -35.9771   23.3285 H   0  0  0  0  0  0
  -24.3612  -36.9032   22.2053 H   0  0  0  0  0  0
  -23.7316  -37.6628   23.6660 H   0  0  0  0  0  0
  -26.0439  -31.6260   20.5869 H   0  0  0  0  0  0
  -26.8197  -30.9096   21.9674 H   0  0  0  0  0  0
  -28.1134  -29.1756   21.1234 H   0  0  0  0  0  0
  -26.1223  -25.9960   19.0000 H   0  0  0  0  0  0
  -24.0102  -27.2896   19.0270 H   0  0  0  0  0  0
  -23.7083  -30.5999   19.3903 H   0  0  0  0  0  0
  -22.7447  -29.2313   19.8695 H   0  0  0  0  0  0
  -25.1295  -36.2001   25.0825 H   0  0  0  0  0  0
  -20.9999  -28.3261   24.1432 H   0  0  0  0  0  0
  -20.5723  -26.2278   23.3615 H   0  0  0  0  0  0
  -21.6644  -26.7429   22.1201 H   0  0  0  0  0  0
  -19.6909  -25.6306   21.1225 H   0  0  0  0  0  0
  -19.6716  -27.3229   20.6799 H   0  0  0  0  0  0
  -17.4210  -26.6665   21.4003 H   0  0  0  0  0  0
  -18.0283  -26.0077   22.9037 H   0  0  0  0  0  0
  -19.7895  -30.7252   24.2321 H   0  0  0  0  0  0
  -17.4950  -31.6231   24.5163 H   0  0  0  0  0  0
  -15.5310  -30.2940   23.7617 H   0  0  0  0  0  0
  -15.8679  -28.0811   22.6995 H   0  0  0  0  0  0
  -24.5880  -30.7079   25.7851 H   0  0  0  0  0  0
  -24.8978  -32.2884   26.4979 H   0  0  0  0  0  0
  -25.8108  -30.8864   27.0219 H   0  0  0  0  0  0
  -26.2813  -29.6835   24.1084 H   0  0  0  0  0  0
  -27.4028  -29.7242   25.4515 H   0  0  0  0  0  0
  -27.8680  -30.4398   23.9239 H   0  0  0  0  0  0
  -27.2617  -33.3622   26.2074 H   0  0  0  0  0  0
  -28.3775  -32.6997   25.0220 H   0  0  0  0  0  0
  -28.0794  -31.8482   26.5306 H   0  0  0  0  0  0
  -28.2592  -38.0166   24.7461 H   0  0  0  0  0  0
  -28.1102  -36.2705   24.6271 H   0  0  0  0  0  0
  -27.2315  -37.1541   25.8831 H   0  0  0  0  0  0
  -20.9295  -29.8793   21.6970 H   0  0  0  0  0  0
  -26.0209  -38.2903   24.1284 H   0  0  0  0  0  0
  -30.8632  -17.0328   22.1503 H   0  0  0  0  0  0
  -32.5857  -13.8611   25.1356 H   0  0  0  0  0  0
  -32.4366  -14.8508   26.5508 H   0  0  0  0  0  0
  -30.3099  -13.7949   25.7723 H   0  0  0  0  0  0
  -30.3395  -14.7054   24.2962 H   0  0  0  0  0  0
  -32.7404  -15.8058   23.6625 H   0  0  0  0  0  0
  -33.8991  -15.9136   24.9405 H   0  0  0  0  0  0
  -30.4381  -16.0698   27.0484 H   0  0  0  0  0  0
  -28.9432  -15.5768   26.3618 H   0  0  0  0  0  0
  -33.0867  -18.0576   24.7322 H   0  0  0  0  0  0
  -32.3330  -17.5379   26.2024 H   0  0  0  0  0  0
  -29.5433  -18.0025   26.0228 H   0  0  0  0  0  0
  -28.9641  -17.1646   24.6182 H   0  0  0  0  0  0
  -29.9017  -18.3710   17.7598 H   0  0  0  0  0  0
  -29.5778  -20.0703   17.8686 H   0  0  0  0  0  0
  -28.2459  -18.9246   18.0372 H   0  0  0  0  0  0
  -29.2438  -22.0307   19.3944 H   0  0  0  0  0  0
  -27.9847  -21.9828   20.6515 H   0  0  0  0  0  0
  -27.7989  -21.0319   19.2313 H   0  0  0  0  0  0
  -30.9273  -16.5561   19.0383 H   0  0  0  0  0  0
  -29.1885  -16.5517   18.9539 H   0  0  0  0  0  0
  -30.2264  -19.6301   24.6564 H   0  0  0  0  0  0
  -31.8158  -19.5912   23.9666 H   0  0  0  0  0  0
  -30.0042  -21.5430   23.7272 H   0  0  0  0  0  0
  -28.4860  -21.6893   22.9042 H   0  0  0  0  0  0
  -30.5150  -24.9937   20.7088 H   0  0  0  0  0  0
  -29.9484  -26.0457   21.9746 H   0  0  0  0  0  0
  -28.4326  -23.8661   22.5761 H   0  0  0  0  0  0
  -29.9097  -24.3010   23.3798 H   0  0  0  0  0  0
  -27.5356  -25.3885   21.2890 H   0  0  0  0  0  0
  -28.2377  -24.7448   19.8187 H   0  0  0  0  0  0
  -28.9291  -15.1995   20.7993 H   0  0  0  0  0  0
  -31.0088  -17.1114   23.6871 H   0  0  0  0  0  0
  -29.9824  -22.5507   21.0370 H   0  0  0  0  0  0
  -31.1197  -22.7568   22.1848 H   0  0  0  0  0  0
  1 25  1  0  0  0
  1 30  2  0  0  0
  1 91  1  0  0  0
  2  3  1  0  0  0
  2 25  1  0  0  0
  2 94  1  0  0  0
  2 95  1  0  0  0
  3  4  1  0  0  0
  3 96  1  0  0  0
  3 97  1  0  0  0
  4  5  1  0  0  0
  4 98  1  0  0  0
  4 99  1  0  0  0
  5  6  1  0  0  0
  5 26  1  0  0  0
  5100  1  0  0  0
  6 25  1  0  0  0
  6101  1  0  0  0
  6102  1  0  0  0
  7  8  2  0  0  0
  7 26  1  0  0  0
  7 29  1  0  0  0
  8  9  1  0  0  0
  8 22  1  0  0  0
  9 10  1  0  0  0
  9 27  2  0  0  0
 10 11  2  0  0  0
 10 15  1  0  0  0
 11 12  1  0  0  0
 11103  1  0  0  0
 12 13  2  0  0  0
 12104  1  0  0  0
 13 14  1  0  0  0
 13 31  1  0  0  0
 14 15  2  0  0  0
 14105  1  0  0  0
 15106  1  0  0  0
 16 17  2  0  0  0
 16 21  1  0  0  0
 16 31  1  0  0  0
 17 18  1  0  0  0
 17107  1  0  0  0
 18 19  2  0  0  0
 18108  1  0  0  0
 19 20  1  0  0  0
 19 24  1  0  0  0
 20 21  2  0  0  0
 20109  1  0  0  0
 21 23  1  0  0  0
 22 28  1  0  0  0
 22 32  2  0  0  0
 26 27  1  0  0  0
 28110  1  0  0  0
 28111  1  0  0  0
 29112  1  0  0  0
 29113  1  0  0  0
 33 34  1  0  0  0
 33 66  1  0  0  0
 33 70  2  0  0  0
 34 36  1  0  0  0
 34 59  1  0  0  0
 34114  1  0  0  0
 35 44  2  0  0  0
 35 45  1  0  0  0
 35 68  1  0  0  0
 36 56  1  0  0  0
 36115  1  0  0  0
 37 39  1  0  0  0
 37 47  1  0  0  0
 37 66  1  0  0  0
 37116  1  0  0  0
 38 43  2  0  0  0
 38 46  1  0  0  0
 38 47  1  0  0  0
 39 64  1  0  0  0
 39 67  2  0  0  0
 40 52  1  0  0  0
 40 53  2  0  0  0
 40 58  1  0  0  0
 41117  1  0  0  0
 41118  1  0  0  0
 41119  1  0  0  0
 41 48  1  0  0  0
 42 43  1  0  0  0
 42 66  1  0  0  0
 42120  1  0  0  0
 42121  1  0  0  0
 43 44  1  0  0  0
 44122  1  0  0  0
 45 46  2  0  0  0
 45123  1  0  0  0
 46124  1  0  0  0
 47125  1  0  0  0
 47126  1  0  0  0
 48 56  1  0  0  0
 48 65  1  0  0  0
 48127  1  0  0  0
 49 50  1  0  0  0
 49 53  1  0  0  0
 49 64  1  0  0  0
 49128  1  0  0  0
 50 51  1  0  0  0
 50129  1  0  0  0
 50130  1  0  0  0
 51 52  1  0  0  0
 51131  1  0  0  0
 51132  1  0  0  0
 52133  1  0  0  0
 52134  1  0  0  0
 53 54  1  0  0  0
 54 55  2  0  0  0
 54135  1  0  0  0
 55 57  1  0  0  0
 55136  1  0  0  0
 56 69  2  0  0  0
 57 58  2  0  0  0
 57137  1  0  0  0
 58138  1  0  0  0
 59 60  1  0  0  0
 59 61  1  0  0  0
 59 62  1  0  0  0
 60139  1  0  0  0
 60140  1  0  0  0
 60141  1  0  0  0
 61142  1  0  0  0
 61143  1  0  0  0
 61144  1  0  0  0
 62145  1  0  0  0
 62146  1  0  0  0
 62147  1  0  0  0
 63 65  1  0  0  0
 63148  1  0  0  0
 63149  1  0  0  0
 63150  1  0  0  0
 64151  1  0  0  0
 65152  1  0  0  0
 68 90  1  0  0  0
 71 72  2  0  0  0
 71 73  1  0  0  0
 71153  1  0  0  0
 72 74  1  0  0  0
 72 85  1  0  0  0
 73 76  2  0  0  0
 73 86  1  0  0  0
 74 75  2  0  0  0
 74 83  1  0  0  0
 75 76  1  0  0  0
 75 84  1  0  0  0
 76 87  1  0  0  0
 77 78  1  0  0  0
 77 79  1  0  0  0
 77154  1  0  0  0
 77155  1  0  0  0
 78 80  1  0  0  0
 78156  1  0  0  0
 78157  1  0  0  0
 79 81  1  0  0  0
 79158  1  0  0  0
 79159  1  0  0  0
 80 82  1  0  0  0
 80160  1  0  0  0
 80161  1  0  0  0
 81 92  1  0  0  0
 81162  1  0  0  0
 81163  1  0  0  0
 82 92  1  0  0  0
 82164  1  0  0  0
 82165  1  0  0  0
 83166  1  0  0  0
 83167  1  0  0  0
 83168  1  0  0  0
 84169  1  0  0  0
 84170  1  0  0  0
 84171  1  0  0  0
 85 91  1  0  0  0
 85172  1  0  0  0
 85173  1  0  0  0
 86174  1  0  0  0
 86175  1  0  0  0
 86 92  1  0  0  0
 87 93  1  0  0  0
 87176  1  0  0  0
 87177  1  0  0  0
 88 89  1  0  0  0
 88 90  1  0  0  0
 88178  1  0  0  0
 88179  1  0  0  0
 89 93  1  0  0  0
 89180  1  0  0  0
 89181  1  0  0  0
 90182  1  0  0  0
 90183  1  0  0  0
 91184  1  0  0  0
 92185  1  0  0  0
 93186  1  0  0  0
 93187  1  0  0  0
M  CHG  2  92   1  93   1
M  ISO  4   1 100  68 101  90 101  91 100
M  END
> <chiral flag>
0

> <version>
0

> <s_m_source_file>
/data/baiqing/PycharmProjects/Reinvent-master-3.2/result/LINK_invent/BTK/process_docking_weight1_custom_product_contain_oxygen_bond_distance_aromatic_linkinvent_7_9_3/rearranged_h_0040.sdf

> <i_m_source_file_index>
56

> <r_mmod_Potential_Energy-OPLS-2005>
-262.8212890625

> <r_mmod_Stretch_Energy-OPLS-2005>
40.8032875061035

> <r_mmod_Bend_Energy-OPLS-2005>
112.511558532715

> <r_mmod_Torsional_Energy-OPLS-2005>
310.375244140625

> <r_mmod_Improper_Torsional_Energy-OPLS-2005>
12.7221660614014

> <r_mmod_Van_der_Waal_Energy-OPLS-2005>
180.413833618164

> <r_mmod_Electrostatic_Energy-OPLS-2005>
-34.4517555236816

> <r_mmod_Solvation_Energy-OPLS-2005>
-900.073791503906

> <b_mmod_Minimization_Converged-OPLS-2005>
0

> <r_mmod_RMS_Derivative-OPLS-2005>
6.50176429748535

$$$$
56
                    3D
 Structure written by MMmdl.
167176  0  0  1  0            999 V2000
  -30.6401  -14.5732   20.4561 C   0  0  0  0  0  0
  -30.4432  -12.3081   19.4829 C   0  0  0  0  0  0
  -29.5181  -12.3469   18.2465 C   0  0  0  0  0  0
  -28.0232  -12.3212   18.6379 C   0  0  0  0  0  0
  -27.6578  -13.2039   19.8659 C   0  0  2  0  0  0
  -28.6990  -13.0490   20.9950 C   0  0  0  0  0  0
  -25.2587  -13.8170   20.5687 C   0  0  0  0  0  0
  -24.1832  -13.0447   20.9188 C   0  0  0  0  0  0
  -24.6381  -11.6916   20.8763 C   0  0  0  0  0  0
  -23.9055  -10.4297   21.0422 C   0  0  0  0  0  0
  -24.3615   -9.4210   21.9194 C   0  0  0  0  0  0
  -23.6284   -8.2248   22.0757 C   0  0  0  0  0  0
  -22.4263   -8.0289   21.3546 C   0  0  0  0  0  0
  -21.9901   -9.0264   20.4651 C   0  0  0  0  0  0
  -22.7232  -10.2139   20.3065 C   0  0  0  0  0  0
  -21.6853   -6.0738   22.5279 C   0  0  0  0  0  0
  -21.4011   -6.5639   23.8214 C   0  0  0  0  0  0
  -21.3658   -5.6792   24.9175 C   0  0  0  0  0  0
  -21.6044   -4.3055   24.7229 C   0  0  0  0  0  0
  -21.8816   -3.8149   23.4347 C   0  0  0  0  0  0
  -21.9189   -4.6967   22.3403 C   0  0  0  0  0  0
  -22.7859  -13.5248   21.1850 C   0  0  0  0  0  0
  -22.1660   -4.2154   21.0977 F   0  0  0  0  0  0
  -21.5633   -3.4537   25.7741 F   0  0  0  0  0  0
  -30.0207  -13.3570   20.4274 N   0  0  0  0  0  0
  -26.3006  -12.9323   20.3353 N   0  0  0  0  0  0
  -25.9306  -11.6494   20.5824 N   0  0  0  0  0  0
  -22.0493  -12.8234   22.0403 N   0  0  0  0  0  0
  -25.4333  -15.1888   20.4108 N   0  0  0  0  0  0
  -31.8045  -14.7307   20.0785 O   0  0  0  0  0  0
  -21.6636   -6.8878   21.4239 O   0  0  0  0  0  0
  -22.3546  -14.5562   20.6709 O   0  0  0  0  0  0
  -24.6164  -31.8668   23.2097 C   0  0  0  0  0  0
  -25.9050  -32.4813   23.8396 C   0  0  1  0  0  0
  -27.2315  -27.4063   20.1096 C   0  0  0  0  0  0
  -25.5904  -33.8614   24.2325 N   0  0  0  0  0  0
  -23.4056  -30.4908   21.5503 C   0  0  2  0  0  0
  -24.8526  -28.9586   20.1114 C   0  0  0  0  0  0
  -22.7424  -29.4647   22.4979 C   0  0  0  0  0  0
  -18.0278  -28.1375   22.8490 C   0  0  0  0  0  0
  -24.1486  -36.7313   23.2638 C   0  0  0  0  0  0
  -25.9376  -30.8255   21.3677 C   0  0  0  0  0  0
  -26.0135  -29.4594   20.7123 C   0  0  0  0  0  0
  -27.2037  -28.6919   20.7058 C   0  0  0  0  0  0
  -26.0545  -26.9428   19.4734 C   0  0  0  0  0  0
  -24.8705  -27.7020   19.4857 C   0  0  0  0  0  0
  -23.6149  -29.8258   20.1640 C   0  0  0  0  0  0
  -25.4108  -36.3110   24.0336 C   0  0  1  0  0  0
  -20.5866  -28.3665   23.1315 C   0  0  2  0  0  0
  -20.6770  -26.9396   22.5422 C   0  0  0  0  0  0
  -19.5748  -26.6382   21.5216 C   0  0  0  0  0  0
  -18.1925  -26.7922   22.1622 C   0  0  0  0  0  0
  -19.1526  -28.8834   23.2902 C   0  0  0  0  0  0
  -18.9453  -30.1445   23.8907 C   0  0  0  0  0  0
  -17.6454  -30.6583   24.0561 C   0  0  0  0  0  0
  -25.9038  -34.9471   23.5128 C   0  0  0  0  0  0
  -16.5346  -29.9084   23.6323 C   0  0  0  0  0  0
  -16.7266  -28.6500   23.0345 C   0  0  0  0  0  0
  -26.4472  -31.6599   25.0732 C   0  0  0  0  0  0
  -25.3735  -31.3705   26.1481 C   0  0  0  0  0  0
  -27.0305  -30.3036   24.6124 C   0  0  0  0  0  0
  -27.6047  -32.4323   25.7487 C   0  0  0  0  0  0
  -27.5580  -37.1809   24.8467 C   0  0  0  0  0  0
  -21.4144  -29.3039   22.3722 N   0  0  0  0  0  0
  -26.4294  -37.3794   23.9410 N   0  0  0  0  0  0
  -24.6714  -31.0759   22.1004 N   0  0  0  0  0  0
  -23.4189  -28.8178   23.3018 O   0  0  0  0  0  0
  -28.3952  -26.6504   20.1746 O   0  0  0  0  0  0
  -26.5600  -34.8920   22.4691 O   0  0  0  0  0  0
  -23.5351  -32.1425   23.7479 O   0  0  0  0  0  0
  -28.5114  -19.1848   18.8195 C   0  0  0  0  0  0
  -28.8020  -18.0534   18.0562 C   0  0  0  0  0  0
  -29.4273  -18.0870   20.7778 C   0  0  0  0  0  0
  -28.9076  -19.2754   20.1690 C   0  0  0  0  0  0
  -29.3765  -16.9116   18.6383 C   0  0  0  0  0  0
  -29.6254  -16.8718   20.0442 C   0  0  0  0  0  0
  -28.5439  -23.0703   21.4888 C   0  0  0  0  0  0
  -27.6598  -22.8701   22.4891 C   0  0  0  0  0  0
  -29.1033  -24.4757   21.1884 C   0  0  0  0  0  0
  -29.6235  -23.5094   18.5864 C   0  0  0  0  0  0
  -28.7678  -24.7911   18.6614 C   0  0  0  0  0  0
  -28.9656  -22.2220   19.1311 C   0  0  0  0  0  0
  -28.3114  -25.2059   20.0713 C   0  0  2  0  0  0
  -29.5982  -15.7591   17.6867 C   0  0  0  0  0  0
  -28.5652  -20.5589   20.9845 C   0  0  0  0  0  0
  -29.8471  -15.6319   20.7669 N   0  0  0  0  0  0
  -29.0840  -21.9401   20.5973 N   0  3  2  0  0  0
  -31.4853  -12.4182   19.1767 H   0  0  0  0  0  0
  -30.3820  -11.3335   19.9697 H   0  0  0  0  0  0
  -29.7303  -11.4793   17.6193 H   0  0  0  0  0  0
  -29.7575  -13.1909   17.6135 H   0  0  0  0  0  0
  -27.7841  -11.2805   18.8610 H   0  0  0  0  0  0
  -27.4040  -12.5899   17.7813 H   0  0  0  0  0  0
  -27.6792  -14.2406   19.5365 H   0  0  0  0  0  0
  -28.6889  -12.0314   21.3881 H   0  0  0  0  0  0
  -28.4588  -13.6937   21.8419 H   0  0  0  0  0  0
  -25.2767   -9.5680   22.4757 H   0  0  0  0  0  0
  -24.0000   -7.4628   22.7457 H   0  0  0  0  0  0
  -21.0840   -8.8779   19.8943 H   0  0  0  0  0  0
  -22.3703  -10.9675   19.6168 H   0  0  0  0  0  0
  -21.1998   -7.6147   23.9720 H   0  0  0  0  0  0
  -21.1488   -6.0522   25.9077 H   0  0  0  0  0  0
  -22.0596   -2.7614   23.2842 H   0  0  0  0  0  0
  -22.4095  -11.9890   22.4790 H   0  0  0  0  0  0
  -21.1117  -13.1276   22.2621 H   0  0  0  0  0  0
  -24.6742  -15.8496   20.5377 H   0  0  0  0  0  0
  -26.2910  -15.6280   20.1005 H   0  0  0  0  0  0
  -26.7116  -32.5515   23.1153 H   0  0  0  0  0  0
  -25.0060  -33.9777   25.0473 H   0  0  0  0  0  0
  -22.6956  -31.3085   21.4116 H   0  0  0  0  0  0
  -23.3747  -35.9649   23.3312 H   0  0  0  0  0  0
  -24.3582  -36.8920   22.2053 H   0  0  0  0  0  0
  -23.7236  -37.6518   23.6647 H   0  0  0  0  0  0
  -26.0568  -31.5922   20.6012 H   0  0  0  0  0  0
  -26.8225  -30.8757   21.9903 H   0  0  0  0  0  0
  -28.0967  -29.0733   21.1807 H   0  0  0  0  0  0
  -26.0264  -25.9945   18.9581 H   0  0  0  0  0  0
  -23.9818  -27.3166   19.0059 H   0  0  0  0  0  0
  -23.7232  -30.6022   19.4058 H   0  0  0  0  0  0
  -22.7383  -29.2470   19.8668 H   0  0  0  0  0  0
  -25.1281  -36.1978   25.0829 H   0  0  0  0  0  0
  -20.9960  -28.3232   24.1433 H   0  0  0  0  0  0
  -20.5669  -26.2271   23.3611 H   0  0  0  0  0  0
  -21.6641  -26.7439   22.1211 H   0  0  0  0  0  0
  -19.6912  -25.6299   21.1235 H   0  0  0  0  0  0
  -19.6687  -27.3199   20.6750 H   0  0  0  0  0  0
  -17.4197  -26.6674   21.4023 H   0  0  0  0  0  0
  -18.0322  -26.0063   22.9012 H   0  0  0  0  0  0
  -19.7932  -30.7262   24.2274 H   0  0  0  0  0  0
  -17.5009  -31.6261   24.5170 H   0  0  0  0  0  0
  -15.5346  -30.2987   23.7647 H   0  0  0  0  0  0
  -15.8666  -28.0827   22.7049 H   0  0  0  0  0  0
  -24.5913  -30.7043   25.7816 H   0  0  0  0  0  0
  -24.8917  -32.2858   26.4929 H   0  0  0  0  0  0
  -25.8092  -30.8875   27.0236 H   0  0  0  0  0  0
  -26.2853  -29.6798   24.1171 H   0  0  0  0  0  0
  -27.4060  -29.7275   25.4590 H   0  0  0  0  0  0
  -27.8696  -30.4352   23.9287 H   0  0  0  0  0  0
  -27.2670  -33.3617   26.2084 H   0  0  0  0  0  0
  -28.3840  -32.6894   25.0299 H   0  0  0  0  0  0
  -28.0734  -31.8437   26.5386 H   0  0  0  0  0  0
  -28.2603  -38.0101   24.7511 H   0  0  0  0  0  0
  -28.1069  -36.2633   24.6295 H   0  0  0  0  0  0
  -27.2298  -37.1462   25.8870 H   0  0  0  0  0  0
  -20.9308  -29.8773   21.6952 H   0  0  0  0  0  0
  -26.0185  -38.2874   24.1409 H   0  0  0  0  0  0
  -27.9736  -19.9792   18.3271 H   0  0  0  0  0  0
  -28.5282  -18.0538   17.0099 H   0  0  0  0  0  0
  -29.6091  -18.0864   21.8437 H   0  0  0  0  0  0
  -27.3229  -23.7070   23.0849 H   0  0  0  0  0  0
  -27.2438  -21.9107   22.7552 H   0  0  0  0  0  0
  -30.1783  -24.4632   21.0122 H   0  0  0  0  0  0
  -28.9948  -25.0595   22.1034 H   0  0  0  0  0  0
  -30.6129  -23.6565   19.0180 H   0  0  0  0  0  0
  -29.8215  -23.3444   17.5261 H   0  0  0  0  0  0
  -27.8944  -24.6934   18.0151 H   0  0  0  0  0  0
  -29.3554  -25.6012   18.2267 H   0  0  0  0  0  0
  -29.5156  -21.4430   18.6107 H   0  0  0  0  0  0
  -27.9209  -22.1715   18.8204 H   0  0  0  0  0  0
  -27.2859  -24.8713   20.2226 H   0  0  0  0  0  0
  -29.6237  -16.1010   16.6514 H   0  0  0  0  0  0
  -28.7688  -15.0625   17.7652 H   0  0  0  0  0  0
  -30.5507  -15.2644   17.8567 H   0  0  0  0  0  0
  -28.8583  -20.3755   22.0189 H   0  0  0  0  0  0
  -27.4756  -20.6009   20.9802 H   0  0  0  0  0  0
  -29.0654  -15.3670   21.3470 H   0  0  0  0  0  0
  -30.0765  -21.8712   20.7682 H   0  0  0  0  0  0
  1 25  1  0  0  0
  1 30  2  0  0  0
  1 86  1  0  0  0
  2  3  1  0  0  0
  2 25  1  0  0  0
  2 88  1  0  0  0
  2 89  1  0  0  0
  3  4  1  0  0  0
  3 90  1  0  0  0
  3 91  1  0  0  0
  4  5  1  0  0  0
  4 92  1  0  0  0
  4 93  1  0  0  0
  5  6  1  0  0  0
  5 26  1  0  0  0
  5 94  1  0  0  0
  6 25  1  0  0  0
  6 95  1  0  0  0
  6 96  1  0  0  0
  7  8  2  0  0  0
  7 26  1  0  0  0
  7 29  1  0  0  0
  8  9  1  0  0  0
  8 22  1  0  0  0
  9 10  1  0  0  0
  9 27  2  0  0  0
 10 11  2  0  0  0
 10 15  1  0  0  0
 11 12  1  0  0  0
 11 97  1  0  0  0
 12 13  2  0  0  0
 12 98  1  0  0  0
 13 14  1  0  0  0
 13 31  1  0  0  0
 14 15  2  0  0  0
 14 99  1  0  0  0
 15100  1  0  0  0
 16 17  2  0  0  0
 16 21  1  0  0  0
 16 31  1  0  0  0
 17 18  1  0  0  0
 17101  1  0  0  0
 18 19  2  0  0  0
 18102  1  0  0  0
 19 20  1  0  0  0
 19 24  1  0  0  0
 20 21  2  0  0  0
 20103  1  0  0  0
 21 23  1  0  0  0
 22 28  1  0  0  0
 22 32  2  0  0  0
 26 27  1  0  0  0
 28104  1  0  0  0
 28105  1  0  0  0
 29106  1  0  0  0
 29107  1  0  0  0
 33 34  1  0  0  0
 33 66  1  0  0  0
 33 70  2  0  0  0
 34 36  1  0  0  0
 34 59  1  0  0  0
 34108  1  0  0  0
 35 44  2  0  0  0
 35 45  1  0  0  0
 35 68  1  0  0  0
 36 56  1  0  0  0
 36109  1  0  0  0
 37 39  1  0  0  0
 37 47  1  0  0  0
 37 66  1  0  0  0
 37110  1  0  0  0
 38 43  2  0  0  0
 38 46  1  0  0  0
 38 47  1  0  0  0
 39 64  1  0  0  0
 39 67  2  0  0  0
 40 52  1  0  0  0
 40 53  2  0  0  0
 40 58  1  0  0  0
 41111  1  0  0  0
 41112  1  0  0  0
 41113  1  0  0  0
 41 48  1  0  0  0
 42 43  1  0  0  0
 42 66  1  0  0  0
 42114  1  0  0  0
 42115  1  0  0  0
 43 44  1  0  0  0
 44116  1  0  0  0
 45 46  2  0  0  0
 45117  1  0  0  0
 46118  1  0  0  0
 47119  1  0  0  0
 47120  1  0  0  0
 48 56  1  0  0  0
 48 65  1  0  0  0
 48121  1  0  0  0
 49 50  1  0  0  0
 49 53  1  0  0  0
 49 64  1  0  0  0
 49122  1  0  0  0
 50 51  1  0  0  0
 50123  1  0  0  0
 50124  1  0  0  0
 51 52  1  0  0  0
 51125  1  0  0  0
 51126  1  0  0  0
 52127  1  0  0  0
 52128  1  0  0  0
 53 54  1  0  0  0
 54 55  2  0  0  0
 54129  1  0  0  0
 55 57  1  0  0  0
 55130  1  0  0  0
 56 69  2  0  0  0
 57 58  2  0  0  0
 57131  1  0  0  0
 58132  1  0  0  0
 59 60  1  0  0  0
 59 61  1  0  0  0
 59 62  1  0  0  0
 60133  1  0  0  0
 60134  1  0  0  0
 60135  1  0  0  0
 61136  1  0  0  0
 61137  1  0  0  0
 61138  1  0  0  0
 62139  1  0  0  0
 62140  1  0  0  0
 62141  1  0  0  0
 63 65  1  0  0  0
 63142  1  0  0  0
 63143  1  0  0  0
 63144  1  0  0  0
 64145  1  0  0  0
 65146  1  0  0  0
 68 83  1  0  0  0
 71 72  2  0  0  0
 71 74  1  0  0  0
 71147  1  0  0  0
 72 75  1  0  0  0
 72148  1  0  0  0
 73 74  2  0  0  0
 73 76  1  0  0  0
 73149  1  0  0  0
 74 85  1  0  0  0
 75 76  2  0  0  0
 75 84  1  0  0  0
 76 86  1  0  0  0
 77 78  2  0  0  0
 77 79  1  0  0  0
 77 87  1  0  0  0
 78150  1  0  0  0
 78151  1  0  0  0
 79 83  1  0  0  0
 79152  1  0  0  0
 79153  1  0  0  0
 80 81  1  0  0  0
 80 82  1  0  0  0
 80154  1  0  0  0
 80155  1  0  0  0
 81 83  1  0  0  0
 81156  1  0  0  0
 81157  1  0  0  0
 82 87  1  0  0  0
 82158  1  0  0  0
 82159  1  0  0  0
 83160  1  0  0  0
 84161  1  0  0  0
 84162  1  0  0  0
 84163  1  0  0  0
 85164  1  0  0  0
 85165  1  0  0  0
 85 87  1  0  0  0
 86166  1  0  0  0
 87167  1  0  0  0
M  CHG  1  87   1
M  ISO  4   1 100  68 101  83 101  86 100
M  END
> <chiral flag>
0

> <version>
0

> <s_m_source_file>
/data/baiqing/PycharmProjects/Reinvent-master-3.2/result/LINK_invent/BTK/process_docking_weight1_custom_product_contain_oxygen_bond_distance_aromatic_linkinvent_7_9_3/rearranged_h_0040.sdf

> <i_m_source_file_index>
57

> <r_mmod_Potential_Energy-OPLS-2005>
-5.55194807052612

> <r_mmod_Stretch_Energy-OPLS-2005>
61.4767227172852

> <r_mmod_Bend_Energy-OPLS-2005>
152.404006958008

> <r_mmod_Torsional_Energy-OPLS-2005>
286.280242919922

> <r_mmod_Improper_Torsional_Energy-OPLS-2005>
7.64552402496338

> <r_mmod_Van_der_Waal_Energy-OPLS-2005>
177.905212402344

> <r_mmod_Electrostatic_Energy-OPLS-2005>
-279.737243652344

> <r_mmod_Solvation_Energy-OPLS-2005>
-443.285919189453

> <b_mmod_Minimization_Converged-OPLS-2005>
0

> <r_mmod_RMS_Derivative-OPLS-2005>
0.978639483451843

$$$$
57
                    3D
 Structure written by MMmdl.
168176  0  0  1  0            999 V2000
  -29.9474  -15.7785   20.7865 C   0  0  0  0  0  0
  -30.3642  -13.2630   19.7114 C   0  0  0  0  0  0
  -29.5686  -12.7744   18.4470 C   0  0  0  0  0  0
  -28.1506  -12.3245   18.8193 C   0  0  0  0  0  0
  -27.5639  -13.3007   19.8599 C   0  0  2  0  0  0
  -28.4843  -13.5778   21.0628 C   0  0  0  0  0  0
  -25.2101  -13.8240   20.5715 C   0  0  0  0  0  0
  -24.1535  -13.0390   20.9249 C   0  0  0  0  0  0
  -24.6242  -11.6896   20.8742 C   0  0  0  0  0  0
  -23.9016  -10.4248   21.0414 C   0  0  0  0  0  0
  -24.3603   -9.4185   21.9191 C   0  0  0  0  0  0
  -23.6292   -8.2221   22.0758 C   0  0  0  0  0  0
  -22.4279   -8.0258   21.3540 C   0  0  0  0  0  0
  -21.9888   -9.0224   20.4647 C   0  0  0  0  0  0
  -22.7204  -10.2098   20.3058 C   0  0  0  0  0  0
  -21.6844   -6.0736   22.5282 C   0  0  0  0  0  0
  -21.4015   -6.5643   23.8216 C   0  0  0  0  0  0
  -21.3658   -5.6798   24.9182 C   0  0  0  0  0  0
  -21.6034   -4.3055   24.7228 C   0  0  0  0  0  0
  -21.8829   -3.8146   23.4347 C   0  0  0  0  0  0
  -21.9194   -4.6967   22.3404 C   0  0  0  0  0  0
  -22.7593  -13.5160   21.1945 C   0  0  0  0  0  0
  -22.1664   -4.2156   21.0980 F   0  0  0  0  0  0
  -21.5624   -3.4536   25.7737 F   0  0  0  0  0  0
  -29.6132  -14.3511   20.5453 N   0  0  0  0  0  0
  -26.2425  -12.9493   20.3100 N   0  0  0  0  0  0
  -25.9140  -11.6581   20.5607 N   0  0  0  0  0  0
  -22.0284  -12.8123   22.0510 N   0  0  0  0  0  0
  -25.3760  -15.1984   20.4208 N   0  0  0  0  0  0
  -31.1699  -15.8395   20.4865 O   0  0  0  0  0  0
  -21.6634   -6.8869   21.4244 O   0  0  0  0  0  0
  -22.3276  -14.5471   20.6795 O   0  0  0  0  0  0
  -25.4056  -31.4879   23.1267 C   0  0  0  0  0  0
  -26.4379  -32.3817   23.8364 C   0  0  1  0  0  0
  -26.2406  -29.4130   19.3345 C   0  0  0  0  0  0
  -25.9154  -33.7719   24.1750 N   0  0  0  0  0  0
  -24.2152  -28.6706   21.7729 C   0  0  2  0  0  0
  -25.5433  -27.6504   20.6912 C   0  0  0  0  0  0
  -22.6452  -28.2194   22.1275 C   0  0  0  0  0  0
  -17.8682  -28.1290   22.8837 C   0  0  0  0  0  0
  -24.1725  -36.6405   23.2583 C   0  0  0  0  0  0
  -26.7529  -29.7007   22.1128 C   0  0  0  0  0  0
  -26.6418  -28.5855   21.1036 C   0  0  0  0  0  0
  -27.3564  -29.0591   20.0634 C   0  0  0  0  0  0
  -25.9897  -28.1590   18.6286 C   0  0  0  0  0  0
  -25.6713  -27.0929   19.4393 C   0  0  0  0  0  0
  -24.1765  -28.1257   20.4800 C   0  0  0  0  0  0
  -25.4477  -36.2202   24.0098 C   0  0  1  0  0  0
  -20.2813  -28.2535   22.4713 C   0  0  2  0  0  0
  -20.2814  -26.7104   22.3171 C   0  0  0  0  0  0
  -19.1119  -26.3417   21.4846 C   0  0  0  0  0  0
  -17.8655  -26.7361   22.2520 C   0  0  0  0  0  0
  -19.0615  -28.8470   23.1368 C   0  0  0  0  0  0
  -19.0085  -30.1071   23.7709 C   0  0  0  0  0  0
  -17.7506  -30.6752   24.0735 C   0  0  0  0  0  0
  -26.0164  -34.8903   23.4435 C   0  0  0  0  0  0
  -16.5673  -29.9820   23.7543 C   0  0  0  0  0  0
  -16.6275  -28.7046   23.1791 C   0  0  0  0  0  0
  -26.7534  -31.7118   25.2092 C   0  0  0  0  0  0
  -25.5438  -31.3971   26.1413 C   0  0  0  0  0  0
  -27.5794  -30.4436   25.0079 C   0  0  0  0  0  0
  -27.7068  -32.6479   25.9661 C   0  0  0  0  0  0
  -27.5593  -37.1649   24.8489 C   0  0  0  0  0  0
  -21.4760  -28.9368   22.0646 N   0  0  0  0  0  0
  -26.4172  -37.3390   23.9587 N   0  0  0  0  0  0
  -25.5038  -30.0545   22.4645 N   0  0  0  0  0  0
  -22.6532  -27.4021   23.0056 O   0  0  0  0  0  0
  -25.2505  -30.3507   20.1424 O   0  0  0  0  0  0
  -26.6001  -34.8968   22.3609 O   0  0  0  0  0  0
  -24.3356  -32.1673   23.3309 O   0  0  0  0  0  0
  -25.1690  -21.0329   22.0274 C   0  0  0  0  0  0
  -26.2291  -20.0734   21.8274 C   0  0  0  0  0  0
  -25.2316  -22.4154   22.4403 C   0  0  0  0  0  0
  -27.5959  -21.9604   22.4439 C   0  0  0  0  0  0
  -27.6121  -20.3528   21.9927 C   0  0  0  0  0  0
  -26.4328  -23.1228   22.7290 C   0  0  0  0  0  0
  -25.8348  -18.6711   21.3884 C   0  0  0  0  0  0
  -23.9094  -23.1583   22.5603 C   0  0  0  0  0  0
  -28.9897  -22.5251   22.6105 C   0  0  0  0  0  0
  -28.8512  -18.8674   21.6125 C   0  0  0  0  0  0
  -26.2164  -24.9724   23.3716 C   0  0  0  0  0  0
  -23.5022  -29.8868   23.6465 C   0  0  0  0  0  0
  -24.6794  -28.0790   24.1554 C   0  0  0  0  0  0
  -23.6548  -30.8544   21.3252 C   0  0  0  0  0  0
  -29.0143  -17.0405   21.2130 N   0  0  0  0  0  0
  -25.0667  -26.4162   23.3763 N   0  3  0  0  0  0
  -31.3238  -13.6545   19.3718 H   0  0  0  0  0  0
  -30.6234  -12.4100   20.3447 H   0  0  0  0  0  0
  -30.1035  -11.9677   17.9415 H   0  0  0  0  0  0
  -29.5076  -13.5990   17.7354 H   0  0  0  0  0  0
  -28.2063  -11.3219   19.2476 H   0  0  0  0  0  0
  -27.5153  -12.2569   17.9338 H   0  0  0  0  0  0
  -27.4556  -14.2400   19.3145 H   0  0  0  0  0  0
  -28.7787  -12.6625   21.5793 H   0  0  0  0  0  0
  -27.9596  -14.1886   21.8011 H   0  0  0  0  0  0
  -25.2752   -9.5686   22.4757 H   0  0  0  0  0  0
  -24.0012   -7.4616   22.7460 H   0  0  0  0  0  0
  -21.0827   -8.8740   19.8945 H   0  0  0  0  0  0
  -22.3667  -10.9649   19.6167 H   0  0  0  0  0  0
  -21.2009   -7.6149   23.9724 H   0  0  0  0  0  0
  -21.1467   -6.0520   25.9081 H   0  0  0  0  0  0
  -22.0607   -2.7608   23.2842 H   0  0  0  0  0  0
  -22.3936  -11.9789   22.4877 H   0  0  0  0  0  0
  -21.0906  -13.1123   22.2772 H   0  0  0  0  0  0
  -24.5924  -15.8340   20.5126 H   0  0  0  0  0  0
  -26.1851  -15.6205   19.9850 H   0  0  0  0  0  0
  -27.3274  -32.4722   23.2121 H   0  0  0  0  0  0
  -25.3840  -33.8301   25.0308 H   0  0  0  0  0  0
  -23.3647  -28.8469   21.1898 H   0  0  0  0  0  0
  -23.4266  -35.8451   23.2793 H   0  0  0  0  0  0
  -24.3808  -36.8628   22.2116 H   0  0  0  0  0  0
  -23.7153  -37.5236   23.7047 H   0  0  0  0  0  0
  -27.3511  -30.5757   21.8484 H   0  0  0  0  0  0
  -27.2782  -29.1848   22.9031 H   0  0  0  0  0  0
  -28.1263  -29.8078   20.1963 H   0  0  0  0  0  0
  -25.6461  -28.1375   17.6023 H   0  0  0  0  0  0
  -25.0892  -26.2750   19.0320 H   0  0  0  0  0  0
  -23.8889  -28.6790   19.5428 H   0  0  0  0  0  0
  -23.5996  -27.1819   20.3443 H   0  0  0  0  0  0
  -25.1686  -36.0548   25.0525 H   0  0  0  0  0  0
  -19.9060  -28.5538   21.4892 H   0  0  0  0  0  0
  -20.2747  -26.1959   23.2796 H   0  0  0  0  0  0
  -21.0845  -26.2792   21.7220 H   0  0  0  0  0  0
  -19.0933  -25.2698   21.2833 H   0  0  0  0  0  0
  -19.1307  -26.8217   20.5062 H   0  0  0  0  0  0
  -16.9916  -26.6358   21.6085 H   0  0  0  0  0  0
  -17.7273  -26.0267   23.0699 H   0  0  0  0  0  0
  -19.9164  -30.6666   23.9461 H   0  0  0  0  0  0
  -17.7010  -31.6576   24.5276 H   0  0  0  0  0  0
  -15.6099  -30.4288   23.9725 H   0  0  0  0  0  0
  -15.7100  -28.1676   22.9669 H   0  0  0  0  0  0
  -25.1183  -30.4169   25.9455 H   0  0  0  0  0  0
  -24.7549  -32.1467   26.0763 H   0  0  0  0  0  0
  -25.8624  -31.3599   27.1833 H   0  0  0  0  0  0
  -27.0252  -29.5422   24.9535 H   0  0  0  0  0  0
  -28.1950  -30.2492   25.8869 H   0  0  0  0  0  0
  -28.3003  -30.5355   24.1942 H   0  0  0  0  0  0
  -27.2172  -33.5581   26.3150 H   0  0  0  0  0  0
  -28.5553  -32.9511   25.3505 H   0  0  0  0  0  0
  -28.1138  -32.1884   26.8674 H   0  0  0  0  0  0
  -28.2116  -38.0344   24.7776 H   0  0  0  0  0  0
  -28.1568  -36.2872   24.6005 H   0  0  0  0  0  0
  -27.2371  -37.0807   25.8868 H   0  0  0  0  0  0
  -21.4054  -29.8142   21.5713 H   0  0  0  0  0  0
  -25.9632  -38.2130   24.2078 H   0  0  0  0  0  0
  -24.1713  -20.6575   21.8372 H   0  0  0  0  0  0
  -24.7550  -18.5584   21.2887 H   0  0  0  0  0  0
  -26.1722  -17.9381   22.1209 H   0  0  0  0  0  0
  -26.2825  -18.4178   20.4253 H   0  0  0  0  0  0
  -23.0486  -22.4905   22.5042 H   0  0  0  0  0  0
  -23.8242  -23.8859   21.7516 H   0  0  0  0  0  0
  -23.8252  -23.6902   23.5071 H   0  0  0  0  0  0
  -29.7429  -21.7415   22.5434 H   0  0  0  0  0  0
  -29.1031  -23.0240   23.5740 H   0  0  0  0  0  0
  -29.1946  -23.2480   21.8187 H   0  0  0  0  0  0
  -29.5124  -18.9478   22.4765 H   0  0  0  0  0  0
  -29.4419  -19.3018   20.8045 H   0  0  0  0  0  0
  -27.1267  -25.4464   23.0037 H   0  0  0  0  0  0
  -26.4178  -24.8502   24.4359 H   0  0  0  0  0  0
  -23.6295  -30.5077   24.5274 H   0  0  0  0  0  0
  -22.4670  -29.8236   23.9893 H   0  0  0  0  0  0
  -24.3231  -27.8138   25.1504 H   0  0  0  0  0  0
  -25.6784  -28.3671   24.3559 H   0  0  0  0  0  0
  -23.5608  -31.9383   21.2577 H   0  0  0  0  0  0
  -22.7516  -30.6816   20.7360 H   0  0  0  0  0  0
  -28.0941  -16.6402   21.3342 H   0  0  0  0  0  0
  -24.1537  -25.9932   23.4336 H   0  0  0  0  0  0
  -25.1693  -26.6909   22.4128 H   0  0  0  0  0  0
  1 25  1  0  0  0
  1 30  2  0  0  0
  1 85  1  0  0  0
  2  3  1  0  0  0
  2 25  1  0  0  0
  2 87  1  0  0  0
  2 88  1  0  0  0
  3  4  1  0  0  0
  3 89  1  0  0  0
  3 90  1  0  0  0
  4  5  1  0  0  0
  4 91  1  0  0  0
  4 92  1  0  0  0
  5  6  1  0  0  0
  5 26  1  0  0  0
  5 93  1  0  0  0
  6 25  1  0  0  0
  6 94  1  0  0  0
  6 95  1  0  0  0
  7  8  2  0  0  0
  7 26  1  0  0  0
  7 29  1  0  0  0
  8  9  1  0  0  0
  8 22  1  0  0  0
  9 10  1  0  0  0
  9 27  2  0  0  0
 10 11  2  0  0  0
 10 15  1  0  0  0
 11 12  1  0  0  0
 11 96  1  0  0  0
 12 13  2  0  0  0
 12 97  1  0  0  0
 13 14  1  0  0  0
 13 31  1  0  0  0
 14 15  2  0  0  0
 14 98  1  0  0  0
 15 99  1  0  0  0
 16 17  2  0  0  0
 16 21  1  0  0  0
 16 31  1  0  0  0
 17 18  1  0  0  0
 17100  1  0  0  0
 18 19  2  0  0  0
 18101  1  0  0  0
 19 20  1  0  0  0
 19 24  1  0  0  0
 20 21  2  0  0  0
 20102  1  0  0  0
 21 23  1  0  0  0
 22 28  1  0  0  0
 22 32  2  0  0  0
 26 27  1  0  0  0
 28103  1  0  0  0
 28104  1  0  0  0
 29105  1  0  0  0
 29106  1  0  0  0
 33 34  1  0  0  0
 33 66  1  0  0  0
 33 70  2  0  0  0
 34 36  1  0  0  0
 34 59  1  0  0  0
 34107  1  0  0  0
 35 44  2  0  0  0
 35 45  1  0  0  0
 35 68  1  0  0  0
 36 56  1  0  0  0
 36108  1  0  0  0
 37 39  1  0  0  0
 37 47  1  0  0  0
 37 66  1  0  0  0
 37109  1  0  0  0
 38 43  2  0  0  0
 38 46  1  0  0  0
 38 47  1  0  0  0
 39 64  1  0  0  0
 39 67  2  0  0  0
 40 52  1  0  0  0
 40 53  2  0  0  0
 40 58  1  0  0  0
 41110  1  0  0  0
 41111  1  0  0  0
 41112  1  0  0  0
 41 48  1  0  0  0
 42 43  1  0  0  0
 42 66  1  0  0  0
 42113  1  0  0  0
 42114  1  0  0  0
 43 44  1  0  0  0
 44115  1  0  0  0
 45 46  2  0  0  0
 45116  1  0  0  0
 46117  1  0  0  0
 47118  1  0  0  0
 47119  1  0  0  0
 48 56  1  0  0  0
 48 65  1  0  0  0
 48120  1  0  0  0
 49 50  1  0  0  0
 49 53  1  0  0  0
 49 64  1  0  0  0
 49121  1  0  0  0
 50 51  1  0  0  0
 50122  1  0  0  0
 50123  1  0  0  0
 51 52  1  0  0  0
 51124  1  0  0  0
 51125  1  0  0  0
 52126  1  0  0  0
 52127  1  0  0  0
 53 54  1  0  0  0
 54 55  2  0  0  0
 54128  1  0  0  0
 55 57  1  0  0  0
 55129  1  0  0  0
 56 69  2  0  0  0
 57 58  2  0  0  0
 57130  1  0  0  0
 58131  1  0  0  0
 59 60  1  0  0  0
 59 61  1  0  0  0
 59 62  1  0  0  0
 60132  1  0  0  0
 60133  1  0  0  0
 60134  1  0  0  0
 61135  1  0  0  0
 61136  1  0  0  0
 61137  1  0  0  0
 62138  1  0  0  0
 62139  1  0  0  0
 62140  1  0  0  0
 63 65  1  0  0  0
 63141  1  0  0  0
 63142  1  0  0  0
 63143  1  0  0  0
 64144  1  0  0  0
 65145  1  0  0  0
 68 84  1  0  0  0
 71 72  2  0  0  0
 71 73  1  0  0  0
 71146  1  0  0  0
 72 75  1  0  0  0
 72 77  1  0  0  0
 73 76  2  0  0  0
 73 78  1  0  0  0
 74 75  2  0  0  0
 74 76  1  0  0  0
 74 79  1  0  0  0
 75 80  1  0  0  0
 76 81  1  0  0  0
 77147  1  0  0  0
 77148  1  0  0  0
 77149  1  0  0  0
 78150  1  0  0  0
 78151  1  0  0  0
 78152  1  0  0  0
 79153  1  0  0  0
 79154  1  0  0  0
 79155  1  0  0  0
 80 85  1  0  0  0
 80156  1  0  0  0
 80157  1  0  0  0
 81 86  1  0  0  0
 81158  1  0  0  0
 81159  1  0  0  0
 82 83  1  0  0  0
 82 84  1  0  0  0
 82160  1  0  0  0
 82161  1  0  0  0
 83 86  1  0  0  0
 83162  1  0  0  0
 83163  1  0  0  0
 84164  1  0  0  0
 84165  1  0  0  0
 85166  1  0  0  0
 86167  1  0  0  0
 86168  1  0  0  0
M  CHG  1  86   1
M  ISO  4   1 100  68 101  84 101  85 100
M  END
> <chiral flag>
0

> <version>
0

> <s_m_source_file>
/data/baiqing/PycharmProjects/Reinvent-master-3.2/result/LINK_invent/BTK/process_docking_weight1_custom_product_contain_oxygen_bond_distance_aromatic_linkinvent_7_9_3/rearranged_h_0040.sdf

> <i_m_source_file_index>
58

> <r_mmod_Potential_Energy-OPLS-2005>
15174.98828125

> <r_mmod_Stretch_Energy-OPLS-2005>
4814.60595703125

> <r_mmod_Bend_Energy-OPLS-2005>
2066.74487304688

> <r_mmod_Torsional_Energy-OPLS-2005>
649.881958007812

> <r_mmod_Improper_Torsional_Energy-OPLS-2005>
97.3563003540039

> <r_mmod_Van_der_Waal_Energy-OPLS-2005>
1903.1630859375

> <r_mmod_Electrostatic_Energy-OPLS-2005>
-390.520233154297

> <r_mmod_Solvation_Energy-OPLS-2005>
-411.977813720703

> <b_mmod_Minimization_Converged-OPLS-2005>
0

> <r_mmod_RMS_Derivative-OPLS-2005>
6.08976602554321

$$$$
58
                    3D
 Structure written by MMmdl.
178187  0  0  1  0            999 V2000
  -29.6742  -16.3350   20.4593 C   0  0  0  0  0  0
  -30.2748  -13.6736   19.6120 C   0  0  0  0  0  0
  -29.5643  -12.9020   18.4337 C   0  0  0  0  0  0
  -28.1852  -12.3649   18.8423 C   0  0  0  0  0  0
  -27.5302  -13.3622   19.8124 C   0  0  2  0  0  0
  -28.4332  -13.9152   20.9430 C   0  0  0  0  0  0
  -25.1979  -13.8296   20.5801 C   0  0  0  0  0  0
  -24.1482  -13.0377   20.9311 C   0  0  0  0  0  0
  -24.6300  -11.6917   20.8799 C   0  0  0  0  0  0
  -23.9043  -10.4253   21.0384 C   0  0  0  0  0  0
  -24.3611   -9.4220   21.9187 C   0  0  0  0  0  0
  -23.6307   -8.2255   22.0761 C   0  0  0  0  0  0
  -22.4277   -8.0275   21.3561 C   0  0  0  0  0  0
  -21.9888   -9.0227   20.4654 C   0  0  0  0  0  0
  -22.7194  -10.2107   20.3055 C   0  0  0  0  0  0
  -21.6867   -6.0715   22.5274 C   0  0  0  0  0  0
  -21.4022   -6.5633   23.8202 C   0  0  0  0  0  0
  -21.3652   -5.6791   24.9169 C   0  0  0  0  0  0
  -21.6041   -4.3054   24.7230 C   0  0  0  0  0  0
  -21.8824   -3.8137   23.4358 C   0  0  0  0  0  0
  -21.9203   -4.6943   22.3409 C   0  0  0  0  0  0
  -22.7518  -13.5110   21.1963 C   0  0  0  0  0  0
  -22.1673   -4.2131   21.0990 F   0  0  0  0  0  0
  -21.5615   -3.4542   25.7745 F   0  0  0  0  0  0
  -29.4164  -14.8222   20.2932 N   0  0  0  0  0  0
  -26.2380  -12.9676   20.3106 N   0  0  0  0  0  0
  -25.9234  -11.6721   20.5634 N   0  0  0  0  0  0
  -22.0176  -12.8111   22.0509 N   0  0  0  0  0  0
  -25.3396  -15.2072   20.4263 N   0  0  0  0  0  0
  -30.9456  -16.2919   20.3539 O   0  0  0  0  0  0
  -21.6664   -6.8850   21.4230 O   0  0  0  0  0  0
  -22.3221  -14.5403   20.6771 O   0  0  0  0  0  0
  -24.6675  -31.6962   23.1188 C   0  0  0  0  0  0
  -25.9209  -32.3867   23.7668 C   0  0  1  0  0  0
  -27.8410  -26.9847   19.4968 C   0  0  0  0  0  0
  -25.5675  -33.7872   24.1422 N   0  0  0  0  0  0
  -23.4909  -30.1237   21.5624 C   0  0  2  0  0  0
  -24.7733  -27.8415   20.5694 C   0  0  0  0  0  0
  -22.7117  -29.3731   22.6113 C   0  0  0  0  0  0
  -18.0057  -28.1394   22.8572 C   0  0  0  0  0  0
  -24.1439  -36.6790   23.2702 C   0  0  0  0  0  0
  -25.9945  -30.0072   21.6730 C   0  0  0  0  0  0
  -26.0391  -28.3678   21.3618 C   0  0  0  0  0  0
  -27.4951  -27.8049   20.9222 C   0  0  0  0  0  0
  -26.4210  -26.4851   18.5234 C   0  0  0  0  0  0
  -24.9084  -26.8670   19.2570 C   0  0  0  0  0  0
  -23.6887  -29.0278   20.4134 C   0  0  0  0  0  0
  -25.4209  -36.2638   24.0229 C   0  0  1  0  0  0
  -20.5505  -28.3500   23.1642 C   0  0  2  0  0  0
  -20.6466  -26.9298   22.5637 C   0  0  0  0  0  0
  -19.5560  -26.6415   21.5283 C   0  0  0  0  0  0
  -18.1715  -26.7922   22.1704 C   0  0  0  0  0  0
  -19.1288  -28.8845   23.2969 C   0  0  0  0  0  0
  -18.9326  -30.1526   23.8832 C   0  0  0  0  0  0
  -17.6362  -30.6694   24.0513 C   0  0  0  0  0  0
  -25.9229  -34.9020   23.4825 C   0  0  0  0  0  0
  -16.5217  -29.9176   23.6390 C   0  0  0  0  0  0
  -16.7081  -28.6557   23.0451 C   0  0  0  0  0  0
  -26.4490  -31.6408   25.0691 C   0  0  0  0  0  0
  -25.3459  -31.3825   26.1192 C   0  0  0  0  0  0
  -27.0676  -30.2616   24.7450 C   0  0  0  0  0  0
  -27.5680  -32.4693   25.7523 C   0  0  0  0  0  0
  -27.5509  -37.1561   24.8522 C   0  0  0  0  0  0
  -21.3926  -29.2696   22.4223 N   0  0  0  0  0  0
  -26.4269  -37.3513   23.9397 N   0  0  0  0  0  0
  -24.7420  -30.6849   22.1562 N   0  0  0  0  0  0
  -23.3113  -28.8079   23.5242 O   0  0  0  0  0  0
  -29.1811  -26.7582   19.3481 O   0  0  0  0  0  0
  -26.6183  -34.8730   22.4643 O   0  0  0  0  0  0
  -23.5750  -32.0902   23.5656 O   0  0  0  0  0  0
  -26.2661  -22.5963   21.3767 C   0  0  0  0  0  0
  -25.8708  -24.2464   21.3193 C   0  0  0  0  0  0
  -27.4425  -21.6326   20.7768 C   0  0  0  0  0  0
  -27.9581  -23.0422   20.5080 C   0  0  0  0  0  0
  -27.2037  -24.3111   19.9231 C   0  0  0  0  0  0
  -26.4392  -25.5812   20.5834 C   0  0  0  0  0  0
  -28.3131  -24.7875   17.0206 C   0  0  0  0  0  0
  -32.9728  -27.1445   16.5305 C   0  0  0  0  0  0
  -28.3316  -25.7532   16.0785 C   0  0  0  0  0  0
  -31.7775  -27.5101   16.0237 C   0  0  0  0  0  0
  -29.3757  -26.7736   15.9651 C   0  0  0  0  0  0
  -30.7035  -26.5444   16.0070 C   0  0  0  0  0  0
  -29.2024  -22.0777   16.9906 C   0  0  0  0  0  0
  -30.1816  -23.3025   17.1510 C   0  0  0  0  0  0
  -27.7087  -22.4346   16.6456 C   0  0  0  0  0  0
  -29.4382  -24.4333   17.9166 C   0  0  1  0  0  0
  -29.1997  -23.3068   21.3402 C   0  0  0  0  0  0
  -28.4062  -19.7362   20.9321 C   0  0  0  0  0  0
  -26.5485  -23.7123   18.5747 C   0  0  0  0  0  0
  -29.9461  -25.5847   18.8623 C   0  0  0  0  0  0
  -28.7102  -17.7652   20.5813 N   0  0  0  0  0  0
  -27.2611  -23.7454   17.2272 N   0  3  2  0  0  0
  -26.3863  -28.7445   18.9832 Cl  0  0  0  0  0  0
  -31.1828  -14.1186   19.2042 H   0  0  0  0  0  0
  -30.6374  -12.9708   20.3609 H   0  0  0  0  0  0
  -30.2068  -12.1019   18.0619 H   0  0  0  0  0  0
  -29.4329  -13.6013   17.6057 H   0  0  0  0  0  0
  -28.3149  -11.3909   19.3282 H   0  0  0  0  0  0
  -27.5589  -12.2028   17.9615 H   0  0  0  0  0  0
  -27.3129  -14.2113   19.1620 H   0  0  0  0  0  0
  -28.8703  -13.1403   21.5767 H   0  0  0  0  0  0
  -27.8470  -14.5322   21.6247 H   0  0  0  0  0  0
  -25.2726   -9.5741   22.4784 H   0  0  0  0  0  0
  -23.9998   -7.4660   22.7515 H   0  0  0  0  0  0
  -21.0794   -8.8748   19.9001 H   0  0  0  0  0  0
  -22.3612  -10.9660   19.6203 H   0  0  0  0  0  0
  -21.2025   -7.6150   23.9688 H   0  0  0  0  0  0
  -21.1452   -6.0536   25.9061 H   0  0  0  0  0  0
  -22.0609   -2.7602   23.2872 H   0  0  0  0  0  0
  -22.3833  -11.9845   22.5016 H   0  0  0  0  0  0
  -21.0800  -13.1187   22.2675 H   0  0  0  0  0  0
  -24.5366  -15.8191   20.5251 H   0  0  0  0  0  0
  -26.1312  -15.6615   19.9976 H   0  0  0  0  0  0
  -26.7111  -32.4127   23.0158 H   0  0  0  0  0  0
  -24.9181  -33.8916   24.9079 H   0  0  0  0  0  0
  -22.8766  -30.9419   21.2047 H   0  0  0  0  0  0
  -23.3888  -35.8898   23.3357 H   0  0  0  0  0  0
  -24.3385  -36.8492   22.2087 H   0  0  0  0  0  0
  -23.6935  -37.5861   23.6836 H   0  0  0  0  0  0
  -26.1761  -30.5500   20.7512 H   0  0  0  0  0  0
  -26.8738  -30.2679   22.2376 H   0  0  0  0  0  0
  -28.3535  -28.2112   21.4430 H   0  0  0  0  0  0
  -26.3591  -26.0940   17.5305 H   0  0  0  0  0  0
  -24.0357  -26.6936   18.6445 H   0  0  0  0  0  0
  -23.8185  -29.5199   19.4545 H   0  0  0  0  0  0
  -22.7442  -28.4918   20.2611 H   0  0  0  0  0  0
  -25.1430  -36.1369   25.0713 H   0  0  0  0  0  0
  -20.9262  -28.2868   24.1906 H   0  0  0  0  0  0
  -20.5228  -26.2046   23.3720 H   0  0  0  0  0  0
  -21.6342  -26.7293   22.1517 H   0  0  0  0  0  0
  -19.6656  -25.6351   21.1247 H   0  0  0  0  0  0
  -19.6540  -27.3267   20.6841 H   0  0  0  0  0  0
  -17.3951  -26.6650   21.4158 H   0  0  0  0  0  0
  -18.0130  -26.0123   22.9164 H   0  0  0  0  0  0
  -19.7848  -30.7358   24.2028 H   0  0  0  0  0  0
  -17.4986  -31.6408   24.5057 H   0  0  0  0  0  0
  -15.5255  -30.3084   23.7890 H   0  0  0  0  0  0
  -15.8406  -28.0906   22.7279 H   0  0  0  0  0  0
  -24.5938  -30.6819   25.7533 H   0  0  0  0  0  0
  -24.8349  -32.3057   26.4011 H   0  0  0  0  0  0
  -25.7603  -30.9514   27.0321 H   0  0  0  0  0  0
  -26.3690  -29.5752   24.2628 H   0  0  0  0  0  0
  -27.3647  -29.7563   25.6644 H   0  0  0  0  0  0
  -27.9846  -30.3442   24.1587 H   0  0  0  0  0  0
  -27.1819  -33.4010   26.1683 H   0  0  0  0  0  0
  -28.3667  -32.7300   25.0590 H   0  0  0  0  0  0
  -28.0178  -31.9264   26.5839 H   0  0  0  0  0  0
  -28.2641  -37.9788   24.7619 H   0  0  0  0  0  0
  -28.0914  -36.2322   24.6379 H   0  0  0  0  0  0
  -27.2156  -37.1190   25.8922 H   0  0  0  0  0  0
  -20.9680  -29.7390   21.6318 H   0  0  0  0  0  0
  -26.0061  -38.2530   24.1504 H   0  0  0  0  0  0
  -25.5559  -22.0831   22.0108 H   0  0  0  0  0  0
  -24.9611  -24.4561   21.8642 H   0  0  0  0  0  0
  -33.8521  -27.7753   16.5117 H   0  0  0  0  0  0
  -33.1224  -26.1762   16.9961 H   0  0  0  0  0  0
  -27.5074  -25.7976   15.3821 H   0  0  0  0  0  0
  -31.6521  -28.5047   15.6075 H   0  0  0  0  0  0
  -29.0041  -27.7783   15.9183 H   0  0  0  0  0  0
  -31.0435  -25.5316   16.0580 H   0  0  0  0  0  0
  -29.2103  -21.4658   17.8954 H   0  0  0  0  0  0
  -29.5928  -21.4352   16.1998 H   0  0  0  0  0  0
  -30.4551  -23.6130   16.1437 H   0  0  0  0  0  0
  -31.1091  -23.0160   17.6357 H   0  0  0  0  0  0
  -27.0360  -21.6114   16.9071 H   0  0  0  0  0  0
  -27.5802  -22.4971   15.5575 H   0  0  0  0  0  0
  -29.1103  -23.7609   18.6541 H   0  0  0  0  0  0
  -29.1517  -22.7486   22.2795 H   0  0  0  0  0  0
  -29.3165  -24.3640   21.5678 H   0  0  0  0  0  0
  -30.0896  -22.9465   20.8337 H   0  0  0  0  0  0
  -29.4093  -20.0987   20.7182 H   0  0  0  0  0  0
  -28.3513  -19.6854   22.0212 H   0  0  0  0  0  0
  -25.5407  -24.1225   18.4465 H   0  0  0  0  0  0
  -26.3205  -22.6657   18.7472 H   0  0  0  0  0  0
  -30.8881  -25.9737   18.4847 H   0  0  0  0  0  0
  -30.2346  -25.1003   19.7874 H   0  0  0  0  0  0
  -27.7713  -17.3996   20.5053 H   0  0  0  0  0  0
  -26.4888  -23.9776   16.6205 H   0  0  0  0  0  0
  1 25  1  0  0  0
  1 30  2  0  0  0
  1 91  1  0  0  0
  2  3  1  0  0  0
  2 25  1  0  0  0
  2 94  1  0  0  0
  2 95  1  0  0  0
  3  4  1  0  0  0
  3 96  1  0  0  0
  3 97  1  0  0  0
  4  5  1  0  0  0
  4 98  1  0  0  0
  4 99  1  0  0  0
  5  6  1  0  0  0
  5 26  1  0  0  0
  5100  1  0  0  0
  6 25  1  0  0  0
  6101  1  0  0  0
  6102  1  0  0  0
  7  8  2  0  0  0
  7 26  1  0  0  0
  7 29  1  0  0  0
  8  9  1  0  0  0
  8 22  1  0  0  0
  9 10  1  0  0  0
  9 27  2  0  0  0
 10 11  2  0  0  0
 10 15  1  0  0  0
 11 12  1  0  0  0
 11103  1  0  0  0
 12 13  2  0  0  0
 12104  1  0  0  0
 13 14  1  0  0  0
 13 31  1  0  0  0
 14 15  2  0  0  0
 14105  1  0  0  0
 15106  1  0  0  0
 16 17  2  0  0  0
 16 21  1  0  0  0
 16 31  1  0  0  0
 17 18  1  0  0  0
 17107  1  0  0  0
 18 19  2  0  0  0
 18108  1  0  0  0
 19 20  1  0  0  0
 19 24  1  0  0  0
 20 21  2  0  0  0
 20109  1  0  0  0
 21 23  1  0  0  0
 22 28  1  0  0  0
 22 32  2  0  0  0
 26 27  1  0  0  0
 28110  1  0  0  0
 28111  1  0  0  0
 29112  1  0  0  0
 29113  1  0  0  0
 33 34  1  0  0  0
 33 66  1  0  0  0
 33 70  2  0  0  0
 34 36  1  0  0  0
 34 59  1  0  0  0
 34114  1  0  0  0
 35 44  2  0  0  0
 35 45  1  0  0  0
 35 68  1  0  0  0
 36 56  1  0  0  0
 36115  1  0  0  0
 37 39  1  0  0  0
 37 47  1  0  0  0
 37 66  1  0  0  0
 37116  1  0  0  0
 38 43  2  0  0  0
 38 46  1  0  0  0
 38 47  1  0  0  0
 39 64  1  0  0  0
 39 67  2  0  0  0
 40 52  1  0  0  0
 40 53  2  0  0  0
 40 58  1  0  0  0
 41117  1  0  0  0
 41118  1  0  0  0
 41119  1  0  0  0
 41 48  1  0  0  0
 42 43  1  0  0  0
 42 66  1  0  0  0
 42120  1  0  0  0
 42121  1  0  0  0
 43 44  1  0  0  0
 44122  1  0  0  0
 45 46  2  0  0  0
 45123  1  0  0  0
 46124  1  0  0  0
 47125  1  0  0  0
 47126  1  0  0  0
 48 56  1  0  0  0
 48 65  1  0  0  0
 48127  1  0  0  0
 49 50  1  0  0  0
 49 53  1  0  0  0
 49 64  1  0  0  0
 49128  1  0  0  0
 50 51  1  0  0  0
 50129  1  0  0  0
 50130  1  0  0  0
 51 52  1  0  0  0
 51131  1  0  0  0
 51132  1  0  0  0
 52133  1  0  0  0
 52134  1  0  0  0
 53 54  1  0  0  0
 54 55  2  0  0  0
 54135  1  0  0  0
 55 57  1  0  0  0
 55136  1  0  0  0
 56 69  2  0  0  0
 57 58  2  0  0  0
 57137  1  0  0  0
 58138  1  0  0  0
 59 60  1  0  0  0
 59 61  1  0  0  0
 59 62  1  0  0  0
 60139  1  0  0  0
 60140  1  0  0  0
 60141  1  0  0  0
 61142  1  0  0  0
 61143  1  0  0  0
 61144  1  0  0  0
 62145  1  0  0  0
 62146  1  0  0  0
 62147  1  0  0  0
 63 65  1  0  0  0
 63148  1  0  0  0
 63149  1  0  0  0
 63150  1  0  0  0
 64151  1  0  0  0
 65152  1  0  0  0
 68 90  1  0  0  0
 71 72  2  0  0  0
 71 73  1  0  0  0
 71153  1  0  0  0
 72 76  1  0  0  0
 72154  1  0  0  0
 73 74  2  0  0  0
 73 88  1  0  0  0
 74 75  1  0  0  0
 74 87  1  0  0  0
 75 76  2  0  0  0
 75 89  1  0  0  0
 76 93  1  0  0  0
 77 79  2  0  0  0
 77 86  1  0  0  0
 77 92  1  0  0  0
 78 80  2  0  0  0
 78155  1  0  0  0
 78156  1  0  0  0
 79 81  1  0  0  0
 79157  1  0  0  0
 80 82  1  0  0  0
 80158  1  0  0  0
 81 82  2  0  0  0
 81159  1  0  0  0
 82160  1  0  0  0
 83 84  1  0  0  0
 83 85  1  0  0  0
 83161  1  0  0  0
 83162  1  0  0  0
 84 86  1  0  0  0
 84163  1  0  0  0
 84164  1  0  0  0
 85 92  1  0  0  0
 85165  1  0  0  0
 85166  1  0  0  0
 86 90  1  0  0  0
 86167  1  0  0  0
 87168  1  0  0  0
 87169  1  0  0  0
 87170  1  0  0  0
 88 91  1  0  0  0
 88171  1  0  0  0
 88172  1  0  0  0
 89173  1  0  0  0
 89174  1  0  0  0
 89 92  1  0  0  0
 90175  1  0  0  0
 90176  1  0  0  0
 91177  1  0  0  0
 92178  1  0  0  0
M  CHG  1  92   1
M  ISO  4   1 100  68 101  90 101  91 100
M  END
> <chiral flag>
0

> <version>
0

> <s_m_source_file>
/data/baiqing/PycharmProjects/Reinvent-master-3.2/result/LINK_invent/BTK/process_docking_weight1_custom_product_contain_oxygen_bond_distance_aromatic_linkinvent_7_9_3/rearranged_h_0040.sdf

> <i_m_source_file_index>
59

> <r_mmod_Potential_Energy-OPLS-2005>
13559.1767578125

> <r_mmod_Stretch_Energy-OPLS-2005>
7238.18115234375

> <r_mmod_Bend_Energy-OPLS-2005>
1520.70715332031

> <r_mmod_Torsional_Energy-OPLS-2005>
645.009948730469

> <r_mmod_Improper_Torsional_Energy-OPLS-2005>
80.2333602905273

> <r_mmod_Van_der_Waal_Energy-OPLS-2005>
2249.60717773438

> <r_mmod_Electrostatic_Energy-OPLS-2005>
-277.595336914062

> <r_mmod_Solvation_Energy-OPLS-2005>
-455.360717773438

> <b_mmod_Minimization_Converged-OPLS-2005>
0

> <r_mmod_RMS_Derivative-OPLS-2005>
22.1948490142822

$$$$
59
                    3D
 Structure written by MMmdl.
159167  0  0  1  0            999 V2000
  -30.6135  -14.7419   20.3867 C   0  0  0  0  0  0
  -30.4429  -12.4214   19.4900 C   0  0  0  0  0  0
  -29.5278  -12.4329   18.2473 C   0  0  0  0  0  0
  -28.0431  -12.3253   18.6549 C   0  0  0  0  0  0
  -27.6531  -13.2334   19.8546 C   0  0  2  0  0  0
  -28.7010  -13.1693   20.9874 C   0  0  0  0  0  0
  -25.2544  -13.8216   20.5664 C   0  0  0  0  0  0
  -24.1858  -13.0446   20.9194 C   0  0  0  0  0  0
  -24.6460  -11.6934   20.8735 C   0  0  0  0  0  0
  -23.9122  -10.4310   21.0402 C   0  0  0  0  0  0
  -24.3655   -9.4216   21.9175 C   0  0  0  0  0  0
  -23.6322   -8.2250   22.0756 C   0  0  0  0  0  0
  -22.4301   -8.0285   21.3544 C   0  0  0  0  0  0
  -21.9933   -9.0268   20.4640 C   0  0  0  0  0  0
  -22.7278  -10.2146   20.3064 C   0  0  0  0  0  0
  -21.6849   -6.0715   22.5263 C   0  0  0  0  0  0
  -21.3996   -6.5625   23.8187 C   0  0  0  0  0  0
  -21.3683   -5.6798   24.9159 C   0  0  0  0  0  0
  -21.6061   -4.3057   24.7216 C   0  0  0  0  0  0
  -21.8821   -3.8145   23.4330 C   0  0  0  0  0  0
  -21.9206   -4.6951   22.3389 C   0  0  0  0  0  0
  -22.7869  -13.5193   21.1874 C   0  0  0  0  0  0
  -22.1669   -4.2148   21.0959 F   0  0  0  0  0  0
  -21.5654   -3.4548   25.7722 F   0  0  0  0  0  0
  -30.0032  -13.5075   20.3975 N   0  0  0  0  0  0
  -26.3022  -12.9439   20.3309 N   0  0  0  0  0  0
  -25.9392  -11.6586   20.5773 N   0  0  0  0  0  0
  -22.0553  -12.8165   22.0422 N   0  0  0  0  0  0
  -25.4179  -15.1926   20.3964 N   0  0  0  0  0  0
  -31.8037  -14.8361   20.0786 O   0  0  0  0  0  0
  -21.6654   -6.8880   21.4236 O   0  0  0  0  0  0
  -22.3534  -14.5498   20.6732 O   0  0  0  0  0  0
  -24.6304  -31.8570   23.2001 C   0  0  0  0  0  0
  -25.9150  -32.4763   23.8315 C   0  0  1  0  0  0
  -27.2224  -27.2789   20.1257 C   0  0  0  0  0  0
  -25.5945  -33.8560   24.2248 N   0  0  0  0  0  0
  -23.4266  -30.4819   21.5442 C   0  0  2  0  0  0
  -24.8732  -28.9366   20.1056 C   0  0  0  0  0  0
  -22.7487  -29.4646   22.4929 C   0  0  0  0  0  0
  -18.0292  -28.1427   22.8508 C   0  0  0  0  0  0
  -24.1506  -36.7285   23.2633 C   0  0  0  0  0  0
  -25.9692  -30.7768   21.3777 C   0  0  0  0  0  0
  -26.0422  -29.4003   20.7204 C   0  0  0  0  0  0
  -27.2149  -28.5800   20.7283 C   0  0  0  0  0  0
  -26.0347  -26.8919   19.4612 C   0  0  0  0  0  0
  -24.8749  -27.6901   19.4626 C   0  0  0  0  0  0
  -23.6409  -29.8169   20.1598 C   0  0  0  0  0  0
  -25.4131  -36.3064   24.0321 C   0  0  1  0  0  0
  -20.5902  -28.3748   23.1304 C   0  0  2  0  0  0
  -20.6815  -26.9484   22.5423 C   0  0  0  0  0  0
  -19.5762  -26.6434   21.5252 C   0  0  0  0  0  0
  -18.1936  -26.7975   22.1647 C   0  0  0  0  0  0
  -19.1546  -28.8905   23.2896 C   0  0  0  0  0  0
  -18.9448  -30.1505   23.8920 C   0  0  0  0  0  0
  -17.6442  -30.6629   24.0594 C   0  0  0  0  0  0
  -25.9057  -34.9446   23.5085 C   0  0  0  0  0  0
  -16.5345  -29.9122   23.6349 C   0  0  0  0  0  0
  -16.7274  -28.6542   23.0369 C   0  0  0  0  0  0
  -26.4499  -31.6578   25.0706 C   0  0  0  0  0  0
  -25.3703  -31.3729   26.1402 C   0  0  0  0  0  0
  -27.0343  -30.2993   24.6204 C   0  0  0  0  0  0
  -27.6056  -32.4315   25.7489 C   0  0  0  0  0  0
  -27.5596  -37.1806   24.8457 C   0  0  0  0  0  0
  -21.4198  -29.3061   22.3648 N   0  0  0  0  0  0
  -26.4306  -37.3778   23.9404 N   0  0  0  0  0  0
  -24.6950  -31.0556   22.0982 N   0  0  0  0  0  0
  -23.4170  -28.8205   23.3063 O   0  0  0  0  0  0
  -28.3229  -26.3938   20.2081 O   0  0  0  0  0  0
  -26.5609  -34.8927   22.4642 O   0  0  0  0  0  0
  -23.5469  -32.1363   23.7331 O   0  0  0  0  0  0
  -29.4990  -19.7312   18.4981 C   0  0  0  0  0  0
  -29.6559  -18.4530   20.5624 C   0  0  0  0  0  0
  -29.5143  -19.7409   19.9065 C   0  0  0  0  0  0
  -29.6169  -18.5341   17.7663 C   0  0  0  0  0  0
  -29.7862  -17.2852   18.4297 C   0  0  0  0  0  0
  -29.8132  -17.1949   19.8581 C   0  0  0  0  0  0
  -29.5170  -18.6342   16.2431 C   0  0  0  0  0  0
  -29.8800  -16.0247   17.5910 C   0  0  0  0  0  0
  -29.4280  -21.1404   20.6559 C   0  0  0  0  0  0
  -29.0726  -23.7778   20.4811 C   0  0  0  0  0  0
  -28.1465  -24.9443   19.8629 C   0  0  0  0  0  0
  -29.8226  -15.8724   20.5522 N   0  0  0  0  0  0
  -28.8898  -22.3625   19.9049 N   0  3  0  0  0  0
  -31.4904  -12.5233   19.1998 H   0  0  0  0  0  0
  -30.3714  -11.4583   19.9989 H   0  0  0  0  0  0
  -29.7775  -11.5993   17.5912 H   0  0  0  0  0  0
  -29.7122  -13.3227   17.6536 H   0  0  0  0  0  0
  -27.8678  -11.2818   18.9178 H   0  0  0  0  0  0
  -27.4009  -12.5283   17.8004 H   0  0  0  0  0  0
  -27.6489  -14.2522   19.4716 H   0  0  0  0  0  0
  -28.7377  -12.1767   21.4376 H   0  0  0  0  0  0
  -28.4500  -13.8527   21.7981 H   0  0  0  0  0  0
  -25.2798   -9.5677   22.4734 H   0  0  0  0  0  0
  -24.0018   -7.4633   22.7465 H   0  0  0  0  0  0
  -21.0872   -8.8811   19.8923 H   0  0  0  0  0  0
  -22.3761  -10.9676   19.6172 H   0  0  0  0  0  0
  -21.1959   -7.6132   23.9680 H   0  0  0  0  0  0
  -21.1504   -6.0523   25.9064 H   0  0  0  0  0  0
  -22.0587   -2.7604   23.2826 H   0  0  0  0  0  0
  -22.4220  -11.9819   22.4757 H   0  0  0  0  0  0
  -21.1148  -13.1107   22.2607 H   0  0  0  0  0  0
  -24.6386  -15.8338   20.4854 H   0  0  0  0  0  0
  -26.2450  -15.6274   20.0071 H   0  0  0  0  0  0
  -26.7233  -32.5439   23.1062 H   0  0  0  0  0  0
  -25.0108  -33.9707   25.0402 H   0  0  0  0  0  0
  -22.7243  -31.3058   21.4017 H   0  0  0  0  0  0
  -23.3782  -35.9607   23.3257 H   0  0  0  0  0  0
  -24.3587  -36.8941   22.2051 H   0  0  0  0  0  0
  -23.7255  -37.6479   23.6672 H   0  0  0  0  0  0
  -26.1006  -31.5440   20.6120 H   0  0  0  0  0  0
  -26.8478  -30.8258   22.0095 H   0  0  0  0  0  0
  -28.1040  -28.9294   21.2343 H   0  0  0  0  0  0
  -25.9614  -25.9550   18.9314 H   0  0  0  0  0  0
  -23.9857  -27.3389   18.9565 H   0  0  0  0  0  0
  -23.7511  -30.5907   19.4001 H   0  0  0  0  0  0
  -22.7607  -29.2413   19.8634 H   0  0  0  0  0  0
  -25.1331  -36.1890   25.0819 H   0  0  0  0  0  0
  -20.9984  -28.3344   24.1427 H   0  0  0  0  0  0
  -20.5832  -26.2344   23.3610 H   0  0  0  0  0  0
  -21.6679  -26.7582   22.1157 H   0  0  0  0  0  0
  -19.6943  -25.6335   21.1297 H   0  0  0  0  0  0
  -19.6710  -27.3257   20.6784 H   0  0  0  0  0  0
  -17.4227  -26.6747   21.4034 H   0  0  0  0  0  0
  -18.0307  -26.0122   22.9035 H   0  0  0  0  0  0
  -19.7912  -30.7345   24.2300 H   0  0  0  0  0  0
  -17.4987  -31.6321   24.5180 H   0  0  0  0  0  0
  -15.5351  -30.3029   23.7684 H   0  0  0  0  0  0
  -15.8664  -28.0887   22.7060 H   0  0  0  0  0  0
  -24.5877  -30.7090   25.7685 H   0  0  0  0  0  0
  -24.8894  -32.2907   26.4808 H   0  0  0  0  0  0
  -25.7992  -30.8882   27.0181 H   0  0  0  0  0  0
  -26.2922  -29.6738   24.1219 H   0  0  0  0  0  0
  -27.3977  -29.7268   25.4745 H   0  0  0  0  0  0
  -27.8824  -30.4239   23.9469 H   0  0  0  0  0  0
  -27.2654  -33.3613   26.2066 H   0  0  0  0  0  0
  -28.3867  -32.6877   25.0315 H   0  0  0  0  0  0
  -28.0708  -31.8422   26.5398 H   0  0  0  0  0  0
  -28.2591  -38.0128   24.7557 H   0  0  0  0  0  0
  -28.1125  -36.2665   24.6236 H   0  0  0  0  0  0
  -27.2305  -37.1399   25.8856 H   0  0  0  0  0  0
  -20.9375  -29.8666   21.6755 H   0  0  0  0  0  0
  -26.0167  -38.2853   24.1412 H   0  0  0  0  0  0
  -29.3853  -20.6587   17.9560 H   0  0  0  0  0  0
  -29.6476  -18.4305   21.6432 H   0  0  0  0  0  0
  -29.4343  -19.6651   15.8964 H   0  0  0  0  0  0
  -28.6318  -18.1047   15.8852 H   0  0  0  0  0  0
  -30.3929  -18.2060   15.7566 H   0  0  0  0  0  0
  -30.8800  -15.5965   17.6659 H   0  0  0  0  0  0
  -29.6723  -16.1545   16.5327 H   0  0  0  0  0  0
  -29.1339  -15.3272   17.9580 H   0  0  0  0  0  0
  -30.4362  -21.3654   21.0069 H   0  0  0  0  0  0
  -28.8190  -21.0064   21.5518 H   0  0  0  0  0  0
  -28.8985  -23.7287   21.5556 H   0  0  0  0  0  0
  -30.1194  -24.0566   20.3544 H   0  0  0  0  0  0
  -27.1312  -24.6346   20.1104 H   0  0  0  0  0  0
  -28.2229  -24.8871   18.7778 H   0  0  0  0  0  0
  -28.9685  -15.6778   21.0546 H   0  0  0  0  0  0
  -27.9055  -22.1966   19.7590 H   0  0  0  0  0  0
  -29.3213  -22.3620   18.9952 H   0  0  0  0  0  0
  1 25  1  0  0  0
  1 30  2  0  0  0
  1 82  1  0  0  0
  2  3  1  0  0  0
  2 25  1  0  0  0
  2 84  1  0  0  0
  2 85  1  0  0  0
  3  4  1  0  0  0
  3 86  1  0  0  0
  3 87  1  0  0  0
  4  5  1  0  0  0
  4 88  1  0  0  0
  4 89  1  0  0  0
  5  6  1  0  0  0
  5 26  1  0  0  0
  5 90  1  0  0  0
  6 25  1  0  0  0
  6 91  1  0  0  0
  6 92  1  0  0  0
  7  8  2  0  0  0
  7 26  1  0  0  0
  7 29  1  0  0  0
  8  9  1  0  0  0
  8 22  1  0  0  0
  9 10  1  0  0  0
  9 27  2  0  0  0
 10 11  2  0  0  0
 10 15  1  0  0  0
 11 12  1  0  0  0
 11 93  1  0  0  0
 12 13  2  0  0  0
 12 94  1  0  0  0
 13 14  1  0  0  0
 13 31  1  0  0  0
 14 15  2  0  0  0
 14 95  1  0  0  0
 15 96  1  0  0  0
 16 17  2  0  0  0
 16 21  1  0  0  0
 16 31  1  0  0  0
 17 18  1  0  0  0
 17 97  1  0  0  0
 18 19  2  0  0  0
 18 98  1  0  0  0
 19 20  1  0  0  0
 19 24  1  0  0  0
 20 21  2  0  0  0
 20 99  1  0  0  0
 21 23  1  0  0  0
 22 28  1  0  0  0
 22 32  2  0  0  0
 26 27  1  0  0  0
 28100  1  0  0  0
 28101  1  0  0  0
 29102  1  0  0  0
 29103  1  0  0  0
 33 34  1  0  0  0
 33 66  1  0  0  0
 33 70  2  0  0  0
 34 36  1  0  0  0
 34 59  1  0  0  0
 34104  1  0  0  0
 35 44  2  0  0  0
 35 45  1  0  0  0
 35 68  1  0  0  0
 36 56  1  0  0  0
 36105  1  0  0  0
 37 39  1  0  0  0
 37 47  1  0  0  0
 37 66  1  0  0  0
 37106  1  0  0  0
 38 43  2  0  0  0
 38 46  1  0  0  0
 38 47  1  0  0  0
 39 64  1  0  0  0
 39 67  2  0  0  0
 40 52  1  0  0  0
 40 53  2  0  0  0
 40 58  1  0  0  0
 41107  1  0  0  0
 41108  1  0  0  0
 41109  1  0  0  0
 41 48  1  0  0  0
 42 43  1  0  0  0
 42 66  1  0  0  0
 42110  1  0  0  0
 42111  1  0  0  0
 43 44  1  0  0  0
 44112  1  0  0  0
 45 46  2  0  0  0
 45113  1  0  0  0
 46114  1  0  0  0
 47115  1  0  0  0
 47116  1  0  0  0
 48 56  1  0  0  0
 48 65  1  0  0  0
 48117  1  0  0  0
 49 50  1  0  0  0
 49 53  1  0  0  0
 49 64  1  0  0  0
 49118  1  0  0  0
 50 51  1  0  0  0
 50119  1  0  0  0
 50120  1  0  0  0
 51 52  1  0  0  0
 51121  1  0  0  0
 51122  1  0  0  0
 52123  1  0  0  0
 52124  1  0  0  0
 53 54  1  0  0  0
 54 55  2  0  0  0
 54125  1  0  0  0
 55 57  1  0  0  0
 55126  1  0  0  0
 56 69  2  0  0  0
 57 58  2  0  0  0
 57127  1  0  0  0
 58128  1  0  0  0
 59 60  1  0  0  0
 59 61  1  0  0  0
 59 62  1  0  0  0
 60129  1  0  0  0
 60130  1  0  0  0
 60131  1  0  0  0
 61132  1  0  0  0
 61133  1  0  0  0
 61134  1  0  0  0
 62135  1  0  0  0
 62136  1  0  0  0
 62137  1  0  0  0
 63 65  1  0  0  0
 63138  1  0  0  0
 63139  1  0  0  0
 63140  1  0  0  0
 64141  1  0  0  0
 65142  1  0  0  0
 68 81  1  0  0  0
 71 73  2  0  0  0
 71 74  1  0  0  0
 71143  1  0  0  0
 72 73  1  0  0  0
 72 76  2  0  0  0
 72144  1  0  0  0
 73 79  1  0  0  0
 74 75  2  0  0  0
 74 77  1  0  0  0
 75 76  1  0  0  0
 75 78  1  0  0  0
 76 82  1  0  0  0
 77145  1  0  0  0
 77146  1  0  0  0
 77147  1  0  0  0
 78148  1  0  0  0
 78149  1  0  0  0
 78150  1  0  0  0
 79 83  1  0  0  0
 79151  1  0  0  0
 79152  1  0  0  0
 80 81  1  0  0  0
 80 83  1  0  0  0
 80153  1  0  0  0
 80154  1  0  0  0
 81155  1  0  0  0
 81156  1  0  0  0
 82157  1  0  0  0
 83158  1  0  0  0
 83159  1  0  0  0
M  CHG  1  83   1
M  ISO  4   1 100  68 101  81 101  82 100
M  END
> <chiral flag>
0

> <version>
0

> <s_m_source_file>
/data/baiqing/PycharmProjects/Reinvent-master-3.2/result/LINK_invent/BTK/process_docking_weight1_custom_product_contain_oxygen_bond_distance_aromatic_linkinvent_7_9_3/rearranged_h_0040.sdf

> <i_m_source_file_index>
60

> <r_mmod_Potential_Energy-OPLS-2005>
-22.2984619140625

> <r_mmod_Stretch_Energy-OPLS-2005>
114.770133972168

> <r_mmod_Bend_Energy-OPLS-2005>
152.760482788086

> <r_mmod_Torsional_Energy-OPLS-2005>
244.811721801758

> <r_mmod_Improper_Torsional_Energy-OPLS-2005>
5.77347373962402

> <r_mmod_Van_der_Waal_Energy-OPLS-2005>
150.129104614258

> <r_mmod_Electrostatic_Energy-OPLS-2005>
-307.006958007812

> <r_mmod_Solvation_Energy-OPLS-2005>
-467.770385742188

> <b_mmod_Minimization_Converged-OPLS-2005>
0

> <r_mmod_RMS_Derivative-OPLS-2005>
4.25066232681274

$$$$
60
                    3D
 Structure written by MMmdl.
168176  0  0  1  0            999 V2000
  -30.8205  -14.3565   20.6289 C   0  0  0  0  0  0
  -30.3878  -12.2727   19.3948 C   0  0  0  0  0  0
  -29.4664  -12.5049   18.1856 C   0  0  0  0  0  0
  -27.9932  -12.3759   18.6101 C   0  0  0  0  0  0
  -27.6555  -13.2168   19.8697 C   0  0  2  0  0  0
  -28.7018  -13.0145   20.9873 C   0  0  0  0  0  0
  -25.2568  -13.8199   20.5725 C   0  0  0  0  0  0
  -24.1815  -13.0457   20.9170 C   0  0  0  0  0  0
  -24.6391  -11.6933   20.8736 C   0  0  0  0  0  0
  -23.9062  -10.4311   21.0409 C   0  0  0  0  0  0
  -24.3616   -9.4227   21.9194 C   0  0  0  0  0  0
  -23.6289   -8.2262   22.0762 C   0  0  0  0  0  0
  -22.4276   -8.0287   21.3549 C   0  0  0  0  0  0
  -21.9908   -9.0268   20.4659 C   0  0  0  0  0  0
  -22.7232  -10.2148   20.3065 C   0  0  0  0  0  0
  -21.6864   -6.0737   22.5276 C   0  0  0  0  0  0
  -21.4038   -6.5642   23.8207 C   0  0  0  0  0  0
  -21.3666   -5.6790   24.9167 C   0  0  0  0  0  0
  -21.6036   -4.3054   24.7219 C   0  0  0  0  0  0
  -21.8810   -3.8147   23.4342 C   0  0  0  0  0  0
  -21.9195   -4.6965   22.3398 C   0  0  0  0  0  0
  -22.7847  -13.5252   21.1827 C   0  0  0  0  0  0
  -22.1659   -4.2146   21.0978 F   0  0  0  0  0  0
  -21.5618   -3.4541   25.7737 F   0  0  0  0  0  0
  -30.0356  -13.2675   20.4177 N   0  0  0  0  0  0
  -26.3008  -12.9391   20.3399 N   0  0  0  0  0  0
  -25.9321  -11.6541   20.5790 N   0  0  0  0  0  0
  -22.0488  -12.8261   22.0390 N   0  0  0  0  0  0
  -25.4253  -15.1918   20.4200 N   0  0  0  0  0  0
  -31.9497  -14.4657   20.1481 O   0  0  0  0  0  0
  -21.6644   -6.8885   21.4241 O   0  0  0  0  0  0
  -22.3537  -14.5561   20.6671 O   0  0  0  0  0  0
  -24.6191  -31.8751   23.2179 C   0  0  0  0  0  0
  -25.9096  -32.4856   23.8477 C   0  0  1  0  0  0
  -27.1969  -27.4293   20.0652 C   0  0  0  0  0  0
  -25.5947  -33.8652   24.2405 N   0  0  0  0  0  0
  -23.4029  -30.5092   21.5621 C   0  0  2  0  0  0
  -24.8342  -28.9998   20.1066 C   0  0  0  0  0  0
  -22.7449  -29.4704   22.5002 C   0  0  0  0  0  0
  -18.0286  -28.1373   22.8491 C   0  0  0  0  0  0
  -24.1463  -36.7321   23.2631 C   0  0  0  0  0  0
  -25.9387  -30.8322   21.3787 C   0  0  0  0  0  0
  -26.0028  -29.4722   20.7173 C   0  0  0  0  0  0
  -27.1863  -28.6931   20.7037 C   0  0  0  0  0  0
  -26.0029  -27.0127   19.4113 C   0  0  0  0  0  0
  -24.8295  -27.7671   19.4504 C   0  0  0  0  0  0
  -23.6055  -29.8695   20.1667 C   0  0  0  0  0  0
  -25.4079  -36.3130   24.0353 C   0  0  1  0  0  0
  -20.5882  -28.3679   23.1281 C   0  0  2  0  0  0
  -20.6771  -26.9418   22.5386 C   0  0  0  0  0  0
  -19.5736  -26.6386   21.5193 C   0  0  0  0  0  0
  -18.1925  -26.7918   22.1624 C   0  0  0  0  0  0
  -19.1541  -28.8843   23.2886 C   0  0  0  0  0  0
  -18.9465  -30.1439   23.8912 C   0  0  0  0  0  0
  -17.6472  -30.6580   24.0561 C   0  0  0  0  0  0
  -25.9032  -34.9496   23.5167 C   0  0  0  0  0  0
  -16.5362  -29.9088   23.6306 C   0  0  0  0  0  0
  -16.7281  -28.6489   23.0359 C   0  0  0  0  0  0
  -26.4505  -31.6610   25.0802 C   0  0  0  0  0  0
  -25.3758  -31.3755   26.1549 C   0  0  0  0  0  0
  -27.0321  -30.3036   24.6176 C   0  0  0  0  0  0
  -27.6084  -32.4327   25.7574 C   0  0  0  0  0  0
  -27.5567  -37.1813   24.8475 C   0  0  0  0  0  0
  -21.4181  -29.3063   22.3718 N   0  0  0  0  0  0
  -26.4269  -37.3810   23.9428 N   0  0  0  0  0  0
  -24.6727  -31.0859   22.1091 N   0  0  0  0  0  0
  -23.4237  -28.8225   23.3019 O   0  0  0  0  0  0
  -28.3235  -26.6144   20.1064 O   0  0  0  0  0  0
  -26.5571  -34.8931   22.4723 O   0  0  0  0  0  0
  -23.5381  -32.1540   23.7538 O   0  0  0  0  0  0
  -29.3857  -18.4031   19.3172 C   0  0  0  0  0  0
  -28.6821  -17.1078   21.6819 C   0  0  0  0  0  0
  -28.4589  -19.0122   20.1747 C   0  0  0  0  0  0
  -30.0015  -17.1772   19.6329 C   0  0  0  0  0  0
  -28.0797  -18.3431   21.3610 C   0  0  0  0  0  0
  -29.6695  -16.5137   20.8599 C   0  0  0  0  0  0
  -31.0478  -16.7168   18.6283 C   0  0  0  0  0  0
  -27.0382  -18.9230   22.3036 C   0  0  0  0  0  0
  -27.8923  -20.3650   19.7608 C   0  0  0  0  0  0
  -28.9597  -24.0857   20.1479 C   0  0  0  0  0  0
  -30.8949  -15.4356   22.7538 C   0  0  0  0  0  0
  -28.2145  -22.7931   19.6981 C   0  0  0  0  0  0
  -28.0514  -25.2514   19.7283 C   0  0  0  0  0  0
  -31.9047  -16.5919   22.8741 C   0  0  0  0  0  0
  -30.3246  -15.3451   21.3949 N   0  0  0  0  0  0
  -28.7643  -21.4990   20.1557 N   0  3  0  0  0  0
  -32.6092  -16.6325   24.5109 Cl  0  0  0  0  0  0
  -31.4345  -12.3213   19.0887 H   0  0  0  0  0  0
  -30.2434  -11.2659   19.7909 H   0  0  0  0  0  0
  -29.6870  -11.7835   17.3973 H   0  0  0  0  0  0
  -29.6446  -13.4930   17.7576 H   0  0  0  0  0  0
  -27.7932  -11.3213   18.8023 H   0  0  0  0  0  0
  -27.3395  -12.6623   17.7852 H   0  0  0  0  0  0
  -27.6967  -14.2637   19.5686 H   0  0  0  0  0  0
  -28.6595  -11.9960   21.3757 H   0  0  0  0  0  0
  -28.4772  -13.6637   21.8346 H   0  0  0  0  0  0
  -25.2759   -9.5699   22.4774 H   0  0  0  0  0  0
  -23.9993   -7.4655   22.7490 H   0  0  0  0  0  0
  -21.0833   -8.8795   19.8971 H   0  0  0  0  0  0
  -22.3691  -10.9695   19.6175 H   0  0  0  0  0  0
  -21.2054   -7.6152   23.9709 H   0  0  0  0  0  0
  -21.1492   -6.0528   25.9066 H   0  0  0  0  0  0
  -22.0585   -2.7612   23.2841 H   0  0  0  0  0  0
  -22.4117  -11.9927   22.4780 H   0  0  0  0  0  0
  -21.1118  -13.1311   22.2613 H   0  0  0  0  0  0
  -24.6577  -15.8414   20.5454 H   0  0  0  0  0  0
  -26.2936  -15.6482   20.1704 H   0  0  0  0  0  0
  -26.7189  -32.5557   23.1262 H   0  0  0  0  0  0
  -25.0163  -33.9839   25.0592 H   0  0  0  0  0  0
  -22.6922  -31.3288   21.4385 H   0  0  0  0  0  0
  -23.3714  -35.9668   23.3327 H   0  0  0  0  0  0
  -24.3549  -36.8897   22.2037 H   0  0  0  0  0  0
  -23.7222  -37.6543   23.6617 H   0  0  0  0  0  0
  -26.0627  -31.5950   20.6086 H   0  0  0  0  0  0
  -26.8262  -30.8774   21.9978 H   0  0  0  0  0  0
  -28.0789  -29.0452   21.2017 H   0  0  0  0  0  0
  -25.9203  -26.0931   18.8519 H   0  0  0  0  0  0
  -23.9384  -27.4118   18.9494 H   0  0  0  0  0  0
  -23.7248  -30.6591   19.4233 H   0  0  0  0  0  0
  -22.7253  -29.3021   19.8580 H   0  0  0  0  0  0
  -25.1230  -36.2019   25.0842 H   0  0  0  0  0  0
  -20.9970  -28.3228   24.1400 H   0  0  0  0  0  0
  -20.5642  -26.2314   23.3591 H   0  0  0  0  0  0
  -21.6643  -26.7443   22.1195 H   0  0  0  0  0  0
  -19.6900  -25.6295   21.1217 H   0  0  0  0  0  0
  -19.6632  -27.3192   20.6714 H   0  0  0  0  0  0
  -17.4188  -26.6658   21.4036 H   0  0  0  0  0  0
  -18.0346  -26.0053   22.9016 H   0  0  0  0  0  0
  -19.7947  -30.7229   24.2305 H   0  0  0  0  0  0
  -17.5034  -31.6250   24.5179 H   0  0  0  0  0  0
  -15.5367  -30.3014   23.7579 H   0  0  0  0  0  0
  -15.8679  -28.0785   22.7111 H   0  0  0  0  0  0
  -24.5902  -30.7135   25.7896 H   0  0  0  0  0  0
  -24.8994  -32.2940   26.4984 H   0  0  0  0  0  0
  -25.8087  -30.8932   27.0321 H   0  0  0  0  0  0
  -26.2884  -29.6832   24.1155 H   0  0  0  0  0  0
  -27.4014  -29.7228   25.4638 H   0  0  0  0  0  0
  -27.8765  -30.4352   23.9406 H   0  0  0  0  0  0
  -27.2697  -33.3604   26.2200 H   0  0  0  0  0  0
  -28.3872  -32.6919   25.0392 H   0  0  0  0  0  0
  -28.0789  -31.8436   26.5456 H   0  0  0  0  0  0
  -28.2600  -38.0089   24.7485 H   0  0  0  0  0  0
  -28.1041  -36.2621   24.6324 H   0  0  0  0  0  0
  -27.2308  -37.1513   25.8887 H   0  0  0  0  0  0
  -20.9368  -29.8848   21.6973 H   0  0  0  0  0  0
  -26.0166  -38.2901   24.1393 H   0  0  0  0  0  0
  -29.6518  -18.9147   18.4018 H   0  0  0  0  0  0
  -28.3893  -16.6201   22.5999 H   0  0  0  0  0  0
  -30.8388  -15.7176   18.2467 H   0  0  0  0  0  0
  -32.0444  -16.7556   19.0700 H   0  0  0  0  0  0
  -31.0717  -17.3703   17.7565 H   0  0  0  0  0  0
  -26.9476  -18.3335   23.2166 H   0  0  0  0  0  0
  -26.0574  -18.9419   21.8258 H   0  0  0  0  0  0
  -27.3065  -19.9383   22.5968 H   0  0  0  0  0  0
  -26.8861  -20.4926   20.1613 H   0  0  0  0  0  0
  -27.7735  -20.3632   18.6756 H   0  0  0  0  0  0
  -29.9390  -24.1713   19.6765 H   0  0  0  0  0  0
  -29.1068  -24.0956   21.2294 H   0  0  0  0  0  0
  -30.1007  -15.5492   23.4912 H   0  0  0  0  0  0
  -31.3939  -14.5028   23.0339 H   0  0  0  0  0  0
  -28.1404  -22.7746   18.6089 H   0  0  0  0  0  0
  -27.1848  -22.8325   20.0606 H   0  0  0  0  0  0
  -27.1028  -24.9734   20.1917 H   0  0  0  0  0  0
  -27.9263  -25.2203   18.6433 H   0  0  0  0  0  0
  -31.4370  -17.5606   22.6952 H   0  0  0  0  0  0
  -32.7255  -16.4839   22.1631 H   0  0  0  0  0  0
  -29.6815  -21.3626   19.7647 H   0  0  0  0  0  0
  -28.8473  -21.5043   21.1586 H   0  0  0  0  0  0
  1 25  1  0  0  0
  1 30  2  0  0  0
  1 85  1  0  0  0
  2  3  1  0  0  0
  2 25  1  0  0  0
  2 88  1  0  0  0
  2 89  1  0  0  0
  3  4  1  0  0  0
  3 90  1  0  0  0
  3 91  1  0  0  0
  4  5  1  0  0  0
  4 92  1  0  0  0
  4 93  1  0  0  0
  5  6  1  0  0  0
  5 26  1  0  0  0
  5 94  1  0  0  0
  6 25  1  0  0  0
  6 95  1  0  0  0
  6 96  1  0  0  0
  7  8  2  0  0  0
  7 26  1  0  0  0
  7 29  1  0  0  0
  8  9  1  0  0  0
  8 22  1  0  0  0
  9 10  1  0  0  0
  9 27  2  0  0  0
 10 11  2  0  0  0
 10 15  1  0  0  0
 11 12  1  0  0  0
 11 97  1  0  0  0
 12 13  2  0  0  0
 12 98  1  0  0  0
 13 14  1  0  0  0
 13 31  1  0  0  0
 14 15  2  0  0  0
 14 99  1  0  0  0
 15100  1  0  0  0
 16 17  2  0  0  0
 16 21  1  0  0  0
 16 31  1  0  0  0
 17 18  1  0  0  0
 17101  1  0  0  0
 18 19  2  0  0  0
 18102  1  0  0  0
 19 20  1  0  0  0
 19 24  1  0  0  0
 20 21  2  0  0  0
 20103  1  0  0  0
 21 23  1  0  0  0
 22 28  1  0  0  0
 22 32  2  0  0  0
 26 27  1  0  0  0
 28104  1  0  0  0
 28105  1  0  0  0
 29106  1  0  0  0
 29107  1  0  0  0
 33 34  1  0  0  0
 33 66  1  0  0  0
 33 70  2  0  0  0
 34 36  1  0  0  0
 34 59  1  0  0  0
 34108  1  0  0  0
 35 44  2  0  0  0
 35 45  1  0  0  0
 35 68  1  0  0  0
 36 56  1  0  0  0
 36109  1  0  0  0
 37 39  1  0  0  0
 37 47  1  0  0  0
 37 66  1  0  0  0
 37110  1  0  0  0
 38 43  2  0  0  0
 38 46  1  0  0  0
 38 47  1  0  0  0
 39 64  1  0  0  0
 39 67  2  0  0  0
 40 52  1  0  0  0
 40 53  2  0  0  0
 40 58  1  0  0  0
 41111  1  0  0  0
 41112  1  0  0  0
 41113  1  0  0  0
 41 48  1  0  0  0
 42 43  1  0  0  0
 42 66  1  0  0  0
 42114  1  0  0  0
 42115  1  0  0  0
 43 44  1  0  0  0
 44116  1  0  0  0
 45 46  2  0  0  0
 45117  1  0  0  0
 46118  1  0  0  0
 47119  1  0  0  0
 47120  1  0  0  0
 48 56  1  0  0  0
 48 65  1  0  0  0
 48121  1  0  0  0
 49 50  1  0  0  0
 49 53  1  0  0  0
 49 64  1  0  0  0
 49122  1  0  0  0
 50 51  1  0  0  0
 50123  1  0  0  0
 50124  1  0  0  0
 51 52  1  0  0  0
 51125  1  0  0  0
 51126  1  0  0  0
 52127  1  0  0  0
 52128  1  0  0  0
 53 54  1  0  0  0
 54 55  2  0  0  0
 54129  1  0  0  0
 55 57  1  0  0  0
 55130  1  0  0  0
 56 69  2  0  0  0
 57 58  2  0  0  0
 57131  1  0  0  0
 58132  1  0  0  0
 59 60  1  0  0  0
 59 61  1  0  0  0
 59 62  1  0  0  0
 60133  1  0  0  0
 60134  1  0  0  0
 60135  1  0  0  0
 61136  1  0  0  0
 61137  1  0  0  0
 61138  1  0  0  0
 62139  1  0  0  0
 62140  1  0  0  0
 62141  1  0  0  0
 63 65  1  0  0  0
 63142  1  0  0  0
 63143  1  0  0  0
 63144  1  0  0  0
 64145  1  0  0  0
 65146  1  0  0  0
 68 83  1  0  0  0
 71 73  2  0  0  0
 71 74  1  0  0  0
 71147  1  0  0  0
 72 75  2  0  0  0
 72 76  1  0  0  0
 72148  1  0  0  0
 73 75  1  0  0  0
 73 79  1  0  0  0
 74 76  2  0  0  0
 74 77  1  0  0  0
 75 78  1  0  0  0
 76 85  1  0  0  0
 77149  1  0  0  0
 77150  1  0  0  0
 77151  1  0  0  0
 78152  1  0  0  0
 78153  1  0  0  0
 78154  1  0  0  0
 79 86  1  0  0  0
 79155  1  0  0  0
 79156  1  0  0  0
 80 82  1  0  0  0
 80 83  1  0  0  0
 80157  1  0  0  0
 80158  1  0  0  0
 81 84  1  0  0  0
 81 85  1  0  0  0
 81159  1  0  0  0
 81160  1  0  0  0
 82 86  1  0  0  0
 82161  1  0  0  0
 82162  1  0  0  0
 83163  1  0  0  0
 83164  1  0  0  0
 84 87  1  0  0  0
 84165  1  0  0  0
 84166  1  0  0  0
 86167  1  0  0  0
 86168  1  0  0  0
M  CHG  1  86   1
M  ISO  4   1 100  68 101  83 101  85 100
M  END
> <chiral flag>
0

> <version>
0

> <s_m_source_file>
/data/baiqing/PycharmProjects/Reinvent-master-3.2/result/LINK_invent/BTK/process_docking_weight1_custom_product_contain_oxygen_bond_distance_aromatic_linkinvent_7_9_3/rearranged_h_0040.sdf

> <i_m_source_file_index>
61

> <r_mmod_Potential_Energy-OPLS-2005>
-38.4117469787598

> <r_mmod_Stretch_Energy-OPLS-2005>
40.8905487060547

> <r_mmod_Bend_Energy-OPLS-2005>
127.644805908203

> <r_mmod_Torsional_Energy-OPLS-2005>
276.518371582031

> <r_mmod_Improper_Torsional_Energy-OPLS-2005>
2.8295738697052

> <r_mmod_Van_der_Waal_Energy-OPLS-2005>
180.565719604492

> <r_mmod_Electrostatic_Energy-OPLS-2005>
-232.877426147461

> <r_mmod_Solvation_Energy-OPLS-2005>
-458.313537597656

> <b_mmod_Minimization_Converged-OPLS-2005>
0

> <r_mmod_RMS_Derivative-OPLS-2005>
2.62005710601807

$$$$
61
                    3D
 Structure written by MMmdl.
176185  0  0  1  0            999 V2000
  -30.6419  -14.7694   20.5436 C   0  0  0  0  0  0
  -30.4420  -12.4911   19.4754 C   0  0  0  0  0  0
  -29.5179  -12.5314   18.2335 C   0  0  0  0  0  0
  -28.0496  -12.3240   18.6536 C   0  0  0  0  0  0
  -27.6592  -13.2265   19.8506 C   0  0  2  0  0  0
  -28.7032  -13.1791   20.9937 C   0  0  0  0  0  0
  -25.2669  -13.8167   20.5668 C   0  0  0  0  0  0
  -24.1939  -13.0429   20.9169 C   0  0  0  0  0  0
  -24.6476  -11.6899   20.8665 C   0  0  0  0  0  0
  -23.9091  -10.4314   21.0318 C   0  0  0  0  0  0
  -24.3632   -9.4231   21.9124 C   0  0  0  0  0  0
  -23.6365   -8.2225   22.0688 C   0  0  0  0  0  0
  -22.4339   -8.0261   21.3485 C   0  0  0  0  0  0
  -21.9945   -9.0222   20.4559 C   0  0  0  0  0  0
  -22.7234  -10.2129   20.2991 C   0  0  0  0  0  0
  -21.6853   -6.0739   22.5319 C   0  0  0  0  0  0
  -21.4012   -6.5648   23.8250 C   0  0  0  0  0  0
  -21.3685   -5.6788   24.9207 C   0  0  0  0  0  0
  -21.6074   -4.3059   24.7220 C   0  0  0  0  0  0
  -21.8850   -3.8157   23.4332 C   0  0  0  0  0  0
  -21.9211   -4.6980   22.3398 C   0  0  0  0  0  0
  -22.7994  -13.5238   21.1886 C   0  0  0  0  0  0
  -22.1681   -4.2171   21.0959 F   0  0  0  0  0  0
  -21.5614   -3.4547   25.7726 F   0  0  0  0  0  0
  -30.0101  -13.5417   20.4309 N   0  0  0  0  0  0
  -26.3081  -12.9363   20.3269 N   0  0  0  0  0  0
  -25.9414  -11.6502   20.5740 N   0  0  0  0  0  0
  -22.0583  -12.8215   22.0376 N   0  0  0  0  0  0
  -25.4383  -15.1856   20.4019 N   0  0  0  0  0  0
  -31.7815  -14.9241   20.1065 O   0  0  0  0  0  0
  -21.6648   -6.8877   21.4263 O   0  0  0  0  0  0
  -22.3690  -14.5540   20.6713 O   0  0  0  0  0  0
  -24.6215  -31.8602   23.2022 C   0  0  0  0  0  0
  -25.9042  -32.4806   23.8345 C   0  0  1  0  0  0
  -27.2609  -27.3130   20.1657 C   0  0  0  0  0  0
  -25.5867  -33.8604   24.2293 N   0  0  0  0  0  0
  -23.4175  -30.4768   21.5466 C   0  0  2  0  0  0
  -24.8784  -28.9141   20.1329 C   0  0  0  0  0  0
  -22.7425  -29.4614   22.4973 C   0  0  0  0  0  0
  -18.0268  -28.1365   22.8465 C   0  0  0  0  0  0
  -24.1467  -36.7325   23.2652 C   0  0  0  0  0  0
  -25.9552  -30.7907   21.3690 C   0  0  0  0  0  0
  -26.0413  -29.4044   20.7414 C   0  0  0  0  0  0
  -27.2336  -28.6149   20.7590 C   0  0  0  0  0  0
  -26.0839  -26.8848   19.5118 C   0  0  0  0  0  0
  -24.8969  -27.6507   19.5208 C   0  0  0  0  0  0
  -23.6404  -29.7941   20.1685 C   0  0  0  0  0  0
  -25.4092  -36.3148   24.0360 C   0  0  1  0  0  0
  -20.5865  -28.3679   23.1308 C   0  0  2  0  0  0
  -20.6767  -26.9401   22.5453 C   0  0  0  0  0  0
  -19.5782  -26.6372   21.5208 C   0  0  0  0  0  0
  -18.1933  -26.7930   22.1560 C   0  0  0  0  0  0
  -19.1517  -28.8829   23.2886 C   0  0  0  0  0  0
  -18.9451  -30.1426   23.8917 C   0  0  0  0  0  0
  -17.6455  -30.6582   24.0552 C   0  0  0  0  0  0
  -25.9036  -34.9495   23.5147 C   0  0  0  0  0  0
  -16.5337  -29.9086   23.6325 C   0  0  0  0  0  0
  -16.7251  -28.6490   23.0349 C   0  0  0  0  0  0
  -26.4448  -31.6620   25.0698 C   0  0  0  0  0  0
  -25.3725  -31.3730   26.1476 C   0  0  0  0  0  0
  -27.0257  -30.3072   24.6089 C   0  0  0  0  0  0
  -27.6048  -32.4315   25.7441 C   0  0  0  0  0  0
  -27.5596  -37.1806   24.8454 C   0  0  0  0  0  0
  -21.4143  -29.3016   22.3698 N   0  0  0  0  0  0
  -26.4286  -37.3830   23.9429 N   0  0  0  0  0  0
  -24.6847  -31.0593   22.0987 N   0  0  0  0  0  0
  -23.4158  -28.8182   23.3068 O   0  0  0  0  0  0
  -28.3718  -26.4474   20.1079 O   0  0  0  0  0  0
  -26.5606  -34.8953   22.4713 O   0  0  0  0  0  0
  -23.5384  -32.1374   23.7372 O   0  0  0  0  0  0
  -30.7169  -19.6526   20.6882 C   0  0  0  0  0  0
  -30.8205  -18.2170   20.5182 C   0  0  0  0  0  0
  -29.7539  -20.2812   21.5405 C   0  0  0  0  0  0
  -28.9176  -19.3566   22.2563 C   0  0  0  0  0  0
  -29.0857  -17.9203   22.1508 C   0  0  0  0  0  0
  -29.9846  -17.2984   21.2246 C   0  0  0  0  0  0
  -30.0605  -23.3105   19.7590 C   0  0  0  0  0  0
  -29.4796  -23.3503   18.5438 C   0  0  0  0  0  0
  -31.5410  -23.5778   20.0153 C   0  0  0  0  0  0
  -31.8662  -25.0668   20.2271 C   0  0  0  0  0  0
  -31.5284  -25.5689   21.6403 C   0  0  0  0  0  0
  -30.2559  -26.4290   21.7349 C   0  0  0  0  0  0
  -28.6860  -24.2221   21.7121 C   0  0  0  0  0  0
  -28.9007  -25.7904   21.3224 C   0  0  2  0  0  0
  -27.8201  -19.8655   23.1972 C   0  0  0  0  0  0
  -28.3346  -17.0049   23.1217 C   0  0  0  0  0  0
  -28.0036  -23.1795   18.2270 C   0  0  0  0  0  0
  -29.7983  -21.8524   21.8963 C   0  0  0  0  0  0
  -29.8866  -15.8117   21.0638 N   0  0  0  0  0  0
  -29.2775  -22.9952   20.9887 N   0  3  2  0  0  0
  -31.4786  -12.6229   19.1650 H   0  0  0  0  0  0
  -30.3741  -11.5036   19.9390 H   0  0  0  0  0  0
  -29.8175  -11.7467   17.5347 H   0  0  0  0  0  0
  -29.6363  -13.4752   17.7028 H   0  0  0  0  0  0
  -27.9422  -11.2774   18.9339 H   0  0  0  0  0  0
  -27.3711  -12.4804   17.8137 H   0  0  0  0  0  0
  -27.6480  -14.2437   19.4621 H   0  0  0  0  0  0
  -28.7521  -12.1880   21.4440 H   0  0  0  0  0  0
  -28.3993  -13.8578   21.7907 H   0  0  0  0  0  0
  -25.2742   -9.5797   22.4724 H   0  0  0  0  0  0
  -24.0100   -7.4662   22.7424 H   0  0  0  0  0  0
  -21.0834   -8.8724   19.8931 H   0  0  0  0  0  0
  -22.3602  -10.9661   19.6147 H   0  0  0  0  0  0
  -21.1990   -7.6163   23.9778 H   0  0  0  0  0  0
  -21.1476   -6.0462   25.9113 H   0  0  0  0  0  0
  -22.0586   -2.7614   23.2786 H   0  0  0  0  0  0
  -22.4134  -11.9867   22.4828 H   0  0  0  0  0  0
  -21.1198  -13.1284   22.2549 H   0  0  0  0  0  0
  -24.6598  -15.8266   20.4857 H   0  0  0  0  0  0
  -26.2848  -15.6283   20.0674 H   0  0  0  0  0  0
  -26.7085  -32.5540   23.1082 H   0  0  0  0  0  0
  -24.9953  -33.9714   25.0403 H   0  0  0  0  0  0
  -22.7136  -31.2986   21.3968 H   0  0  0  0  0  0
  -23.3769  -35.9626   23.3293 H   0  0  0  0  0  0
  -24.3562  -36.8949   22.2077 H   0  0  0  0  0  0
  -23.7150  -37.6501   23.6650 H   0  0  0  0  0  0
  -26.0573  -31.5349   20.5783 H   0  0  0  0  0  0
  -26.8454  -30.8733   21.9768 H   0  0  0  0  0  0
  -28.1313  -29.0024   21.2243 H   0  0  0  0  0  0
  -26.0815  -25.9319   19.0036 H   0  0  0  0  0  0
  -24.0007  -27.2587   19.0577 H   0  0  0  0  0  0
  -23.7553  -30.5609   19.4029 H   0  0  0  0  0  0
  -22.7612  -29.2184   19.8761 H   0  0  0  0  0  0
  -25.1267  -36.2030   25.0859 H   0  0  0  0  0  0
  -20.9937  -28.3266   24.1436 H   0  0  0  0  0  0
  -20.5611  -26.2288   23.3649 H   0  0  0  0  0  0
  -21.6663  -26.7418   22.1317 H   0  0  0  0  0  0
  -19.6981  -25.6285   21.1232 H   0  0  0  0  0  0
  -19.6791  -27.3179   20.6735 H   0  0  0  0  0  0
  -17.4261  -26.6695   21.3908 H   0  0  0  0  0  0
  -18.0308  -26.0026   22.8900 H   0  0  0  0  0  0
  -19.7933  -30.7205   24.2338 H   0  0  0  0  0  0
  -17.5024  -31.6268   24.5142 H   0  0  0  0  0  0
  -15.5347  -30.3006   23.7647 H   0  0  0  0  0  0
  -15.8628  -28.0811   22.7084 H   0  0  0  0  0  0
  -24.5863  -30.7112   25.7815 H   0  0  0  0  0  0
  -24.8948  -32.2889   26.4992 H   0  0  0  0  0  0
  -25.8100  -30.8845   27.0200 H   0  0  0  0  0  0
  -26.2785  -29.6855   24.1158 H   0  0  0  0  0  0
  -27.4032  -29.7296   25.4532 H   0  0  0  0  0  0
  -27.8626  -30.4389   23.9226 H   0  0  0  0  0  0
  -27.2694  -33.3551   26.2155 H   0  0  0  0  0  0
  -28.3786  -32.6976   25.0232 H   0  0  0  0  0  0
  -28.0817  -31.8363   26.5234 H   0  0  0  0  0  0
  -28.2661  -38.0065   24.7523 H   0  0  0  0  0  0
  -28.1038  -36.2620   24.6237 H   0  0  0  0  0  0
  -27.2332  -37.1437   25.8857 H   0  0  0  0  0  0
  -20.9342  -29.8695   21.6870 H   0  0  0  0  0  0
  -26.0215  -38.2924   24.1432 H   0  0  0  0  0  0
  -31.4322  -20.2756   20.1626 H   0  0  0  0  0  0
  -31.5800  -17.8378   19.8493 H   0  0  0  0  0  0
  -30.1099  -23.5527   17.6854 H   0  0  0  0  0  0
  -32.0810  -23.2196   19.1420 H   0  0  0  0  0  0
  -31.9648  -22.9972   20.8276 H   0  0  0  0  0  0
  -31.4088  -25.6946   19.4591 H   0  0  0  0  0  0
  -32.9397  -25.1804   20.0827 H   0  0  0  0  0  0
  -32.3649  -26.1717   22.0035 H   0  0  0  0  0  0
  -31.4665  -24.7411   22.3455 H   0  0  0  0  0  0
  -30.4118  -27.3654   21.1999 H   0  0  0  0  0  0
  -30.1871  -26.7291   22.7839 H   0  0  0  0  0  0
  -27.6135  -24.0371   21.7612 H   0  0  0  0  0  0
  -29.0281  -24.1623   22.7471 H   0  0  0  0  0  0
  -28.2530  -26.2355   22.0822 H   0  0  0  0  0  0
  -27.5221  -20.8985   23.0125 H   0  0  0  0  0  0
  -28.1049  -19.7627   24.2495 H   0  0  0  0  0  0
  -26.9220  -19.2679   23.0302 H   0  0  0  0  0  0
  -28.1279  -17.4954   24.0705 H   0  0  0  0  0  0
  -28.9419  -16.1336   23.3779 H   0  0  0  0  0  0
  -27.4088  -16.6365   22.6849 H   0  0  0  0  0  0
  -27.3806  -23.0405   19.1085 H   0  0  0  0  0  0
  -27.8439  -22.3368   17.5537 H   0  0  0  0  0  0
  -27.6506  -24.0763   17.7212 H   0  0  0  0  0  0
  -30.8143  -22.0623   22.2072 H   0  0  0  0  0  0
  -29.2964  -21.9867   22.8496 H   0  0  0  0  0  0
  -29.0217  -15.4532   21.4334 H   0  0  0  0  0  0
  -28.4387  -22.5681   20.6310 H   0  0  0  0  0  0
  1 25  1  0  0  0
  1 30  2  0  0  0
  1 89  1  0  0  0
  2  3  1  0  0  0
  2 25  1  0  0  0
  2 91  1  0  0  0
  2 92  1  0  0  0
  3  4  1  0  0  0
  3 93  1  0  0  0
  3 94  1  0  0  0
  4  5  1  0  0  0
  4 95  1  0  0  0
  4 96  1  0  0  0
  5  6  1  0  0  0
  5 26  1  0  0  0
  5 97  1  0  0  0
  6 25  1  0  0  0
  6 98  1  0  0  0
  6 99  1  0  0  0
  7  8  2  0  0  0
  7 26  1  0  0  0
  7 29  1  0  0  0
  8  9  1  0  0  0
  8 22  1  0  0  0
  9 10  1  0  0  0
  9 27  2  0  0  0
 10 11  2  0  0  0
 10 15  1  0  0  0
 11 12  1  0  0  0
 11100  1  0  0  0
 12 13  2  0  0  0
 12101  1  0  0  0
 13 14  1  0  0  0
 13 31  1  0  0  0
 14 15  2  0  0  0
 14102  1  0  0  0
 15103  1  0  0  0
 16 17  2  0  0  0
 16 21  1  0  0  0
 16 31  1  0  0  0
 17 18  1  0  0  0
 17104  1  0  0  0
 18 19  2  0  0  0
 18105  1  0  0  0
 19 20  1  0  0  0
 19 24  1  0  0  0
 20 21  2  0  0  0
 20106  1  0  0  0
 21 23  1  0  0  0
 22 28  1  0  0  0
 22 32  2  0  0  0
 26 27  1  0  0  0
 28107  1  0  0  0
 28108  1  0  0  0
 29109  1  0  0  0
 29110  1  0  0  0
 33 34  1  0  0  0
 33 66  1  0  0  0
 33 70  2  0  0  0
 34 36  1  0  0  0
 34 59  1  0  0  0
 34111  1  0  0  0
 35 44  2  0  0  0
 35 45  1  0  0  0
 35 68  1  0  0  0
 36 56  1  0  0  0
 36112  1  0  0  0
 37 39  1  0  0  0
 37 47  1  0  0  0
 37 66  1  0  0  0
 37113  1  0  0  0
 38 43  2  0  0  0
 38 46  1  0  0  0
 38 47  1  0  0  0
 39 64  1  0  0  0
 39 67  2  0  0  0
 40 52  1  0  0  0
 40 53  2  0  0  0
 40 58  1  0  0  0
 41114  1  0  0  0
 41115  1  0  0  0
 41116  1  0  0  0
 41 48  1  0  0  0
 42 43  1  0  0  0
 42 66  1  0  0  0
 42117  1  0  0  0
 42118  1  0  0  0
 43 44  1  0  0  0
 44119  1  0  0  0
 45 46  2  0  0  0
 45120  1  0  0  0
 46121  1  0  0  0
 47122  1  0  0  0
 47123  1  0  0  0
 48 56  1  0  0  0
 48 65  1  0  0  0
 48124  1  0  0  0
 49 50  1  0  0  0
 49 53  1  0  0  0
 49 64  1  0  0  0
 49125  1  0  0  0
 50 51  1  0  0  0
 50126  1  0  0  0
 50127  1  0  0  0
 51 52  1  0  0  0
 51128  1  0  0  0
 51129  1  0  0  0
 52130  1  0  0  0
 52131  1  0  0  0
 53 54  1  0  0  0
 54 55  2  0  0  0
 54132  1  0  0  0
 55 57  1  0  0  0
 55133  1  0  0  0
 56 69  2  0  0  0
 57 58  2  0  0  0
 57134  1  0  0  0
 58135  1  0  0  0
 59 60  1  0  0  0
 59 61  1  0  0  0
 59 62  1  0  0  0
 60136  1  0  0  0
 60137  1  0  0  0
 60138  1  0  0  0
 61139  1  0  0  0
 61140  1  0  0  0
 61141  1  0  0  0
 62142  1  0  0  0
 62143  1  0  0  0
 62144  1  0  0  0
 63 65  1  0  0  0
 63145  1  0  0  0
 63146  1  0  0  0
 63147  1  0  0  0
 64148  1  0  0  0
 65149  1  0  0  0
 68 84  1  0  0  0
 71 72  2  0  0  0
 71 73  1  0  0  0
 71150  1  0  0  0
 72 76  1  0  0  0
 72151  1  0  0  0
 73 74  2  0  0  0
 73 88  1  0  0  0
 74 75  1  0  0  0
 74 85  1  0  0  0
 75 76  2  0  0  0
 75 86  1  0  0  0
 76 89  1  0  0  0
 77 78  2  0  0  0
 77 79  1  0  0  0
 77 90  1  0  0  0
 78 87  1  0  0  0
 78152  1  0  0  0
 79 80  1  0  0  0
 79153  1  0  0  0
 79154  1  0  0  0
 80 81  1  0  0  0
 80155  1  0  0  0
 80156  1  0  0  0
 81 82  1  0  0  0
 81157  1  0  0  0
 81158  1  0  0  0
 82 84  1  0  0  0
 82159  1  0  0  0
 82160  1  0  0  0
 83 84  1  0  0  0
 83 90  1  0  0  0
 83161  1  0  0  0
 83162  1  0  0  0
 84163  1  0  0  0
 85164  1  0  0  0
 85165  1  0  0  0
 85166  1  0  0  0
 86167  1  0  0  0
 86168  1  0  0  0
 86169  1  0  0  0
 87170  1  0  0  0
 87171  1  0  0  0
 87172  1  0  0  0
 88173  1  0  0  0
 88174  1  0  0  0
 88 90  1  0  0  0
 89175  1  0  0  0
 90176  1  0  0  0
M  CHG  1  90   1
M  ISO  4   1 100  68 101  84 101  89 100
M  END
> <chiral flag>
0

> <version>
0

> <s_m_source_file>
/data/baiqing/PycharmProjects/Reinvent-master-3.2/result/LINK_invent/BTK/process_docking_weight1_custom_product_contain_oxygen_bond_distance_aromatic_linkinvent_7_9_3/rearranged_h_0040.sdf

> <i_m_source_file_index>
62

> <r_mmod_Potential_Energy-OPLS-2005>
206.583450317383

> <r_mmod_Stretch_Energy-OPLS-2005>
132.532653808594

> <r_mmod_Bend_Energy-OPLS-2005>
267.215850830078

> <r_mmod_Torsional_Energy-OPLS-2005>
291.4931640625

> <r_mmod_Improper_Torsional_Energy-OPLS-2005>
4.43770027160645

> <r_mmod_Van_der_Waal_Energy-OPLS-2005>
137.278045654297

> <r_mmod_Electrostatic_Energy-OPLS-2005>
-303.025909423828

> <r_mmod_Solvation_Energy-OPLS-2005>
-399.577178955078

> <b_mmod_Minimization_Converged-OPLS-2005>
0

> <r_mmod_RMS_Derivative-OPLS-2005>
9.03192520141602

$$$$
62
                    3D
 Structure written by MMmdl.
173182  0  0  1  0            999 V2000
  -30.6088  -14.5906   20.6816 C   0  0  0  0  0  0
  -30.4189  -12.3884   19.4932 C   0  0  0  0  0  0
  -29.5197  -12.6167   18.2616 C   0  0  0  0  0  0
  -28.0414  -12.3959   18.6459 C   0  0  0  0  0  0
  -27.6545  -13.2233   19.9030 C   0  0  2  0  0  0
  -28.6851  -12.9882   21.0362 C   0  0  0  0  0  0
  -25.2254  -13.8145   20.5290 C   0  0  0  0  0  0
  -24.1677  -13.0363   20.9101 C   0  0  0  0  0  0
  -24.6334  -11.6884   20.8727 C   0  0  0  0  0  0
  -23.9021  -10.4268   21.0377 C   0  0  0  0  0  0
  -24.3584   -9.4207   21.9163 C   0  0  0  0  0  0
  -23.6298   -8.2221   22.0715 C   0  0  0  0  0  0
  -22.4278   -8.0226   21.3522 C   0  0  0  0  0  0
  -21.9903   -9.0173   20.4623 C   0  0  0  0  0  0
  -22.7183  -10.2079   20.3044 C   0  0  0  0  0  0
  -21.6880   -6.0690   22.5276 C   0  0  0  0  0  0
  -21.4057   -6.5596   23.8216 C   0  0  0  0  0  0
  -21.3714   -5.6762   24.9188 C   0  0  0  0  0  0
  -21.6081   -4.3024   24.7241 C   0  0  0  0  0  0
  -21.8815   -3.8092   23.4356 C   0  0  0  0  0  0
  -21.9188   -4.6916   22.3431 C   0  0  0  0  0  0
  -22.7740  -13.5119   21.1810 C   0  0  0  0  0  0
  -22.1618   -4.2103   21.0995 F   0  0  0  0  0  0
  -21.5677   -3.4508   25.7751 F   0  0  0  0  0  0
  -30.0177  -13.3613   20.5294 N   0  0  0  0  0  0
  -26.2870  -12.9429   20.3363 N   0  0  0  0  0  0
  -25.9275  -11.6584   20.5848 N   0  0  0  0  0  0
  -22.0521  -12.8134   22.0489 N   0  0  0  0  0  0
  -25.3262  -15.1828   20.3122 N   0  0  0  0  0  0
  -31.6600  -14.8795   20.0895 O   0  0  0  0  0  0
  -21.6650   -6.8821   21.4226 O   0  0  0  0  0  0
  -22.3404  -14.5418   20.6674 O   0  0  0  0  0  0
  -24.6152  -31.8619   23.2053 C   0  0  0  0  0  0
  -25.9035  -32.4790   23.8301 C   0  0  1  0  0  0
  -27.2184  -27.3754   20.1162 C   0  0  0  0  0  0
  -25.5865  -33.8596   24.2163 N   0  0  0  0  0  0
  -23.4036  -30.4794   21.5542 C   0  0  2  0  0  0
  -24.8431  -28.9349   20.1227 C   0  0  0  0  0  0
  -22.7380  -29.4602   22.5050 C   0  0  0  0  0  0
  -18.0230  -28.1456   22.8412 C   0  0  0  0  0  0
  -24.1505  -36.7362   23.2630 C   0  0  0  0  0  0
  -25.9339  -30.8018   21.3683 C   0  0  0  0  0  0
  -26.0075  -29.4320   20.7216 C   0  0  0  0  0  0
  -27.1968  -28.6601   20.7179 C   0  0  0  0  0  0
  -26.0306  -26.9031   19.5087 C   0  0  0  0  0  0
  -24.8498  -27.6685   19.5165 C   0  0  0  0  0  0
  -23.6077  -29.8083   20.1703 C   0  0  0  0  0  0
  -25.4132  -36.3095   24.0268 C   0  0  1  0  0  0
  -20.5816  -28.3706   23.1327 C   0  0  2  0  0  0
  -20.6765  -26.9454   22.5441 C   0  0  0  0  0  0
  -19.5784  -26.6404   21.5221 C   0  0  0  0  0  0
  -18.1922  -26.7995   22.1554 C   0  0  0  0  0  0
  -19.1491  -28.8903   23.2848 C   0  0  0  0  0  0
  -18.9450  -30.1507   23.8863 C   0  0  0  0  0  0
  -17.6471  -30.6663   24.0576 C   0  0  0  0  0  0
  -25.9058  -34.9483   23.5015 C   0  0  0  0  0  0
  -16.5344  -29.9172   23.6385 C   0  0  0  0  0  0
  -16.7211  -28.6623   23.0304 C   0  0  0  0  0  0
  -26.4381  -31.6620   25.0702 C   0  0  0  0  0  0
  -25.3589  -31.3882   26.1429 C   0  0  0  0  0  0
  -27.0080  -30.2969   24.6181 C   0  0  0  0  0  0
  -27.5867  -32.4393   25.7538 C   0  0  0  0  0  0
  -27.5587  -37.1825   24.8400 C   0  0  0  0  0  0
  -21.4136  -29.3018   22.3744 N   0  0  0  0  0  0
  -26.4280  -37.3808   23.9384 N   0  0  0  0  0  0
  -24.6700  -31.0624   22.1030 N   0  0  0  0  0  0
  -23.4122  -28.8177   23.3172 O   0  0  0  0  0  0
  -28.3767  -26.6119   20.1172 O   0  0  0  0  0  0
  -26.5665  -34.8950   22.4616 O   0  0  0  0  0  0
  -23.5348  -32.1443   23.7447 O   0  0  0  0  0  0
  -28.3417  -19.4027   21.2378 C   0  0  0  0  0  0
  -30.3093  -17.9619   21.1522 C   0  0  0  0  0  0
  -29.7365  -19.2824   21.1093 C   0  0  0  0  0  0
  -27.5681  -18.3272   21.6934 C   0  0  0  0  0  0
  -28.1753  -17.0622   21.9104 C   0  0  0  0  0  0
  -29.5167  -16.8103   21.4829 C   0  0  0  0  0  0
  -29.3611  -22.9056   21.0184 C   0  0  0  0  0  0
  -28.6030  -22.6364   22.1022 C   0  0  0  0  0  0
  -32.0897  -24.5676   20.4910 C   0  0  0  0  0  0
  -32.3537  -23.0546   20.3252 C   0  0  0  0  0  0
  -30.7463  -24.9958   21.1186 C   0  0  0  0  0  0
  -31.3099  -22.2653   19.4899 C   0  0  0  0  0  0
  -29.5215  -24.3478   20.4413 C   0  0  2  0  0  0
  -26.0952  -18.6189   21.9673 C   0  0  0  0  0  0
  -27.3967  -15.9890   22.6597 C   0  0  0  0  0  0
  -30.5965  -20.5799   21.1094 C   0  0  0  0  0  0
  -28.2295  -25.2380   20.5632 C   0  0  0  0  0  0
  -29.9926  -15.4290   21.5695 N   0  0  0  0  0  0
  -30.1532  -21.7868   20.2968 N   0  3  1  0  0  0
  -31.4744  -12.4754   19.2458 H   0  0  0  0  0  0
  -30.2789  -11.3720   19.8659 H   0  0  0  0  0  0
  -29.8188  -11.9705   17.4378 H   0  0  0  0  0  0
  -29.6631  -13.6442   17.9152 H   0  0  0  0  0  0
  -27.9111  -11.3311   18.8524 H   0  0  0  0  0  0
  -27.3811  -12.6299   17.8100 H   0  0  0  0  0  0
  -27.6919  -14.2771   19.6288 H   0  0  0  0  0  0
  -28.6857  -11.9383   21.3383 H   0  0  0  0  0  0
  -28.4195  -13.5187   21.9452 H   0  0  0  0  0  0
  -25.2673   -9.5776   22.4789 H   0  0  0  0  0  0
  -24.0051   -7.4645   22.7427 H   0  0  0  0  0  0
  -21.0852   -8.8634   19.8938 H   0  0  0  0  0  0
  -22.3525  -10.9608   19.6222 H   0  0  0  0  0  0
  -21.2058   -7.6096   23.9733 H   0  0  0  0  0  0
  -21.1555   -6.0471   25.9111 H   0  0  0  0  0  0
  -22.0544   -2.7529   23.2871 H   0  0  0  0  0  0
  -22.4239  -11.9818   22.4848 H   0  0  0  0  0  0
  -21.1135  -13.1117   22.2770 H   0  0  0  0  0  0
  -24.4903  -15.7521   20.3827 H   0  0  0  0  0  0
  -26.0958  -15.6646   19.8638 H   0  0  0  0  0  0
  -26.7087  -32.5420   23.1024 H   0  0  0  0  0  0
  -24.9816  -33.9749   25.0161 H   0  0  0  0  0  0
  -22.6941  -31.2990   21.4147 H   0  0  0  0  0  0
  -23.3771  -35.9686   23.3227 H   0  0  0  0  0  0
  -24.3598  -36.9109   22.2062 H   0  0  0  0  0  0
  -23.7287  -37.6534   23.6753 H   0  0  0  0  0  0
  -26.0397  -31.5583   20.5908 H   0  0  0  0  0  0
  -26.8241  -30.8571   21.9834 H   0  0  0  0  0  0
  -28.0885  -29.0240   21.2068 H   0  0  0  0  0  0
  -25.9947  -25.9386   19.0222 H   0  0  0  0  0  0
  -23.9504  -27.2777   19.0573 H   0  0  0  0  0  0
  -23.7256  -30.5815   19.4105 H   0  0  0  0  0  0
  -22.7258  -29.2342   19.8741 H   0  0  0  0  0  0
  -25.1355  -36.1883   25.0758 H   0  0  0  0  0  0
  -20.9793  -28.3317   24.1499 H   0  0  0  0  0  0
  -20.5724  -26.2337   23.3631 H   0  0  0  0  0  0
  -21.6643  -26.7581   22.1225 H   0  0  0  0  0  0
  -19.6992  -25.6305   21.1297 H   0  0  0  0  0  0
  -19.6823  -27.3174   20.6737 H   0  0  0  0  0  0
  -17.4229  -26.6704   21.3912 H   0  0  0  0  0  0
  -18.0306  -26.0153   22.8960 H   0  0  0  0  0  0
  -19.7958  -30.7295   24.2207 H   0  0  0  0  0  0
  -17.5084  -31.6348   24.5188 H   0  0  0  0  0  0
  -15.5366  -30.3095   23.7832 H   0  0  0  0  0  0
  -15.8566  -28.1005   22.7000 H   0  0  0  0  0  0
  -24.5815  -30.7108   25.7879 H   0  0  0  0  0  0
  -24.8716  -32.3099   26.4618 H   0  0  0  0  0  0
  -25.7903  -30.9312   27.0338 H   0  0  0  0  0  0
  -26.2611  -29.6947   24.0977 H   0  0  0  0  0  0
  -27.3381  -29.7037   25.4722 H   0  0  0  0  0  0
  -27.8684  -30.4115   23.9584 H   0  0  0  0  0  0
  -27.2301  -33.3643   26.2091 H   0  0  0  0  0  0
  -28.3708  -32.7061   25.0444 H   0  0  0  0  0  0
  -28.0463  -31.8557   26.5523 H   0  0  0  0  0  0
  -28.2528  -38.0192   24.7502 H   0  0  0  0  0  0
  -28.1145  -36.2723   24.6119 H   0  0  0  0  0  0
  -27.2307  -37.1346   25.8795 H   0  0  0  0  0  0
  -20.9378  -29.8682   21.6852 H   0  0  0  0  0  0
  -26.0143  -38.2843   24.1504 H   0  0  0  0  0  0
  -27.8373  -20.3442   21.0946 H   0  0  0  0  0  0
  -31.3759  -17.8469   21.0206 H   0  0  0  0  0  0
  -28.0597  -23.4105   22.6214 H   0  0  0  0  0  0
  -28.5203  -21.6571   22.5360 H   0  0  0  0  0  0
  -32.1689  -25.0416   19.5152 H   0  0  0  0  0  0
  -32.9022  -24.9862   21.0910 H   0  0  0  0  0  0
  -32.5144  -22.5803   21.2932 H   0  0  0  0  0  0
  -33.3109  -22.9753   19.8025 H   0  0  0  0  0  0
  -30.6829  -26.0823   21.0357 H   0  0  0  0  0  0
  -30.7323  -24.7965   22.1911 H   0  0  0  0  0  0
  -31.7970  -21.4037   19.0336 H   0  0  0  0  0  0
  -30.9780  -22.8352   18.6258 H   0  0  0  0  0  0
  -29.7034  -24.3296   19.3698 H   0  0  0  0  0  0
  -25.7352  -19.4282   21.3288 H   0  0  0  0  0  0
  -25.9299  -18.9332   22.9995 H   0  0  0  0  0  0
  -25.4550  -17.7643   21.7562 H   0  0  0  0  0  0
  -27.9837  -15.5934   23.4894 H   0  0  0  0  0  0
  -27.1431  -15.1829   21.9883 H   0  0  0  0  0  0
  -26.4669  -16.3453   23.0985 H   0  0  0  0  0  0
  -31.5978  -20.2607   20.8205 H   0  0  0  0  0  0
  -30.7272  -20.9047   22.1439 H   0  0  0  0  0  0
  -27.8644  -25.2648   21.5896 H   0  0  0  0  0  0
  -27.4598  -24.7307   19.9826 H   0  0  0  0  0  0
  -29.3535  -14.8656   22.1065 H   0  0  0  0  0  0
  -29.5392  -21.3943   19.5958 H   0  0  0  0  0  0
  1 25  1  0  0  0
  1 30  2  0  0  0
  1 88  1  0  0  0
  2  3  1  0  0  0
  2 25  1  0  0  0
  2 90  1  0  0  0
  2 91  1  0  0  0
  3  4  1  0  0  0
  3 92  1  0  0  0
  3 93  1  0  0  0
  4  5  1  0  0  0
  4 94  1  0  0  0
  4 95  1  0  0  0
  5  6  1  0  0  0
  5 26  1  0  0  0
  5 96  1  0  0  0
  6 25  1  0  0  0
  6 97  1  0  0  0
  6 98  1  0  0  0
  7  8  2  0  0  0
  7 26  1  0  0  0
  7 29  1  0  0  0
  8  9  1  0  0  0
  8 22  1  0  0  0
  9 10  1  0  0  0
  9 27  2  0  0  0
 10 11  2  0  0  0
 10 15  1  0  0  0
 11 12  1  0  0  0
 11 99  1  0  0  0
 12 13  2  0  0  0
 12100  1  0  0  0
 13 14  1  0  0  0
 13 31  1  0  0  0
 14 15  2  0  0  0
 14101  1  0  0  0
 15102  1  0  0  0
 16 17  2  0  0  0
 16 21  1  0  0  0
 16 31  1  0  0  0
 17 18  1  0  0  0
 17103  1  0  0  0
 18 19  2  0  0  0
 18104  1  0  0  0
 19 20  1  0  0  0
 19 24  1  0  0  0
 20 21  2  0  0  0
 20105  1  0  0  0
 21 23  1  0  0  0
 22 28  1  0  0  0
 22 32  2  0  0  0
 26 27  1  0  0  0
 28106  1  0  0  0
 28107  1  0  0  0
 29108  1  0  0  0
 29109  1  0  0  0
 33 34  1  0  0  0
 33 66  1  0  0  0
 33 70  2  0  0  0
 34 36  1  0  0  0
 34 59  1  0  0  0
 34110  1  0  0  0
 35 44  2  0  0  0
 35 45  1  0  0  0
 35 68  1  0  0  0
 36 56  1  0  0  0
 36111  1  0  0  0
 37 39  1  0  0  0
 37 47  1  0  0  0
 37 66  1  0  0  0
 37112  1  0  0  0
 38 43  2  0  0  0
 38 46  1  0  0  0
 38 47  1  0  0  0
 39 64  1  0  0  0
 39 67  2  0  0  0
 40 52  1  0  0  0
 40 53  2  0  0  0
 40 58  1  0  0  0
 41113  1  0  0  0
 41114  1  0  0  0
 41115  1  0  0  0
 41 48  1  0  0  0
 42 43  1  0  0  0
 42 66  1  0  0  0
 42116  1  0  0  0
 42117  1  0  0  0
 43 44  1  0  0  0
 44118  1  0  0  0
 45 46  2  0  0  0
 45119  1  0  0  0
 46120  1  0  0  0
 47121  1  0  0  0
 47122  1  0  0  0
 48 56  1  0  0  0
 48 65  1  0  0  0
 48123  1  0  0  0
 49 50  1  0  0  0
 49 53  1  0  0  0
 49 64  1  0  0  0
 49124  1  0  0  0
 50 51  1  0  0  0
 50125  1  0  0  0
 50126  1  0  0  0
 51 52  1  0  0  0
 51127  1  0  0  0
 51128  1  0  0  0
 52129  1  0  0  0
 52130  1  0  0  0
 53 54  1  0  0  0
 54 55  2  0  0  0
 54131  1  0  0  0
 55 57  1  0  0  0
 55132  1  0  0  0
 56 69  2  0  0  0
 57 58  2  0  0  0
 57133  1  0  0  0
 58134  1  0  0  0
 59 60  1  0  0  0
 59 61  1  0  0  0
 59 62  1  0  0  0
 60135  1  0  0  0
 60136  1  0  0  0
 60137  1  0  0  0
 61138  1  0  0  0
 61139  1  0  0  0
 61140  1  0  0  0
 62141  1  0  0  0
 62142  1  0  0  0
 62143  1  0  0  0
 63 65  1  0  0  0
 63144  1  0  0  0
 63145  1  0  0  0
 63146  1  0  0  0
 64147  1  0  0  0
 65148  1  0  0  0
 68 87  1  0  0  0
 71 73  2  0  0  0
 71 74  1  0  0  0
 71149  1  0  0  0
 72 73  1  0  0  0
 72 76  2  0  0  0
 72150  1  0  0  0
 73 86  1  0  0  0
 74 75  2  0  0  0
 74 84  1  0  0  0
 75 76  1  0  0  0
 75 85  1  0  0  0
 76 88  1  0  0  0
 77 78  2  0  0  0
 77 83  1  0  0  0
 77 89  1  0  0  0
 78151  1  0  0  0
 78152  1  0  0  0
 79 80  1  0  0  0
 79 81  1  0  0  0
 79153  1  0  0  0
 79154  1  0  0  0
 80 82  1  0  0  0
 80155  1  0  0  0
 80156  1  0  0  0
 81 83  1  0  0  0
 81157  1  0  0  0
 81158  1  0  0  0
 82 89  1  0  0  0
 82159  1  0  0  0
 82160  1  0  0  0
 83 87  1  0  0  0
 83161  1  0  0  0
 84162  1  0  0  0
 84163  1  0  0  0
 84164  1  0  0  0
 85165  1  0  0  0
 85166  1  0  0  0
 85167  1  0  0  0
 86168  1  0  0  0
 86169  1  0  0  0
 86 89  1  0  0  0
 87170  1  0  0  0
 87171  1  0  0  0
 88172  1  0  0  0
 89173  1  0  0  0
M  CHG  1  89   1
M  ISO  4   1 100  68 101  87 101  88 100
M  END
> <chiral flag>
0

> <version>
0

> <s_m_source_file>
/data/baiqing/PycharmProjects/Reinvent-master-3.2/result/LINK_invent/BTK/process_docking_weight1_custom_product_contain_oxygen_bond_distance_aromatic_linkinvent_7_9_3/rearranged_h_0040.sdf

> <i_m_source_file_index>
63

> <r_mmod_Potential_Energy-OPLS-2005>
29.8171977996826

> <r_mmod_Stretch_Energy-OPLS-2005>
73.3227233886719

> <r_mmod_Bend_Energy-OPLS-2005>
160.737152099609

> <r_mmod_Torsional_Energy-OPLS-2005>
292.2265625

> <r_mmod_Improper_Torsional_Energy-OPLS-2005>
7.94089555740356

> <r_mmod_Van_der_Waal_Energy-OPLS-2005>
173.259262084961

> <r_mmod_Electrostatic_Energy-OPLS-2005>
-293.989807128906

> <r_mmod_Solvation_Energy-OPLS-2005>
-421.970672607422

> <b_mmod_Minimization_Converged-OPLS-2005>
0

> <r_mmod_RMS_Derivative-OPLS-2005>
7.14390802383423

$$$$
63
                    3D
 Structure written by MMmdl.
170179  0  0  1  0            999 V2000
  -30.6771  -14.5164   20.5755 C   0  0  0  0  0  0
  -30.4322  -12.3462   19.4107 C   0  0  0  0  0  0
  -29.4948  -12.5158   18.1968 C   0  0  0  0  0  0
  -28.0184  -12.3582   18.6125 C   0  0  0  0  0  0
  -27.6592  -13.2052   19.8628 C   0  0  2  0  0  0
  -28.7020  -12.9994   20.9814 C   0  0  0  0  0  0
  -25.2616  -13.8146   20.5673 C   0  0  0  0  0  0
  -24.1866  -13.0438   20.9159 C   0  0  0  0  0  0
  -24.6398  -11.6898   20.8696 C   0  0  0  0  0  0
  -23.9051  -10.4296   21.0386 C   0  0  0  0  0  0
  -24.3610   -9.4216   21.9169 C   0  0  0  0  0  0
  -23.6293   -8.2248   22.0756 C   0  0  0  0  0  0
  -22.4262   -8.0289   21.3556 C   0  0  0  0  0  0
  -21.9904   -9.0245   20.4636 C   0  0  0  0  0  0
  -22.7224  -10.2128   20.3039 C   0  0  0  0  0  0
  -21.6857   -6.0723   22.5279 C   0  0  0  0  0  0
  -21.4008   -6.5633   23.8211 C   0  0  0  0  0  0
  -21.3661   -5.6793   24.9176 C   0  0  0  0  0  0
  -21.6048   -4.3057   24.7228 C   0  0  0  0  0  0
  -21.8826   -3.8144   23.4353 C   0  0  0  0  0  0
  -21.9205   -4.6953   22.3409 C   0  0  0  0  0  0
  -22.7892  -13.5245   21.1847 C   0  0  0  0  0  0
  -22.1687   -4.2147   21.0986 F   0  0  0  0  0  0
  -21.5633   -3.4547   25.7741 F   0  0  0  0  0  0
  -30.0241  -13.3295   20.4268 N   0  0  0  0  0  0
  -26.3021  -12.9302   20.3288 N   0  0  0  0  0  0
  -25.9317  -11.6465   20.5701 N   0  0  0  0  0  0
  -22.0545  -12.8206   22.0383 N   0  0  0  0  0  0
  -25.4418  -15.1847   20.4074 N   0  0  0  0  0  0
  -31.8160  -14.7046   20.1409 O   0  0  0  0  0  0
  -21.6644   -6.8866   21.4247 O   0  0  0  0  0  0
  -22.3579  -14.5567   20.6724 O   0  0  0  0  0  0
  -24.6177  -31.8641   23.2039 C   0  0  0  0  0  0
  -25.9059  -32.4800   23.8352 C   0  0  1  0  0  0
  -27.2324  -27.3981   20.0775 C   0  0  0  0  0  0
  -25.5905  -33.8599   24.2286 N   0  0  0  0  0  0
  -23.4067  -30.4844   21.5454 C   0  0  2  0  0  0
  -24.8491  -28.9400   20.1107 C   0  0  0  0  0  0
  -22.7418  -29.4630   22.4969 C   0  0  0  0  0  0
  -18.0272  -28.1368   22.8494 C   0  0  0  0  0  0
  -24.1494  -36.7293   23.2641 C   0  0  0  0  0  0
  -25.9391  -30.8128   21.3646 C   0  0  0  0  0  0
  -26.0094  -29.4452   20.7061 C   0  0  0  0  0  0
  -27.1994  -28.6795   20.6877 C   0  0  0  0  0  0
  -26.0416  -26.8987   19.5086 C   0  0  0  0  0  0
  -24.8603  -27.6671   19.5119 C   0  0  0  0  0  0
  -23.6154  -29.8143   20.1604 C   0  0  0  0  0  0
  -25.4122  -36.3099   24.0341 C   0  0  1  0  0  0
  -20.5859  -28.3663   23.1308 C   0  0  2  0  0  0
  -20.6775  -26.9401   22.5418 C   0  0  0  0  0  0
  -19.5760  -26.6392   21.5204 C   0  0  0  0  0  0
  -18.1929  -26.7922   22.1611 C   0  0  0  0  0  0
  -19.1520  -28.8833   23.2899 C   0  0  0  0  0  0
  -18.9447  -30.1438   23.8911 C   0  0  0  0  0  0
  -17.6452  -30.6586   24.0547 C   0  0  0  0  0  0
  -25.9063  -34.9470   23.5112 C   0  0  0  0  0  0
  -16.5344  -29.9086   23.6314 C   0  0  0  0  0  0
  -16.7261  -28.6491   23.0350 C   0  0  0  0  0  0
  -26.4480  -31.6586   25.0692 C   0  0  0  0  0  0
  -25.3730  -31.3691   26.1423 C   0  0  0  0  0  0
  -27.0303  -30.3014   24.6103 C   0  0  0  0  0  0
  -27.6048  -32.4304   25.7454 C   0  0  0  0  0  0
  -27.5584  -37.1802   24.8471 C   0  0  0  0  0  0
  -21.4141  -29.3020   22.3706 N   0  0  0  0  0  0
  -26.4299  -37.3795   23.9415 N   0  0  0  0  0  0
  -24.6725  -31.0702   22.0958 N   0  0  0  0  0  0
  -23.4171  -28.8188   23.3043 O   0  0  0  0  0  0
  -28.4213  -26.6873   20.1026 O   0  0  0  0  0  0
  -26.5628  -34.8934   22.4683 O   0  0  0  0  0  0
  -23.5364  -32.1420   23.7412 O   0  0  0  0  0  0
  -30.9285  -18.8215   20.0296 C   0  0  0  0  0  0
  -28.6875  -18.5957   20.8838 C   0  0  0  0  0  0
  -29.9971  -18.0827   20.7818 C   0  0  0  0  0  0
  -30.5755  -20.0278   19.3781 C   0  0  0  0  0  0
  -28.3111  -19.8091   20.2432 C   0  0  0  0  0  0
  -29.2471  -20.5494   19.4565 C   0  0  0  0  0  0
  -29.8727  -23.7662   17.5372 C   0  0  0  0  0  0
  -31.1685  -23.7594   17.1848 C   0  0  0  0  0  0
  -28.8047  -24.6049   16.8562 C   0  0  0  0  0  0
  -28.5209  -25.8652   17.6971 C   0  0  0  0  0  0
  -28.4601  -24.0983   19.5859 C   0  0  0  0  0  0
  -28.7593  -25.5983   19.2057 C   0  0  2  0  0  0
  -31.6778  -20.7247   18.6061 C   0  0  0  0  0  0
  -26.8709  -20.2756   20.4065 C   0  0  0  0  0  0
  -30.4573  -16.8354   21.5648 C   0  0  0  0  0  0
  -28.7818  -21.7564   18.5746 C   0  0  0  0  0  0
  -29.9582  -15.5141   21.1347 N   0  0  0  0  0  0
  -29.3450  -23.1372   18.8111 N   0  3  1  0  0  0
  -31.4713  -12.4767   19.1020 H   0  0  0  0  0  0
  -30.3701  -11.3352   19.8184 H   0  0  0  0  0  0
  -29.7419  -11.7928   17.4175 H   0  0  0  0  0  0
  -29.6477  -13.5014   17.7519 H   0  0  0  0  0  0
  -27.8382  -11.3012   18.8109 H   0  0  0  0  0  0
  -27.3626  -12.6221   17.7818 H   0  0  0  0  0  0
  -27.6961  -14.2494   19.5505 H   0  0  0  0  0  0
  -28.6969  -11.9604   21.3170 H   0  0  0  0  0  0
  -28.4558  -13.5919   21.8630 H   0  0  0  0  0  0
  -25.2763   -9.5693   22.4725 H   0  0  0  0  0  0
  -24.0022   -7.4628   22.7458 H   0  0  0  0  0  0
  -21.0868   -8.8731   19.8912 H   0  0  0  0  0  0
  -22.3689  -10.9655   19.6136 H   0  0  0  0  0  0
  -21.1981   -7.6139   23.9707 H   0  0  0  0  0  0
  -21.1489   -6.0524   25.9077 H   0  0  0  0  0  0
  -22.0606   -2.7605   23.2852 H   0  0  0  0  0  0
  -22.4209  -11.9866   22.4728 H   0  0  0  0  0  0
  -21.1154  -13.1205   22.2590 H   0  0  0  0  0  0
  -24.6820  -15.8497   20.4985 H   0  0  0  0  0  0
  -26.2954  -15.6081   20.0660 H   0  0  0  0  0  0
  -26.7111  -32.5501   23.1096 H   0  0  0  0  0  0
  -25.0018  -33.9759   25.0400 H   0  0  0  0  0  0
  -22.6979  -31.3020   21.4037 H   0  0  0  0  0  0
  -23.3768  -35.9613   23.3305 H   0  0  0  0  0  0
  -24.3574  -36.8913   22.2051 H   0  0  0  0  0  0
  -23.7224  -37.6488   23.6660 H   0  0  0  0  0  0
  -26.0683  -31.5814   20.6012 H   0  0  0  0  0  0
  -26.8215  -30.8560   21.9919 H   0  0  0  0  0  0
  -28.0994  -29.0694   21.1428 H   0  0  0  0  0  0
  -26.0029  -25.9111   19.0733 H   0  0  0  0  0  0
  -23.9619  -27.2676   19.0624 H   0  0  0  0  0  0
  -23.7349  -30.5896   19.4028 H   0  0  0  0  0  0
  -22.7366  -29.2390   19.8617 H   0  0  0  0  0  0
  -25.1297  -36.1957   25.0836 H   0  0  0  0  0  0
  -20.9949  -28.3228   24.1421 H   0  0  0  0  0  0
  -20.5692  -26.2261   23.3594 H   0  0  0  0  0  0
  -21.6650  -26.7461   22.1195 H   0  0  0  0  0  0
  -19.6944  -25.6312   21.1209 H   0  0  0  0  0  0
  -19.6699  -27.3224   20.6746 H   0  0  0  0  0  0
  -17.4206  -26.6659   21.3997 H   0  0  0  0  0  0
  -18.0330  -26.0057   22.8996 H   0  0  0  0  0  0
  -19.7921  -30.7245   24.2291 H   0  0  0  0  0  0
  -17.5007  -31.6272   24.5138 H   0  0  0  0  0  0
  -15.5347  -30.2996   23.7631 H   0  0  0  0  0  0
  -15.8652  -28.0818   22.7064 H   0  0  0  0  0  0
  -24.5922  -30.7036   25.7717 H   0  0  0  0  0  0
  -24.8916  -32.2854   26.4856 H   0  0  0  0  0  0
  -25.8087  -30.8841   27.0172 H   0  0  0  0  0  0
  -26.2843  -29.6760   24.1186 H   0  0  0  0  0  0
  -27.4055  -29.7270   25.4581 H   0  0  0  0  0  0
  -27.8703  -30.4285   23.9265 H   0  0  0  0  0  0
  -27.2677  -33.3598   26.2057 H   0  0  0  0  0  0
  -28.3863  -32.6874   25.0288 H   0  0  0  0  0  0
  -28.0733  -31.8415   26.5354 H   0  0  0  0  0  0
  -28.2612  -38.0085   24.7522 H   0  0  0  0  0  0
  -28.1073  -36.2623   24.6313 H   0  0  0  0  0  0
  -27.2301  -37.1469   25.8871 H   0  0  0  0  0  0
  -20.9311  -29.8703   21.6886 H   0  0  0  0  0  0
  -26.0184  -38.2873   24.1421 H   0  0  0  0  0  0
  -31.9447  -18.4564   19.9626 H   0  0  0  0  0  0
  -27.9656  -18.0519   21.4778 H   0  0  0  0  0  0
  -31.4987  -24.3105   16.3162 H   0  0  0  0  0  0
  -31.9330  -23.2627   17.7568 H   0  0  0  0  0  0
  -27.8973  -24.0098   16.7449 H   0  0  0  0  0  0
  -29.1120  -24.8782   15.8459 H   0  0  0  0  0  0
  -27.5138  -26.2056   17.4748 H   0  0  0  0  0  0
  -29.1792  -26.6748   17.3798 H   0  0  0  0  0  0
  -27.4068  -23.8892   19.4029 H   0  0  0  0  0  0
  -28.6302  -23.9307   20.6490 H   0  0  0  0  0  0
  -29.8423  -25.6566   19.3193 H   0  0  0  0  0  0
  -32.5614  -20.0929   18.5015 H   0  0  0  0  0  0
  -31.9964  -21.6116   19.1518 H   0  0  0  0  0  0
  -31.3596  -20.9943   17.6007 H   0  0  0  0  0  0
  -26.3336  -19.6759   21.1429 H   0  0  0  0  0  0
  -26.3246  -20.2006   19.4654 H   0  0  0  0  0  0
  -26.8397  -21.3116   20.7454 H   0  0  0  0  0  0
  -30.1285  -16.9696   22.5960 H   0  0  0  0  0  0
  -31.5489  -16.8264   21.6228 H   0  0  0  0  0  0
  -27.6977  -21.8173   18.5229 H   0  0  0  0  0  0
  -29.0486  -21.4602   17.5579 H   0  0  0  0  0  0
  -29.0183  -15.2803   21.4121 H   0  0  0  0  0  0
  -30.1408  -22.9777   19.4104 H   0  0  0  0  0  0
  1 25  1  0  0  0
  1 30  2  0  0  0
  1 87  1  0  0  0
  2  3  1  0  0  0
  2 25  1  0  0  0
  2 89  1  0  0  0
  2 90  1  0  0  0
  3  4  1  0  0  0
  3 91  1  0  0  0
  3 92  1  0  0  0
  4  5  1  0  0  0
  4 93  1  0  0  0
  4 94  1  0  0  0
  5  6  1  0  0  0
  5 26  1  0  0  0
  5 95  1  0  0  0
  6 25  1  0  0  0
  6 96  1  0  0  0
  6 97  1  0  0  0
  7  8  2  0  0  0
  7 26  1  0  0  0
  7 29  1  0  0  0
  8  9  1  0  0  0
  8 22  1  0  0  0
  9 10  1  0  0  0
  9 27  2  0  0  0
 10 11  2  0  0  0
 10 15  1  0  0  0
 11 12  1  0  0  0
 11 98  1  0  0  0
 12 13  2  0  0  0
 12 99  1  0  0  0
 13 14  1  0  0  0
 13 31  1  0  0  0
 14 15  2  0  0  0
 14100  1  0  0  0
 15101  1  0  0  0
 16 17  2  0  0  0
 16 21  1  0  0  0
 16 31  1  0  0  0
 17 18  1  0  0  0
 17102  1  0  0  0
 18 19  2  0  0  0
 18103  1  0  0  0
 19 20  1  0  0  0
 19 24  1  0  0  0
 20 21  2  0  0  0
 20104  1  0  0  0
 21 23  1  0  0  0
 22 28  1  0  0  0
 22 32  2  0  0  0
 26 27  1  0  0  0
 28105  1  0  0  0
 28106  1  0  0  0
 29107  1  0  0  0
 29108  1  0  0  0
 33 34  1  0  0  0
 33 66  1  0  0  0
 33 70  2  0  0  0
 34 36  1  0  0  0
 34 59  1  0  0  0
 34109  1  0  0  0
 35 44  2  0  0  0
 35 45  1  0  0  0
 35 68  1  0  0  0
 36 56  1  0  0  0
 36110  1  0  0  0
 37 39  1  0  0  0
 37 47  1  0  0  0
 37 66  1  0  0  0
 37111  1  0  0  0
 38 43  2  0  0  0
 38 46  1  0  0  0
 38 47  1  0  0  0
 39 64  1  0  0  0
 39 67  2  0  0  0
 40 52  1  0  0  0
 40 53  2  0  0  0
 40 58  1  0  0  0
 41112  1  0  0  0
 41113  1  0  0  0
 41114  1  0  0  0
 41 48  1  0  0  0
 42 43  1  0  0  0
 42 66  1  0  0  0
 42115  1  0  0  0
 42116  1  0  0  0
 43 44  1  0  0  0
 44117  1  0  0  0
 45 46  2  0  0  0
 45118  1  0  0  0
 46119  1  0  0  0
 47120  1  0  0  0
 47121  1  0  0  0
 48 56  1  0  0  0
 48 65  1  0  0  0
 48122  1  0  0  0
 49 50  1  0  0  0
 49 53  1  0  0  0
 49 64  1  0  0  0
 49123  1  0  0  0
 50 51  1  0  0  0
 50124  1  0  0  0
 50125  1  0  0  0
 51 52  1  0  0  0
 51126  1  0  0  0
 51127  1  0  0  0
 52128  1  0  0  0
 52129  1  0  0  0
 53 54  1  0  0  0
 54 55  2  0  0  0
 54130  1  0  0  0
 55 57  1  0  0  0
 55131  1  0  0  0
 56 69  2  0  0  0
 57 58  2  0  0  0
 57132  1  0  0  0
 58133  1  0  0  0
 59 60  1  0  0  0
 59 61  1  0  0  0
 59 62  1  0  0  0
 60134  1  0  0  0
 60135  1  0  0  0
 60136  1  0  0  0
 61137  1  0  0  0
 61138  1  0  0  0
 61139  1  0  0  0
 62140  1  0  0  0
 62141  1  0  0  0
 62142  1  0  0  0
 63 65  1  0  0  0
 63143  1  0  0  0
 63144  1  0  0  0
 63145  1  0  0  0
 64146  1  0  0  0
 65147  1  0  0  0
 68 82  1  0  0  0
 71 73  2  0  0  0
 71 74  1  0  0  0
 71148  1  0  0  0
 72 73  1  0  0  0
 72 75  2  0  0  0
 72149  1  0  0  0
 73 85  1  0  0  0
 74 76  2  0  0  0
 74 83  1  0  0  0
 75 76  1  0  0  0
 75 84  1  0  0  0
 76 86  1  0  0  0
 77 78  2  0  0  0
 77 79  1  0  0  0
 77 88  1  0  0  0
 78150  1  0  0  0
 78151  1  0  0  0
 79 80  1  0  0  0
 79152  1  0  0  0
 79153  1  0  0  0
 80 82  1  0  0  0
 80154  1  0  0  0
 80155  1  0  0  0
 81 82  1  0  0  0
 81 88  1  0  0  0
 81156  1  0  0  0
 81157  1  0  0  0
 82158  1  0  0  0
 83159  1  0  0  0
 83160  1  0  0  0
 83161  1  0  0  0
 84162  1  0  0  0
 84163  1  0  0  0
 84164  1  0  0  0
 85 87  1  0  0  0
 85165  1  0  0  0
 85166  1  0  0  0
 86167  1  0  0  0
 86168  1  0  0  0
 86 88  1  0  0  0
 87169  1  0  0  0
 88170  1  0  0  0
M  CHG  1  88   1
M  ISO  4   1 100  68 101  82 101  87 100
M  END
> <chiral flag>
0

> <version>
0

> <s_m_source_file>
/data/baiqing/PycharmProjects/Reinvent-master-3.2/result/LINK_invent/BTK/process_docking_weight1_custom_product_contain_oxygen_bond_distance_aromatic_linkinvent_7_9_3/rearranged_h_0040.sdf

> <i_m_source_file_index>
64

> <r_mmod_Potential_Energy-OPLS-2005>
-106.595024108887

> <r_mmod_Stretch_Energy-OPLS-2005>
57.3137321472168

> <r_mmod_Bend_Energy-OPLS-2005>
158.183410644531

> <r_mmod_Torsional_Energy-OPLS-2005>
228.609375

> <r_mmod_Improper_Torsional_Energy-OPLS-2005>
4.26273202896118

> <r_mmod_Van_der_Waal_Energy-OPLS-2005>
162.99040222168

> <r_mmod_Electrostatic_Energy-OPLS-2005>
-321.604553222656

> <r_mmod_Solvation_Energy-OPLS-2005>
-415.28076171875

> <b_mmod_Minimization_Converged-OPLS-2005>
0

> <r_mmod_RMS_Derivative-OPLS-2005>
3.05164742469788

$$$$
64
                    3D
 Structure written by MMmdl.
173182  0  0  1  0            999 V2000
  -30.7011  -14.4364   20.5639 C   0  0  0  0  0  0
  -30.4226  -12.2852   19.4108 C   0  0  0  0  0  0
  -29.4908  -12.4949   18.1995 C   0  0  0  0  0  0
  -28.0124  -12.3584   18.6151 C   0  0  0  0  0  0
  -27.6610  -13.1990   19.8711 C   0  0  2  0  0  0
  -28.7012  -12.9680   20.9895 C   0  0  0  0  0  0
  -25.2602  -13.8143   20.5688 C   0  0  0  0  0  0
  -24.1842  -13.0440   20.9174 C   0  0  0  0  0  0
  -24.6391  -11.6901   20.8732 C   0  0  0  0  0  0
  -23.9061  -10.4298   21.0415 C   0  0  0  0  0  0
  -24.3610   -9.4204   21.9195 C   0  0  0  0  0  0
  -23.6294   -8.2235   22.0759 C   0  0  0  0  0  0
  -22.4280   -8.0286   21.3550 C   0  0  0  0  0  0
  -21.9919   -9.0259   20.4649 C   0  0  0  0  0  0
  -22.7237  -10.2143   20.3063 C   0  0  0  0  0  0
  -21.6852   -6.0741   22.5289 C   0  0  0  0  0  0
  -21.4002   -6.5644   23.8224 C   0  0  0  0  0  0
  -21.3656   -5.6798   24.9189 C   0  0  0  0  0  0
  -21.6041   -4.3061   24.7231 C   0  0  0  0  0  0
  -21.8813   -3.8150   23.4351 C   0  0  0  0  0  0
  -21.9190   -4.6966   22.3407 C   0  0  0  0  0  0
  -22.7864  -13.5245   21.1843 C   0  0  0  0  0  0
  -22.1666   -4.2155   21.0986 F   0  0  0  0  0  0
  -21.5632   -3.4540   25.7740 F   0  0  0  0  0  0
  -30.0339  -13.2625   20.4352 N   0  0  0  0  0  0
  -26.3021  -12.9302   20.3336 N   0  0  0  0  0  0
  -25.9311  -11.6471   20.5742 N   0  0  0  0  0  0
  -22.0488  -12.8258   22.0398 N   0  0  0  0  0  0
  -25.4366  -15.1856   20.4111 N   0  0  0  0  0  0
  -31.8654  -14.5821   20.1903 O   0  0  0  0  0  0
  -21.6643   -6.8888   21.4253 O   0  0  0  0  0  0
  -22.3570  -14.5559   20.6690 O   0  0  0  0  0  0
  -24.6111  -31.8718   23.2148 C   0  0  0  0  0  0
  -25.9021  -32.4840   23.8428 C   0  0  1  0  0  0
  -27.2340  -27.4626   20.0779 C   0  0  0  0  0  0
  -25.5900  -33.8640   24.2351 N   0  0  0  0  0  0
  -23.3967  -30.4977   21.5556 C   0  0  2  0  0  0
  -24.8401  -28.9689   20.1184 C   0  0  0  0  0  0
  -22.7387  -29.4681   22.5015 C   0  0  0  0  0  0
  -18.0264  -28.1384   22.8496 C   0  0  0  0  0  0
  -24.1490  -36.7314   23.2635 C   0  0  0  0  0  0
  -25.9241  -30.8394   21.3692 C   0  0  0  0  0  0
  -25.9979  -29.4747   20.7208 C   0  0  0  0  0  0
  -27.1915  -28.7204   20.7162 C   0  0  0  0  0  0
  -26.0519  -26.9651   19.4809 C   0  0  0  0  0  0
  -24.8589  -27.7072   19.5037 C   0  0  0  0  0  0
  -23.6026  -29.8339   20.1686 C   0  0  0  0  0  0
  -25.4108  -36.3121   24.0345 C   0  0  1  0  0  0
  -20.5856  -28.3658   23.1332 C   0  0  2  0  0  0
  -20.6765  -26.9402   22.5424 C   0  0  0  0  0  0
  -19.5740  -26.6385   21.5212 C   0  0  0  0  0  0
  -18.1916  -26.7929   22.1628 C   0  0  0  0  0  0
  -19.1516  -28.8835   23.2910 C   0  0  0  0  0  0
  -18.9449  -30.1447   23.8908 C   0  0  0  0  0  0
  -17.6453  -30.6585   24.0562 C   0  0  0  0  0  0
  -25.9034  -34.9489   23.5141 C   0  0  0  0  0  0
  -16.5343  -29.9091   23.6319 C   0  0  0  0  0  0
  -16.7257  -28.6509   23.0338 C   0  0  0  0  0  0
  -26.4464  -31.6608   25.0741 C   0  0  0  0  0  0
  -25.3748  -31.3702   26.1502 C   0  0  0  0  0  0
  -27.0276  -30.3053   24.6089 C   0  0  0  0  0  0
  -27.6054  -32.4321   25.7484 C   0  0  0  0  0  0
  -27.5593  -37.1799   24.8456 C   0  0  0  0  0  0
  -21.4118  -29.3031   22.3736 N   0  0  0  0  0  0
  -26.4287  -37.3809   23.9426 N   0  0  0  0  0  0
  -24.6621  -31.0847   22.1044 N   0  0  0  0  0  0
  -23.4173  -28.8222   23.3047 O   0  0  0  0  0  0
  -28.4200  -26.7602   20.0724 O   0  0  0  0  0  0
  -26.5593  -34.8933   22.4703 O   0  0  0  0  0  0
  -23.5307  -32.1463   23.7550 O   0  0  0  0  0  0
  -31.2633  -18.9724   20.5034 C   0  0  0  0  0  0
  -29.8553  -18.8705   22.4733 C   0  0  0  0  0  0
  -30.6647  -19.6233   21.5973 C   0  0  0  0  0  0
  -30.9975  -17.6198   20.2183 C   0  0  0  0  0  0
  -29.6374  -17.4939   22.2487 C   0  0  0  0  0  0
  -30.2267  -16.8426   21.1331 C   0  0  0  0  0  0
  -30.5871  -22.7550   19.8605 C   0  0  0  0  0  0
  -31.2623  -22.1862   18.8470 C   0  0  0  0  0  0
  -30.2419  -24.2292   19.9455 C   0  0  0  0  0  0
  -27.7691  -22.2734   19.6840 C   0  0  0  0  0  0
  -27.7198  -23.8142   19.7589 C   0  0  0  0  0  0
  -28.5675  -21.5373   20.7878 C   0  0  0  0  0  0
  -28.9555  -24.5197   19.1497 C   0  0  1  0  0  0
  -31.5027  -17.1072   18.8776 C   0  0  0  0  0  0
  -28.7330  -16.7343   23.2087 C   0  0  0  0  0  0
  -30.8548  -21.1301   21.8084 C   0  0  0  0  0  0
  -28.7503  -26.0286   18.8916 C   0  0  0  0  0  0
  -29.9224  -15.4595   20.9598 N   0  0  0  0  0  0
  -29.9619  -22.0247   21.0059 N   0  3  1  0  0  0
  -31.4660  -12.3850   19.1058 H   0  0  0  0  0  0
  -30.3210  -11.2742   19.8074 H   0  0  0  0  0  0
  -29.7243  -11.7736   17.4154 H   0  0  0  0  0  0
  -29.6637  -13.4814   17.7666 H   0  0  0  0  0  0
  -27.8199  -11.3030   18.8119 H   0  0  0  0  0  0
  -27.3622  -12.6330   17.7836 H   0  0  0  0  0  0
  -27.7100  -14.2469   19.5735 H   0  0  0  0  0  0
  -28.6690  -11.9310   21.3260 H   0  0  0  0  0  0
  -28.4685  -13.5652   21.8723 H   0  0  0  0  0  0
  -25.2754   -9.5669   22.4773 H   0  0  0  0  0  0
  -24.0000   -7.4618   22.7480 H   0  0  0  0  0  0
  -21.0848   -8.8775   19.8957 H   0  0  0  0  0  0
  -22.3694  -10.9686   19.6173 H   0  0  0  0  0  0
  -21.2006   -7.6153   23.9728 H   0  0  0  0  0  0
  -21.1480   -6.0531   25.9094 H   0  0  0  0  0  0
  -22.0600   -2.7613   23.2858 H   0  0  0  0  0  0
  -22.4109  -11.9933   22.4809 H   0  0  0  0  0  0
  -21.1093  -13.1279   22.2566 H   0  0  0  0  0  0
  -24.6726  -15.8431   20.5215 H   0  0  0  0  0  0
  -26.2895  -15.6195   20.0821 H   0  0  0  0  0  0
  -26.7088  -32.5568   23.1195 H   0  0  0  0  0  0
  -25.0069  -33.9809   25.0510 H   0  0  0  0  0  0
  -22.6824  -31.3133   21.4217 H   0  0  0  0  0  0
  -23.3774  -35.9621   23.3254 H   0  0  0  0  0  0
  -24.3592  -36.8974   22.2062 H   0  0  0  0  0  0
  -23.7211  -37.6492   23.6679 H   0  0  0  0  0  0
  -26.0374  -31.6039   20.5998 H   0  0  0  0  0  0
  -26.8124  -30.8921   21.9852 H   0  0  0  0  0  0
  -28.0848  -29.1078   21.1867 H   0  0  0  0  0  0
  -26.0271  -26.0099   18.9856 H   0  0  0  0  0  0
  -23.9678  -27.3070   19.0387 H   0  0  0  0  0  0
  -23.7090  -30.6103   19.4105 H   0  0  0  0  0  0
  -22.7257  -29.2538   19.8745 H   0  0  0  0  0  0
  -25.1271  -36.1986   25.0834 H   0  0  0  0  0  0
  -20.9946  -28.3230   24.1459 H   0  0  0  0  0  0
  -20.5689  -26.2258   23.3598 H   0  0  0  0  0  0
  -21.6632  -26.7465   22.1212 H   0  0  0  0  0  0
  -19.6906  -25.6307   21.1223 H   0  0  0  0  0  0
  -19.6681  -27.3202   20.6748 H   0  0  0  0  0  0
  -17.4194  -26.6682   21.4019 H   0  0  0  0  0  0
  -18.0308  -26.0066   22.9019 H   0  0  0  0  0  0
  -19.7927  -30.7255   24.2288 H   0  0  0  0  0  0
  -17.5014  -31.6263   24.5175 H   0  0  0  0  0  0
  -15.5347  -30.3001   23.7640 H   0  0  0  0  0  0
  -15.8655  -28.0833   22.7044 H   0  0  0  0  0  0
  -24.5876  -30.7105   25.7835 H   0  0  0  0  0  0
  -24.8998  -32.2861   26.5028 H   0  0  0  0  0  0
  -25.8121  -30.8800   27.0211 H   0  0  0  0  0  0
  -26.2794  -29.6819   24.1178 H   0  0  0  0  0  0
  -27.4086  -29.7287   25.4526 H   0  0  0  0  0  0
  -27.8623  -30.4367   23.9200 H   0  0  0  0  0  0
  -27.2694  -33.3642   26.2039 H   0  0  0  0  0  0
  -28.3865  -32.6839   25.0300 H   0  0  0  0  0  0
  -28.0706  -31.8451   26.5409 H   0  0  0  0  0  0
  -28.2568  -38.0138   24.7588 H   0  0  0  0  0  0
  -28.1137  -36.2682   24.6185 H   0  0  0  0  0  0
  -27.2323  -37.1330   25.8855 H   0  0  0  0  0  0
  -20.9274  -29.8756   21.6964 H   0  0  0  0  0  0
  -26.0177  -38.2880   24.1477 H   0  0  0  0  0  0
  -31.9141  -19.5158   19.8400 H   0  0  0  0  0  0
  -29.3886  -19.3525   23.3217 H   0  0  0  0  0  0
  -31.6477  -22.7940   18.0408 H   0  0  0  0  0  0
  -31.4189  -21.1286   18.7642 H   0  0  0  0  0  0
  -31.0772  -24.7943   19.5287 H   0  0  0  0  0  0
  -30.1414  -24.5604   20.9807 H   0  0  0  0  0  0
  -28.1267  -21.9634   18.7009 H   0  0  0  0  0  0
  -26.7444  -21.9031   19.7342 H   0  0  0  0  0  0
  -27.5310  -24.1571   20.7777 H   0  0  0  0  0  0
  -26.8482  -24.1052   19.1785 H   0  0  0  0  0  0
  -28.5661  -20.4861   20.5041 H   0  0  0  0  0  0
  -28.0314  -21.5961   21.7366 H   0  0  0  0  0  0
  -29.1022  -24.0941   18.1540 H   0  0  0  0  0  0
  -31.5306  -17.9127   18.1431 H   0  0  0  0  0  0
  -30.8518  -16.3371   18.4641 H   0  0  0  0  0  0
  -32.5166  -16.7183   18.9707 H   0  0  0  0  0  0
  -28.4476  -17.3513   24.0614 H   0  0  0  0  0  0
  -29.2362  -15.8483   23.5953 H   0  0  0  0  0  0
  -27.8172  -16.4207   22.7050 H   0  0  0  0  0  0
  -31.9004  -21.3950   21.6423 H   0  0  0  0  0  0
  -30.6693  -21.3509   22.8600 H   0  0  0  0  0  0
  -28.0410  -26.1755   18.0774 H   0  0  0  0  0  0
  -29.6805  -26.4515   18.5108 H   0  0  0  0  0  0
  -29.0139  -15.1724   21.2853 H   0  0  0  0  0  0
  -29.8054  -22.7561   21.6833 H   0  0  0  0  0  0
  1 25  1  0  0  0
  1 30  2  0  0  0
  1 88  1  0  0  0
  2  3  1  0  0  0
  2 25  1  0  0  0
  2 90  1  0  0  0
  2 91  1  0  0  0
  3  4  1  0  0  0
  3 92  1  0  0  0
  3 93  1  0  0  0
  4  5  1  0  0  0
  4 94  1  0  0  0
  4 95  1  0  0  0
  5  6  1  0  0  0
  5 26  1  0  0  0
  5 96  1  0  0  0
  6 25  1  0  0  0
  6 97  1  0  0  0
  6 98  1  0  0  0
  7  8  2  0  0  0
  7 26  1  0  0  0
  7 29  1  0  0  0
  8  9  1  0  0  0
  8 22  1  0  0  0
  9 10  1  0  0  0
  9 27  2  0  0  0
 10 11  2  0  0  0
 10 15  1  0  0  0
 11 12  1  0  0  0
 11 99  1  0  0  0
 12 13  2  0  0  0
 12100  1  0  0  0
 13 14  1  0  0  0
 13 31  1  0  0  0
 14 15  2  0  0  0
 14101  1  0  0  0
 15102  1  0  0  0
 16 17  2  0  0  0
 16 21  1  0  0  0
 16 31  1  0  0  0
 17 18  1  0  0  0
 17103  1  0  0  0
 18 19  2  0  0  0
 18104  1  0  0  0
 19 20  1  0  0  0
 19 24  1  0  0  0
 20 21  2  0  0  0
 20105  1  0  0  0
 21 23  1  0  0  0
 22 28  1  0  0  0
 22 32  2  0  0  0
 26 27  1  0  0  0
 28106  1  0  0  0
 28107  1  0  0  0
 29108  1  0  0  0
 29109  1  0  0  0
 33 34  1  0  0  0
 33 66  1  0  0  0
 33 70  2  0  0  0
 34 36  1  0  0  0
 34 59  1  0  0  0
 34110  1  0  0  0
 35 44  2  0  0  0
 35 45  1  0  0  0
 35 68  1  0  0  0
 36 56  1  0  0  0
 36111  1  0  0  0
 37 39  1  0  0  0
 37 47  1  0  0  0
 37 66  1  0  0  0
 37112  1  0  0  0
 38 43  2  0  0  0
 38 46  1  0  0  0
 38 47  1  0  0  0
 39 64  1  0  0  0
 39 67  2  0  0  0
 40 52  1  0  0  0
 40 53  2  0  0  0
 40 58  1  0  0  0
 41113  1  0  0  0
 41114  1  0  0  0
 41115  1  0  0  0
 41 48  1  0  0  0
 42 43  1  0  0  0
 42 66  1  0  0  0
 42116  1  0  0  0
 42117  1  0  0  0
 43 44  1  0  0  0
 44118  1  0  0  0
 45 46  2  0  0  0
 45119  1  0  0  0
 46120  1  0  0  0
 47121  1  0  0  0
 47122  1  0  0  0
 48 56  1  0  0  0
 48 65  1  0  0  0
 48123  1  0  0  0
 49 50  1  0  0  0
 49 53  1  0  0  0
 49 64  1  0  0  0
 49124  1  0  0  0
 50 51  1  0  0  0
 50125  1  0  0  0
 50126  1  0  0  0
 51 52  1  0  0  0
 51127  1  0  0  0
 51128  1  0  0  0
 52129  1  0  0  0
 52130  1  0  0  0
 53 54  1  0  0  0
 54 55  2  0  0  0
 54131  1  0  0  0
 55 57  1  0  0  0
 55132  1  0  0  0
 56 69  2  0  0  0
 57 58  2  0  0  0
 57133  1  0  0  0
 58134  1  0  0  0
 59 60  1  0  0  0
 59 61  1  0  0  0
 59 62  1  0  0  0
 60135  1  0  0  0
 60136  1  0  0  0
 60137  1  0  0  0
 61138  1  0  0  0
 61139  1  0  0  0
 61140  1  0  0  0
 62141  1  0  0  0
 62142  1  0  0  0
 62143  1  0  0  0
 63 65  1  0  0  0
 63144  1  0  0  0
 63145  1  0  0  0
 63146  1  0  0  0
 64147  1  0  0  0
 65148  1  0  0  0
 68 87  1  0  0  0
 71 73  2  0  0  0
 71 74  1  0  0  0
 71149  1  0  0  0
 72 73  1  0  0  0
 72 75  2  0  0  0
 72150  1  0  0  0
 73 86  1  0  0  0
 74 76  2  0  0  0
 74 84  1  0  0  0
 75 76  1  0  0  0
 75 85  1  0  0  0
 76 88  1  0  0  0
 77 78  2  0  0  0
 77 79  1  0  0  0
 77 89  1  0  0  0
 78151  1  0  0  0
 78152  1  0  0  0
 79 83  1  0  0  0
 79153  1  0  0  0
 79154  1  0  0  0
 80 81  1  0  0  0
 80 82  1  0  0  0
 80155  1  0  0  0
 80156  1  0  0  0
 81 83  1  0  0  0
 81157  1  0  0  0
 81158  1  0  0  0
 82 89  1  0  0  0
 82159  1  0  0  0
 82160  1  0  0  0
 83 87  1  0  0  0
 83161  1  0  0  0
 84162  1  0  0  0
 84163  1  0  0  0
 84164  1  0  0  0
 85165  1  0  0  0
 85166  1  0  0  0
 85167  1  0  0  0
 86168  1  0  0  0
 86169  1  0  0  0
 86 89  1  0  0  0
 87170  1  0  0  0
 87171  1  0  0  0
 88172  1  0  0  0
 89173  1  0  0  0
M  CHG  1  89   1
M  ISO  4   1 100  68 101  87 101  88 100
M  END
> <chiral flag>
0

> <version>
0

> <s_m_source_file>
/data/baiqing/PycharmProjects/Reinvent-master-3.2/result/LINK_invent/BTK/process_docking_weight1_custom_product_contain_oxygen_bond_distance_aromatic_linkinvent_7_9_3/rearranged_h_0040.sdf

> <i_m_source_file_index>
65

> <r_mmod_Potential_Energy-OPLS-2005>
-109.630432128906

> <r_mmod_Stretch_Energy-OPLS-2005>
37.4982528686523

> <r_mmod_Bend_Energy-OPLS-2005>
132.421661376953

> <r_mmod_Torsional_Energy-OPLS-2005>
259.171813964844

> <r_mmod_Improper_Torsional_Energy-OPLS-2005>
4.62060213088989

> <r_mmod_Van_der_Waal_Energy-OPLS-2005>
169.817413330078

> <r_mmod_Electrostatic_Energy-OPLS-2005>
-305.003784179688

> <r_mmod_Solvation_Energy-OPLS-2005>
-421.372528076172

> <b_mmod_Minimization_Converged-OPLS-2005>
0

> <r_mmod_RMS_Derivative-OPLS-2005>
1.87673878669739

$$$$
65
                    3D
 Structure written by MMmdl.
163171  0  0  1  0            999 V2000
  -30.6768  -14.8739   20.4882 C   0  0  0  0  0  0
  -30.4258  -12.5657   19.4848 C   0  0  0  0  0  0
  -29.5051  -12.4828   18.2494 C   0  0  0  0  0  0
  -28.0594  -12.2009   18.6906 C   0  0  0  0  0  0
  -27.6159  -13.1674   19.8047 C   0  0  2  0  0  0
  -28.6658  -13.3074   20.9470 C   0  0  0  0  0  0
  -25.2439  -13.7948   20.5680 C   0  0  0  0  0  0
  -24.1743  -13.0270   20.9253 C   0  0  0  0  0  0
  -24.6314  -11.6757   20.8805 C   0  0  0  0  0  0
  -23.9014  -10.4191   21.0474 C   0  0  0  0  0  0
  -24.3591   -9.4112   21.9237 C   0  0  0  0  0  0
  -23.6270   -8.2156   22.0779 C   0  0  0  0  0  0
  -22.4258   -8.0229   21.3548 C   0  0  0  0  0  0
  -21.9886   -9.0204   20.4651 C   0  0  0  0  0  0
  -22.7216  -10.2072   20.3085 C   0  0  0  0  0  0
  -21.6817   -6.0717   22.5281 C   0  0  0  0  0  0
  -21.3983   -6.5628   23.8214 C   0  0  0  0  0  0
  -21.3654   -5.6786   24.9182 C   0  0  0  0  0  0
  -21.6048   -4.3050   24.7230 C   0  0  0  0  0  0
  -21.8823   -3.8140   23.4352 C   0  0  0  0  0  0
  -21.9178   -4.6950   22.3404 C   0  0  0  0  0  0
  -22.7792  -13.5130   21.1916 C   0  0  0  0  0  0
  -22.1654   -4.2143   21.0986 F   0  0  0  0  0  0
  -21.5635   -3.4536   25.7750 F   0  0  0  0  0  0
  -29.9507  -13.6910   20.3450 N   0  0  0  0  0  0
  -26.2799  -12.9055   20.3132 N   0  0  0  0  0  0
  -25.9193  -11.6279   20.5742 N   0  0  0  0  0  0
  -22.0423  -12.8155   22.0482 N   0  0  0  0  0  0
  -25.3866  -15.1682   20.4144 N   0  0  0  0  0  0
  -31.8655  -14.8386   20.1709 O   0  0  0  0  0  0
  -21.6597   -6.8855   21.4252 O   0  0  0  0  0  0
  -22.3505  -14.5456   20.6764 O   0  0  0  0  0  0
  -24.6346  -31.8538   23.1966 C   0  0  0  0  0  0
  -25.9154  -32.4751   23.8319 C   0  0  1  0  0  0
  -27.2243  -27.2353   20.1416 C   0  0  0  0  0  0
  -25.5939  -33.8551   24.2249 N   0  0  0  0  0  0
  -23.4324  -30.4755   21.5415 C   0  0  2  0  0  0
  -24.8804  -28.9185   20.1122 C   0  0  0  0  0  0
  -22.7523  -29.4600   22.4909 C   0  0  0  0  0  0
  -18.0296  -28.1401   22.8478 C   0  0  0  0  0  0
  -24.1488  -36.7279   23.2638 C   0  0  0  0  0  0
  -25.9804  -30.7597   21.3784 C   0  0  0  0  0  0
  -26.0546  -29.3803   20.7202 C   0  0  0  0  0  0
  -27.2293  -28.5552   20.7165 C   0  0  0  0  0  0
  -26.0228  -26.8482   19.5024 C   0  0  0  0  0  0
  -24.8726  -27.6620   19.4892 C   0  0  0  0  0  0
  -23.6524  -29.8091   20.1584 C   0  0  0  0  0  0
  -25.4120  -36.3065   24.0320 C   0  0  1  0  0  0
  -20.5900  -28.3720   23.1258 C   0  0  2  0  0  0
  -20.6786  -26.9433   22.5410 C   0  0  0  0  0  0
  -19.5761  -26.6394   21.5216 C   0  0  0  0  0  0
  -18.1940  -26.7943   22.1622 C   0  0  0  0  0  0
  -19.1548  -28.8879   23.2861 C   0  0  0  0  0  0
  -18.9469  -30.1478   23.8886 C   0  0  0  0  0  0
  -17.6467  -30.6596   24.0571 C   0  0  0  0  0  0
  -25.9062  -34.9440   23.5094 C   0  0  0  0  0  0
  -16.5359  -29.9093   23.6334 C   0  0  0  0  0  0
  -16.7283  -28.6515   23.0345 C   0  0  0  0  0  0
  -26.4509  -31.6576   25.0715 C   0  0  0  0  0  0
  -25.3721  -31.3727   26.1424 C   0  0  0  0  0  0
  -27.0359  -30.2991   24.6216 C   0  0  0  0  0  0
  -27.6063  -32.4323   25.7484 C   0  0  0  0  0  0
  -27.5587  -37.1791   24.8469 C   0  0  0  0  0  0
  -21.4227  -29.3061   22.3647 N   0  0  0  0  0  0
  -26.4297  -37.3774   23.9413 N   0  0  0  0  0  0
  -24.7020  -31.0474   22.0961 N   0  0  0  0  0  0
  -23.4200  -28.8150   23.3032 O   0  0  0  0  0  0
  -28.3125  -26.3208   20.2117 O   0  0  0  0  0  0
  -26.5643  -34.8918   22.4666 O   0  0  0  0  0  0
  -23.5489  -32.1370   23.7243 O   0  0  0  0  0  0
  -27.3375  -17.0775   18.6616 C   0  0  0  0  0  0
  -27.7112  -18.2886   18.0907 C   0  0  0  0  0  0
  -28.1507  -16.5371   19.6593 C   0  0  0  0  0  0
  -28.7566  -19.0433   18.6539 C   0  0  0  0  0  0
  -29.4506  -18.5941   19.8307 C   0  0  0  0  0  0
  -29.3273  -17.1289   20.1157 C   0  0  0  0  0  0
  -29.2378  -23.7853   20.3977 C   0  0  0  0  0  0
  -29.0817  -20.3138   17.8882 C   0  0  0  0  0  0
  -29.3623  -19.6039   22.1427 C   0  0  0  0  0  0
  -31.5623  -19.2772   21.0071 C   0  0  0  0  0  0
  -28.0310  -24.8279   20.1598 C   0  0  0  0  0  0
  -30.1895  -21.3411   20.4545 C   0  0  0  0  0  0
  -30.0977  -19.7101   20.7931 C   0  0  0  0  0  0
  -30.1630  -16.1389   20.8655 N   0  0  0  0  0  0
  -29.0699  -22.3971   20.4493 N   0  0  0  0  0  0
  -30.3729  -24.2542   20.5052 O   0  0  0  0  0  0
  -31.4581  -12.6907   19.1552 H   0  0  0  0  0  0
  -30.4157  -11.6272   20.0420 H   0  0  0  0  0  0
  -29.8499  -11.7021   17.5704 H   0  0  0  0  0  0
  -29.5492  -13.4208   17.6930 H   0  0  0  0  0  0
  -28.0052  -11.1714   19.0462 H   0  0  0  0  0  0
  -27.3816  -12.2692   17.8390 H   0  0  0  0  0  0
  -27.5156  -14.0556   19.1995 H   0  0  0  0  0  0
  -28.7667  -12.3697   21.4961 H   0  0  0  0  0  0
  -28.3491  -14.0515   21.6807 H   0  0  0  0  0  0
  -25.2736   -9.5575   22.4825 H   0  0  0  0  0  0
  -23.9953   -7.4538   22.7507 H   0  0  0  0  0  0
  -21.0806   -8.8753   19.8966 H   0  0  0  0  0  0
  -22.3718  -10.9637   19.6207 H   0  0  0  0  0  0
  -21.1970   -7.6129   23.9716 H   0  0  0  0  0  0
  -21.1474   -6.0520   25.9091 H   0  0  0  0  0  0
  -22.0613   -2.7603   23.2853 H   0  0  0  0  0  0
  -22.3982  -11.9789   22.4880 H   0  0  0  0  0  0
  -21.1055  -13.1235   22.2699 H   0  0  0  0  0  0
  -24.5988  -15.7928   20.5411 H   0  0  0  0  0  0
  -26.2148  -15.6454   20.0860 H   0  0  0  0  0  0
  -26.7218  -32.5390   23.1054 H   0  0  0  0  0  0
  -25.0064  -33.9687   25.0377 H   0  0  0  0  0  0
  -22.7308  -31.2987   21.3946 H   0  0  0  0  0  0
  -23.3762  -35.9601   23.3296 H   0  0  0  0  0  0
  -24.3581  -36.8911   22.2057 H   0  0  0  0  0  0
  -23.7226  -37.6469   23.6671 H   0  0  0  0  0  0
  -26.1193  -31.5202   20.6079 H   0  0  0  0  0  0
  -26.8582  -30.8110   22.0116 H   0  0  0  0  0  0
  -28.1273  -28.9087   21.2039 H   0  0  0  0  0  0
  -25.9373  -25.8880   19.0177 H   0  0  0  0  0  0
  -23.9737  -27.3041   19.0059 H   0  0  0  0  0  0
  -23.7812  -30.5862   19.4043 H   0  0  0  0  0  0
  -22.7695  -29.2454   19.8513 H   0  0  0  0  0  0
  -25.1300  -36.1919   25.0816 H   0  0  0  0  0  0
  -20.9984  -28.3312   24.1382 H   0  0  0  0  0  0
  -20.5698  -26.2341   23.3625 H   0  0  0  0  0  0
  -21.6654  -26.7469   22.1200 H   0  0  0  0  0  0
  -19.6932  -25.6304   21.1254 H   0  0  0  0  0  0
  -19.6695  -27.3200   20.6739 H   0  0  0  0  0  0
  -17.4215  -26.6694   21.4019 H   0  0  0  0  0  0
  -18.0337  -26.0085   22.9017 H   0  0  0  0  0  0
  -19.7943  -30.7303   24.2242 H   0  0  0  0  0  0
  -17.5019  -31.6270   24.5190 H   0  0  0  0  0  0
  -15.5357  -30.2996   23.7665 H   0  0  0  0  0  0
  -15.8683  -28.0842   22.7052 H   0  0  0  0  0  0
  -24.5907  -30.7068   25.7737 H   0  0  0  0  0  0
  -24.8891  -32.2892   26.4827 H   0  0  0  0  0  0
  -25.8019  -30.8912   27.0216 H   0  0  0  0  0  0
  -26.2945  -29.6727   24.1240 H   0  0  0  0  0  0
  -27.4034  -29.7266   25.4741 H   0  0  0  0  0  0
  -27.8826  -30.4259   23.9466 H   0  0  0  0  0  0
  -27.2675  -33.3635   26.2042 H   0  0  0  0  0  0
  -28.3873  -32.6871   25.0306 H   0  0  0  0  0  0
  -28.0735  -31.8463   26.5410 H   0  0  0  0  0  0
  -28.2597  -38.0090   24.7526 H   0  0  0  0  0  0
  -28.1079  -36.2627   24.6279 H   0  0  0  0  0  0
  -27.2307  -37.1425   25.8868 H   0  0  0  0  0  0
  -20.9437  -29.8756   21.6810 H   0  0  0  0  0  0
  -26.0173  -38.2846   24.1418 H   0  0  0  0  0  0
  -26.4648  -16.5485   18.3038 H   0  0  0  0  0  0
  -27.1459  -18.6686   17.2494 H   0  0  0  0  0  0
  -27.8790  -15.6465   20.1651 H   0  0  0  0  0  0
  -28.7810  -20.2188   16.8443 H   0  0  0  0  0  0
  -30.1531  -20.4973   17.8512 H   0  0  0  0  0  0
  -28.5440  -21.1728   18.2805 H   0  0  0  0  0  0
  -29.4045  -18.5913   22.5467 H   0  0  0  0  0  0
  -28.3092  -19.8679   22.0386 H   0  0  0  0  0  0
  -29.7954  -20.2679   22.8922 H   0  0  0  0  0  0
  -31.6406  -18.2849   21.4459 H   0  0  0  0  0  0
  -32.0955  -19.9516   21.6777 H   0  0  0  0  0  0
  -32.1053  -19.2618   20.0612 H   0  0  0  0  0  0
  -27.2420  -24.5931   20.8764 H   0  0  0  0  0  0
  -27.6425  -24.5868   19.1713 H   0  0  0  0  0  0
  -30.7921  -21.5006   19.5634 H   0  0  0  0  0  0
  -30.8437  -21.7404   21.2307 H   0  0  0  0  0  0
  -30.9159  -16.6273   21.3266 H   0  0  0  0  0  0
  -28.1219  -22.0479   20.3987 H   0  0  0  0  0  0
  1 25  1  0  0  0
  1 30  2  0  0  0
  1 84  1  0  0  0
  2  3  1  0  0  0
  2 25  1  0  0  0
  2 87  1  0  0  0
  2 88  1  0  0  0
  3  4  1  0  0  0
  3 89  1  0  0  0
  3 90  1  0  0  0
  4  5  1  0  0  0
  4 91  1  0  0  0
  4 92  1  0  0  0
  5  6  1  0  0  0
  5 26  1  0  0  0
  5 93  1  0  0  0
  6 25  1  0  0  0
  6 94  1  0  0  0
  6 95  1  0  0  0
  7  8  2  0  0  0
  7 26  1  0  0  0
  7 29  1  0  0  0
  8  9  1  0  0  0
  8 22  1  0  0  0
  9 10  1  0  0  0
  9 27  2  0  0  0
 10 11  2  0  0  0
 10 15  1  0  0  0
 11 12  1  0  0  0
 11 96  1  0  0  0
 12 13  2  0  0  0
 12 97  1  0  0  0
 13 14  1  0  0  0
 13 31  1  0  0  0
 14 15  2  0  0  0
 14 98  1  0  0  0
 15 99  1  0  0  0
 16 17  2  0  0  0
 16 21  1  0  0  0
 16 31  1  0  0  0
 17 18  1  0  0  0
 17100  1  0  0  0
 18 19  2  0  0  0
 18101  1  0  0  0
 19 20  1  0  0  0
 19 24  1  0  0  0
 20 21  2  0  0  0
 20102  1  0  0  0
 21 23  1  0  0  0
 22 28  1  0  0  0
 22 32  2  0  0  0
 26 27  1  0  0  0
 28103  1  0  0  0
 28104  1  0  0  0
 29105  1  0  0  0
 29106  1  0  0  0
 33 34  1  0  0  0
 33 66  1  0  0  0
 33 70  2  0  0  0
 34 36  1  0  0  0
 34 59  1  0  0  0
 34107  1  0  0  0
 35 44  2  0  0  0
 35 45  1  0  0  0
 35 68  1  0  0  0
 36 56  1  0  0  0
 36108  1  0  0  0
 37 39  1  0  0  0
 37 47  1  0  0  0
 37 66  1  0  0  0
 37109  1  0  0  0
 38 43  2  0  0  0
 38 46  1  0  0  0
 38 47  1  0  0  0
 39 64  1  0  0  0
 39 67  2  0  0  0
 40 52  1  0  0  0
 40 53  2  0  0  0
 40 58  1  0  0  0
 41110  1  0  0  0
 41111  1  0  0  0
 41112  1  0  0  0
 41 48  1  0  0  0
 42 43  1  0  0  0
 42 66  1  0  0  0
 42113  1  0  0  0
 42114  1  0  0  0
 43 44  1  0  0  0
 44115  1  0  0  0
 45 46  2  0  0  0
 45116  1  0  0  0
 46117  1  0  0  0
 47118  1  0  0  0
 47119  1  0  0  0
 48 56  1  0  0  0
 48 65  1  0  0  0
 48120  1  0  0  0
 49 50  1  0  0  0
 49 53  1  0  0  0
 49 64  1  0  0  0
 49121  1  0  0  0
 50 51  1  0  0  0
 50122  1  0  0  0
 50123  1  0  0  0
 51 52  1  0  0  0
 51124  1  0  0  0
 51125  1  0  0  0
 52126  1  0  0  0
 52127  1  0  0  0
 53 54  1  0  0  0
 54 55  2  0  0  0
 54128  1  0  0  0
 55 57  1  0  0  0
 55129  1  0  0  0
 56 69  2  0  0  0
 57 58  2  0  0  0
 57130  1  0  0  0
 58131  1  0  0  0
 59 60  1  0  0  0
 59 61  1  0  0  0
 59 62  1  0  0  0
 60132  1  0  0  0
 60133  1  0  0  0
 60134  1  0  0  0
 61135  1  0  0  0
 61136  1  0  0  0
 61137  1  0  0  0
 62138  1  0  0  0
 62139  1  0  0  0
 62140  1  0  0  0
 63 65  1  0  0  0
 63141  1  0  0  0
 63142  1  0  0  0
 63143  1  0  0  0
 64144  1  0  0  0
 65145  1  0  0  0
 68 81  1  0  0  0
 71 72  2  0  0  0
 71 73  1  0  0  0
 71146  1  0  0  0
 72 74  1  0  0  0
 72147  1  0  0  0
 73 76  2  0  0  0
 73148  1  0  0  0
 74 75  2  0  0  0
 74 78  1  0  0  0
 75 76  1  0  0  0
 75 83  1  0  0  0
 76 84  1  0  0  0
 77 81  1  0  0  0
 77 85  1  0  0  0
 77 86  2  0  0  0
 78149  1  0  0  0
 78150  1  0  0  0
 78151  1  0  0  0
 79152  1  0  0  0
 79153  1  0  0  0
 79154  1  0  0  0
 79 83  1  0  0  0
 80 83  1  0  0  0
 80155  1  0  0  0
 80156  1  0  0  0
 80157  1  0  0  0
 81158  1  0  0  0
 81159  1  0  0  0
 82 83  1  0  0  0
 82 85  1  0  0  0
 82160  1  0  0  0
 82161  1  0  0  0
 84162  1  0  0  0
 85163  1  0  0  0
M  ISO  4   1 100  68 101  81 101  84 100
M  END
> <chiral flag>
0

> <version>
0

> <s_m_source_file>
/data/baiqing/PycharmProjects/Reinvent-master-3.2/result/LINK_invent/BTK/process_docking_weight1_custom_product_contain_oxygen_bond_distance_aromatic_linkinvent_7_9_3/rearranged_h_0040.sdf

> <i_m_source_file_index>
66

> <r_mmod_Potential_Energy-OPLS-2005>
469.872985839844

> <r_mmod_Stretch_Energy-OPLS-2005>
182.083999633789

> <r_mmod_Bend_Energy-OPLS-2005>
292.1044921875

> <r_mmod_Torsional_Energy-OPLS-2005>
332.494384765625

> <r_mmod_Improper_Torsional_Energy-OPLS-2005>
7.42459487915039

> <r_mmod_Van_der_Waal_Energy-OPLS-2005>
163.016006469727

> <r_mmod_Electrostatic_Energy-OPLS-2005>
-423.273620605469

> <r_mmod_Solvation_Energy-OPLS-2005>
-223.402099609375

> <b_mmod_Minimization_Converged-OPLS-2005>
0

> <r_mmod_RMS_Derivative-OPLS-2005>
2.16933679580688

$$$$
66
                    3D
 Structure written by MMmdl.
163171  0  0  1  0            999 V2000
  -30.7258  -14.4312   20.6699 C   0  0  0  0  0  0
  -30.4294  -12.3161   19.4163 C   0  0  0  0  0  0
  -29.4936  -12.5111   18.2065 C   0  0  0  0  0  0
  -28.0179  -12.3584   18.6234 C   0  0  0  0  0  0
  -27.6651  -13.2001   19.8773 C   0  0  2  0  0  0
  -28.7007  -12.9578   20.9979 C   0  0  0  0  0  0
  -25.2608  -13.8143   20.5685 C   0  0  0  0  0  0
  -24.1836  -13.0444   20.9154 C   0  0  0  0  0  0
  -24.6366  -11.6900   20.8694 C   0  0  0  0  0  0
  -23.9023  -10.4282   21.0366 C   0  0  0  0  0  0
  -24.3580   -9.4206   21.9154 C   0  0  0  0  0  0
  -23.6258   -8.2244   22.0742 C   0  0  0  0  0  0
  -22.4236   -8.0270   21.3551 C   0  0  0  0  0  0
  -21.9854   -9.0245   20.4667 C   0  0  0  0  0  0
  -22.7180  -10.2121   20.3048 C   0  0  0  0  0  0
  -21.6854   -6.0713   22.5271 C   0  0  0  0  0  0
  -21.4025   -6.5617   23.8206 C   0  0  0  0  0  0
  -21.3655   -5.6771   24.9167 C   0  0  0  0  0  0
  -21.6041   -4.3035   24.7223 C   0  0  0  0  0  0
  -21.8817   -3.8129   23.4340 C   0  0  0  0  0  0
  -21.9196   -4.6939   22.3399 C   0  0  0  0  0  0
  -22.7857  -13.5265   21.1822 C   0  0  0  0  0  0
  -22.1657   -4.2129   21.0973 F   0  0  0  0  0  0
  -21.5621   -3.4524   25.7735 F   0  0  0  0  0  0
  -30.0416  -13.2707   20.4665 N   0  0  0  0  0  0
  -26.3035  -12.9295   20.3358 N   0  0  0  0  0  0
  -25.9291  -11.6459   20.5728 N   0  0  0  0  0  0
  -22.0490  -12.8287   22.0401 N   0  0  0  0  0  0
  -25.4369  -15.1846   20.4112 N   0  0  0  0  0  0
  -31.7686  -14.7081   20.0679 O   0  0  0  0  0  0
  -21.6631   -6.8853   21.4232 O   0  0  0  0  0  0
  -22.3551  -14.5571   20.6657 O   0  0  0  0  0  0
  -24.6139  -31.8675   23.2124 C   0  0  0  0  0  0
  -25.9028  -32.4819   23.8400 C   0  0  1  0  0  0
  -27.2279  -27.4432   20.0717 C   0  0  0  0  0  0
  -25.5874  -33.8621   24.2302 N   0  0  0  0  0  0
  -23.4020  -30.4947   21.5533 C   0  0  2  0  0  0
  -24.8457  -28.9659   20.1119 C   0  0  0  0  0  0
  -22.7413  -29.4658   22.4979 C   0  0  0  0  0  0
  -18.0276  -28.1400   22.8483 C   0  0  0  0  0  0
  -24.1480  -36.7322   23.2648 C   0  0  0  0  0  0
  -25.9351  -30.8281   21.3746 C   0  0  0  0  0  0
  -26.0086  -29.4690   20.7094 C   0  0  0  0  0  0
  -27.2047  -28.7149   20.6872 C   0  0  0  0  0  0
  -26.0508  -26.9594   19.4599 C   0  0  0  0  0  0
  -24.8605  -27.7088   19.4850 C   0  0  0  0  0  0
  -23.6092  -29.8336   20.1660 C   0  0  0  0  0  0
  -25.4096  -36.3097   24.0338 C   0  0  1  0  0  0
  -20.5872  -28.3673   23.1317 C   0  0  2  0  0  0
  -20.6751  -26.9387   22.5462 C   0  0  0  0  0  0
  -19.5750  -26.6383   21.5233 C   0  0  0  0  0  0
  -18.1913  -26.7959   22.1596 C   0  0  0  0  0  0
  -19.1536  -28.8851   23.2897 C   0  0  0  0  0  0
  -18.9456  -30.1462   23.8904 C   0  0  0  0  0  0
  -17.6460  -30.6592   24.0583 C   0  0  0  0  0  0
  -25.9035  -34.9473   23.5118 C   0  0  0  0  0  0
  -16.5341  -29.9091   23.6348 C   0  0  0  0  0  0
  -16.7275  -28.6519   23.0338 C   0  0  0  0  0  0
  -26.4472  -31.6640   25.0752 C   0  0  0  0  0  0
  -25.3759  -31.3833   26.1546 C   0  0  0  0  0  0
  -27.0280  -30.3040   24.6214 C   0  0  0  0  0  0
  -27.6064  -32.4405   25.7441 C   0  0  0  0  0  0
  -27.5595  -37.1774   24.8432 C   0  0  0  0  0  0
  -21.4140  -29.3018   22.3710 N   0  0  0  0  0  0
  -26.4270  -37.3786   23.9433 N   0  0  0  0  0  0
  -24.6678  -31.0777   22.1028 N   0  0  0  0  0  0
  -23.4180  -28.8197   23.3029 O   0  0  0  0  0  0
  -28.3835  -26.6918   20.0458 O   0  0  0  0  0  0
  -26.5620  -34.8922   22.4696 O   0  0  0  0  0  0
  -23.5325  -32.1438   23.7509 O   0  0  0  0  0  0
  -31.1277  -19.2657   22.6154 C   0  0  0  0  0  0
  -30.7147  -17.5679   20.9213 C   0  0  0  0  0  0
  -30.9819  -18.9147   21.2597 C   0  0  0  0  0  0
  -30.9379  -18.3110   23.6338 C   0  0  0  0  0  0
  -30.6287  -16.9675   23.2982 C   0  0  0  0  0  0
  -30.5470  -16.5855   21.9306 C   0  0  0  0  0  0
  -29.0052  -23.1505   19.6981 C   0  0  0  0  0  0
  -29.2924  -24.3932   20.1347 C   0  0  0  0  0  0
  -31.0629  -18.7677   25.0794 C   0  0  0  0  0  0
  -30.3714  -15.9506   24.4076 C   0  0  0  0  0  0
  -31.1037  -20.0003   20.1905 C   0  0  0  0  0  0
  -30.0240  -22.0877   19.3109 C   0  0  0  0  0  0
  -28.2465  -25.3853   20.6193 C   0  0  0  0  0  0
  -30.1887  -15.2466   21.5969 N   0  0  0  0  0  0
  -30.0262  -21.0066   20.3241 N   0  3  0  0  0  0
  -31.4711  -12.4345   19.1110 H   0  0  0  0  0  0
  -30.3485  -11.3003   19.8032 H   0  0  0  0  0  0
  -29.7355  -11.7859   17.4286 H   0  0  0  0  0  0
  -29.6558  -13.4953   17.7675 H   0  0  0  0  0  0
  -27.8383  -11.3033   18.8302 H   0  0  0  0  0  0
  -27.3625  -12.6212   17.7919 H   0  0  0  0  0  0
  -27.7189  -14.2487   19.5851 H   0  0  0  0  0  0
  -28.6753  -11.9132   21.3118 H   0  0  0  0  0  0
  -28.4347  -13.5273   21.8886 H   0  0  0  0  0  0
  -25.2721   -9.5682   22.4734 H   0  0  0  0  0  0
  -23.9975   -7.4629   22.7450 H   0  0  0  0  0  0
  -21.0784   -8.8759   19.8988 H   0  0  0  0  0  0
  -22.3616  -10.9653   19.6166 H   0  0  0  0  0  0
  -21.2024   -7.6126   23.9697 H   0  0  0  0  0  0
  -21.1473   -6.0505   25.9070 H   0  0  0  0  0  0
  -22.0600   -2.7592   23.2851 H   0  0  0  0  0  0
  -22.4078  -11.9966   22.4837 H   0  0  0  0  0  0
  -21.1130  -13.1366   22.2629 H   0  0  0  0  0  0
  -24.6816  -15.8507   20.5312 H   0  0  0  0  0  0
  -26.3035  -15.6183   20.1165 H   0  0  0  0  0  0
  -26.7096  -32.5513   23.1154 H   0  0  0  0  0  0
  -24.9965  -33.9780   25.0403 H   0  0  0  0  0  0
  -22.6911  -31.3126   21.4182 H   0  0  0  0  0  0
  -23.3734  -35.9658   23.3280 H   0  0  0  0  0  0
  -24.3586  -36.8987   22.2072 H   0  0  0  0  0  0
  -23.7239  -37.6515   23.6701 H   0  0  0  0  0  0
  -26.0703  -31.6020   20.6180 H   0  0  0  0  0  0
  -26.8117  -30.8581   22.0097 H   0  0  0  0  0  0
  -28.1033  -29.0980   21.1500 H   0  0  0  0  0  0
  -26.0467  -26.0072   18.9480 H   0  0  0  0  0  0
  -23.9685  -27.3215   19.0117 H   0  0  0  0  0  0
  -23.7158  -30.6121   19.4094 H   0  0  0  0  0  0
  -22.7312  -29.2567   19.8710 H   0  0  0  0  0  0
  -25.1261  -36.1948   25.0826 H   0  0  0  0  0  0
  -20.9975  -28.3269   24.1432 H   0  0  0  0  0  0
  -20.5620  -26.2281   23.3665 H   0  0  0  0  0  0
  -21.6634  -26.7402   22.1287 H   0  0  0  0  0  0
  -19.6900  -25.6291   21.1267 H   0  0  0  0  0  0
  -19.6734  -27.3195   20.6767 H   0  0  0  0  0  0
  -17.4214  -26.6781   21.3953 H   0  0  0  0  0  0
  -18.0233  -26.0087   22.8957 H   0  0  0  0  0  0
  -19.7934  -30.7293   24.2255 H   0  0  0  0  0  0
  -17.5011  -31.6272   24.5189 H   0  0  0  0  0  0
  -15.5340  -30.2983   23.7688 H   0  0  0  0  0  0
  -15.8675  -28.0856   22.7014 H   0  0  0  0  0  0
  -24.5882  -30.7196   25.7963 H   0  0  0  0  0  0
  -24.9006  -32.3029   26.4967 H   0  0  0  0  0  0
  -25.8130  -30.9058   27.0318 H   0  0  0  0  0  0
  -26.2808  -29.6798   24.1291 H   0  0  0  0  0  0
  -27.3996  -29.7317   25.4725 H   0  0  0  0  0  0
  -27.8692  -30.4289   23.9392 H   0  0  0  0  0  0
  -27.2648  -33.3642   26.2117 H   0  0  0  0  0  0
  -28.3743  -32.7097   25.0182 H   0  0  0  0  0  0
  -28.0889  -31.8526   26.5251 H   0  0  0  0  0  0
  -28.2578  -38.0100   24.7508 H   0  0  0  0  0  0
  -28.1107  -36.2638   24.6147 H   0  0  0  0  0  0
  -27.2366  -37.1341   25.8846 H   0  0  0  0  0  0
  -20.9295  -29.8723   21.6919 H   0  0  0  0  0  0
  -26.0156  -38.2852   24.1474 H   0  0  0  0  0  0
  -31.3656  -20.2873   22.8824 H   0  0  0  0  0  0
  -30.6125  -17.2912   19.8811 H   0  0  0  0  0  0
  -27.9704  -22.8466   19.6329 H   0  0  0  0  0  0
  -30.3216  -24.7182   20.1916 H   0  0  0  0  0  0
  -31.2480  -19.8408   25.1439 H   0  0  0  0  0  0
  -31.8924  -18.2631   25.5750 H   0  0  0  0  0  0
  -30.1493  -18.5590   25.6365 H   0  0  0  0  0  0
  -31.0035  -16.1299   25.2764 H   0  0  0  0  0  0
  -30.5736  -14.9272   24.0946 H   0  0  0  0  0  0
  -29.3310  -16.0059   24.7322 H   0  0  0  0  0  0
  -31.0739  -19.5555   19.1954 H   0  0  0  0  0  0
  -32.0746  -20.4875   20.2916 H   0  0  0  0  0  0
  -31.0157  -22.5352   19.2306 H   0  0  0  0  0  0
  -29.7724  -21.6783   18.3312 H   0  0  0  0  0  0
  -28.3669  -25.4856   21.6981 H   0  0  0  0  0  0
  -27.2604  -24.9459   20.4660 H   0  0  0  0  0  0
  -29.4422  -14.8383   22.1367 H   0  0  0  0  0  0
  -30.1101  -21.4344   21.2310 H   0  0  0  0  0  0
  -29.1426  -20.5258   20.2967 H   0  0  0  0  0  0
  1 25  1  0  0  0
  1 30  2  0  0  0
  1 84  1  0  0  0
  2  3  1  0  0  0
  2 25  1  0  0  0
  2 86  1  0  0  0
  2 87  1  0  0  0
  3  4  1  0  0  0
  3 88  1  0  0  0
  3 89  1  0  0  0
  4  5  1  0  0  0
  4 90  1  0  0  0
  4 91  1  0  0  0
  5  6  1  0  0  0
  5 26  1  0  0  0
  5 92  1  0  0  0
  6 25  1  0  0  0
  6 93  1  0  0  0
  6 94  1  0  0  0
  7  8  2  0  0  0
  7 26  1  0  0  0
  7 29  1  0  0  0
  8  9  1  0  0  0
  8 22  1  0  0  0
  9 10  1  0  0  0
  9 27  2  0  0  0
 10 11  2  0  0  0
 10 15  1  0  0  0
 11 12  1  0  0  0
 11 95  1  0  0  0
 12 13  2  0  0  0
 12 96  1  0  0  0
 13 14  1  0  0  0
 13 31  1  0  0  0
 14 15  2  0  0  0
 14 97  1  0  0  0
 15 98  1  0  0  0
 16 17  2  0  0  0
 16 21  1  0  0  0
 16 31  1  0  0  0
 17 18  1  0  0  0
 17 99  1  0  0  0
 18 19  2  0  0  0
 18100  1  0  0  0
 19 20  1  0  0  0
 19 24  1  0  0  0
 20 21  2  0  0  0
 20101  1  0  0  0
 21 23  1  0  0  0
 22 28  1  0  0  0
 22 32  2  0  0  0
 26 27  1  0  0  0
 28102  1  0  0  0
 28103  1  0  0  0
 29104  1  0  0  0
 29105  1  0  0  0
 33 34  1  0  0  0
 33 66  1  0  0  0
 33 70  2  0  0  0
 34 36  1  0  0  0
 34 59  1  0  0  0
 34106  1  0  0  0
 35 44  2  0  0  0
 35 45  1  0  0  0
 35 68  1  0  0  0
 36 56  1  0  0  0
 36107  1  0  0  0
 37 39  1  0  0  0
 37 47  1  0  0  0
 37 66  1  0  0  0
 37108  1  0  0  0
 38 43  2  0  0  0
 38 46  1  0  0  0
 38 47  1  0  0  0
 39 64  1  0  0  0
 39 67  2  0  0  0
 40 52  1  0  0  0
 40 53  2  0  0  0
 40 58  1  0  0  0
 41109  1  0  0  0
 41110  1  0  0  0
 41111  1  0  0  0
 41 48  1  0  0  0
 42 43  1  0  0  0
 42 66  1  0  0  0
 42112  1  0  0  0
 42113  1  0  0  0
 43 44  1  0  0  0
 44114  1  0  0  0
 45 46  2  0  0  0
 45115  1  0  0  0
 46116  1  0  0  0
 47117  1  0  0  0
 47118  1  0  0  0
 48 56  1  0  0  0
 48 65  1  0  0  0
 48119  1  0  0  0
 49 50  1  0  0  0
 49 53  1  0  0  0
 49 64  1  0  0  0
 49120  1  0  0  0
 50 51  1  0  0  0
 50121  1  0  0  0
 50122  1  0  0  0
 51 52  1  0  0  0
 51123  1  0  0  0
 51124  1  0  0  0
 52125  1  0  0  0
 52126  1  0  0  0
 53 54  1  0  0  0
 54 55  2  0  0  0
 54127  1  0  0  0
 55 57  1  0  0  0
 55128  1  0  0  0
 56 69  2  0  0  0
 57 58  2  0  0  0
 57129  1  0  0  0
 58130  1  0  0  0
 59 60  1  0  0  0
 59 61  1  0  0  0
 59 62  1  0  0  0
 60131  1  0  0  0
 60132  1  0  0  0
 60133  1  0  0  0
 61134  1  0  0  0
 61135  1  0  0  0
 61136  1  0  0  0
 62137  1  0  0  0
 62138  1  0  0  0
 62139  1  0  0  0
 63 65  1  0  0  0
 63140  1  0  0  0
 63141  1  0  0  0
 63142  1  0  0  0
 64143  1  0  0  0
 65144  1  0  0  0
 68 83  1  0  0  0
 71 73  2  0  0  0
 71 74  1  0  0  0
 71145  1  0  0  0
 72 73  1  0  0  0
 72 76  2  0  0  0
 72146  1  0  0  0
 73 81  1  0  0  0
 74 75  2  0  0  0
 74 79  1  0  0  0
 75 76  1  0  0  0
 75 80  1  0  0  0
 76 84  1  0  0  0
 77 78  2  0  0  0
 77 82  1  0  0  0
 77147  1  0  0  0
 78 83  1  0  0  0
 78148  1  0  0  0
 79149  1  0  0  0
 79150  1  0  0  0
 79151  1  0  0  0
 80152  1  0  0  0
 80153  1  0  0  0
 80154  1  0  0  0
 81 85  1  0  0  0
 81155  1  0  0  0
 81156  1  0  0  0
 82 85  1  0  0  0
 82157  1  0  0  0
 82158  1  0  0  0
 83159  1  0  0  0
 83160  1  0  0  0
 84161  1  0  0  0
 85162  1  0  0  0
 85163  1  0  0  0
M  CHG  1  85   1
M  ISO  4   1 100  68 101  83 101  84 100
M  END
> <chiral flag>
0

> <version>
0

> <s_m_source_file>
/data/baiqing/PycharmProjects/Reinvent-master-3.2/result/LINK_invent/BTK/process_docking_weight1_custom_product_contain_oxygen_bond_distance_aromatic_linkinvent_7_9_3/rearranged_h_0040.sdf

> <i_m_source_file_index>
67

> <r_mmod_Potential_Energy-OPLS-2005>
-290.401794433594

> <r_mmod_Stretch_Energy-OPLS-2005>
35.941333770752

> <r_mmod_Bend_Energy-OPLS-2005>
87.8189163208008

> <r_mmod_Torsional_Energy-OPLS-2005>
217.443542480469

> <r_mmod_Improper_Torsional_Energy-OPLS-2005>
2.3482084274292

> <r_mmod_Van_der_Waal_Energy-OPLS-2005>
157.338012695312

> <r_mmod_Electrostatic_Energy-OPLS-2005>
-345.187286376953

> <r_mmod_Solvation_Energy-OPLS-2005>
-456.727416992188

> <b_mmod_Minimization_Converged-OPLS-2005>
0

> <r_mmod_RMS_Derivative-OPLS-2005>
2.885089635849

$$$$
67
                    3D
 Structure written by MMmdl.
184194  0  0  1  0            999 V2000
  -30.5549  -14.7301   20.4357 C   0  0  0  0  0  0
  -30.4366  -12.4502   19.4403 C   0  0  0  0  0  0
  -29.5074  -12.5261   18.2097 C   0  0  0  0  0  0
  -28.0199  -12.3812   18.6081 C   0  0  0  0  0  0
  -27.6280  -13.2412   19.8394 C   0  0  2  0  0  0
  -28.6756  -13.1293   20.9671 C   0  0  0  0  0  0
  -25.2431  -13.8097   20.5940 C   0  0  0  0  0  0
  -24.1705  -13.0330   20.9252 C   0  0  0  0  0  0
  -24.6343  -11.6854   20.8642 C   0  0  0  0  0  0
  -23.9041  -10.4227   21.0268 C   0  0  0  0  0  0
  -24.3547   -9.4164   21.9067 C   0  0  0  0  0  0
  -23.6178   -8.2224   22.0659 C   0  0  0  0  0  0
  -22.4149   -8.0269   21.3465 C   0  0  0  0  0  0
  -21.9858   -9.0237   20.4497 C   0  0  0  0  0  0
  -22.7220  -10.2099   20.2902 C   0  0  0  0  0  0
  -21.6861   -6.0723   22.5273 C   0  0  0  0  0  0
  -21.4057   -6.5621   23.8214 C   0  0  0  0  0  0
  -21.3632   -5.6760   24.9179 C   0  0  0  0  0  0
  -21.6000   -4.3009   24.7212 C   0  0  0  0  0  0
  -21.8868   -3.8145   23.4346 C   0  0  0  0  0  0
  -21.9247   -4.6963   22.3415 C   0  0  0  0  0  0
  -22.7721  -13.5126   21.1884 C   0  0  0  0  0  0
  -22.1675   -4.2158   21.0979 F   0  0  0  0  0  0
  -21.5568   -3.4457   25.7692 F   0  0  0  0  0  0
  -29.9809  -13.4854   20.3888 N   0  0  0  0  0  0
  -26.2827  -12.9385   20.3183 N   0  0  0  0  0  0
  -25.9258  -11.6505   20.5514 N   0  0  0  0  0  0
  -22.0235  -12.8006   22.0220 N   0  0  0  0  0  0
  -25.4081  -15.1779   20.4941 N   0  0  0  0  0  0
  -31.7588  -14.8817   20.2027 O   0  0  0  0  0  0
  -21.6565   -6.8832   21.4210 O   0  0  0  0  0  0
  -22.3471  -14.5532   20.6838 O   0  0  0  0  0  0
  -24.6250  -31.8544   23.2001 C   0  0  0  0  0  0
  -25.9114  -32.4715   23.8314 C   0  0  1  0  0  0
  -27.2611  -27.3331   20.1435 C   0  0  0  0  0  0
  -25.5913  -33.8507   24.2255 N   0  0  0  0  0  0
  -23.4209  -30.4689   21.5429 C   0  0  2  0  0  0
  -24.8787  -28.9254   20.1097 C   0  0  0  0  0  0
  -22.7507  -29.4544   22.4989 C   0  0  0  0  0  0
  -18.0272  -28.1409   22.8472 C   0  0  0  0  0  0
  -24.1479  -36.7263   23.2635 C   0  0  0  0  0  0
  -25.9540  -30.7970   21.3667 C   0  0  0  0  0  0
  -26.0371  -29.4208   20.7201 C   0  0  0  0  0  0
  -27.2235  -28.6344   20.7292 C   0  0  0  0  0  0
  -26.0809  -26.8822   19.4997 C   0  0  0  0  0  0
  -24.9038  -27.6641   19.4865 C   0  0  0  0  0  0
  -23.6374  -29.7939   20.1598 C   0  0  0  0  0  0
  -25.4072  -36.3012   24.0335 C   0  0  1  0  0  0
  -20.5869  -28.3660   23.1347 C   0  0  2  0  0  0
  -20.6740  -26.9392   22.5443 C   0  0  0  0  0  0
  -19.5728  -26.6397   21.5221 C   0  0  0  0  0  0
  -18.1889  -26.7955   22.1608 C   0  0  0  0  0  0
  -19.1526  -28.8861   23.2886 C   0  0  0  0  0  0
  -18.9411  -30.1473   23.8864 C   0  0  0  0  0  0
  -17.6406  -30.6590   24.0556 C   0  0  0  0  0  0
  -25.9007  -34.9404   23.5079 C   0  0  0  0  0  0
  -16.5307  -29.9062   23.6369 C   0  0  0  0  0  0
  -16.7259  -28.6526   23.0326 C   0  0  0  0  0  0
  -26.4518  -31.6495   25.0664 C   0  0  0  0  0  0
  -25.3743  -31.3687   26.1390 C   0  0  0  0  0  0
  -27.0315  -30.2884   24.6098 C   0  0  0  0  0  0
  -27.6064  -32.4241   25.7451 C   0  0  0  0  0  0
  -27.5566  -37.1761   24.8439 C   0  0  0  0  0  0
  -21.4218  -29.2989   22.3762 N   0  0  0  0  0  0
  -26.4240  -37.3713   23.9440 N   0  0  0  0  0  0
  -24.6839  -31.0565   22.0941 N   0  0  0  0  0  0
  -23.4236  -28.8073   23.3057 O   0  0  0  0  0  0
  -28.4275  -26.5569   20.2449 O   0  0  0  0  0  0
  -26.5585  -34.8901   22.4643 O   0  0  0  0  0  0
  -23.5433  -32.1317   23.7337 O   0  0  0  0  0  0
  -30.6595  -17.9403   21.3402 C   0  0  0  0  0  0
  -28.7879  -18.0851   19.8209 C   0  0  0  0  0  0
  -30.6009  -19.3546   21.5787 C   0  0  0  0  0  0
  -28.7116  -19.5094   20.0675 C   0  0  0  0  0  0
  -29.6101  -20.1882   20.9541 C   0  0  0  0  0  0
  -29.7491  -17.2554   20.4928 C   0  0  0  0  0  0
  -26.5145  -17.5578   18.9861 C   0  0  0  0  0  0
  -27.8546  -17.5022   18.8043 C   0  0  0  0  0  0
  -30.1826  -22.7466   19.0876 C   0  0  0  0  0  0
  -31.3327  -22.2250   18.6115 C   0  0  0  0  0  0
  -25.4619  -17.2029   17.9407 C   0  0  0  0  0  0
  -28.4127  -17.0326   17.4587 C   0  0  0  0  0  0
  -29.1194  -23.4175   18.2171 C   0  0  0  0  0  0
  -26.0432  -16.3683   16.7929 C   0  0  0  0  0  0
  -27.3679  -16.9667   16.3218 C   0  0  0  0  0  0
  -28.8941  -24.8942   18.5646 C   0  0  0  0  0  0
  -29.4540  -24.2995   20.9750 C   0  0  0  0  0  0
  -28.4593  -25.0954   20.0217 C   0  0  1  0  0  0
  -31.5953  -19.8970   22.6043 C   0  0  0  0  0  0
  -27.5897  -20.3157   19.4091 C   0  0  0  0  0  0
  -32.4880  -21.6615   19.4163 C   0  0  0  0  0  0
  -29.3687  -21.7169   21.3611 C   0  0  0  0  0  0
  -29.6628  -15.7792   20.4324 N   0  0  0  0  0  0
  -29.9171  -22.8989   20.5596 N   0  3  1  0  0  0
  -31.4772  -12.5933   19.1400 H   0  0  0  0  0  0
  -30.3801  -11.4594   19.8973 H   0  0  0  0  0  0
  -29.7762  -11.7534   17.4843 H   0  0  0  0  0  0
  -29.6613  -13.4828   17.7052 H   0  0  0  0  0  0
  -27.8292  -11.3287   18.8162 H   0  0  0  0  0  0
  -27.3829  -12.6429   17.7600 H   0  0  0  0  0  0
  -27.6129  -14.2746   19.4860 H   0  0  0  0  0  0
  -28.7043  -12.1175   21.3754 H   0  0  0  0  0  0
  -28.4161  -13.7859   21.7995 H   0  0  0  0  0  0
  -25.2686   -9.5610   22.4647 H   0  0  0  0  0  0
  -23.9846   -7.4596   22.7358 H   0  0  0  0  0  0
  -21.0871   -8.8752   19.8671 H   0  0  0  0  0  0
  -22.3729  -10.9627   19.5944 H   0  0  0  0  0  0
  -21.2055   -7.6107   23.9697 H   0  0  0  0  0  0
  -21.1400   -6.0475   25.9056 H   0  0  0  0  0  0
  -22.0683   -2.7627   23.2851 H   0  0  0  0  0  0
  -22.3743  -11.9547   22.4487 H   0  0  0  0  0  0
  -21.0680  -13.0841   22.2027 H   0  0  0  0  0  0
  -24.6217  -15.8015   20.6382 H   0  0  0  0  0  0
  -26.2022  -15.6330   20.0615 H   0  0  0  0  0  0
  -26.7170  -32.5457   23.1072 H   0  0  0  0  0  0
  -25.0134  -33.9613   25.0455 H   0  0  0  0  0  0
  -22.7078  -31.2825   21.3984 H   0  0  0  0  0  0
  -23.3732  -35.9602   23.3228 H   0  0  0  0  0  0
  -24.3615  -36.8923   22.2064 H   0  0  0  0  0  0
  -23.7242  -37.6447   23.6700 H   0  0  0  0  0  0
  -26.0645  -31.5551   20.5910 H   0  0  0  0  0  0
  -26.8385  -30.8599   21.9872 H   0  0  0  0  0  0
  -28.1080  -29.0046   21.2255 H   0  0  0  0  0  0
  -26.0482  -25.9177   19.0144 H   0  0  0  0  0  0
  -24.0205  -27.2837   18.9952 H   0  0  0  0  0  0
  -23.7396  -30.5577   19.3891 H   0  0  0  0  0  0
  -22.7644  -29.2029   19.8802 H   0  0  0  0  0  0
  -25.1246  -36.1795   25.0819 H   0  0  0  0  0  0
  -20.9913  -28.3196   24.1500 H   0  0  0  0  0  0
  -20.5622  -26.2246   23.3617 H   0  0  0  0  0  0
  -21.6604  -26.7432   22.1256 H   0  0  0  0  0  0
  -19.6858  -25.6303   21.1262 H   0  0  0  0  0  0
  -19.6696  -27.3208   20.6748 H   0  0  0  0  0  0
  -17.4192  -26.6761   21.3973 H   0  0  0  0  0  0
  -18.0235  -26.0122   22.9027 H   0  0  0  0  0  0
  -19.7859  -30.7316   24.2228 H   0  0  0  0  0  0
  -17.4931  -31.6271   24.5143 H   0  0  0  0  0  0
  -15.5276  -30.2887   23.7740 H   0  0  0  0  0  0
  -15.8695  -28.0822   22.7002 H   0  0  0  0  0  0
  -24.6048  -30.6829   25.7842 H   0  0  0  0  0  0
  -24.8787  -32.2845   26.4597 H   0  0  0  0  0  0
  -25.8093  -30.9136   27.0280 H   0  0  0  0  0  0
  -26.2859  -29.6652   24.1145 H   0  0  0  0  0  0
  -27.3999  -29.7104   25.4580 H   0  0  0  0  0  0
  -27.8734  -30.4114   23.9284 H   0  0  0  0  0  0
  -27.2666  -33.3602   26.1896 H   0  0  0  0  0  0
  -28.3949  -32.6661   25.0319 H   0  0  0  0  0  0
  -28.0624  -31.8420   26.5466 H   0  0  0  0  0  0
  -28.2503  -38.0136   24.7514 H   0  0  0  0  0  0
  -28.1127  -36.2648   24.6150 H   0  0  0  0  0  0
  -27.2340  -37.1284   25.8860 H   0  0  0  0  0  0
  -20.9423  -29.8668   21.6922 H   0  0  0  0  0  0
  -26.0091  -38.2768   24.1457 H   0  0  0  0  0  0
  -31.3941  -17.3645   21.8828 H   0  0  0  0  0  0
  -26.1201  -17.9505   19.9152 H   0  0  0  0  0  0
  -31.4823  -22.2057   17.5428 H   0  0  0  0  0  0
  -25.0552  -18.1363   17.5493 H   0  0  0  0  0  0
  -24.6190  -16.6848   18.3984 H   0  0  0  0  0  0
  -28.8952  -16.0651   17.5960 H   0  0  0  0  0  0
  -29.1890  -17.7287   17.1434 H   0  0  0  0  0  0
  -28.1747  -22.8912   18.2657 H   0  0  0  0  0  0
  -29.4274  -23.3402   17.1742 H   0  0  0  0  0  0
  -25.3283  -16.3032   15.9707 H   0  0  0  0  0  0
  -26.2148  -15.3466   17.1344 H   0  0  0  0  0  0
  -27.7598  -16.3882   15.4826 H   0  0  0  0  0  0
  -27.1822  -17.9732   15.9321 H   0  0  0  0  0  0
  -28.1414  -25.3162   17.8958 H   0  0  0  0  0  0
  -29.8134  -25.4534   18.3804 H   0  0  0  0  0  0
  -29.0791  -24.2906   21.9991 H   0  0  0  0  0  0
  -30.3721  -24.8856   21.0157 H   0  0  0  0  0  0
  -27.4676  -24.6665   20.1692 H   0  0  0  0  0  0
  -32.5879  -19.4825   22.4263 H   0  0  0  0  0  0
  -31.2988  -19.6165   23.6180 H   0  0  0  0  0  0
  -31.7175  -20.9747   22.5790 H   0  0  0  0  0  0
  -27.5454  -20.1323   18.3357 H   0  0  0  0  0  0
  -27.6631  -21.3837   19.5432 H   0  0  0  0  0  0
  -26.6305  -20.0526   19.8494 H   0  0  0  0  0  0
  -32.3554  -21.7738   20.4877 H   0  0  0  0  0  0
  -33.4193  -22.1627   19.1448 H   0  0  0  0  0  0
  -32.6055  -20.6001   19.1908 H   0  0  0  0  0  0
  -29.7347  -21.8557   22.3780 H   0  0  0  0  0  0
  -28.3022  -21.8728   21.5025 H   0  0  0  0  0  0
  -28.7143  -15.4498   20.3388 H   0  0  0  0  0  0
  -30.8441  -22.9125   20.9579 H   0  0  0  0  0  0
  1 25  1  0  0  0
  1 30  2  0  0  0
  1 93  1  0  0  0
  2  3  1  0  0  0
  2 25  1  0  0  0
  2 95  1  0  0  0
  2 96  1  0  0  0
  3  4  1  0  0  0
  3 97  1  0  0  0
  3 98  1  0  0  0
  4  5  1  0  0  0
  4 99  1  0  0  0
  4100  1  0  0  0
  5  6  1  0  0  0
  5 26  1  0  0  0
  5101  1  0  0  0
  6 25  1  0  0  0
  6102  1  0  0  0
  6103  1  0  0  0
  7  8  2  0  0  0
  7 26  1  0  0  0
  7 29  1  0  0  0
  8  9  1  0  0  0
  8 22  1  0  0  0
  9 10  1  0  0  0
  9 27  2  0  0  0
 10 11  2  0  0  0
 10 15  1  0  0  0
 11 12  1  0  0  0
 11104  1  0  0  0
 12 13  2  0  0  0
 12105  1  0  0  0
 13 14  1  0  0  0
 13 31  1  0  0  0
 14 15  2  0  0  0
 14106  1  0  0  0
 15107  1  0  0  0
 16 17  2  0  0  0
 16 21  1  0  0  0
 16 31  1  0  0  0
 17 18  1  0  0  0
 17108  1  0  0  0
 18 19  2  0  0  0
 18109  1  0  0  0
 19 20  1  0  0  0
 19 24  1  0  0  0
 20 21  2  0  0  0
 20110  1  0  0  0
 21 23  1  0  0  0
 22 28  1  0  0  0
 22 32  2  0  0  0
 26 27  1  0  0  0
 28111  1  0  0  0
 28112  1  0  0  0
 29113  1  0  0  0
 29114  1  0  0  0
 33 34  1  0  0  0
 33 66  1  0  0  0
 33 70  2  0  0  0
 34 36  1  0  0  0
 34 59  1  0  0  0
 34115  1  0  0  0
 35 44  2  0  0  0
 35 45  1  0  0  0
 35 68  1  0  0  0
 36 56  1  0  0  0
 36116  1  0  0  0
 37 39  1  0  0  0
 37 47  1  0  0  0
 37 66  1  0  0  0
 37117  1  0  0  0
 38 43  2  0  0  0
 38 46  1  0  0  0
 38 47  1  0  0  0
 39 64  1  0  0  0
 39 67  2  0  0  0
 40 52  1  0  0  0
 40 53  2  0  0  0
 40 58  1  0  0  0
 41118  1  0  0  0
 41119  1  0  0  0
 41120  1  0  0  0
 41 48  1  0  0  0
 42 43  1  0  0  0
 42 66  1  0  0  0
 42121  1  0  0  0
 42122  1  0  0  0
 43 44  1  0  0  0
 44123  1  0  0  0
 45 46  2  0  0  0
 45124  1  0  0  0
 46125  1  0  0  0
 47126  1  0  0  0
 47127  1  0  0  0
 48 56  1  0  0  0
 48 65  1  0  0  0
 48128  1  0  0  0
 49 50  1  0  0  0
 49 53  1  0  0  0
 49 64  1  0  0  0
 49129  1  0  0  0
 50 51  1  0  0  0
 50130  1  0  0  0
 50131  1  0  0  0
 51 52  1  0  0  0
 51132  1  0  0  0
 51133  1  0  0  0
 52134  1  0  0  0
 52135  1  0  0  0
 53 54  1  0  0  0
 54 55  2  0  0  0
 54136  1  0  0  0
 55 57  1  0  0  0
 55137  1  0  0  0
 56 69  2  0  0  0
 57 58  2  0  0  0
 57138  1  0  0  0
 58139  1  0  0  0
 59 60  1  0  0  0
 59 61  1  0  0  0
 59 62  1  0  0  0
 60140  1  0  0  0
 60141  1  0  0  0
 60142  1  0  0  0
 61143  1  0  0  0
 61144  1  0  0  0
 61145  1  0  0  0
 62146  1  0  0  0
 62147  1  0  0  0
 62148  1  0  0  0
 63 65  1  0  0  0
 63149  1  0  0  0
 63150  1  0  0  0
 63151  1  0  0  0
 64152  1  0  0  0
 65153  1  0  0  0
 68 88  1  0  0  0
 71 73  2  0  0  0
 71 76  1  0  0  0
 71154  1  0  0  0
 72 74  1  0  0  0
 72 76  2  0  0  0
 72 78  1  0  0  0
 73 75  1  0  0  0
 73 89  1  0  0  0
 74 75  2  0  0  0
 74 90  1  0  0  0
 75 92  1  0  0  0
 76 93  1  0  0  0
 77 78  2  0  0  0
 77 81  1  0  0  0
 77155  1  0  0  0
 78 82  1  0  0  0
 79 80  2  0  0  0
 79 83  1  0  0  0
 79 94  1  0  0  0
 80 91  1  0  0  0
 80156  1  0  0  0
 81 84  1  0  0  0
 81157  1  0  0  0
 81158  1  0  0  0
 82 85  1  0  0  0
 82159  1  0  0  0
 82160  1  0  0  0
 83 86  1  0  0  0
 83161  1  0  0  0
 83162  1  0  0  0
 84 85  1  0  0  0
 84163  1  0  0  0
 84164  1  0  0  0
 85165  1  0  0  0
 85166  1  0  0  0
 86 88  1  0  0  0
 86167  1  0  0  0
 86168  1  0  0  0
 87 88  1  0  0  0
 87 94  1  0  0  0
 87169  1  0  0  0
 87170  1  0  0  0
 88171  1  0  0  0
 89172  1  0  0  0
 89173  1  0  0  0
 89174  1  0  0  0
 90175  1  0  0  0
 90176  1  0  0  0
 90177  1  0  0  0
 91178  1  0  0  0
 91179  1  0  0  0
 91180  1  0  0  0
 92181  1  0  0  0
 92182  1  0  0  0
 92 94  1  0  0  0
 93183  1  0  0  0
 94184  1  0  0  0
M  CHG  1  94   1
M  ISO  4   1 100  68 101  88 101  93 100
M  END
> <chiral flag>
0

> <version>
0

> <s_m_source_file>
/data/baiqing/PycharmProjects/Reinvent-master-3.2/result/LINK_invent/BTK/process_docking_weight1_custom_product_contain_oxygen_bond_distance_aromatic_linkinvent_7_9_3/rearranged_h_0040.sdf

> <i_m_source_file_index>
68

> <r_mmod_Potential_Energy-OPLS-2005>
126.596885681152

> <r_mmod_Stretch_Energy-OPLS-2005>
104.459335327148

> <r_mmod_Bend_Energy-OPLS-2005>
193.13557434082

> <r_mmod_Torsional_Energy-OPLS-2005>
282.797210693359

> <r_mmod_Improper_Torsional_Energy-OPLS-2005>
10.8615674972534

> <r_mmod_Van_der_Waal_Energy-OPLS-2005>
142.751068115234

> <r_mmod_Electrostatic_Energy-OPLS-2005>
-274.2880859375

> <r_mmod_Solvation_Energy-OPLS-2005>
-404.021392822266

> <b_mmod_Minimization_Converged-OPLS-2005>
0

> <r_mmod_RMS_Derivative-OPLS-2005>
7.04352426528931

$$$$
68
                    3D
 Structure written by MMmdl.
162170  0  0  1  0            999 V2000
  -30.7815  -14.3692   20.6746 C   0  0  0  0  0  0
  -30.4138  -12.2906   19.4001 C   0  0  0  0  0  0
  -29.4846  -12.5238   18.1954 C   0  0  0  0  0  0
  -28.0096  -12.3807   18.6126 C   0  0  0  0  0  0
  -27.6664  -13.2074   19.8800 C   0  0  2  0  0  0
  -28.7057  -12.9642   20.9975 C   0  0  0  0  0  0
  -25.2604  -13.8169   20.5686 C   0  0  0  0  0  0
  -24.1849  -13.0442   20.9168 C   0  0  0  0  0  0
  -24.6404  -11.6913   20.8729 C   0  0  0  0  0  0
  -23.9070  -10.4295   21.0398 C   0  0  0  0  0  0
  -24.3620   -9.4212   21.9180 C   0  0  0  0  0  0
  -23.6293   -8.2248   22.0753 C   0  0  0  0  0  0
  -22.4277   -8.0285   21.3543 C   0  0  0  0  0  0
  -21.9912   -9.0260   20.4647 C   0  0  0  0  0  0
  -22.7242  -10.2139   20.3052 C   0  0  0  0  0  0
  -21.6851   -6.0740   22.5280 C   0  0  0  0  0  0
  -21.4015   -6.5642   23.8215 C   0  0  0  0  0  0
  -21.3660   -5.6792   24.9176 C   0  0  0  0  0  0
  -21.6043   -4.3055   24.7225 C   0  0  0  0  0  0
  -21.8820   -3.8150   23.4344 C   0  0  0  0  0  0
  -21.9195   -4.6968   22.3403 C   0  0  0  0  0  0
  -22.7874  -13.5244   21.1835 C   0  0  0  0  0  0
  -22.1661   -4.2154   21.0979 F   0  0  0  0  0  0
  -21.5629   -3.4538   25.7736 F   0  0  0  0  0  0
  -30.0489  -13.2462   20.4569 N   0  0  0  0  0  0
  -26.3048  -12.9345   20.3388 N   0  0  0  0  0  0
  -25.9333  -11.6503   20.5766 N   0  0  0  0  0  0
  -22.0513  -12.8233   22.0388 N   0  0  0  0  0  0
  -25.4334  -15.1885   20.4112 N   0  0  0  0  0  0
  -31.8135  -14.6299   20.0506 O   0  0  0  0  0  0
  -21.6639   -6.8885   21.4242 O   0  0  0  0  0  0
  -22.3558  -14.5551   20.6688 O   0  0  0  0  0  0
  -24.6111  -31.8697   23.2110 C   0  0  0  0  0  0
  -25.9015  -32.4830   23.8404 C   0  0  1  0  0  0
  -27.2405  -27.4658   20.0939 C   0  0  0  0  0  0
  -25.5874  -33.8627   24.2331 N   0  0  0  0  0  0
  -23.3987  -30.4919   21.5506 C   0  0  2  0  0  0
  -24.8474  -28.9558   20.1200 C   0  0  0  0  0  0
  -22.7394  -29.4674   22.5012 C   0  0  0  0  0  0
  -18.0273  -28.1374   22.8491 C   0  0  0  0  0  0
  -24.1488  -36.7329   23.2636 C   0  0  0  0  0  0
  -25.9230  -30.8424   21.3621 C   0  0  0  0  0  0
  -26.0027  -29.4756   20.7180 C   0  0  0  0  0  0
  -27.2038  -28.7352   20.7071 C   0  0  0  0  0  0
  -26.0761  -26.9523   19.4890 C   0  0  0  0  0  0
  -24.8763  -27.6901   19.5059 C   0  0  0  0  0  0
  -23.6068  -29.8186   20.1669 C   0  0  0  0  0  0
  -25.4101  -36.3118   24.0338 C   0  0  1  0  0  0
  -20.5856  -28.3659   23.1332 C   0  0  2  0  0  0
  -20.6761  -26.9401   22.5422 C   0  0  0  0  0  0
  -19.5743  -26.6388   21.5212 C   0  0  0  0  0  0
  -18.1922  -26.7919   22.1622 C   0  0  0  0  0  0
  -19.1519  -28.8835   23.2907 C   0  0  0  0  0  0
  -18.9449  -30.1445   23.8911 C   0  0  0  0  0  0
  -17.6451  -30.6578   24.0569 C   0  0  0  0  0  0
  -25.9024  -34.9482   23.5136 C   0  0  0  0  0  0
  -16.5342  -29.9080   23.6325 C   0  0  0  0  0  0
  -16.7264  -28.6503   23.0334 C   0  0  0  0  0  0
  -26.4451  -31.6598   25.0719 C   0  0  0  0  0  0
  -25.3722  -31.3702   26.1471 C   0  0  0  0  0  0
  -27.0267  -30.3040   24.6069 C   0  0  0  0  0  0
  -27.6043  -32.4304   25.7470 C   0  0  0  0  0  0
  -27.5583  -37.1813   24.8459 C   0  0  0  0  0  0
  -21.4125  -29.3031   22.3746 N   0  0  0  0  0  0
  -26.4296  -37.3794   23.9399 N   0  0  0  0  0  0
  -24.6619  -31.0827   22.0999 N   0  0  0  0  0  0
  -23.4181  -28.8228   23.3051 O   0  0  0  0  0  0
  -28.4133  -26.7566   20.0397 O   0  0  0  0  0  0
  -26.5598  -34.8930   22.4704 O   0  0  0  0  0  0
  -23.5312  -32.1435   23.7525 O   0  0  0  0  0  0
  -30.9928  -17.8872   20.1302 C   0  0  0  0  0  0
  -30.6043  -19.0389   19.4337 C   0  0  0  0  0  0
  -30.5431  -17.6567   21.4450 C   0  0  0  0  0  0
  -29.6916  -18.6083   22.0751 C   0  0  0  0  0  0
  -29.2924  -19.7861   21.3700 C   0  0  0  0  0  0
  -29.7601  -19.9795   20.0418 C   0  0  0  0  0  0
  -29.2272  -18.3457   23.5078 C   0  0  0  0  0  0
  -31.0138  -16.3746   22.1370 C   0  0  0  0  0  0
  -28.3708  -20.8195   22.0470 C   0  0  0  0  0  0
  -28.1241  -24.3986   20.6276 C   0  0  0  0  0  0
  -28.4563  -23.2919   21.6495 C   0  0  0  0  0  0
  -28.5870  -25.7958   21.0787 C   0  0  0  0  0  0
  -30.3369  -15.1736   21.6480 N   0  0  0  0  0  0
  -27.9668  -21.9672   21.2059 N   0  3  0  0  0  0
  -29.4065  -21.0704   19.3191 F   0  0  0  0  0  0
  -31.4577  -12.3807   19.0942 H   0  0  0  0  0  0
  -30.3064  -11.2710   19.7736 H   0  0  0  0  0  0
  -29.7175  -11.8172   17.3978 H   0  0  0  0  0  0
  -29.6571  -13.5198   17.7840 H   0  0  0  0  0  0
  -27.8166  -11.3229   18.7960 H   0  0  0  0  0  0
  -27.3564  -12.6694   17.7884 H   0  0  0  0  0  0
  -27.7206  -14.2600   19.6006 H   0  0  0  0  0  0
  -28.6663  -11.9262   21.3306 H   0  0  0  0  0  0
  -28.4554  -13.5577   21.8767 H   0  0  0  0  0  0
  -25.2769   -9.5685   22.4749 H   0  0  0  0  0  0
  -24.0005   -7.4640   22.7469 H   0  0  0  0  0  0
  -21.0844   -8.8783   19.8949 H   0  0  0  0  0  0
  -22.3706  -10.9678   19.6158 H   0  0  0  0  0  0
  -21.2005   -7.6150   23.9720 H   0  0  0  0  0  0
  -21.1479   -6.0521   25.9079 H   0  0  0  0  0  0
  -22.0599   -2.7613   23.2844 H   0  0  0  0  0  0
  -22.4124  -11.9888   22.4772 H   0  0  0  0  0  0
  -21.1130  -13.1261   22.2592 H   0  0  0  0  0  0
  -24.6711  -15.8479   20.5243 H   0  0  0  0  0  0
  -26.2966  -15.6277   20.1154 H   0  0  0  0  0  0
  -26.7085  -32.5567   23.1178 H   0  0  0  0  0  0
  -25.0001  -33.9782   25.0458 H   0  0  0  0  0  0
  -22.6861  -31.3070   21.4097 H   0  0  0  0  0  0
  -23.3740  -35.9678   23.3307 H   0  0  0  0  0  0
  -24.3582  -36.8939   22.2049 H   0  0  0  0  0  0
  -23.7257  -37.6545   23.6643 H   0  0  0  0  0  0
  -26.0291  -31.6056   20.5901 H   0  0  0  0  0  0
  -26.8130  -30.8996   21.9770 H   0  0  0  0  0  0
  -28.1006  -29.1355   21.1595 H   0  0  0  0  0  0
  -26.1000  -25.9914   18.9958 H   0  0  0  0  0  0
  -23.9898  -27.2847   19.0378 H   0  0  0  0  0  0
  -23.7129  -30.5900   19.4029 H   0  0  0  0  0  0
  -22.7322  -29.2345   19.8744 H   0  0  0  0  0  0
  -25.1282  -36.1993   25.0833 H   0  0  0  0  0  0
  -20.9945  -28.3219   24.1450 H   0  0  0  0  0  0
  -20.5664  -26.2265   23.3604 H   0  0  0  0  0  0
  -21.6635  -26.7449   22.1214 H   0  0  0  0  0  0
  -19.6903  -25.6305   21.1226 H   0  0  0  0  0  0
  -19.6681  -27.3215   20.6756 H   0  0  0  0  0  0
  -17.4192  -26.6682   21.4019 H   0  0  0  0  0  0
  -18.0317  -26.0057   22.9015 H   0  0  0  0  0  0
  -19.7930  -30.7258   24.2280 H   0  0  0  0  0  0
  -17.5008  -31.6260   24.5175 H   0  0  0  0  0  0
  -15.5342  -30.2984   23.7641 H   0  0  0  0  0  0
  -15.8667  -28.0834   22.7014 H   0  0  0  0  0  0
  -24.5891  -30.7049   25.7811 H   0  0  0  0  0  0
  -24.8908  -32.2856   26.4923 H   0  0  0  0  0  0
  -25.8079  -30.8870   27.0226 H   0  0  0  0  0  0
  -26.2796  -29.6813   24.1125 H   0  0  0  0  0  0
  -27.4041  -29.7265   25.4520 H   0  0  0  0  0  0
  -27.8638  -30.4359   23.9207 H   0  0  0  0  0  0
  -27.2682  -33.3613   26.2048 H   0  0  0  0  0  0
  -28.3849  -32.6834   25.0283 H   0  0  0  0  0  0
  -28.0698  -31.8410   26.5379 H   0  0  0  0  0  0
  -28.2607  -38.0105   24.7503 H   0  0  0  0  0  0
  -28.1080  -36.2639   24.6296 H   0  0  0  0  0  0
  -27.2300  -37.1472   25.8863 H   0  0  0  0  0  0
  -20.9286  -29.8753   21.6967 H   0  0  0  0  0  0
  -26.0199  -38.2885   24.1389 H   0  0  0  0  0  0
  -31.6480  -17.1778   19.6457 H   0  0  0  0  0  0
  -30.9548  -19.2042   18.4248 H   0  0  0  0  0  0
  -28.7509  -17.3673   23.5766 H   0  0  0  0  0  0
  -28.5114  -19.0648   23.8978 H   0  0  0  0  0  0
  -30.0812  -18.3561   24.1859 H   0  0  0  0  0  0
  -30.8919  -16.4187   23.2175 H   0  0  0  0  0  0
  -32.0927  -16.2845   21.9941 H   0  0  0  0  0  0
  -28.8404  -21.1733   22.9663 H   0  0  0  0  0  0
  -27.4510  -20.3127   22.3413 H   0  0  0  0  0  0
  -27.0500  -24.4150   20.4449 H   0  0  0  0  0  0
  -28.6007  -24.1630   19.6745 H   0  0  0  0  0  0
  -28.0157  -23.5316   22.6186 H   0  0  0  0  0  0
  -29.5366  -23.2444   21.7946 H   0  0  0  0  0  0
  -29.6497  -25.7670   21.3218 H   0  0  0  0  0  0
  -28.0741  -26.0974   21.9940 H   0  0  0  0  0  0
  -29.4899  -14.8968   22.1196 H   0  0  0  0  0  0
  -26.9613  -21.9779   21.1505 H   0  0  0  0  0  0
  -28.3345  -21.7746   20.2814 H   0  0  0  0  0  0
  1 25  1  0  0  0
  1 30  2  0  0  0
  1 83  1  0  0  0
  2  3  1  0  0  0
  2 25  1  0  0  0
  2 86  1  0  0  0
  2 87  1  0  0  0
  3  4  1  0  0  0
  3 88  1  0  0  0
  3 89  1  0  0  0
  4  5  1  0  0  0
  4 90  1  0  0  0
  4 91  1  0  0  0
  5  6  1  0  0  0
  5 26  1  0  0  0
  5 92  1  0  0  0
  6 25  1  0  0  0
  6 93  1  0  0  0
  6 94  1  0  0  0
  7  8  2  0  0  0
  7 26  1  0  0  0
  7 29  1  0  0  0
  8  9  1  0  0  0
  8 22  1  0  0  0
  9 10  1  0  0  0
  9 27  2  0  0  0
 10 11  2  0  0  0
 10 15  1  0  0  0
 11 12  1  0  0  0
 11 95  1  0  0  0
 12 13  2  0  0  0
 12 96  1  0  0  0
 13 14  1  0  0  0
 13 31  1  0  0  0
 14 15  2  0  0  0
 14 97  1  0  0  0
 15 98  1  0  0  0
 16 17  2  0  0  0
 16 21  1  0  0  0
 16 31  1  0  0  0
 17 18  1  0  0  0
 17 99  1  0  0  0
 18 19  2  0  0  0
 18100  1  0  0  0
 19 20  1  0  0  0
 19 24  1  0  0  0
 20 21  2  0  0  0
 20101  1  0  0  0
 21 23  1  0  0  0
 22 28  1  0  0  0
 22 32  2  0  0  0
 26 27  1  0  0  0
 28102  1  0  0  0
 28103  1  0  0  0
 29104  1  0  0  0
 29105  1  0  0  0
 33 34  1  0  0  0
 33 66  1  0  0  0
 33 70  2  0  0  0
 34 36  1  0  0  0
 34 59  1  0  0  0
 34106  1  0  0  0
 35 44  2  0  0  0
 35 45  1  0  0  0
 35 68  1  0  0  0
 36 56  1  0  0  0
 36107  1  0  0  0
 37 39  1  0  0  0
 37 47  1  0  0  0
 37 66  1  0  0  0
 37108  1  0  0  0
 38 43  2  0  0  0
 38 46  1  0  0  0
 38 47  1  0  0  0
 39 64  1  0  0  0
 39 67  2  0  0  0
 40 52  1  0  0  0
 40 53  2  0  0  0
 40 58  1  0  0  0
 41109  1  0  0  0
 41110  1  0  0  0
 41111  1  0  0  0
 41 48  1  0  0  0
 42 43  1  0  0  0
 42 66  1  0  0  0
 42112  1  0  0  0
 42113  1  0  0  0
 43 44  1  0  0  0
 44114  1  0  0  0
 45 46  2  0  0  0
 45115  1  0  0  0
 46116  1  0  0  0
 47117  1  0  0  0
 47118  1  0  0  0
 48 56  1  0  0  0
 48 65  1  0  0  0
 48119  1  0  0  0
 49 50  1  0  0  0
 49 53  1  0  0  0
 49 64  1  0  0  0
 49120  1  0  0  0
 50 51  1  0  0  0
 50121  1  0  0  0
 50122  1  0  0  0
 51 52  1  0  0  0
 51123  1  0  0  0
 51124  1  0  0  0
 52125  1  0  0  0
 52126  1  0  0  0
 53 54  1  0  0  0
 54 55  2  0  0  0
 54127  1  0  0  0
 55 57  1  0  0  0
 55128  1  0  0  0
 56 69  2  0  0  0
 57 58  2  0  0  0
 57129  1  0  0  0
 58130  1  0  0  0
 59 60  1  0  0  0
 59 61  1  0  0  0
 59 62  1  0  0  0
 60131  1  0  0  0
 60132  1  0  0  0
 60133  1  0  0  0
 61134  1  0  0  0
 61135  1  0  0  0
 61136  1  0  0  0
 62137  1  0  0  0
 62138  1  0  0  0
 62139  1  0  0  0
 63 65  1  0  0  0
 63140  1  0  0  0
 63141  1  0  0  0
 63142  1  0  0  0
 64143  1  0  0  0
 65144  1  0  0  0
 68 82  1  0  0  0
 71 72  2  0  0  0
 71 73  1  0  0  0
 71145  1  0  0  0
 72 76  1  0  0  0
 72146  1  0  0  0
 73 74  2  0  0  0
 73 78  1  0  0  0
 74 75  1  0  0  0
 74 77  1  0  0  0
 75 76  2  0  0  0
 75 79  1  0  0  0
 76 85  1  0  0  0
 77147  1  0  0  0
 77148  1  0  0  0
 77149  1  0  0  0
 78 83  1  0  0  0
 78150  1  0  0  0
 78151  1  0  0  0
 79 84  1  0  0  0
 79152  1  0  0  0
 79153  1  0  0  0
 80 81  1  0  0  0
 80 82  1  0  0  0
 80154  1  0  0  0
 80155  1  0  0  0
 81 84  1  0  0  0
 81156  1  0  0  0
 81157  1  0  0  0
 82158  1  0  0  0
 82159  1  0  0  0
 83160  1  0  0  0
 84161  1  0  0  0
 84162  1  0  0  0
M  CHG  1  84   1
M  ISO  4   1 100  68 101  82 101  83 100
M  END
> <chiral flag>
0

> <version>
0

> <s_m_source_file>
/data/baiqing/PycharmProjects/Reinvent-master-3.2/result/LINK_invent/BTK/process_docking_weight1_custom_product_contain_oxygen_bond_distance_aromatic_linkinvent_7_9_3/rearranged_h_0040.sdf

> <i_m_source_file_index>
69

> <r_mmod_Potential_Energy-OPLS-2005>
-301.430114746094

> <r_mmod_Stretch_Energy-OPLS-2005>
35.7578773498535

> <r_mmod_Bend_Energy-OPLS-2005>
90.0399780273438

> <r_mmod_Torsional_Energy-OPLS-2005>
224.555084228516

> <r_mmod_Improper_Torsional_Energy-OPLS-2005>
1.76767432689667

> <r_mmod_Van_der_Waal_Energy-OPLS-2005>
164.625900268555

> <r_mmod_Electrostatic_Energy-OPLS-2005>
-374.847869873047

> <r_mmod_Solvation_Energy-OPLS-2005>
-449.932342529297

> <b_mmod_Minimization_Converged-OPLS-2005>
0

> <r_mmod_RMS_Derivative-OPLS-2005>
0.9799724817276

$$$$
69
                    3D
 Structure written by MMmdl.
172181  0  0  1  0            999 V2000
  -30.6125  -14.6125   20.4729 C   0  0  0  0  0  0
  -30.4433  -12.3652   19.4458 C   0  0  0  0  0  0
  -29.5098  -12.4929   18.2207 C   0  0  0  0  0  0
  -28.0296  -12.3392   18.6304 C   0  0  0  0  0  0
  -27.6567  -13.2067   19.8614 C   0  0  2  0  0  0
  -28.7030  -13.0440   20.9891 C   0  0  0  0  0  0
  -25.2592  -13.8147   20.5671 C   0  0  0  0  0  0
  -24.1864  -13.0438   20.9218 C   0  0  0  0  0  0
  -24.6388  -11.6899   20.8736 C   0  0  0  0  0  0
  -23.9054  -10.4303   21.0408 C   0  0  0  0  0  0
  -24.3606   -9.4218   21.9178 C   0  0  0  0  0  0
  -23.6299   -8.2240   22.0737 C   0  0  0  0  0  0
  -22.4281   -8.0269   21.3530 C   0  0  0  0  0  0
  -21.9914   -9.0240   20.4634 C   0  0  0  0  0  0
  -22.7228  -10.2134   20.3052 C   0  0  0  0  0  0
  -21.6846   -6.0731   22.5279 C   0  0  0  0  0  0
  -21.4008   -6.5632   23.8216 C   0  0  0  0  0  0
  -21.3664   -5.6779   24.9173 C   0  0  0  0  0  0
  -21.6053   -4.3046   24.7222 C   0  0  0  0  0  0
  -21.8818   -3.8138   23.4343 C   0  0  0  0  0  0
  -21.9192   -4.6957   22.3398 C   0  0  0  0  0  0
  -22.7886  -13.5225   21.1890 C   0  0  0  0  0  0
  -22.1665   -4.2155   21.0970 F   0  0  0  0  0  0
  -21.5637   -3.4529   25.7725 F   0  0  0  0  0  0
  -30.0231  -13.3791   20.4278 N   0  0  0  0  0  0
  -26.2996  -12.9310   20.3294 N   0  0  0  0  0  0
  -25.9312  -11.6483   20.5739 N   0  0  0  0  0  0
  -22.0490  -12.8232   22.0425 N   0  0  0  0  0  0
  -25.4282  -15.1872   20.4035 N   0  0  0  0  0  0
  -31.7779  -14.7930   20.1075 O   0  0  0  0  0  0
  -21.6631   -6.8872   21.4235 O   0  0  0  0  0  0
  -22.3586  -14.5533   20.6727 O   0  0  0  0  0  0
  -24.6234  -31.8605   23.2021 C   0  0  0  0  0  0
  -25.9081  -32.4784   23.8338 C   0  0  1  0  0  0
  -27.2246  -27.3314   20.1281 C   0  0  0  0  0  0
  -25.5880  -33.8585   24.2265 N   0  0  0  0  0  0
  -23.4172  -30.4806   21.5464 C   0  0  2  0  0  0
  -24.8622  -28.9233   20.1264 C   0  0  0  0  0  0
  -22.7449  -29.4640   22.4982 C   0  0  0  0  0  0
  -18.0268  -28.1387   22.8479 C   0  0  0  0  0  0
  -24.1490  -36.7286   23.2644 C   0  0  0  0  0  0
  -25.9544  -30.7966   21.3671 C   0  0  0  0  0  0
  -26.0303  -29.4184   20.7224 C   0  0  0  0  0  0
  -27.2188  -28.6329   20.7115 C   0  0  0  0  0  0
  -26.0375  -26.8714   19.5283 C   0  0  0  0  0  0
  -24.8646  -27.6533   19.5243 C   0  0  0  0  0  0
  -23.6296  -29.8042   20.1660 C   0  0  0  0  0  0
  -25.4112  -36.3084   24.0329 C   0  0  1  0  0  0
  -20.5866  -28.3684   23.1284 C   0  0  2  0  0  0
  -20.6762  -26.9413   22.5410 C   0  0  0  0  0  0
  -19.5745  -26.6391   21.5202 C   0  0  0  0  0  0
  -18.1924  -26.7926   22.1620 C   0  0  0  0  0  0
  -19.1525  -28.8850   23.2871 C   0  0  0  0  0  0
  -18.9461  -30.1454   23.8889 C   0  0  0  0  0  0
  -17.6466  -30.6591   24.0565 C   0  0  0  0  0  0
  -25.9043  -34.9456   23.5094 C   0  0  0  0  0  0
  -16.5351  -29.9100   23.6325 C   0  0  0  0  0  0
  -16.7261  -28.6516   23.0346 C   0  0  0  0  0  0
  -26.4516  -31.6575   25.0679 C   0  0  0  0  0  0
  -25.3796  -31.3652   26.1418 C   0  0  0  0  0  0
  -27.0424  -30.3043   24.6057 C   0  0  0  0  0  0
  -27.6054  -32.4355   25.7434 C   0  0  0  0  0  0
  -27.5581  -37.1798   24.8469 C   0  0  0  0  0  0
  -21.4179  -29.3029   22.3682 N   0  0  0  0  0  0
  -26.4301  -37.3767   23.9395 N   0  0  0  0  0  0
  -24.6844  -31.0632   22.0960 N   0  0  0  0  0  0
  -23.4169  -28.8180   23.3065 O   0  0  0  0  0  0
  -28.3672  -26.5379   20.0336 O   0  0  0  0  0  0
  -26.5646  -34.8937   22.4689 O   0  0  0  0  0  0
  -23.5398  -32.1392   23.7371 O   0  0  0  0  0  0
  -28.4892  -17.7263   20.5266 C   0  0  0  0  0  0
  -30.8483  -17.8613   20.1303 C   0  0  0  0  0  0
  -28.3341  -19.1185   20.2611 C   0  0  0  0  0  0
  -30.7190  -19.2646   19.8782 C   0  0  0  0  0  0
  -29.4580  -19.9489   19.9612 C   0  0  0  0  0  0
  -29.7338  -17.0575   20.4717 C   0  0  0  0  0  0
  -30.1543  -24.7572   22.7974 C   0  0  0  0  0  0
  -29.6870  -25.7181   21.7020 C   0  0  0  0  0  0
  -30.5069  -23.3541   22.2847 C   0  0  0  0  0  0
  -28.7906  -23.9782   19.9547 C   0  0  0  0  0  0
  -28.4887  -25.2967   20.8194 C   0  0  2  0  0  0
  -29.2381  -22.5232   22.0125 C   0  0  2  0  0  0
  -26.9137  -19.6630   20.2945 C   0  0  0  0  0  0
  -31.9849  -20.0127   19.4880 C   0  0  0  0  0  0
  -29.3277  -21.1386   22.6872 C   0  0  0  0  0  0
  -29.3234  -21.4996   19.6235 C   0  0  0  0  0  0
  -29.7567  -15.6315   20.7777 N   0  0  0  0  0  0
  -28.7840  -22.5667   20.5816 N   0  3  2  0  0  0
  -31.4840  -12.4876   19.1368 H   0  0  0  0  0  0
  -30.3745  -11.3651   19.8762 H   0  0  0  0  0  0
  -29.7684  -11.7341   17.4805 H   0  0  0  0  0  0
  -29.6636  -13.4607   17.7417 H   0  0  0  0  0  0
  -27.8580  -11.2850   18.8503 H   0  0  0  0  0  0
  -27.3775  -12.5738   17.7878 H   0  0  0  0  0  0
  -27.6762  -14.2431   19.5226 H   0  0  0  0  0  0
  -28.7039  -12.0205   21.3652 H   0  0  0  0  0  0
  -28.4551  -13.6703   21.8483 H   0  0  0  0  0  0
  -25.2714   -9.5728   22.4777 H   0  0  0  0  0  0
  -24.0017   -7.4621   22.7437 H   0  0  0  0  0  0
  -21.0843   -8.8740   19.8933 H   0  0  0  0  0  0
  -22.3642  -10.9673   19.6186 H   0  0  0  0  0  0
  -21.1985   -7.6137   23.9731 H   0  0  0  0  0  0
  -21.1501   -6.0498   25.9080 H   0  0  0  0  0  0
  -22.0598   -2.7610   23.2822 H   0  0  0  0  0  0
  -22.4050  -11.9891   22.4857 H   0  0  0  0  0  0
  -21.1099  -13.1295   22.2570 H   0  0  0  0  0  0
  -24.6474  -15.8285   20.4851 H   0  0  0  0  0  0
  -26.2455  -15.6111   19.9858 H   0  0  0  0  0  0
  -26.7128  -32.5494   23.1060 H   0  0  0  0  0  0
  -24.9954  -33.9736   25.0363 H   0  0  0  0  0  0
  -22.7108  -31.3012   21.3983 H   0  0  0  0  0  0
  -23.3756  -35.9612   23.3324 H   0  0  0  0  0  0
  -24.3583  -36.8902   22.2061 H   0  0  0  0  0  0
  -23.7253  -37.6490   23.6669 H   0  0  0  0  0  0
  -26.0763  -31.5553   20.5919 H   0  0  0  0  0  0
  -26.8390  -30.8550   21.9891 H   0  0  0  0  0  0
  -28.1251  -29.0182   21.1565 H   0  0  0  0  0  0
  -26.0200  -25.9021   19.0510 H   0  0  0  0  0  0
  -23.9681  -27.2654   19.0626 H   0  0  0  0  0  0
  -23.7446  -30.5765   19.4044 H   0  0  0  0  0  0
  -22.7489  -29.2314   19.8685 H   0  0  0  0  0  0
  -25.1303  -36.1932   25.0824 H   0  0  0  0  0  0
  -20.9947  -28.3248   24.1410 H   0  0  0  0  0  0
  -20.5645  -26.2294   23.3605 H   0  0  0  0  0  0
  -21.6640  -26.7441   22.1220 H   0  0  0  0  0  0
  -19.6914  -25.6300   21.1241 H   0  0  0  0  0  0
  -19.6687  -27.3197   20.6727 H   0  0  0  0  0  0
  -17.4192  -26.6654   21.4031 H   0  0  0  0  0  0
  -18.0336  -26.0075   22.9026 H   0  0  0  0  0  0
  -19.7945  -30.7265   24.2264 H   0  0  0  0  0  0
  -17.5031  -31.6274   24.5174 H   0  0  0  0  0  0
  -15.5360  -30.3010   23.7663 H   0  0  0  0  0  0
  -15.8656  -28.0849   22.7058 H   0  0  0  0  0  0
  -24.5983  -30.6971   25.7743 H   0  0  0  0  0  0
  -24.8941  -32.2779   26.4857 H   0  0  0  0  0  0
  -25.8175  -30.8881   27.0193 H   0  0  0  0  0  0
  -26.2996  -29.6669   24.1250 H   0  0  0  0  0  0
  -27.4371  -29.7352   25.4478 H   0  0  0  0  0  0
  -27.8720  -30.4446   23.9124 H   0  0  0  0  0  0
  -27.2609  -33.3638   26.2010 H   0  0  0  0  0  0
  -28.3853  -32.6953   25.0271 H   0  0  0  0  0  0
  -28.0742  -31.8542   26.5373 H   0  0  0  0  0  0
  -28.2609  -38.0091   24.7502 H   0  0  0  0  0  0
  -28.1072  -36.2623   24.6301 H   0  0  0  0  0  0
  -27.2306  -37.1446   25.8880 H   0  0  0  0  0  0
  -20.9364  -29.8745   21.6879 H   0  0  0  0  0  0
  -26.0172  -38.2837   24.1387 H   0  0  0  0  0  0
  -27.6100  -17.1482   20.7741 H   0  0  0  0  0  0
  -31.8232  -17.3984   20.0645 H   0  0  0  0  0  0
  -29.4078  -24.7026   23.5929 H   0  0  0  0  0  0
  -31.0414  -25.1858   23.2651 H   0  0  0  0  0  0
  -30.5367  -25.9367   21.0540 H   0  0  0  0  0  0
  -29.4448  -26.6653   22.1890 H   0  0  0  0  0  0
  -31.0941  -22.8682   23.0647 H   0  0  0  0  0  0
  -31.1660  -23.3923   21.4148 H   0  0  0  0  0  0
  -29.7552  -24.1373   19.4729 H   0  0  0  0  0  0
  -28.0713  -23.9540   19.1351 H   0  0  0  0  0  0
  -27.5952  -25.1505   21.4286 H   0  0  0  0  0  0
  -28.4136  -22.9915   22.5502 H   0  0  0  0  0  0
  -26.3618  -19.3114   19.4219 H   0  0  0  0  0  0
  -26.8568  -20.7486   20.3064 H   0  0  0  0  0  0
  -26.3908  -19.3035   21.1818 H   0  0  0  0  0  0
  -32.8382  -19.3423   19.3812 H   0  0  0  0  0  0
  -32.2354  -20.7553   20.2461 H   0  0  0  0  0  0
  -31.8615  -20.5152   18.5279 H   0  0  0  0  0  0
  -30.1823  -20.5593   22.3417 H   0  0  0  0  0  0
  -28.4188  -20.5519   22.5555 H   0  0  0  0  0  0
  -29.4645  -21.2451   23.7632 H   0  0  0  0  0  0
  -28.6959  -21.5391   18.7318 H   0  0  0  0  0  0
  -30.2853  -21.8768   19.2915 H   0  0  0  0  0  0
  -28.8696  -15.2679   21.0886 H   0  0  0  0  0  0
  -27.8056  -22.3283   20.6529 H   0  0  0  0  0  0
  1 25  1  0  0  0
  1 30  2  0  0  0
  1 87  1  0  0  0
  2  3  1  0  0  0
  2 25  1  0  0  0
  2 89  1  0  0  0
  2 90  1  0  0  0
  3  4  1  0  0  0
  3 91  1  0  0  0
  3 92  1  0  0  0
  4  5  1  0  0  0
  4 93  1  0  0  0
  4 94  1  0  0  0
  5  6  1  0  0  0
  5 26  1  0  0  0
  5 95  1  0  0  0
  6 25  1  0  0  0
  6 96  1  0  0  0
  6 97  1  0  0  0
  7  8  2  0  0  0
  7 26  1  0  0  0
  7 29  1  0  0  0
  8  9  1  0  0  0
  8 22  1  0  0  0
  9 10  1  0  0  0
  9 27  2  0  0  0
 10 11  2  0  0  0
 10 15  1  0  0  0
 11 12  1  0  0  0
 11 98  1  0  0  0
 12 13  2  0  0  0
 12 99  1  0  0  0
 13 14  1  0  0  0
 13 31  1  0  0  0
 14 15  2  0  0  0
 14100  1  0  0  0
 15101  1  0  0  0
 16 17  2  0  0  0
 16 21  1  0  0  0
 16 31  1  0  0  0
 17 18  1  0  0  0
 17102  1  0  0  0
 18 19  2  0  0  0
 18103  1  0  0  0
 19 20  1  0  0  0
 19 24  1  0  0  0
 20 21  2  0  0  0
 20104  1  0  0  0
 21 23  1  0  0  0
 22 28  1  0  0  0
 22 32  2  0  0  0
 26 27  1  0  0  0
 28105  1  0  0  0
 28106  1  0  0  0
 29107  1  0  0  0
 29108  1  0  0  0
 33 34  1  0  0  0
 33 66  1  0  0  0
 33 70  2  0  0  0
 34 36  1  0  0  0
 34 59  1  0  0  0
 34109  1  0  0  0
 35 44  2  0  0  0
 35 45  1  0  0  0
 35 68  1  0  0  0
 36 56  1  0  0  0
 36110  1  0  0  0
 37 39  1  0  0  0
 37 47  1  0  0  0
 37 66  1  0  0  0
 37111  1  0  0  0
 38 43  2  0  0  0
 38 46  1  0  0  0
 38 47  1  0  0  0
 39 64  1  0  0  0
 39 67  2  0  0  0
 40 52  1  0  0  0
 40 53  2  0  0  0
 40 58  1  0  0  0
 41112  1  0  0  0
 41113  1  0  0  0
 41114  1  0  0  0
 41 48  1  0  0  0
 42 43  1  0  0  0
 42 66  1  0  0  0
 42115  1  0  0  0
 42116  1  0  0  0
 43 44  1  0  0  0
 44117  1  0  0  0
 45 46  2  0  0  0
 45118  1  0  0  0
 46119  1  0  0  0
 47120  1  0  0  0
 47121  1  0  0  0
 48 56  1  0  0  0
 48 65  1  0  0  0
 48122  1  0  0  0
 49 50  1  0  0  0
 49 53  1  0  0  0
 49 64  1  0  0  0
 49123  1  0  0  0
 50 51  1  0  0  0
 50124  1  0  0  0
 50125  1  0  0  0
 51 52  1  0  0  0
 51126  1  0  0  0
 51127  1  0  0  0
 52128  1  0  0  0
 52129  1  0  0  0
 53 54  1  0  0  0
 54 55  2  0  0  0
 54130  1  0  0  0
 55 57  1  0  0  0
 55131  1  0  0  0
 56 69  2  0  0  0
 57 58  2  0  0  0
 57132  1  0  0  0
 58133  1  0  0  0
 59 60  1  0  0  0
 59 61  1  0  0  0
 59 62  1  0  0  0
 60134  1  0  0  0
 60135  1  0  0  0
 60136  1  0  0  0
 61137  1  0  0  0
 61138  1  0  0  0
 61139  1  0  0  0
 62140  1  0  0  0
 62141  1  0  0  0
 62142  1  0  0  0
 63 65  1  0  0  0
 63143  1  0  0  0
 63144  1  0  0  0
 63145  1  0  0  0
 64146  1  0  0  0
 65147  1  0  0  0
 68 81  1  0  0  0
 71 73  2  0  0  0
 71 76  1  0  0  0
 71148  1  0  0  0
 72 74  1  0  0  0
 72 76  2  0  0  0
 72149  1  0  0  0
 73 75  1  0  0  0
 73 83  1  0  0  0
 74 75  2  0  0  0
 74 84  1  0  0  0
 75 86  1  0  0  0
 76 87  1  0  0  0
 77 78  1  0  0  0
 77 79  1  0  0  0
 77150  1  0  0  0
 77151  1  0  0  0
 78 81  1  0  0  0
 78152  1  0  0  0
 78153  1  0  0  0
 79 82  1  0  0  0
 79154  1  0  0  0
 79155  1  0  0  0
 80 81  1  0  0  0
 80 88  1  0  0  0
 80156  1  0  0  0
 80157  1  0  0  0
 81158  1  0  0  0
 82 85  1  0  0  0
 82 88  1  0  0  0
 82159  1  0  0  0
 83160  1  0  0  0
 83161  1  0  0  0
 83162  1  0  0  0
 84163  1  0  0  0
 84164  1  0  0  0
 84165  1  0  0  0
 85166  1  0  0  0
 85167  1  0  0  0
 85168  1  0  0  0
 86169  1  0  0  0
 86170  1  0  0  0
 86 88  1  0  0  0
 87171  1  0  0  0
 88172  1  0  0  0
M  CHG  1  88   1
M  ISO  4   1 100  68 101  81 101  87 100
M  END
> <chiral flag>
0

> <version>
0

> <s_m_source_file>
/data/baiqing/PycharmProjects/Reinvent-master-3.2/result/LINK_invent/BTK/process_docking_weight1_custom_product_contain_oxygen_bond_distance_aromatic_linkinvent_7_9_3/rearranged_h_0040.sdf

> <i_m_source_file_index>
70

> <r_mmod_Potential_Energy-OPLS-2005>
101.857093811035

> <r_mmod_Stretch_Energy-OPLS-2005>
87.4627532958984

> <r_mmod_Bend_Energy-OPLS-2005>
189.840759277344

> <r_mmod_Torsional_Energy-OPLS-2005>
280.479034423828

> <r_mmod_Improper_Torsional_Energy-OPLS-2005>
5.86554574966431

> <r_mmod_Van_der_Waal_Energy-OPLS-2005>
145.818939208984

> <r_mmod_Electrostatic_Energy-OPLS-2005>
-237.779556274414

> <r_mmod_Solvation_Energy-OPLS-2005>
-408.507568359375

> <b_mmod_Minimization_Converged-OPLS-2005>
0

> <r_mmod_RMS_Derivative-OPLS-2005>
3.2848424911499

$$$$
70
                    3D
 Structure written by MMmdl.
160168  0  0  1  0            999 V2000
  -30.6776  -14.4718   20.5999 C   0  0  0  0  0  0
  -30.4345  -12.3160   19.4112 C   0  0  0  0  0  0
  -29.4944  -12.5146   18.2029 C   0  0  0  0  0  0
  -28.0159  -12.3704   18.6162 C   0  0  0  0  0  0
  -27.6655  -13.1982   19.8808 C   0  0  2  0  0  0
  -28.7073  -12.9460   20.9943 C   0  0  0  0  0  0
  -25.2615  -13.8141   20.5669 C   0  0  0  0  0  0
  -24.1852  -13.0432   20.9165 C   0  0  0  0  0  0
  -24.6390  -11.6895   20.8738 C   0  0  0  0  0  0
  -23.9049  -10.4287   21.0412 C   0  0  0  0  0  0
  -24.3609   -9.4203   21.9188 C   0  0  0  0  0  0
  -23.6287   -8.2236   22.0760 C   0  0  0  0  0  0
  -22.4270   -8.0275   21.3542 C   0  0  0  0  0  0
  -21.9901   -9.0251   20.4648 C   0  0  0  0  0  0
  -22.7226  -10.2130   20.3059 C   0  0  0  0  0  0
  -21.6850   -6.0733   22.5275 C   0  0  0  0  0  0
  -21.4014   -6.5640   23.8209 C   0  0  0  0  0  0
  -21.3659   -5.6793   24.9173 C   0  0  0  0  0  0
  -21.6042   -4.3056   24.7225 C   0  0  0  0  0  0
  -21.8819   -3.8146   23.4348 C   0  0  0  0  0  0
  -21.9193   -4.6960   22.3402 C   0  0  0  0  0  0
  -22.7878  -13.5242   21.1830 C   0  0  0  0  0  0
  -22.1660   -4.2147   21.0979 F   0  0  0  0  0  0
  -21.5631   -3.4538   25.7740 F   0  0  0  0  0  0
  -30.0392  -13.2773   20.4519 N   0  0  0  0  0  0
  -26.3044  -12.9288   20.3381 N   0  0  0  0  0  0
  -25.9313  -11.6457   20.5774 N   0  0  0  0  0  0
  -22.0516  -12.8237   22.0389 N   0  0  0  0  0  0
  -25.4367  -15.1857   20.4065 N   0  0  0  0  0  0
  -31.7864  -14.7020   20.1071 O   0  0  0  0  0  0
  -21.6634   -6.8874   21.4238 O   0  0  0  0  0  0
  -22.3565  -14.5550   20.6683 O   0  0  0  0  0  0
  -24.6157  -31.8672   23.2102 C   0  0  0  0  0  0
  -25.9056  -32.4814   23.8391 C   0  0  1  0  0  0
  -27.2348  -27.4278   20.0943 C   0  0  0  0  0  0
  -25.5917  -33.8610   24.2326 N   0  0  0  0  0  0
  -23.4043  -30.4901   21.5509 C   0  0  2  0  0  0
  -24.8510  -28.9535   20.1171 C   0  0  0  0  0  0
  -22.7420  -29.4646   22.5000 C   0  0  0  0  0  0
  -18.0272  -28.1373   22.8474 C   0  0  0  0  0  0
  -24.1492  -36.7312   23.2639 C   0  0  0  0  0  0
  -25.9339  -30.8311   21.3626 C   0  0  0  0  0  0
  -26.0126  -29.4641   20.7105 C   0  0  0  0  0  0
  -27.2102  -28.7098   20.6926 C   0  0  0  0  0  0
  -26.0565  -26.9353   19.4929 C   0  0  0  0  0  0
  -24.8674  -27.6878   19.5059 C   0  0  0  0  0  0
  -23.6135  -29.8220   20.1656 C   0  0  0  0  0  0
  -25.4113  -36.3101   24.0338 C   0  0  1  0  0  0
  -20.5864  -28.3659   23.1315 C   0  0  2  0  0  0
  -20.6765  -26.9396   22.5411 C   0  0  0  0  0  0
  -19.5747  -26.6384   21.5204 C   0  0  0  0  0  0
  -18.1922  -26.7918   22.1611 C   0  0  0  0  0  0
  -19.1523  -28.8832   23.2885 C   0  0  0  0  0  0
  -18.9450  -30.1437   23.8899 C   0  0  0  0  0  0
  -17.6455  -30.6579   24.0562 C   0  0  0  0  0  0
  -25.9038  -34.9465   23.5124 C   0  0  0  0  0  0
  -16.5345  -29.9081   23.6323 C   0  0  0  0  0  0
  -16.7262  -28.6502   23.0331 C   0  0  0  0  0  0
  -26.4483  -31.6593   25.0715 C   0  0  0  0  0  0
  -25.3751  -31.3692   26.1467 C   0  0  0  0  0  0
  -27.0308  -30.3038   24.6072 C   0  0  0  0  0  0
  -27.6058  -32.4309   25.7486 C   0  0  0  0  0  0
  -27.5583  -37.1809   24.8465 C   0  0  0  0  0  0
  -21.4149  -29.3032   22.3737 N   0  0  0  0  0  0
  -26.4297  -37.3787   23.9404 N   0  0  0  0  0  0
  -24.6697  -31.0765   22.1000 N   0  0  0  0  0  0
  -23.4190  -28.8183   23.3042 O   0  0  0  0  0  0
  -28.3943  -26.6792   20.0747 O   0  0  0  0  0  0
  -26.5595  -34.8919   22.4681 O   0  0  0  0  0  0
  -23.5351  -32.1418   23.7501 O   0  0  0  0  0  0
  -31.2462  -18.9731   21.2415 C   0  0  0  0  0  0
  -31.2240  -17.5708   21.0486 C   0  0  0  0  0  0
  -28.9003  -17.5326   21.7460 C   0  0  0  0  0  0
  -30.1059  -19.6674   21.7132 C   0  0  0  0  0  0
  -30.0497  -16.8277   21.3228 C   0  0  0  0  0  0
  -28.9170  -18.9313   21.9380 C   0  0  0  0  0  0
  -29.9011  -23.8535   22.8403 C   0  0  0  0  0  0
  -28.9048  -23.7459   23.7375 C   0  0  0  0  0  0
  -29.7687  -23.3728   21.4465 C   0  0  0  0  0  0
  -28.9808  -24.2410   25.1644 C   0  0  0  0  0  0
  -30.2198  -21.1403   22.1319 C   0  0  0  0  0  0
  -29.5547  -24.5028   20.4268 C   0  0  0  0  0  0
  -28.2872  -25.3696   20.6661 C   0  0  0  0  0  0
  -29.8669  -22.1323   21.1054 N   0  0  0  0  0  0
  -29.9420  -15.4012   21.2439 N   0  0  0  0  0  0
  -27.4740  -19.7023   22.5021 Cl  0  0  0  0  0  0
  -31.4745  -12.4414   19.1042 H   0  0  0  0  0  0
  -30.3585  -11.2972   19.7938 H   0  0  0  0  0  0
  -29.7325  -11.7971   17.4168 H   0  0  0  0  0  0
  -29.6560  -13.5045   17.7725 H   0  0  0  0  0  0
  -27.8247  -11.3127   18.8027 H   0  0  0  0  0  0
  -27.3637  -12.6549   17.7896 H   0  0  0  0  0  0
  -27.7184  -14.2502   19.5999 H   0  0  0  0  0  0
  -28.6901  -11.8967   21.2947 H   0  0  0  0  0  0
  -28.4589  -13.5012   21.8995 H   0  0  0  0  0  0
  -25.2758   -9.5677   22.4756 H   0  0  0  0  0  0
  -23.9995   -7.4630   22.7481 H   0  0  0  0  0  0
  -21.0831   -8.8767   19.8957 H   0  0  0  0  0  0
  -22.3687  -10.9671   19.6166 H   0  0  0  0  0  0
  -21.2005   -7.6148   23.9712 H   0  0  0  0  0  0
  -21.1483   -6.0525   25.9075 H   0  0  0  0  0  0
  -22.0601   -2.7608   23.2847 H   0  0  0  0  0  0
  -22.4132  -11.9886   22.4759 H   0  0  0  0  0  0
  -21.1146  -13.1283   22.2617 H   0  0  0  0  0  0
  -24.6710  -15.8433   20.5058 H   0  0  0  0  0  0
  -26.2848  -15.6175   20.0626 H   0  0  0  0  0  0
  -26.7127  -32.5537   23.1155 H   0  0  0  0  0  0
  -25.0083  -33.9763   25.0481 H   0  0  0  0  0  0
  -22.6928  -31.3066   21.4114 H   0  0  0  0  0  0
  -23.3744  -35.9657   23.3306 H   0  0  0  0  0  0
  -24.3589  -36.8916   22.2051 H   0  0  0  0  0  0
  -23.7253  -37.6521   23.6649 H   0  0  0  0  0  0
  -26.0429  -31.5964   20.5930 H   0  0  0  0  0  0
  -26.8232  -30.8879   21.9781 H   0  0  0  0  0  0
  -28.1097  -29.1012   21.1471 H   0  0  0  0  0  0
  -26.0524  -25.9742   18.9991 H   0  0  0  0  0  0
  -23.9759  -27.2904   19.0395 H   0  0  0  0  0  0
  -23.7245  -30.5970   19.4062 H   0  0  0  0  0  0
  -22.7368  -29.2429   19.8686 H   0  0  0  0  0  0
  -25.1285  -36.1969   25.0832 H   0  0  0  0  0  0
  -20.9941  -28.3223   24.1444 H   0  0  0  0  0  0
  -20.5683  -26.2262   23.3595 H   0  0  0  0  0  0
  -21.6633  -26.7449   22.1197 H   0  0  0  0  0  0
  -19.6913  -25.6300   21.1219 H   0  0  0  0  0  0
  -19.6692  -27.3207   20.6743 H   0  0  0  0  0  0
  -17.4194  -26.6660   21.4012 H   0  0  0  0  0  0
  -18.0316  -26.0063   22.9011 H   0  0  0  0  0  0
  -19.7932  -30.7234   24.2283 H   0  0  0  0  0  0
  -17.5018  -31.6265   24.5153 H   0  0  0  0  0  0
  -15.5345  -30.2980   23.7660 H   0  0  0  0  0  0
  -15.8659  -28.0837   22.7031 H   0  0  0  0  0  0
  -24.5930  -30.7031   25.7802 H   0  0  0  0  0  0
  -24.8938  -32.2846   26.4919 H   0  0  0  0  0  0
  -25.8115  -30.8859   27.0216 H   0  0  0  0  0  0
  -26.2832  -29.6804   24.1148 H   0  0  0  0  0  0
  -27.4107  -29.7269   25.4509 H   0  0  0  0  0  0
  -27.8659  -30.4357   23.9187 H   0  0  0  0  0  0
  -27.2671  -33.3603   26.2078 H   0  0  0  0  0  0
  -28.3870  -32.6877   25.0319 H   0  0  0  0  0  0
  -28.0722  -31.8420   26.5390 H   0  0  0  0  0  0
  -28.2595  -38.0109   24.7509 H   0  0  0  0  0  0
  -28.1078  -36.2633   24.6295 H   0  0  0  0  0  0
  -27.2293  -37.1467   25.8866 H   0  0  0  0  0  0
  -20.9319  -29.8766   21.6966 H   0  0  0  0  0  0
  -26.0181  -38.2865   24.1408 H   0  0  0  0  0  0
  -32.1682  -19.5126   21.0740 H   0  0  0  0  0  0
  -32.1324  -17.0815   20.7262 H   0  0  0  0  0  0
  -27.9864  -16.9973   21.9594 H   0  0  0  0  0  0
  -30.8478  -24.3124   23.0906 H   0  0  0  0  0  0
  -27.9717  -23.2822   23.4454 H   0  0  0  0  0  0
  -29.9521  -24.6888   25.3793 H   0  0  0  0  0  0
  -28.8191  -23.4177   25.8599 H   0  0  0  0  0  0
  -28.2102  -24.9924   25.3399 H   0  0  0  0  0  0
  -31.2479  -21.3068   22.4598 H   0  0  0  0  0  0
  -29.6143  -21.2575   23.0311 H   0  0  0  0  0  0
  -29.5386  -24.0930   19.4164 H   0  0  0  0  0  0
  -30.4330  -25.1468   20.4731 H   0  0  0  0  0  0
  -28.1169  -25.5305   21.7307 H   0  0  0  0  0  0
  -27.4228  -24.8143   20.3008 H   0  0  0  0  0  0
  -29.0767  -15.0223   21.5972 H   0  0  0  0  0  0
  1 25  1  0  0  0
  1 30  2  0  0  0
  1 85  1  0  0  0
  2  3  1  0  0  0
  2 25  1  0  0  0
  2 87  1  0  0  0
  2 88  1  0  0  0
  3  4  1  0  0  0
  3 89  1  0  0  0
  3 90  1  0  0  0
  4  5  1  0  0  0
  4 91  1  0  0  0
  4 92  1  0  0  0
  5  6  1  0  0  0
  5 26  1  0  0  0
  5 93  1  0  0  0
  6 25  1  0  0  0
  6 94  1  0  0  0
  6 95  1  0  0  0
  7  8  2  0  0  0
  7 26  1  0  0  0
  7 29  1  0  0  0
  8  9  1  0  0  0
  8 22  1  0  0  0
  9 10  1  0  0  0
  9 27  2  0  0  0
 10 11  2  0  0  0
 10 15  1  0  0  0
 11 12  1  0  0  0
 11 96  1  0  0  0
 12 13  2  0  0  0
 12 97  1  0  0  0
 13 14  1  0  0  0
 13 31  1  0  0  0
 14 15  2  0  0  0
 14 98  1  0  0  0
 15 99  1  0  0  0
 16 17  2  0  0  0
 16 21  1  0  0  0
 16 31  1  0  0  0
 17 18  1  0  0  0
 17100  1  0  0  0
 18 19  2  0  0  0
 18101  1  0  0  0
 19 20  1  0  0  0
 19 24  1  0  0  0
 20 21  2  0  0  0
 20102  1  0  0  0
 21 23  1  0  0  0
 22 28  1  0  0  0
 22 32  2  0  0  0
 26 27  1  0  0  0
 28103  1  0  0  0
 28104  1  0  0  0
 29105  1  0  0  0
 29106  1  0  0  0
 33 34  1  0  0  0
 33 66  1  0  0  0
 33 70  2  0  0  0
 34 36  1  0  0  0
 34 59  1  0  0  0
 34107  1  0  0  0
 35 44  2  0  0  0
 35 45  1  0  0  0
 35 68  1  0  0  0
 36 56  1  0  0  0
 36108  1  0  0  0
 37 39  1  0  0  0
 37 47  1  0  0  0
 37 66  1  0  0  0
 37109  1  0  0  0
 38 43  2  0  0  0
 38 46  1  0  0  0
 38 47  1  0  0  0
 39 64  1  0  0  0
 39 67  2  0  0  0
 40 52  1  0  0  0
 40 53  2  0  0  0
 40 58  1  0  0  0
 41110  1  0  0  0
 41111  1  0  0  0
 41112  1  0  0  0
 41 48  1  0  0  0
 42 43  1  0  0  0
 42 66  1  0  0  0
 42113  1  0  0  0
 42114  1  0  0  0
 43 44  1  0  0  0
 44115  1  0  0  0
 45 46  2  0  0  0
 45116  1  0  0  0
 46117  1  0  0  0
 47118  1  0  0  0
 47119  1  0  0  0
 48 56  1  0  0  0
 48 65  1  0  0  0
 48120  1  0  0  0
 49 50  1  0  0  0
 49 53  1  0  0  0
 49 64  1  0  0  0
 49121  1  0  0  0
 50 51  1  0  0  0
 50122  1  0  0  0
 50123  1  0  0  0
 51 52  1  0  0  0
 51124  1  0  0  0
 51125  1  0  0  0
 52126  1  0  0  0
 52127  1  0  0  0
 53 54  1  0  0  0
 54 55  2  0  0  0
 54128  1  0  0  0
 55 57  1  0  0  0
 55129  1  0  0  0
 56 69  2  0  0  0
 57 58  2  0  0  0
 57130  1  0  0  0
 58131  1  0  0  0
 59 60  1  0  0  0
 59 61  1  0  0  0
 59 62  1  0  0  0
 60132  1  0  0  0
 60133  1  0  0  0
 60134  1  0  0  0
 61135  1  0  0  0
 61136  1  0  0  0
 61137  1  0  0  0
 62138  1  0  0  0
 62139  1  0  0  0
 62140  1  0  0  0
 63 65  1  0  0  0
 63141  1  0  0  0
 63142  1  0  0  0
 63143  1  0  0  0
 64144  1  0  0  0
 65145  1  0  0  0
 68 83  1  0  0  0
 71 72  2  0  0  0
 71 74  1  0  0  0
 71146  1  0  0  0
 72 75  1  0  0  0
 72147  1  0  0  0
 73 75  2  0  0  0
 73 76  1  0  0  0
 73148  1  0  0  0
 74 76  2  0  0  0
 74 81  1  0  0  0
 75 85  1  0  0  0
 76 86  1  0  0  0
 77 78  2  0  0  0
 77 79  1  0  0  0
 77149  1  0  0  0
 78 80  1  0  0  0
 78150  1  0  0  0
 79 82  1  0  0  0
 79 84  2  0  0  0
 80151  1  0  0  0
 80152  1  0  0  0
 80153  1  0  0  0
 81 84  1  0  0  0
 81154  1  0  0  0
 81155  1  0  0  0
 82 83  1  0  0  0
 82156  1  0  0  0
 82157  1  0  0  0
 83158  1  0  0  0
 83159  1  0  0  0
 85160  1  0  0  0
M  ISO  4   1 100  68 101  83 101  85 100
M  END
> <chiral flag>
0

> <version>
0

> <s_m_source_file>
/data/baiqing/PycharmProjects/Reinvent-master-3.2/result/LINK_invent/BTK/process_docking_weight1_custom_product_contain_oxygen_bond_distance_aromatic_linkinvent_7_9_3/rearranged_h_0040.sdf

> <i_m_source_file_index>
71

> <r_mmod_Potential_Energy-OPLS-2005>
16.259801864624

> <r_mmod_Stretch_Energy-OPLS-2005>
42.4047241210938

> <r_mmod_Bend_Energy-OPLS-2005>
106.193626403809

> <r_mmod_Torsional_Energy-OPLS-2005>
252.515670776367

> <r_mmod_Improper_Torsional_Energy-OPLS-2005>
3.94143605232239

> <r_mmod_Van_der_Waal_Energy-OPLS-2005>
157.775955200195

> <r_mmod_Electrostatic_Energy-OPLS-2005>
-349.841491699219

> <r_mmod_Solvation_Energy-OPLS-2005>
-208.702346801758

> <b_mmod_Minimization_Converged-OPLS-2005>
0

> <r_mmod_RMS_Derivative-OPLS-2005>
1.1860454082489

$$$$
71
                    3D
 Structure written by MMmdl.
175184  0  0  1  0            999 V2000
  -30.6171  -14.7453   20.4117 C   0  0  0  0  0  0
  -30.4314  -12.4490   19.4677 C   0  0  0  0  0  0
  -29.5093  -12.5008   18.2309 C   0  0  0  0  0  0
  -28.0342  -12.3333   18.6444 C   0  0  0  0  0  0
  -27.6401  -13.2362   19.8443 C   0  0  2  0  0  0
  -28.6882  -13.1802   20.9759 C   0  0  0  0  0  0
  -25.2511  -13.8212   20.5710 C   0  0  0  0  0  0
  -24.1805  -13.0444   20.9219 C   0  0  0  0  0  0
  -24.6409  -11.6926   20.8755 C   0  0  0  0  0  0
  -23.9094  -10.4292   21.0413 C   0  0  0  0  0  0
  -24.3642   -9.4202   21.9190 C   0  0  0  0  0  0
  -23.6305   -8.2242   22.0763 C   0  0  0  0  0  0
  -22.4285   -8.0285   21.3553 C   0  0  0  0  0  0
  -21.9935   -9.0265   20.4654 C   0  0  0  0  0  0
  -22.7271  -10.2139   20.3060 C   0  0  0  0  0  0
  -21.6856   -6.0743   22.5282 C   0  0  0  0  0  0
  -21.4009   -6.5645   23.8218 C   0  0  0  0  0  0
  -21.3659   -5.6801   24.9179 C   0  0  0  0  0  0
  -21.6045   -4.3065   24.7227 C   0  0  0  0  0  0
  -21.8818   -3.8156   23.4345 C   0  0  0  0  0  0
  -21.9188   -4.6972   22.3403 C   0  0  0  0  0  0
  -22.7823  -13.5215   21.1868 C   0  0  0  0  0  0
  -22.1666   -4.2158   21.0984 F   0  0  0  0  0  0
  -21.5622   -3.4547   25.7735 F   0  0  0  0  0  0
  -29.9864  -13.5228   20.3839 N   0  0  0  0  0  0
  -26.2939  -12.9429   20.3266 N   0  0  0  0  0  0
  -25.9342  -11.6567   20.5756 N   0  0  0  0  0  0
  -22.0470  -12.8198   22.0421 N   0  0  0  0  0  0
  -25.4164  -15.1943   20.4132 N   0  0  0  0  0  0
  -31.8388  -14.7933   20.2541 O   0  0  0  0  0  0
  -21.6637   -6.8888   21.4252 O   0  0  0  0  0  0
  -22.3500  -14.5517   20.6718 O   0  0  0  0  0  0
  -24.6320  -31.8557   23.1976 C   0  0  0  0  0  0
  -25.9145  -32.4754   23.8326 C   0  0  1  0  0  0
  -27.2168  -27.2567   20.1357 C   0  0  0  0  0  0
  -25.5944  -33.8557   24.2258 N   0  0  0  0  0  0
  -23.4286  -30.4775   21.5418 C   0  0  2  0  0  0
  -24.8752  -28.9205   20.1146 C   0  0  0  0  0  0
  -22.7502  -29.4609   22.4917 C   0  0  0  0  0  0
  -18.0295  -28.1389   22.8487 C   0  0  0  0  0  0
  -24.1490  -36.7280   23.2638 C   0  0  0  0  0  0
  -25.9749  -30.7658   21.3782 C   0  0  0  0  0  0
  -26.0473  -29.3866   20.7240 C   0  0  0  0  0  0
  -27.2228  -28.5685   20.7210 C   0  0  0  0  0  0
  -26.0266  -26.8640   19.4864 C   0  0  0  0  0  0
  -24.8703  -27.6677   19.4835 C   0  0  0  0  0  0
  -23.6473  -29.8095   20.1592 C   0  0  0  0  0  0
  -25.4116  -36.3070   24.0326 C   0  0  1  0  0  0
  -20.5899  -28.3707   23.1267 C   0  0  2  0  0  0
  -20.6785  -26.9424   22.5409 C   0  0  0  0  0  0
  -19.5759  -26.6388   21.5215 C   0  0  0  0  0  0
  -18.1938  -26.7932   22.1623 C   0  0  0  0  0  0
  -19.1545  -28.8863   23.2873 C   0  0  0  0  0  0
  -18.9468  -30.1465   23.8894 C   0  0  0  0  0  0
  -17.6466  -30.6589   24.0562 C   0  0  0  0  0  0
  -25.9062  -34.9441   23.5097 C   0  0  0  0  0  0
  -16.5360  -29.9089   23.6330 C   0  0  0  0  0  0
  -16.7280  -28.6503   23.0357 C   0  0  0  0  0  0
  -26.4509  -31.6576   25.0716 C   0  0  0  0  0  0
  -25.3729  -31.3718   26.1432 C   0  0  0  0  0  0
  -27.0357  -30.2993   24.6199 C   0  0  0  0  0  0
  -27.6065  -32.4313   25.7492 C   0  0  0  0  0  0
  -27.5580  -37.1794   24.8463 C   0  0  0  0  0  0
  -21.4211  -29.3052   22.3653 N   0  0  0  0  0  0
  -26.4290  -37.3772   23.9410 N   0  0  0  0  0  0
  -24.6976  -31.0515   22.0954 N   0  0  0  0  0  0
  -23.4199  -28.8150   23.3020 O   0  0  0  0  0  0
  -28.3136  -26.3652   20.1572 O   0  0  0  0  0  0
  -26.5632  -34.8916   22.4663 O   0  0  0  0  0  0
  -23.5469  -32.1384   23.7269 O   0  0  0  0  0  0
  -29.4562  -18.4905   20.3173 C   0  0  0  0  0  0
  -29.6479  -19.8220   19.7405 C   0  0  0  0  0  0
  -30.6170  -19.9081   18.7007 C   0  0  0  0  0  0
  -31.2642  -18.7408   18.2116 C   0  0  0  0  0  0
  -30.1109  -17.2708   19.8443 C   0  0  0  0  0  0
  -30.9388  -17.4464   18.6952 C   0  0  0  0  0  0
  -32.0917  -23.5504   22.2067 C   0  0  0  0  0  0
  -31.1773  -22.6821   23.0899 C   0  0  0  0  0  0
  -31.7986  -23.5391   20.6923 C   0  0  0  0  0  0
  -29.7092  -23.1427   23.1319 C   0  0  0  0  0  0
  -30.6047  -24.4256   20.2570 C   0  0  0  0  0  0
  -28.7827  -22.3363   22.2034 C   0  0  0  0  0  0
  -29.1954  -23.7787   20.1209 C   0  0  2  0  0  0
  -30.9238  -21.2297   17.9941 C   0  0  0  0  0  0
  -32.2771  -18.8672   17.0690 C   0  0  0  0  0  0
  -28.7087  -21.0976   20.0325 C   0  0  0  0  0  0
  -28.0903  -24.9126   20.5136 C   0  0  0  0  0  0
  -29.8397  -15.9033   20.4002 N   0  0  0  0  0  0
  -29.2017  -22.3602   20.7777 N   0  3  2  0  0  0
  -31.4332  -16.1035   17.7065 Cl  0  0  0  0  0  0
  -31.4727  -12.5713   19.1639 H   0  0  0  0  0  0
  -30.3726  -11.4752   19.9567 H   0  0  0  0  0  0
  -29.7870  -11.7251   17.5156 H   0  0  0  0  0  0
  -29.6401  -13.4529   17.7144 H   0  0  0  0  0  0
  -27.8839  -11.2850   18.9052 H   0  0  0  0  0  0
  -27.3809  -12.5309   17.7936 H   0  0  0  0  0  0
  -27.6289  -14.2549   19.4569 H   0  0  0  0  0  0
  -28.7235  -12.1870   21.4267 H   0  0  0  0  0  0
  -28.4341  -13.8750   21.7784 H   0  0  0  0  0  0
  -25.2796   -9.5670   22.4760 H   0  0  0  0  0  0
  -24.0004   -7.4635   22.7490 H   0  0  0  0  0  0
  -21.0868   -8.8803   19.8957 H   0  0  0  0  0  0
  -22.3749  -10.9683   19.6163 H   0  0  0  0  0  0
  -21.2007   -7.6154   23.9724 H   0  0  0  0  0  0
  -21.1485   -6.0529   25.9080 H   0  0  0  0  0  0
  -22.0595   -2.7616   23.2849 H   0  0  0  0  0  0
  -22.4095  -11.9849   22.4778 H   0  0  0  0  0  0
  -21.1087  -13.1211   22.2638 H   0  0  0  0  0  0
  -24.6430  -15.8422   20.5190 H   0  0  0  0  0  0
  -26.2546  -15.6377   20.0610 H   0  0  0  0  0  0
  -26.7212  -32.5404   23.1068 H   0  0  0  0  0  0
  -25.0094  -33.9695   25.0406 H   0  0  0  0  0  0
  -22.7260  -31.3003   21.3946 H   0  0  0  0  0  0
  -23.3762  -35.9602   23.3293 H   0  0  0  0  0  0
  -24.3579  -36.8911   22.2053 H   0  0  0  0  0  0
  -23.7236  -37.6474   23.6669 H   0  0  0  0  0  0
  -26.1147  -31.5230   20.6053 H   0  0  0  0  0  0
  -26.8524  -30.8165   22.0113 H   0  0  0  0  0  0
  -28.1214  -28.9219   21.2066 H   0  0  0  0  0  0
  -25.9705  -25.9178   18.9684 H   0  0  0  0  0  0
  -23.9766  -27.3103   18.9904 H   0  0  0  0  0  0
  -23.7752  -30.5848   19.4029 H   0  0  0  0  0  0
  -22.7646  -29.2446   19.8531 H   0  0  0  0  0  0
  -25.1298  -36.1913   25.0820 H   0  0  0  0  0  0
  -20.9994  -28.3292   24.1386 H   0  0  0  0  0  0
  -20.5694  -26.2319   23.3615 H   0  0  0  0  0  0
  -21.6650  -26.7452   22.1200 H   0  0  0  0  0  0
  -19.6922  -25.6299   21.1247 H   0  0  0  0  0  0
  -19.6689  -27.3196   20.6740 H   0  0  0  0  0  0
  -17.4208  -26.6687   21.4024 H   0  0  0  0  0  0
  -18.0331  -26.0071   22.9018 H   0  0  0  0  0  0
  -19.7942  -30.7281   24.2264 H   0  0  0  0  0  0
  -17.5020  -31.6267   24.5167 H   0  0  0  0  0  0
  -15.5362  -30.2989   23.7653 H   0  0  0  0  0  0
  -15.8682  -28.0818   22.7079 H   0  0  0  0  0  0
  -24.5918  -30.7053   25.7755 H   0  0  0  0  0  0
  -24.8901  -32.2882   26.4840 H   0  0  0  0  0  0
  -25.8047  -30.8910   27.0220 H   0  0  0  0  0  0
  -26.2936  -29.6735   24.1225 H   0  0  0  0  0  0
  -27.4044  -29.7259   25.4715 H   0  0  0  0  0  0
  -27.8815  -30.4269   23.9438 H   0  0  0  0  0  0
  -27.2681  -33.3625   26.2047 H   0  0  0  0  0  0
  -28.3887  -32.6851   25.0325 H   0  0  0  0  0  0
  -28.0719  -31.8448   26.5424 H   0  0  0  0  0  0
  -28.2587  -38.0103   24.7533 H   0  0  0  0  0  0
  -28.1093  -36.2637   24.6268 H   0  0  0  0  0  0
  -27.2302  -37.1415   25.8866 H   0  0  0  0  0  0
  -20.9400  -29.8768   21.6848 H   0  0  0  0  0  0
  -26.0168  -38.2844   24.1422 H   0  0  0  0  0  0
  -28.7272  -18.3881   21.1094 H   0  0  0  0  0  0
  -33.1142  -23.1978   22.3524 H   0  0  0  0  0  0
  -32.0937  -24.5771   22.5769 H   0  0  0  0  0  0
  -31.5704  -22.7328   24.1072 H   0  0  0  0  0  0
  -31.2538  -21.6294   22.8121 H   0  0  0  0  0  0
  -31.7479  -22.5216   20.3091 H   0  0  0  0  0  0
  -32.6841  -23.9599   20.2133 H   0  0  0  0  0  0
  -29.6401  -24.2143   22.9520 H   0  0  0  0  0  0
  -29.3366  -23.0074   24.1481 H   0  0  0  0  0  0
  -30.8482  -24.8702   19.2904 H   0  0  0  0  0  0
  -30.5581  -25.2814   20.9320 H   0  0  0  0  0  0
  -27.7495  -22.6726   22.2976 H   0  0  0  0  0  0
  -28.7890  -21.3038   22.5565 H   0  0  0  0  0  0
  -29.0456  -23.6172   19.0545 H   0  0  0  0  0  0
  -30.2656  -22.0497   18.2413 H   0  0  0  0  0  0
  -30.8445  -21.1132   16.9125 H   0  0  0  0  0  0
  -31.9395  -21.5550   18.2188 H   0  0  0  0  0  0
  -32.8738  -19.7750   17.1413 H   0  0  0  0  0  0
  -31.7669  -18.8680   16.1052 H   0  0  0  0  0  0
  -33.0085  -18.0600   17.0648 H   0  0  0  0  0  0
  -27.8236  -20.7209   20.5463 H   0  0  0  0  0  0
  -28.3009  -21.4139   19.0719 H   0  0  0  0  0  0
  -27.9605  -24.9216   21.5941 H   0  0  0  0  0  0
  -27.1337  -24.5602   20.1324 H   0  0  0  0  0  0
  -28.8916  -15.7546   20.7099 H   0  0  0  0  0  0
  -30.1936  -22.1762   20.8324 H   0  0  0  0  0  0
  1 25  1  0  0  0
  1 30  2  0  0  0
  1 88  1  0  0  0
  2  3  1  0  0  0
  2 25  1  0  0  0
  2 91  1  0  0  0
  2 92  1  0  0  0
  3  4  1  0  0  0
  3 93  1  0  0  0
  3 94  1  0  0  0
  4  5  1  0  0  0
  4 95  1  0  0  0
  4 96  1  0  0  0
  5  6  1  0  0  0
  5 26  1  0  0  0
  5 97  1  0  0  0
  6 25  1  0  0  0
  6 98  1  0  0  0
  6 99  1  0  0  0
  7  8  2  0  0  0
  7 26  1  0  0  0
  7 29  1  0  0  0
  8  9  1  0  0  0
  8 22  1  0  0  0
  9 10  1  0  0  0
  9 27  2  0  0  0
 10 11  2  0  0  0
 10 15  1  0  0  0
 11 12  1  0  0  0
 11100  1  0  0  0
 12 13  2  0  0  0
 12101  1  0  0  0
 13 14  1  0  0  0
 13 31  1  0  0  0
 14 15  2  0  0  0
 14102  1  0  0  0
 15103  1  0  0  0
 16 17  2  0  0  0
 16 21  1  0  0  0
 16 31  1  0  0  0
 17 18  1  0  0  0
 17104  1  0  0  0
 18 19  2  0  0  0
 18105  1  0  0  0
 19 20  1  0  0  0
 19 24  1  0  0  0
 20 21  2  0  0  0
 20106  1  0  0  0
 21 23  1  0  0  0
 22 28  1  0  0  0
 22 32  2  0  0  0
 26 27  1  0  0  0
 28107  1  0  0  0
 28108  1  0  0  0
 29109  1  0  0  0
 29110  1  0  0  0
 33 34  1  0  0  0
 33 66  1  0  0  0
 33 70  2  0  0  0
 34 36  1  0  0  0
 34 59  1  0  0  0
 34111  1  0  0  0
 35 44  2  0  0  0
 35 45  1  0  0  0
 35 68  1  0  0  0
 36 56  1  0  0  0
 36112  1  0  0  0
 37 39  1  0  0  0
 37 47  1  0  0  0
 37 66  1  0  0  0
 37113  1  0  0  0
 38 43  2  0  0  0
 38 46  1  0  0  0
 38 47  1  0  0  0
 39 64  1  0  0  0
 39 67  2  0  0  0
 40 52  1  0  0  0
 40 53  2  0  0  0
 40 58  1  0  0  0
 41114  1  0  0  0
 41115  1  0  0  0
 41116  1  0  0  0
 41 48  1  0  0  0
 42 43  1  0  0  0
 42 66  1  0  0  0
 42117  1  0  0  0
 42118  1  0  0  0
 43 44  1  0  0  0
 44119  1  0  0  0
 45 46  2  0  0  0
 45120  1  0  0  0
 46121  1  0  0  0
 47122  1  0  0  0
 47123  1  0  0  0
 48 56  1  0  0  0
 48 65  1  0  0  0
 48124  1  0  0  0
 49 50  1  0  0  0
 49 53  1  0  0  0
 49 64  1  0  0  0
 49125  1  0  0  0
 50 51  1  0  0  0
 50126  1  0  0  0
 50127  1  0  0  0
 51 52  1  0  0  0
 51128  1  0  0  0
 51129  1  0  0  0
 52130  1  0  0  0
 52131  1  0  0  0
 53 54  1  0  0  0
 54 55  2  0  0  0
 54132  1  0  0  0
 55 57  1  0  0  0
 55133  1  0  0  0
 56 69  2  0  0  0
 57 58  2  0  0  0
 57134  1  0  0  0
 58135  1  0  0  0
 59 60  1  0  0  0
 59 61  1  0  0  0
 59 62  1  0  0  0
 60136  1  0  0  0
 60137  1  0  0  0
 60138  1  0  0  0
 61139  1  0  0  0
 61140  1  0  0  0
 61141  1  0  0  0
 62142  1  0  0  0
 62143  1  0  0  0
 62144  1  0  0  0
 63 65  1  0  0  0
 63145  1  0  0  0
 63146  1  0  0  0
 63147  1  0  0  0
 64148  1  0  0  0
 65149  1  0  0  0
 68 87  1  0  0  0
 71 72  2  0  0  0
 71 75  1  0  0  0
 71150  1  0  0  0
 72 73  1  0  0  0
 72 86  1  0  0  0
 73 74  2  0  0  0
 73 84  1  0  0  0
 74 76  1  0  0  0
 74 85  1  0  0  0
 75 76  2  0  0  0
 75 88  1  0  0  0
 76 90  1  0  0  0
 77 78  1  0  0  0
 77 79  1  0  0  0
 77151  1  0  0  0
 77152  1  0  0  0
 78 80  1  0  0  0
 78153  1  0  0  0
 78154  1  0  0  0
 79 81  1  0  0  0
 79155  1  0  0  0
 79156  1  0  0  0
 80 82  1  0  0  0
 80157  1  0  0  0
 80158  1  0  0  0
 81 83  1  0  0  0
 81159  1  0  0  0
 81160  1  0  0  0
 82 89  1  0  0  0
 82161  1  0  0  0
 82162  1  0  0  0
 83 87  1  0  0  0
 83 89  1  0  0  0
 83163  1  0  0  0
 84164  1  0  0  0
 84165  1  0  0  0
 84166  1  0  0  0
 85167  1  0  0  0
 85168  1  0  0  0
 85169  1  0  0  0
 86170  1  0  0  0
 86171  1  0  0  0
 86 89  1  0  0  0
 87172  1  0  0  0
 87173  1  0  0  0
 88174  1  0  0  0
 89175  1  0  0  0
M  CHG  1  89   1
M  ISO  4   1 100  68 101  87 101  88 100
M  END
> <chiral flag>
0

> <version>
0

> <s_m_source_file>
/data/baiqing/PycharmProjects/Reinvent-master-3.2/result/LINK_invent/BTK/process_docking_weight1_custom_product_contain_oxygen_bond_distance_aromatic_linkinvent_7_9_3/rearranged_h_0040.sdf

> <i_m_source_file_index>
72

> <r_mmod_Potential_Energy-OPLS-2005>
268.694061279297

> <r_mmod_Stretch_Energy-OPLS-2005>
148.370574951172

> <r_mmod_Bend_Energy-OPLS-2005>
200.767181396484

> <r_mmod_Torsional_Energy-OPLS-2005>
336.388519287109

> <r_mmod_Improper_Torsional_Energy-OPLS-2005>
7.43813037872314

> <r_mmod_Van_der_Waal_Energy-OPLS-2005>
162.69303894043

> <r_mmod_Electrostatic_Energy-OPLS-2005>
-249.891464233398

> <r_mmod_Solvation_Energy-OPLS-2005>
-427.383544921875

> <b_mmod_Minimization_Converged-OPLS-2005>
0

> <r_mmod_RMS_Derivative-OPLS-2005>
1.34319043159485

$$$$
72
                    3D
 Structure written by MMmdl.
159167  0  0  1  0            999 V2000
  -30.7012  -14.4555   20.5839 C   0  0  0  0  0  0
  -30.4194  -12.3050   19.4080 C   0  0  0  0  0  0
  -29.4849  -12.4998   18.1968 C   0  0  0  0  0  0
  -28.0068  -12.3666   18.6131 C   0  0  0  0  0  0
  -27.6589  -13.2035   19.8736 C   0  0  2  0  0  0
  -28.7022  -12.9733   20.9883 C   0  0  0  0  0  0
  -25.2587  -13.8173   20.5694 C   0  0  0  0  0  0
  -24.1828  -13.0452   20.9174 C   0  0  0  0  0  0
  -24.6378  -11.6915   20.8740 C   0  0  0  0  0  0
  -23.9041  -10.4300   21.0405 C   0  0  0  0  0  0
  -24.3606   -9.4218   21.9184 C   0  0  0  0  0  0
  -23.6287   -8.2249   22.0758 C   0  0  0  0  0  0
  -22.4266   -8.0280   21.3546 C   0  0  0  0  0  0
  -21.9896   -9.0249   20.4645 C   0  0  0  0  0  0
  -22.7220  -10.2131   20.3050 C   0  0  0  0  0  0
  -21.6848   -6.0727   22.5275 C   0  0  0  0  0  0
  -21.4008   -6.5635   23.8208 C   0  0  0  0  0  0
  -21.3661   -5.6790   24.9173 C   0  0  0  0  0  0
  -21.6042   -4.3052   24.7224 C   0  0  0  0  0  0
  -21.8822   -3.8142   23.4345 C   0  0  0  0  0  0
  -21.9196   -4.6955   22.3401 C   0  0  0  0  0  0
  -22.7851  -13.5252   21.1846 C   0  0  0  0  0  0
  -22.1655   -4.2140   21.0976 F   0  0  0  0  0  0
  -21.5635   -3.4534   25.7741 F   0  0  0  0  0  0
  -30.0282  -13.2851   20.4315 N   0  0  0  0  0  0
  -26.3009  -12.9327   20.3378 N   0  0  0  0  0  0
  -25.9297  -11.6494   20.5775 N   0  0  0  0  0  0
  -22.0484  -12.8236   22.0386 N   0  0  0  0  0  0
  -25.4357  -15.1891   20.4143 N   0  0  0  0  0  0
  -31.8243  -14.6474   20.1074 O   0  0  0  0  0  0
  -21.6638   -6.8869   21.4236 O   0  0  0  0  0  0
  -22.3541  -14.5569   20.6712 O   0  0  0  0  0  0
  -24.6167  -31.8662   23.2072 C   0  0  0  0  0  0
  -25.9062  -32.4800   23.8358 C   0  0  1  0  0  0
  -27.2262  -27.4126   20.0916 C   0  0  0  0  0  0
  -25.5937  -33.8598   24.2306 N   0  0  0  0  0  0
  -23.4017  -30.4928   21.5487 C   0  0  2  0  0  0
  -24.8437  -28.9521   20.1144 C   0  0  0  0  0  0
  -22.7405  -29.4667   22.4968 C   0  0  0  0  0  0
  -18.0274  -28.1355   22.8468 C   0  0  0  0  0  0
  -24.1497  -36.7281   23.2635 C   0  0  0  0  0  0
  -25.9329  -30.8252   21.3611 C   0  0  0  0  0  0
  -26.0055  -29.4584   20.7062 C   0  0  0  0  0  0
  -27.1976  -28.6976   20.6878 C   0  0  0  0  0  0
  -26.0400  -26.9189   19.5032 C   0  0  0  0  0  0
  -24.8574  -27.6826   19.5106 C   0  0  0  0  0  0
  -23.6083  -29.8232   20.1640 C   0  0  0  0  0  0
  -25.4115  -36.3087   24.0338 C   0  0  1  0  0  0
  -20.5866  -28.3652   23.1287 C   0  0  2  0  0  0
  -20.6769  -26.9383   22.5393 C   0  0  0  0  0  0
  -19.5757  -26.6363   21.5190 C   0  0  0  0  0  0
  -18.1935  -26.7907   22.1594 C   0  0  0  0  0  0
  -19.1526  -28.8826   23.2876 C   0  0  0  0  0  0
  -18.9467  -30.1433   23.8880 C   0  0  0  0  0  0
  -17.6466  -30.6562   24.0562 C   0  0  0  0  0  0
  -25.9041  -34.9461   23.5111 C   0  0  0  0  0  0
  -16.5358  -29.9067   23.6325 C   0  0  0  0  0  0
  -16.7260  -28.6490   23.0327 C   0  0  0  0  0  0
  -26.4481  -31.6578   25.0697 C   0  0  0  0  0  0
  -25.3749  -31.3688   26.1455 C   0  0  0  0  0  0
  -27.0312  -30.3026   24.6065 C   0  0  0  0  0  0
  -27.6062  -32.4291   25.7465 C   0  0  0  0  0  0
  -27.5583  -37.1793   24.8465 C   0  0  0  0  0  0
  -21.4141  -29.3032   22.3709 N   0  0  0  0  0  0
  -26.4288  -37.3785   23.9425 N   0  0  0  0  0  0
  -24.6687  -31.0767   22.0966 N   0  0  0  0  0  0
  -23.4195  -28.8188   23.2989 O   0  0  0  0  0  0
  -28.4150  -26.7051   20.1095 O   0  0  0  0  0  0
  -26.5580  -34.8924   22.4660 O   0  0  0  0  0  0
  -23.5362  -32.1417   23.7467 O   0  0  0  0  0  0
  -27.9060  -19.5793   21.5347 C   0  0  0  0  0  0
  -30.2256  -18.8398   20.1534 C   0  0  0  0  0  0
  -28.5288  -18.3380   21.8225 C   0  0  0  0  0  0
  -28.4406  -20.4713   20.5741 C   0  0  0  0  0  0
  -29.7269  -17.9762   21.1549 C   0  0  0  0  0  0
  -29.5948  -20.0688   19.8603 C   0  0  0  0  0  0
  -27.9146  -17.4277   22.8745 C   0  0  0  0  0  0
  -30.5645  -16.7545   21.5625 C   0  0  0  0  0  0
  -27.7680  -21.8330   20.3136 C   0  0  0  0  0  0
  -27.9621  -24.3319   20.8011 C   0  0  0  0  0  0
  -28.4722  -25.3185   19.7133 C   0  0  0  0  0  0
  -30.0249  -15.4370   21.2075 N   0  0  0  0  0  0
  -28.6045  -22.9801   20.7578 N   0  3  0  0  0  0
  -30.2870  -21.0962   18.6549 Cl  0  0  0  0  0  0
  -31.4620  -12.4094   19.1012 H   0  0  0  0  0  0
  -30.3290  -11.2931   19.8050 H   0  0  0  0  0  0
  -29.7192  -11.7702   17.4200 H   0  0  0  0  0  0
  -29.6519  -13.4821   17.7530 H   0  0  0  0  0  0
  -27.8095  -11.3113   18.8028 H   0  0  0  0  0  0
  -27.3561  -12.6498   17.7854 H   0  0  0  0  0  0
  -27.7069  -14.2529   19.5824 H   0  0  0  0  0  0
  -28.6821  -11.9325   21.3155 H   0  0  0  0  0  0
  -28.4665  -13.5578   21.8780 H   0  0  0  0  0  0
  -25.2749   -9.5694   22.4753 H   0  0  0  0  0  0
  -23.9993   -7.4641   22.7473 H   0  0  0  0  0  0
  -21.0833   -8.8763   19.8943 H   0  0  0  0  0  0
  -22.3683  -10.9669   19.6153 H   0  0  0  0  0  0
  -21.1995   -7.6144   23.9711 H   0  0  0  0  0  0
  -21.1471   -6.0517   25.9075 H   0  0  0  0  0  0
  -22.0605   -2.7600   23.2850 H   0  0  0  0  0  0
  -22.4084  -11.9883   22.4751 H   0  0  0  0  0  0
  -21.1105  -13.1262   22.2592 H   0  0  0  0  0  0
  -24.6797  -15.8528   20.5404 H   0  0  0  0  0  0
  -26.2974  -15.6260   20.1133 H   0  0  0  0  0  0
  -26.7125  -32.5496   23.1102 H   0  0  0  0  0  0
  -25.0214  -33.9761   25.0544 H   0  0  0  0  0  0
  -22.6924  -31.3115   21.4086 H   0  0  0  0  0  0
  -23.3782  -35.9594   23.3297 H   0  0  0  0  0  0
  -24.3601  -36.8875   22.2050 H   0  0  0  0  0  0
  -23.7222  -37.6479   23.6638 H   0  0  0  0  0  0
  -26.0530  -31.5912   20.5933 H   0  0  0  0  0  0
  -26.8190  -30.8727   21.9815 H   0  0  0  0  0  0
  -28.0972  -29.0878   21.1420 H   0  0  0  0  0  0
  -25.9962  -25.9467   19.0343 H   0  0  0  0  0  0
  -23.9617  -27.2845   19.0536 H   0  0  0  0  0  0
  -23.7179  -30.5986   19.4059 H   0  0  0  0  0  0
  -22.7302  -29.2466   19.8656 H   0  0  0  0  0  0
  -25.1284  -36.1938   25.0832 H   0  0  0  0  0  0
  -20.9959  -28.3218   24.1407 H   0  0  0  0  0  0
  -20.5665  -26.2255   23.3578 H   0  0  0  0  0  0
  -21.6639  -26.7411   22.1190 H   0  0  0  0  0  0
  -19.6934  -25.6280   21.1198 H   0  0  0  0  0  0
  -19.6717  -27.3187   20.6739 H   0  0  0  0  0  0
  -17.4204  -26.6647   21.3997 H   0  0  0  0  0  0
  -18.0337  -26.0033   22.8979 H   0  0  0  0  0  0
  -19.7958  -30.7238   24.2226 H   0  0  0  0  0  0
  -17.5044  -31.6247   24.5152 H   0  0  0  0  0  0
  -15.5364  -30.2972   23.7665 H   0  0  0  0  0  0
  -15.8661  -28.0815   22.7036 H   0  0  0  0  0  0
  -24.5980  -30.6950   25.7816 H   0  0  0  0  0  0
  -24.8887  -32.2839   26.4844 H   0  0  0  0  0  0
  -25.8130  -30.8937   27.0244 H   0  0  0  0  0  0
  -26.2851  -29.6776   24.1144 H   0  0  0  0  0  0
  -27.4130  -29.7253   25.4491 H   0  0  0  0  0  0
  -27.8655  -30.4351   23.9174 H   0  0  0  0  0  0
  -27.2709  -33.3629   26.1982 H   0  0  0  0  0  0
  -28.3912  -32.6761   25.0307 H   0  0  0  0  0  0
  -28.0673  -31.8436   26.5424 H   0  0  0  0  0  0
  -28.2564  -38.0126   24.7551 H   0  0  0  0  0  0
  -28.1105  -36.2656   24.6229 H   0  0  0  0  0  0
  -27.2306  -37.1345   25.8865 H   0  0  0  0  0  0
  -20.9295  -29.8778   21.6950 H   0  0  0  0  0  0
  -26.0166  -38.2847   24.1486 H   0  0  0  0  0  0
  -27.0090  -19.8572   22.0721 H   0  0  0  0  0  0
  -31.1322  -18.5783   19.6260 H   0  0  0  0  0  0
  -27.0126  -17.8630   23.3053 H   0  0  0  0  0  0
  -28.6134  -17.2455   23.6910 H   0  0  0  0  0  0
  -27.6338  -16.4690   22.4371 H   0  0  0  0  0  0
  -30.6995  -16.7749   22.6446 H   0  0  0  0  0  0
  -31.5721  -16.8814   21.1627 H   0  0  0  0  0  0
  -26.8121  -21.8591   20.8403 H   0  0  0  0  0  0
  -27.5353  -21.9323   19.2531 H   0  0  0  0  0  0
  -26.8742  -24.2622   20.7876 H   0  0  0  0  0  0
  -28.2194  -24.7523   21.7734 H   0  0  0  0  0  0
  -27.9940  -25.1406   18.7499 H   0  0  0  0  0  0
  -29.5313  -25.1247   19.5409 H   0  0  0  0  0  0
  -29.0953  -15.2144   21.5268 H   0  0  0  0  0  0
  -29.4365  -23.0031   20.1861 H   0  0  0  0  0  0
  -28.9037  -22.7640   21.6960 H   0  0  0  0  0  0
  1 25  1  0  0  0
  1 30  2  0  0  0
  1 82  1  0  0  0
  2  3  1  0  0  0
  2 25  1  0  0  0
  2 85  1  0  0  0
  2 86  1  0  0  0
  3  4  1  0  0  0
  3 87  1  0  0  0
  3 88  1  0  0  0
  4  5  1  0  0  0
  4 89  1  0  0  0
  4 90  1  0  0  0
  5  6  1  0  0  0
  5 26  1  0  0  0
  5 91  1  0  0  0
  6 25  1  0  0  0
  6 92  1  0  0  0
  6 93  1  0  0  0
  7  8  2  0  0  0
  7 26  1  0  0  0
  7 29  1  0  0  0
  8  9  1  0  0  0
  8 22  1  0  0  0
  9 10  1  0  0  0
  9 27  2  0  0  0
 10 11  2  0  0  0
 10 15  1  0  0  0
 11 12  1  0  0  0
 11 94  1  0  0  0
 12 13  2  0  0  0
 12 95  1  0  0  0
 13 14  1  0  0  0
 13 31  1  0  0  0
 14 15  2  0  0  0
 14 96  1  0  0  0
 15 97  1  0  0  0
 16 17  2  0  0  0
 16 21  1  0  0  0
 16 31  1  0  0  0
 17 18  1  0  0  0
 17 98  1  0  0  0
 18 19  2  0  0  0
 18 99  1  0  0  0
 19 20  1  0  0  0
 19 24  1  0  0  0
 20 21  2  0  0  0
 20100  1  0  0  0
 21 23  1  0  0  0
 22 28  1  0  0  0
 22 32  2  0  0  0
 26 27  1  0  0  0
 28101  1  0  0  0
 28102  1  0  0  0
 29103  1  0  0  0
 29104  1  0  0  0
 33 34  1  0  0  0
 33 66  1  0  0  0
 33 70  2  0  0  0
 34 36  1  0  0  0
 34 59  1  0  0  0
 34105  1  0  0  0
 35 44  2  0  0  0
 35 45  1  0  0  0
 35 68  1  0  0  0
 36 56  1  0  0  0
 36106  1  0  0  0
 37 39  1  0  0  0
 37 47  1  0  0  0
 37 66  1  0  0  0
 37107  1  0  0  0
 38 43  2  0  0  0
 38 46  1  0  0  0
 38 47  1  0  0  0
 39 64  1  0  0  0
 39 67  2  0  0  0
 40 52  1  0  0  0
 40 53  2  0  0  0
 40 58  1  0  0  0
 41108  1  0  0  0
 41109  1  0  0  0
 41110  1  0  0  0
 41 48  1  0  0  0
 42 43  1  0  0  0
 42 66  1  0  0  0
 42111  1  0  0  0
 42112  1  0  0  0
 43 44  1  0  0  0
 44113  1  0  0  0
 45 46  2  0  0  0
 45114  1  0  0  0
 46115  1  0  0  0
 47116  1  0  0  0
 47117  1  0  0  0
 48 56  1  0  0  0
 48 65  1  0  0  0
 48118  1  0  0  0
 49 50  1  0  0  0
 49 53  1  0  0  0
 49 64  1  0  0  0
 49119  1  0  0  0
 50 51  1  0  0  0
 50120  1  0  0  0
 50121  1  0  0  0
 51 52  1  0  0  0
 51122  1  0  0  0
 51123  1  0  0  0
 52124  1  0  0  0
 52125  1  0  0  0
 53 54  1  0  0  0
 54 55  2  0  0  0
 54126  1  0  0  0
 55 57  1  0  0  0
 55127  1  0  0  0
 56 69  2  0  0  0
 57 58  2  0  0  0
 57128  1  0  0  0
 58129  1  0  0  0
 59 60  1  0  0  0
 59 61  1  0  0  0
 59 62  1  0  0  0
 60130  1  0  0  0
 60131  1  0  0  0
 60132  1  0  0  0
 61133  1  0  0  0
 61134  1  0  0  0
 61135  1  0  0  0
 62136  1  0  0  0
 62137  1  0  0  0
 62138  1  0  0  0
 63 65  1  0  0  0
 63139  1  0  0  0
 63140  1  0  0  0
 63141  1  0  0  0
 64142  1  0  0  0
 65143  1  0  0  0
 68 81  1  0  0  0
 71 73  2  0  0  0
 71 74  1  0  0  0
 71144  1  0  0  0
 72 75  2  0  0  0
 72 76  1  0  0  0
 72145  1  0  0  0
 73 75  1  0  0  0
 73 77  1  0  0  0
 74 76  2  0  0  0
 74 79  1  0  0  0
 75 78  1  0  0  0
 76 84  1  0  0  0
 77146  1  0  0  0
 77147  1  0  0  0
 77148  1  0  0  0
 78 82  1  0  0  0
 78149  1  0  0  0
 78150  1  0  0  0
 79 83  1  0  0  0
 79151  1  0  0  0
 79152  1  0  0  0
 80 81  1  0  0  0
 80 83  1  0  0  0
 80153  1  0  0  0
 80154  1  0  0  0
 81155  1  0  0  0
 81156  1  0  0  0
 82157  1  0  0  0
 83158  1  0  0  0
 83159  1  0  0  0
M  CHG  1  83   1
M  ISO  4   1 100  68 101  81 101  82 100
M  END
> <chiral flag>
0

> <version>
0

> <s_m_source_file>
/data/baiqing/PycharmProjects/Reinvent-master-3.2/result/LINK_invent/BTK/process_docking_weight1_custom_product_contain_oxygen_bond_distance_aromatic_linkinvent_7_9_3/rearranged_h_0040.sdf

> <i_m_source_file_index>
73

> <r_mmod_Potential_Energy-OPLS-2005>
-293.060821533203

> <r_mmod_Stretch_Energy-OPLS-2005>
39.5977783203125

> <r_mmod_Bend_Energy-OPLS-2005>
105.105651855469

> <r_mmod_Torsional_Energy-OPLS-2005>
194.67854309082

> <r_mmod_Improper_Torsional_Energy-OPLS-2005>
2.724853515625

> <r_mmod_Van_der_Waal_Energy-OPLS-2005>
146.525527954102

> <r_mmod_Electrostatic_Energy-OPLS-2005>
-351.592132568359

> <r_mmod_Solvation_Energy-OPLS-2005>
-443.279815673828

> <b_mmod_Minimization_Converged-OPLS-2005>
0

> <r_mmod_RMS_Derivative-OPLS-2005>
1.94953262805939

$$$$
73
                    3D
 Structure written by MMmdl.
177186  0  0  1  0            999 V2000
  -30.6637  -14.4823   20.5407 C   0  0  0  0  0  0
  -30.4335  -12.3027   19.4180 C   0  0  0  0  0  0
  -29.4949  -12.4855   18.2059 C   0  0  0  0  0  0
  -28.0128  -12.3661   18.6169 C   0  0  0  0  0  0
  -27.6634  -13.1922   19.8845 C   0  0  2  0  0  0
  -28.7106  -12.9559   20.9958 C   0  0  0  0  0  0
  -25.2610  -13.8115   20.5704 C   0  0  0  0  0  0
  -24.1844  -13.0422   20.9180 C   0  0  0  0  0  0
  -24.6369  -11.6878   20.8741 C   0  0  0  0  0  0
  -23.9024  -10.4279   21.0397 C   0  0  0  0  0  0
  -24.3579   -9.4196   21.9182 C   0  0  0  0  0  0
  -23.6267   -8.2224   22.0746 C   0  0  0  0  0  0
  -22.4246   -8.0264   21.3535 C   0  0  0  0  0  0
  -21.9878   -9.0230   20.4633 C   0  0  0  0  0  0
  -22.7194  -10.2117   20.3048 C   0  0  0  0  0  0
  -21.6842   -6.0720   22.5273 C   0  0  0  0  0  0
  -21.4011   -6.5622   23.8208 C   0  0  0  0  0  0
  -21.3669   -5.6780   24.9175 C   0  0  0  0  0  0
  -21.6042   -4.3042   24.7223 C   0  0  0  0  0  0
  -21.8828   -3.8132   23.4342 C   0  0  0  0  0  0
  -21.9189   -4.6951   22.3397 C   0  0  0  0  0  0
  -22.7868  -13.5244   21.1808 C   0  0  0  0  0  0
  -22.1654   -4.2138   21.0973 F   0  0  0  0  0  0
  -21.5634   -3.4531   25.7737 F   0  0  0  0  0  0
  -30.0386  -13.2771   20.4446 N   0  0  0  0  0  0
  -26.3040  -12.9255   20.3438 N   0  0  0  0  0  0
  -25.9301  -11.6428   20.5806 N   0  0  0  0  0  0
  -22.0451  -12.8289   22.0362 N   0  0  0  0  0  0
  -25.4330  -15.1838   20.4110 N   0  0  0  0  0  0
  -31.7938  -14.6927   20.0899 O   0  0  0  0  0  0
  -21.6610   -6.8861   21.4233 O   0  0  0  0  0  0
  -22.3597  -14.5557   20.6626 O   0  0  0  0  0  0
  -24.6156  -31.8692   23.2103 C   0  0  0  0  0  0
  -25.9058  -32.4820   23.8395 C   0  0  1  0  0  0
  -27.2251  -27.4327   20.0845 C   0  0  0  0  0  0
  -25.5938  -33.8622   24.2331 N   0  0  0  0  0  0
  -23.4002  -30.4953   21.5519 C   0  0  2  0  0  0
  -24.8420  -28.9652   20.1075 C   0  0  0  0  0  0
  -22.7409  -29.4679   22.4992 C   0  0  0  0  0  0
  -18.0296  -28.1352   22.8490 C   0  0  0  0  0  0
  -24.1491  -36.7312   23.2629 C   0  0  0  0  0  0
  -25.9299  -30.8301   21.3666 C   0  0  0  0  0  0
  -26.0009  -29.4659   20.7116 C   0  0  0  0  0  0
  -27.1914  -28.7036   20.7040 C   0  0  0  0  0  0
  -26.0494  -26.9614   19.4531 C   0  0  0  0  0  0
  -24.8615  -27.7117   19.4760 C   0  0  0  0  0  0
  -23.6055  -29.8325   20.1640 C   0  0  0  0  0  0
  -25.4111  -36.3104   24.0333 C   0  0  1  0  0  0
  -20.5877  -28.3653   23.1308 C   0  0  2  0  0  0
  -20.6805  -26.9395   22.5393 C   0  0  0  0  0  0
  -19.5776  -26.6351   21.5200 C   0  0  0  0  0  0
  -18.1955  -26.7901   22.1597 C   0  0  0  0  0  0
  -19.1536  -28.8815   23.2910 C   0  0  0  0  0  0
  -18.9446  -30.1422   23.8932 C   0  0  0  0  0  0
  -17.6446  -30.6557   24.0570 C   0  0  0  0  0  0
  -25.9040  -34.9475   23.5122 C   0  0  0  0  0  0
  -16.5349  -29.9066   23.6314 C   0  0  0  0  0  0
  -16.7288  -28.6485   23.0327 C   0  0  0  0  0  0
  -26.4497  -31.6591   25.0720 C   0  0  0  0  0  0
  -25.3784  -31.3706   26.1475 C   0  0  0  0  0  0
  -27.0323  -30.3030   24.6106 C   0  0  0  0  0  0
  -27.6066  -32.4314   25.7494 C   0  0  0  0  0  0
  -27.5581  -37.1811   24.8461 C   0  0  0  0  0  0
  -21.4140  -29.3028   22.3726 N   0  0  0  0  0  0
  -26.4293  -37.3786   23.9412 N   0  0  0  0  0  0
  -24.6664  -31.0804   22.1003 N   0  0  0  0  0  0
  -23.4189  -28.8230   23.3035 O   0  0  0  0  0  0
  -28.4045  -26.7120   20.1272 O   0  0  0  0  0  0
  -26.5574  -34.8923   22.4663 O   0  0  0  0  0  0
  -23.5349  -32.1442   23.7505 O   0  0  0  0  0  0
  -29.7794  -19.1845   21.4836 C   0  0  0  0  0  0
  -29.9423  -17.8039   21.7404 C   0  0  0  0  0  0
  -29.4496  -18.6936   19.1306 C   0  0  0  0  0  0
  -29.5019  -19.6401   20.1757 C   0  0  0  0  0  0
  -29.6385  -17.3132   19.3720 C   0  0  0  0  0  0
  -29.8769  -16.8522   20.6977 C   0  0  0  0  0  0
  -27.5418  -22.9841   19.6369 C   0  0  0  0  0  0
  -26.0978  -21.7348   16.4529 C   0  0  0  0  0  0
  -26.9358  -22.8997   18.4299 C   0  0  0  0  0  0
  -26.7053  -21.6965   17.6487 C   0  0  0  0  0  0
  -26.0964  -22.6880   22.6162 C   0  0  0  0  0  0
  -27.1396  -23.7804   22.9478 C   0  0  0  0  0  0
  -26.6370  -21.2597   22.3937 C   0  0  0  0  0  0
  -28.2038  -24.1471   21.8841 C   0  0  0  0  0  0
  -26.9354  -20.9272   20.9194 C   0  0  0  0  0  0
  -27.6772  -24.2992   20.4297 C   0  0  1  0  0  0
  -29.5443  -16.3757   18.1796 C   0  0  0  0  0  0
  -29.2697  -21.1286   19.8592 C   0  0  0  0  0  0
  -28.4592  -25.3726   19.6072 C   0  0  0  0  0  0
  -29.8997  -15.4667   21.0536 N   0  0  0  0  0  0
  -28.0354  -21.7854   20.4033 N   0  3  1  0  0  0
  -31.4734  -12.4234   19.1087 H   0  0  0  0  0  0
  -30.3568  -11.2904   19.8172 H   0  0  0  0  0  0
  -29.7262  -11.7385   17.4447 H   0  0  0  0  0  0
  -29.6748  -13.4553   17.7420 H   0  0  0  0  0  0
  -27.8083  -11.3109   18.7997 H   0  0  0  0  0  0
  -27.3662  -12.6607   17.7885 H   0  0  0  0  0  0
  -27.7003  -14.2424   19.6084 H   0  0  0  0  0  0
  -28.6940  -11.9117   21.3146 H   0  0  0  0  0  0
  -28.4743  -13.5358   21.8894 H   0  0  0  0  0  0
  -25.2704   -9.5696   22.4783 H   0  0  0  0  0  0
  -23.9968   -7.4623   22.7476 H   0  0  0  0  0  0
  -21.0800   -8.8746   19.8950 H   0  0  0  0  0  0
  -22.3621  -10.9665   19.6179 H   0  0  0  0  0  0
  -21.1994   -7.6127   23.9723 H   0  0  0  0  0  0
  -21.1489   -6.0492   25.9084 H   0  0  0  0  0  0
  -22.0598   -2.7593   23.2828 H   0  0  0  0  0  0
  -22.3988  -11.9974   22.4850 H   0  0  0  0  0  0
  -21.1070  -13.1379   22.2479 H   0  0  0  0  0  0
  -24.6631  -15.8355   20.5188 H   0  0  0  0  0  0
  -26.2909  -15.6265   20.1094 H   0  0  0  0  0  0
  -26.7135  -32.5534   23.1151 H   0  0  0  0  0  0
  -25.0163  -33.9793   25.0529 H   0  0  0  0  0  0
  -22.6885  -31.3128   21.4176 H   0  0  0  0  0  0
  -23.3764  -35.9638   23.3293 H   0  0  0  0  0  0
  -24.3577  -36.8920   22.2038 H   0  0  0  0  0  0
  -23.7246  -37.6523   23.6638 H   0  0  0  0  0  0
  -26.0476  -31.5959   20.5991 H   0  0  0  0  0  0
  -26.8158  -30.8780   21.9878 H   0  0  0  0  0  0
  -28.0854  -29.0846   21.1773 H   0  0  0  0  0  0
  -26.0201  -26.0178   18.9312 H   0  0  0  0  0  0
  -23.9732  -27.3277   18.9927 H   0  0  0  0  0  0
  -23.7135  -30.6100   19.4058 H   0  0  0  0  0  0
  -22.7280  -29.2526   19.8702 H   0  0  0  0  0  0
  -25.1295  -36.1956   25.0830 H   0  0  0  0  0  0
  -20.9979  -28.3241   24.1418 H   0  0  0  0  0  0
  -20.5720  -26.2277   23.3580 H   0  0  0  0  0  0
  -21.6697  -26.7469   22.1209 H   0  0  0  0  0  0
  -19.6934  -25.6261   21.1224 H   0  0  0  0  0  0
  -19.6689  -27.3160   20.6733 H   0  0  0  0  0  0
  -17.4238  -26.6689   21.3981 H   0  0  0  0  0  0
  -18.0342  -26.0000   22.8940 H   0  0  0  0  0  0
  -19.7904  -30.7256   24.2311 H   0  0  0  0  0  0
  -17.4986  -31.6243   24.5159 H   0  0  0  0  0  0
  -15.5347  -30.2978   23.7588 H   0  0  0  0  0  0
  -15.8704  -28.0809   22.6995 H   0  0  0  0  0  0
  -24.5945  -30.7058   25.7817 H   0  0  0  0  0  0
  -24.9002  -32.2873   26.4934 H   0  0  0  0  0  0
  -25.8144  -30.8863   27.0222 H   0  0  0  0  0  0
  -26.2859  -29.6789   24.1171 H   0  0  0  0  0  0
  -27.4096  -29.7254   25.4558 H   0  0  0  0  0  0
  -27.8698  -30.4329   23.9253 H   0  0  0  0  0  0
  -27.2671  -33.3590   26.2113 H   0  0  0  0  0  0
  -28.3865  -32.6909   25.0326 H   0  0  0  0  0  0
  -28.0764  -31.8431   26.5383 H   0  0  0  0  0  0
  -28.2596  -38.0106   24.7525 H   0  0  0  0  0  0
  -28.1083  -36.2645   24.6278 H   0  0  0  0  0  0
  -27.2305  -37.1454   25.8863 H   0  0  0  0  0  0
  -20.9261  -29.8789   21.7022 H   0  0  0  0  0  0
  -26.0185  -38.2867   24.1425 H   0  0  0  0  0  0
  -29.8415  -19.8808   22.3090 H   0  0  0  0  0  0
  -30.1076  -17.4786   22.7584 H   0  0  0  0  0  0
  -29.2503  -19.0322   18.1228 H   0  0  0  0  0  0
  -25.9301  -20.8332   15.8803 H   0  0  0  0  0  0
  -25.7547  -22.6661   16.0201 H   0  0  0  0  0  0
  -26.5674  -23.8234   18.0061 H   0  0  0  0  0  0
  -27.0191  -20.7311   18.0217 H   0  0  0  0  0  0
  -25.4730  -22.9942   21.7764 H   0  0  0  0  0  0
  -25.4057  -22.6482   23.4605 H   0  0  0  0  0  0
  -27.6461  -23.5252   23.8795 H   0  0  0  0  0  0
  -26.5779  -24.6891   23.1735 H   0  0  0  0  0  0
  -25.8742  -20.5550   22.7304 H   0  0  0  0  0  0
  -27.4993  -21.0605   23.0317 H   0  0  0  0  0  0
  -29.0737  -23.4921   21.9491 H   0  0  0  0  0  0
  -28.6020  -25.1141   22.1980 H   0  0  0  0  0  0
  -26.0279  -21.0806   20.3334 H   0  0  0  0  0  0
  -27.1290  -19.8611   20.8283 H   0  0  0  0  0  0
  -26.6550  -24.6548   20.5307 H   0  0  0  0  0  0
  -29.2478  -16.9098   17.2764 H   0  0  0  0  0  0
  -28.8007  -15.6020   18.3462 H   0  0  0  0  0  0
  -30.5077  -15.9072   17.9773 H   0  0  0  0  0  0
  -29.2817  -21.2447   18.7766 H   0  0  0  0  0  0
  -30.1328  -21.6964   20.2086 H   0  0  0  0  0  0
  -28.1471  -25.3933   18.5630 H   0  0  0  0  0  0
  -29.5100  -25.0846   19.5729 H   0  0  0  0  0  0
  -29.0852  -15.1395   21.5503 H   0  0  0  0  0  0
  -28.3890  -22.1668   21.2678 H   0  0  0  0  0  0
  1 25  1  0  0  0
  1 30  2  0  0  0
  1 90  1  0  0  0
  2  3  1  0  0  0
  2 25  1  0  0  0
  2 92  1  0  0  0
  2 93  1  0  0  0
  3  4  1  0  0  0
  3 94  1  0  0  0
  3 95  1  0  0  0
  4  5  1  0  0  0
  4 96  1  0  0  0
  4 97  1  0  0  0
  5  6  1  0  0  0
  5 26  1  0  0  0
  5 98  1  0  0  0
  6 25  1  0  0  0
  6 99  1  0  0  0
  6100  1  0  0  0
  7  8  2  0  0  0
  7 26  1  0  0  0
  7 29  1  0  0  0
  8  9  1  0  0  0
  8 22  1  0  0  0
  9 10  1  0  0  0
  9 27  2  0  0  0
 10 11  2  0  0  0
 10 15  1  0  0  0
 11 12  1  0  0  0
 11101  1  0  0  0
 12 13  2  0  0  0
 12102  1  0  0  0
 13 14  1  0  0  0
 13 31  1  0  0  0
 14 15  2  0  0  0
 14103  1  0  0  0
 15104  1  0  0  0
 16 17  2  0  0  0
 16 21  1  0  0  0
 16 31  1  0  0  0
 17 18  1  0  0  0
 17105  1  0  0  0
 18 19  2  0  0  0
 18106  1  0  0  0
 19 20  1  0  0  0
 19 24  1  0  0  0
 20 21  2  0  0  0
 20107  1  0  0  0
 21 23  1  0  0  0
 22 28  1  0  0  0
 22 32  2  0  0  0
 26 27  1  0  0  0
 28108  1  0  0  0
 28109  1  0  0  0
 29110  1  0  0  0
 29111  1  0  0  0
 33 34  1  0  0  0
 33 66  1  0  0  0
 33 70  2  0  0  0
 34 36  1  0  0  0
 34 59  1  0  0  0
 34112  1  0  0  0
 35 44  2  0  0  0
 35 45  1  0  0  0
 35 68  1  0  0  0
 36 56  1  0  0  0
 36113  1  0  0  0
 37 39  1  0  0  0
 37 47  1  0  0  0
 37 66  1  0  0  0
 37114  1  0  0  0
 38 43  2  0  0  0
 38 46  1  0  0  0
 38 47  1  0  0  0
 39 64  1  0  0  0
 39 67  2  0  0  0
 40 52  1  0  0  0
 40 53  2  0  0  0
 40 58  1  0  0  0
 41115  1  0  0  0
 41116  1  0  0  0
 41117  1  0  0  0
 41 48  1  0  0  0
 42 43  1  0  0  0
 42 66  1  0  0  0
 42118  1  0  0  0
 42119  1  0  0  0
 43 44  1  0  0  0
 44120  1  0  0  0
 45 46  2  0  0  0
 45121  1  0  0  0
 46122  1  0  0  0
 47123  1  0  0  0
 47124  1  0  0  0
 48 56  1  0  0  0
 48 65  1  0  0  0
 48125  1  0  0  0
 49 50  1  0  0  0
 49 53  1  0  0  0
 49 64  1  0  0  0
 49126  1  0  0  0
 50 51  1  0  0  0
 50127  1  0  0  0
 50128  1  0  0  0
 51 52  1  0  0  0
 51129  1  0  0  0
 51130  1  0  0  0
 52131  1  0  0  0
 52132  1  0  0  0
 53 54  1  0  0  0
 54 55  2  0  0  0
 54133  1  0  0  0
 55 57  1  0  0  0
 55134  1  0  0  0
 56 69  2  0  0  0
 57 58  2  0  0  0
 57135  1  0  0  0
 58136  1  0  0  0
 59 60  1  0  0  0
 59 61  1  0  0  0
 59 62  1  0  0  0
 60137  1  0  0  0
 60138  1  0  0  0
 60139  1  0  0  0
 61140  1  0  0  0
 61141  1  0  0  0
 61142  1  0  0  0
 62143  1  0  0  0
 62144  1  0  0  0
 62145  1  0  0  0
 63 65  1  0  0  0
 63146  1  0  0  0
 63147  1  0  0  0
 63148  1  0  0  0
 64149  1  0  0  0
 65150  1  0  0  0
 68 89  1  0  0  0
 71 72  2  0  0  0
 71 74  1  0  0  0
 71151  1  0  0  0
 72 76  1  0  0  0
 72152  1  0  0  0
 73 74  2  0  0  0
 73 75  1  0  0  0
 73153  1  0  0  0
 74 88  1  0  0  0
 75 76  2  0  0  0
 75 87  1  0  0  0
 76 90  1  0  0  0
 77 79  2  0  0  0
 77 86  1  0  0  0
 77 91  1  0  0  0
 78 80  2  0  0  0
 78154  1  0  0  0
 78155  1  0  0  0
 79 80  1  0  0  0
 79156  1  0  0  0
 80157  1  0  0  0
 81 82  1  0  0  0
 81 83  1  0  0  0
 81158  1  0  0  0
 81159  1  0  0  0
 82 84  1  0  0  0
 82160  1  0  0  0
 82161  1  0  0  0
 83 85  1  0  0  0
 83162  1  0  0  0
 83163  1  0  0  0
 84 86  1  0  0  0
 84164  1  0  0  0
 84165  1  0  0  0
 85 91  1  0  0  0
 85166  1  0  0  0
 85167  1  0  0  0
 86 89  1  0  0  0
 86168  1  0  0  0
 87169  1  0  0  0
 87170  1  0  0  0
 87171  1  0  0  0
 88172  1  0  0  0
 88173  1  0  0  0
 88 91  1  0  0  0
 89174  1  0  0  0
 89175  1  0  0  0
 90176  1  0  0  0
 91177  1  0  0  0
M  CHG  1  91   1
M  ISO  4   1 100  68 101  89 101  90 100
M  END
> <chiral flag>
0

> <version>
0

> <s_m_source_file>
/data/baiqing/PycharmProjects/Reinvent-master-3.2/result/LINK_invent/BTK/process_docking_weight1_custom_product_contain_oxygen_bond_distance_aromatic_linkinvent_7_9_3/rearranged_h_0040.sdf

> <i_m_source_file_index>
74

> <r_mmod_Potential_Energy-OPLS-2005>
-70.5783767700195

> <r_mmod_Stretch_Energy-OPLS-2005>
44.1226043701172

> <r_mmod_Bend_Energy-OPLS-2005>
145.19743347168

> <r_mmod_Torsional_Energy-OPLS-2005>
259.958068847656

> <r_mmod_Improper_Torsional_Energy-OPLS-2005>
4.63122606277466

> <r_mmod_Van_der_Waal_Energy-OPLS-2005>
154.688705444336

> <r_mmod_Electrostatic_Energy-OPLS-2005>
-271.913543701172

> <r_mmod_Solvation_Energy-OPLS-2005>
-422.167175292969

> <b_mmod_Minimization_Converged-OPLS-2005>
0

> <r_mmod_RMS_Derivative-OPLS-2005>
2.354416847229

$$$$
74
                    3D
 Structure written by MMmdl.
176185  0  0  1  0            999 V2000
  -30.7290  -14.4986   20.2962 C   0  0  0  0  0  0
  -30.3948  -12.2621   19.4317 C   0  0  0  0  0  0
  -29.4763  -12.4125   18.2003 C   0  0  0  0  0  0
  -28.0016  -12.3124   18.6241 C   0  0  0  0  0  0
  -27.6462  -13.2142   19.8374 C   0  0  2  0  0  0
  -28.7085  -13.1291   20.9575 C   0  0  0  0  0  0
  -25.2550  -13.8187   20.5664 C   0  0  0  0  0  0
  -24.1803  -13.0452   20.9205 C   0  0  0  0  0  0
  -24.6370  -11.6929   20.8758 C   0  0  0  0  0  0
  -23.9035  -10.4302   21.0405 C   0  0  0  0  0  0
  -24.3581   -9.4203   21.9168 C   0  0  0  0  0  0
  -23.6279   -8.2228   22.0733 C   0  0  0  0  0  0
  -22.4250   -8.0268   21.3537 C   0  0  0  0  0  0
  -21.9886   -9.0237   20.4633 C   0  0  0  0  0  0
  -22.7204  -10.2118   20.3051 C   0  0  0  0  0  0
  -21.6855   -6.0727   22.5268 C   0  0  0  0  0  0
  -21.4003   -6.5614   23.8203 C   0  0  0  0  0  0
  -21.3668   -5.6766   24.9162 C   0  0  0  0  0  0
  -21.6069   -4.3028   24.7203 C   0  0  0  0  0  0
  -21.8826   -3.8134   23.4315 C   0  0  0  0  0  0
  -21.9177   -4.6949   22.3377 C   0  0  0  0  0  0
  -22.7827  -13.5256   21.1856 C   0  0  0  0  0  0
  -22.1662   -4.2142   21.0958 F   0  0  0  0  0  0
  -21.5642   -3.4510   25.7710 F   0  0  0  0  0  0
  -30.0278  -13.3405   20.3495 N   0  0  0  0  0  0
  -26.2969  -12.9368   20.3301 N   0  0  0  0  0  0
  -25.9299  -11.6531   20.5808 N   0  0  0  0  0  0
  -22.0456  -12.8257   22.0428 N   0  0  0  0  0  0
  -25.4226  -15.1892   20.4001 N   0  0  0  0  0  0
  -31.9362  -14.5542   20.4982 O   0  0  0  0  0  0
  -21.6628   -6.8857   21.4222 O   0  0  0  0  0  0
  -22.3519  -14.5568   20.6716 O   0  0  0  0  0  0
  -24.6173  -31.8692   23.2119 C   0  0  0  0  0  0
  -25.9056  -32.4862   23.8400 C   0  0  1  0  0  0
  -27.2146  -27.4057   20.0728 C   0  0  0  0  0  0
  -25.5909  -33.8654   24.2333 N   0  0  0  0  0  0
  -23.4029  -30.4985   21.5573 C   0  0  2  0  0  0
  -24.8361  -28.9581   20.1328 C   0  0  0  0  0  0
  -22.7411  -29.4705   22.5031 C   0  0  0  0  0  0
  -18.0279  -28.1391   22.8483 C   0  0  0  0  0  0
  -24.1480  -36.7318   23.2641 C   0  0  0  0  0  0
  -25.9372  -30.8288   21.3604 C   0  0  0  0  0  0
  -26.0095  -29.4602   20.7077 C   0  0  0  0  0  0
  -27.2032  -28.6944   20.6693 C   0  0  0  0  0  0
  -25.9983  -26.9185   19.5299 C   0  0  0  0  0  0
  -24.8227  -27.6828   19.5561 C   0  0  0  0  0  0
  -23.6074  -29.8350   20.1738 C   0  0  0  0  0  0
  -25.4110  -36.3128   24.0340 C   0  0  1  0  0  0
  -20.5873  -28.3687   23.1321 C   0  0  2  0  0  0
  -20.6785  -26.9428   22.5433 C   0  0  0  0  0  0
  -19.5758  -26.6400   21.5226 C   0  0  0  0  0  0
  -18.1927  -26.7940   22.1614 C   0  0  0  0  0  0
  -19.1528  -28.8855   23.2891 C   0  0  0  0  0  0
  -18.9445  -30.1468   23.8893 C   0  0  0  0  0  0
  -17.6451  -30.6607   24.0568 C   0  0  0  0  0  0
  -25.9041  -34.9500   23.5141 C   0  0  0  0  0  0
  -16.5346  -29.9102   23.6347 C   0  0  0  0  0  0
  -16.7270  -28.6522   23.0356 C   0  0  0  0  0  0
  -26.4459  -31.6633   25.0739 C   0  0  0  0  0  0
  -25.3713  -31.3766   26.1494 C   0  0  0  0  0  0
  -27.0251  -30.3067   24.6108 C   0  0  0  0  0  0
  -27.6057  -32.4336   25.7485 C   0  0  0  0  0  0
  -27.5589  -37.1814   24.8466 C   0  0  0  0  0  0
  -21.4151  -29.3051   22.3731 N   0  0  0  0  0  0
  -26.4295  -37.3822   23.9420 N   0  0  0  0  0  0
  -24.6732  -31.0773   22.1030 N   0  0  0  0  0  0
  -23.4171  -28.8248   23.3085 O   0  0  0  0  0  0
  -28.3894  -26.6636   20.0338 O   0  0  0  0  0  0
  -26.5601  -34.8952   22.4705 O   0  0  0  0  0  0
  -23.5356  -32.1453   23.7509 O   0  0  0  0  0  0
  -32.4789  -17.1834   17.1172 C   0  0  0  0  0  0
  -30.2470  -17.7885   18.6755 C   0  0  0  0  0  0
  -31.9556  -18.4830   17.0697 C   0  0  0  0  0  0
  -31.8973  -16.1696   17.8931 C   0  0  0  0  0  0
  -30.8044  -18.8056   17.8419 C   0  0  0  0  0  0
  -30.7858  -16.4702   18.7450 C   0  0  0  0  0  0
  -30.5766  -22.0505   19.3383 C   0  0  0  0  0  0
  -31.4330  -21.8801   20.3592 C   0  0  0  0  0  0
  -29.3309  -22.9551   19.3641 C   0  0  0  0  0  0
  -31.7827  -24.5661   18.0864 C   0  0  0  0  0  0
  -31.9322  -23.5153   16.9628 C   0  0  0  0  0  0
  -30.3579  -25.1056   18.3107 C   0  0  0  0  0  0
  -30.8945  -22.3659   16.8642 C   0  0  0  0  0  0
  -29.6050  -24.4899   19.5145 C   0  0  1  0  0  0
  -32.6465  -19.4526   16.1234 C   0  0  0  0  0  0
  -32.5144  -14.7916   17.6947 C   0  0  0  0  0  0
  -30.0778  -20.1641   17.6801 C   0  0  0  0  0  0
  -28.2712  -25.2559   19.7189 C   0  0  0  0  0  0
  -30.1355  -15.4933   19.5953 N   0  0  0  0  0  0
  -30.8640  -21.4025   18.0084 N   0  3  2  0  0  0
  -31.4510  -12.2890   19.1568 H   0  0  0  0  0  0
  -30.2377  -11.2943   19.9099 H   0  0  0  0  0  0
  -29.7082  -11.6397   17.4656 H   0  0  0  0  0  0
  -29.6394  -13.3691   17.7014 H   0  0  0  0  0  0
  -27.8112  -11.2683   18.8718 H   0  0  0  0  0  0
  -27.3506  -12.5448   17.7810 H   0  0  0  0  0  0
  -27.6471  -14.2356   19.4619 H   0  0  0  0  0  0
  -28.6761  -12.1559   21.4500 H   0  0  0  0  0  0
  -28.5118  -13.8762   21.7285 H   0  0  0  0  0  0
  -25.2729   -9.5686   22.4739 H   0  0  0  0  0  0
  -23.9998   -7.4603   22.7422 H   0  0  0  0  0  0
  -21.0846   -8.8757   19.8910 H   0  0  0  0  0  0
  -22.3691  -10.9650   19.6154 H   0  0  0  0  0  0
  -21.2003   -7.6125   23.9723 H   0  0  0  0  0  0
  -21.1501   -6.0474   25.9081 H   0  0  0  0  0  0
  -22.0604   -2.7592   23.2806 H   0  0  0  0  0  0
  -22.4053  -11.9933   22.4867 H   0  0  0  0  0  0
  -21.1058  -13.1288   22.2576 H   0  0  0  0  0  0
  -24.6554  -15.8442   20.5169 H   0  0  0  0  0  0
  -26.2770  -15.6334   20.0874 H   0  0  0  0  0  0
  -26.7128  -32.5543   23.1150 H   0  0  0  0  0  0
  -25.0045  -33.9792   25.0469 H   0  0  0  0  0  0
  -22.6918  -31.3167   21.4227 H   0  0  0  0  0  0
  -23.3763  -35.9633   23.3304 H   0  0  0  0  0  0
  -24.3562  -36.8931   22.2054 H   0  0  0  0  0  0
  -23.7190  -37.6515   23.6644 H   0  0  0  0  0  0
  -26.0429  -31.5887   20.5849 H   0  0  0  0  0  0
  -26.8289  -30.8838   21.9746 H   0  0  0  0  0  0
  -28.1137  -29.0867   21.1027 H   0  0  0  0  0  0
  -25.8975  -25.9424   19.0845 H   0  0  0  0  0  0
  -23.9053  -27.2800   19.1497 H   0  0  0  0  0  0
  -23.7346  -30.6110   19.4182 H   0  0  0  0  0  0
  -22.7238  -29.2684   19.8714 H   0  0  0  0  0  0
  -25.1276  -36.2020   25.0832 H   0  0  0  0  0  0
  -20.9935  -28.3272   24.1446 H   0  0  0  0  0  0
  -20.5718  -26.2299   23.3618 H   0  0  0  0  0  0
  -21.6651  -26.7509   22.1207 H   0  0  0  0  0  0
  -19.6942  -25.6309   21.1262 H   0  0  0  0  0  0
  -19.6727  -27.3208   20.6746 H   0  0  0  0  0  0
  -17.4225  -26.6711   21.3994 H   0  0  0  0  0  0
  -18.0321  -26.0085   22.8997 H   0  0  0  0  0  0
  -19.7926  -30.7288   24.2257 H   0  0  0  0  0  0
  -17.5014  -31.6275   24.5179 H   0  0  0  0  0  0
  -15.5348  -30.2996   23.7689 H   0  0  0  0  0  0
  -15.8663  -28.0848   22.7063 H   0  0  0  0  0  0
  -24.5862  -30.7147   25.7825 H   0  0  0  0  0  0
  -24.8933  -32.2933   26.4960 H   0  0  0  0  0  0
  -25.8048  -30.8910   27.0243 H   0  0  0  0  0  0
  -26.2762  -29.6883   24.1160 H   0  0  0  0  0  0
  -27.3989  -29.7287   25.4563 H   0  0  0  0  0  0
  -27.8620  -30.4383   23.9254 H   0  0  0  0  0  0
  -27.2734  -33.3692   26.2002 H   0  0  0  0  0  0
  -28.3896  -32.6807   25.0311 H   0  0  0  0  0  0
  -28.0680  -31.8485   26.5442 H   0  0  0  0  0  0
  -28.2627  -38.0095   24.7532 H   0  0  0  0  0  0
  -28.1057  -36.2631   24.6271 H   0  0  0  0  0  0
  -27.2301  -37.1451   25.8866 H   0  0  0  0  0  0
  -20.9339  -29.8688   21.6865 H   0  0  0  0  0  0
  -26.0198  -38.2915   24.1419 H   0  0  0  0  0  0
  -33.3321  -16.9386   16.4971 H   0  0  0  0  0  0
  -29.3593  -18.0140   19.2512 H   0  0  0  0  0  0
  -31.2821  -22.3745   21.3080 H   0  0  0  0  0  0
  -32.3173  -21.2649   20.2659 H   0  0  0  0  0  0
  -28.7462  -22.6261   20.2248 H   0  0  0  0  0  0
  -28.6834  -22.7623   18.5097 H   0  0  0  0  0  0
  -32.4196  -25.4112   17.8207 H   0  0  0  0  0  0
  -32.2022  -24.2033   19.0240 H   0  0  0  0  0  0
  -32.9425  -23.1084   16.9918 H   0  0  0  0  0  0
  -31.8709  -24.0534   16.0158 H   0  0  0  0  0  0
  -29.7683  -25.0343   17.3946 H   0  0  0  0  0  0
  -30.4463  -26.1763   18.5062 H   0  0  0  0  0  0
  -31.1486  -21.8190   15.9567 H   0  0  0  0  0  0
  -29.9004  -22.7634   16.6649 H   0  0  0  0  0  0
  -30.2106  -24.6376   20.4088 H   0  0  0  0  0  0
  -33.5086  -18.9873   15.6389 H   0  0  0  0  0  0
  -33.0313  -20.3200   16.6575 H   0  0  0  0  0  0
  -31.9780  -19.7681   15.3250 H   0  0  0  0  0  0
  -33.0350  -14.7265   16.7373 H   0  0  0  0  0  0
  -31.7650  -14.0078   17.6799 H   0  0  0  0  0  0
  -33.2595  -14.5794   18.4598 H   0  0  0  0  0  0
  -29.1341  -20.1626   18.2246 H   0  0  0  0  0  0
  -29.7767  -20.1928   16.6305 H   0  0  0  0  0  0
  -27.6966  -24.7807   20.5165 H   0  0  0  0  0  0
  -27.7237  -25.1116   18.7896 H   0  0  0  0  0  0
  -29.1295  -15.4532   19.5462 H   0  0  0  0  0  0
  -31.8077  -21.0512   18.0619 H   0  0  0  0  0  0
  1 25  1  0  0  0
  1 30  2  0  0  0
  1 89  1  0  0  0
  2  3  1  0  0  0
  2 25  1  0  0  0
  2 91  1  0  0  0
  2 92  1  0  0  0
  3  4  1  0  0  0
  3 93  1  0  0  0
  3 94  1  0  0  0
  4  5  1  0  0  0
  4 95  1  0  0  0
  4 96  1  0  0  0
  5  6  1  0  0  0
  5 26  1  0  0  0
  5 97  1  0  0  0
  6 25  1  0  0  0
  6 98  1  0  0  0
  6 99  1  0  0  0
  7  8  2  0  0  0
  7 26  1  0  0  0
  7 29  1  0  0  0
  8  9  1  0  0  0
  8 22  1  0  0  0
  9 10  1  0  0  0
  9 27  2  0  0  0
 10 11  2  0  0  0
 10 15  1  0  0  0
 11 12  1  0  0  0
 11100  1  0  0  0
 12 13  2  0  0  0
 12101  1  0  0  0
 13 14  1  0  0  0
 13 31  1  0  0  0
 14 15  2  0  0  0
 14102  1  0  0  0
 15103  1  0  0  0
 16 17  2  0  0  0
 16 21  1  0  0  0
 16 31  1  0  0  0
 17 18  1  0  0  0
 17104  1  0  0  0
 18 19  2  0  0  0
 18105  1  0  0  0
 19 20  1  0  0  0
 19 24  1  0  0  0
 20 21  2  0  0  0
 20106  1  0  0  0
 21 23  1  0  0  0
 22 28  1  0  0  0
 22 32  2  0  0  0
 26 27  1  0  0  0
 28107  1  0  0  0
 28108  1  0  0  0
 29109  1  0  0  0
 29110  1  0  0  0
 33 34  1  0  0  0
 33 66  1  0  0  0
 33 70  2  0  0  0
 34 36  1  0  0  0
 34 59  1  0  0  0
 34111  1  0  0  0
 35 44  2  0  0  0
 35 45  1  0  0  0
 35 68  1  0  0  0
 36 56  1  0  0  0
 36112  1  0  0  0
 37 39  1  0  0  0
 37 47  1  0  0  0
 37 66  1  0  0  0
 37113  1  0  0  0
 38 43  2  0  0  0
 38 46  1  0  0  0
 38 47  1  0  0  0
 39 64  1  0  0  0
 39 67  2  0  0  0
 40 52  1  0  0  0
 40 53  2  0  0  0
 40 58  1  0  0  0
 41114  1  0  0  0
 41115  1  0  0  0
 41116  1  0  0  0
 41 48  1  0  0  0
 42 43  1  0  0  0
 42 66  1  0  0  0
 42117  1  0  0  0
 42118  1  0  0  0
 43 44  1  0  0  0
 44119  1  0  0  0
 45 46  2  0  0  0
 45120  1  0  0  0
 46121  1  0  0  0
 47122  1  0  0  0
 47123  1  0  0  0
 48 56  1  0  0  0
 48 65  1  0  0  0
 48124  1  0  0  0
 49 50  1  0  0  0
 49 53  1  0  0  0
 49 64  1  0  0  0
 49125  1  0  0  0
 50 51  1  0  0  0
 50126  1  0  0  0
 50127  1  0  0  0
 51 52  1  0  0  0
 51128  1  0  0  0
 51129  1  0  0  0
 52130  1  0  0  0
 52131  1  0  0  0
 53 54  1  0  0  0
 54 55  2  0  0  0
 54132  1  0  0  0
 55 57  1  0  0  0
 55133  1  0  0  0
 56 69  2  0  0  0
 57 58  2  0  0  0
 57134  1  0  0  0
 58135  1  0  0  0
 59 60  1  0  0  0
 59 61  1  0  0  0
 59 62  1  0  0  0
 60136  1  0  0  0
 60137  1  0  0  0
 60138  1  0  0  0
 61139  1  0  0  0
 61140  1  0  0  0
 61141  1  0  0  0
 62142  1  0  0  0
 62143  1  0  0  0
 62144  1  0  0  0
 63 65  1  0  0  0
 63145  1  0  0  0
 63146  1  0  0  0
 63147  1  0  0  0
 64148  1  0  0  0
 65149  1  0  0  0
 68 88  1  0  0  0
 71 73  2  0  0  0
 71 74  1  0  0  0
 71150  1  0  0  0
 72 75  2  0  0  0
 72 76  1  0  0  0
 72151  1  0  0  0
 73 75  1  0  0  0
 73 85  1  0  0  0
 74 76  2  0  0  0
 74 86  1  0  0  0
 75 87  1  0  0  0
 76 89  1  0  0  0
 77 78  2  0  0  0
 77 79  1  0  0  0
 77 90  1  0  0  0
 78152  1  0  0  0
 78153  1  0  0  0
 79 84  1  0  0  0
 79154  1  0  0  0
 79155  1  0  0  0
 80 81  1  0  0  0
 80 82  1  0  0  0
 80156  1  0  0  0
 80157  1  0  0  0
 81 83  1  0  0  0
 81158  1  0  0  0
 81159  1  0  0  0
 82 84  1  0  0  0
 82160  1  0  0  0
 82161  1  0  0  0
 83 90  1  0  0  0
 83162  1  0  0  0
 83163  1  0  0  0
 84 88  1  0  0  0
 84164  1  0  0  0
 85165  1  0  0  0
 85166  1  0  0  0
 85167  1  0  0  0
 86168  1  0  0  0
 86169  1  0  0  0
 86170  1  0  0  0
 87171  1  0  0  0
 87172  1  0  0  0
 87 90  1  0  0  0
 88173  1  0  0  0
 88174  1  0  0  0
 89175  1  0  0  0
 90176  1  0  0  0
M  CHG  1  90   1
M  ISO  4   1 100  68 101  88 101  89 100
M  END
> <chiral flag>
0

> <version>
0

> <s_m_source_file>
/data/baiqing/PycharmProjects/Reinvent-master-3.2/result/LINK_invent/BTK/process_docking_weight1_custom_product_contain_oxygen_bond_distance_aromatic_linkinvent_7_9_3/rearranged_h_0040.sdf

> <i_m_source_file_index>
75

> <r_mmod_Potential_Energy-OPLS-2005>
35.4635772705078

> <r_mmod_Stretch_Energy-OPLS-2005>
53.2441711425781

> <r_mmod_Bend_Energy-OPLS-2005>
142.705337524414

> <r_mmod_Torsional_Energy-OPLS-2005>
296.337738037109

> <r_mmod_Improper_Torsional_Energy-OPLS-2005>
13.3702058792114

> <r_mmod_Van_der_Waal_Energy-OPLS-2005>
167.74674987793

> <r_mmod_Electrostatic_Energy-OPLS-2005>
-264.678771972656

> <r_mmod_Solvation_Energy-OPLS-2005>
-432.303497314453

> <b_mmod_Minimization_Converged-OPLS-2005>
0

> <r_mmod_RMS_Derivative-OPLS-2005>
4.15974140167236

$$$$
75
                    3D
 Structure written by MMmdl.
179188  0  0  1  0            999 V2000
  -30.7664  -14.4346   20.6371 C   0  0  0  0  0  0
  -30.4027  -12.3189   19.4076 C   0  0  0  0  0  0
  -29.4740  -12.5154   18.1947 C   0  0  0  0  0  0
  -28.0005  -12.3662   18.6134 C   0  0  0  0  0  0
  -27.6500  -13.2171   19.8627 C   0  0  2  0  0  0
  -28.6937  -13.0189   20.9843 C   0  0  0  0  0  0
  -25.2511  -13.8191   20.5688 C   0  0  0  0  0  0
  -24.1788  -13.0452   20.9201 C   0  0  0  0  0  0
  -24.6358  -11.6917   20.8736 C   0  0  0  0  0  0
  -23.9046  -10.4300   21.0403 C   0  0  0  0  0  0
  -24.3603   -9.4214   21.9181 C   0  0  0  0  0  0
  -23.6282   -8.2237   22.0747 C   0  0  0  0  0  0
  -22.4261   -8.0277   21.3540 C   0  0  0  0  0  0
  -21.9901   -9.0246   20.4635 C   0  0  0  0  0  0
  -22.7222  -10.2129   20.3047 C   0  0  0  0  0  0
  -21.6853   -6.0733   22.5284 C   0  0  0  0  0  0
  -21.4009   -6.5638   23.8220 C   0  0  0  0  0  0
  -21.3660   -5.6792   24.9178 C   0  0  0  0  0  0
  -21.6046   -4.3056   24.7228 C   0  0  0  0  0  0
  -21.8816   -3.8145   23.4353 C   0  0  0  0  0  0
  -21.9186   -4.6962   22.3405 C   0  0  0  0  0  0
  -22.7803  -13.5224   21.1859 C   0  0  0  0  0  0
  -22.1657   -4.2147   21.0984 F   0  0  0  0  0  0
  -21.5629   -3.4537   25.7743 F   0  0  0  0  0  0
  -30.0267  -13.3096   20.4307 N   0  0  0  0  0  0
  -26.2953  -12.9379   20.3331 N   0  0  0  0  0  0
  -25.9282  -11.6530   20.5753 N   0  0  0  0  0  0
  -22.0442  -12.8223   22.0413 N   0  0  0  0  0  0
  -25.4225  -15.1921   20.4132 N   0  0  0  0  0  0
  -31.8689  -14.5975   20.1137 O   0  0  0  0  0  0
  -21.6633   -6.8871   21.4240 O   0  0  0  0  0  0
  -22.3487  -14.5528   20.6705 O   0  0  0  0  0  0
  -24.6168  -31.8697   23.2073 C   0  0  0  0  0  0
  -25.9064  -32.4827   23.8374 C   0  0  1  0  0  0
  -27.2194  -27.4168   20.1050 C   0  0  0  0  0  0
  -25.5952  -33.8634   24.2327 N   0  0  0  0  0  0
  -23.4057  -30.4948   21.5454 C   0  0  2  0  0  0
  -24.8509  -28.9652   20.1064 C   0  0  0  0  0  0
  -22.7439  -29.4661   22.4912 C   0  0  0  0  0  0
  -18.0297  -28.1372   22.8517 C   0  0  0  0  0  0
  -24.1474  -36.7324   23.2623 C   0  0  0  0  0  0
  -25.9367  -30.8271   21.3669 C   0  0  0  0  0  0
  -26.0093  -29.4576   20.7233 C   0  0  0  0  0  0
  -27.1965  -28.6862   20.7316 C   0  0  0  0  0  0
  -26.0623  -26.9739   19.4311 C   0  0  0  0  0  0
  -24.8731  -27.7225   19.4537 C   0  0  0  0  0  0
  -23.6150  -29.8330   20.1571 C   0  0  0  0  0  0
  -25.4097  -36.3115   24.0316 C   0  0  1  0  0  0
  -20.5896  -28.3669   23.1300 C   0  0  2  0  0  0
  -20.6767  -26.9390   22.5412 C   0  0  0  0  0  0
  -19.5727  -26.6371   21.5228 C   0  0  0  0  0  0
  -18.1916  -26.7923   22.1639 C   0  0  0  0  0  0
  -19.1548  -28.8836   23.2910 C   0  0  0  0  0  0
  -18.9456  -30.1445   23.8916 C   0  0  0  0  0  0
  -17.6450  -30.6567   24.0578 C   0  0  0  0  0  0
  -25.9029  -34.9483   23.5096 C   0  0  0  0  0  0
  -16.5349  -29.9070   23.6312 C   0  0  0  0  0  0
  -16.7283  -28.6488   23.0337 C   0  0  0  0  0  0
  -26.4475  -31.6599   25.0707 C   0  0  0  0  0  0
  -25.3733  -31.3712   26.1445 C   0  0  0  0  0  0
  -27.0299  -30.3049   24.6060 C   0  0  0  0  0  0
  -27.6060  -32.4297   25.7481 C   0  0  0  0  0  0
  -27.5557  -37.1818   24.8461 C   0  0  0  0  0  0
  -21.4160  -29.3052   22.3706 N   0  0  0  0  0  0
  -26.4277  -37.3807   23.9396 N   0  0  0  0  0  0
  -24.6709  -31.0792   22.0963 N   0  0  0  0  0  0
  -23.4222  -28.8155   23.2910 O   0  0  0  0  0  0
  -28.3519  -26.6269   20.0996 O   0  0  0  0  0  0
  -26.5545  -34.8948   22.4630 O   0  0  0  0  0  0
  -23.5354  -32.1428   23.7463 O   0  0  0  0  0  0
  -32.0436  -17.8166   20.3260 C   0  0  0  0  0  0
  -31.9367  -20.2418   20.2295 C   0  0  0  0  0  0
  -32.4164  -19.0245   19.7164 C   0  0  0  0  0  0
  -31.1830  -17.7927   21.4416 C   0  0  0  0  0  0
  -31.0776  -20.2730   21.3484 C   0  0  0  0  0  0
  -30.6755  -19.0320   21.9460 C   0  0  0  0  0  0
  -29.9301  -23.5042   20.3787 C   0  0  0  0  0  0
  -30.3105  -23.2348   19.1128 C   0  0  0  0  0  0
  -29.8125  -24.9009   21.0236 C   0  0  0  0  0  0
  -27.2175  -23.2586   21.7715 C   0  0  0  0  0  0
  -27.2847  -24.4449   20.7847 C   0  0  0  0  0  0
  -28.5441  -22.7078   22.3426 C   0  0  0  0  0  0
  -28.3809  -25.5196   21.0361 C   0  0  2  0  0  0
  -33.3796  -19.0052   18.5454 C   0  0  0  0  0  0
  -29.7479  -18.9995   23.1558 C   0  0  0  0  0  0
  -29.9858  -23.9775   16.7186 C   0  0  0  0  0  0
  -30.9652  -16.4351   22.1533 C   0  0  0  0  0  0
  -30.7511  -21.6684   21.9312 C   0  0  0  0  0  0
  -30.6913  -24.2517   18.0499 C   0  0  0  0  0  0
  -30.2325  -15.3727   21.4393 N   0  0  0  0  0  0
  -29.5774  -22.3704   21.3210 N   0  3  2  0  0  0
  -31.4453  -12.4033   19.0981 H   0  0  0  0  0  0
  -30.2955  -11.3104   19.8100 H   0  0  0  0  0  0
  -29.7118  -11.7935   17.4125 H   0  0  0  0  0  0
  -29.6339  -13.5040   17.7606 H   0  0  0  0  0  0
  -27.8189  -11.3114   18.8226 H   0  0  0  0  0  0
  -27.3418  -12.6271   17.7834 H   0  0  0  0  0  0
  -27.6854  -14.2619   19.5505 H   0  0  0  0  0  0
  -28.6671  -11.9889   21.3429 H   0  0  0  0  0  0
  -28.4440  -13.6357   21.8478 H   0  0  0  0  0  0
  -25.2745   -9.5693   22.4763 H   0  0  0  0  0  0
  -24.0000   -7.4627   22.7466 H   0  0  0  0  0  0
  -21.0835   -8.8748   19.8940 H   0  0  0  0  0  0
  -22.3675  -10.9655   19.6153 H   0  0  0  0  0  0
  -21.2001   -7.6144   23.9723 H   0  0  0  0  0  0
  -21.1486   -6.0521   25.9087 H   0  0  0  0  0  0
  -22.0594   -2.7603   23.2851 H   0  0  0  0  0  0
  -22.4039  -11.9885   22.4825 H   0  0  0  0  0  0
  -21.1052  -13.1231   22.2596 H   0  0  0  0  0  0
  -24.6585  -15.8497   20.5272 H   0  0  0  0  0  0
  -26.2828  -15.6328   20.1108 H   0  0  0  0  0  0
  -26.7138  -32.5542   23.1140 H   0  0  0  0  0  0
  -25.0283  -33.9798   25.0594 H   0  0  0  0  0  0
  -22.6968  -31.3129   21.4056 H   0  0  0  0  0  0
  -23.3723  -35.9674   23.3316 H   0  0  0  0  0  0
  -24.3558  -36.8910   22.2029 H   0  0  0  0  0  0
  -23.7249  -37.6549   23.6621 H   0  0  0  0  0  0
  -26.0506  -31.5840   20.5892 H   0  0  0  0  0  0
  -26.8266  -30.8872   21.9807 H   0  0  0  0  0  0
  -28.0860  -29.0555   21.2232 H   0  0  0  0  0  0
  -26.0731  -26.0386   18.8899 H   0  0  0  0  0  0
  -23.9953  -27.3496   18.9423 H   0  0  0  0  0  0
  -23.7313  -30.6102   19.4012 H   0  0  0  0  0  0
  -22.7389  -29.2546   19.8555 H   0  0  0  0  0  0
  -25.1275  -36.1959   25.0809 H   0  0  0  0  0  0
  -21.0033  -28.3225   24.1402 H   0  0  0  0  0  0
  -20.5657  -26.2287   23.3618 H   0  0  0  0  0  0
  -21.6627  -26.7395   22.1190 H   0  0  0  0  0  0
  -19.6861  -25.6283   21.1241 H   0  0  0  0  0  0
  -19.6634  -27.3202   20.6772 H   0  0  0  0  0  0
  -17.4182  -26.6719   21.4036 H   0  0  0  0  0  0
  -18.0269  -26.0059   22.9017 H   0  0  0  0  0  0
  -19.7925  -30.7272   24.2272 H   0  0  0  0  0  0
  -17.4991  -31.6248   24.5171 H   0  0  0  0  0  0
  -15.5341  -30.2960   23.7606 H   0  0  0  0  0  0
  -15.8704  -28.0808   22.7002 H   0  0  0  0  0  0
  -24.5937  -30.7021   25.7777 H   0  0  0  0  0  0
  -24.8884  -32.2868   26.4846 H   0  0  0  0  0  0
  -25.8073  -30.8925   27.0229 H   0  0  0  0  0  0
  -26.2839  -29.6853   24.1066 H   0  0  0  0  0  0
  -27.4050  -29.7239   25.4490 H   0  0  0  0  0  0
  -27.8690  -30.4399   23.9232 H   0  0  0  0  0  0
  -27.2695  -33.3614   26.2049 H   0  0  0  0  0  0
  -28.3880  -32.6813   25.0302 H   0  0  0  0  0  0
  -28.0710  -31.8416   26.5399 H   0  0  0  0  0  0
  -28.2589  -38.0102   24.7495 H   0  0  0  0  0  0
  -28.1032  -36.2627   24.6294 H   0  0  0  0  0  0
  -27.2280  -37.1488   25.8872 H   0  0  0  0  0  0
  -20.9280  -29.8871   21.7042 H   0  0  0  0  0  0
  -26.0155  -38.2885   24.1404 H   0  0  0  0  0  0
  -32.4769  -16.9017   19.9558 H   0  0  0  0  0  0
  -32.2715  -21.1665   19.7809 H   0  0  0  0  0  0
  -30.3691  -22.2049   18.7894 H   0  0  0  0  0  0
  -30.5020  -25.5902   20.5388 H   0  0  0  0  0  0
  -30.2017  -24.8492   22.0400 H   0  0  0  0  0  0
  -26.6673  -22.4476   21.2912 H   0  0  0  0  0  0
  -26.5938  -23.5549   22.6167 H   0  0  0  0  0  0
  -26.2970  -24.8980   20.8312 H   0  0  0  0  0  0
  -27.3831  -24.0646   19.7679 H   0  0  0  0  0  0
  -28.2944  -21.8122   22.9073 H   0  0  0  0  0  0
  -28.9492  -23.3935   23.0882 H   0  0  0  0  0  0
  -28.2134  -25.9504   22.0247 H   0  0  0  0  0  0
  -34.1455  -18.2416   18.6913 H   0  0  0  0  0  0
  -33.8867  -19.9619   18.4256 H   0  0  0  0  0  0
  -32.8513  -18.7773   17.6194 H   0  0  0  0  0  0
  -28.9380  -18.2885   22.9880 H   0  0  0  0  0  0
  -29.2750  -19.9493   23.3773 H   0  0  0  0  0  0
  -30.2948  -18.6924   24.0477 H   0  0  0  0  0  0
  -30.3140  -24.6866   15.9577 H   0  0  0  0  0  0
  -28.9036  -24.0734   16.8212 H   0  0  0  0  0  0
  -30.2016  -22.9729   16.3532 H   0  0  0  0  0  0
  -30.4678  -16.5620   23.1129 H   0  0  0  0  0  0
  -31.9509  -16.0521   22.4263 H   0  0  0  0  0  0
  -31.6289  -22.3038   21.7990 H   0  0  0  0  0  0
  -30.6620  -21.5977   23.0135 H   0  0  0  0  0  0
  -31.7709  -24.2114   17.9018 H   0  0  0  0  0  0
  -30.4585  -25.2670   18.3715 H   0  0  0  0  0  0
  -29.2927  -15.1938   21.7592 H   0  0  0  0  0  0
  -29.1453  -21.6479   20.7649 H   0  0  0  0  0  0
  1 25  1  0  0  0
  1 30  2  0  0  0
  1 90  1  0  0  0
  2  3  1  0  0  0
  2 25  1  0  0  0
  2 92  1  0  0  0
  2 93  1  0  0  0
  3  4  1  0  0  0
  3 94  1  0  0  0
  3 95  1  0  0  0
  4  5  1  0  0  0
  4 96  1  0  0  0
  4 97  1  0  0  0
  5  6  1  0  0  0
  5 26  1  0  0  0
  5 98  1  0  0  0
  6 25  1  0  0  0
  6 99  1  0  0  0
  6100  1  0  0  0
  7  8  2  0  0  0
  7 26  1  0  0  0
  7 29  1  0  0  0
  8  9  1  0  0  0
  8 22  1  0  0  0
  9 10  1  0  0  0
  9 27  2  0  0  0
 10 11  2  0  0  0
 10 15  1  0  0  0
 11 12  1  0  0  0
 11101  1  0  0  0
 12 13  2  0  0  0
 12102  1  0  0  0
 13 14  1  0  0  0
 13 31  1  0  0  0
 14 15  2  0  0  0
 14103  1  0  0  0
 15104  1  0  0  0
 16 17  2  0  0  0
 16 21  1  0  0  0
 16 31  1  0  0  0
 17 18  1  0  0  0
 17105  1  0  0  0
 18 19  2  0  0  0
 18106  1  0  0  0
 19 20  1  0  0  0
 19 24  1  0  0  0
 20 21  2  0  0  0
 20107  1  0  0  0
 21 23  1  0  0  0
 22 28  1  0  0  0
 22 32  2  0  0  0
 26 27  1  0  0  0
 28108  1  0  0  0
 28109  1  0  0  0
 29110  1  0  0  0
 29111  1  0  0  0
 33 34  1  0  0  0
 33 66  1  0  0  0
 33 70  2  0  0  0
 34 36  1  0  0  0
 34 59  1  0  0  0
 34112  1  0  0  0
 35 44  2  0  0  0
 35 45  1  0  0  0
 35 68  1  0  0  0
 36 56  1  0  0  0
 36113  1  0  0  0
 37 39  1  0  0  0
 37 47  1  0  0  0
 37 66  1  0  0  0
 37114  1  0  0  0
 38 43  2  0  0  0
 38 46  1  0  0  0
 38 47  1  0  0  0
 39 64  1  0  0  0
 39 67  2  0  0  0
 40 52  1  0  0  0
 40 53  2  0  0  0
 40 58  1  0  0  0
 41115  1  0  0  0
 41116  1  0  0  0
 41117  1  0  0  0
 41 48  1  0  0  0
 42 43  1  0  0  0
 42 66  1  0  0  0
 42118  1  0  0  0
 42119  1  0  0  0
 43 44  1  0  0  0
 44120  1  0  0  0
 45 46  2  0  0  0
 45121  1  0  0  0
 46122  1  0  0  0
 47123  1  0  0  0
 47124  1  0  0  0
 48 56  1  0  0  0
 48 65  1  0  0  0
 48125  1  0  0  0
 49 50  1  0  0  0
 49 53  1  0  0  0
 49 64  1  0  0  0
 49126  1  0  0  0
 50 51  1  0  0  0
 50127  1  0  0  0
 50128  1  0  0  0
 51 52  1  0  0  0
 51129  1  0  0  0
 51130  1  0  0  0
 52131  1  0  0  0
 52132  1  0  0  0
 53 54  1  0  0  0
 54 55  2  0  0  0
 54133  1  0  0  0
 55 57  1  0  0  0
 55134  1  0  0  0
 56 69  2  0  0  0
 57 58  2  0  0  0
 57135  1  0  0  0
 58136  1  0  0  0
 59 60  1  0  0  0
 59 61  1  0  0  0
 59 62  1  0  0  0
 60137  1  0  0  0
 60138  1  0  0  0
 60139  1  0  0  0
 61140  1  0  0  0
 61141  1  0  0  0
 61142  1  0  0  0
 62143  1  0  0  0
 62144  1  0  0  0
 62145  1  0  0  0
 63 65  1  0  0  0
 63146  1  0  0  0
 63147  1  0  0  0
 63148  1  0  0  0
 64149  1  0  0  0
 65150  1  0  0  0
 68 83  1  0  0  0
 71 73  2  0  0  0
 71 74  1  0  0  0
 71151  1  0  0  0
 72 73  1  0  0  0
 72 75  2  0  0  0
 72152  1  0  0  0
 73 84  1  0  0  0
 74 76  2  0  0  0
 74 87  1  0  0  0
 75 76  1  0  0  0
 75 88  1  0  0  0
 76 85  1  0  0  0
 77 78  2  0  0  0
 77 79  1  0  0  0
 77 91  1  0  0  0
 78 89  1  0  0  0
 78153  1  0  0  0
 79 83  1  0  0  0
 79154  1  0  0  0
 79155  1  0  0  0
 80 81  1  0  0  0
 80 82  1  0  0  0
 80156  1  0  0  0
 80157  1  0  0  0
 81 83  1  0  0  0
 81158  1  0  0  0
 81159  1  0  0  0
 82 91  1  0  0  0
 82160  1  0  0  0
 82161  1  0  0  0
 83162  1  0  0  0
 84163  1  0  0  0
 84164  1  0  0  0
 84165  1  0  0  0
 85166  1  0  0  0
 85167  1  0  0  0
 85168  1  0  0  0
 86 89  1  0  0  0
 86169  1  0  0  0
 86170  1  0  0  0
 86171  1  0  0  0
 87 90  1  0  0  0
 87172  1  0  0  0
 87173  1  0  0  0
 88174  1  0  0  0
 88175  1  0  0  0
 88 91  1  0  0  0
 89176  1  0  0  0
 89177  1  0  0  0
 90178  1  0  0  0
 91179  1  0  0  0
M  CHG  1  91   1
M  ISO  4   1 100  68 101  83 101  90 100
M  END
> <chiral flag>
0

> <version>
0

> <s_m_source_file>
/data/baiqing/PycharmProjects/Reinvent-master-3.2/result/LINK_invent/BTK/process_docking_weight1_custom_product_contain_oxygen_bond_distance_aromatic_linkinvent_7_9_3/rearranged_h_0040.sdf

> <i_m_source_file_index>
76

> <r_mmod_Potential_Energy-OPLS-2005>
-127.176666259766

> <r_mmod_Stretch_Energy-OPLS-2005>
50.359260559082

> <r_mmod_Bend_Energy-OPLS-2005>
124.938438415527

> <r_mmod_Torsional_Energy-OPLS-2005>
256.783966064453

> <r_mmod_Improper_Torsional_Energy-OPLS-2005>
3.2478723526001

> <r_mmod_Van_der_Waal_Energy-OPLS-2005>
165.424880981445

> <r_mmod_Electrostatic_Energy-OPLS-2005>
-319.286315917969

> <r_mmod_Solvation_Energy-OPLS-2005>
-424.365325927734

> <b_mmod_Minimization_Converged-OPLS-2005>
0

> <r_mmod_RMS_Derivative-OPLS-2005>
2.70233917236328

$$$$
76
                    3D
 Structure written by MMmdl.
174183  0  0  1  0            999 V2000
  -30.7389  -14.4827   20.6132 C   0  0  0  0  0  0
  -30.4196  -12.3218   19.4467 C   0  0  0  0  0  0
  -29.4990  -12.5201   18.2252 C   0  0  0  0  0  0
  -28.0220  -12.3684   18.6303 C   0  0  0  0  0  0
  -27.6609  -13.2188   19.8761 C   0  0  2  0  0  0
  -28.6971  -13.0345   21.0106 C   0  0  0  0  0  0
  -25.2534  -13.8186   20.5700 C   0  0  0  0  0  0
  -24.1778  -13.0456   20.9161 C   0  0  0  0  0  0
  -24.6343  -11.6939   20.8720 C   0  0  0  0  0  0
  -23.8992  -10.4320   21.0384 C   0  0  0  0  0  0
  -24.3561   -9.4246   21.9173 C   0  0  0  0  0  0
  -23.6266   -8.2261   22.0736 C   0  0  0  0  0  0
  -22.4252   -8.0271   21.3516 C   0  0  0  0  0  0
  -21.9862   -9.0228   20.4621 C   0  0  0  0  0  0
  -22.7154  -10.2137   20.3039 C   0  0  0  0  0  0
  -21.6858   -6.0704   22.5261 C   0  0  0  0  0  0
  -21.4006   -6.5610   23.8189 C   0  0  0  0  0  0
  -21.3686   -5.6775   24.9160 C   0  0  0  0  0  0
  -21.6063   -4.3033   24.7218 C   0  0  0  0  0  0
  -21.8814   -3.8104   23.4340 C   0  0  0  0  0  0
  -21.9192   -4.6929   22.3394 C   0  0  0  0  0  0
  -22.7793  -13.5273   21.1833 C   0  0  0  0  0  0
  -22.1675   -4.2106   21.0979 F   0  0  0  0  0  0
  -21.5650   -3.4535   25.7744 F   0  0  0  0  0  0
  -30.0475  -13.3119   20.4740 N   0  0  0  0  0  0
  -26.3009  -12.9396   20.3361 N   0  0  0  0  0  0
  -25.9285  -11.6546   20.5735 N   0  0  0  0  0  0
  -22.0424  -12.8269   22.0395 N   0  0  0  0  0  0
  -25.4219  -15.1908   20.4190 N   0  0  0  0  0  0
  -31.8039  -14.6974   20.0269 O   0  0  0  0  0  0
  -21.6634   -6.8857   21.4214 O   0  0  0  0  0  0
  -22.3510  -14.5595   20.6701 O   0  0  0  0  0  0
  -24.6178  -31.8706   23.2115 C   0  0  0  0  0  0
  -25.9074  -32.4819   23.8401 C   0  0  1  0  0  0
  -27.2212  -27.4264   20.0954 C   0  0  0  0  0  0
  -25.5956  -33.8626   24.2356 N   0  0  0  0  0  0
  -23.4026  -30.4974   21.5545 C   0  0  2  0  0  0
  -24.8467  -28.9605   20.1257 C   0  0  0  0  0  0
  -22.7411  -29.4684   22.4987 C   0  0  0  0  0  0
  -18.0290  -28.1335   22.8488 C   0  0  0  0  0  0
  -24.1487  -36.7293   23.2625 C   0  0  0  0  0  0
  -25.9351  -30.8318   21.3660 C   0  0  0  0  0  0
  -26.0111  -29.4599   20.7277 C   0  0  0  0  0  0
  -27.2069  -28.6972   20.7170 C   0  0  0  0  0  0
  -26.0395  -26.9464   19.4916 C   0  0  0  0  0  0
  -24.8546  -27.6979   19.5110 C   0  0  0  0  0  0
  -23.6128  -29.8352   20.1678 C   0  0  0  0  0  0
  -25.4095  -36.3102   24.0330 C   0  0  1  0  0  0
  -20.5878  -28.3666   23.1296 C   0  0  2  0  0  0
  -20.6791  -26.9390   22.5445 C   0  0  0  0  0  0
  -19.5786  -26.6378   21.5222 C   0  0  0  0  0  0
  -18.1945  -26.7902   22.1599 C   0  0  0  0  0  0
  -19.1532  -28.8812   23.2898 C   0  0  0  0  0  0
  -18.9464  -30.1409   23.8915 C   0  0  0  0  0  0
  -17.6457  -30.6564   24.0531 C   0  0  0  0  0  0
  -25.9028  -34.9462   23.5127 C   0  0  0  0  0  0
  -16.5351  -29.9045   23.6291 C   0  0  0  0  0  0
  -16.7294  -28.6459   23.0345 C   0  0  0  0  0  0
  -26.4483  -31.6592   25.0716 C   0  0  0  0  0  0
  -25.3751  -31.3734   26.1472 C   0  0  0  0  0  0
  -27.0306  -30.3038   24.6061 C   0  0  0  0  0  0
  -27.6077  -32.4285   25.7493 C   0  0  0  0  0  0
  -27.5571  -37.1796   24.8469 C   0  0  0  0  0  0
  -21.4140  -29.3028   22.3693 N   0  0  0  0  0  0
  -26.4290  -37.3779   23.9412 N   0  0  0  0  0  0
  -24.6704  -31.0804   22.1027 N   0  0  0  0  0  0
  -23.4174  -28.8230   23.3045 O   0  0  0  0  0  0
  -28.3593  -26.6646   19.9426 O   0  0  0  0  0  0
  -26.5600  -34.8926   22.4675 O   0  0  0  0  0  0
  -23.5380  -32.1462   23.7502 O   0  0  0  0  0  0
  -30.5480  -18.9983   20.2658 C   0  0  0  0  0  0
  -30.8468  -17.6178   20.4252 C   0  0  0  0  0  0
  -29.1631  -17.4664   22.1525 C   0  0  0  0  0  0
  -29.5133  -19.6211   21.0137 C   0  0  0  0  0  0
  -30.1151  -16.8188   21.3381 C   0  0  0  0  0  0
  -28.8467  -18.8321   21.9878 C   0  0  0  0  0  0
  -28.7500  -23.4729   20.2841 C   0  0  0  0  0  0
  -27.6118  -23.5049   19.5408 C   0  0  0  0  0  0
  -26.5589  -22.5086   19.4287 C   0  0  0  0  0  0
  -26.4760  -21.5815   18.4564 C   0  0  0  0  0  0
  -29.6536  -24.7075   20.4242 C   0  0  0  0  0  0
  -28.6552  -24.9878   23.4499 C   0  0  0  0  0  0
  -29.4730  -23.6690   23.3468 C   0  0  0  0  0  0
  -27.9674  -25.5584   22.1932 C   0  0  0  0  0  0
  -28.8630  -22.4532   22.5851 C   0  0  0  0  0  0
  -28.9393  -25.9504   21.0477 C   0  0  2  0  0  0
  -25.3927  -20.5229   18.3952 C   0  0  0  0  0  0
  -28.9142  -20.9680   20.5413 C   0  0  0  0  0  0
  -30.2026  -15.3864   21.4582 N   0  0  0  0  0  0
  -29.2442  -22.3108   21.1429 N   0  3  1  0  0  0
  -27.5356  -19.4594   22.9276 Cl  0  0  0  0  0  0
  -31.4677  -12.4072   19.1492 H   0  0  0  0  0  0
  -30.3076  -11.3130   19.8477 H   0  0  0  0  0  0
  -29.7515  -11.7981   17.4484 H   0  0  0  0  0  0
  -29.6601  -13.5061   17.7882 H   0  0  0  0  0  0
  -27.8406  -11.3144   18.8449 H   0  0  0  0  0  0
  -27.3764  -12.6254   17.7894 H   0  0  0  0  0  0
  -27.6971  -14.2628   19.5656 H   0  0  0  0  0  0
  -28.6595  -12.0184   21.4032 H   0  0  0  0  0  0
  -28.4219  -13.6784   21.8486 H   0  0  0  0  0  0
  -25.2708   -9.5755   22.4745 H   0  0  0  0  0  0
  -23.9982   -7.4671   22.7479 H   0  0  0  0  0  0
  -21.0778   -8.8717   19.8948 H   0  0  0  0  0  0
  -22.3563  -10.9666   19.6152 H   0  0  0  0  0  0
  -21.1961   -7.6108   23.9679 H   0  0  0  0  0  0
  -21.1552   -6.0495   25.9074 H   0  0  0  0  0  0
  -22.0564   -2.7551   23.2838 H   0  0  0  0  0  0
  -22.4021  -11.9908   22.4751 H   0  0  0  0  0  0
  -21.1046  -13.1302   22.2647 H   0  0  0  0  0  0
  -24.6495  -15.8420   20.5129 H   0  0  0  0  0  0
  -26.2799  -15.6345   20.1194 H   0  0  0  0  0  0
  -26.7134  -32.5518   23.1159 H   0  0  0  0  0  0
  -25.0122  -33.9785   25.0526 H   0  0  0  0  0  0
  -22.6915  -31.3162   21.4198 H   0  0  0  0  0  0
  -23.3743  -35.9630   23.3299 H   0  0  0  0  0  0
  -24.3600  -36.8908   22.2049 H   0  0  0  0  0  0
  -23.7277  -37.6507   23.6639 H   0  0  0  0  0  0
  -26.0445  -31.5893   20.5882 H   0  0  0  0  0  0
  -26.8252  -30.8925   21.9794 H   0  0  0  0  0  0
  -28.1131  -29.0852   21.1602 H   0  0  0  0  0  0
  -26.0243  -25.9952   18.9848 H   0  0  0  0  0  0
  -23.9601  -27.3117   19.0409 H   0  0  0  0  0  0
  -23.7287  -30.6163   19.4134 H   0  0  0  0  0  0
  -22.7332  -29.2651   19.8645 H   0  0  0  0  0  0
  -25.1267  -36.1927   25.0825 H   0  0  0  0  0  0
  -20.9961  -28.3276   24.1413 H   0  0  0  0  0  0
  -20.5668  -26.2295   23.3660 H   0  0  0  0  0  0
  -21.6660  -26.7393   22.1256 H   0  0  0  0  0  0
  -19.6985  -25.6303   21.1227 H   0  0  0  0  0  0
  -19.6755  -27.3213   20.6775 H   0  0  0  0  0  0
  -17.4219  -26.6611   21.4009 H   0  0  0  0  0  0
  -18.0336  -26.0043   22.8979 H   0  0  0  0  0  0
  -19.7923  -30.7261   24.2292 H   0  0  0  0  0  0
  -17.4974  -31.6276   24.5078 H   0  0  0  0  0  0
  -15.5330  -30.2942   23.7562 H   0  0  0  0  0  0
  -15.8714  -28.0763   22.7023 H   0  0  0  0  0  0
  -24.5894  -30.7101   25.7841 H   0  0  0  0  0  0
  -24.8944  -32.2908   26.4882 H   0  0  0  0  0  0
  -25.8068  -30.8947   27.0266 H   0  0  0  0  0  0
  -26.2872  -29.6827   24.1048 H   0  0  0  0  0  0
  -27.4077  -29.7214   25.4481 H   0  0  0  0  0  0
  -27.8691  -30.4392   23.9220 H   0  0  0  0  0  0
  -27.2705  -33.3560   26.2118 H   0  0  0  0  0  0
  -28.3853  -32.6878   25.0301 H   0  0  0  0  0  0
  -28.0759  -31.8372   26.5374 H   0  0  0  0  0  0
  -28.2574  -38.0106   24.7480 H   0  0  0  0  0  0
  -28.1079  -36.2629   24.6292 H   0  0  0  0  0  0
  -27.2296  -37.1447   25.8881 H   0  0  0  0  0  0
  -20.9340  -29.8704   21.6856 H   0  0  0  0  0  0
  -26.0158  -38.2843   24.1428 H   0  0  0  0  0  0
  -31.0570  -19.5397   19.4818 H   0  0  0  0  0  0
  -31.6065  -17.1796   19.7929 H   0  0  0  0  0  0
  -28.5996  -16.8922   22.8699 H   0  0  0  0  0  0
  -27.4280  -24.4295   19.0216 H   0  0  0  0  0  0
  -25.7895  -22.5158   20.1890 H   0  0  0  0  0  0
  -27.2032  -21.5590   17.6552 H   0  0  0  0  0  0
  -30.0328  -24.9680   19.4358 H   0  0  0  0  0  0
  -30.5512  -24.4728   20.9920 H   0  0  0  0  0  0
  -29.3158  -25.7602   23.8502 H   0  0  0  0  0  0
  -27.8871  -24.8515   24.2116 H   0  0  0  0  0  0
  -29.5990  -23.3519   24.3837 H   0  0  0  0  0  0
  -30.4953  -23.8693   23.0301 H   0  0  0  0  0  0
  -27.4252  -26.4460   22.5174 H   0  0  0  0  0  0
  -27.1884  -24.8741   21.8567 H   0  0  0  0  0  0
  -27.7793  -22.4490   22.6981 H   0  0  0  0  0  0
  -29.2343  -21.5657   23.0959 H   0  0  0  0  0  0
  -29.6982  -26.6216   21.4528 H   0  0  0  0  0  0
  -25.8236  -19.5397   18.1907 H   0  0  0  0  0  0
  -24.6797  -20.7497   17.6029 H   0  0  0  0  0  0
  -24.8468  -20.4599   19.3378 H   0  0  0  0  0  0
  -27.8460  -20.8123   20.6402 H   0  0  0  0  0  0
  -29.1196  -21.0315   19.4694 H   0  0  0  0  0  0
  -29.5017  -14.9771   22.0565 H   0  0  0  0  0  0
  -30.2541  -22.3320   21.1292 H   0  0  0  0  0  0
  1 25  1  0  0  0
  1 30  2  0  0  0
  1 89  1  0  0  0
  2  3  1  0  0  0
  2 25  1  0  0  0
  2 92  1  0  0  0
  2 93  1  0  0  0
  3  4  1  0  0  0
  3 94  1  0  0  0
  3 95  1  0  0  0
  4  5  1  0  0  0
  4 96  1  0  0  0
  4 97  1  0  0  0
  5  6  1  0  0  0
  5 26  1  0  0  0
  5 98  1  0  0  0
  6 25  1  0  0  0
  6 99  1  0  0  0
  6100  1  0  0  0
  7  8  2  0  0  0
  7 26  1  0  0  0
  7 29  1  0  0  0
  8  9  1  0  0  0
  8 22  1  0  0  0
  9 10  1  0  0  0
  9 27  2  0  0  0
 10 11  2  0  0  0
 10 15  1  0  0  0
 11 12  1  0  0  0
 11101  1  0  0  0
 12 13  2  0  0  0
 12102  1  0  0  0
 13 14  1  0  0  0
 13 31  1  0  0  0
 14 15  2  0  0  0
 14103  1  0  0  0
 15104  1  0  0  0
 16 17  2  0  0  0
 16 21  1  0  0  0
 16 31  1  0  0  0
 17 18  1  0  0  0
 17105  1  0  0  0
 18 19  2  0  0  0
 18106  1  0  0  0
 19 20  1  0  0  0
 19 24  1  0  0  0
 20 21  2  0  0  0
 20107  1  0  0  0
 21 23  1  0  0  0
 22 28  1  0  0  0
 22 32  2  0  0  0
 26 27  1  0  0  0
 28108  1  0  0  0
 28109  1  0  0  0
 29110  1  0  0  0
 29111  1  0  0  0
 33 34  1  0  0  0
 33 66  1  0  0  0
 33 70  2  0  0  0
 34 36  1  0  0  0
 34 59  1  0  0  0
 34112  1  0  0  0
 35 44  2  0  0  0
 35 45  1  0  0  0
 35 68  1  0  0  0
 36 56  1  0  0  0
 36113  1  0  0  0
 37 39  1  0  0  0
 37 47  1  0  0  0
 37 66  1  0  0  0
 37114  1  0  0  0
 38 43  2  0  0  0
 38 46  1  0  0  0
 38 47  1  0  0  0
 39 64  1  0  0  0
 39 67  2  0  0  0
 40 52  1  0  0  0
 40 53  2  0  0  0
 40 58  1  0  0  0
 41115  1  0  0  0
 41116  1  0  0  0
 41117  1  0  0  0
 41 48  1  0  0  0
 42 43  1  0  0  0
 42 66  1  0  0  0
 42118  1  0  0  0
 42119  1  0  0  0
 43 44  1  0  0  0
 44120  1  0  0  0
 45 46  2  0  0  0
 45121  1  0  0  0
 46122  1  0  0  0
 47123  1  0  0  0
 47124  1  0  0  0
 48 56  1  0  0  0
 48 65  1  0  0  0
 48125  1  0  0  0
 49 50  1  0  0  0
 49 53  1  0  0  0
 49 64  1  0  0  0
 49126  1  0  0  0
 50 51  1  0  0  0
 50127  1  0  0  0
 50128  1  0  0  0
 51 52  1  0  0  0
 51129  1  0  0  0
 51130  1  0  0  0
 52131  1  0  0  0
 52132  1  0  0  0
 53 54  1  0  0  0
 54 55  2  0  0  0
 54133  1  0  0  0
 55 57  1  0  0  0
 55134  1  0  0  0
 56 69  2  0  0  0
 57 58  2  0  0  0
 57135  1  0  0  0
 58136  1  0  0  0
 59 60  1  0  0  0
 59 61  1  0  0  0
 59 62  1  0  0  0
 60137  1  0  0  0
 60138  1  0  0  0
 60139  1  0  0  0
 61140  1  0  0  0
 61141  1  0  0  0
 61142  1  0  0  0
 62143  1  0  0  0
 62144  1  0  0  0
 62145  1  0  0  0
 63 65  1  0  0  0
 63146  1  0  0  0
 63147  1  0  0  0
 63148  1  0  0  0
 64149  1  0  0  0
 65150  1  0  0  0
 68 86  1  0  0  0
 71 72  2  0  0  0
 71 74  1  0  0  0
 71151  1  0  0  0
 72 75  1  0  0  0
 72152  1  0  0  0
 73 75  2  0  0  0
 73 76  1  0  0  0
 73153  1  0  0  0
 74 76  2  0  0  0
 74 88  1  0  0  0
 75 89  1  0  0  0
 76 91  1  0  0  0
 77 78  2  0  0  0
 77 81  1  0  0  0
 77 90  1  0  0  0
 78 79  1  0  0  0
 78154  1  0  0  0
 79 80  2  0  0  0
 79155  1  0  0  0
 80 87  1  0  0  0
 80156  1  0  0  0
 81 86  1  0  0  0
 81157  1  0  0  0
 81158  1  0  0  0
 82 83  1  0  0  0
 82 84  1  0  0  0
 82159  1  0  0  0
 82160  1  0  0  0
 83 85  1  0  0  0
 83161  1  0  0  0
 83162  1  0  0  0
 84 86  1  0  0  0
 84163  1  0  0  0
 84164  1  0  0  0
 85 90  1  0  0  0
 85165  1  0  0  0
 85166  1  0  0  0
 86167  1  0  0  0
 87168  1  0  0  0
 87169  1  0  0  0
 87170  1  0  0  0
 88171  1  0  0  0
 88172  1  0  0  0
 88 90  1  0  0  0
 89173  1  0  0  0
 90174  1  0  0  0
M  CHG  1  90   1
M  ISO  4   1 100  68 101  86 101  89 100
M  END
> <chiral flag>
0

> <version>
0

> <s_m_source_file>
/data/baiqing/PycharmProjects/Reinvent-master-3.2/result/LINK_invent/BTK/process_docking_weight1_custom_product_contain_oxygen_bond_distance_aromatic_linkinvent_7_9_3/rearranged_h_0040.sdf

> <i_m_source_file_index>
77

> <r_mmod_Potential_Energy-OPLS-2005>
9.02289962768555

> <r_mmod_Stretch_Energy-OPLS-2005>
52.8835601806641

> <r_mmod_Bend_Energy-OPLS-2005>
169.672943115234

> <r_mmod_Torsional_Energy-OPLS-2005>
300.251708984375

> <r_mmod_Improper_Torsional_Energy-OPLS-2005>
6.76329135894775

> <r_mmod_Van_der_Waal_Energy-OPLS-2005>
157.185073852539

> <r_mmod_Electrostatic_Energy-OPLS-2005>
-275.715881347656

> <r_mmod_Solvation_Energy-OPLS-2005>
-416.033416748047

> <b_mmod_Minimization_Converged-OPLS-2005>
0

> <r_mmod_RMS_Derivative-OPLS-2005>
5.39675569534302

$$$$
77
                    3D
 Structure written by MMmdl.
173182  0  0  1  0            999 V2000
  -30.8025  -14.3596   20.6834 C   0  0  0  0  0  0
  -30.4063  -12.2902   19.4026 C   0  0  0  0  0  0
  -29.4794  -12.5216   18.1966 C   0  0  0  0  0  0
  -28.0064  -12.3790   18.6160 C   0  0  0  0  0  0
  -27.6641  -13.2109   19.8799 C   0  0  2  0  0  0
  -28.7040  -12.9825   21.0008 C   0  0  0  0  0  0
  -25.2582  -13.8182   20.5690 C   0  0  0  0  0  0
  -24.1835  -13.0445   20.9179 C   0  0  0  0  0  0
  -24.6394  -11.6916   20.8743 C   0  0  0  0  0  0
  -23.9070  -10.4300   21.0407 C   0  0  0  0  0  0
  -24.3615   -9.4213   21.9186 C   0  0  0  0  0  0
  -23.6291   -8.2251   22.0753 C   0  0  0  0  0  0
  -22.4279   -8.0286   21.3539 C   0  0  0  0  0  0
  -21.9914   -9.0259   20.4642 C   0  0  0  0  0  0
  -22.7243  -10.2142   20.3051 C   0  0  0  0  0  0
  -21.6851   -6.0741   22.5276 C   0  0  0  0  0  0
  -21.4016   -6.5639   23.8211 C   0  0  0  0  0  0
  -21.3659   -5.6791   24.9173 C   0  0  0  0  0  0
  -21.6041   -4.3053   24.7223 C   0  0  0  0  0  0
  -21.8819   -3.8150   23.4340 C   0  0  0  0  0  0
  -21.9193   -4.6969   22.3397 C   0  0  0  0  0  0
  -22.7857  -13.5236   21.1846 C   0  0  0  0  0  0
  -22.1661   -4.2155   21.0974 F   0  0  0  0  0  0
  -21.5631   -3.4535   25.7735 F   0  0  0  0  0  0
  -30.0493  -13.2510   20.4593 N   0  0  0  0  0  0
  -26.3032  -12.9363   20.3400 N   0  0  0  0  0  0
  -25.9327  -11.6517   20.5782 N   0  0  0  0  0  0
  -22.0489  -12.8222   22.0393 N   0  0  0  0  0  0
  -25.4303  -15.1900   20.4093 N   0  0  0  0  0  0
  -31.7968  -14.6358   20.0094 O   0  0  0  0  0  0
  -21.6636   -6.8886   21.4237 O   0  0  0  0  0  0
  -22.3545  -14.5545   20.6708 O   0  0  0  0  0  0
  -24.6131  -31.8699   23.2116 C   0  0  0  0  0  0
  -25.9034  -32.4833   23.8406 C   0  0  1  0  0  0
  -27.2320  -27.4537   20.0821 C   0  0  0  0  0  0
  -25.5904  -33.8633   24.2332 N   0  0  0  0  0  0
  -23.4003  -30.4942   21.5531 C   0  0  2  0  0  0
  -24.8455  -28.9667   20.1119 C   0  0  0  0  0  0
  -22.7407  -29.4668   22.5004 C   0  0  0  0  0  0
  -18.0275  -28.1386   22.8493 C   0  0  0  0  0  0
  -24.1494  -36.7325   23.2640 C   0  0  0  0  0  0
  -25.9276  -30.8406   21.3621 C   0  0  0  0  0  0
  -26.0066  -29.4777   20.7073 C   0  0  0  0  0  0
  -27.2042  -28.7288   20.6891 C   0  0  0  0  0  0
  -26.0561  -26.9609   19.4722 C   0  0  0  0  0  0
  -24.8644  -27.7068   19.4933 C   0  0  0  0  0  0
  -23.6068  -29.8310   20.1658 C   0  0  0  0  0  0
  -25.4117  -36.3119   24.0331 C   0  0  1  0  0  0
  -20.5868  -28.3672   23.1327 C   0  0  2  0  0  0
  -20.6778  -26.9416   22.5419 C   0  0  0  0  0  0
  -19.5755  -26.6390   21.5226 C   0  0  0  0  0  0
  -18.1923  -26.7937   22.1617 C   0  0  0  0  0  0
  -19.1523  -28.8844   23.2905 C   0  0  0  0  0  0
  -18.9454  -30.1450   23.8918 C   0  0  0  0  0  0
  -17.6455  -30.6592   24.0574 C   0  0  0  0  0  0
  -25.9039  -34.9480   23.5123 C   0  0  0  0  0  0
  -16.5348  -29.9100   23.6330 C   0  0  0  0  0  0
  -16.7264  -28.6520   23.0347 C   0  0  0  0  0  0
  -26.4473  -31.6617   25.0729 C   0  0  0  0  0  0
  -25.3732  -31.3748   26.1482 C   0  0  0  0  0  0
  -27.0292  -30.3059   24.6087 C   0  0  0  0  0  0
  -27.6062  -32.4334   25.7474 C   0  0  0  0  0  0
  -27.5582  -37.1823   24.8466 C   0  0  0  0  0  0
  -21.4138  -29.3040   22.3739 N   0  0  0  0  0  0
  -26.4308  -37.3790   23.9388 N   0  0  0  0  0  0
  -24.6653  -31.0808   22.1012 N   0  0  0  0  0  0
  -23.4186  -28.8204   23.3031 O   0  0  0  0  0  0
  -28.3877  -26.7004   20.1068 O   0  0  0  0  0  0
  -26.5596  -34.8922   22.4682 O   0  0  0  0  0  0
  -23.5328  -32.1456   23.7511 O   0  0  0  0  0  0
  -31.1429  -19.8146   21.3239 C   0  0  0  0  0  0
  -29.6695  -19.4620   23.2178 C   0  0  0  0  0  0
  -30.2762  -20.3470   22.3006 C   0  0  0  0  0  0
  -30.8882  -17.5566   22.2630 C   0  0  0  0  0  0
  -31.4540  -18.4384   21.3039 C   0  0  0  0  0  0
  -29.9622  -18.0823   23.1983 C   0  0  0  0  0  0
  -25.8212  -22.9692   25.4920 C   0  0  0  0  0  0
  -25.9416  -22.6305   24.1982 C   0  0  0  0  0  0
  -27.9423  -25.5546   22.1807 C   0  0  0  0  0  0
  -28.2609  -24.3399   23.0626 C   0  0  0  0  0  0
  -29.4780  -24.5051   20.3980 C   0  0  0  0  0  0
  -29.1588  -22.9801   20.3564 C   0  0  0  0  0  0
  -28.2419  -25.3881   20.6758 C   0  0  2  0  0  0
  -27.7858  -22.9865   22.4742 C   0  0  2  0  0  0
  -31.3494  -16.0972   22.3726 C   0  0  0  0  0  0
  -30.0578  -21.8571   22.4092 C   0  0  0  0  0  0
  -27.1992  -22.0595   23.5669 C   0  0  0  0  0  0
  -30.4764  -15.0873   21.7602 N   0  0  0  0  0  0
  -28.8526  -22.3181   21.6628 N   0  3  2  0  0  0
  -32.5756  -17.8865   20.1101 Cl  0  0  0  0  0  0
  -29.2010  -17.0661   24.3727 Cl  0  0  0  0  0  0
  -31.4510  -12.3715   19.0959 H   0  0  0  0  0  0
  -30.2928  -11.2732   19.7806 H   0  0  0  0  0  0
  -29.7110  -11.8103   17.4025 H   0  0  0  0  0  0
  -29.6531  -13.5150   17.7801 H   0  0  0  0  0  0
  -27.8149  -11.3224   18.8061 H   0  0  0  0  0  0
  -27.3516  -12.6624   17.7913 H   0  0  0  0  0  0
  -27.7141  -14.2617   19.5930 H   0  0  0  0  0  0
  -28.6596  -11.9509   21.3527 H   0  0  0  0  0  0
  -28.4559  -13.5978   21.8660 H   0  0  0  0  0  0
  -25.2760   -9.5691   22.4764 H   0  0  0  0  0  0
  -24.0000   -7.4642   22.7473 H   0  0  0  0  0  0
  -21.0850   -8.8782   19.8946 H   0  0  0  0  0  0
  -22.3705  -10.9683   19.6161 H   0  0  0  0  0  0
  -21.2011   -7.6148   23.9718 H   0  0  0  0  0  0
  -21.1480   -6.0519   25.9077 H   0  0  0  0  0  0
  -22.0600   -2.7614   23.2837 H   0  0  0  0  0  0
  -22.4089  -11.9864   22.4763 H   0  0  0  0  0  0
  -21.1112  -13.1256   22.2605 H   0  0  0  0  0  0
  -24.6669  -15.8490   20.5180 H   0  0  0  0  0  0
  -26.2913  -15.6278   20.1051 H   0  0  0  0  0  0
  -26.7105  -32.5559   23.1175 H   0  0  0  0  0  0
  -25.0094  -33.9812   25.0501 H   0  0  0  0  0  0
  -22.6889  -31.3106   21.4159 H   0  0  0  0  0  0
  -23.3751  -35.9661   23.3309 H   0  0  0  0  0  0
  -24.3579  -36.8942   22.2052 H   0  0  0  0  0  0
  -23.7261  -37.6528   23.6664 H   0  0  0  0  0  0
  -26.0317  -31.6070   20.5929 H   0  0  0  0  0  0
  -26.8182  -30.8977   21.9763 H   0  0  0  0  0  0
  -28.0988  -29.1130   21.1591 H   0  0  0  0  0  0
  -26.0494  -26.0043   18.9704 H   0  0  0  0  0  0
  -23.9734  -27.3126   19.0241 H   0  0  0  0  0  0
  -23.7126  -30.6091   19.4089 H   0  0  0  0  0  0
  -22.7303  -29.2520   19.8691 H   0  0  0  0  0  0
  -25.1297  -36.1993   25.0824 H   0  0  0  0  0  0
  -20.9952  -28.3249   24.1450 H   0  0  0  0  0  0
  -20.5734  -26.2275   23.3600 H   0  0  0  0  0  0
  -21.6646  -26.7490   22.1188 H   0  0  0  0  0  0
  -19.6931  -25.6305   21.1253 H   0  0  0  0  0  0
  -19.6708  -27.3202   20.6758 H   0  0  0  0  0  0
  -17.4208  -26.6703   21.4000 H   0  0  0  0  0  0
  -18.0293  -26.0063   22.8994 H   0  0  0  0  0  0
  -19.7932  -30.7256   24.2302 H   0  0  0  0  0  0
  -17.5019  -31.6280   24.5169 H   0  0  0  0  0  0
  -15.5357  -30.3014   23.7647 H   0  0  0  0  0  0
  -15.8660  -28.0860   22.7047 H   0  0  0  0  0  0
  -24.5845  -30.7171   25.7815 H   0  0  0  0  0  0
  -24.8990  -32.2922   26.4981 H   0  0  0  0  0  0
  -25.8049  -30.8853   27.0221 H   0  0  0  0  0  0
  -26.2817  -29.6819   24.1169 H   0  0  0  0  0  0
  -27.4111  -29.7306   25.4533 H   0  0  0  0  0  0
  -27.8632  -30.4394   23.9187 H   0  0  0  0  0  0
  -27.2726  -33.3682   26.2002 H   0  0  0  0  0  0
  -28.3887  -32.6824   25.0289 H   0  0  0  0  0  0
  -28.0702  -31.8477   26.5424 H   0  0  0  0  0  0
  -28.2626  -38.0093   24.7472 H   0  0  0  0  0  0
  -28.1054  -36.2619   24.6356 H   0  0  0  0  0  0
  -27.2282  -37.1557   25.8866 H   0  0  0  0  0  0
  -20.9298  -29.8776   21.6977 H   0  0  0  0  0  0
  -26.0208  -38.2877   24.1357 H   0  0  0  0  0  0
  -31.6182  -20.4673   20.6048 H   0  0  0  0  0  0
  -29.0011  -19.8345   23.9800 H   0  0  0  0  0  0
  -24.8960  -23.3768   25.8740 H   0  0  0  0  0  0
  -26.6396  -22.8510   26.1887 H   0  0  0  0  0  0
  -25.0951  -22.7721   23.5398 H   0  0  0  0  0  0
  -28.5002  -26.4069   22.5727 H   0  0  0  0  0  0
  -26.8887  -25.8125   22.3004 H   0  0  0  0  0  0
  -27.7916  -24.5236   24.0291 H   0  0  0  0  0  0
  -29.3270  -24.3207   23.2854 H   0  0  0  0  0  0
  -29.8544  -24.7730   19.4098 H   0  0  0  0  0  0
  -30.2934  -24.7319   21.0853 H   0  0  0  0  0  0
  -29.9917  -22.4551   19.8856 H   0  0  0  0  0  0
  -28.3158  -22.8098   19.6845 H   0  0  0  0  0  0
  -27.4017  -24.8803   20.2038 H   0  0  0  0  0  0
  -26.9549  -23.1784   21.7922 H   0  0  0  0  0  0
  -31.4437  -15.8442   23.4283 H   0  0  0  0  0  0
  -32.3739  -16.0079   22.0096 H   0  0  0  0  0  0
  -30.9478  -22.3805   22.0564 H   0  0  0  0  0  0
  -29.9929  -22.1098   23.4675 H   0  0  0  0  0  0
  -26.9378  -21.0890   23.1431 H   0  0  0  0  0  0
  -27.9280  -21.8740   24.3559 H   0  0  0  0  0  0
  -29.6699  -14.7897   22.2882 H   0  0  0  0  0  0
  -28.4317  -21.4459   21.3792 H   0  0  0  0  0  0
  1 25  1  0  0  0
  1 30  2  0  0  0
  1 88  1  0  0  0
  2  3  1  0  0  0
  2 25  1  0  0  0
  2 92  1  0  0  0
  2 93  1  0  0  0
  3  4  1  0  0  0
  3 94  1  0  0  0
  3 95  1  0  0  0
  4  5  1  0  0  0
  4 96  1  0  0  0
  4 97  1  0  0  0
  5  6  1  0  0  0
  5 26  1  0  0  0
  5 98  1  0  0  0
  6 25  1  0  0  0
  6 99  1  0  0  0
  6100  1  0  0  0
  7  8  2  0  0  0
  7 26  1  0  0  0
  7 29  1  0  0  0
  8  9  1  0  0  0
  8 22  1  0  0  0
  9 10  1  0  0  0
  9 27  2  0  0  0
 10 11  2  0  0  0
 10 15  1  0  0  0
 11 12  1  0  0  0
 11101  1  0  0  0
 12 13  2  0  0  0
 12102  1  0  0  0
 13 14  1  0  0  0
 13 31  1  0  0  0
 14 15  2  0  0  0
 14103  1  0  0  0
 15104  1  0  0  0
 16 17  2  0  0  0
 16 21  1  0  0  0
 16 31  1  0  0  0
 17 18  1  0  0  0
 17105  1  0  0  0
 18 19  2  0  0  0
 18106  1  0  0  0
 19 20  1  0  0  0
 19 24  1  0  0  0
 20 21  2  0  0  0
 20107  1  0  0  0
 21 23  1  0  0  0
 22 28  1  0  0  0
 22 32  2  0  0  0
 26 27  1  0  0  0
 28108  1  0  0  0
 28109  1  0  0  0
 29110  1  0  0  0
 29111  1  0  0  0
 33 34  1  0  0  0
 33 66  1  0  0  0
 33 70  2  0  0  0
 34 36  1  0  0  0
 34 59  1  0  0  0
 34112  1  0  0  0
 35 44  2  0  0  0
 35 45  1  0  0  0
 35 68  1  0  0  0
 36 56  1  0  0  0
 36113  1  0  0  0
 37 39  1  0  0  0
 37 47  1  0  0  0
 37 66  1  0  0  0
 37114  1  0  0  0
 38 43  2  0  0  0
 38 46  1  0  0  0
 38 47  1  0  0  0
 39 64  1  0  0  0
 39 67  2  0  0  0
 40 52  1  0  0  0
 40 53  2  0  0  0
 40 58  1  0  0  0
 41115  1  0  0  0
 41116  1  0  0  0
 41117  1  0  0  0
 41 48  1  0  0  0
 42 43  1  0  0  0
 42 66  1  0  0  0
 42118  1  0  0  0
 42119  1  0  0  0
 43 44  1  0  0  0
 44120  1  0  0  0
 45 46  2  0  0  0
 45121  1  0  0  0
 46122  1  0  0  0
 47123  1  0  0  0
 47124  1  0  0  0
 48 56  1  0  0  0
 48 65  1  0  0  0
 48125  1  0  0  0
 49 50  1  0  0  0
 49 53  1  0  0  0
 49 64  1  0  0  0
 49126  1  0  0  0
 50 51  1  0  0  0
 50127  1  0  0  0
 50128  1  0  0  0
 51 52  1  0  0  0
 51129  1  0  0  0
 51130  1  0  0  0
 52131  1  0  0  0
 52132  1  0  0  0
 53 54  1  0  0  0
 54 55  2  0  0  0
 54133  1  0  0  0
 55 57  1  0  0  0
 55134  1  0  0  0
 56 69  2  0  0  0
 57 58  2  0  0  0
 57135  1  0  0  0
 58136  1  0  0  0
 59 60  1  0  0  0
 59 61  1  0  0  0
 59 62  1  0  0  0
 60137  1  0  0  0
 60138  1  0  0  0
 60139  1  0  0  0
 61140  1  0  0  0
 61141  1  0  0  0
 61142  1  0  0  0
 62143  1  0  0  0
 62144  1  0  0  0
 62145  1  0  0  0
 63 65  1  0  0  0
 63146  1  0  0  0
 63147  1  0  0  0
 63148  1  0  0  0
 64149  1  0  0  0
 65150  1  0  0  0
 68 83  1  0  0  0
 71 73  2  0  0  0
 71 75  1  0  0  0
 71151  1  0  0  0
 72 73  1  0  0  0
 72 76  2  0  0  0
 72152  1  0  0  0
 73 86  1  0  0  0
 74 75  2  0  0  0
 74 76  1  0  0  0
 74 85  1  0  0  0
 75 90  1  0  0  0
 76 91  1  0  0  0
 77 78  2  0  0  0
 77153  1  0  0  0
 77154  1  0  0  0
 78 87  1  0  0  0
 78155  1  0  0  0
 79 80  1  0  0  0
 79 83  1  0  0  0
 79156  1  0  0  0
 79157  1  0  0  0
 80 84  1  0  0  0
 80158  1  0  0  0
 80159  1  0  0  0
 81 82  1  0  0  0
 81 83  1  0  0  0
 81160  1  0  0  0
 81161  1  0  0  0
 82 89  1  0  0  0
 82162  1  0  0  0
 82163  1  0  0  0
 83164  1  0  0  0
 84 87  1  0  0  0
 84 89  1  0  0  0
 84165  1  0  0  0
 85 88  1  0  0  0
 85166  1  0  0  0
 85167  1  0  0  0
 86168  1  0  0  0
 86169  1  0  0  0
 86 89  1  0  0  0
 87170  1  0  0  0
 87171  1  0  0  0
 88172  1  0  0  0
 89173  1  0  0  0
M  CHG  1  89   1
M  ISO  4   1 100  68 101  83 101  88 100
M  END
> <chiral flag>
0

> <version>
0

> <s_m_source_file>
/data/baiqing/PycharmProjects/Reinvent-master-3.2/result/LINK_invent/BTK/process_docking_weight1_custom_product_contain_oxygen_bond_distance_aromatic_linkinvent_7_9_3/rearranged_h_0040.sdf

> <i_m_source_file_index>
78

> <r_mmod_Potential_Energy-OPLS-2005>
-130.072265625

> <r_mmod_Stretch_Energy-OPLS-2005>
39.4724426269531

> <r_mmod_Bend_Energy-OPLS-2005>
106.58031463623

> <r_mmod_Torsional_Energy-OPLS-2005>
268.209442138672

> <r_mmod_Improper_Torsional_Energy-OPLS-2005>
3.31095767021179

> <r_mmod_Van_der_Waal_Energy-OPLS-2005>
156.208190917969

> <r_mmod_Electrostatic_Energy-OPLS-2005>
-269.103332519531

> <r_mmod_Solvation_Energy-OPLS-2005>
-443.612121582031

> <b_mmod_Minimization_Converged-OPLS-2005>
0

> <r_mmod_RMS_Derivative-OPLS-2005>
1.48901200294495

$$$$
78
                    3D
 Structure written by MMmdl.
158166  0  0  1  0            999 V2000
  -30.6853  -14.5170   20.5367 C   0  0  0  0  0  0
  -30.4214  -12.3226   19.4403 C   0  0  0  0  0  0
  -29.4995  -12.4953   18.2154 C   0  0  0  0  0  0
  -28.0208  -12.3542   18.6228 C   0  0  0  0  0  0
  -27.6540  -13.2105   19.8652 C   0  0  2  0  0  0
  -28.6950  -13.0286   20.9945 C   0  0  0  0  0  0
  -25.2550  -13.8174   20.5666 C   0  0  0  0  0  0
  -24.1809  -13.0449   20.9182 C   0  0  0  0  0  0
  -24.6368  -11.6911   20.8737 C   0  0  0  0  0  0
  -23.9044  -10.4296   21.0393 C   0  0  0  0  0  0
  -24.3603   -9.4221   21.9175 C   0  0  0  0  0  0
  -23.6278   -8.2260   22.0755 C   0  0  0  0  0  0
  -22.4269   -8.0284   21.3532 C   0  0  0  0  0  0
  -21.9893   -9.0255   20.4633 C   0  0  0  0  0  0
  -22.7224  -10.2125   20.3033 C   0  0  0  0  0  0
  -21.6852   -6.0733   22.5284 C   0  0  0  0  0  0
  -21.4020   -6.5634   23.8221 C   0  0  0  0  0  0
  -21.3661   -5.6786   24.9177 C   0  0  0  0  0  0
  -21.6048   -4.3051   24.7221 C   0  0  0  0  0  0
  -21.8818   -3.8144   23.4340 C   0  0  0  0  0  0
  -21.9199   -4.6961   22.3398 C   0  0  0  0  0  0
  -22.7829  -13.5244   21.1857 C   0  0  0  0  0  0
  -22.1654   -4.2150   21.0972 F   0  0  0  0  0  0
  -21.5630   -3.4538   25.7729 F   0  0  0  0  0  0
  -30.0231  -13.3293   20.4383 N   0  0  0  0  0  0
  -26.2977  -12.9336   20.3325 N   0  0  0  0  0  0
  -25.9284  -11.6502   20.5764 N   0  0  0  0  0  0
  -22.0477  -12.8248   22.0415 N   0  0  0  0  0  0
  -25.4295  -15.1889   20.4093 N   0  0  0  0  0  0
  -31.8355  -14.6675   20.1183 O   0  0  0  0  0  0
  -21.6642   -6.8873   21.4238 O   0  0  0  0  0  0
  -22.3515  -14.5551   20.6701 O   0  0  0  0  0  0
  -24.6177  -31.8677   23.2108 C   0  0  0  0  0  0
  -25.9062  -32.4827   23.8426 C   0  0  1  0  0  0
  -27.2336  -27.4082   20.1131 C   0  0  0  0  0  0
  -25.5905  -33.8623   24.2367 N   0  0  0  0  0  0
  -23.4077  -30.4960   21.5477 C   0  0  2  0  0  0
  -24.8556  -28.9578   20.1103 C   0  0  0  0  0  0
  -22.7427  -29.4687   22.4923 C   0  0  0  0  0  0
  -18.0289  -28.1373   22.8496 C   0  0  0  0  0  0
  -24.1478  -36.7301   23.2645 C   0  0  0  0  0  0
  -25.9404  -30.8241   21.3713 C   0  0  0  0  0  0
  -26.0158  -29.4580   20.7148 C   0  0  0  0  0  0
  -27.2053  -28.6914   20.7123 C   0  0  0  0  0  0
  -26.0590  -26.9391   19.4816 C   0  0  0  0  0  0
  -24.8735  -27.6970   19.4892 C   0  0  0  0  0  0
  -23.6216  -29.8323   20.1604 C   0  0  0  0  0  0
  -25.4094  -36.3115   24.0366 C   0  0  1  0  0  0
  -20.5883  -28.3681   23.1275 C   0  0  2  0  0  0
  -20.6762  -26.9403   22.5394 C   0  0  0  0  0  0
  -19.5735  -26.6383   21.5202 C   0  0  0  0  0  0
  -18.1921  -26.7922   22.1627 C   0  0  0  0  0  0
  -19.1538  -28.8840   23.2900 C   0  0  0  0  0  0
  -18.9462  -30.1437   23.8925 C   0  0  0  0  0  0
  -17.6464  -30.6577   24.0574 C   0  0  0  0  0  0
  -25.9026  -34.9479   23.5168 C   0  0  0  0  0  0
  -16.5359  -29.9081   23.6313 C   0  0  0  0  0  0
  -16.7280  -28.6496   23.0345 C   0  0  0  0  0  0
  -26.4483  -31.6595   25.0747 C   0  0  0  0  0  0
  -25.3753  -31.3674   26.1496 C   0  0  0  0  0  0
  -27.0333  -30.3046   24.6133 C   0  0  0  0  0  0
  -27.6066  -32.4305   25.7483 C   0  0  0  0  0  0
  -27.5584  -37.1808   24.8478 C   0  0  0  0  0  0
  -21.4147  -29.3063   22.3656 N   0  0  0  0  0  0
  -26.4291  -37.3794   23.9425 N   0  0  0  0  0  0
  -24.6726  -31.0788   22.0995 N   0  0  0  0  0  0
  -23.4178  -28.8214   23.2972 O   0  0  0  0  0  0
  -28.3911  -26.6480   20.1656 O   0  0  0  0  0  0
  -26.5577  -34.8930   22.4722 O   0  0  0  0  0  0
  -23.5366  -32.1421   23.7493 O   0  0  0  0  0  0
  -28.5069  -18.6594   23.5776 C   0  0  0  0  0  0
  -29.1520  -17.7298   22.7489 C   0  0  0  0  0  0
  -28.2442  -19.9574   23.1098 C   0  0  0  0  0  0
  -29.5784  -18.0840   21.4485 C   0  0  0  0  0  0
  -29.3533  -19.4322   20.9864 C   0  0  0  0  0  0
  -28.6404  -20.3626   21.8178 C   0  0  0  0  0  0
  -29.8895  -19.8960   19.6358 C   0  0  0  0  0  0
  -30.3017  -16.9960   20.6183 C   0  0  0  0  0  0
  -29.3446  -24.4968   20.9868 C   0  0  0  0  0  0
  -28.2636  -25.2040   20.1206 C   0  0  0  0  0  0
  -29.9436  -15.5843   20.9065 N   0  0  0  0  0  0
  -29.3943  -23.0121   20.8411 N   0  0  0  0  0  0
  -27.2091  -21.9032   20.1060 O   0  0  0  0  0  0
  -27.4740  -22.7145   22.4883 O   0  0  0  0  0  0
  -28.0444  -22.0387   21.3080 S   0  0  0  0  0  0
  -31.4679  -12.4191   19.1403 H   0  0  0  0  0  0
  -30.3257  -11.3198   19.8602 H   0  0  0  0  0  0
  -29.7475  -11.7594   17.4499 H   0  0  0  0  0  0
  -29.6632  -13.4746   17.7655 H   0  0  0  0  0  0
  -27.8345  -11.2988   18.8347 H   0  0  0  0  0  0
  -27.3743  -12.6100   17.7846 H   0  0  0  0  0  0
  -27.6869  -14.2514   19.5426 H   0  0  0  0  0  0
  -28.4552  -13.6621   21.8514 H   0  0  0  0  0  0
  -28.6701  -12.0032   21.3652 H   0  0  0  0  0  0
  -25.2726   -9.5722   22.4768 H   0  0  0  0  0  0
  -23.9987   -7.4659   22.7469 H   0  0  0  0  0  0
  -21.0845   -8.8752   19.8926 H   0  0  0  0  0  0
  -22.3671  -10.9658   19.6141 H   0  0  0  0  0  0
  -21.2006   -7.6148   23.9714 H   0  0  0  0  0  0
  -21.1483   -6.0526   25.9086 H   0  0  0  0  0  0
  -22.0595   -2.7618   23.2843 H   0  0  0  0  0  0
  -22.4108  -11.9921   22.4814 H   0  0  0  0  0  0
  -21.1094  -13.1276   22.2574 H   0  0  0  0  0  0
  -26.2844  -15.6299   20.0982 H   0  0  0  0  0  0
  -24.6658  -15.8465   20.5218 H   0  0  0  0  0  0
  -26.7143  -32.5548   23.1201 H   0  0  0  0  0  0
  -25.0100  -33.9776   25.0546 H   0  0  0  0  0  0
  -22.7011  -31.3159   21.4096 H   0  0  0  0  0  0
  -23.3754  -35.9623   23.3310 H   0  0  0  0  0  0
  -24.3588  -36.8895   22.2061 H   0  0  0  0  0  0
  -23.7213  -37.6508   23.6640 H   0  0  0  0  0  0
  -26.0725  -31.5915   20.6070 H   0  0  0  0  0  0
  -26.8204  -30.8702   22.0009 H   0  0  0  0  0  0
  -28.0936  -29.0715   21.1959 H   0  0  0  0  0  0
  -26.0411  -25.9837   18.9782 H   0  0  0  0  0  0
  -23.9864  -27.3043   19.0116 H   0  0  0  0  0  0
  -23.7428  -30.6141   19.4093 H   0  0  0  0  0  0
  -22.7425  -29.2641   19.8510 H   0  0  0  0  0  0
  -25.1268  -36.2003   25.0866 H   0  0  0  0  0  0
  -21.0038  -28.3276   24.1379 H   0  0  0  0  0  0
  -20.5637  -26.2314   23.3602 H   0  0  0  0  0  0
  -21.6629  -26.7402   22.1210 H   0  0  0  0  0  0
  -19.6881  -25.6300   21.1215 H   0  0  0  0  0  0
  -19.6658  -27.3207   20.6742 H   0  0  0  0  0  0
  -17.4182  -26.6690   21.4036 H   0  0  0  0  0  0
  -18.0317  -26.0054   22.9014 H   0  0  0  0  0  0
  -19.7943  -30.7237   24.2313 H   0  0  0  0  0  0
  -17.5023  -31.6258   24.5167 H   0  0  0  0  0  0
  -15.5360  -30.2996   23.7599 H   0  0  0  0  0  0
  -15.8685  -28.0819   22.7036 H   0  0  0  0  0  0
  -24.5924  -30.7025   25.7834 H   0  0  0  0  0  0
  -24.8934  -32.2808   26.4999 H   0  0  0  0  0  0
  -25.8115  -30.8810   27.0232 H   0  0  0  0  0  0
  -26.2898  -29.6774   24.1197 H   0  0  0  0  0  0
  -27.4132  -29.7315   25.4606 H   0  0  0  0  0  0
  -27.8723  -30.4385   23.9291 H   0  0  0  0  0  0
  -27.2718  -33.3607   26.2089 H   0  0  0  0  0  0
  -28.3843  -32.6857   25.0268 H   0  0  0  0  0  0
  -28.0775  -31.8404   26.5360 H   0  0  0  0  0  0
  -28.2617  -38.0087   24.7520 H   0  0  0  0  0  0
  -28.1064  -36.2631   24.6308 H   0  0  0  0  0  0
  -27.2310  -37.1465   25.8879 H   0  0  0  0  0  0
  -20.9276  -29.8870   21.6963 H   0  0  0  0  0  0
  -26.0196  -38.2889   24.1392 H   0  0  0  0  0  0
  -28.1866  -18.3722   24.5683 H   0  0  0  0  0  0
  -29.3307  -16.7338   23.1359 H   0  0  0  0  0  0
  -27.7114  -20.6404   23.7542 H   0  0  0  0  0  0
  -30.9026  -20.2796   19.7612 H   0  0  0  0  0  0
  -29.2906  -20.6950   19.2047 H   0  0  0  0  0  0
  -29.9109  -19.1096   18.8867 H   0  0  0  0  0  0
  -30.0962  -17.1313   19.5594 H   0  0  0  0  0  0
  -31.3754  -17.1428   20.7514 H   0  0  0  0  0  0
  -30.3249  -24.8973   20.7331 H   0  0  0  0  0  0
  -29.1725  -24.7487   22.0339 H   0  0  0  0  0  0
  -27.2865  -24.8909   20.4921 H   0  0  0  0  0  0
  -28.3378  -24.8779   19.0820 H   0  0  0  0  0  0
  -28.9913  -15.4000   21.1852 H   0  0  0  0  0  0
  -29.7515  -22.7168   19.9316 H   0  0  0  0  0  0
  1 25  1  0  0  0
  1 30  2  0  0  0
  1 81  1  0  0  0
  2  3  1  0  0  0
  2 25  1  0  0  0
  2 86  1  0  0  0
  2 87  1  0  0  0
  3  4  1  0  0  0
  3 88  1  0  0  0
  3 89  1  0  0  0
  4  5  1  0  0  0
  4 90  1  0  0  0
  4 91  1  0  0  0
  5  6  1  0  0  0
  5 26  1  0  0  0
  5 92  1  0  0  0
  6 25  1  0  0  0
  6 93  1  0  0  0
  6 94  1  0  0  0
  7  8  2  0  0  0
  7 26  1  0  0  0
  7 29  1  0  0  0
  8  9  1  0  0  0
  8 22  1  0  0  0
  9 10  1  0  0  0
  9 27  2  0  0  0
 10 11  2  0  0  0
 10 15  1  0  0  0
 11 12  1  0  0  0
 11 95  1  0  0  0
 12 13  2  0  0  0
 12 96  1  0  0  0
 13 14  1  0  0  0
 13 31  1  0  0  0
 14 15  2  0  0  0
 14 97  1  0  0  0
 15 98  1  0  0  0
 16 17  2  0  0  0
 16 21  1  0  0  0
 16 31  1  0  0  0
 17 18  1  0  0  0
 17 99  1  0  0  0
 18 19  2  0  0  0
 18100  1  0  0  0
 19 20  1  0  0  0
 19 24  1  0  0  0
 20 21  2  0  0  0
 20101  1  0  0  0
 21 23  1  0  0  0
 22 28  1  0  0  0
 22 32  2  0  0  0
 26 27  1  0  0  0
 28102  1  0  0  0
 28103  1  0  0  0
 29104  1  0  0  0
 29105  1  0  0  0
 33 34  1  0  0  0
 33 66  1  0  0  0
 33 70  2  0  0  0
 34 36  1  0  0  0
 34 59  1  0  0  0
 34106  1  0  0  0
 35 44  2  0  0  0
 35 45  1  0  0  0
 35 68  1  0  0  0
 36 56  1  0  0  0
 36107  1  0  0  0
 37 39  1  0  0  0
 37 47  1  0  0  0
 37 66  1  0  0  0
 37108  1  0  0  0
 38 43  2  0  0  0
 38 46  1  0  0  0
 38 47  1  0  0  0
 39 64  1  0  0  0
 39 67  2  0  0  0
 40 52  1  0  0  0
 40 53  2  0  0  0
 40 58  1  0  0  0
 41109  1  0  0  0
 41110  1  0  0  0
 41111  1  0  0  0
 41 48  1  0  0  0
 42 43  1  0  0  0
 42 66  1  0  0  0
 42112  1  0  0  0
 42113  1  0  0  0
 43 44  1  0  0  0
 44114  1  0  0  0
 45 46  2  0  0  0
 45115  1  0  0  0
 46116  1  0  0  0
 47117  1  0  0  0
 47118  1  0  0  0
 48 56  1  0  0  0
 48 65  1  0  0  0
 48119  1  0  0  0
 49 50  1  0  0  0
 49 53  1  0  0  0
 49 64  1  0  0  0
 49120  1  0  0  0
 50 51  1  0  0  0
 50121  1  0  0  0
 50122  1  0  0  0
 51 52  1  0  0  0
 51123  1  0  0  0
 51124  1  0  0  0
 52125  1  0  0  0
 52126  1  0  0  0
 53 54  1  0  0  0
 54 55  2  0  0  0
 54127  1  0  0  0
 55 57  1  0  0  0
 55128  1  0  0  0
 56 69  2  0  0  0
 57 58  2  0  0  0
 57129  1  0  0  0
 58130  1  0  0  0
 59 60  1  0  0  0
 59 61  1  0  0  0
 59 62  1  0  0  0
 60131  1  0  0  0
 60132  1  0  0  0
 60133  1  0  0  0
 61134  1  0  0  0
 61135  1  0  0  0
 61136  1  0  0  0
 62137  1  0  0  0
 62138  1  0  0  0
 62139  1  0  0  0
 63 65  1  0  0  0
 63140  1  0  0  0
 63141  1  0  0  0
 63142  1  0  0  0
 64143  1  0  0  0
 65144  1  0  0  0
 68 80  1  0  0  0
 71 72  2  0  0  0
 71 73  1  0  0  0
 71145  1  0  0  0
 72 74  1  0  0  0
 72146  1  0  0  0
 73 76  2  0  0  0
 73147  1  0  0  0
 74 75  2  0  0  0
 74 78  1  0  0  0
 75 76  1  0  0  0
 75 77  1  0  0  0
 76 85  1  0  0  0
 77148  1  0  0  0
 77149  1  0  0  0
 77150  1  0  0  0
 78 81  1  0  0  0
 78151  1  0  0  0
 78152  1  0  0  0
 79 80  1  0  0  0
 79 82  1  0  0  0
 79153  1  0  0  0
 79154  1  0  0  0
 80155  1  0  0  0
 80156  1  0  0  0
 81157  1  0  0  0
 82158  1  0  0  0
 82 85  1  0  0  0
 83 85  2  0  0  0
 84 85  2  0  0  0
M  ISO  4   1 100  68 101  80 101  81 100
M  END
> <chiral flag>
0

> <version>
0

> <s_m_source_file>
/data/baiqing/PycharmProjects/Reinvent-master-3.2/result/LINK_invent/BTK/process_docking_weight1_custom_product_contain_oxygen_bond_distance_aromatic_linkinvent_7_9_3/rearranged_h_0040.sdf

> <i_m_source_file_index>
79

> <r_mmod_Potential_Energy-OPLS-2005>
-147.939971923828

> <r_mmod_Stretch_Energy-OPLS-2005>
51.7832221984863

> <r_mmod_Bend_Energy-OPLS-2005>
112.409301757812

> <r_mmod_Torsional_Energy-OPLS-2005>
212.566024780273

> <r_mmod_Improper_Torsional_Energy-OPLS-2005>
10.170129776001

> <r_mmod_Van_der_Waal_Energy-OPLS-2005>
149.856597900391

> <r_mmod_Electrostatic_Energy-OPLS-2005>
-464.728790283203

> <r_mmod_Solvation_Energy-OPLS-2005>
-240.254425048828

> <b_mmod_Minimization_Converged-OPLS-2005>
0

> <r_mmod_RMS_Derivative-OPLS-2005>
3.82481527328491

$$$$
79
                    3D
 Structure written by MMmdl.
158166  0  0  1  0            999 V2000
  -30.7744  -14.4511   20.6062 C   0  0  0  0  0  0
  -30.4226  -12.3227   19.4103 C   0  0  0  0  0  0
  -29.4731  -12.5066   18.2061 C   0  0  0  0  0  0
  -27.9976  -12.3928   18.6338 C   0  0  0  0  0  0
  -27.6704  -13.2240   19.9021 C   0  0  2  0  0  0
  -28.7319  -12.9983   21.0106 C   0  0  0  0  0  0
  -25.2620  -13.8261   20.5851 C   0  0  0  0  0  0
  -24.1854  -13.0489   20.9231 C   0  0  0  0  0  0
  -24.6412  -11.6937   20.8801 C   0  0  0  0  0  0
  -23.9089  -10.4315   21.0406 C   0  0  0  0  0  0
  -24.3625   -9.4212   21.9196 C   0  0  0  0  0  0
  -23.6293   -8.2263   22.0754 C   0  0  0  0  0  0
  -22.4289   -8.0330   21.3562 C   0  0  0  0  0  0
  -21.9928   -9.0276   20.4668 C   0  0  0  0  0  0
  -22.7231  -10.2150   20.3057 C   0  0  0  0  0  0
  -21.6857   -6.0760   22.5299 C   0  0  0  0  0  0
  -21.3995   -6.5632   23.8232 C   0  0  0  0  0  0
  -21.3659   -5.6779   24.9191 C   0  0  0  0  0  0
  -21.6047   -4.3048   24.7225 C   0  0  0  0  0  0
  -21.8827   -3.8136   23.4344 C   0  0  0  0  0  0
  -21.9185   -4.6985   22.3394 C   0  0  0  0  0  0
  -22.7860  -13.5283   21.1808 C   0  0  0  0  0  0
  -22.1668   -4.2164   21.0984 F   0  0  0  0  0  0
  -21.5623   -3.4530   25.7730 F   0  0  0  0  0  0
  -30.0567  -13.3048   20.4464 N   0  0  0  0  0  0
  -26.3103  -12.9451   20.3650 N   0  0  0  0  0  0
  -25.9387  -11.6584   20.6001 N   0  0  0  0  0  0
  -22.0463  -12.8295   22.0359 N   0  0  0  0  0  0
  -25.4343  -15.1975   20.4312 N   0  0  0  0  0  0
  -31.8804  -14.6080   20.0863 O   0  0  0  0  0  0
  -21.6656   -6.8912   21.4267 O   0  0  0  0  0  0
  -22.3544  -14.5544   20.6613 O   0  0  0  0  0  0
  -24.6137  -31.8704   23.2119 C   0  0  0  0  0  0
  -25.9035  -32.4850   23.8417 C   0  0  1  0  0  0
  -27.2227  -27.4279   20.0930 C   0  0  0  0  0  0
  -25.5887  -33.8643   24.2352 N   0  0  0  0  0  0
  -23.4011  -30.5005   21.5526 C   0  0  2  0  0  0
  -24.8477  -28.9791   20.1041 C   0  0  0  0  0  0
  -22.7402  -29.4654   22.4942 C   0  0  0  0  0  0
  -18.0272  -28.1392   22.8510 C   0  0  0  0  0  0
  -24.1480  -36.7322   23.2636 C   0  0  0  0  0  0
  -25.9339  -30.8372   21.3680 C   0  0  0  0  0  0
  -26.0134  -29.4776   20.7009 C   0  0  0  0  0  0
  -27.2073  -28.7141   20.6866 C   0  0  0  0  0  0
  -26.0456  -26.9686   19.4590 C   0  0  0  0  0  0
  -24.8613  -27.7252   19.4725 C   0  0  0  0  0  0
  -23.6080  -29.8456   20.1633 C   0  0  0  0  0  0
  -25.4113  -36.3141   24.0340 C   0  0  1  0  0  0
  -20.5877  -28.3674   23.1299 C   0  0  2  0  0  0
  -20.6782  -26.9418   22.5381 C   0  0  0  0  0  0
  -19.5759  -26.6387   21.5204 C   0  0  0  0  0  0
  -18.1937  -26.7925   22.1615 C   0  0  0  0  0  0
  -19.1526  -28.8844   23.2909 C   0  0  0  0  0  0
  -18.9468  -30.1456   23.8920 C   0  0  0  0  0  0
  -17.6475  -30.6606   24.0593 C   0  0  0  0  0  0
  -25.9043  -34.9509   23.5158 C   0  0  0  0  0  0
  -16.5350  -29.9105   23.6330 C   0  0  0  0  0  0
  -16.7269  -28.6533   23.0324 C   0  0  0  0  0  0
  -26.4466  -31.6617   25.0732 C   0  0  0  0  0  0
  -25.3723  -31.3716   26.1464 C   0  0  0  0  0  0
  -27.0312  -30.3051   24.6141 C   0  0  0  0  0  0
  -27.6071  -32.4307   25.7482 C   0  0  0  0  0  0
  -27.5585  -37.1821   24.8472 C   0  0  0  0  0  0
  -21.4155  -29.3062   22.3691 N   0  0  0  0  0  0
  -26.4316  -37.3811   23.9400 N   0  0  0  0  0  0
  -24.6673  -31.0819   22.1025 N   0  0  0  0  0  0
  -23.4214  -28.8218   23.2955 O   0  0  0  0  0  0
  -28.3274  -26.5940   20.1759 O   0  0  0  0  0  0
  -26.5589  -34.8947   22.4702 O   0  0  0  0  0  0
  -23.5334  -32.1450   23.7521 O   0  0  0  0  0  0
  -28.5623  -17.8114   22.3161 C   0  0  0  0  0  0
  -27.7819  -18.9335   22.6645 C   0  0  0  0  0  0
  -30.0492  -19.2996   21.1094 C   0  0  0  0  0  0
  -29.2922  -20.4621   21.4443 C   0  0  0  0  0  0
  -29.7309  -17.9957   21.5570 C   0  0  0  0  0  0
  -28.1629  -20.2485   22.2989 C   0  0  0  0  0  0
  -30.9736  -22.0011   20.4401 C   0  0  0  0  0  0
  -28.7943  -22.9583   20.7986 C   0  0  0  0  0  0
  -29.0814  -24.2804   20.9249 C   0  0  0  0  0  0
  -29.7153  -21.8128   20.8934 C   0  0  0  0  0  0
  -27.3695  -21.3865   22.9295 C   0  0  0  0  0  0
  -30.6998  -16.8454   21.2351 C   0  0  0  0  0  0
  -28.0016  -25.3619   20.8620 C   0  0  0  0  0  0
  -30.1732  -15.4704   21.2589 N   0  0  0  0  0  0
  -31.4585  -12.4144   19.0794 H   0  0  0  0  0  0
  -30.3375  -11.3175   19.8197 H   0  0  0  0  0  0
  -29.6824  -11.7526   17.4505 H   0  0  0  0  0  0
  -29.6430  -13.4755   17.7290 H   0  0  0  0  0  0
  -27.7737  -11.3444   18.8160 H   0  0  0  0  0  0
  -27.3415  -12.7020   17.8134 H   0  0  0  0  0  0
  -27.7152  -14.2760   19.6128 H   0  0  0  0  0  0
  -28.7287  -11.9540   21.3308 H   0  0  0  0  0  0
  -28.5231  -13.5752   21.9107 H   0  0  0  0  0  0
  -25.2781   -9.5696   22.4771 H   0  0  0  0  0  0
  -24.0033   -7.4655   22.7452 H   0  0  0  0  0  0
  -21.0865   -8.8754   19.8988 H   0  0  0  0  0  0
  -22.3674  -10.9681   19.6169 H   0  0  0  0  0  0
  -21.1986   -7.6143   23.9729 H   0  0  0  0  0  0
  -21.1477   -6.0522   25.9099 H   0  0  0  0  0  0
  -22.0609   -2.7610   23.2831 H   0  0  0  0  0  0
  -22.4103  -12.0043   22.4868 H   0  0  0  0  0  0
  -21.1084  -13.1358   22.2517 H   0  0  0  0  0  0
  -24.6801  -15.8660   20.5591 H   0  0  0  0  0  0
  -26.3006  -15.6373   20.1426 H   0  0  0  0  0  0
  -26.7106  -32.5577   23.1190 H   0  0  0  0  0  0
  -25.0049  -33.9822   25.0506 H   0  0  0  0  0  0
  -22.6869  -31.3159   21.4202 H   0  0  0  0  0  0
  -23.3752  -35.9644   23.3344 H   0  0  0  0  0  0
  -24.3568  -36.8878   22.2041 H   0  0  0  0  0  0
  -23.7236  -37.6548   23.6606 H   0  0  0  0  0  0
  -26.0576  -31.6184   20.6159 H   0  0  0  0  0  0
  -26.8156  -30.8769   21.9954 H   0  0  0  0  0  0
  -28.0989  -29.0892   21.1674 H   0  0  0  0  0  0
  -26.0236  -26.0080   18.9626 H   0  0  0  0  0  0
  -23.9677  -27.3465   18.9936 H   0  0  0  0  0  0
  -23.7160  -30.6287   19.4108 H   0  0  0  0  0  0
  -22.7264  -29.2760   19.8606 H   0  0  0  0  0  0
  -25.1293  -36.2025   25.0835 H   0  0  0  0  0  0
  -20.9998  -28.3242   24.1408 H   0  0  0  0  0  0
  -20.5688  -26.2275   23.3565 H   0  0  0  0  0  0
  -21.6644  -26.7485   22.1144 H   0  0  0  0  0  0
  -19.6916  -25.6296   21.1224 H   0  0  0  0  0  0
  -19.6692  -27.3180   20.6732 H   0  0  0  0  0  0
  -17.4210  -26.6718   21.4011 H   0  0  0  0  0  0
  -18.0347  -26.0063   22.9006 H   0  0  0  0  0  0
  -19.7951  -30.7286   24.2298 H   0  0  0  0  0  0
  -17.5032  -31.6229   24.5269 H   0  0  0  0  0  0
  -15.5388  -30.3011   23.7680 H   0  0  0  0  0  0
  -15.8666  -28.0861   22.7041 H   0  0  0  0  0  0
  -24.5896  -30.7062   25.7770 H   0  0  0  0  0  0
  -24.8909  -32.2884   26.4888 H   0  0  0  0  0  0
  -25.8062  -30.8881   27.0232 H   0  0  0  0  0  0
  -26.2879  -29.6779   24.1187 H   0  0  0  0  0  0
  -27.4070  -29.7304   25.4622 H   0  0  0  0  0  0
  -27.8722  -30.4351   23.9320 H   0  0  0  0  0  0
  -27.2724  -33.3598   26.2103 H   0  0  0  0  0  0
  -28.3864  -32.6864   25.0288 H   0  0  0  0  0  0
  -28.0764  -31.8395   26.5357 H   0  0  0  0  0  0
  -28.2648  -38.0071   24.7503 H   0  0  0  0  0  0
  -28.1051  -36.2622   24.6351 H   0  0  0  0  0  0
  -27.2297  -37.1526   25.8871 H   0  0  0  0  0  0
  -20.9273  -29.8811   21.6969 H   0  0  0  0  0  0
  -26.0223  -38.2904   24.1364 H   0  0  0  0  0  0
  -28.2674  -16.8285   22.6633 H   0  0  0  0  0  0
  -26.8940  -18.7772   23.2622 H   0  0  0  0  0  0
  -30.9168  -19.3851   20.4768 H   0  0  0  0  0  0
  -31.7359  -21.2406   20.4507 H   0  0  0  0  0  0
  -31.2831  -22.9500   20.0322 H   0  0  0  0  0  0
  -27.7596  -22.7131   20.5995 H   0  0  0  0  0  0
  -30.0895  -24.6171   21.1217 H   0  0  0  0  0  0
  -26.9517  -21.0978   23.8952 H   0  0  0  0  0  0
  -26.5425  -21.7095   22.2948 H   0  0  0  0  0  0
  -28.0106  -22.2392   23.1415 H   0  0  0  0  0  0
  -31.5355  -16.8993   21.9383 H   0  0  0  0  0  0
  -31.1082  -17.0371   20.2383 H   0  0  0  0  0  0
  -27.7234  -25.6084   21.8872 H   0  0  0  0  0  0
  -27.1316  -24.8858   20.4182 H   0  0  0  0  0  0
  -29.3141  -15.3180   21.7558 H   0  0  0  0  0  0
  1 25  1  0  0  0
  1 30  2  0  0  0
  1 84  1  0  0  0
  2  3  1  0  0  0
  2 25  1  0  0  0
  2 85  1  0  0  0
  2 86  1  0  0  0
  3  4  1  0  0  0
  3 87  1  0  0  0
  3 88  1  0  0  0
  4  5  1  0  0  0
  4 89  1  0  0  0
  4 90  1  0  0  0
  5  6  1  0  0  0
  5 26  1  0  0  0
  5 91  1  0  0  0
  6 25  1  0  0  0
  6 92  1  0  0  0
  6 93  1  0  0  0
  7  8  2  0  0  0
  7 26  1  0  0  0
  7 29  1  0  0  0
  8  9  1  0  0  0
  8 22  1  0  0  0
  9 10  1  0  0  0
  9 27  2  0  0  0
 10 11  2  0  0  0
 10 15  1  0  0  0
 11 12  1  0  0  0
 11 94  1  0  0  0
 12 13  2  0  0  0
 12 95  1  0  0  0
 13 14  1  0  0  0
 13 31  1  0  0  0
 14 15  2  0  0  0
 14 96  1  0  0  0
 15 97  1  0  0  0
 16 17  2  0  0  0
 16 21  1  0  0  0
 16 31  1  0  0  0
 17 18  1  0  0  0
 17 98  1  0  0  0
 18 19  2  0  0  0
 18 99  1  0  0  0
 19 20  1  0  0  0
 19 24  1  0  0  0
 20 21  2  0  0  0
 20100  1  0  0  0
 21 23  1  0  0  0
 22 28  1  0  0  0
 22 32  2  0  0  0
 26 27  1  0  0  0
 28101  1  0  0  0
 28102  1  0  0  0
 29103  1  0  0  0
 29104  1  0  0  0
 33 34  1  0  0  0
 33 66  1  0  0  0
 33 70  2  0  0  0
 34 36  1  0  0  0
 34 59  1  0  0  0
 34105  1  0  0  0
 35 44  2  0  0  0
 35 45  1  0  0  0
 35 68  1  0  0  0
 36 56  1  0  0  0
 36106  1  0  0  0
 37 39  1  0  0  0
 37 47  1  0  0  0
 37 66  1  0  0  0
 37107  1  0  0  0
 38 43  2  0  0  0
 38 46  1  0  0  0
 38 47  1  0  0  0
 39 64  1  0  0  0
 39 67  2  0  0  0
 40 52  1  0  0  0
 40 53  2  0  0  0
 40 58  1  0  0  0
 41108  1  0  0  0
 41109  1  0  0  0
 41110  1  0  0  0
 41 48  1  0  0  0
 42 43  1  0  0  0
 42 66  1  0  0  0
 42111  1  0  0  0
 42112  1  0  0  0
 43 44  1  0  0  0
 44113  1  0  0  0
 45 46  2  0  0  0
 45114  1  0  0  0
 46115  1  0  0  0
 47116  1  0  0  0
 47117  1  0  0  0
 48 56  1  0  0  0
 48 65  1  0  0  0
 48118  1  0  0  0
 49 50  1  0  0  0
 49 53  1  0  0  0
 49 64  1  0  0  0
 49119  1  0  0  0
 50 51  1  0  0  0
 50120  1  0  0  0
 50121  1  0  0  0
 51 52  1  0  0  0
 51122  1  0  0  0
 51123  1  0  0  0
 52124  1  0  0  0
 52125  1  0  0  0
 53 54  1  0  0  0
 54 55  2  0  0  0
 54126  1  0  0  0
 55 57  1  0  0  0
 55127  1  0  0  0
 56 69  2  0  0  0
 57 58  2  0  0  0
 57128  1  0  0  0
 58129  1  0  0  0
 59 60  1  0  0  0
 59 61  1  0  0  0
 59 62  1  0  0  0
 60130  1  0  0  0
 60131  1  0  0  0
 60132  1  0  0  0
 61133  1  0  0  0
 61134  1  0  0  0
 61135  1  0  0  0
 62136  1  0  0  0
 62137  1  0  0  0
 62138  1  0  0  0
 63 65  1  0  0  0
 63139  1  0  0  0
 63140  1  0  0  0
 63141  1  0  0  0
 64142  1  0  0  0
 65143  1  0  0  0
 68 83  1  0  0  0
 71 72  2  0  0  0
 71 75  1  0  0  0
 71144  1  0  0  0
 72 76  1  0  0  0
 72145  1  0  0  0
 73 74  1  0  0  0
 73 75  2  0  0  0
 73146  1  0  0  0
 74 76  2  0  0  0
 74 80  1  0  0  0
 75 82  1  0  0  0
 76 81  1  0  0  0
 77 80  2  0  0  0
 77147  1  0  0  0
 77148  1  0  0  0
 78 79  2  0  0  0
 78 80  1  0  0  0
 78149  1  0  0  0
 79 83  1  0  0  0
 79150  1  0  0  0
 81151  1  0  0  0
 81152  1  0  0  0
 81153  1  0  0  0
 82 84  1  0  0  0
 82154  1  0  0  0
 82155  1  0  0  0
 83156  1  0  0  0
 83157  1  0  0  0
 84158  1  0  0  0
M  ISO  4   1 100  68 101  83 101  84 100
M  END
> <chiral flag>
0

> <version>
0

> <s_m_source_file>
/data/baiqing/PycharmProjects/Reinvent-master-3.2/result/LINK_invent/BTK/process_docking_weight1_custom_product_contain_oxygen_bond_distance_aromatic_linkinvent_7_9_3/rearranged_h_0040.sdf

> <i_m_source_file_index>
80

> <r_mmod_Potential_Energy-OPLS-2005>
-53.0582389831543

> <r_mmod_Stretch_Energy-OPLS-2005>
48.3512725830078

> <r_mmod_Bend_Energy-OPLS-2005>
108.144607543945

> <r_mmod_Torsional_Energy-OPLS-2005>
227.157318115234

> <r_mmod_Improper_Torsional_Energy-OPLS-2005>
3.18382596969604

> <r_mmod_Van_der_Waal_Energy-OPLS-2005>
173.689910888672

> <r_mmod_Electrostatic_Energy-OPLS-2005>
-431.199798583984

> <r_mmod_Solvation_Energy-OPLS-2005>
-200.557983398438

> <b_mmod_Minimization_Converged-OPLS-2005>
0

> <r_mmod_RMS_Derivative-OPLS-2005>
7.76509094238281

$$$$
80
                    3D
 Structure written by MMmdl.
171179  0  0  1  0            999 V2000
  -30.6940  -14.4279   20.5471 C   0  0  0  0  0  0
  -30.4206  -12.2692   19.4153 C   0  0  0  0  0  0
  -29.4901  -12.4987   18.2056 C   0  0  0  0  0  0
  -28.0111  -12.3691   18.6193 C   0  0  0  0  0  0
  -27.6669  -13.1986   19.8864 C   0  0  2  0  0  0
  -28.7090  -12.9506   21.0039 C   0  0  0  0  0  0
  -25.2616  -13.8188   20.5721 C   0  0  0  0  0  0
  -24.1846  -13.0468   20.9179 C   0  0  0  0  0  0
  -24.6376  -11.6930   20.8730 C   0  0  0  0  0  0
  -23.9049  -10.4328   21.0405 C   0  0  0  0  0  0
  -24.3626   -9.4249   21.9180 C   0  0  0  0  0  0
  -23.6320   -8.2274   22.0762 C   0  0  0  0  0  0
  -22.4290   -8.0307   21.3569 C   0  0  0  0  0  0
  -21.9924   -9.0261   20.4656 C   0  0  0  0  0  0
  -22.7232  -10.2148   20.3055 C   0  0  0  0  0  0
  -21.6866   -6.0751   22.5282 C   0  0  0  0  0  0
  -21.4019   -6.5651   23.8214 C   0  0  0  0  0  0
  -21.3657   -5.6800   24.9175 C   0  0  0  0  0  0
  -21.6046   -4.3073   24.7221 C   0  0  0  0  0  0
  -21.8833   -3.8160   23.4351 C   0  0  0  0  0  0
  -21.9210   -4.6981   22.3401 C   0  0  0  0  0  0
  -22.7870  -13.5254   21.1843 C   0  0  0  0  0  0
  -22.1678   -4.2162   21.0985 F   0  0  0  0  0  0
  -21.5626   -3.4561   25.7736 F   0  0  0  0  0  0
  -30.0492  -13.2373   20.4567 N   0  0  0  0  0  0
  -26.3049  -12.9333   20.3437 N   0  0  0  0  0  0
  -25.9300  -11.6502   20.5794 N   0  0  0  0  0  0
  -22.0517  -12.8207   22.0383 N   0  0  0  0  0  0
  -25.4373  -15.1910   20.4179 N   0  0  0  0  0  0
  -31.8078  -14.6473   20.0626 O   0  0  0  0  0  0
  -21.6679   -6.8896   21.4252 O   0  0  0  0  0  0
  -22.3541  -14.5563   20.6711 O   0  0  0  0  0  0
  -24.6101  -31.8699   23.2129 C   0  0  0  0  0  0
  -25.9017  -32.4830   23.8404 C   0  0  1  0  0  0
  -27.2428  -27.4725   20.0727 C   0  0  0  0  0  0
  -25.5893  -33.8630   24.2331 N   0  0  0  0  0  0
  -23.3958  -30.4927   21.5534 C   0  0  2  0  0  0
  -24.8431  -28.9609   20.1148 C   0  0  0  0  0  0
  -22.7377  -29.4664   22.5019 C   0  0  0  0  0  0
  -18.0267  -28.1379   22.8493 C   0  0  0  0  0  0
  -24.1488  -36.7316   23.2639 C   0  0  0  0  0  0
  -25.9207  -30.8413   21.3645 C   0  0  0  0  0  0
  -25.9980  -29.4765   20.7160 C   0  0  0  0  0  0
  -27.1947  -28.7305   20.7093 C   0  0  0  0  0  0
  -26.0685  -26.9560   19.4792 C   0  0  0  0  0  0
  -24.8702  -27.6956   19.5019 C   0  0  0  0  0  0
  -23.6020  -29.8232   20.1675 C   0  0  0  0  0  0
  -25.4109  -36.3111   24.0335 C   0  0  1  0  0  0
  -20.5852  -28.3655   23.1334 C   0  0  2  0  0  0
  -20.6759  -26.9395   22.5430 C   0  0  0  0  0  0
  -19.5744  -26.6386   21.5215 C   0  0  0  0  0  0
  -18.1913  -26.7934   22.1612 C   0  0  0  0  0  0
  -19.1514  -28.8832   23.2914 C   0  0  0  0  0  0
  -18.9444  -30.1446   23.8915 C   0  0  0  0  0  0
  -17.6447  -30.6586   24.0570 C   0  0  0  0  0  0
  -25.9037  -34.9477   23.5129 C   0  0  0  0  0  0
  -16.5341  -29.9087   23.6330 C   0  0  0  0  0  0
  -16.7257  -28.6506   23.0346 C   0  0  0  0  0  0
  -26.4459  -31.6606   25.0718 C   0  0  0  0  0  0
  -25.3733  -31.3696   26.1466 C   0  0  0  0  0  0
  -27.0289  -30.3052   24.6080 C   0  0  0  0  0  0
  -27.6035  -32.4322   25.7481 C   0  0  0  0  0  0
  -27.5584  -37.1807   24.8457 C   0  0  0  0  0  0
  -21.4114  -29.3022   22.3743 N   0  0  0  0  0  0
  -26.4293  -37.3793   23.9404 N   0  0  0  0  0  0
  -24.6598  -31.0822   22.1023 N   0  0  0  0  0  0
  -23.4165  -28.8218   23.3053 O   0  0  0  0  0  0
  -28.4297  -26.7789   20.0699 O   0  0  0  0  0  0
  -26.5598  -34.8925   22.4689 O   0  0  0  0  0  0
  -23.5307  -32.1450   23.7543 O   0  0  0  0  0  0
  -32.0955  -21.6171   19.6906 C   0  0  0  0  0  0
  -31.3041  -22.2986   21.8841 C   0  0  0  0  0  0
  -31.7351  -22.6394   20.5877 C   0  0  0  0  0  0
  -31.9708  -20.2610   20.0545 C   0  0  0  0  0  0
  -31.1580  -20.9466   22.2603 C   0  0  0  0  0  0
  -31.4505  -19.9108   21.3306 C   0  0  0  0  0  0
  -32.3665  -19.2091   19.0304 C   0  0  0  0  0  0
  -30.6431  -20.6415   23.6574 C   0  0  0  0  0  0
  -28.8689  -19.0301   20.5205 C   0  0  0  0  0  0
  -31.1341  -18.4436   21.6714 C   0  0  0  0  0  0
  -31.7564  -24.0924   20.1374 C   0  0  0  0  0  0
  -29.8130  -16.7147   20.2889 C   0  0  0  0  0  0
  -30.2880  -25.7491   18.9719 C   0  0  0  0  0  0
  -28.8278  -26.2077   18.8268 C   0  0  0  0  0  0
  -29.7173  -17.9460   21.2246 C   0  0  2  0  0  0
  -29.9187  -15.4278   20.9763 N   0  0  0  0  0  0
  -30.3875  -24.5060   19.7716 N   0  3  0  0  0  0
  -28.7779  -17.4895   22.6809 Cl  0  0  0  0  0  0
  -31.4641  -12.3619   19.1095 H   0  0  0  0  0  0
  -30.3121  -11.2511   19.7932 H   0  0  0  0  0  0
  -29.7178  -11.7823   17.4144 H   0  0  0  0  0  0
  -29.6697  -13.4887   17.7824 H   0  0  0  0  0  0
  -27.8094  -11.3132   18.8047 H   0  0  0  0  0  0
  -27.3617  -12.6600   17.7933 H   0  0  0  0  0  0
  -27.7199  -14.2497   19.6017 H   0  0  0  0  0  0
  -28.6663  -11.9135   21.3376 H   0  0  0  0  0  0
  -28.4840  -13.5471   21.8899 H   0  0  0  0  0  0
  -25.2782   -9.5748   22.4734 H   0  0  0  0  0  0
  -24.0069   -7.4675   22.7473 H   0  0  0  0  0  0
  -21.0879   -8.8754   19.8949 H   0  0  0  0  0  0
  -22.3691  -10.9682   19.6157 H   0  0  0  0  0  0
  -21.1992   -7.6163   23.9708 H   0  0  0  0  0  0
  -21.1462   -6.0543   25.9070 H   0  0  0  0  0  0
  -22.0605   -2.7621   23.2846 H   0  0  0  0  0  0
  -22.4175  -11.9871   22.4743 H   0  0  0  0  0  0
  -21.1117  -13.1176   22.2581 H   0  0  0  0  0  0
  -24.6790  -15.8530   20.5448 H   0  0  0  0  0  0
  -26.3009  -15.6317   20.1279 H   0  0  0  0  0  0
  -26.7083  -32.5554   23.1169 H   0  0  0  0  0  0
  -25.0050  -33.9797   25.0479 H   0  0  0  0  0  0
  -22.6834  -31.3084   21.4158 H   0  0  0  0  0  0
  -23.3747  -35.9651   23.3297 H   0  0  0  0  0  0
  -24.3575  -36.8937   22.2052 H   0  0  0  0  0  0
  -23.7242  -37.6521   23.6656 H   0  0  0  0  0  0
  -26.0286  -31.6074   20.5953 H   0  0  0  0  0  0
  -26.8107  -30.8960   21.9798 H   0  0  0  0  0  0
  -28.0882  -29.1259   21.1730 H   0  0  0  0  0  0
  -26.0629  -25.9842   19.0073 H   0  0  0  0  0  0
  -23.9789  -27.2889   19.0443 H   0  0  0  0  0  0
  -23.7020  -30.5972   19.4052 H   0  0  0  0  0  0
  -22.7270  -29.2377   19.8778 H   0  0  0  0  0  0
  -25.1285  -36.1978   25.0827 H   0  0  0  0  0  0
  -20.9942  -28.3223   24.1455 H   0  0  0  0  0  0
  -20.5660  -26.2257   23.3610 H   0  0  0  0  0  0
  -21.6632  -26.7444   22.1230 H   0  0  0  0  0  0
  -19.6907  -25.6298   21.1235 H   0  0  0  0  0  0
  -19.6700  -27.3205   20.6752 H   0  0  0  0  0  0
  -17.4198  -26.6707   21.3994 H   0  0  0  0  0  0
  -18.0292  -26.0060   22.8988 H   0  0  0  0  0  0
  -19.7917  -30.7258   24.2291 H   0  0  0  0  0  0
  -17.5000  -31.6264   24.5171 H   0  0  0  0  0  0
  -15.5341  -30.2995   23.7641 H   0  0  0  0  0  0
  -15.8658  -28.0834   22.7042 H   0  0  0  0  0  0
  -24.5932  -30.7008   25.7804 H   0  0  0  0  0  0
  -24.8892  -32.2845   26.4892 H   0  0  0  0  0  0
  -25.8102  -30.8892   27.0232 H   0  0  0  0  0  0
  -26.2827  -29.6816   24.1142 H   0  0  0  0  0  0
  -27.4072  -29.7279   25.4527 H   0  0  0  0  0  0
  -27.8654  -30.4367   23.9210 H   0  0  0  0  0  0
  -27.2650  -33.3608   26.2086 H   0  0  0  0  0  0
  -28.3833  -32.6906   25.0306 H   0  0  0  0  0  0
  -28.0717  -31.8433   26.5377 H   0  0  0  0  0  0
  -28.2597  -38.0112   24.7518 H   0  0  0  0  0  0
  -28.1089  -36.2639   24.6270 H   0  0  0  0  0  0
  -27.2299  -37.1452   25.8862 H   0  0  0  0  0  0
  -20.9269  -29.8725   21.6956 H   0  0  0  0  0  0
  -26.0185  -38.2869   24.1420 H   0  0  0  0  0  0
  -32.4453  -21.8749   18.6999 H   0  0  0  0  0  0
  -31.0452  -23.0807   22.5852 H   0  0  0  0  0  0
  -32.8486  -19.6617   18.1638 H   0  0  0  0  0  0
  -31.4932  -18.6731   18.6649 H   0  0  0  0  0  0
  -33.0729  -18.4935   19.4508 H   0  0  0  0  0  0
  -30.4741  -21.5531   24.2313 H   0  0  0  0  0  0
  -31.3625  -20.0379   24.2108 H   0  0  0  0  0  0
  -29.6978  -20.1016   23.6131 H   0  0  0  0  0  0
  -29.3175  -19.3571   19.5824 H   0  0  0  0  0  0
  -28.7311  -19.9084   21.1513 H   0  0  0  0  0  0
  -27.8717  -18.6590   20.2846 H   0  0  0  0  0  0
  -31.2660  -18.2792   22.7396 H   0  0  0  0  0  0
  -31.9048  -17.8039   21.2446 H   0  0  0  0  0  0
  -32.4247  -24.1982   19.2816 H   0  0  0  0  0  0
  -32.1512  -24.7340   20.9265 H   0  0  0  0  0  0
  -30.6113  -16.8464   19.5587 H   0  0  0  0  0  0
  -28.9028  -16.6415   19.6915 H   0  0  0  0  0  0
  -30.8780  -26.5443   19.4296 H   0  0  0  0  0  0
  -30.7144  -25.5663   17.9845 H   0  0  0  0  0  0
  -28.1864  -25.3758   18.5342 H   0  0  0  0  0  0
  -28.7587  -26.9653   18.0443 H   0  0  0  0  0  0
  -29.0862  -15.1481   21.4708 H   0  0  0  0  0  0
  -29.8604  -24.6180   20.6227 H   0  0  0  0  0  0
  -29.9740  -23.7456   19.2563 H   0  0  0  0  0  0
  1 25  1  0  0  0
  1 30  2  0  0  0
  1 86  1  0  0  0
  2  3  1  0  0  0
  2 25  1  0  0  0
  2 89  1  0  0  0
  2 90  1  0  0  0
  3  4  1  0  0  0
  3 91  1  0  0  0
  3 92  1  0  0  0
  4  5  1  0  0  0
  4 93  1  0  0  0
  4 94  1  0  0  0
  5  6  1  0  0  0
  5 26  1  0  0  0
  5 95  1  0  0  0
  6 25  1  0  0  0
  6 96  1  0  0  0
  6 97  1  0  0  0
  7  8  2  0  0  0
  7 26  1  0  0  0
  7 29  1  0  0  0
  8  9  1  0  0  0
  8 22  1  0  0  0
  9 10  1  0  0  0
  9 27  2  0  0  0
 10 11  2  0  0  0
 10 15  1  0  0  0
 11 12  1  0  0  0
 11 98  1  0  0  0
 12 13  2  0  0  0
 12 99  1  0  0  0
 13 14  1  0  0  0
 13 31  1  0  0  0
 14 15  2  0  0  0
 14100  1  0  0  0
 15101  1  0  0  0
 16 17  2  0  0  0
 16 21  1  0  0  0
 16 31  1  0  0  0
 17 18  1  0  0  0
 17102  1  0  0  0
 18 19  2  0  0  0
 18103  1  0  0  0
 19 20  1  0  0  0
 19 24  1  0  0  0
 20 21  2  0  0  0
 20104  1  0  0  0
 21 23  1  0  0  0
 22 28  1  0  0  0
 22 32  2  0  0  0
 26 27  1  0  0  0
 28105  1  0  0  0
 28106  1  0  0  0
 29107  1  0  0  0
 29108  1  0  0  0
 33 34  1  0  0  0
 33 66  1  0  0  0
 33 70  2  0  0  0
 34 36  1  0  0  0
 34 59  1  0  0  0
 34109  1  0  0  0
 35 44  2  0  0  0
 35 45  1  0  0  0
 35 68  1  0  0  0
 36 56  1  0  0  0
 36110  1  0  0  0
 37 39  1  0  0  0
 37 47  1  0  0  0
 37 66  1  0  0  0
 37111  1  0  0  0
 38 43  2  0  0  0
 38 46  1  0  0  0
 38 47  1  0  0  0
 39 64  1  0  0  0
 39 67  2  0  0  0
 40 52  1  0  0  0
 40 53  2  0  0  0
 40 58  1  0  0  0
 41112  1  0  0  0
 41113  1  0  0  0
 41114  1  0  0  0
 41 48  1  0  0  0
 42 43  1  0  0  0
 42 66  1  0  0  0
 42115  1  0  0  0
 42116  1  0  0  0
 43 44  1  0  0  0
 44117  1  0  0  0
 45 46  2  0  0  0
 45118  1  0  0  0
 46119  1  0  0  0
 47120  1  0  0  0
 47121  1  0  0  0
 48 56  1  0  0  0
 48 65  1  0  0  0
 48122  1  0  0  0
 49 50  1  0  0  0
 49 53  1  0  0  0
 49 64  1  0  0  0
 49123  1  0  0  0
 50 51  1  0  0  0
 50124  1  0  0  0
 50125  1  0  0  0
 51 52  1  0  0  0
 51126  1  0  0  0
 51127  1  0  0  0
 52128  1  0  0  0
 52129  1  0  0  0
 53 54  1  0  0  0
 54 55  2  0  0  0
 54130  1  0  0  0
 55 57  1  0  0  0
 55131  1  0  0  0
 56 69  2  0  0  0
 57 58  2  0  0  0
 57132  1  0  0  0
 58133  1  0  0  0
 59 60  1  0  0  0
 59 61  1  0  0  0
 59 62  1  0  0  0
 60134  1  0  0  0
 60135  1  0  0  0
 60136  1  0  0  0
 61137  1  0  0  0
 61138  1  0  0  0
 61139  1  0  0  0
 62140  1  0  0  0
 62141  1  0  0  0
 62142  1  0  0  0
 63 65  1  0  0  0
 63143  1  0  0  0
 63144  1  0  0  0
 63145  1  0  0  0
 64146  1  0  0  0
 65147  1  0  0  0
 68 84  1  0  0  0
 71 73  2  0  0  0
 71 74  1  0  0  0
 71148  1  0  0  0
 72 73  1  0  0  0
 72 75  2  0  0  0
 72149  1  0  0  0
 73 81  1  0  0  0
 74 76  2  0  0  0
 74 77  1  0  0  0
 75 76  1  0  0  0
 75 78  1  0  0  0
 76 80  1  0  0  0
 77150  1  0  0  0
 77151  1  0  0  0
 77152  1  0  0  0
 78153  1  0  0  0
 78154  1  0  0  0
 78155  1  0  0  0
 79156  1  0  0  0
 79157  1  0  0  0
 79158  1  0  0  0
 79 85  1  0  0  0
 80 85  1  0  0  0
 80159  1  0  0  0
 80160  1  0  0  0
 81 87  1  0  0  0
 81161  1  0  0  0
 81162  1  0  0  0
 82 85  1  0  0  0
 82 86  1  0  0  0
 82163  1  0  0  0
 82164  1  0  0  0
 83 84  1  0  0  0
 83 87  1  0  0  0
 83165  1  0  0  0
 83166  1  0  0  0
 84167  1  0  0  0
 84168  1  0  0  0
 85 88  1  0  0  0
 86169  1  0  0  0
 87170  1  0  0  0
 87171  1  0  0  0
M  CHG  1  87   1
M  ISO  4   1 100  68 101  84 101  86 100
M  END
> <chiral flag>
0

> <version>
0

> <s_m_source_file>
/data/baiqing/PycharmProjects/Reinvent-master-3.2/result/LINK_invent/BTK/process_docking_weight1_custom_product_contain_oxygen_bond_distance_aromatic_linkinvent_7_9_3/rearranged_h_0040.sdf

> <i_m_source_file_index>
81

> <r_mmod_Potential_Energy-OPLS-2005>
-268.352020263672

> <r_mmod_Stretch_Energy-OPLS-2005>
35.8396148681641

> <r_mmod_Bend_Energy-OPLS-2005>
93.9676971435547

> <r_mmod_Torsional_Energy-OPLS-2005>
252.739944458008

> <r_mmod_Improper_Torsional_Energy-OPLS-2005>
8.49417781829834

> <r_mmod_Van_der_Waal_Energy-OPLS-2005>
158.234970092773

> <r_mmod_Electrostatic_Energy-OPLS-2005>
-397.599700927734

> <r_mmod_Solvation_Energy-OPLS-2005>
-429.600738525391

> <b_mmod_Minimization_Converged-OPLS-2005>
0

> <r_mmod_RMS_Derivative-OPLS-2005>
1.8990181684494

$$$$
81
                    3D
 Structure written by MMmdl.
180189  0  0  1  0            999 V2000
  -30.6568  -14.6689   20.4209 C   0  0  0  0  0  0
  -30.4370  -12.3749   19.4944 C   0  0  0  0  0  0
  -29.5107  -12.3399   18.2579 C   0  0  0  0  0  0
  -28.0239  -12.2803   18.6603 C   0  0  0  0  0  0
  -27.6449  -13.2163   19.8385 C   0  0  2  0  0  0
  -28.6904  -13.1577   20.9710 C   0  0  0  0  0  0
  -25.2563  -13.8195   20.5672 C   0  0  0  0  0  0
  -24.1811  -13.0470   20.9228 C   0  0  0  0  0  0
  -24.6371  -11.6935   20.8764 C   0  0  0  0  0  0
  -23.9063  -10.4296   21.0374 C   0  0  0  0  0  0
  -24.3624   -9.4209   21.9136 C   0  0  0  0  0  0
  -23.6312   -8.2233   22.0714 C   0  0  0  0  0  0
  -22.4306   -8.0256   21.3515 C   0  0  0  0  0  0
  -21.9917   -9.0238   20.4626 C   0  0  0  0  0  0
  -22.7227  -10.2126   20.3022 C   0  0  0  0  0  0
  -21.6865   -6.0725   22.5264 C   0  0  0  0  0  0
  -21.4010   -6.5640   23.8194 C   0  0  0  0  0  0
  -21.3657   -5.6800   24.9165 C   0  0  0  0  0  0
  -21.6054   -4.3061   24.7221 C   0  0  0  0  0  0
  -21.8820   -3.8145   23.4339 C   0  0  0  0  0  0
  -21.9195   -4.6940   22.3394 C   0  0  0  0  0  0
  -22.7830  -13.5231   21.1879 C   0  0  0  0  0  0
  -22.1652   -4.2123   21.0968 F   0  0  0  0  0  0
  -21.5648   -3.4551   25.7730 F   0  0  0  0  0  0
  -29.9964  -13.4702   20.3808 N   0  0  0  0  0  0
  -26.2958  -12.9375   20.3280 N   0  0  0  0  0  0
  -25.9303  -11.6558   20.5848 N   0  0  0  0  0  0
  -22.0462  -12.8211   22.0414 N   0  0  0  0  0  0
  -25.4376  -15.1900   20.4034 N   0  0  0  0  0  0
  -31.8708  -14.7175   20.2113 O   0  0  0  0  0  0
  -21.6666   -6.8849   21.4219 O   0  0  0  0  0  0
  -22.3505  -14.5521   20.6706 O   0  0  0  0  0  0
  -24.6217  -31.8618   23.2018 C   0  0  0  0  0  0
  -25.9072  -32.4792   23.8355 C   0  0  1  0  0  0
  -27.2277  -27.3446   20.1468 C   0  0  0  0  0  0
  -25.5914  -33.8591   24.2298 N   0  0  0  0  0  0
  -23.4167  -30.4829   21.5406 C   0  0  2  0  0  0
  -24.8706  -28.9387   20.1094 C   0  0  0  0  0  0
  -22.7466  -29.4623   22.4916 C   0  0  0  0  0  0
  -18.0285  -28.1378   22.8472 C   0  0  0  0  0  0
  -24.1483  -36.7294   23.2644 C   0  0  0  0  0  0
  -25.9533  -30.8041   21.3678 C   0  0  0  0  0  0
  -26.0322  -29.4306   20.7189 C   0  0  0  0  0  0
  -27.2198  -28.6446   20.7273 C   0  0  0  0  0  0
  -26.0550  -26.8977   19.5056 C   0  0  0  0  0  0
  -24.8829  -27.6778   19.4873 C   0  0  0  0  0  0
  -23.6333  -29.8119   20.1568 C   0  0  0  0  0  0
  -25.4105  -36.3092   24.0342 C   0  0  1  0  0  0
  -20.5882  -28.3685   23.1289 C   0  0  2  0  0  0
  -20.6764  -26.9401   22.5431 C   0  0  0  0  0  0
  -19.5758  -26.6367   21.5212 C   0  0  0  0  0  0
  -18.1928  -26.7926   22.1600 C   0  0  0  0  0  0
  -19.1537  -28.8841   23.2878 C   0  0  0  0  0  0
  -18.9460  -30.1443   23.8895 C   0  0  0  0  0  0
  -17.6465  -30.6581   24.0551 C   0  0  0  0  0  0
  -25.9031  -34.9465   23.5118 C   0  0  0  0  0  0
  -16.5351  -29.9080   23.6322 C   0  0  0  0  0  0
  -16.7272  -28.6501   23.0334 C   0  0  0  0  0  0
  -26.4482  -31.6583   25.0711 C   0  0  0  0  0  0
  -25.3732  -31.3705   26.1454 C   0  0  0  0  0  0
  -27.0322  -30.3012   24.6129 C   0  0  0  0  0  0
  -27.6050  -32.4305   25.7483 C   0  0  0  0  0  0
  -27.5584  -37.1810   24.8453 C   0  0  0  0  0  0
  -21.4179  -29.3046   22.3681 N   0  0  0  0  0  0
  -26.4285  -37.3784   23.9411 N   0  0  0  0  0  0
  -24.6814  -31.0670   22.0933 N   0  0  0  0  0  0
  -23.4209  -28.8165   23.2982 O   0  0  0  0  0  0
  -28.3195  -26.4803   20.2042 O   0  0  0  0  0  0
  -26.5608  -34.8924   22.4681 O   0  0  0  0  0  0
  -23.5387  -32.1393   23.7373 O   0  0  0  0  0  0
  -31.1390  -17.9736   17.5160 C   0  0  0  0  0  0
  -30.9088  -19.4214   19.4140 C   0  0  0  0  0  0
  -31.3417  -19.2213   18.1028 C   0  0  0  0  0  0
  -30.6029  -16.9121   18.2738 C   0  0  0  0  0  0
  -30.2532  -18.4195   20.1688 C   0  0  0  0  0  0
  -30.2610  -17.0537   19.6607 C   0  0  0  0  0  0
  -29.7681  -21.6412   21.8057 C   0  0  0  0  0  0
  -31.0889  -21.7242   22.1212 C   0  0  0  0  0  0
  -32.1379  -20.7122   22.1280 C   0  0  0  0  0  0
  -33.4389  -21.0356   22.2044 C   0  0  0  0  0  0
  -28.8517  -22.8997   21.9300 C   0  0  0  0  0  0
  -28.4636  -21.7498   19.2175 C   0  0  0  0  0  0
  -27.9780  -23.1802   19.5734 C   0  0  0  0  0  0
  -28.0458  -20.6220   20.2151 C   0  0  0  0  0  0
  -28.7702  -23.8874   20.6985 C   0  0  1  0  0  0
  -31.9341  -20.3768   17.3200 C   0  0  0  0  0  0
  -30.3404  -15.6401   17.4991 C   0  0  0  0  0  0
  -34.5785  -20.0398   22.1559 C   0  0  0  0  0  0
  -29.5158  -18.9537   21.4328 C   0  0  0  0  0  0
  -28.1275  -25.3009   21.0664 C   0  0  0  0  0  0
  -29.9136  -15.8337   20.4142 N   0  0  0  0  0  0
  -28.9686  -20.3864   21.3709 N   0  3  1  0  0  0
  -31.4796  -12.4806   19.1885 H   0  0  0  0  0  0
  -30.3871  -11.4271   20.0335 H   0  0  0  0  0  0
  -29.7574  -11.4591   17.6634 H   0  0  0  0  0  0
  -29.6909  -13.1718   17.5927 H   0  0  0  0  0  0
  -27.8290  -11.2454   18.9475 H   0  0  0  0  0  0
  -27.3818  -12.4783   17.8016 H   0  0  0  0  0  0
  -27.6433  -14.2270   19.4281 H   0  0  0  0  0  0
  -28.7107  -12.1661   21.4272 H   0  0  0  0  0  0
  -28.4479  -13.8644   21.7656 H   0  0  0  0  0  0
  -25.2745   -9.5734   22.4721 H   0  0  0  0  0  0
  -24.0037   -7.4645   22.7468 H   0  0  0  0  0  0
  -21.0814   -8.8776   19.8961 H   0  0  0  0  0  0
  -22.3647  -10.9677   19.6163 H   0  0  0  0  0  0
  -21.1997   -7.6145   23.9698 H   0  0  0  0  0  0
  -21.1475   -6.0517   25.9080 H   0  0  0  0  0  0
  -22.0592   -2.7593   23.2858 H   0  0  0  0  0  0
  -22.4101  -11.9856   22.4772 H   0  0  0  0  0  0
  -21.1065  -13.1212   22.2624 H   0  0  0  0  0  0
  -24.6879  -15.8643   20.5110 H   0  0  0  0  0  0
  -26.2979  -15.6036   20.0666 H   0  0  0  0  0  0
  -26.7138  -32.5498   23.1109 H   0  0  0  0  0  0
  -25.0081  -33.9726   25.0463 H   0  0  0  0  0  0
  -22.7078  -31.3010   21.3958 H   0  0  0  0  0  0
  -23.3755  -35.9615   23.3284 H   0  0  0  0  0  0
  -24.3579  -36.8931   22.2061 H   0  0  0  0  0  0
  -23.7222  -37.6485   23.6671 H   0  0  0  0  0  0
  -26.0779  -31.5649   20.5954 H   0  0  0  0  0  0
  -26.8346  -30.8596   21.9942 H   0  0  0  0  0  0
  -28.1103  -29.0137   21.2144 H   0  0  0  0  0  0
  -26.0448  -25.9224   19.0383 H   0  0  0  0  0  0
  -23.9958  -27.2979   18.9987 H   0  0  0  0  0  0
  -23.7454  -30.5838   19.3948 H   0  0  0  0  0  0
  -22.7572  -29.2331   19.8598 H   0  0  0  0  0  0
  -25.1291  -36.1936   25.0837 H   0  0  0  0  0  0
  -20.9992  -28.3267   24.1404 H   0  0  0  0  0  0
  -20.5621  -26.2304   23.3639 H   0  0  0  0  0  0
  -21.6639  -26.7401   22.1262 H   0  0  0  0  0  0
  -19.6912  -25.6275   21.1246 H   0  0  0  0  0  0
  -19.6709  -27.3162   20.6734 H   0  0  0  0  0  0
  -17.4219  -26.6702   21.3976 H   0  0  0  0  0  0
  -18.0289  -26.0061   22.8979 H   0  0  0  0  0  0
  -19.7932  -30.7249   24.2273 H   0  0  0  0  0  0
  -17.5015  -31.6258   24.5154 H   0  0  0  0  0  0
  -15.5345  -30.2976   23.7646 H   0  0  0  0  0  0
  -15.8673  -28.0818   22.7040 H   0  0  0  0  0  0
  -24.5929  -30.7013   25.7810 H   0  0  0  0  0  0
  -24.8891  -32.2860   26.4863 H   0  0  0  0  0  0
  -25.8087  -30.8927   27.0239 H   0  0  0  0  0  0
  -26.2889  -29.6768   24.1157 H   0  0  0  0  0  0
  -27.4047  -29.7250   25.4608 H   0  0  0  0  0  0
  -27.8742  -30.4306   23.9322 H   0  0  0  0  0  0
  -27.2672  -33.3611   26.2049 H   0  0  0  0  0  0
  -28.3878  -32.6845   25.0327 H   0  0  0  0  0  0
  -28.0695  -31.8431   26.5412 H   0  0  0  0  0  0
  -28.2587  -38.0121   24.7511 H   0  0  0  0  0  0
  -28.1095  -36.2655   24.6246 H   0  0  0  0  0  0
  -27.2319  -37.1423   25.8861 H   0  0  0  0  0  0
  -20.9333  -29.8813   21.6946 H   0  0  0  0  0  0
  -26.0168  -38.2860   24.1405 H   0  0  0  0  0  0
  -31.4016  -17.8292   16.4757 H   0  0  0  0  0  0
  -31.0386  -20.4153   19.8034 H   0  0  0  0  0  0
  -31.4171  -22.7066   22.4316 H   0  0  0  0  0  0
  -31.9213  -19.6607   22.0675 H   0  0  0  0  0  0
  -33.7310  -22.0754   22.2682 H   0  0  0  0  0  0
  -29.2291  -23.4646   22.7830 H   0  0  0  0  0  0
  -27.8458  -22.5993   22.2261 H   0  0  0  0  0  0
  -29.5354  -21.7598   19.0347 H   0  0  0  0  0  0
  -28.0315  -21.4908   18.2500 H   0  0  0  0  0  0
  -26.9207  -23.1419   19.8391 H   0  0  0  0  0  0
  -28.0314  -23.7975   18.6761 H   0  0  0  0  0  0
  -27.9021  -19.6915   19.6627 H   0  0  0  0  0  0
  -27.0583  -20.8473   20.6214 H   0  0  0  0  0  0
  -29.7870  -24.0787   20.3526 H   0  0  0  0  0  0
  -32.4006  -20.0347   16.3976 H   0  0  0  0  0  0
  -32.6870  -20.9020   17.9086 H   0  0  0  0  0  0
  -31.1553  -21.0958   17.0608 H   0  0  0  0  0  0
  -31.1216  -14.9065   17.6955 H   0  0  0  0  0  0
  -30.3192  -15.8096   16.4211 H   0  0  0  0  0  0
  -29.3595  -15.2532   17.7712 H   0  0  0  0  0  0
  -34.2523  -19.0331   22.4243 H   0  0  0  0  0  0
  -35.3760  -20.3346   22.8391 H   0  0  0  0  0  0
  -34.9945  -20.0118   21.1469 H   0  0  0  0  0  0
  -30.0845  -18.7791   22.3420 H   0  0  0  0  0  0
  -28.6424  -18.3115   21.5557 H   0  0  0  0  0  0
  -28.5330  -25.5992   22.0330 H   0  0  0  0  0  0
  -27.0655  -25.1371   21.2563 H   0  0  0  0  0  0
  -28.9536  -15.7406   20.7060 H   0  0  0  0  0  0
  -28.2988  -20.2825   22.1200 H   0  0  0  0  0  0
  1 25  1  0  0  0
  1 30  2  0  0  0
  1 91  1  0  0  0
  2  3  1  0  0  0
  2 25  1  0  0  0
  2 93  1  0  0  0
  2 94  1  0  0  0
  3  4  1  0  0  0
  3 95  1  0  0  0
  3 96  1  0  0  0
  4  5  1  0  0  0
  4 97  1  0  0  0
  4 98  1  0  0  0
  5  6  1  0  0  0
  5 26  1  0  0  0
  5 99  1  0  0  0
  6 25  1  0  0  0
  6100  1  0  0  0
  6101  1  0  0  0
  7  8  2  0  0  0
  7 26  1  0  0  0
  7 29  1  0  0  0
  8  9  1  0  0  0
  8 22  1  0  0  0
  9 10  1  0  0  0
  9 27  2  0  0  0
 10 11  2  0  0  0
 10 15  1  0  0  0
 11 12  1  0  0  0
 11102  1  0  0  0
 12 13  2  0  0  0
 12103  1  0  0  0
 13 14  1  0  0  0
 13 31  1  0  0  0
 14 15  2  0  0  0
 14104  1  0  0  0
 15105  1  0  0  0
 16 17  2  0  0  0
 16 21  1  0  0  0
 16 31  1  0  0  0
 17 18  1  0  0  0
 17106  1  0  0  0
 18 19  2  0  0  0
 18107  1  0  0  0
 19 20  1  0  0  0
 19 24  1  0  0  0
 20 21  2  0  0  0
 20108  1  0  0  0
 21 23  1  0  0  0
 22 28  1  0  0  0
 22 32  2  0  0  0
 26 27  1  0  0  0
 28109  1  0  0  0
 28110  1  0  0  0
 29111  1  0  0  0
 29112  1  0  0  0
 33 34  1  0  0  0
 33 66  1  0  0  0
 33 70  2  0  0  0
 34 36  1  0  0  0
 34 59  1  0  0  0
 34113  1  0  0  0
 35 44  2  0  0  0
 35 45  1  0  0  0
 35 68  1  0  0  0
 36 56  1  0  0  0
 36114  1  0  0  0
 37 39  1  0  0  0
 37 47  1  0  0  0
 37 66  1  0  0  0
 37115  1  0  0  0
 38 43  2  0  0  0
 38 46  1  0  0  0
 38 47  1  0  0  0
 39 64  1  0  0  0
 39 67  2  0  0  0
 40 52  1  0  0  0
 40 53  2  0  0  0
 40 58  1  0  0  0
 41116  1  0  0  0
 41117  1  0  0  0
 41118  1  0  0  0
 41 48  1  0  0  0
 42 43  1  0  0  0
 42 66  1  0  0  0
 42119  1  0  0  0
 42120  1  0  0  0
 43 44  1  0  0  0
 44121  1  0  0  0
 45 46  2  0  0  0
 45122  1  0  0  0
 46123  1  0  0  0
 47124  1  0  0  0
 47125  1  0  0  0
 48 56  1  0  0  0
 48 65  1  0  0  0
 48126  1  0  0  0
 49 50  1  0  0  0
 49 53  1  0  0  0
 49 64  1  0  0  0
 49127  1  0  0  0
 50 51  1  0  0  0
 50128  1  0  0  0
 50129  1  0  0  0
 51 52  1  0  0  0
 51130  1  0  0  0
 51131  1  0  0  0
 52132  1  0  0  0
 52133  1  0  0  0
 53 54  1  0  0  0
 54 55  2  0  0  0
 54134  1  0  0  0
 55 57  1  0  0  0
 55135  1  0  0  0
 56 69  2  0  0  0
 57 58  2  0  0  0
 57136  1  0  0  0
 58137  1  0  0  0
 59 60  1  0  0  0
 59 61  1  0  0  0
 59 62  1  0  0  0
 60138  1  0  0  0
 60139  1  0  0  0
 60140  1  0  0  0
 61141  1  0  0  0
 61142  1  0  0  0
 61143  1  0  0  0
 62144  1  0  0  0
 62145  1  0  0  0
 62146  1  0  0  0
 63 65  1  0  0  0
 63147  1  0  0  0
 63148  1  0  0  0
 63149  1  0  0  0
 64150  1  0  0  0
 65151  1  0  0  0
 68 90  1  0  0  0
 71 73  2  0  0  0
 71 74  1  0  0  0
 71152  1  0  0  0
 72 73  1  0  0  0
 72 75  2  0  0  0
 72153  1  0  0  0
 73 86  1  0  0  0
 74 76  2  0  0  0
 74 87  1  0  0  0
 75 76  1  0  0  0
 75 89  1  0  0  0
 76 91  1  0  0  0
 77 78  2  0  0  0
 77 81  1  0  0  0
 77 92  1  0  0  0
 78 79  1  0  0  0
 78154  1  0  0  0
 79 80  2  0  0  0
 79155  1  0  0  0
 80 88  1  0  0  0
 80156  1  0  0  0
 81 85  1  0  0  0
 81157  1  0  0  0
 81158  1  0  0  0
 82 83  1  0  0  0
 82 84  1  0  0  0
 82159  1  0  0  0
 82160  1  0  0  0
 83 85  1  0  0  0
 83161  1  0  0  0
 83162  1  0  0  0
 84 92  1  0  0  0
 84163  1  0  0  0
 84164  1  0  0  0
 85 90  1  0  0  0
 85165  1  0  0  0
 86166  1  0  0  0
 86167  1  0  0  0
 86168  1  0  0  0
 87169  1  0  0  0
 87170  1  0  0  0
 87171  1  0  0  0
 88172  1  0  0  0
 88173  1  0  0  0
 88174  1  0  0  0
 89175  1  0  0  0
 89176  1  0  0  0
 89 92  1  0  0  0
 90177  1  0  0  0
 90178  1  0  0  0
 91179  1  0  0  0
 92180  1  0  0  0
M  CHG  1  92   1
M  ISO  4   1 100  68 101  90 101  91 100
M  END
> <chiral flag>
0

> <version>
0

> <s_m_source_file>
/data/baiqing/PycharmProjects/Reinvent-master-3.2/result/LINK_invent/BTK/process_docking_weight1_custom_product_contain_oxygen_bond_distance_aromatic_linkinvent_7_9_3/rearranged_h_0040.sdf

> <i_m_source_file_index>
82

> <r_mmod_Potential_Energy-OPLS-2005>
131.367446899414

> <r_mmod_Stretch_Energy-OPLS-2005>
94.4858322143555

> <r_mmod_Bend_Energy-OPLS-2005>
186.862182617188

> <r_mmod_Torsional_Energy-OPLS-2005>
330.908050537109

> <r_mmod_Improper_Torsional_Energy-OPLS-2005>
8.09702587127686

> <r_mmod_Van_der_Waal_Energy-OPLS-2005>
159.851638793945

> <r_mmod_Electrostatic_Energy-OPLS-2005>
-266.864074707031

> <r_mmod_Solvation_Energy-OPLS-2005>
-446.409301757812

> <b_mmod_Minimization_Converged-OPLS-2005>
0

> <r_mmod_RMS_Derivative-OPLS-2005>
4.19315385818481

$$$$
82
                    3D
 Structure written by MMmdl.
159167  0  0  1  0            999 V2000
  -30.6990  -14.4258   20.6231 C   0  0  0  0  0  0
  -30.4377  -12.2892   19.4033 C   0  0  0  0  0  0
  -29.5002  -12.5029   18.1970 C   0  0  0  0  0  0
  -28.0203  -12.3622   18.6094 C   0  0  0  0  0  0
  -27.6710  -13.1902   19.8747 C   0  0  2  0  0  0
  -28.7092  -12.9214   20.9863 C   0  0  0  0  0  0
  -25.2647  -13.8136   20.5645 C   0  0  0  0  0  0
  -24.1866  -13.0455   20.9128 C   0  0  0  0  0  0
  -24.6379  -11.6900   20.8697 C   0  0  0  0  0  0
  -23.9034  -10.4303   21.0388 C   0  0  0  0  0  0
  -24.3600   -9.4229   21.9170 C   0  0  0  0  0  0
  -23.6279   -8.2266   22.0756 C   0  0  0  0  0  0
  -22.4265   -8.0284   21.3542 C   0  0  0  0  0  0
  -21.9889   -9.0249   20.4644 C   0  0  0  0  0  0
  -22.7206  -10.2135   20.3041 C   0  0  0  0  0  0
  -21.6857   -6.0732   22.5279 C   0  0  0  0  0  0
  -21.4017   -6.5633   23.8213 C   0  0  0  0  0  0
  -21.3658   -5.6779   24.9169 C   0  0  0  0  0  0
  -21.6049   -4.3044   24.7224 C   0  0  0  0  0  0
  -21.8817   -3.8140   23.4342 C   0  0  0  0  0  0
  -21.9193   -4.6956   22.3398 C   0  0  0  0  0  0
  -22.7890  -13.5271   21.1810 C   0  0  0  0  0  0
  -22.1657   -4.2142   21.0974 F   0  0  0  0  0  0
  -21.5635   -3.4526   25.7739 F   0  0  0  0  0  0
  -30.0521  -13.2409   20.4552 N   0  0  0  0  0  0
  -26.3067  -12.9271   20.3324 N   0  0  0  0  0  0
  -25.9303  -11.6453   20.5721 N   0  0  0  0  0  0
  -22.0511  -12.8270   22.0361 N   0  0  0  0  0  0
  -25.4448  -15.1860   20.4105 N   0  0  0  0  0  0
  -31.7569  -14.7120   20.0525 O   0  0  0  0  0  0
  -21.6640   -6.8873   21.4241 O   0  0  0  0  0  0
  -22.3588  -14.5588   20.6660 O   0  0  0  0  0  0
  -24.6139  -31.8680   23.2085 C   0  0  0  0  0  0
  -25.9023  -32.4824   23.8389 C   0  0  1  0  0  0
  -27.2409  -27.4370   20.1028 C   0  0  0  0  0  0
  -25.5886  -33.8616   24.2328 N   0  0  0  0  0  0
  -23.4033  -30.4890   21.5482 C   0  0  2  0  0  0
  -24.8539  -28.9494   20.1200 C   0  0  0  0  0  0
  -22.7393  -29.4650   22.4963 C   0  0  0  0  0  0
  -18.0269  -28.1380   22.8490 C   0  0  0  0  0  0
  -24.1487  -36.7324   23.2640 C   0  0  0  0  0  0
  -25.9307  -30.8343   21.3609 C   0  0  0  0  0  0
  -26.0122  -29.4647   20.7169 C   0  0  0  0  0  0
  -27.2103  -28.7133   20.7099 C   0  0  0  0  0  0
  -26.0717  -26.9329   19.4997 C   0  0  0  0  0  0
  -24.8771  -27.6804   19.5128 C   0  0  0  0  0  0
  -23.6154  -29.8172   20.1644 C   0  0  0  0  0  0
  -25.4106  -36.3113   24.0342 C   0  0  1  0  0  0
  -20.5857  -28.3664   23.1317 C   0  0  2  0  0  0
  -20.6759  -26.9401   22.5422 C   0  0  0  0  0  0
  -19.5745  -26.6387   21.5206 C   0  0  0  0  0  0
  -18.1918  -26.7926   22.1617 C   0  0  0  0  0  0
  -19.1521  -28.8837   23.2899 C   0  0  0  0  0  0
  -18.9454  -30.1438   23.8915 C   0  0  0  0  0  0
  -17.6463  -30.6587   24.0569 C   0  0  0  0  0  0
  -25.9033  -34.9478   23.5140 C   0  0  0  0  0  0
  -16.5349  -29.9102   23.6322 C   0  0  0  0  0  0
  -16.7253  -28.6519   23.0341 C   0  0  0  0  0  0
  -26.4468  -31.6605   25.0713 C   0  0  0  0  0  0
  -25.3746  -31.3713   26.1473 C   0  0  0  0  0  0
  -27.0306  -30.3057   24.6069 C   0  0  0  0  0  0
  -27.6041  -32.4323   25.7480 C   0  0  0  0  0  0
  -27.5580  -37.1815   24.8464 C   0  0  0  0  0  0
  -21.4117  -29.3038   22.3717 N   0  0  0  0  0  0
  -26.4292  -37.3797   23.9409 N   0  0  0  0  0  0
  -24.6672  -31.0777   22.0986 N   0  0  0  0  0  0
  -23.4169  -28.8185   23.2993 O   0  0  0  0  0  0
  -28.3915  -26.6835   20.0675 O   0  0  0  0  0  0
  -26.5581  -34.8927   22.4691 O   0  0  0  0  0  0
  -23.5330  -32.1403   23.7490 O   0  0  0  0  0  0
  -29.1820  -17.1833   22.5678 C   0  0  0  0  0  0
  -30.7488  -17.5801   20.7596 C   0  0  0  0  0  0
  -29.7859  -19.4931   21.9880 C   0  0  0  0  0  0
  -29.0442  -18.5710   22.7821 C   0  0  0  0  0  0
  -30.0411  -16.6686   21.5794 C   0  0  0  0  0  0
  -30.6167  -18.9782   20.9573 C   0  0  0  0  0  0
  -29.7466  -20.9427   22.2938 C   0  0  0  0  0  0
  -28.0700  -19.0178   23.8663 C   0  0  0  0  0  0
  -28.7617  -24.2677   20.6173 C   0  0  0  0  0  0
  -29.0349  -23.3066   21.7992 C   0  0  0  0  0  0
  -28.5105  -25.7147   21.1202 C   0  0  0  0  0  0
  -30.1462  -21.3358   23.5066 N   0  0  0  0  0  0
  -30.0802  -15.2474   21.4824 N   0  0  0  0  0  0
  -29.2738  -21.8816   21.4438 N   0  3  0  0  0  0
  -31.3243  -19.8194   20.1639 F   0  0  0  0  0  0
  -31.4811  -12.4022   19.1003 H   0  0  0  0  0  0
  -30.3504  -11.2676   19.7778 H   0  0  0  0  0  0
  -29.7381  -11.7852   17.4110 H   0  0  0  0  0  0
  -29.6658  -13.4933   17.7711 H   0  0  0  0  0  0
  -27.8305  -11.3048   18.7976 H   0  0  0  0  0  0
  -27.3693  -12.6444   17.7802 H   0  0  0  0  0  0
  -27.7327  -14.2432   19.5992 H   0  0  0  0  0  0
  -28.6800  -11.8706   21.2796 H   0  0  0  0  0  0
  -28.4463  -13.4671   21.8925 H   0  0  0  0  0  0
  -25.2748   -9.5716   22.4729 H   0  0  0  0  0  0
  -23.9990   -7.4674   22.7484 H   0  0  0  0  0  0
  -21.0821   -8.8760   19.8954 H   0  0  0  0  0  0
  -22.3661  -10.9665   19.6141 H   0  0  0  0  0  0
  -21.2007   -7.6138   23.9712 H   0  0  0  0  0  0
  -21.1485   -6.0510   25.9075 H   0  0  0  0  0  0
  -22.0602   -2.7601   23.2839 H   0  0  0  0  0  0
  -22.4088  -11.9912   22.4753 H   0  0  0  0  0  0
  -21.1150  -13.1342   22.2574 H   0  0  0  0  0  0
  -24.6909  -15.8523   20.5322 H   0  0  0  0  0  0
  -26.3110  -15.6211   20.1191 H   0  0  0  0  0  0
  -26.7089  -32.5548   23.1150 H   0  0  0  0  0  0
  -25.0063  -33.9789   25.0490 H   0  0  0  0  0  0
  -22.6932  -31.3056   21.4044 H   0  0  0  0  0  0
  -23.3745  -35.9666   23.3312 H   0  0  0  0  0  0
  -24.3578  -36.8919   22.2054 H   0  0  0  0  0  0
  -23.7251  -37.6538   23.6637 H   0  0  0  0  0  0
  -26.0341  -31.5937   20.5845 H   0  0  0  0  0  0
  -26.8220  -30.8967   21.9728 H   0  0  0  0  0  0
  -28.1064  -29.1071   21.1690 H   0  0  0  0  0  0
  -26.0900  -25.9631   19.0222 H   0  0  0  0  0  0
  -23.9861  -27.2745   19.0554 H   0  0  0  0  0  0
  -23.7273  -30.5899   19.4029 H   0  0  0  0  0  0
  -22.7402  -29.2367   19.8662 H   0  0  0  0  0  0
  -25.1285  -36.1982   25.0837 H   0  0  0  0  0  0
  -20.9954  -28.3232   24.1434 H   0  0  0  0  0  0
  -20.5655  -26.2266   23.3607 H   0  0  0  0  0  0
  -21.6630  -26.7440   22.1214 H   0  0  0  0  0  0
  -19.6907  -25.6295   21.1235 H   0  0  0  0  0  0
  -19.6695  -27.3198   20.6735 H   0  0  0  0  0  0
  -17.4186  -26.6659   21.4019 H   0  0  0  0  0  0
  -18.0322  -26.0070   22.9022 H   0  0  0  0  0  0
  -19.7933  -30.7244   24.2295 H   0  0  0  0  0  0
  -17.5025  -31.6273   24.5170 H   0  0  0  0  0  0
  -15.5351  -30.3023   23.7646 H   0  0  0  0  0  0
  -15.8641  -28.0859   22.7044 H   0  0  0  0  0  0
  -24.5904  -30.7073   25.7816 H   0  0  0  0  0  0
  -24.8966  -32.2878   26.4941 H   0  0  0  0  0  0
  -25.8119  -30.8868   27.0215 H   0  0  0  0  0  0
  -26.2845  -29.6809   24.1142 H   0  0  0  0  0  0
  -27.4114  -29.7296   25.4514 H   0  0  0  0  0  0
  -27.8657  -30.4396   23.9187 H   0  0  0  0  0  0
  -27.2652  -33.3600   26.2103 H   0  0  0  0  0  0
  -28.3836  -32.6918   25.0305 H   0  0  0  0  0  0
  -28.0725  -31.8422   26.5363 H   0  0  0  0  0  0
  -28.2607  -38.0107   24.7504 H   0  0  0  0  0  0
  -28.1072  -36.2635   24.6299 H   0  0  0  0  0  0
  -27.2296  -37.1477   25.8868 H   0  0  0  0  0  0
  -20.9259  -29.8796   21.6982 H   0  0  0  0  0  0
  -26.0187  -38.2882   24.1406 H   0  0  0  0  0  0
  -28.6099  -16.4983   23.1783 H   0  0  0  0  0  0
  -31.4035  -17.2270   19.9774 H   0  0  0  0  0  0
  -27.4117  -18.2022   24.1696 H   0  0  0  0  0  0
  -27.4264  -19.8289   23.5223 H   0  0  0  0  0  0
  -28.6106  -19.3497   24.7523 H   0  0  0  0  0  0
  -27.9010  -23.9209   20.0443 H   0  0  0  0  0  0
  -29.6132  -24.2648   19.9373 H   0  0  0  0  0  0
  -28.1913  -23.3418   22.4917 H   0  0  0  0  0  0
  -29.8992  -23.6787   22.3520 H   0  0  0  0  0  0
  -27.6364  -25.7199   21.7756 H   0  0  0  0  0  0
  -29.3521  -26.0241   21.7423 H   0  0  0  0  0  0
  -30.1464  -22.2958   23.8062 H   0  0  0  0  0  0
  -30.4985  -20.6415   24.1480 H   0  0  0  0  0  0
  -29.3620  -14.7734   22.0074 H   0  0  0  0  0  0
  -28.8739  -21.5413   20.5780 H   0  0  0  0  0  0
  1 25  1  0  0  0
  1 30  2  0  0  0
  1 83  1  0  0  0
  2  3  1  0  0  0
  2 25  1  0  0  0
  2 86  1  0  0  0
  2 87  1  0  0  0
  3  4  1  0  0  0
  3 88  1  0  0  0
  3 89  1  0  0  0
  4  5  1  0  0  0
  4 90  1  0  0  0
  4 91  1  0  0  0
  5  6  1  0  0  0
  5 26  1  0  0  0
  5 92  1  0  0  0
  6 25  1  0  0  0
  6 93  1  0  0  0
  6 94  1  0  0  0
  7  8  2  0  0  0
  7 26  1  0  0  0
  7 29  1  0  0  0
  8  9  1  0  0  0
  8 22  1  0  0  0
  9 10  1  0  0  0
  9 27  2  0  0  0
 10 11  2  0  0  0
 10 15  1  0  0  0
 11 12  1  0  0  0
 11 95  1  0  0  0
 12 13  2  0  0  0
 12 96  1  0  0  0
 13 14  1  0  0  0
 13 31  1  0  0  0
 14 15  2  0  0  0
 14 97  1  0  0  0
 15 98  1  0  0  0
 16 17  2  0  0  0
 16 21  1  0  0  0
 16 31  1  0  0  0
 17 18  1  0  0  0
 17 99  1  0  0  0
 18 19  2  0  0  0
 18100  1  0  0  0
 19 20  1  0  0  0
 19 24  1  0  0  0
 20 21  2  0  0  0
 20101  1  0  0  0
 21 23  1  0  0  0
 22 28  1  0  0  0
 22 32  2  0  0  0
 26 27  1  0  0  0
 28102  1  0  0  0
 28103  1  0  0  0
 29104  1  0  0  0
 29105  1  0  0  0
 33 34  1  0  0  0
 33 66  1  0  0  0
 33 70  2  0  0  0
 34 36  1  0  0  0
 34 59  1  0  0  0
 34106  1  0  0  0
 35 44  2  0  0  0
 35 45  1  0  0  0
 35 68  1  0  0  0
 36 56  1  0  0  0
 36107  1  0  0  0
 37 39  1  0  0  0
 37 47  1  0  0  0
 37 66  1  0  0  0
 37108  1  0  0  0
 38 43  2  0  0  0
 38 46  1  0  0  0
 38 47  1  0  0  0
 39 64  1  0  0  0
 39 67  2  0  0  0
 40 52  1  0  0  0
 40 53  2  0  0  0
 40 58  1  0  0  0
 41109  1  0  0  0
 41110  1  0  0  0
 41111  1  0  0  0
 41 48  1  0  0  0
 42 43  1  0  0  0
 42 66  1  0  0  0
 42112  1  0  0  0
 42113  1  0  0  0
 43 44  1  0  0  0
 44114  1  0  0  0
 45 46  2  0  0  0
 45115  1  0  0  0
 46116  1  0  0  0
 47117  1  0  0  0
 47118  1  0  0  0
 48 56  1  0  0  0
 48 65  1  0  0  0
 48119  1  0  0  0
 49 50  1  0  0  0
 49 53  1  0  0  0
 49 64  1  0  0  0
 49120  1  0  0  0
 50 51  1  0  0  0
 50121  1  0  0  0
 50122  1  0  0  0
 51 52  1  0  0  0
 51123  1  0  0  0
 51124  1  0  0  0
 52125  1  0  0  0
 52126  1  0  0  0
 53 54  1  0  0  0
 54 55  2  0  0  0
 54127  1  0  0  0
 55 57  1  0  0  0
 55128  1  0  0  0
 56 69  2  0  0  0
 57 58  2  0  0  0
 57129  1  0  0  0
 58130  1  0  0  0
 59 60  1  0  0  0
 59 61  1  0  0  0
 59 62  1  0  0  0
 60131  1  0  0  0
 60132  1  0  0  0
 60133  1  0  0  0
 61134  1  0  0  0
 61135  1  0  0  0
 61136  1  0  0  0
 62137  1  0  0  0
 62138  1  0  0  0
 62139  1  0  0  0
 63 65  1  0  0  0
 63140  1  0  0  0
 63141  1  0  0  0
 63142  1  0  0  0
 64143  1  0  0  0
 65144  1  0  0  0
 68 81  1  0  0  0
 71 74  2  0  0  0
 71 75  1  0  0  0
 71145  1  0  0  0
 72 75  2  0  0  0
 72 76  1  0  0  0
 72146  1  0  0  0
 73 74  1  0  0  0
 73 76  2  0  0  0
 73 77  1  0  0  0
 74 78  1  0  0  0
 75 83  1  0  0  0
 76 85  1  0  0  0
 77 82  1  0  0  0
 77 84  2  0  0  0
 78147  1  0  0  0
 78148  1  0  0  0
 78149  1  0  0  0
 79 80  1  0  0  0
 79 81  1  0  0  0
 79150  1  0  0  0
 79151  1  0  0  0
 80 84  1  0  0  0
 80152  1  0  0  0
 80153  1  0  0  0
 81154  1  0  0  0
 81155  1  0  0  0
 82156  1  0  0  0
 82157  1  0  0  0
 83158  1  0  0  0
 84159  1  0  0  0
M  CHG  1  84   1
M  ISO  4   1 100  68 101  81 101  83 100
M  END
> <chiral flag>
0

> <version>
0

> <s_m_source_file>
/data/baiqing/PycharmProjects/Reinvent-master-3.2/result/LINK_invent/BTK/process_docking_weight1_custom_product_contain_oxygen_bond_distance_aromatic_linkinvent_7_9_3/rearranged_h_0040.sdf

> <i_m_source_file_index>
83

> <r_mmod_Potential_Energy-OPLS-2005>
-131.905670166016

> <r_mmod_Stretch_Energy-OPLS-2005>
38.7859115600586

> <r_mmod_Bend_Energy-OPLS-2005>
107.084434509277

> <r_mmod_Torsional_Energy-OPLS-2005>
244.413375854492

> <r_mmod_Improper_Torsional_Energy-OPLS-2005>
3.43279457092285

> <r_mmod_Van_der_Waal_Energy-OPLS-2005>
156.148544311523

> <r_mmod_Electrostatic_Energy-OPLS-2005>
-276.778930664062

> <r_mmod_Solvation_Energy-OPLS-2005>
-414.469360351562

> <b_mmod_Minimization_Converged-OPLS-2005>
0

> <r_mmod_RMS_Derivative-OPLS-2005>
2.67962956428528

$$$$
83
                    3D
 Structure written by MMmdl.
155163  0  0  1  0            999 V2000
  -30.6874  -14.6096   20.4791 C   0  0  0  0  0  0
  -30.4108  -12.3739   19.4598 C   0  0  0  0  0  0
  -29.4945  -12.4893   18.2246 C   0  0  0  0  0  0
  -28.0195  -12.3392   18.6390 C   0  0  0  0  0  0
  -27.6439  -13.2279   19.8553 C   0  0  2  0  0  0
  -28.6885  -13.1294   20.9886 C   0  0  0  0  0  0
  -25.2510  -13.8209   20.5700 C   0  0  0  0  0  0
  -24.1792  -13.0459   20.9203 C   0  0  0  0  0  0
  -24.6378  -11.6928   20.8758 C   0  0  0  0  0  0
  -23.9066  -10.4301   21.0400 C   0  0  0  0  0  0
  -24.3620   -9.4217   21.9180 C   0  0  0  0  0  0
  -23.6293   -8.2254   22.0751 C   0  0  0  0  0  0
  -22.4274   -8.0287   21.3534 C   0  0  0  0  0  0
  -21.9910   -9.0262   20.4639 C   0  0  0  0  0  0
  -22.7239  -10.2140   20.3047 C   0  0  0  0  0  0
  -21.6853   -6.0730   22.5274 C   0  0  0  0  0  0
  -21.4016   -6.5634   23.8208 C   0  0  0  0  0  0
  -21.3666   -5.6790   24.9167 C   0  0  0  0  0  0
  -21.6039   -4.3050   24.7217 C   0  0  0  0  0  0
  -21.8829   -3.8141   23.4340 C   0  0  0  0  0  0
  -21.9192   -4.6958   22.3393 C   0  0  0  0  0  0
  -22.7807  -13.5229   21.1863 C   0  0  0  0  0  0
  -22.1659   -4.2142   21.0970 F   0  0  0  0  0  0
  -21.5634   -3.4537   25.7734 F   0  0  0  0  0  0
  -30.0016  -13.4284   20.4093 N   0  0  0  0  0  0
  -26.2939  -12.9410   20.3313 N   0  0  0  0  0  0
  -25.9312  -11.6551   20.5778 N   0  0  0  0  0  0
  -22.0470  -12.8204   22.0419 N   0  0  0  0  0  0
  -25.4211  -15.1935   20.4109 N   0  0  0  0  0  0
  -31.8736  -14.6652   20.1487 O   0  0  0  0  0  0
  -21.6637   -6.8875   21.4230 O   0  0  0  0  0  0
  -22.3486  -14.5530   20.6704 O   0  0  0  0  0  0
  -24.6258  -31.8625   23.2089 C   0  0  0  0  0  0
  -25.9119  -32.4781   23.8389 C   0  0  1  0  0  0
  -27.2050  -27.3313   20.1079 C   0  0  0  0  0  0
  -25.5953  -33.8584   24.2301 N   0  0  0  0  0  0
  -23.4160  -30.4904   21.5526 C   0  0  2  0  0  0
  -24.8568  -28.9582   20.1065 C   0  0  0  0  0  0
  -22.7465  -29.4624   22.4960 C   0  0  0  0  0  0
  -18.0276  -28.1376   22.8463 C   0  0  0  0  0  0
  -24.1502  -36.7295   23.2632 C   0  0  0  0  0  0
  -25.9571  -30.7982   21.3778 C   0  0  0  0  0  0
  -26.0282  -29.4294   20.7124 C   0  0  0  0  0  0
  -27.2072  -28.6266   20.7076 C   0  0  0  0  0  0
  -26.0102  -26.9216   19.4657 C   0  0  0  0  0  0
  -24.8489  -27.7083   19.4766 C   0  0  0  0  0  0
  -23.6253  -29.8367   20.1630 C   0  0  0  0  0  0
  -25.4126  -36.3079   24.0333 C   0  0  1  0  0  0
  -20.5881  -28.3667   23.1287 C   0  0  2  0  0  0
  -20.6782  -26.9401   22.5411 C   0  0  0  0  0  0
  -19.5760  -26.6377   21.5209 C   0  0  0  0  0  0
  -18.1921  -26.7908   22.1606 C   0  0  0  0  0  0
  -19.1533  -28.8836   23.2847 C   0  0  0  0  0  0
  -18.9470  -30.1434   23.8869 C   0  0  0  0  0  0
  -17.6476  -30.6577   24.0550 C   0  0  0  0  0  0
  -25.9069  -34.9446   23.5111 C   0  0  0  0  0  0
  -16.5360  -29.9082   23.6330 C   0  0  0  0  0  0
  -16.7265  -28.6502   23.0339 C   0  0  0  0  0  0
  -26.4508  -31.6578   25.0750 C   0  0  0  0  0  0
  -25.3736  -31.3724   26.1472 C   0  0  0  0  0  0
  -27.0355  -30.3003   24.6200 C   0  0  0  0  0  0
  -27.6074  -32.4311   25.7507 C   0  0  0  0  0  0
  -27.5595  -37.1793   24.8471 C   0  0  0  0  0  0
  -21.4190  -29.3019   22.3695 N   0  0  0  0  0  0
  -26.4297  -37.3785   23.9421 N   0  0  0  0  0  0
  -24.6847  -31.0653   22.1027 N   0  0  0  0  0  0
  -23.4196  -28.8141   23.3009 O   0  0  0  0  0  0
  -28.3041  -26.4606   20.1735 O   0  0  0  0  0  0
  -26.5636  -34.8913   22.4677 O   0  0  0  0  0  0
  -23.5435  -32.1438   23.7431 O   0  0  0  0  0  0
  -28.3747  -20.2078   21.4445 C   0  0  0  0  0  0
  -29.9720  -20.9282   19.8058 C   0  0  0  0  0  0
  -28.8718  -18.8688   21.3883 C   0  0  0  0  0  0
  -29.9366  -18.5213   20.5052 C   0  0  0  0  0  0
  -28.9141  -21.2719   20.6731 C   0  0  0  0  0  0
  -30.4697  -19.5984   19.7219 C   0  0  0  0  0  0
  -28.2487  -17.8460   22.3246 C   0  0  0  0  0  0
  -30.6448  -17.1110   20.4445 C   0  0  0  0  0  0
  -29.0128  -23.8931   20.4917 C   0  0  0  0  0  0
  -27.9889  -25.0215   20.0687 C   0  0  0  0  0  0
  -28.3542  -22.5831   20.7806 N   0  0  0  0  0  0
  -29.9970  -15.7744   20.6826 N   0  0  0  0  0  0
  -31.7910  -19.3487   18.6302 Cl  0  0  0  0  0  0
  -31.4568  -12.4575   19.1607 H   0  0  0  0  0  0
  -30.3129  -11.3917   19.9241 H   0  0  0  0  0  0
  -29.7552  -11.7270   17.4892 H   0  0  0  0  0  0
  -29.6458  -13.4531   17.7366 H   0  0  0  0  0  0
  -27.8550  -11.2885   18.8822 H   0  0  0  0  0  0
  -27.3651  -12.5598   17.7949 H   0  0  0  0  0  0
  -27.6515  -14.2557   19.4929 H   0  0  0  0  0  0
  -28.6907  -12.1320   21.4303 H   0  0  0  0  0  0
  -28.4488  -13.8215   21.7971 H   0  0  0  0  0  0
  -25.2767   -9.5682   22.4753 H   0  0  0  0  0  0
  -23.9995   -7.4638   22.7475 H   0  0  0  0  0  0
  -21.0846   -8.8783   19.8943 H   0  0  0  0  0  0
  -22.3707  -10.9675   19.6156 H   0  0  0  0  0  0
  -21.2015   -7.6144   23.9704 H   0  0  0  0  0  0
  -21.1477   -6.0519   25.9070 H   0  0  0  0  0  0
  -22.0604   -2.7599   23.2842 H   0  0  0  0  0  0
  -22.4092  -11.9857   22.4785 H   0  0  0  0  0  0
  -21.1097  -13.1207   22.2654 H   0  0  0  0  0  0
  -24.6533  -15.8476   20.5161 H   0  0  0  0  0  0
  -26.2652  -15.6296   20.0641 H   0  0  0  0  0  0
  -26.7177  -32.5461   23.1126 H   0  0  0  0  0  0
  -25.0117  -33.9736   25.0460 H   0  0  0  0  0  0
  -22.7078  -31.3111   21.4181 H   0  0  0  0  0  0
  -23.3771  -35.9625   23.3297 H   0  0  0  0  0  0
  -24.3580  -36.8927   22.2047 H   0  0  0  0  0  0
  -23.7243  -37.6489   23.6656 H   0  0  0  0  0  0
  -26.0869  -31.5687   20.6179 H   0  0  0  0  0  0
  -26.8367  -30.8390   22.0081 H   0  0  0  0  0  0
  -28.1017  -28.9758   21.2025 H   0  0  0  0  0  0
  -25.9326  -25.9734   18.9560 H   0  0  0  0  0  0
  -23.9519  -27.3382   18.9963 H   0  0  0  0  0  0
  -23.7409  -30.6202   19.4131 H   0  0  0  0  0  0
  -22.7437  -29.2696   19.8585 H   0  0  0  0  0  0
  -25.1283  -36.1941   25.0825 H   0  0  0  0  0  0
  -20.9923  -28.3260   24.1431 H   0  0  0  0  0  0
  -20.5720  -26.2290   23.3615 H   0  0  0  0  0  0
  -21.6653  -26.7477   22.1184 H   0  0  0  0  0  0
  -19.6966  -25.6298   21.1227 H   0  0  0  0  0  0
  -19.6711  -27.3208   20.6746 H   0  0  0  0  0  0
  -17.4211  -26.6643   21.3986 H   0  0  0  0  0  0
  -18.0297  -26.0070   22.9017 H   0  0  0  0  0  0
  -19.7968  -30.7205   24.2271 H   0  0  0  0  0  0
  -17.5058  -31.6262   24.5129 H   0  0  0  0  0  0
  -15.5362  -30.2966   23.7689 H   0  0  0  0  0  0
  -15.8660  -28.0803   22.7082 H   0  0  0  0  0  0
  -24.5936  -30.7040   25.7810 H   0  0  0  0  0  0
  -24.8890  -32.2888   26.4852 H   0  0  0  0  0  0
  -25.8050  -30.8944   27.0278 H   0  0  0  0  0  0
  -26.2934  -29.6739   24.1237 H   0  0  0  0  0  0
  -27.4073  -29.7266   25.4698 H   0  0  0  0  0  0
  -27.8795  -30.4291   23.9420 H   0  0  0  0  0  0
  -27.2707  -33.3651   26.2022 H   0  0  0  0  0  0
  -28.3902  -32.6805   25.0328 H   0  0  0  0  0  0
  -28.0711  -31.8471   26.5467 H   0  0  0  0  0  0
  -28.2580  -38.0118   24.7527 H   0  0  0  0  0  0
  -28.1107  -36.2638   24.6257 H   0  0  0  0  0  0
  -27.2309  -37.1406   25.8872 H   0  0  0  0  0  0
  -20.9396  -29.8753   21.6903 H   0  0  0  0  0  0
  -26.0190  -38.2868   24.1423 H   0  0  0  0  0  0
  -27.5615  -20.4236   22.1239 H   0  0  0  0  0  0
  -30.4185  -21.6833   19.1750 H   0  0  0  0  0  0
  -27.8658  -18.3284   23.2251 H   0  0  0  0  0  0
  -28.9670  -17.0994   22.6598 H   0  0  0  0  0  0
  -27.4152  -17.3414   21.8347 H   0  0  0  0  0  0
  -31.4924  -17.1797   21.1284 H   0  0  0  0  0  0
  -31.0821  -17.0192   19.4504 H   0  0  0  0  0  0
  -29.5162  -24.2052   21.4057 H   0  0  0  0  0  0
  -29.7883  -23.7887   19.7327 H   0  0  0  0  0  0
  -27.0917  -24.8494   20.6670 H   0  0  0  0  0  0
  -27.7214  -24.8097   19.0329 H   0  0  0  0  0  0
  -27.5337  -22.6590   21.3780 H   0  0  0  0  0  0
  -29.0108  -15.7326   20.8871 H   0  0  0  0  0  0
  1 25  1  0  0  0
  1 30  2  0  0  0
  1 82  1  0  0  0
  2  3  1  0  0  0
  2 25  1  0  0  0
  2 84  1  0  0  0
  2 85  1  0  0  0
  3  4  1  0  0  0
  3 86  1  0  0  0
  3 87  1  0  0  0
  4  5  1  0  0  0
  4 88  1  0  0  0
  4 89  1  0  0  0
  5  6  1  0  0  0
  5 26  1  0  0  0
  5 90  1  0  0  0
  6 25  1  0  0  0
  6 91  1  0  0  0
  6 92  1  0  0  0
  7  8  2  0  0  0
  7 26  1  0  0  0
  7 29  1  0  0  0
  8  9  1  0  0  0
  8 22  1  0  0  0
  9 10  1  0  0  0
  9 27  2  0  0  0
 10 11  2  0  0  0
 10 15  1  0  0  0
 11 12  1  0  0  0
 11 93  1  0  0  0
 12 13  2  0  0  0
 12 94  1  0  0  0
 13 14  1  0  0  0
 13 31  1  0  0  0
 14 15  2  0  0  0
 14 95  1  0  0  0
 15 96  1  0  0  0
 16 17  2  0  0  0
 16 21  1  0  0  0
 16 31  1  0  0  0
 17 18  1  0  0  0
 17 97  1  0  0  0
 18 19  2  0  0  0
 18 98  1  0  0  0
 19 20  1  0  0  0
 19 24  1  0  0  0
 20 21  2  0  0  0
 20 99  1  0  0  0
 21 23  1  0  0  0
 22 28  1  0  0  0
 22 32  2  0  0  0
 26 27  1  0  0  0
 28100  1  0  0  0
 28101  1  0  0  0
 29102  1  0  0  0
 29103  1  0  0  0
 33 34  1  0  0  0
 33 66  1  0  0  0
 33 70  2  0  0  0
 34 36  1  0  0  0
 34 59  1  0  0  0
 34104  1  0  0  0
 35 44  2  0  0  0
 35 45  1  0  0  0
 35 68  1  0  0  0
 36 56  1  0  0  0
 36105  1  0  0  0
 37 39  1  0  0  0
 37 47  1  0  0  0
 37 66  1  0  0  0
 37106  1  0  0  0
 38 43  2  0  0  0
 38 46  1  0  0  0
 38 47  1  0  0  0
 39 64  1  0  0  0
 39 67  2  0  0  0
 40 52  1  0  0  0
 40 53  2  0  0  0
 40 58  1  0  0  0
 41107  1  0  0  0
 41108  1  0  0  0
 41109  1  0  0  0
 41 48  1  0  0  0
 42 43  1  0  0  0
 42 66  1  0  0  0
 42110  1  0  0  0
 42111  1  0  0  0
 43 44  1  0  0  0
 44112  1  0  0  0
 45 46  2  0  0  0
 45113  1  0  0  0
 46114  1  0  0  0
 47115  1  0  0  0
 47116  1  0  0  0
 48 56  1  0  0  0
 48 65  1  0  0  0
 48117  1  0  0  0
 49 50  1  0  0  0
 49 53  1  0  0  0
 49 64  1  0  0  0
 49118  1  0  0  0
 50 51  1  0  0  0
 50119  1  0  0  0
 50120  1  0  0  0
 51 52  1  0  0  0
 51121  1  0  0  0
 51122  1  0  0  0
 52123  1  0  0  0
 52124  1  0  0  0
 53 54  1  0  0  0
 54 55  2  0  0  0
 54125  1  0  0  0
 55 57  1  0  0  0
 55126  1  0  0  0
 56 69  2  0  0  0
 57 58  2  0  0  0
 57127  1  0  0  0
 58128  1  0  0  0
 59 60  1  0  0  0
 59 61  1  0  0  0
 59 62  1  0  0  0
 60129  1  0  0  0
 60130  1  0  0  0
 60131  1  0  0  0
 61132  1  0  0  0
 61133  1  0  0  0
 61134  1  0  0  0
 62135  1  0  0  0
 62136  1  0  0  0
 62137  1  0  0  0
 63 65  1  0  0  0
 63138  1  0  0  0
 63139  1  0  0  0
 63140  1  0  0  0
 64141  1  0  0  0
 65142  1  0  0  0
 68 80  1  0  0  0
 71 73  2  0  0  0
 71 75  1  0  0  0
 71143  1  0  0  0
 72 75  2  0  0  0
 72 76  1  0  0  0
 72144  1  0  0  0
 73 74  1  0  0  0
 73 77  1  0  0  0
 74 76  2  0  0  0
 74 78  1  0  0  0
 75 81  1  0  0  0
 76 83  1  0  0  0
 77145  1  0  0  0
 77146  1  0  0  0
 77147  1  0  0  0
 78 82  1  0  0  0
 78148  1  0  0  0
 78149  1  0  0  0
 79 80  1  0  0  0
 79 81  1  0  0  0
 79150  1  0  0  0
 79151  1  0  0  0
 80152  1  0  0  0
 80153  1  0  0  0
 81154  1  0  0  0
 82155  1  0  0  0
M  ISO  4   1 100  68 101  80 101  82 100
M  END
> <chiral flag>
0

> <version>
0

> <s_m_source_file>
/data/baiqing/PycharmProjects/Reinvent-master-3.2/result/LINK_invent/BTK/process_docking_weight1_custom_product_contain_oxygen_bond_distance_aromatic_linkinvent_7_9_3/rearranged_h_0040.sdf

> <i_m_source_file_index>
84

> <r_mmod_Potential_Energy-OPLS-2005>
58.8367767333984

> <r_mmod_Stretch_Energy-OPLS-2005>
71.9083251953125

> <r_mmod_Bend_Energy-OPLS-2005>
159.192443847656

> <r_mmod_Torsional_Energy-OPLS-2005>
199.917053222656

> <r_mmod_Improper_Torsional_Energy-OPLS-2005>
7.07067489624023

> <r_mmod_Van_der_Waal_Energy-OPLS-2005>
157.727325439453

> <r_mmod_Electrostatic_Energy-OPLS-2005>
-366.756103515625

> <r_mmod_Solvation_Energy-OPLS-2005>
-219.238525390625

> <b_mmod_Minimization_Converged-OPLS-2005>
0

> <r_mmod_RMS_Derivative-OPLS-2005>
2.61353850364685

$$$$
84
                    3D
 Structure written by MMmdl.
158166  0  0  1  0            999 V2000
  -30.6951  -14.4397   20.5562 C   0  0  0  0  0  0
  -30.4223  -12.2750   19.4044 C   0  0  0  0  0  0
  -29.4942  -12.4819   18.1898 C   0  0  0  0  0  0
  -28.0097  -12.3726   18.5975 C   0  0  0  0  0  0
  -27.6647  -13.1945   19.8682 C   0  0  2  0  0  0
  -28.7065  -12.9482   20.9822 C   0  0  0  0  0  0
  -25.2638  -13.8144   20.5654 C   0  0  0  0  0  0
  -24.1872  -13.0443   20.9164 C   0  0  0  0  0  0
  -24.6399  -11.6901   20.8695 C   0  0  0  0  0  0
  -23.9056  -10.4300   21.0389 C   0  0  0  0  0  0
  -24.3612   -9.4218   21.9159 C   0  0  0  0  0  0
  -23.6309   -8.2237   22.0714 C   0  0  0  0  0  0
  -22.4279   -8.0275   21.3529 C   0  0  0  0  0  0
  -21.9922   -9.0247   20.4623 C   0  0  0  0  0  0
  -22.7235  -10.2139   20.3038 C   0  0  0  0  0  0
  -21.6851   -6.0756   22.5295 C   0  0  0  0  0  0
  -21.4015   -6.5653   23.8229 C   0  0  0  0  0  0
  -21.3656   -5.6793   24.9178 C   0  0  0  0  0  0
  -21.6045   -4.3065   24.7226 C   0  0  0  0  0  0
  -21.8819   -3.8157   23.4344 C   0  0  0  0  0  0
  -21.9197   -4.6982   22.3412 C   0  0  0  0  0  0
  -22.7893  -13.5242   21.1847 C   0  0  0  0  0  0
  -22.1662   -4.2173   21.0993 F   0  0  0  0  0  0
  -21.5621   -3.4549   25.7738 F   0  0  0  0  0  0
  -30.0405  -13.2521   20.4349 N   0  0  0  0  0  0
  -26.3042  -12.9274   20.3308 N   0  0  0  0  0  0
  -25.9316  -11.6458   20.5699 N   0  0  0  0  0  0
  -22.0519  -12.8225   22.0389 N   0  0  0  0  0  0
  -25.4419  -15.1856   20.4074 N   0  0  0  0  0  0
  -31.8210  -14.6464   20.0938 O   0  0  0  0  0  0
  -21.6620   -6.8890   21.4250 O   0  0  0  0  0  0
  -22.3598  -14.5567   20.6722 O   0  0  0  0  0  0
  -24.6126  -31.8704   23.2097 C   0  0  0  0  0  0
  -25.9033  -32.4839   23.8388 C   0  0  1  0  0  0
  -27.2413  -27.4574   20.1045 C   0  0  0  0  0  0
  -25.5889  -33.8631   24.2319 N   0  0  0  0  0  0
  -23.4010  -30.4922   21.5489 C   0  0  2  0  0  0
  -24.8525  -28.9576   20.1161 C   0  0  0  0  0  0
  -22.7400  -29.4678   22.4986 C   0  0  0  0  0  0
  -18.0277  -28.1389   22.8489 C   0  0  0  0  0  0
  -24.1488  -36.7317   23.2628 C   0  0  0  0  0  0
  -25.9264  -30.8400   21.3638 C   0  0  0  0  0  0
  -26.0077  -29.4741   20.7182 C   0  0  0  0  0  0
  -27.2052  -28.7269   20.7204 C   0  0  0  0  0  0
  -26.0804  -26.9539   19.4858 C   0  0  0  0  0  0
  -24.8811  -27.6933   19.5001 C   0  0  0  0  0  0
  -23.6111  -29.8194   20.1652 C   0  0  0  0  0  0
  -25.4103  -36.3119   24.0337 C   0  0  1  0  0  0
  -20.5863  -28.3674   23.1317 C   0  0  2  0  0  0
  -20.6767  -26.9409   22.5424 C   0  0  0  0  0  0
  -19.5759  -26.6393   21.5211 C   0  0  0  0  0  0
  -18.1933  -26.7935   22.1611 C   0  0  0  0  0  0
  -19.1523  -28.8849   23.2902 C   0  0  0  0  0  0
  -18.9462  -30.1447   23.8916 C   0  0  0  0  0  0
  -17.6464  -30.6596   24.0570 C   0  0  0  0  0  0
  -25.9039  -34.9486   23.5127 C   0  0  0  0  0  0
  -16.5348  -29.9093   23.6323 C   0  0  0  0  0  0
  -16.7270  -28.6509   23.0342 C   0  0  0  0  0  0
  -26.4464  -31.6613   25.0710 C   0  0  0  0  0  0
  -25.3738  -31.3735   26.1468 C   0  0  0  0  0  0
  -27.0268  -30.3048   24.6076 C   0  0  0  0  0  0
  -27.6058  -32.4318   25.7461 C   0  0  0  0  0  0
  -27.5603  -37.1784   24.8434 C   0  0  0  0  0  0
  -21.4129  -29.3042   22.3720 N   0  0  0  0  0  0
  -26.4280  -37.3817   23.9436 N   0  0  0  0  0  0
  -24.6643  -31.0816   22.0996 N   0  0  0  0  0  0
  -23.4176  -28.8220   23.3028 O   0  0  0  0  0  0
  -28.3768  -26.6846   20.0993 O   0  0  0  0  0  0
  -26.5610  -34.8939   22.4693 O   0  0  0  0  0  0
  -23.5332  -32.1445   23.7506 O   0  0  0  0  0  0
  -29.9904  -19.5469   20.0821 C   0  0  0  0  0  0
  -29.6891  -18.5816   19.1115 C   0  0  0  0  0  0
  -30.3070  -19.1707   21.4059 C   0  0  0  0  0  0
  -30.3755  -17.7845   21.7344 C   0  0  0  0  0  0
  -30.0451  -16.8018   20.7545 C   0  0  0  0  0  0
  -29.6868  -17.2184   19.4427 C   0  0  0  0  0  0
  -29.3286  -23.7248   21.7475 C   0  0  0  0  0  0
  -29.6281  -24.9579   21.2863 C   0  0  0  0  0  0
  -30.2770  -22.6250   21.6500 C   0  0  0  0  0  0
  -30.7998  -17.3607   23.1378 C   0  0  0  0  0  0
  -30.5674  -20.2621   22.4574 C   0  0  0  0  0  0
  -28.7059  -26.1625   21.3870 C   0  0  0  0  0  0
  -29.9671  -15.4220   21.1108 N   0  0  0  0  0  0
  -29.8302  -21.5170   22.2583 N   0  0  0  0  0  0
  -31.3728  -22.6776   21.0875 O   0  0  0  0  0  0
  -29.1886  -16.1156   18.2093 Cl  0  0  0  0  0  0
  -31.4677  -12.3648   19.1032 H   0  0  0  0  0  0
  -30.3091  -11.2598   19.7902 H   0  0  0  0  0  0
  -29.7172  -11.7481   17.4140 H   0  0  0  0  0  0
  -29.6872  -13.4543   17.7351 H   0  0  0  0  0  0
  -27.7920  -11.3169   18.7661 H   0  0  0  0  0  0
  -27.3707  -12.6810   17.7692 H   0  0  0  0  0  0
  -27.7111  -14.2448   19.5870 H   0  0  0  0  0  0
  -28.6765  -11.9023   21.2956 H   0  0  0  0  0  0
  -28.4686  -13.5235   21.8776 H   0  0  0  0  0  0
  -25.2757   -9.5706   22.4744 H   0  0  0  0  0  0
  -24.0040   -7.4616   22.7406 H   0  0  0  0  0  0
  -21.0862   -8.8759   19.8926 H   0  0  0  0  0  0
  -22.3681  -10.9674   19.6143 H   0  0  0  0  0  0
  -21.2009   -7.6160   23.9762 H   0  0  0  0  0  0
  -21.1467   -6.0500   25.9093 H   0  0  0  0  0  0
  -22.0611   -2.7622   23.2822 H   0  0  0  0  0  0
  -22.4110  -11.9874   22.4779 H   0  0  0  0  0  0
  -21.1130  -13.1240   22.2580 H   0  0  0  0  0  0
  -24.6736  -15.8412   20.4956 H   0  0  0  0  0  0
  -26.3010  -15.6207   20.0943 H   0  0  0  0  0  0
  -26.7103  -32.5567   23.1156 H   0  0  0  0  0  0
  -25.0027  -33.9790   25.0456 H   0  0  0  0  0  0
  -22.6898  -31.3084   21.4069 H   0  0  0  0  0  0
  -23.3771  -35.9626   23.3256 H   0  0  0  0  0  0
  -24.3604  -36.8966   22.2050 H   0  0  0  0  0  0
  -23.7209  -37.6497   23.6665 H   0  0  0  0  0  0
  -26.0372  -31.6041   20.5934 H   0  0  0  0  0  0
  -26.8153  -30.8970   21.9797 H   0  0  0  0  0  0
  -28.0952  -29.1208   21.1915 H   0  0  0  0  0  0
  -26.1021  -25.9841   19.0092 H   0  0  0  0  0  0
  -23.9924  -27.2879   19.0357 H   0  0  0  0  0  0
  -23.7142  -30.5895   19.3999 H   0  0  0  0  0  0
  -22.7386  -29.2321   19.8747 H   0  0  0  0  0  0
  -25.1272  -36.1968   25.0828 H   0  0  0  0  0  0
  -20.9971  -28.3258   24.1431 H   0  0  0  0  0  0
  -20.5674  -26.2287   23.3613 H   0  0  0  0  0  0
  -21.6643  -26.7460   22.1230 H   0  0  0  0  0  0
  -19.6927  -25.6311   21.1230 H   0  0  0  0  0  0
  -19.6707  -27.3206   20.6744 H   0  0  0  0  0  0
  -17.4214  -26.6704   21.3998 H   0  0  0  0  0  0
  -18.0319  -26.0068   22.8994 H   0  0  0  0  0  0
  -19.7941  -30.7251   24.2303 H   0  0  0  0  0  0
  -17.5028  -31.6272   24.5164 H   0  0  0  0  0  0
  -15.5358  -30.3003   23.7644 H   0  0  0  0  0  0
  -15.8665  -28.0832   22.7046 H   0  0  0  0  0  0
  -24.5898  -30.7096   25.7805 H   0  0  0  0  0  0
  -24.8943  -32.2904   26.4909 H   0  0  0  0  0  0
  -25.8097  -30.8903   27.0222 H   0  0  0  0  0  0
  -26.2792  -29.6841   24.1126 H   0  0  0  0  0  0
  -27.4018  -29.7256   25.4522 H   0  0  0  0  0  0
  -27.8645  -30.4341   23.9220 H   0  0  0  0  0  0
  -27.2693  -33.3600   26.2085 H   0  0  0  0  0  0
  -28.3842  -32.6914   25.0276 H   0  0  0  0  0  0
  -28.0764  -31.8420   26.5333 H   0  0  0  0  0  0
  -28.2547  -38.0157   24.7621 H   0  0  0  0  0  0
  -28.1173  -36.2705   24.6071 H   0  0  0  0  0  0
  -27.2358  -37.1209   25.8839 H   0  0  0  0  0  0
  -20.9295  -29.8732   21.6907 H   0  0  0  0  0  0
  -26.0168  -38.2877   24.1517 H   0  0  0  0  0  0
  -29.9624  -20.5856   19.7872 H   0  0  0  0  0  0
  -29.4235  -18.8881   18.1098 H   0  0  0  0  0  0
  -28.3633  -23.5596   22.2034 H   0  0  0  0  0  0
  -30.5866  -25.1456   20.8224 H   0  0  0  0  0  0
  -31.6617  -17.9434   23.4679 H   0  0  0  0  0  0
  -31.0978  -16.3151   23.2020 H   0  0  0  0  0  0
  -29.9824  -17.5286   23.8404 H   0  0  0  0  0  0
  -31.6406  -20.4482   22.5349 H   0  0  0  0  0  0
  -30.2619  -19.9014   23.4399 H   0  0  0  0  0  0
  -29.2000  -26.9299   21.9844 H   0  0  0  0  0  0
  -27.8027  -25.8758   21.9305 H   0  0  0  0  0  0
  -29.0907  -15.1228   21.5083 H   0  0  0  0  0  0
  -28.9236  -21.5703   22.7021 H   0  0  0  0  0  0
  1 25  1  0  0  0
  1 30  2  0  0  0
  1 83  1  0  0  0
  2  3  1  0  0  0
  2 25  1  0  0  0
  2 87  1  0  0  0
  2 88  1  0  0  0
  3  4  1  0  0  0
  3 89  1  0  0  0
  3 90  1  0  0  0
  4  5  1  0  0  0
  4 91  1  0  0  0
  4 92  1  0  0  0
  5  6  1  0  0  0
  5 26  1  0  0  0
  5 93  1  0  0  0
  6 25  1  0  0  0
  6 94  1  0  0  0
  6 95  1  0  0  0
  7  8  2  0  0  0
  7 26  1  0  0  0
  7 29  1  0  0  0
  8  9  1  0  0  0
  8 22  1  0  0  0
  9 10  1  0  0  0
  9 27  2  0  0  0
 10 11  2  0  0  0
 10 15  1  0  0  0
 11 12  1  0  0  0
 11 96  1  0  0  0
 12 13  2  0  0  0
 12 97  1  0  0  0
 13 14  1  0  0  0
 13 31  1  0  0  0
 14 15  2  0  0  0
 14 98  1  0  0  0
 15 99  1  0  0  0
 16 17  2  0  0  0
 16 21  1  0  0  0
 16 31  1  0  0  0
 17 18  1  0  0  0
 17100  1  0  0  0
 18 19  2  0  0  0
 18101  1  0  0  0
 19 20  1  0  0  0
 19 24  1  0  0  0
 20 21  2  0  0  0
 20102  1  0  0  0
 21 23  1  0  0  0
 22 28  1  0  0  0
 22 32  2  0  0  0
 26 27  1  0  0  0
 28103  1  0  0  0
 28104  1  0  0  0
 29105  1  0  0  0
 29106  1  0  0  0
 33 34  1  0  0  0
 33 66  1  0  0  0
 33 70  2  0  0  0
 34 36  1  0  0  0
 34 59  1  0  0  0
 34107  1  0  0  0
 35 44  2  0  0  0
 35 45  1  0  0  0
 35 68  1  0  0  0
 36 56  1  0  0  0
 36108  1  0  0  0
 37 39  1  0  0  0
 37 47  1  0  0  0
 37 66  1  0  0  0
 37109  1  0  0  0
 38 43  2  0  0  0
 38 46  1  0  0  0
 38 47  1  0  0  0
 39 64  1  0  0  0
 39 67  2  0  0  0
 40 52  1  0  0  0
 40 53  2  0  0  0
 40 58  1  0  0  0
 41110  1  0  0  0
 41111  1  0  0  0
 41112  1  0  0  0
 41 48  1  0  0  0
 42 43  1  0  0  0
 42 66  1  0  0  0
 42113  1  0  0  0
 42114  1  0  0  0
 43 44  1  0  0  0
 44115  1  0  0  0
 45 46  2  0  0  0
 45116  1  0  0  0
 46117  1  0  0  0
 47118  1  0  0  0
 47119  1  0  0  0
 48 56  1  0  0  0
 48 65  1  0  0  0
 48120  1  0  0  0
 49 50  1  0  0  0
 49 53  1  0  0  0
 49 64  1  0  0  0
 49121  1  0  0  0
 50 51  1  0  0  0
 50122  1  0  0  0
 50123  1  0  0  0
 51 52  1  0  0  0
 51124  1  0  0  0
 51125  1  0  0  0
 52126  1  0  0  0
 52127  1  0  0  0
 53 54  1  0  0  0
 54 55  2  0  0  0
 54128  1  0  0  0
 55 57  1  0  0  0
 55129  1  0  0  0
 56 69  2  0  0  0
 57 58  2  0  0  0
 57130  1  0  0  0
 58131  1  0  0  0
 59 60  1  0  0  0
 59 61  1  0  0  0
 59 62  1  0  0  0
 60132  1  0  0  0
 60133  1  0  0  0
 60134  1  0  0  0
 61135  1  0  0  0
 61136  1  0  0  0
 61137  1  0  0  0
 62138  1  0  0  0
 62139  1  0  0  0
 62140  1  0  0  0
 63 65  1  0  0  0
 63141  1  0  0  0
 63142  1  0  0  0
 63143  1  0  0  0
 64144  1  0  0  0
 65145  1  0  0  0
 68 82  1  0  0  0
 71 72  2  0  0  0
 71 73  1  0  0  0
 71146  1  0  0  0
 72 76  1  0  0  0
 72147  1  0  0  0
 73 74  2  0  0  0
 73 81  1  0  0  0
 74 75  1  0  0  0
 74 80  1  0  0  0
 75 76  2  0  0  0
 75 83  1  0  0  0
 76 86  1  0  0  0
 77 78  2  0  0  0
 77 79  1  0  0  0
 77148  1  0  0  0
 78 82  1  0  0  0
 78149  1  0  0  0
 79 84  1  0  0  0
 79 85  2  0  0  0
 80150  1  0  0  0
 80151  1  0  0  0
 80152  1  0  0  0
 81 84  1  0  0  0
 81153  1  0  0  0
 81154  1  0  0  0
 82155  1  0  0  0
 82156  1  0  0  0
 83157  1  0  0  0
 84158  1  0  0  0
M  ISO  4   1 100  68 101  82 101  83 100
M  END
> <chiral flag>
0

> <version>
0

> <s_m_source_file>
/data/baiqing/PycharmProjects/Reinvent-master-3.2/result/LINK_invent/BTK/process_docking_weight1_custom_product_contain_oxygen_bond_distance_aromatic_linkinvent_7_9_3/rearranged_h_0040.sdf

> <i_m_source_file_index>
85

> <r_mmod_Potential_Energy-OPLS-2005>
-199.21012878418

> <r_mmod_Stretch_Energy-OPLS-2005>
36.7408332824707

> <r_mmod_Bend_Energy-OPLS-2005>
87.8788986206055

> <r_mmod_Torsional_Energy-OPLS-2005>
251.808746337891

> <r_mmod_Improper_Torsional_Energy-OPLS-2005>
5.03295564651489

> <r_mmod_Van_der_Waal_Energy-OPLS-2005>
156.832794189453

> <r_mmod_Electrostatic_Energy-OPLS-2005>
-509.379089355469

> <r_mmod_Solvation_Energy-OPLS-2005>
-238.800643920898

> <b_mmod_Minimization_Converged-OPLS-2005>
0

> <r_mmod_RMS_Derivative-OPLS-2005>
3.07362794876099

$$$$
85
                    3D
 Structure written by MMmdl.
165173  0  0  1  0            999 V2000
  -30.6690  -14.5713   20.4454 C   0  0  0  0  0  0
  -30.4069  -12.3483   19.4594 C   0  0  0  0  0  0
  -29.4889  -12.5050   18.2321 C   0  0  0  0  0  0
  -28.0164  -12.3215   18.6385 C   0  0  0  0  0  0
  -27.6373  -13.2056   19.8519 C   0  0  2  0  0  0
  -28.6743  -13.1127   20.9895 C   0  0  0  0  0  0
  -25.2414  -13.8102   20.5509 C   0  0  0  0  0  0
  -24.1723  -13.0355   20.9176 C   0  0  0  0  0  0
  -24.6311  -11.6871   20.8699 C   0  0  0  0  0  0
  -23.9001  -10.4269   21.0366 C   0  0  0  0  0  0
  -24.3599   -9.4230   21.9152 C   0  0  0  0  0  0
  -23.6331   -8.2230   22.0667 C   0  0  0  0  0  0
  -22.4301   -8.0259   21.3484 C   0  0  0  0  0  0
  -21.9910   -9.0216   20.4575 C   0  0  0  0  0  0
  -22.7167  -10.2136   20.3027 C   0  0  0  0  0  0
  -21.6874   -6.0751   22.5278 C   0  0  0  0  0  0
  -21.4019   -6.5635   23.8215 C   0  0  0  0  0  0
  -21.3664   -5.6790   24.9190 C   0  0  0  0  0  0
  -21.6058   -4.3049   24.7242 C   0  0  0  0  0  0
  -21.8825   -3.8145   23.4354 C   0  0  0  0  0  0
  -21.9210   -4.6971   22.3411 C   0  0  0  0  0  0
  -22.7802  -13.5182   21.1926 C   0  0  0  0  0  0
  -22.1686   -4.2146   21.0998 F   0  0  0  0  0  0
  -21.5650   -3.4535   25.7757 F   0  0  0  0  0  0
  -30.0085  -13.3823   20.4258 N   0  0  0  0  0  0
  -26.2865  -12.9278   20.3233 N   0  0  0  0  0  0
  -25.9231  -11.6461   20.5742 N   0  0  0  0  0  0
  -22.0505  -12.8090   22.0467 N   0  0  0  0  0  0
  -25.3989  -15.1804   20.3776 N   0  0  0  0  0  0
  -31.8484  -14.6769   20.1156 O   0  0  0  0  0  0
  -21.6617   -6.8890   21.4241 O   0  0  0  0  0  0
  -22.3509  -14.5563   20.6918 O   0  0  0  0  0  0
  -24.6204  -31.8715   23.2125 C   0  0  0  0  0  0
  -25.9105  -32.4847   23.8395 C   0  0  1  0  0  0
  -27.2099  -27.4115   20.0820 C   0  0  0  0  0  0
  -25.5926  -33.8639   24.2322 N   0  0  0  0  0  0
  -23.4015  -30.5148   21.5543 C   0  0  2  0  0  0
  -24.8342  -28.9746   20.1047 C   0  0  0  0  0  0
  -22.7392  -29.4828   22.4999 C   0  0  0  0  0  0
  -18.0324  -28.1375   22.8578 C   0  0  0  0  0  0
  -24.1488  -36.7305   23.2638 C   0  0  0  0  0  0
  -25.9347  -30.8270   21.3646 C   0  0  0  0  0  0
  -26.0006  -29.4661   20.6990 C   0  0  0  0  0  0
  -27.1854  -28.6954   20.6806 C   0  0  0  0  0  0
  -26.0173  -26.9351   19.4895 C   0  0  0  0  0  0
  -24.8389  -27.7075   19.5016 C   0  0  0  0  0  0
  -23.5978  -29.8484   20.1672 C   0  0  0  0  0  0
  -25.4116  -36.3128   24.0341 C   0  0  1  0  0  0
  -20.5904  -28.3763   23.1211 C   0  0  2  0  0  0
  -20.7054  -26.9774   22.4609 C   0  0  0  0  0  0
  -19.5609  -26.6328   21.5092 C   0  0  0  0  0  0
  -18.1930  -26.7995   22.1614 C   0  0  0  0  0  0
  -19.1568  -28.8858   23.2889 C   0  0  0  0  0  0
  -18.9518  -30.1511   23.8805 C   0  0  0  0  0  0
  -17.6528  -30.6694   24.0359 C   0  0  0  0  0  0
  -25.9056  -34.9499   23.5123 C   0  0  0  0  0  0
  -16.5402  -29.9103   23.6317 C   0  0  0  0  0  0
  -16.7302  -28.6426   23.0544 C   0  0  0  0  0  0
  -26.4507  -31.6617   25.0727 C   0  0  0  0  0  0
  -25.3756  -31.3657   26.1444 C   0  0  0  0  0  0
  -27.0319  -30.3059   24.6120 C   0  0  0  0  0  0
  -27.6108  -32.4310   25.7464 C   0  0  0  0  0  0
  -27.5582  -37.1818   24.8483 C   0  0  0  0  0  0
  -21.4080  -29.3488   22.4067 N   0  0  0  0  0  0
  -26.4296  -37.3832   23.9416 N   0  0  0  0  0  0
  -24.6703  -31.0841   22.1010 N   0  0  0  0  0  0
  -23.4234  -28.8016   23.2679 O   0  0  0  0  0  0
  -28.3925  -26.6901   20.1025 O   0  0  0  0  0  0
  -26.5644  -34.8937   22.4693 O   0  0  0  0  0  0
  -23.5425  -32.1451   23.7554 O   0  0  0  0  0  0
  -27.0494  -18.8589   19.3614 C   0  0  0  0  0  0
  -28.1421  -17.9895   19.1849 C   0  0  0  0  0  0
  -27.1339  -19.9528   20.2309 C   0  0  0  0  0  0
  -29.5123  -19.4606   20.5403 C   0  0  0  0  0  0
  -29.3139  -18.1604   19.9627 C   0  0  0  0  0  0
  -28.4096  -20.3797   20.6763 C   0  0  0  0  0  0
  -28.0509  -16.9505   18.0795 C   0  0  0  0  0  0
  -25.8198  -20.6127   20.6327 C   0  0  0  0  0  0
  -30.9290  -19.8604   20.9327 C   0  0  0  0  0  0
  -30.3674  -17.0196   20.0563 C   0  0  0  0  0  0
  -28.5366  -21.8123   21.2516 C   0  0  0  0  0  0
  -28.0673  -24.2380   20.6400 C   0  0  0  0  0  0
  -28.4613  -25.3344   19.6084 C   0  0  0  0  0  0
  -29.9044  -15.6915   20.5446 N   0  0  0  0  0  0
  -28.4071  -22.8475   20.1917 N   0  3  0  0  0  0
  -31.4465  -12.4479   19.1382 H   0  0  0  0  0  0
  -30.3195  -11.3597   19.9130 H   0  0  0  0  0  0
  -29.7692  -11.8027   17.4469 H   0  0  0  0  0  0
  -29.6197  -13.5042   17.8156 H   0  0  0  0  0  0
  -27.8693  -11.2728   18.8874 H   0  0  0  0  0  0
  -27.3629  -12.5332   17.7908 H   0  0  0  0  0  0
  -27.6417  -14.2287   19.4952 H   0  0  0  0  0  0
  -28.6440  -12.1254   21.4536 H   0  0  0  0  0  0
  -28.4220  -13.8317   21.7689 H   0  0  0  0  0  0
  -25.2730   -9.5787   22.4759 H   0  0  0  0  0  0
  -24.0074   -7.4611   22.7325 H   0  0  0  0  0  0
  -21.0875   -8.8757   19.8847 H   0  0  0  0  0  0
  -22.3568  -10.9741   19.6217 H   0  0  0  0  0  0
  -21.1972   -7.6126   23.9753 H   0  0  0  0  0  0
  -21.1468   -6.0483   25.9103 H   0  0  0  0  0  0
  -22.0578   -2.7599   23.2849 H   0  0  0  0  0  0
  -22.4269  -11.9865   22.4911 H   0  0  0  0  0  0
  -21.1098  -13.1031   22.2641 H   0  0  0  0  0  0
  -24.5984  -15.7997   20.4535 H   0  0  0  0  0  0
  -26.2162  -15.6363   19.9928 H   0  0  0  0  0  0
  -26.7135  -32.5559   23.1110 H   0  0  0  0  0  0
  -25.0069  -33.9812   25.0462 H   0  0  0  0  0  0
  -22.7044  -31.3466   21.4247 H   0  0  0  0  0  0
  -23.3769  -35.9622   23.3326 H   0  0  0  0  0  0
  -24.3571  -36.8910   22.2053 H   0  0  0  0  0  0
  -23.7231  -37.6501   23.6640 H   0  0  0  0  0  0
  -26.0713  -31.6055   20.6087 H   0  0  0  0  0  0
  -26.8171  -30.8601   21.9884 H   0  0  0  0  0  0
  -28.0833  -29.0872   21.1358 H   0  0  0  0  0  0
  -25.9553  -25.9689   19.0134 H   0  0  0  0  0  0
  -23.9343  -27.3209   19.0486 H   0  0  0  0  0  0
  -23.6790  -30.6203   19.4023 H   0  0  0  0  0  0
  -22.7174  -29.2629   19.8988 H   0  0  0  0  0  0
  -25.1296  -36.1983   25.0848 H   0  0  0  0  0  0
  -20.9966  -28.2957   24.1313 H   0  0  0  0  0  0
  -20.7508  -26.2174   23.2409 H   0  0  0  0  0  0
  -21.6463  -26.8740   21.9128 H   0  0  0  0  0  0
  -19.6692  -25.6010   21.1726 H   0  0  0  0  0  0
  -19.6335  -27.2601   20.6206 H   0  0  0  0  0  0
  -17.4190  -26.6848   21.3984 H   0  0  0  0  0  0
  -18.0290  -26.0071   22.8857 H   0  0  0  0  0  0
  -19.8035  -30.7333   24.2079 H   0  0  0  0  0  0
  -17.5125  -31.6508   24.4697 H   0  0  0  0  0  0
  -15.5377  -30.2977   23.7568 H   0  0  0  0  0  0
  -15.8710  -28.0599   22.7472 H   0  0  0  0  0  0
  -24.5987  -30.6975   25.7709 H   0  0  0  0  0  0
  -24.8881  -32.2777   26.4900 H   0  0  0  0  0  0
  -25.8105  -30.8789   27.0192 H   0  0  0  0  0  0
  -26.2849  -29.6781   24.1259 H   0  0  0  0  0  0
  -27.4154  -29.7341   25.4582 H   0  0  0  0  0  0
  -27.8662  -30.4350   23.9223 H   0  0  0  0  0  0
  -27.2788  -33.3614   26.2069 H   0  0  0  0  0  0
  -28.3877  -32.6868   25.0250 H   0  0  0  0  0  0
  -28.0808  -31.8414   26.5340 H   0  0  0  0  0  0
  -28.2636  -38.0085   24.7533 H   0  0  0  0  0  0
  -28.1037  -36.2627   24.6299 H   0  0  0  0  0  0
  -27.2300  -37.1477   25.8888 H   0  0  0  0  0  0
  -20.9045  -29.9986   21.8152 H   0  0  0  0  0  0
  -26.0170  -38.2903   24.1422 H   0  0  0  0  0  0
  -26.1091  -18.6885   18.8482 H   0  0  0  0  0  0
  -28.2763  -15.9456   18.4125 H   0  0  0  0  0  0
  -28.7632  -17.1987   17.2904 H   0  0  0  0  0  0
  -27.0630  -16.9586   17.6121 H   0  0  0  0  0  0
  -25.3852  -21.2180   19.8390 H   0  0  0  0  0  0
  -25.8721  -21.1781   21.5643 H   0  0  0  0  0  0
  -25.1270  -19.7995   20.8652 H   0  0  0  0  0  0
  -31.1717  -19.5600   21.9535 H   0  0  0  0  0  0
  -31.1003  -20.9268   20.8141 H   0  0  0  0  0  0
  -31.6543  -19.3939   20.2632 H   0  0  0  0  0  0
  -30.7805  -16.8899   19.0556 H   0  0  0  0  0  0
  -31.2091  -17.3006   20.6873 H   0  0  0  0  0  0
  -29.4729  -21.9610   21.7859 H   0  0  0  0  0  0
  -27.7631  -21.9882   22.0010 H   0  0  0  0  0  0
  -26.9999  -24.2958   20.8632 H   0  0  0  0  0  0
  -28.5786  -24.4774   21.5756 H   0  0  0  0  0  0
  -27.9323  -25.2124   18.6653 H   0  0  0  0  0  0
  -29.5091  -25.1941   19.3575 H   0  0  0  0  0  0
  -28.9534  -15.6113   20.8756 H   0  0  0  0  0  0
  -27.6887  -22.5184   19.5666 H   0  0  0  0  0  0
  -29.2760  -22.8486   19.6779 H   0  0  0  0  0  0
  1 25  1  0  0  0
  1 30  2  0  0  0
  1 84  1  0  0  0
  2  3  1  0  0  0
  2 25  1  0  0  0
  2 86  1  0  0  0
  2 87  1  0  0  0
  3  4  1  0  0  0
  3 88  1  0  0  0
  3 89  1  0  0  0
  4  5  1  0  0  0
  4 90  1  0  0  0
  4 91  1  0  0  0
  5  6  1  0  0  0
  5 26  1  0  0  0
  5 92  1  0  0  0
  6 25  1  0  0  0
  6 93  1  0  0  0
  6 94  1  0  0  0
  7  8  2  0  0  0
  7 26  1  0  0  0
  7 29  1  0  0  0
  8  9  1  0  0  0
  8 22  1  0  0  0
  9 10  1  0  0  0
  9 27  2  0  0  0
 10 11  2  0  0  0
 10 15  1  0  0  0
 11 12  1  0  0  0
 11 95  1  0  0  0
 12 13  2  0  0  0
 12 96  1  0  0  0
 13 14  1  0  0  0
 13 31  1  0  0  0
 14 15  2  0  0  0
 14 97  1  0  0  0
 15 98  1  0  0  0
 16 17  2  0  0  0
 16 21  1  0  0  0
 16 31  1  0  0  0
 17 18  1  0  0  0
 17 99  1  0  0  0
 18 19  2  0  0  0
 18100  1  0  0  0
 19 20  1  0  0  0
 19 24  1  0  0  0
 20 21  2  0  0  0
 20101  1  0  0  0
 21 23  1  0  0  0
 22 28  1  0  0  0
 22 32  2  0  0  0
 26 27  1  0  0  0
 28102  1  0  0  0
 28103  1  0  0  0
 29104  1  0  0  0
 29105  1  0  0  0
 33 34  1  0  0  0
 33 66  1  0  0  0
 33 70  2  0  0  0
 34 36  1  0  0  0
 34 59  1  0  0  0
 34106  1  0  0  0
 35 44  2  0  0  0
 35 45  1  0  0  0
 35 68  1  0  0  0
 36 56  1  0  0  0
 36107  1  0  0  0
 37 39  1  0  0  0
 37 47  1  0  0  0
 37 66  1  0  0  0
 37108  1  0  0  0
 38 43  2  0  0  0
 38 46  1  0  0  0
 38 47  1  0  0  0
 39 64  1  0  0  0
 39 67  2  0  0  0
 40 52  1  0  0  0
 40 53  2  0  0  0
 40 58  1  0  0  0
 41109  1  0  0  0
 41110  1  0  0  0
 41111  1  0  0  0
 41 48  1  0  0  0
 42 43  1  0  0  0
 42 66  1  0  0  0
 42112  1  0  0  0
 42113  1  0  0  0
 43 44  1  0  0  0
 44114  1  0  0  0
 45 46  2  0  0  0
 45115  1  0  0  0
 46116  1  0  0  0
 47117  1  0  0  0
 47118  1  0  0  0
 48 56  1  0  0  0
 48 65  1  0  0  0
 48119  1  0  0  0
 49 50  1  0  0  0
 49 53  1  0  0  0
 49 64  1  0  0  0
 49120  1  0  0  0
 50 51  1  0  0  0
 50121  1  0  0  0
 50122  1  0  0  0
 51 52  1  0  0  0
 51123  1  0  0  0
 51124  1  0  0  0
 52125  1  0  0  0
 52126  1  0  0  0
 53 54  1  0  0  0
 54 55  2  0  0  0
 54127  1  0  0  0
 55 57  1  0  0  0
 55128  1  0  0  0
 56 69  2  0  0  0
 57 58  2  0  0  0
 57129  1  0  0  0
 58130  1  0  0  0
 59 60  1  0  0  0
 59 61  1  0  0  0
 59 62  1  0  0  0
 60131  1  0  0  0
 60132  1  0  0  0
 60133  1  0  0  0
 61134  1  0  0  0
 61135  1  0  0  0
 61136  1  0  0  0
 62137  1  0  0  0
 62138  1  0  0  0
 62139  1  0  0  0
 63 65  1  0  0  0
 63140  1  0  0  0
 63141  1  0  0  0
 63142  1  0  0  0
 64143  1  0  0  0
 65144  1  0  0  0
 68 83  1  0  0  0
 71 72  2  0  0  0
 71 73  1  0  0  0
 71145  1  0  0  0
 72 75  1  0  0  0
 72 77  1  0  0  0
 73 76  2  0  0  0
 73 78  1  0  0  0
 74 75  2  0  0  0
 74 76  1  0  0  0
 74 79  1  0  0  0
 75 80  1  0  0  0
 76 81  1  0  0  0
 77146  1  0  0  0
 77147  1  0  0  0
 77148  1  0  0  0
 78149  1  0  0  0
 78150  1  0  0  0
 78151  1  0  0  0
 79152  1  0  0  0
 79153  1  0  0  0
 79154  1  0  0  0
 80 84  1  0  0  0
 80155  1  0  0  0
 80156  1  0  0  0
 81 85  1  0  0  0
 81157  1  0  0  0
 81158  1  0  0  0
 82 83  1  0  0  0
 82 85  1  0  0  0
 82159  1  0  0  0
 82160  1  0  0  0
 83161  1  0  0  0
 83162  1  0  0  0
 84163  1  0  0  0
 85164  1  0  0  0
 85165  1  0  0  0
M  CHG  1  85   1
M  ISO  4   1 100  68 101  83 101  84 100
M  END
> <chiral flag>
0

> <version>
0

> <s_m_source_file>
/data/baiqing/PycharmProjects/Reinvent-master-3.2/result/LINK_invent/BTK/process_docking_weight1_custom_product_contain_oxygen_bond_distance_aromatic_linkinvent_7_9_3/rearranged_h_0040.sdf

> <i_m_source_file_index>
86

> <r_mmod_Potential_Energy-OPLS-2005>
-176.116073608398

> <r_mmod_Stretch_Energy-OPLS-2005>
49.3616371154785

> <r_mmod_Bend_Energy-OPLS-2005>
119.556137084961

> <r_mmod_Torsional_Energy-OPLS-2005>
249.754348754883

> <r_mmod_Improper_Torsional_Energy-OPLS-2005>
8.72741413116455

> <r_mmod_Van_der_Waal_Energy-OPLS-2005>
153.964859008789

> <r_mmod_Electrostatic_Energy-OPLS-2005>
-352.875183105469

> <r_mmod_Solvation_Energy-OPLS-2005>
-435.90478515625

> <b_mmod_Minimization_Converged-OPLS-2005>
0

> <r_mmod_RMS_Derivative-OPLS-2005>
10.5474948883057

$$$$
86
                    3D
 Structure written by MMmdl.
155163  0  0  1  0            999 V2000
  -30.6277  -14.5600   20.5589 C   0  0  0  0  0  0
  -30.4281  -12.3593   19.4291 C   0  0  0  0  0  0
  -29.4984  -12.5091   18.2056 C   0  0  0  0  0  0
  -28.0140  -12.3740   18.6089 C   0  0  0  0  0  0
  -27.6488  -13.2124   19.8640 C   0  0  2  0  0  0
  -28.6890  -13.0157   20.9863 C   0  0  0  0  0  0
  -25.2517  -13.8174   20.5639 C   0  0  0  0  0  0
  -24.1793  -13.0432   20.9194 C   0  0  0  0  0  0
  -24.6363  -11.6904   20.8736 C   0  0  0  0  0  0
  -23.9047  -10.4290   21.0391 C   0  0  0  0  0  0
  -24.3604   -9.4216   21.9175 C   0  0  0  0  0  0
  -23.6288   -8.2246   22.0738 C   0  0  0  0  0  0
  -22.4270   -8.0274   21.3531 C   0  0  0  0  0  0
  -21.9901   -9.0247   20.4637 C   0  0  0  0  0  0
  -22.7217  -10.2132   20.3052 C   0  0  0  0  0  0
  -21.6861   -6.0731   22.5279 C   0  0  0  0  0  0
  -21.4017   -6.5638   23.8209 C   0  0  0  0  0  0
  -21.3660   -5.6785   24.9173 C   0  0  0  0  0  0
  -21.6040   -4.3050   24.7229 C   0  0  0  0  0  0
  -21.8825   -3.8143   23.4355 C   0  0  0  0  0  0
  -21.9195   -4.6954   22.3409 C   0  0  0  0  0  0
  -22.7821  -13.5216   21.1863 C   0  0  0  0  0  0
  -22.1656   -4.2144   21.0982 F   0  0  0  0  0  0
  -21.5638   -3.4528   25.7746 F   0  0  0  0  0  0
  -30.0028  -13.3558   20.4264 N   0  0  0  0  0  0
  -26.2938  -12.9342   20.3292 N   0  0  0  0  0  0
  -25.9286  -11.6500   20.5747 N   0  0  0  0  0  0
  -22.0461  -12.8217   22.0429 N   0  0  0  0  0  0
  -25.4201  -15.1888   20.3979 N   0  0  0  0  0  0
  -31.7987  -14.7309   20.2081 O   0  0  0  0  0  0
  -21.6640   -6.8869   21.4235 O   0  0  0  0  0  0
  -22.3509  -14.5519   20.6692 O   0  0  0  0  0  0
  -24.6146  -31.8659   23.2090 C   0  0  0  0  0  0
  -25.9040  -32.4807   23.8386 C   0  0  1  0  0  0
  -27.2378  -27.4067   20.1215 C   0  0  0  0  0  0
  -25.5920  -33.8614   24.2326 N   0  0  0  0  0  0
  -23.4052  -30.4871   21.5483 C   0  0  2  0  0  0
  -24.8560  -28.9422   20.1241 C   0  0  0  0  0  0
  -22.7407  -29.4642   22.5003 C   0  0  0  0  0  0
  -18.0271  -28.1369   22.8477 C   0  0  0  0  0  0
  -24.1473  -36.7292   23.2635 C   0  0  0  0  0  0
  -25.9322  -30.8256   21.3620 C   0  0  0  0  0  0
  -26.0125  -29.4503   20.7281 C   0  0  0  0  0  0
  -27.2075  -28.6875   20.7266 C   0  0  0  0  0  0
  -26.0684  -26.9169   19.5090 C   0  0  0  0  0  0
  -24.8794  -27.6754   19.5116 C   0  0  0  0  0  0
  -23.6153  -29.8102   20.1657 C   0  0  0  0  0  0
  -25.4105  -36.3109   24.0329 C   0  0  1  0  0  0
  -20.5863  -28.3650   23.1330 C   0  0  2  0  0  0
  -20.6761  -26.9389   22.5427 C   0  0  0  0  0  0
  -19.5754  -26.6379   21.5207 C   0  0  0  0  0  0
  -18.1928  -26.7923   22.1603 C   0  0  0  0  0  0
  -19.1524  -28.8827   23.2893 C   0  0  0  0  0  0
  -18.9446  -30.1432   23.8901 C   0  0  0  0  0  0
  -17.6448  -30.6573   24.0560 C   0  0  0  0  0  0
  -25.9040  -34.9466   23.5127 C   0  0  0  0  0  0
  -16.5338  -29.9082   23.6327 C   0  0  0  0  0  0
  -16.7256  -28.6499   23.0338 C   0  0  0  0  0  0
  -26.4488  -31.6592   25.0714 C   0  0  0  0  0  0
  -25.3763  -31.3652   26.1466 C   0  0  0  0  0  0
  -27.0314  -30.3048   24.6050 C   0  0  0  0  0  0
  -27.6093  -32.4284   25.7439 C   0  0  0  0  0  0
  -27.5574  -37.1781   24.8462 C   0  0  0  0  0  0
  -21.4134  -29.3012   22.3726 N   0  0  0  0  0  0
  -26.4278  -37.3810   23.9433 N   0  0  0  0  0  0
  -24.6693  -31.0739   22.0997 N   0  0  0  0  0  0
  -23.4174  -28.8187   23.3060 O   0  0  0  0  0  0
  -28.4107  -26.6865   20.0105 O   0  0  0  0  0  0
  -26.5576  -34.8929   22.4673 O   0  0  0  0  0  0
  -23.5339  -32.1400   23.7482 O   0  0  0  0  0  0
  -28.9924  -20.6615   19.2573 C   0  0  0  0  0  0
  -29.4711  -19.5493   18.5450 C   0  0  0  0  0  0
  -29.6959  -18.2289   20.6110 C   0  0  0  0  0  0
  -28.8449  -20.5929   20.6520 C   0  0  0  0  0  0
  -29.8323  -18.3563   19.2027 C   0  0  0  0  0  0
  -29.1800  -19.3705   21.3223 C   0  0  0  0  0  0
  -30.2446  -16.9687   21.3599 C   0  0  0  0  0  0
  -28.1780  -24.1929   20.5799 C   0  0  0  0  0  0
  -29.0252  -23.0322   21.2073 C   0  0  0  0  0  0
  -28.6787  -25.6294   20.9554 C   0  0  0  0  0  0
  -28.3453  -21.7248   21.3447 N   0  0  0  0  0  0
  -29.8372  -15.5911   20.9615 N   0  0  0  0  0  0
  -30.4925  -17.0963   18.2231 Cl  0  0  0  0  0  0
  -28.9760  -19.3224   23.0429 Cl  0  0  0  0  0  0
  -31.4693  -12.4912   19.1297 H   0  0  0  0  0  0
  -30.3590  -11.3530   19.8456 H   0  0  0  0  0  0
  -29.7474  -11.7642   17.4491 H   0  0  0  0  0  0
  -29.6666  -13.4826   17.7414 H   0  0  0  0  0  0
  -27.8111  -11.3178   18.7909 H   0  0  0  0  0  0
  -27.3764  -12.6608   17.7723 H   0  0  0  0  0  0
  -27.6813  -14.2596   19.5603 H   0  0  0  0  0  0
  -28.6896  -11.9786   21.3251 H   0  0  0  0  0  0
  -28.4433  -13.6117   21.8674 H   0  0  0  0  0  0
  -25.2743   -9.5721   22.4746 H   0  0  0  0  0  0
  -24.0017   -7.4647   22.7451 H   0  0  0  0  0  0
  -21.0841   -8.8746   19.8944 H   0  0  0  0  0  0
  -22.3645  -10.9668   19.6170 H   0  0  0  0  0  0
  -21.1992   -7.6140   23.9716 H   0  0  0  0  0  0
  -21.1476   -6.0512   25.9077 H   0  0  0  0  0  0
  -22.0600   -2.7603   23.2852 H   0  0  0  0  0  0
  -22.4063  -11.9893   22.4866 H   0  0  0  0  0  0
  -21.1062  -13.1232   22.2584 H   0  0  0  0  0  0
  -24.6420  -15.8352   20.4866 H   0  0  0  0  0  0
  -26.2515  -15.6238   20.0205 H   0  0  0  0  0  0
  -26.7100  -32.5540   23.1139 H   0  0  0  0  0  0
  -25.0174  -33.9795   25.0541 H   0  0  0  0  0  0
  -22.6930  -31.3025   21.4043 H   0  0  0  0  0  0
  -23.3757  -35.9602   23.3301 H   0  0  0  0  0  0
  -24.3561  -36.8906   22.2044 H   0  0  0  0  0  0
  -23.7176  -37.6483   23.6643 H   0  0  0  0  0  0
  -26.0329  -31.5777   20.5791 H   0  0  0  0  0  0
  -26.8247  -30.8958   21.9705 H   0  0  0  0  0  0
  -28.1062  -29.0832   21.1779 H   0  0  0  0  0  0
  -26.0840  -25.9569   19.0127 H   0  0  0  0  0  0
  -23.9925  -27.2872   19.0300 H   0  0  0  0  0  0
  -23.7142  -30.5788   19.3983 H   0  0  0  0  0  0
  -22.7422  -29.2212   19.8808 H   0  0  0  0  0  0
  -25.1257  -36.1973   25.0812 H   0  0  0  0  0  0
  -20.9938  -28.3203   24.1460 H   0  0  0  0  0  0
  -20.5677  -26.2239   23.3602 H   0  0  0  0  0  0
  -21.6634  -26.7451   22.1213 H   0  0  0  0  0  0
  -19.6934  -25.6301   21.1220 H   0  0  0  0  0  0
  -19.6719  -27.3206   20.6757 H   0  0  0  0  0  0
  -17.4205  -26.6657   21.3997 H   0  0  0  0  0  0
  -18.0334  -26.0063   22.9001 H   0  0  0  0  0  0
  -19.7920  -30.7243   24.2279 H   0  0  0  0  0  0
  -17.5001  -31.6270   24.5144 H   0  0  0  0  0  0
  -15.5340  -30.2974   23.7658 H   0  0  0  0  0  0
  -15.8653  -28.0823   22.7050 H   0  0  0  0  0  0
  -24.5984  -30.6944   25.7795 H   0  0  0  0  0  0
  -24.8904  -32.2780   26.4924 H   0  0  0  0  0  0
  -25.8152  -30.8831   27.0212 H   0  0  0  0  0  0
  -26.2849  -29.6794   24.1151 H   0  0  0  0  0  0
  -27.4158  -29.7290   25.4475 H   0  0  0  0  0  0
  -27.8644  -30.4387   23.9144 H   0  0  0  0  0  0
  -27.2791  -33.3617   26.1998 H   0  0  0  0  0  0
  -28.3909  -32.6769   25.0246 H   0  0  0  0  0  0
  -28.0750  -31.8395   26.5347 H   0  0  0  0  0  0
  -28.2572  -38.0105   24.7600 H   0  0  0  0  0  0
  -28.1081  -36.2642   24.6176 H   0  0  0  0  0  0
  -27.2297  -37.1305   25.8865 H   0  0  0  0  0  0
  -20.9295  -29.8685   21.6908 H   0  0  0  0  0  0
  -26.0157  -38.2868   24.1527 H   0  0  0  0  0  0
  -28.7241  -21.5621   18.7240 H   0  0  0  0  0  0
  -29.5848  -19.6213   17.4735 H   0  0  0  0  0  0
  -29.9906  -17.0318   22.4159 H   0  0  0  0  0  0
  -31.3326  -17.0427   21.3391 H   0  0  0  0  0  0
  -27.1327  -24.1094   20.8786 H   0  0  0  0  0  0
  -28.1932  -24.0765   19.4957 H   0  0  0  0  0  0
  -29.3233  -23.3342   22.2138 H   0  0  0  0  0  0
  -29.9603  -22.9203   20.6549 H   0  0  0  0  0  0
  -29.7674  -25.6016   21.0469 H   0  0  0  0  0  0
  -28.3151  -25.9101   21.9444 H   0  0  0  0  0  0
  -28.1300  -21.5021   22.3148 H   0  0  0  0  0  0
  -28.8761  -15.3485   21.1498 H   0  0  0  0  0  0
  1 25  1  0  0  0
  1 30  2  0  0  0
  1 82  1  0  0  0
  2  3  1  0  0  0
  2 25  1  0  0  0
  2 85  1  0  0  0
  2 86  1  0  0  0
  3  4  1  0  0  0
  3 87  1  0  0  0
  3 88  1  0  0  0
  4  5  1  0  0  0
  4 89  1  0  0  0
  4 90  1  0  0  0
  5  6  1  0  0  0
  5 26  1  0  0  0
  5 91  1  0  0  0
  6 25  1  0  0  0
  6 92  1  0  0  0
  6 93  1  0  0  0
  7  8  2  0  0  0
  7 26  1  0  0  0
  7 29  1  0  0  0
  8  9  1  0  0  0
  8 22  1  0  0  0
  9 10  1  0  0  0
  9 27  2  0  0  0
 10 11  2  0  0  0
 10 15  1  0  0  0
 11 12  1  0  0  0
 11 94  1  0  0  0
 12 13  2  0  0  0
 12 95  1  0  0  0
 13 14  1  0  0  0
 13 31  1  0  0  0
 14 15  2  0  0  0
 14 96  1  0  0  0
 15 97  1  0  0  0
 16 17  2  0  0  0
 16 21  1  0  0  0
 16 31  1  0  0  0
 17 18  1  0  0  0
 17 98  1  0  0  0
 18 19  2  0  0  0
 18 99  1  0  0  0
 19 20  1  0  0  0
 19 24  1  0  0  0
 20 21  2  0  0  0
 20100  1  0  0  0
 21 23  1  0  0  0
 22 28  1  0  0  0
 22 32  2  0  0  0
 26 27  1  0  0  0
 28101  1  0  0  0
 28102  1  0  0  0
 29103  1  0  0  0
 29104  1  0  0  0
 33 34  1  0  0  0
 33 66  1  0  0  0
 33 70  2  0  0  0
 34 36  1  0  0  0
 34 59  1  0  0  0
 34105  1  0  0  0
 35 44  2  0  0  0
 35 45  1  0  0  0
 35 68  1  0  0  0
 36 56  1  0  0  0
 36106  1  0  0  0
 37 39  1  0  0  0
 37 47  1  0  0  0
 37 66  1  0  0  0
 37107  1  0  0  0
 38 43  2  0  0  0
 38 46  1  0  0  0
 38 47  1  0  0  0
 39 64  1  0  0  0
 39 67  2  0  0  0
 40 52  1  0  0  0
 40 53  2  0  0  0
 40 58  1  0  0  0
 41108  1  0  0  0
 41109  1  0  0  0
 41110  1  0  0  0
 41 48  1  0  0  0
 42 43  1  0  0  0
 42 66  1  0  0  0
 42111  1  0  0  0
 42112  1  0  0  0
 43 44  1  0  0  0
 44113  1  0  0  0
 45 46  2  0  0  0
 45114  1  0  0  0
 46115  1  0  0  0
 47116  1  0  0  0
 47117  1  0  0  0
 48 56  1  0  0  0
 48 65  1  0  0  0
 48118  1  0  0  0
 49 50  1  0  0  0
 49 53  1  0  0  0
 49 64  1  0  0  0
 49119  1  0  0  0
 50 51  1  0  0  0
 50120  1  0  0  0
 50121  1  0  0  0
 51 52  1  0  0  0
 51122  1  0  0  0
 51123  1  0  0  0
 52124  1  0  0  0
 52125  1  0  0  0
 53 54  1  0  0  0
 54 55  2  0  0  0
 54126  1  0  0  0
 55 57  1  0  0  0
 55127  1  0  0  0
 56 69  2  0  0  0
 57 58  2  0  0  0
 57128  1  0  0  0
 58129  1  0  0  0
 59 60  1  0  0  0
 59 61  1  0  0  0
 59 62  1  0  0  0
 60130  1  0  0  0
 60131  1  0  0  0
 60132  1  0  0  0
 61133  1  0  0  0
 61134  1  0  0  0
 61135  1  0  0  0
 62136  1  0  0  0
 62137  1  0  0  0
 62138  1  0  0  0
 63 65  1  0  0  0
 63139  1  0  0  0
 63140  1  0  0  0
 63141  1  0  0  0
 64142  1  0  0  0
 65143  1  0  0  0
 68 80  1  0  0  0
 71 72  2  0  0  0
 71 74  1  0  0  0
 71144  1  0  0  0
 72 75  1  0  0  0
 72145  1  0  0  0
 73 75  2  0  0  0
 73 76  1  0  0  0
 73 77  1  0  0  0
 74 76  2  0  0  0
 74 81  1  0  0  0
 75 83  1  0  0  0
 76 84  1  0  0  0
 77 82  1  0  0  0
 77146  1  0  0  0
 77147  1  0  0  0
 78 79  1  0  0  0
 78 80  1  0  0  0
 78148  1  0  0  0
 78149  1  0  0  0
 79 81  1  0  0  0
 79150  1  0  0  0
 79151  1  0  0  0
 80152  1  0  0  0
 80153  1  0  0  0
 81154  1  0  0  0
 82155  1  0  0  0
M  ISO  4   1 100  68 101  80 101  82 100
M  END
> <chiral flag>
0

> <version>
0

> <s_m_source_file>
/data/baiqing/PycharmProjects/Reinvent-master-3.2/result/LINK_invent/BTK/process_docking_weight1_custom_product_contain_oxygen_bond_distance_aromatic_linkinvent_7_9_3/rearranged_h_0040.sdf

> <i_m_source_file_index>
87

> <r_mmod_Potential_Energy-OPLS-2005>
-7.12842321395874

> <r_mmod_Stretch_Energy-OPLS-2005>
52.7879447937012

> <r_mmod_Bend_Energy-OPLS-2005>
117.269798278809

> <r_mmod_Torsional_Energy-OPLS-2005>
240.699905395508

> <r_mmod_Improper_Torsional_Energy-OPLS-2005>
8.98214435577393

> <r_mmod_Van_der_Waal_Energy-OPLS-2005>
140.474533081055

> <r_mmod_Electrostatic_Energy-OPLS-2005>
-375.972839355469

> <r_mmod_Solvation_Energy-OPLS-2005>
-213.805313110352

> <b_mmod_Minimization_Converged-OPLS-2005>
0

> <r_mmod_RMS_Derivative-OPLS-2005>
3.21532678604126

$$$$
87
                    3D
 Structure written by MMmdl.
172181  0  0  1  0            999 V2000
  -30.5834  -14.7444   20.4838 C   0  0  0  0  0  0
  -30.4459  -12.4613   19.4662 C   0  0  0  0  0  0
  -29.5079  -12.4815   18.2382 C   0  0  0  0  0  0
  -28.0386  -12.2956   18.6664 C   0  0  0  0  0  0
  -27.6381  -13.2152   19.8479 C   0  0  2  0  0  0
  -28.6827  -13.1541   20.9805 C   0  0  0  0  0  0
  -25.2524  -13.8158   20.5731 C   0  0  0  0  0  0
  -24.1795  -13.0421   20.9227 C   0  0  0  0  0  0
  -24.6359  -11.6890   20.8762 C   0  0  0  0  0  0
  -23.9038  -10.4277   21.0412 C   0  0  0  0  0  0
  -24.3592   -9.4197   21.9191 C   0  0  0  0  0  0
  -23.6274   -8.2228   22.0751 C   0  0  0  0  0  0
  -22.4263   -8.0262   21.3529 C   0  0  0  0  0  0
  -21.9896   -9.0236   20.4637 C   0  0  0  0  0  0
  -22.7214  -10.2120   20.3054 C   0  0  0  0  0  0
  -21.6852   -6.0717   22.5248 C   0  0  0  0  0  0
  -21.4021   -6.5627   23.8181 C   0  0  0  0  0  0
  -21.3664   -5.6779   24.9147 C   0  0  0  0  0  0
  -21.6047   -4.3043   24.7196 C   0  0  0  0  0  0
  -21.8829   -3.8133   23.4322 C   0  0  0  0  0  0
  -21.9200   -4.6947   22.3377 C   0  0  0  0  0  0
  -22.7825  -13.5213   21.1900 C   0  0  0  0  0  0
  -22.1669   -4.2126   21.0958 F   0  0  0  0  0  0
  -21.5632   -3.4536   25.7722 F   0  0  0  0  0  0
  -29.9810  -13.5124   20.3921 N   0  0  0  0  0  0
  -26.2916  -12.9320   20.3291 N   0  0  0  0  0  0
  -25.9276  -11.6483   20.5769 N   0  0  0  0  0  0
  -22.0480  -12.8167   22.0442 N   0  0  0  0  0  0
  -25.4277  -15.1879   20.4183 N   0  0  0  0  0  0
  -31.7867  -14.8752   20.2451 O   0  0  0  0  0  0
  -21.6638   -6.8853   21.4207 O   0  0  0  0  0  0
  -22.3517  -14.5531   20.6769 O   0  0  0  0  0  0
  -24.6297  -31.8527   23.1979 C   0  0  0  0  0  0
  -25.9121  -32.4746   23.8323 C   0  0  1  0  0  0
  -27.2130  -27.2436   20.1565 C   0  0  0  0  0  0
  -25.5917  -33.8549   24.2259 N   0  0  0  0  0  0
  -23.4294  -30.4742   21.5373 C   0  0  2  0  0  0
  -24.8804  -28.9198   20.1118 C   0  0  0  0  0  0
  -22.7527  -29.4541   22.4866 C   0  0  0  0  0  0
  -18.0289  -28.1411   22.8444 C   0  0  0  0  0  0
  -24.1466  -36.7278   23.2650 C   0  0  0  0  0  0
  -25.9737  -30.7673   21.3756 C   0  0  0  0  0  0
  -26.0490  -29.3822   20.7285 C   0  0  0  0  0  0
  -27.2199  -28.5573   20.7376 C   0  0  0  0  0  0
  -26.0253  -26.8518   19.5042 C   0  0  0  0  0  0
  -24.8748  -27.6646   19.4830 C   0  0  0  0  0  0
  -23.6547  -29.8114   20.1522 C   0  0  0  0  0  0
  -25.4088  -36.3069   24.0341 C   0  0  1  0  0  0
  -20.5898  -28.3699   23.1265 C   0  0  2  0  0  0
  -20.6774  -26.9426   22.5386 C   0  0  0  0  0  0
  -19.5741  -26.6407   21.5198 C   0  0  0  0  0  0
  -18.1922  -26.7942   22.1613 C   0  0  0  0  0  0
  -19.1545  -28.8869   23.2845 C   0  0  0  0  0  0
  -18.9497  -30.1469   23.8881 C   0  0  0  0  0  0
  -17.6500  -30.6610   24.0570 C   0  0  0  0  0  0
  -25.9038  -34.9434   23.5102 C   0  0  0  0  0  0
  -16.5380  -29.9120   23.6351 C   0  0  0  0  0  0
  -16.7273  -28.6547   23.0328 C   0  0  0  0  0  0
  -26.4504  -31.6572   25.0711 C   0  0  0  0  0  0
  -25.3716  -31.3745   26.1433 C   0  0  0  0  0  0
  -27.0370  -30.3006   24.6157 C   0  0  0  0  0  0
  -27.6069  -32.4315   25.7468 C   0  0  0  0  0  0
  -27.5551  -37.1786   24.8477 C   0  0  0  0  0  0
  -21.4226  -29.3049   22.3668 N   0  0  0  0  0  0
  -26.4264  -37.3770   23.9421 N   0  0  0  0  0  0
  -24.6971  -31.0487   22.0951 N   0  0  0  0  0  0
  -23.4240  -28.8061   23.2930 O   0  0  0  0  0  0
  -28.3092  -26.3483   20.1891 O   0  0  0  0  0  0
  -26.5623  -34.8916   22.4689 O   0  0  0  0  0  0
  -23.5447  -32.1321   23.7264 O   0  0  0  0  0  0
  -29.5456  -18.4267   20.4169 C   0  0  0  0  0  0
  -29.2343  -19.6968   21.0656 C   0  0  0  0  0  0
  -29.0812  -19.6374   22.4812 C   0  0  0  0  0  0
  -29.3556  -18.4373   23.2047 C   0  0  0  0  0  0
  -29.7498  -17.1691   21.1232 C   0  0  0  0  0  0
  -29.6882  -17.2246   22.5379 C   0  0  0  0  0  0
  -31.5414  -22.3362   18.5683 C   0  0  0  0  0  0
  -30.6326  -23.3958   17.8992 C   0  0  0  0  0  0
  -31.9218  -22.6509   20.0316 C   0  0  0  0  0  0
  -29.2141  -23.5937   18.4849 C   0  0  0  0  0  0
  -30.8881  -22.3436   21.1532 C   0  0  0  0  0  0
  -29.1940  -23.7975   20.0135 C   0  0  1  0  0  0
  -28.5456  -20.8591   23.2312 C   0  0  0  0  0  0
  -29.1985  -18.4158   24.7268 C   0  0  0  0  0  0
  -28.9281  -21.0685   20.2640 C   0  0  0  0  0  0
  -28.0955  -24.8830   20.5144 C   0  0  0  0  0  0
  -29.7233  -15.8312   20.4850 N   0  0  0  0  0  0
  -29.4474  -22.4484   20.7689 N   0  3  1  0  0  0
  -29.8936  -15.7672   23.4640 Cl  0  0  0  0  0  0
  -31.4798  -12.6254   19.1552 H   0  0  0  0  0  0
  -30.4283  -11.4888   19.9618 H   0  0  0  0  0  0
  -29.7900  -11.6884   17.5452 H   0  0  0  0  0  0
  -29.6195  -13.4208   17.6960 H   0  0  0  0  0  0
  -27.9243  -11.2545   18.9719 H   0  0  0  0  0  0
  -27.3651  -12.4391   17.8212 H   0  0  0  0  0  0
  -27.6289  -14.2281   19.4488 H   0  0  0  0  0  0
  -28.7217  -12.1587   21.4249 H   0  0  0  0  0  0
  -28.4123  -13.8363   21.7887 H   0  0  0  0  0  0
  -25.2726   -9.5679   22.4783 H   0  0  0  0  0  0
  -23.9979   -7.4617   22.7470 H   0  0  0  0  0  0
  -21.0833   -8.8746   19.8937 H   0  0  0  0  0  0
  -22.3664  -10.9662   19.6176 H   0  0  0  0  0  0
  -21.2019   -7.6139   23.9669 H   0  0  0  0  0  0
  -21.1485   -6.0522   25.9044 H   0  0  0  0  0  0
  -22.0617   -2.7596   23.2823 H   0  0  0  0  0  0
  -22.4099  -11.9783   22.4730 H   0  0  0  0  0  0
  -21.1110  -13.1178   22.2694 H   0  0  0  0  0  0
  -24.6683  -15.8492   20.5462 H   0  0  0  0  0  0
  -26.2774  -15.6272   20.0905 H   0  0  0  0  0  0
  -26.7187  -32.5428   23.1066 H   0  0  0  0  0  0
  -25.0037  -33.9690   25.0387 H   0  0  0  0  0  0
  -22.7243  -31.2953   21.3875 H   0  0  0  0  0  0
  -23.3736  -35.9604   23.3312 H   0  0  0  0  0  0
  -24.3560  -36.8898   22.2061 H   0  0  0  0  0  0
  -23.7203  -37.6475   23.6669 H   0  0  0  0  0  0
  -26.0965  -31.5198   20.5957 H   0  0  0  0  0  0
  -26.8591  -30.8333   21.9969 H   0  0  0  0  0  0
  -28.1128  -28.9035   21.2391 H   0  0  0  0  0  0
  -25.9656  -25.8961   19.0062 H   0  0  0  0  0  0
  -23.9844  -27.3145   18.9812 H   0  0  0  0  0  0
  -23.7917  -30.5906   19.4012 H   0  0  0  0  0  0
  -22.7741  -29.2504   19.8347 H   0  0  0  0  0  0
  -25.1254  -36.1919   25.0832 H   0  0  0  0  0  0
  -20.9963  -28.3267   24.1399 H   0  0  0  0  0  0
  -20.5697  -26.2299   23.3574 H   0  0  0  0  0  0
  -21.6636  -26.7453   22.1167 H   0  0  0  0  0  0
  -19.6914  -25.6335   21.1201 H   0  0  0  0  0  0
  -19.6700  -27.3246   20.6749 H   0  0  0  0  0  0
  -17.4187  -26.6688   21.4022 H   0  0  0  0  0  0
  -18.0338  -26.0098   22.9032 H   0  0  0  0  0  0
  -19.7984  -30.7274   24.2241 H   0  0  0  0  0  0
  -17.5075  -31.6287   24.5199 H   0  0  0  0  0  0
  -15.5379  -30.3041   23.7706 H   0  0  0  0  0  0
  -15.8658  -28.0906   22.7022 H   0  0  0  0  0  0
  -24.5952  -30.7006   25.7792 H   0  0  0  0  0  0
  -24.8825  -32.2908   26.4747 H   0  0  0  0  0  0
  -25.8030  -30.9035   27.0277 H   0  0  0  0  0  0
  -26.2958  -29.6732   24.1194 H   0  0  0  0  0  0
  -27.4114  -29.7275   25.4649 H   0  0  0  0  0  0
  -27.8780  -30.4315   23.9350 H   0  0  0  0  0  0
  -27.2722  -33.3677   26.1942 H   0  0  0  0  0  0
  -28.3917  -32.6774   25.0302 H   0  0  0  0  0  0
  -28.0669  -31.8490   26.5455 H   0  0  0  0  0  0
  -28.2573  -38.0078   24.7518 H   0  0  0  0  0  0
  -28.1049  -36.2612   24.6319 H   0  0  0  0  0  0
  -27.2275  -37.1447   25.8886 H   0  0  0  0  0  0
  -20.9423  -29.8861   21.6945 H   0  0  0  0  0  0
  -26.0150  -38.2833   24.1491 H   0  0  0  0  0  0
  -29.5617  -18.3999   19.3355 H   0  0  0  0  0  0
  -32.4743  -22.3351   18.0007 H   0  0  0  0  0  0
  -31.1647  -21.3226   18.4503 H   0  0  0  0  0  0
  -30.5376  -23.1556   16.8387 H   0  0  0  0  0  0
  -31.1544  -24.3545   17.9221 H   0  0  0  0  0  0
  -32.2251  -23.6976   20.0924 H   0  0  0  0  0  0
  -32.8264  -22.0910   20.2726 H   0  0  0  0  0  0
  -28.5475  -22.7858   18.1877 H   0  0  0  0  0  0
  -28.7914  -24.4802   18.0083 H   0  0  0  0  0  0
  -31.0611  -23.0533   21.9640 H   0  0  0  0  0  0
  -31.1127  -21.3757   21.5995 H   0  0  0  0  0  0
  -30.0669  -24.4116   20.2273 H   0  0  0  0  0  0
  -29.3433  -21.5747   23.4311 H   0  0  0  0  0  0
  -28.0793  -20.6150   24.1841 H   0  0  0  0  0  0
  -27.7506  -21.3370   22.6598 H   0  0  0  0  0  0
  -29.5440  -19.3405   25.1872 H   0  0  0  0  0  0
  -29.7659  -17.6290   25.2182 H   0  0  0  0  0  0
  -28.1479  -18.2666   24.9788 H   0  0  0  0  0  0
  -27.8456  -21.1429   20.1616 H   0  0  0  0  0  0
  -29.2721  -20.9033   19.2480 H   0  0  0  0  0  0
  -28.0619  -24.8418   21.6058 H   0  0  0  0  0  0
  -27.1117  -24.5324   20.2031 H   0  0  0  0  0  0
  -28.7803  -15.5094   20.3449 H   0  0  0  0  0  0
  -28.9664  -22.5489   21.6505 H   0  0  0  0  0  0
  1 25  1  0  0  0
  1 30  2  0  0  0
  1 87  1  0  0  0
  2  3  1  0  0  0
  2 25  1  0  0  0
  2 90  1  0  0  0
  2 91  1  0  0  0
  3  4  1  0  0  0
  3 92  1  0  0  0
  3 93  1  0  0  0
  4  5  1  0  0  0
  4 94  1  0  0  0
  4 95  1  0  0  0
  5  6  1  0  0  0
  5 26  1  0  0  0
  5 96  1  0  0  0
  6 25  1  0  0  0
  6 97  1  0  0  0
  6 98  1  0  0  0
  7  8  2  0  0  0
  7 26  1  0  0  0
  7 29  1  0  0  0
  8  9  1  0  0  0
  8 22  1  0  0  0
  9 10  1  0  0  0
  9 27  2  0  0  0
 10 11  2  0  0  0
 10 15  1  0  0  0
 11 12  1  0  0  0
 11 99  1  0  0  0
 12 13  2  0  0  0
 12100  1  0  0  0
 13 14  1  0  0  0
 13 31  1  0  0  0
 14 15  2  0  0  0
 14101  1  0  0  0
 15102  1  0  0  0
 16 17  2  0  0  0
 16 21  1  0  0  0
 16 31  1  0  0  0
 17 18  1  0  0  0
 17103  1  0  0  0
 18 19  2  0  0  0
 18104  1  0  0  0
 19 20  1  0  0  0
 19 24  1  0  0  0
 20 21  2  0  0  0
 20105  1  0  0  0
 21 23  1  0  0  0
 22 28  1  0  0  0
 22 32  2  0  0  0
 26 27  1  0  0  0
 28106  1  0  0  0
 28107  1  0  0  0
 29108  1  0  0  0
 29109  1  0  0  0
 33 34  1  0  0  0
 33 66  1  0  0  0
 33 70  2  0  0  0
 34 36  1  0  0  0
 34 59  1  0  0  0
 34110  1  0  0  0
 35 44  2  0  0  0
 35 45  1  0  0  0
 35 68  1  0  0  0
 36 56  1  0  0  0
 36111  1  0  0  0
 37 39  1  0  0  0
 37 47  1  0  0  0
 37 66  1  0  0  0
 37112  1  0  0  0
 38 43  2  0  0  0
 38 46  1  0  0  0
 38 47  1  0  0  0
 39 64  1  0  0  0
 39 67  2  0  0  0
 40 52  1  0  0  0
 40 53  2  0  0  0
 40 58  1  0  0  0
 41113  1  0  0  0
 41114  1  0  0  0
 41115  1  0  0  0
 41 48  1  0  0  0
 42 43  1  0  0  0
 42 66  1  0  0  0
 42116  1  0  0  0
 42117  1  0  0  0
 43 44  1  0  0  0
 44118  1  0  0  0
 45 46  2  0  0  0
 45119  1  0  0  0
 46120  1  0  0  0
 47121  1  0  0  0
 47122  1  0  0  0
 48 56  1  0  0  0
 48 65  1  0  0  0
 48123  1  0  0  0
 49 50  1  0  0  0
 49 53  1  0  0  0
 49 64  1  0  0  0
 49124  1  0  0  0
 50 51  1  0  0  0
 50125  1  0  0  0
 50126  1  0  0  0
 51 52  1  0  0  0
 51127  1  0  0  0
 51128  1  0  0  0
 52129  1  0  0  0
 52130  1  0  0  0
 53 54  1  0  0  0
 54 55  2  0  0  0
 54131  1  0  0  0
 55 57  1  0  0  0
 55132  1  0  0  0
 56 69  2  0  0  0
 57 58  2  0  0  0
 57133  1  0  0  0
 58134  1  0  0  0
 59 60  1  0  0  0
 59 61  1  0  0  0
 59 62  1  0  0  0
 60135  1  0  0  0
 60136  1  0  0  0
 60137  1  0  0  0
 61138  1  0  0  0
 61139  1  0  0  0
 61140  1  0  0  0
 62141  1  0  0  0
 62142  1  0  0  0
 62143  1  0  0  0
 63 65  1  0  0  0
 63144  1  0  0  0
 63145  1  0  0  0
 63146  1  0  0  0
 64147  1  0  0  0
 65148  1  0  0  0
 68 86  1  0  0  0
 71 72  2  0  0  0
 71 75  1  0  0  0
 71149  1  0  0  0
 72 73  1  0  0  0
 72 85  1  0  0  0
 73 74  2  0  0  0
 73 83  1  0  0  0
 74 76  1  0  0  0
 74 84  1  0  0  0
 75 76  2  0  0  0
 75 87  1  0  0  0
 76 89  1  0  0  0
 77 78  1  0  0  0
 77 79  1  0  0  0
 77150  1  0  0  0
 77151  1  0  0  0
 78 80  1  0  0  0
 78152  1  0  0  0
 78153  1  0  0  0
 79 81  1  0  0  0
 79154  1  0  0  0
 79155  1  0  0  0
 80 82  1  0  0  0
 80156  1  0  0  0
 80157  1  0  0  0
 81 88  1  0  0  0
 81158  1  0  0  0
 81159  1  0  0  0
 82 86  1  0  0  0
 82 88  1  0  0  0
 82160  1  0  0  0
 83161  1  0  0  0
 83162  1  0  0  0
 83163  1  0  0  0
 84164  1  0  0  0
 84165  1  0  0  0
 84166  1  0  0  0
 85167  1  0  0  0
 85168  1  0  0  0
 85 88  1  0  0  0
 86169  1  0  0  0
 86170  1  0  0  0
 87171  1  0  0  0
 88172  1  0  0  0
M  CHG  1  88   1
M  ISO  4   1 100  68 101  86 101  87 100
M  END
> <chiral flag>
0

> <version>
0

> <s_m_source_file>
/data/baiqing/PycharmProjects/Reinvent-master-3.2/result/LINK_invent/BTK/process_docking_weight1_custom_product_contain_oxygen_bond_distance_aromatic_linkinvent_7_9_3/rearranged_h_0040.sdf

> <i_m_source_file_index>
88

> <r_mmod_Potential_Energy-OPLS-2005>
262.566101074219

> <r_mmod_Stretch_Energy-OPLS-2005>
145.379425048828

> <r_mmod_Bend_Energy-OPLS-2005>
203.138320922852

> <r_mmod_Torsional_Energy-OPLS-2005>
323.652130126953

> <r_mmod_Improper_Torsional_Energy-OPLS-2005>
14.0812606811523

> <r_mmod_Van_der_Waal_Energy-OPLS-2005>
160.252960205078

> <r_mmod_Electrostatic_Energy-OPLS-2005>
-253.041229248047

> <r_mmod_Solvation_Energy-OPLS-2005>
-425.034973144531

> <b_mmod_Minimization_Converged-OPLS-2005>
0

> <r_mmod_RMS_Derivative-OPLS-2005>
3.70570039749146

$$$$
88
                    3D
 Structure written by MMmdl.
161169  0  0  1  0            999 V2000
  -30.6573  -14.4963   20.4761 C   0  0  0  0  0  0
  -30.4221  -12.2881   19.4261 C   0  0  0  0  0  0
  -29.4912  -12.4619   18.2072 C   0  0  0  0  0  0
  -28.0121  -12.3226   18.6260 C   0  0  0  0  0  0
  -27.6504  -13.1922   19.8615 C   0  0  2  0  0  0
  -28.6995  -13.0200   20.9856 C   0  0  0  0  0  0
  -25.2566  -13.8128   20.5690 C   0  0  0  0  0  0
  -24.1791  -13.0433   20.9183 C   0  0  0  0  0  0
  -24.6328  -11.6892   20.8753 C   0  0  0  0  0  0
  -23.8993  -10.4295   21.0417 C   0  0  0  0  0  0
  -24.3568   -9.4210   21.9178 C   0  0  0  0  0  0
  -23.6259   -8.2236   22.0747 C   0  0  0  0  0  0
  -22.4242   -8.0269   21.3537 C   0  0  0  0  0  0
  -21.9866   -9.0237   20.4637 C   0  0  0  0  0  0
  -22.7178  -10.2131   20.3052 C   0  0  0  0  0  0
  -21.6837   -6.0713   22.5264 C   0  0  0  0  0  0
  -21.4010   -6.5619   23.8199 C   0  0  0  0  0  0
  -21.3665   -5.6778   24.9166 C   0  0  0  0  0  0
  -21.6054   -4.3041   24.7222 C   0  0  0  0  0  0
  -21.8813   -3.8128   23.4342 C   0  0  0  0  0  0
  -21.9188   -4.6943   22.3397 C   0  0  0  0  0  0
  -22.7830  -13.5249   21.1869 C   0  0  0  0  0  0
  -22.1645   -4.2119   21.0976 F   0  0  0  0  0  0
  -21.5642   -3.4536   25.7740 F   0  0  0  0  0  0
  -30.0234  -13.2995   20.4115 N   0  0  0  0  0  0
  -26.2961  -12.9251   20.3353 N   0  0  0  0  0  0
  -25.9247  -11.6433   20.5789 N   0  0  0  0  0  0
  -22.0488  -12.8238   22.0436 N   0  0  0  0  0  0
  -25.4410  -15.1834   20.4107 N   0  0  0  0  0  0
  -31.8590  -14.6355   20.2400 O   0  0  0  0  0  0
  -21.6626   -6.8854   21.4220 O   0  0  0  0  0  0
  -22.3528  -14.5567   20.6734 O   0  0  0  0  0  0
  -24.6148  -31.8688   23.2095 C   0  0  0  0  0  0
  -25.9045  -32.4823   23.8391 C   0  0  1  0  0  0
  -27.2419  -27.4407   20.0752 C   0  0  0  0  0  0
  -25.5895  -33.8618   24.2327 N   0  0  0  0  0  0
  -23.4009  -30.4904   21.5529 C   0  0  2  0  0  0
  -24.8436  -28.9506   20.1215 C   0  0  0  0  0  0
  -22.7402  -29.4672   22.5028 C   0  0  0  0  0  0
  -18.0274  -28.1369   22.8482 C   0  0  0  0  0  0
  -24.1482  -36.7292   23.2634 C   0  0  0  0  0  0
  -25.9308  -30.8329   21.3637 C   0  0  0  0  0  0
  -26.0037  -29.4671   20.7083 C   0  0  0  0  0  0
  -27.2009  -28.7190   20.6792 C   0  0  0  0  0  0
  -26.0492  -26.9243   19.5137 C   0  0  0  0  0  0
  -24.8585  -27.6770   19.5289 C   0  0  0  0  0  0
  -23.6059  -29.8177   20.1700 C   0  0  0  0  0  0
  -25.4103  -36.3102   24.0347 C   0  0  1  0  0  0
  -20.5865  -28.3660   23.1322 C   0  0  2  0  0  0
  -20.6759  -26.9402   22.5415 C   0  0  0  0  0  0
  -19.5752  -26.6384   21.5193 C   0  0  0  0  0  0
  -18.1931  -26.7919   22.1603 C   0  0  0  0  0  0
  -19.1523  -28.8831   23.2898 C   0  0  0  0  0  0
  -18.9451  -30.1437   23.8908 C   0  0  0  0  0  0
  -17.6455  -30.6580   24.0560 C   0  0  0  0  0  0
  -25.9042  -34.9474   23.5150 C   0  0  0  0  0  0
  -16.5347  -29.9075   23.6331 C   0  0  0  0  0  0
  -16.7266  -28.6494   23.0351 C   0  0  0  0  0  0
  -26.4472  -31.6604   25.0720 C   0  0  0  0  0  0
  -25.3741  -31.3719   26.1479 C   0  0  0  0  0  0
  -27.0292  -30.3036   24.6126 C   0  0  0  0  0  0
  -27.6066  -32.4317   25.7460 C   0  0  0  0  0  0
  -27.5585  -37.1799   24.8472 C   0  0  0  0  0  0
  -21.4137  -29.3025   22.3734 N   0  0  0  0  0  0
  -26.4285  -37.3790   23.9427 N   0  0  0  0  0  0
  -24.6669  -31.0792   22.0993 N   0  0  0  0  0  0
  -23.4180  -28.8226   23.3081 O   0  0  0  0  0  0
  -28.4524  -26.7735   20.0709 O   0  0  0  0  0  0
  -26.5620  -34.8931   22.4717 O   0  0  0  0  0  0
  -23.5347  -32.1430   23.7508 O   0  0  0  0  0  0
  -29.8000  -19.1654   20.9699 C   0  0  0  0  0  0
  -28.7150  -16.7550   21.9225 C   0  0  0  0  0  0
  -30.1681  -17.9413   20.3686 C   0  0  0  0  0  0
  -28.8599  -19.2034   22.0232 C   0  0  0  0  0  0
  -29.6231  -16.7222   20.8448 C   0  0  0  0  0  0
  -28.3342  -17.9811   22.5077 C   0  0  0  0  0  0
  -27.7605  -22.0319   20.6837 C   0  0  0  0  0  0
  -28.6628  -24.3430   20.3573 C   0  0  0  0  0  0
  -31.1368  -17.9673   19.2004 C   0  0  0  0  0  0
  -26.7722  -21.0174   20.1788 C   0  0  0  0  0  0
  -28.4297  -20.5369   22.6436 C   0  0  0  0  0  0
  -28.6227  -25.5275   19.3751 C   0  0  0  0  0  0
  -29.8406  -15.5080   20.1367 N   0  0  0  0  0  0
  -27.8438  -23.2137   20.0071 N   0  0  0  0  0  0
  -28.5071  -21.7388   21.7797 N   0  3  0  0  0  0
  -29.3640  -24.3426   21.3768 O   0  0  0  0  0  0
  -27.1943  -17.9508   23.8077 Cl  0  0  0  0  0  0
  -31.4672  -12.3839   19.1278 H   0  0  0  0  0  0
  -30.3168  -11.2886   19.8521 H   0  0  0  0  0  0
  -29.7356  -11.7225   17.4438 H   0  0  0  0  0  0
  -29.6542  -13.4381   17.7489 H   0  0  0  0  0  0
  -27.8357  -11.2716   18.8602 H   0  0  0  0  0  0
  -27.3535  -12.5626   17.7918 H   0  0  0  0  0  0
  -27.6680  -14.2272   19.5219 H   0  0  0  0  0  0
  -28.6745  -12.0051   21.3865 H   0  0  0  0  0  0
  -28.4887  -13.6821   21.8251 H   0  0  0  0  0  0
  -25.2722   -9.5681   22.4744 H   0  0  0  0  0  0
  -23.9968   -7.4627   22.7467 H   0  0  0  0  0  0
  -21.0794   -8.8749   19.8946 H   0  0  0  0  0  0
  -22.3627  -10.9663   19.6156 H   0  0  0  0  0  0
  -21.1989   -7.6128   23.9686 H   0  0  0  0  0  0
  -21.1498   -6.0516   25.9065 H   0  0  0  0  0  0
  -22.0589   -2.7587   23.2854 H   0  0  0  0  0  0
  -22.4103  -11.9871   22.4773 H   0  0  0  0  0  0
  -21.1125  -13.1281   22.2701 H   0  0  0  0  0  0
  -24.6971  -15.8615   20.5297 H   0  0  0  0  0  0
  -26.3155  -15.6030   20.1187 H   0  0  0  0  0  0
  -26.7111  -32.5514   23.1150 H   0  0  0  0  0  0
  -24.9975  -33.9783   25.0427 H   0  0  0  0  0  0
  -22.6895  -31.3059   21.4123 H   0  0  0  0  0  0
  -23.3750  -35.9621   23.3310 H   0  0  0  0  0  0
  -24.3556  -36.8885   22.2041 H   0  0  0  0  0  0
  -23.7247  -37.6507   23.6629 H   0  0  0  0  0  0
  -26.0559  -31.6055   20.6035 H   0  0  0  0  0  0
  -26.8147  -30.8751   21.9894 H   0  0  0  0  0  0
  -28.1056  -29.1238   21.1117 H   0  0  0  0  0  0
  -25.9991  -25.9458   19.0628 H   0  0  0  0  0  0
  -23.9601  -27.2642   19.0913 H   0  0  0  0  0  0
  -23.7119  -30.5882   19.4057 H   0  0  0  0  0  0
  -22.7308  -29.2331   19.8797 H   0  0  0  0  0  0
  -25.1283  -36.1955   25.0841 H   0  0  0  0  0  0
  -20.9953  -28.3223   24.1439 H   0  0  0  0  0  0
  -20.5632  -26.2282   23.3601 H   0  0  0  0  0  0
  -21.6641  -26.7432   22.1232 H   0  0  0  0  0  0
  -19.6928  -25.6292   21.1226 H   0  0  0  0  0  0
  -19.6691  -27.3185   20.6717 H   0  0  0  0  0  0
  -17.4202  -26.6661   21.4006 H   0  0  0  0  0  0
  -18.0340  -26.0041   22.8985 H   0  0  0  0  0  0
  -19.7925  -30.7244   24.2282 H   0  0  0  0  0  0
  -17.5013  -31.6259   24.5159 H   0  0  0  0  0  0
  -15.5353  -30.2989   23.7643 H   0  0  0  0  0  0
  -15.8656  -28.0814   22.7075 H   0  0  0  0  0  0
  -24.5933  -30.7040   25.7832 H   0  0  0  0  0  0
  -24.8896  -32.2857   26.4918 H   0  0  0  0  0  0
  -25.8104  -30.8907   27.0244 H   0  0  0  0  0  0
  -26.2850  -29.6830   24.1129 H   0  0  0  0  0  0
  -27.3975  -29.7265   25.4619 H   0  0  0  0  0  0
  -27.8727  -30.4339   23.9349 H   0  0  0  0  0  0
  -27.2721  -33.3619   26.2075 H   0  0  0  0  0  0
  -28.3844  -32.6885   25.0251 H   0  0  0  0  0  0
  -28.0778  -31.8409   26.5332 H   0  0  0  0  0  0
  -28.2620  -38.0077   24.7505 H   0  0  0  0  0  0
  -28.1065  -36.2615   24.6307 H   0  0  0  0  0  0
  -27.2307  -37.1482   25.8875 H   0  0  0  0  0  0
  -20.9320  -29.8686   21.6890 H   0  0  0  0  0  0
  -26.0175  -38.2874   24.1407 H   0  0  0  0  0  0
  -30.2297  -20.0881   20.6078 H   0  0  0  0  0  0
  -28.2534  -15.8502   22.2857 H   0  0  0  0  0  0
  -31.5865  -18.9520   19.0816 H   0  0  0  0  0  0
  -30.6212  -17.7199   18.2725 H   0  0  0  0  0  0
  -31.9502  -17.2564   19.3527 H   0  0  0  0  0  0
  -27.2887  -20.1257   19.8242 H   0  0  0  0  0  0
  -26.1813  -21.4085   19.3496 H   0  0  0  0  0  0
  -26.0805  -20.7287   20.9704 H   0  0  0  0  0  0
  -29.0436  -20.7107   23.5268 H   0  0  0  0  0  0
  -27.4016  -20.4635   23.0019 H   0  0  0  0  0  0
  -27.9324  -25.3626   18.5519 H   0  0  0  0  0  0
  -29.6037  -25.5700   18.9001 H   0  0  0  0  0  0
  -29.9000  -15.6521   19.1398 H   0  0  0  0  0  0
  -27.2616  -23.2590   19.1857 H   0  0  0  0  0  0
  -29.1438  -22.4608   22.1041 H   0  0  0  0  0  0
  1 25  1  0  0  0
  1 30  2  0  0  0
  1 83  1  0  0  0
  2  3  1  0  0  0
  2 25  1  0  0  0
  2 88  1  0  0  0
  2 89  1  0  0  0
  3  4  1  0  0  0
  3 90  1  0  0  0
  3 91  1  0  0  0
  4  5  1  0  0  0
  4 92  1  0  0  0
  4 93  1  0  0  0
  5  6  1  0  0  0
  5 26  1  0  0  0
  5 94  1  0  0  0
  6 25  1  0  0  0
  6 95  1  0  0  0
  6 96  1  0  0  0
  7  8  2  0  0  0
  7 26  1  0  0  0
  7 29  1  0  0  0
  8  9  1  0  0  0
  8 22  1  0  0  0
  9 10  1  0  0  0
  9 27  2  0  0  0
 10 11  2  0  0  0
 10 15  1  0  0  0
 11 12  1  0  0  0
 11 97  1  0  0  0
 12 13  2  0  0  0
 12 98  1  0  0  0
 13 14  1  0  0  0
 13 31  1  0  0  0
 14 15  2  0  0  0
 14 99  1  0  0  0
 15100  1  0  0  0
 16 17  2  0  0  0
 16 21  1  0  0  0
 16 31  1  0  0  0
 17 18  1  0  0  0
 17101  1  0  0  0
 18 19  2  0  0  0
 18102  1  0  0  0
 19 20  1  0  0  0
 19 24  1  0  0  0
 20 21  2  0  0  0
 20103  1  0  0  0
 21 23  1  0  0  0
 22 28  1  0  0  0
 22 32  2  0  0  0
 26 27  1  0  0  0
 28104  1  0  0  0
 28105  1  0  0  0
 29106  1  0  0  0
 29107  1  0  0  0
 33 34  1  0  0  0
 33 66  1  0  0  0
 33 70  2  0  0  0
 34 36  1  0  0  0
 34 59  1  0  0  0
 34108  1  0  0  0
 35 44  2  0  0  0
 35 45  1  0  0  0
 35 68  1  0  0  0
 36 56  1  0  0  0
 36109  1  0  0  0
 37 39  1  0  0  0
 37 47  1  0  0  0
 37 66  1  0  0  0
 37110  1  0  0  0
 38 43  2  0  0  0
 38 46  1  0  0  0
 38 47  1  0  0  0
 39 64  1  0  0  0
 39 67  2  0  0  0
 40 52  1  0  0  0
 40 53  2  0  0  0
 40 58  1  0  0  0
 41111  1  0  0  0
 41112  1  0  0  0
 41113  1  0  0  0
 41 48  1  0  0  0
 42 43  1  0  0  0
 42 66  1  0  0  0
 42114  1  0  0  0
 42115  1  0  0  0
 43 44  1  0  0  0
 44116  1  0  0  0
 45 46  2  0  0  0
 45117  1  0  0  0
 46118  1  0  0  0
 47119  1  0  0  0
 47120  1  0  0  0
 48 56  1  0  0  0
 48 65  1  0  0  0
 48121  1  0  0  0
 49 50  1  0  0  0
 49 53  1  0  0  0
 49 64  1  0  0  0
 49122  1  0  0  0
 50 51  1  0  0  0
 50123  1  0  0  0
 50124  1  0  0  0
 51 52  1  0  0  0
 51125  1  0  0  0
 51126  1  0  0  0
 52127  1  0  0  0
 52128  1  0  0  0
 53 54  1  0  0  0
 54 55  2  0  0  0
 54129  1  0  0  0
 55 57  1  0  0  0
 55130  1  0  0  0
 56 69  2  0  0  0
 57 58  2  0  0  0
 57131  1  0  0  0
 58132  1  0  0  0
 59 60  1  0  0  0
 59 61  1  0  0  0
 59 62  1  0  0  0
 60133  1  0  0  0
 60134  1  0  0  0
 60135  1  0  0  0
 61136  1  0  0  0
 61137  1  0  0  0
 61138  1  0  0  0
 62139  1  0  0  0
 62140  1  0  0  0
 62141  1  0  0  0
 63 65  1  0  0  0
 63142  1  0  0  0
 63143  1  0  0  0
 63144  1  0  0  0
 64145  1  0  0  0
 65146  1  0  0  0
 68 82  1  0  0  0
 71 73  2  0  0  0
 71 74  1  0  0  0
 71147  1  0  0  0
 72 75  2  0  0  0
 72 76  1  0  0  0
 72148  1  0  0  0
 73 75  1  0  0  0
 73 79  1  0  0  0
 74 76  2  0  0  0
 74 81  1  0  0  0
 75 83  1  0  0  0
 76 87  1  0  0  0
 77 80  1  0  0  0
 77 84  1  0  0  0
 77 85  2  0  0  0
 78 82  1  0  0  0
 78 84  1  0  0  0
 78 86  2  0  0  0
 79149  1  0  0  0
 79150  1  0  0  0
 79151  1  0  0  0
 80152  1  0  0  0
 80153  1  0  0  0
 80154  1  0  0  0
 81 85  1  0  0  0
 81155  1  0  0  0
 81156  1  0  0  0
 82157  1  0  0  0
 82158  1  0  0  0
 83159  1  0  0  0
 84160  1  0  0  0
 85161  1  0  0  0
M  CHG  1  85   1
M  ISO  4   1 100  68 101  82 101  83 100
M  END
> <chiral flag>
0

> <version>
0

> <s_m_source_file>
/data/baiqing/PycharmProjects/Reinvent-master-3.2/result/LINK_invent/BTK/process_docking_weight1_custom_product_contain_oxygen_bond_distance_aromatic_linkinvent_7_9_3/rearranged_h_0040.sdf

> <i_m_source_file_index>
89

> <r_mmod_Potential_Energy-OPLS-2005>
-76.03466796875

> <r_mmod_Stretch_Energy-OPLS-2005>
37.1756172180176

> <r_mmod_Bend_Energy-OPLS-2005>
123.667694091797

> <r_mmod_Torsional_Energy-OPLS-2005>
277.5146484375

> <r_mmod_Improper_Torsional_Energy-OPLS-2005>
28.2413635253906

> <r_mmod_Van_der_Waal_Energy-OPLS-2005>
150.280517578125

> <r_mmod_Electrostatic_Energy-OPLS-2005>
-257.330474853516

> <r_mmod_Solvation_Energy-OPLS-2005>
-457.717834472656

> <b_mmod_Minimization_Converged-OPLS-2005>
0

> <r_mmod_RMS_Derivative-OPLS-2005>
3.05540871620178

$$$$
89
                    3D
 Structure written by MMmdl.
180189  0  0  1  0            999 V2000
  -30.6252  -14.6219   20.5907 C   0  0  0  0  0  0
  -30.4517  -12.4075   19.4352 C   0  0  0  0  0  0
  -29.5062  -12.5217   18.2177 C   0  0  0  0  0  0
  -28.0320  -12.3375   18.6323 C   0  0  0  0  0  0
  -27.6599  -13.1934   19.8684 C   0  0  2  0  0  0
  -28.7101  -13.0096   20.9918 C   0  0  0  0  0  0
  -25.2620  -13.8108   20.5677 C   0  0  0  0  0  0
  -24.1850  -13.0406   20.9162 C   0  0  0  0  0  0
  -24.6397  -11.6869   20.8740 C   0  0  0  0  0  0
  -23.9059  -10.4268   21.0420 C   0  0  0  0  0  0
  -24.3610   -9.4183   21.9196 C   0  0  0  0  0  0
  -23.6274   -8.2229   22.0767 C   0  0  0  0  0  0
  -22.4257   -8.0274   21.3550 C   0  0  0  0  0  0
  -21.9902   -9.0254   20.4652 C   0  0  0  0  0  0
  -22.7236  -10.2128   20.3060 C   0  0  0  0  0  0
  -21.6849   -6.0730   22.5279 C   0  0  0  0  0  0
  -21.4013   -6.5638   23.8209 C   0  0  0  0  0  0
  -21.3653   -5.6796   24.9176 C   0  0  0  0  0  0
  -21.6039   -4.3057   24.7225 C   0  0  0  0  0  0
  -21.8821   -3.8142   23.4352 C   0  0  0  0  0  0
  -21.9193   -4.6956   22.3404 C   0  0  0  0  0  0
  -22.7878  -13.5227   21.1819 C   0  0  0  0  0  0
  -22.1665   -4.2141   21.0982 F   0  0  0  0  0  0
  -21.5624   -3.4540   25.7737 F   0  0  0  0  0  0
  -30.0200  -13.3956   20.4448 N   0  0  0  0  0  0
  -26.3030  -12.9242   20.3346 N   0  0  0  0  0  0
  -25.9321  -11.6422   20.5771 N   0  0  0  0  0  0
  -22.0527  -12.8221   22.0384 N   0  0  0  0  0  0
  -25.4365  -15.1819   20.4106 N   0  0  0  0  0  0
  -31.7513  -14.8105   20.1121 O   0  0  0  0  0  0
  -21.6623   -6.8876   21.4241 O   0  0  0  0  0  0
  -22.3567  -14.5537   20.6675 O   0  0  0  0  0  0
  -24.6228  -31.8629   23.2039 C   0  0  0  0  0  0
  -25.9089  -32.4798   23.8360 C   0  0  1  0  0  0
  -27.2377  -27.3562   20.1040 C   0  0  0  0  0  0
  -25.5928  -33.8595   24.2307 N   0  0  0  0  0  0
  -23.4142  -30.4849   21.5474 C   0  0  2  0  0  0
  -24.8622  -28.9429   20.1119 C   0  0  0  0  0  0
  -22.7450  -29.4638   22.4969 C   0  0  0  0  0  0
  -18.0284  -28.1380   22.8488 C   0  0  0  0  0  0
  -24.1494  -36.7293   23.2638 C   0  0  0  0  0  0
  -25.9508  -30.8043   21.3676 C   0  0  0  0  0  0
  -26.0279  -29.4324   20.7139 C   0  0  0  0  0  0
  -27.2163  -28.6501   20.7027 C   0  0  0  0  0  0
  -26.0463  -26.9099   19.4828 C   0  0  0  0  0  0
  -24.8718  -27.6851   19.4894 C   0  0  0  0  0  0
  -23.6259  -29.8161   20.1634 C   0  0  0  0  0  0
  -25.4120  -36.3097   24.0335 C   0  0  1  0  0  0
  -20.5882  -28.3678   23.1296 C   0  0  2  0  0  0
  -20.6776  -26.9409   22.5408 C   0  0  0  0  0  0
  -19.5756  -26.6385   21.5208 C   0  0  0  0  0  0
  -18.1934  -26.7925   22.1618 C   0  0  0  0  0  0
  -19.1536  -28.8843   23.2888 C   0  0  0  0  0  0
  -18.9456  -30.1447   23.8904 C   0  0  0  0  0  0
  -17.6457  -30.6586   24.0557 C   0  0  0  0  0  0
  -25.9042  -34.9462   23.5119 C   0  0  0  0  0  0
  -16.5349  -29.9083   23.6327 C   0  0  0  0  0  0
  -16.7269  -28.6495   23.0354 C   0  0  0  0  0  0
  -26.4491  -31.6578   25.0703 C   0  0  0  0  0  0
  -25.3731  -31.3672   26.1428 C   0  0  0  0  0  0
  -27.0327  -30.3024   24.6086 C   0  0  0  0  0  0
  -27.6085  -32.4267   25.7468 C   0  0  0  0  0  0
  -27.5584  -37.1810   24.8471 C   0  0  0  0  0  0
  -21.4169  -29.3041   22.3696 N   0  0  0  0  0  0
  -26.4305  -37.3785   23.9403 N   0  0  0  0  0  0
  -24.6815  -31.0659   22.0981 N   0  0  0  0  0  0
  -23.4186  -28.8178   23.3037 O   0  0  0  0  0  0
  -28.3833  -26.5521   20.1419 O   0  0  0  0  0  0
  -26.5606  -34.8926   22.4679 O   0  0  0  0  0  0
  -23.5401  -32.1418   23.7385 O   0  0  0  0  0  0
  -30.0401  -19.3751   19.5651 C   0  0  0  0  0  0
  -30.4114  -18.2516   22.0685 C   0  0  0  0  0  0
  -29.9723  -17.9528   19.7107 C   0  0  0  0  0  0
  -30.2797  -20.2694   20.6411 C   0  0  0  0  0  0
  -30.1688  -17.3510   20.9920 C   0  0  0  0  0  0
  -30.4652  -19.6705   21.9247 C   0  0  0  0  0  0
  -28.9449  -17.5606   17.4467 C   0  0  0  0  0  0
  -29.5980  -17.1327   18.5401 C   0  0  0  0  0  0
  -35.1018  -19.6098   24.4703 C   0  0  0  0  0  0
  -34.2541  -19.5204   25.7504 C   0  0  0  0  0  0
  -34.2997  -19.5888   23.1568 C   0  0  0  0  0  0
  -33.3839  -20.7704   25.9604 C   0  0  0  0  0  0
  -33.1816  -20.6454   23.0506 C   0  0  0  0  0  0
  -32.0043  -20.7355   25.2661 C   0  0  0  0  0  0
  -30.6874  -20.4974   23.1995 C   0  0  0  0  0  0
  -30.4419  -21.8087   20.3541 C   0  0  0  0  0  0
  -29.4574  -24.1861   20.3507 C   0  0  0  0  0  0
  -28.2212  -25.0993   19.9844 C   0  0  0  0  0  0
  -29.8715  -15.8289   21.3183 C   0  0  0  0  0  0
  -31.9986  -20.2458   23.8576 N   0  3  0  0  0  0
  -29.2167  -22.6853   20.3063 N   0  3  0  0  0  0
  -30.0258  -15.6218   22.6277 F   0  0  0  0  0  0
  -28.5646  -15.7610   21.0749 F   0  0  0  0  0  0
  -31.4850  -12.5618   19.1205 H   0  0  0  0  0  0
  -30.4172  -11.4017   19.8554 H   0  0  0  0  0  0
  -29.7746  -11.7827   17.4617 H   0  0  0  0  0  0
  -29.6308  -13.4982   17.7477 H   0  0  0  0  0  0
  -27.8752  -11.2814   18.8549 H   0  0  0  0  0  0
  -27.3719  -12.5751   17.7970 H   0  0  0  0  0  0
  -27.6823  -14.2255   19.5238 H   0  0  0  0  0  0
  -28.7349  -11.9671   21.3133 H   0  0  0  0  0  0
  -28.4493  -13.5700   21.8899 H   0  0  0  0  0  0
  -25.2774   -9.5635   22.4754 H   0  0  0  0  0  0
  -23.9974   -7.4616   22.7483 H   0  0  0  0  0  0
  -21.0838   -8.8783   19.8947 H   0  0  0  0  0  0
  -22.3720  -10.9672   19.6156 H   0  0  0  0  0  0
  -21.2017   -7.6148   23.9697 H   0  0  0  0  0  0
  -21.1471   -6.0539   25.9075 H   0  0  0  0  0  0
  -22.0609   -2.7600   23.2856 H   0  0  0  0  0  0
  -22.4154  -11.9877   22.4756 H   0  0  0  0  0  0
  -21.1147  -13.1239   22.2598 H   0  0  0  0  0  0
  -24.6788  -15.8443   20.5321 H   0  0  0  0  0  0
  -26.3079  -15.6217   20.1434 H   0  0  0  0  0  0
  -26.7154  -32.5492   23.1111 H   0  0  0  0  0  0
  -25.0097  -33.9745   25.0469 H   0  0  0  0  0  0
  -22.7069  -31.3047   21.4057 H   0  0  0  0  0  0
  -23.3771  -35.9608   23.3289 H   0  0  0  0  0  0
  -24.3587  -36.8923   22.2053 H   0  0  0  0  0  0
  -23.7224  -37.6484   23.6659 H   0  0  0  0  0  0
  -26.0680  -31.5653   20.5944 H   0  0  0  0  0  0
  -26.8366  -30.8615   21.9873 H   0  0  0  0  0  0
  -28.1103  -29.0234   21.1830 H   0  0  0  0  0  0
  -25.9947  -25.9535   18.9844 H   0  0  0  0  0  0
  -23.9795  -27.3056   19.0112 H   0  0  0  0  0  0
  -23.7339  -30.5903   19.4032 H   0  0  0  0  0  0
  -22.7478  -29.2368   19.8696 H   0  0  0  0  0  0
  -25.1297  -36.1962   25.0828 H   0  0  0  0  0  0
  -20.9973  -28.3250   24.1416 H   0  0  0  0  0  0
  -20.5681  -26.2286   23.3598 H   0  0  0  0  0  0
  -21.6646  -26.7446   22.1206 H   0  0  0  0  0  0
  -19.6919  -25.6296   21.1235 H   0  0  0  0  0  0
  -19.6697  -27.3189   20.6732 H   0  0  0  0  0  0
  -17.4205  -26.6671   21.4016 H   0  0  0  0  0  0
  -18.0335  -26.0063   22.9012 H   0  0  0  0  0  0
  -19.7930  -30.7257   24.2283 H   0  0  0  0  0  0
  -17.5013  -31.6272   24.5145 H   0  0  0  0  0  0
  -15.5349  -30.2981   23.7642 H   0  0  0  0  0  0
  -15.8673  -28.0802   22.7077 H   0  0  0  0  0  0
  -24.5932  -30.7004   25.7733 H   0  0  0  0  0  0
  -24.8885  -32.2812   26.4868 H   0  0  0  0  0  0
  -25.8066  -30.8835   27.0190 H   0  0  0  0  0  0
  -26.2872  -29.6774   24.1160 H   0  0  0  0  0  0
  -27.4128  -29.7275   25.4539 H   0  0  0  0  0  0
  -27.8693  -30.4358   23.9225 H   0  0  0  0  0  0
  -27.2767  -33.3604   26.2017 H   0  0  0  0  0  0
  -28.3918  -32.6741   25.0289 H   0  0  0  0  0  0
  -28.0714  -31.8375   26.5396 H   0  0  0  0  0  0
  -28.2611  -38.0100   24.7521 H   0  0  0  0  0  0
  -28.1076  -36.2632   24.6310 H   0  0  0  0  0  0
  -27.2290  -37.1470   25.8872 H   0  0  0  0  0  0
  -20.9338  -29.8759   21.6908 H   0  0  0  0  0  0
  -26.0195  -38.2867   24.1392 H   0  0  0  0  0  0
  -29.9112  -19.8068   18.5831 H   0  0  0  0  0  0
  -30.5060  -17.8463   23.0660 H   0  0  0  0  0  0
  -28.7345  -16.8787   16.6342 H   0  0  0  0  0  0
  -28.6043  -18.5786   17.3325 H   0  0  0  0  0  0
  -29.8953  -16.0978   18.5423 H   0  0  0  0  0  0
  -35.8079  -18.7782   24.4585 H   0  0  0  0  0  0
  -35.7164  -20.5104   24.5078 H   0  0  0  0  0  0
  -34.9376  -19.4358   26.5971 H   0  0  0  0  0  0
  -33.6520  -18.6110   25.7693 H   0  0  0  0  0  0
  -33.8884  -18.5928   22.9851 H   0  0  0  0  0  0
  -35.0026  -19.7521   22.3384 H   0  0  0  0  0  0
  -33.9369  -21.6614   25.6592 H   0  0  0  0  0  0
  -33.2110  -20.9031   27.0297 H   0  0  0  0  0  0
  -32.9078  -20.7136   21.9979 H   0  0  0  0  0  0
  -33.5328  -21.6432   23.3190 H   0  0  0  0  0  0
  -31.5780  -21.7391   25.3063 H   0  0  0  0  0  0
  -31.3320  -20.1011   25.8462 H   0  0  0  0  0  0
  -29.8895  -20.2226   23.8917 H   0  0  0  0  0  0
  -30.5582  -21.5666   23.0376 H   0  0  0  0  0  0
  -30.9428  -21.9079   19.3899 H   0  0  0  0  0  0
  -31.1538  -22.2369   21.0584 H   0  0  0  0  0  0
  -29.7976  -24.4441   21.3544 H   0  0  0  0  0  0
  -30.2780  -24.4366   19.6775 H   0  0  0  0  0  0
  -27.3767  -24.7777   20.5959 H   0  0  0  0  0  0
  -27.9552  -24.8940   18.9463 H   0  0  0  0  0  0
  -32.0622  -19.2422   23.9242 H   0  0  0  0  0  0
  -28.6056  -22.4313   21.0658 H   0  0  0  0  0  0
  -28.7316  -22.4566   19.4523 H   0  0  0  0  0  0
  1 25  1  0  0  0
  1 30  2  0  0  0
  1 89  1  0  0  0
  2  3  1  0  0  0
  2 25  1  0  0  0
  2 94  1  0  0  0
  2 95  1  0  0  0
  3  4  1  0  0  0
  3 96  1  0  0  0
  3 97  1  0  0  0
  4  5  1  0  0  0
  4 98  1  0  0  0
  4 99  1  0  0  0
  5  6  1  0  0  0
  5 26  1  0  0  0
  5100  1  0  0  0
  6 25  1  0  0  0
  6101  1  0  0  0
  6102  1  0  0  0
  7  8  2  0  0  0
  7 26  1  0  0  0
  7 29  1  0  0  0
  8  9  1  0  0  0
  8 22  1  0  0  0
  9 10  1  0  0  0
  9 27  2  0  0  0
 10 11  2  0  0  0
 10 15  1  0  0  0
 11 12  1  0  0  0
 11103  1  0  0  0
 12 13  2  0  0  0
 12104  1  0  0  0
 13 14  1  0  0  0
 13 31  1  0  0  0
 14 15  2  0  0  0
 14105  1  0  0  0
 15106  1  0  0  0
 16 17  2  0  0  0
 16 21  1  0  0  0
 16 31  1  0  0  0
 17 18  1  0  0  0
 17107  1  0  0  0
 18 19  2  0  0  0
 18108  1  0  0  0
 19 20  1  0  0  0
 19 24  1  0  0  0
 20 21  2  0  0  0
 20109  1  0  0  0
 21 23  1  0  0  0
 22 28  1  0  0  0
 22 32  2  0  0  0
 26 27  1  0  0  0
 28110  1  0  0  0
 28111  1  0  0  0
 29112  1  0  0  0
 29113  1  0  0  0
 33 34  1  0  0  0
 33 66  1  0  0  0
 33 70  2  0  0  0
 34 36  1  0  0  0
 34 59  1  0  0  0
 34114  1  0  0  0
 35 44  2  0  0  0
 35 45  1  0  0  0
 35 68  1  0  0  0
 36 56  1  0  0  0
 36115  1  0  0  0
 37 39  1  0  0  0
 37 47  1  0  0  0
 37 66  1  0  0  0
 37116  1  0  0  0
 38 43  2  0  0  0
 38 46  1  0  0  0
 38 47  1  0  0  0
 39 64  1  0  0  0
 39 67  2  0  0  0
 40 52  1  0  0  0
 40 53  2  0  0  0
 40 58  1  0  0  0
 41117  1  0  0  0
 41118  1  0  0  0
 41119  1  0  0  0
 41 48  1  0  0  0
 42 43  1  0  0  0
 42 66  1  0  0  0
 42120  1  0  0  0
 42121  1  0  0  0
 43 44  1  0  0  0
 44122  1  0  0  0
 45 46  2  0  0  0
 45123  1  0  0  0
 46124  1  0  0  0
 47125  1  0  0  0
 47126  1  0  0  0
 48 56  1  0  0  0
 48 65  1  0  0  0
 48127  1  0  0  0
 49 50  1  0  0  0
 49 53  1  0  0  0
 49 64  1  0  0  0
 49128  1  0  0  0
 50 51  1  0  0  0
 50129  1  0  0  0
 50130  1  0  0  0
 51 52  1  0  0  0
 51131  1  0  0  0
 51132  1  0  0  0
 52133  1  0  0  0
 52134  1  0  0  0
 53 54  1  0  0  0
 54 55  2  0  0  0
 54135  1  0  0  0
 55 57  1  0  0  0
 55136  1  0  0  0
 56 69  2  0  0  0
 57 58  2  0  0  0
 57137  1  0  0  0
 58138  1  0  0  0
 59 60  1  0  0  0
 59 61  1  0  0  0
 59 62  1  0  0  0
 60139  1  0  0  0
 60140  1  0  0  0
 60141  1  0  0  0
 61142  1  0  0  0
 61143  1  0  0  0
 61144  1  0  0  0
 62145  1  0  0  0
 62146  1  0  0  0
 62147  1  0  0  0
 63 65  1  0  0  0
 63148  1  0  0  0
 63149  1  0  0  0
 63150  1  0  0  0
 64151  1  0  0  0
 65152  1  0  0  0
 68 88  1  0  0  0
 71 73  2  0  0  0
 71 74  1  0  0  0
 71153  1  0  0  0
 72 75  2  0  0  0
 72 76  1  0  0  0
 72154  1  0  0  0
 73 75  1  0  0  0
 73 78  1  0  0  0
 74 76  2  0  0  0
 74 86  1  0  0  0
 75 89  1  0  0  0
 76 85  1  0  0  0
 77 78  2  0  0  0
 77155  1  0  0  0
 77156  1  0  0  0
 78157  1  0  0  0
 79 80  1  0  0  0
 79 81  1  0  0  0
 79158  1  0  0  0
 79159  1  0  0  0
 80 82  1  0  0  0
 80160  1  0  0  0
 80161  1  0  0  0
 81 83  1  0  0  0
 81162  1  0  0  0
 81163  1  0  0  0
 82 84  1  0  0  0
 82164  1  0  0  0
 82165  1  0  0  0
 83 90  1  0  0  0
 83166  1  0  0  0
 83167  1  0  0  0
 84 90  1  0  0  0
 84168  1  0  0  0
 84169  1  0  0  0
 85170  1  0  0  0
 85171  1  0  0  0
 85 90  1  0  0  0
 86 91  1  0  0  0
 86172  1  0  0  0
 86173  1  0  0  0
 87 88  1  0  0  0
 87 91  1  0  0  0
 87174  1  0  0  0
 87175  1  0  0  0
 88176  1  0  0  0
 88177  1  0  0  0
 89 92  1  0  0  0
 89 93  1  0  0  0
 90178  1  0  0  0
 91179  1  0  0  0
 91180  1  0  0  0
M  CHG  2  90   1  91   1
M  ISO  4   1 100  68 101  88 101  89 100
M  END
> <chiral flag>
0

> <version>
0

> <s_m_source_file>
/data/baiqing/PycharmProjects/Reinvent-master-3.2/result/LINK_invent/BTK/process_docking_weight1_custom_product_contain_oxygen_bond_distance_aromatic_linkinvent_7_9_3/rearranged_h_0040.sdf

> <i_m_source_file_index>
90

> <r_mmod_Potential_Energy-OPLS-2005>
-41.8977432250977

> <r_mmod_Stretch_Energy-OPLS-2005>
82.9603424072266

> <r_mmod_Bend_Energy-OPLS-2005>
153.843933105469

> <r_mmod_Torsional_Energy-OPLS-2005>
214.476379394531

> <r_mmod_Improper_Torsional_Energy-OPLS-2005>
4.00927734375

> <r_mmod_Van_der_Waal_Energy-OPLS-2005>
155.360687255859

> <r_mmod_Electrostatic_Energy-OPLS-2005>
205.361801147461

> <r_mmod_Solvation_Energy-OPLS-2005>
-893.936340332031

> <b_mmod_Minimization_Converged-OPLS-2005>
0

> <r_mmod_RMS_Derivative-OPLS-2005>
1.51555252075195

$$$$
90
                    3D
 Structure written by MMmdl.
165173  0  0  1  0            999 V2000
  -30.6267  -14.5507   20.5498 C   0  0  0  0  0  0
  -30.4463  -12.3484   19.4207 C   0  0  0  0  0  0
  -29.5040  -12.4942   18.2053 C   0  0  0  0  0  0
  -28.0234  -12.3415   18.6180 C   0  0  0  0  0  0
  -27.6575  -13.1939   19.8616 C   0  0  2  0  0  0
  -28.7021  -12.9876   20.9795 C   0  0  0  0  0  0
  -25.2611  -13.8133   20.5655 C   0  0  0  0  0  0
  -24.1848  -13.0437   20.9173 C   0  0  0  0  0  0
  -24.6374  -11.6894   20.8730 C   0  0  0  0  0  0
  -23.9038  -10.4293   21.0414 C   0  0  0  0  0  0
  -24.3596   -9.4213   21.9192 C   0  0  0  0  0  0
  -23.6281   -8.2243   22.0761 C   0  0  0  0  0  0
  -22.4267   -8.0279   21.3547 C   0  0  0  0  0  0
  -21.9894   -9.0250   20.4652 C   0  0  0  0  0  0
  -22.7214  -10.2133   20.3064 C   0  0  0  0  0  0
  -21.6848   -6.0736   22.5283 C   0  0  0  0  0  0
  -21.4006   -6.5641   23.8215 C   0  0  0  0  0  0
  -21.3657   -5.6792   24.9175 C   0  0  0  0  0  0
  -21.6047   -4.3058   24.7224 C   0  0  0  0  0  0
  -21.8819   -3.8149   23.4346 C   0  0  0  0  0  0
  -21.9189   -4.6965   22.3402 C   0  0  0  0  0  0
  -22.7880  -13.5261   21.1838 C   0  0  0  0  0  0
  -22.1663   -4.2152   21.0980 F   0  0  0  0  0  0
  -21.5627   -3.4543   25.7736 F   0  0  0  0  0  0
  -30.0218  -13.3348   20.4246 N   0  0  0  0  0  0
  -26.3005  -12.9256   20.3293 N   0  0  0  0  0  0
  -25.9290  -11.6437   20.5736 N   0  0  0  0  0  0
  -22.0499  -12.8258   22.0386 N   0  0  0  0  0  0
  -25.4383  -15.1845   20.4045 N   0  0  0  0  0  0
  -31.7861  -14.7631   20.1807 O   0  0  0  0  0  0
  -21.6633   -6.8876   21.4246 O   0  0  0  0  0  0
  -22.3579  -14.5573   20.6691 O   0  0  0  0  0  0
  -24.6173  -31.8649   23.2066 C   0  0  0  0  0  0
  -25.9056  -32.4803   23.8377 C   0  0  1  0  0  0
  -27.2349  -27.3915   20.1141 C   0  0  0  0  0  0
  -25.5914  -33.8604   24.2309 N   0  0  0  0  0  0
  -23.4079  -30.4841   21.5492 C   0  0  2  0  0  0
  -24.8556  -28.9382   20.1208 C   0  0  0  0  0  0
  -22.7425  -29.4632   22.5004 C   0  0  0  0  0  0
  -18.0270  -28.1340   22.8487 C   0  0  0  0  0  0
  -24.1486  -36.7305   23.2640 C   0  0  0  0  0  0
  -25.9402  -30.8170   21.3644 C   0  0  0  0  0  0
  -26.0183  -29.4454   20.7154 C   0  0  0  0  0  0
  -27.2142  -28.6825   20.7009 C   0  0  0  0  0  0
  -26.0565  -26.9031   19.5151 C   0  0  0  0  0  0
  -24.8713  -27.6688   19.5148 C   0  0  0  0  0  0
  -23.6184  -29.8109   20.1669 C   0  0  0  0  0  0
  -25.4109  -36.3098   24.0335 C   0  0  1  0  0  0
  -20.5864  -28.3643   23.1305 C   0  0  2  0  0  0
  -20.6767  -26.9378   22.5407 C   0  0  0  0  0  0
  -19.5754  -26.6360   21.5196 C   0  0  0  0  0  0
  -18.1925  -26.7887   22.1607 C   0  0  0  0  0  0
  -19.1518  -28.8805   23.2887 C   0  0  0  0  0  0
  -18.9452  -30.1411   23.8895 C   0  0  0  0  0  0
  -17.6459  -30.6561   24.0543 C   0  0  0  0  0  0
  -25.9036  -34.9465   23.5115 C   0  0  0  0  0  0
  -16.5345  -29.9056   23.6314 C   0  0  0  0  0  0
  -16.7255  -28.6466   23.0342 C   0  0  0  0  0  0
  -26.4464  -31.6598   25.0721 C   0  0  0  0  0  0
  -25.3729  -31.3712   26.1471 C   0  0  0  0  0  0
  -27.0286  -30.3044   24.6089 C   0  0  0  0  0  0
  -27.6028  -32.4343   25.7484 C   0  0  0  0  0  0
  -27.5578  -37.1802   24.8465 C   0  0  0  0  0  0
  -21.4150  -29.3015   22.3729 N   0  0  0  0  0  0
  -26.4294  -37.3783   23.9405 N   0  0  0  0  0  0
  -24.6735  -31.0703   22.0989 N   0  0  0  0  0  0
  -23.4178  -28.8186   23.3072 O   0  0  0  0  0  0
  -28.3916  -26.6332   20.0734 O   0  0  0  0  0  0
  -26.5594  -34.8922   22.4670 O   0  0  0  0  0  0
  -23.5360  -32.1432   23.7437 O   0  0  0  0  0  0
  -29.9601  -18.1630   23.5110 C   0  0  0  0  0  0
  -30.0396  -18.0383   20.7226 C   0  0  0  0  0  0
  -30.0583  -19.3642   22.7775 C   0  0  0  0  0  0
  -29.9180  -16.9059   22.8813 C   0  0  0  0  0  0
  -30.0850  -19.3235   21.3542 C   0  0  0  0  0  0
  -29.9777  -16.8238   21.4722 C   0  0  0  0  0  0
  -29.7838  -15.6605   23.7447 C   0  0  0  0  0  0
  -31.3574  -20.7089   24.5158 C   0  0  0  0  0  0
  -30.1377  -20.6565   23.5857 C   0  0  0  0  0  0
  -30.2755  -20.6141   20.5055 C   0  0  0  0  0  0
  -28.5481  -24.0656   20.0953 C   0  0  0  0  0  0
  -29.1127  -22.8758   20.9530 C   0  0  0  0  0  0
  -28.4213  -25.4225   20.8707 C   0  0  0  0  0  0
  -29.7597  -15.5478   20.8550 N   0  0  0  0  0  0
  -29.0921  -21.5174   20.3038 N   0  3  0  0  0  0
  -31.4838  -12.4936   19.1133 H   0  0  0  0  0  0
  -30.3933  -11.3414   19.8377 H   0  0  0  0  0  0
  -29.7584  -11.7538   17.4451 H   0  0  0  0  0  0
  -29.6527  -13.4702   17.7416 H   0  0  0  0  0  0
  -27.8445  -11.2867   18.8295 H   0  0  0  0  0  0
  -27.3724  -12.5951   17.7804 H   0  0  0  0  0  0
  -27.6927  -14.2352   19.5439 H   0  0  0  0  0  0
  -28.7018  -11.9487   21.3119 H   0  0  0  0  0  0
  -28.4519  -13.5738   21.8634 H   0  0  0  0  0  0
  -25.2739   -9.5696   22.4763 H   0  0  0  0  0  0
  -23.9995   -7.4636   22.7480 H   0  0  0  0  0  0
  -21.0826   -8.8767   19.8952 H   0  0  0  0  0  0
  -22.3677  -10.9671   19.6174 H   0  0  0  0  0  0
  -21.1997   -7.6146   23.9720 H   0  0  0  0  0  0
  -21.1481   -6.0521   25.9078 H   0  0  0  0  0  0
  -22.0599   -2.7613   23.2845 H   0  0  0  0  0  0
  -22.4073  -11.9897   22.4753 H   0  0  0  0  0  0
  -21.1132  -13.1325   22.2598 H   0  0  0  0  0  0
  -24.6748  -15.8444   20.5080 H   0  0  0  0  0  0
  -26.2874  -15.6166   20.0635 H   0  0  0  0  0  0
  -26.7124  -32.5498   23.1137 H   0  0  0  0  0  0
  -25.0111  -33.9780   25.0486 H   0  0  0  0  0  0
  -22.6969  -31.3012   21.4053 H   0  0  0  0  0  0
  -23.3743  -35.9641   23.3318 H   0  0  0  0  0  0
  -24.3594  -36.8911   22.2055 H   0  0  0  0  0  0
  -23.7246  -37.6518   23.6645 H   0  0  0  0  0  0
  -26.0530  -31.5793   20.5917 H   0  0  0  0  0  0
  -26.8279  -30.8759   21.9833 H   0  0  0  0  0  0
  -28.1162  -29.0743   21.1475 H   0  0  0  0  0  0
  -26.0561  -25.9322   19.0397 H   0  0  0  0  0  0
  -23.9782  -27.2720   19.0520 H   0  0  0  0  0  0
  -23.7284  -30.5833   19.4050 H   0  0  0  0  0  0
  -22.7400  -29.2328   19.8740 H   0  0  0  0  0  0
  -25.1280  -36.1964   25.0828 H   0  0  0  0  0  0
  -20.9930  -28.3196   24.1436 H   0  0  0  0  0  0
  -20.5652  -26.2248   23.3595 H   0  0  0  0  0  0
  -21.6640  -26.7414   22.1207 H   0  0  0  0  0  0
  -19.6921  -25.6271   21.1228 H   0  0  0  0  0  0
  -19.6689  -27.3164   20.6720 H   0  0  0  0  0  0
  -17.4194  -26.6625   21.4007 H   0  0  0  0  0  0
  -18.0332  -26.0004   22.8981 H   0  0  0  0  0  0
  -19.7924  -30.7210   24.2280 H   0  0  0  0  0  0
  -17.5009  -31.6247   24.5132 H   0  0  0  0  0  0
  -15.5340  -30.2957   23.7628 H   0  0  0  0  0  0
  -15.8655  -28.0778   22.7064 H   0  0  0  0  0  0
  -24.5902  -30.7053   25.7823 H   0  0  0  0  0  0
  -24.8910  -32.2863   26.4919 H   0  0  0  0  0  0
  -25.8088  -30.8891   27.0231 H   0  0  0  0  0  0
  -26.2821  -29.6836   24.1123 H   0  0  0  0  0  0
  -27.4044  -29.7249   25.4531 H   0  0  0  0  0  0
  -27.8658  -30.4368   23.9236 H   0  0  0  0  0  0
  -27.2627  -33.3645   26.2057 H   0  0  0  0  0  0
  -28.3829  -32.6930   25.0308 H   0  0  0  0  0  0
  -28.0701  -31.8482   26.5409 H   0  0  0  0  0  0
  -28.2581  -38.0108   24.7515 H   0  0  0  0  0  0
  -28.1082  -36.2640   24.6276 H   0  0  0  0  0  0
  -27.2305  -37.1447   25.8871 H   0  0  0  0  0  0
  -20.9319  -29.8731   21.6947 H   0  0  0  0  0  0
  -26.0179  -38.2855   24.1412 H   0  0  0  0  0  0
  -29.9131  -18.2075   24.5904 H   0  0  0  0  0  0
  -30.0504  -17.9808   19.6429 H   0  0  0  0  0  0
  -29.7611  -15.9110   24.8051 H   0  0  0  0  0  0
  -30.6257  -14.9864   23.5830 H   0  0  0  0  0  0
  -28.8604  -15.1297   23.5159 H   0  0  0  0  0  0
  -31.3862  -21.6548   25.0578 H   0  0  0  0  0  0
  -32.2865  -20.6261   23.9521 H   0  0  0  0  0  0
  -31.3396  -19.9101   25.2572 H   0  0  0  0  0  0
  -29.2226  -20.7515   24.1738 H   0  0  0  0  0  0
  -30.1750  -21.5338   22.9531 H   0  0  0  0  0  0
  -30.5901  -20.3010   19.5095 H   0  0  0  0  0  0
  -31.1349  -21.1672   20.8859 H   0  0  0  0  0  0
  -27.5716  -23.8045   19.6878 H   0  0  0  0  0  0
  -29.2074  -24.2120   19.2398 H   0  0  0  0  0  0
  -28.5504  -22.8062   21.8847 H   0  0  0  0  0  0
  -30.1333  -23.1326   21.2373 H   0  0  0  0  0  0
  -29.2917  -25.5270   21.5193 H   0  0  0  0  0  0
  -27.5644  -25.3786   21.5453 H   0  0  0  0  0  0
  -28.8264  -15.1896   20.9838 H   0  0  0  0  0  0
  -28.2524  -21.0240   20.5578 H   0  0  0  0  0  0
  -29.0437  -21.6679   19.3095 H   0  0  0  0  0  0
  1 25  1  0  0  0
  1 30  2  0  0  0
  1 84  1  0  0  0
  2  3  1  0  0  0
  2 25  1  0  0  0
  2 86  1  0  0  0
  2 87  1  0  0  0
  3  4  1  0  0  0
  3 88  1  0  0  0
  3 89  1  0  0  0
  4  5  1  0  0  0
  4 90  1  0  0  0
  4 91  1  0  0  0
  5  6  1  0  0  0
  5 26  1  0  0  0
  5 92  1  0  0  0
  6 25  1  0  0  0
  6 93  1  0  0  0
  6 94  1  0  0  0
  7  8  2  0  0  0
  7 26  1  0  0  0
  7 29  1  0  0  0
  8  9  1  0  0  0
  8 22  1  0  0  0
  9 10  1  0  0  0
  9 27  2  0  0  0
 10 11  2  0  0  0
 10 15  1  0  0  0
 11 12  1  0  0  0
 11 95  1  0  0  0
 12 13  2  0  0  0
 12 96  1  0  0  0
 13 14  1  0  0  0
 13 31  1  0  0  0
 14 15  2  0  0  0
 14 97  1  0  0  0
 15 98  1  0  0  0
 16 17  2  0  0  0
 16 21  1  0  0  0
 16 31  1  0  0  0
 17 18  1  0  0  0
 17 99  1  0  0  0
 18 19  2  0  0  0
 18100  1  0  0  0
 19 20  1  0  0  0
 19 24  1  0  0  0
 20 21  2  0  0  0
 20101  1  0  0  0
 21 23  1  0  0  0
 22 28  1  0  0  0
 22 32  2  0  0  0
 26 27  1  0  0  0
 28102  1  0  0  0
 28103  1  0  0  0
 29104  1  0  0  0
 29105  1  0  0  0
 33 34  1  0  0  0
 33 66  1  0  0  0
 33 70  2  0  0  0
 34 36  1  0  0  0
 34 59  1  0  0  0
 34106  1  0  0  0
 35 44  2  0  0  0
 35 45  1  0  0  0
 35 68  1  0  0  0
 36 56  1  0  0  0
 36107  1  0  0  0
 37 39  1  0  0  0
 37 47  1  0  0  0
 37 66  1  0  0  0
 37108  1  0  0  0
 38 43  2  0  0  0
 38 46  1  0  0  0
 38 47  1  0  0  0
 39 64  1  0  0  0
 39 67  2  0  0  0
 40 52  1  0  0  0
 40 53  2  0  0  0
 40 58  1  0  0  0
 41109  1  0  0  0
 41110  1  0  0  0
 41111  1  0  0  0
 41 48  1  0  0  0
 42 43  1  0  0  0
 42 66  1  0  0  0
 42112  1  0  0  0
 42113  1  0  0  0
 43 44  1  0  0  0
 44114  1  0  0  0
 45 46  2  0  0  0
 45115  1  0  0  0
 46116  1  0  0  0
 47117  1  0  0  0
 47118  1  0  0  0
 48 56  1  0  0  0
 48 65  1  0  0  0
 48119  1  0  0  0
 49 50  1  0  0  0
 49 53  1  0  0  0
 49 64  1  0  0  0
 49120  1  0  0  0
 50 51  1  0  0  0
 50121  1  0  0  0
 50122  1  0  0  0
 51 52  1  0  0  0
 51123  1  0  0  0
 51124  1  0  0  0
 52125  1  0  0  0
 52126  1  0  0  0
 53 54  1  0  0  0
 54 55  2  0  0  0
 54127  1  0  0  0
 55 57  1  0  0  0
 55128  1  0  0  0
 56 69  2  0  0  0
 57 58  2  0  0  0
 57129  1  0  0  0
 58130  1  0  0  0
 59 60  1  0  0  0
 59 61  1  0  0  0
 59 62  1  0  0  0
 60131  1  0  0  0
 60132  1  0  0  0
 60133  1  0  0  0
 61134  1  0  0  0
 61135  1  0  0  0
 61136  1  0  0  0
 62137  1  0  0  0
 62138  1  0  0  0
 62139  1  0  0  0
 63 65  1  0  0  0
 63140  1  0  0  0
 63141  1  0  0  0
 63142  1  0  0  0
 64143  1  0  0  0
 65144  1  0  0  0
 68 83  1  0  0  0
 71 73  2  0  0  0
 71 74  1  0  0  0
 71145  1  0  0  0
 72 75  2  0  0  0
 72 76  1  0  0  0
 72146  1  0  0  0
 73 75  1  0  0  0
 73 79  1  0  0  0
 74 76  2  0  0  0
 74 77  1  0  0  0
 75 80  1  0  0  0
 76 84  1  0  0  0
 77147  1  0  0  0
 77148  1  0  0  0
 77149  1  0  0  0
 78 79  1  0  0  0
 78150  1  0  0  0
 78151  1  0  0  0
 78152  1  0  0  0
 79153  1  0  0  0
 79154  1  0  0  0
 80 85  1  0  0  0
 80155  1  0  0  0
 80156  1  0  0  0
 81 82  1  0  0  0
 81 83  1  0  0  0
 81157  1  0  0  0
 81158  1  0  0  0
 82 85  1  0  0  0
 82159  1  0  0  0
 82160  1  0  0  0
 83161  1  0  0  0
 83162  1  0  0  0
 84163  1  0  0  0
 85164  1  0  0  0
 85165  1  0  0  0
M  CHG  1  85   1
M  ISO  4   1 100  68 101  83 101  84 100
M  END
> <chiral flag>
0

> <version>
0

> <s_m_source_file>
/data/baiqing/PycharmProjects/Reinvent-master-3.2/result/LINK_invent/BTK/process_docking_weight1_custom_product_contain_oxygen_bond_distance_aromatic_linkinvent_7_9_3/rearranged_h_0040.sdf

> <i_m_source_file_index>
91

> <r_mmod_Potential_Energy-OPLS-2005>
-190.235656738281

> <r_mmod_Stretch_Energy-OPLS-2005>
51.825267791748

> <r_mmod_Bend_Energy-OPLS-2005>
117.56031036377

> <r_mmod_Torsional_Energy-OPLS-2005>
273.242279052734

> <r_mmod_Improper_Torsional_Energy-OPLS-2005>
9.15113162994385

> <r_mmod_Van_der_Waal_Energy-OPLS-2005>
141.060134887695

> <r_mmod_Electrostatic_Energy-OPLS-2005>
-336.934997558594

> <r_mmod_Solvation_Energy-OPLS-2005>
-469.846221923828

> <b_mmod_Minimization_Converged-OPLS-2005>
0

> <r_mmod_RMS_Derivative-OPLS-2005>
1.76208639144897

$$$$
91
                    3D
 Structure written by MMmdl.
173182  0  0  1  0            999 V2000
  -30.6444  -14.5461   20.5653 C   0  0  0  0  0  0
  -30.4434  -12.3534   19.4213 C   0  0  0  0  0  0
  -29.5011  -12.5060   18.2073 C   0  0  0  0  0  0
  -28.0237  -12.3500   18.6249 C   0  0  0  0  0  0
  -27.6608  -13.1999   19.8714 C   0  0  2  0  0  0
  -28.7061  -12.9920   20.9905 C   0  0  0  0  0  0
  -25.2606  -13.8139   20.5682 C   0  0  0  0  0  0
  -24.1846  -13.0433   20.9178 C   0  0  0  0  0  0
  -24.6383  -11.6892   20.8731 C   0  0  0  0  0  0
  -23.9042  -10.4290   21.0405 C   0  0  0  0  0  0
  -24.3596   -9.4211   21.9186 C   0  0  0  0  0  0
  -23.6278   -8.2243   22.0753 C   0  0  0  0  0  0
  -22.4263   -8.0274   21.3542 C   0  0  0  0  0  0
  -21.9895   -9.0246   20.4643 C   0  0  0  0  0  0
  -22.7215  -10.2130   20.3054 C   0  0  0  0  0  0
  -21.6850   -6.0727   22.5279 C   0  0  0  0  0  0
  -21.4013   -6.5634   23.8213 C   0  0  0  0  0  0
  -21.3662   -5.6788   24.9177 C   0  0  0  0  0  0
  -21.6044   -4.3052   24.7232 C   0  0  0  0  0  0
  -21.8819   -3.8142   23.4350 C   0  0  0  0  0  0
  -21.9192   -4.6956   22.3404 C   0  0  0  0  0  0
  -22.7875  -13.5247   21.1843 C   0  0  0  0  0  0
  -22.1661   -4.2142   21.0983 F   0  0  0  0  0  0
  -21.5631   -3.4535   25.7744 F   0  0  0  0  0  0
  -30.0265  -13.3367   20.4343 N   0  0  0  0  0  0
  -26.3023  -12.9287   20.3352 N   0  0  0  0  0  0
  -25.9309  -11.6459   20.5761 N   0  0  0  0  0  0
  -22.0500  -12.8245   22.0393 N   0  0  0  0  0  0
  -25.4357  -15.1854   20.4095 N   0  0  0  0  0  0
  -31.7872  -14.7593   20.1477 O   0  0  0  0  0  0
  -21.6632   -6.8867   21.4238 O   0  0  0  0  0  0
  -22.3576  -14.5560   20.6694 O   0  0  0  0  0  0
  -24.6207  -31.8648   23.2073 C   0  0  0  0  0  0
  -25.9080  -32.4809   23.8380 C   0  0  1  0  0  0
  -27.2317  -27.3794   20.0922 C   0  0  0  0  0  0
  -25.5923  -33.8607   24.2306 N   0  0  0  0  0  0
  -23.4097  -30.4909   21.5487 C   0  0  2  0  0  0
  -24.8546  -28.9553   20.1135 C   0  0  0  0  0  0
  -22.7439  -29.4649   22.4951 C   0  0  0  0  0  0
  -18.0277  -28.1384   22.8477 C   0  0  0  0  0  0
  -24.1493  -36.7318   23.2634 C   0  0  0  0  0  0
  -25.9460  -30.8148   21.3670 C   0  0  0  0  0  0
  -26.0217  -29.4462   20.7110 C   0  0  0  0  0  0
  -27.2099  -28.6680   20.6953 C   0  0  0  0  0  0
  -26.0295  -26.9196   19.4980 C   0  0  0  0  0  0
  -24.8566  -27.6932   19.5049 C   0  0  0  0  0  0
  -23.6212  -29.8293   20.1625 C   0  0  0  0  0  0
  -25.4113  -36.3101   24.0325 C   0  0  1  0  0  0
  -20.5874  -28.3681   23.1294 C   0  0  2  0  0  0
  -20.6777  -26.9414   22.5406 C   0  0  0  0  0  0
  -19.5755  -26.6386   21.5206 C   0  0  0  0  0  0
  -18.1929  -26.7926   22.1608 C   0  0  0  0  0  0
  -19.1529  -28.8842   23.2883 C   0  0  0  0  0  0
  -18.9460  -30.1444   23.8901 C   0  0  0  0  0  0
  -17.6468  -30.6591   24.0562 C   0  0  0  0  0  0
  -25.9041  -34.9467   23.5109 C   0  0  0  0  0  0
  -16.5355  -29.9099   23.6320 C   0  0  0  0  0  0
  -16.7269  -28.6516   23.0336 C   0  0  0  0  0  0
  -26.4492  -31.6600   25.0721 C   0  0  0  0  0  0
  -25.3745  -31.3720   26.1458 C   0  0  0  0  0  0
  -27.0353  -30.3044   24.6121 C   0  0  0  0  0  0
  -27.6043  -32.4341   25.7508 C   0  0  0  0  0  0
  -27.5583  -37.1812   24.8457 C   0  0  0  0  0  0
  -21.4158  -29.3055   22.3704 N   0  0  0  0  0  0
  -26.4296  -37.3788   23.9403 N   0  0  0  0  0  0
  -24.6780  -31.0715   22.0993 N   0  0  0  0  0  0
  -23.4197  -28.8160   23.2977 O   0  0  0  0  0  0
  -28.4002  -26.6125   20.1115 O   0  0  0  0  0  0
  -26.5602  -34.8920   22.4669 O   0  0  0  0  0  0
  -23.5387  -32.1417   23.7441 O   0  0  0  0  0  0
  -30.3092  -18.3483   23.4116 C   0  0  0  0  0  0
  -30.3321  -17.9749   20.6433 C   0  0  0  0  0  0
  -30.5606  -19.4543   22.5717 C   0  0  0  0  0  0
  -30.0886  -17.0597   22.8905 C   0  0  0  0  0  0
  -30.5432  -19.2963   21.1579 C   0  0  0  0  0  0
  -30.1355  -16.8477   21.4949 C   0  0  0  0  0  0
  -28.7715  -21.9054   20.5518 C   0  0  0  0  0  0
  -27.8957  -20.9735   20.1343 C   0  0  0  0  0  0
  -28.3583  -23.1317   21.3811 C   0  0  0  0  0  0
  -27.6113  -24.2477   20.5841 C   0  0  0  0  0  0
  -30.8053  -24.4171   20.2644 C   0  0  0  0  0  0
  -29.7751  -24.7438   19.1622 C   0  0  0  0  0  0
  -31.1953  -22.9216   20.5283 C   0  0  0  0  0  0
  -28.3825  -25.2311   19.6381 C   0  0  2  0  0  0
  -30.8842  -20.7745   23.2458 C   0  0  0  0  0  0
  -29.8080  -15.9139   23.8500 C   0  0  0  0  0  0
  -30.9116  -20.4491   20.1713 C   0  0  0  0  0  0
  -29.8266  -15.5364   20.9997 N   0  0  0  0  0  0
  -30.2390  -21.8128   20.1712 N   0  3  1  0  0  0
  -31.4811  -12.4942   19.1125 H   0  0  0  0  0  0
  -30.3874  -11.3441   19.8309 H   0  0  0  0  0  0
  -29.7525  -11.7701   17.4423 H   0  0  0  0  0  0
  -29.6492  -13.4849   17.7488 H   0  0  0  0  0  0
  -27.8503  -11.2940   18.8364 H   0  0  0  0  0  0
  -27.3679  -12.6025   17.7914 H   0  0  0  0  0  0
  -27.6984  -14.2439   19.5605 H   0  0  0  0  0  0
  -28.7073  -11.9522   21.3213 H   0  0  0  0  0  0
  -28.4586  -13.5765   21.8781 H   0  0  0  0  0  0
  -25.2738   -9.5696   22.4762 H   0  0  0  0  0  0
  -23.9993   -7.4637   22.7472 H   0  0  0  0  0  0
  -21.0830   -8.8755   19.8947 H   0  0  0  0  0  0
  -22.3667  -10.9665   19.6163 H   0  0  0  0  0  0
  -21.2001   -7.6143   23.9715 H   0  0  0  0  0  0
  -21.1487   -6.0520   25.9081 H   0  0  0  0  0  0
  -22.0595   -2.7602   23.2855 H   0  0  0  0  0  0
  -22.4084  -11.9888   22.4773 H   0  0  0  0  0  0
  -21.1123  -13.1295   22.2591 H   0  0  0  0  0  0
  -24.6699  -15.8420   20.5139 H   0  0  0  0  0  0
  -26.2888  -15.6241   20.0860 H   0  0  0  0  0  0
  -26.7144  -32.5501   23.1135 H   0  0  0  0  0  0
  -25.0087  -33.9766   25.0463 H   0  0  0  0  0  0
  -22.7001  -31.3089   21.4097 H   0  0  0  0  0  0
  -23.3745  -35.9660   23.3294 H   0  0  0  0  0  0
  -24.3580  -36.8956   22.2049 H   0  0  0  0  0  0
  -23.7264  -37.6522   23.6665 H   0  0  0  0  0  0
  -26.0616  -31.5790   20.5968 H   0  0  0  0  0  0
  -26.8324  -30.8688   21.9865 H   0  0  0  0  0  0
  -28.1087  -29.0463   21.1623 H   0  0  0  0  0  0
  -25.9478  -25.9529   19.0283 H   0  0  0  0  0  0
  -23.9574  -27.3067   19.0448 H   0  0  0  0  0  0
  -23.7382  -30.6070   19.4072 H   0  0  0  0  0  0
  -22.7422  -29.2569   19.8595 H   0  0  0  0  0  0
  -25.1296  -36.1957   25.0818 H   0  0  0  0  0  0
  -20.9957  -28.3263   24.1419 H   0  0  0  0  0  0
  -20.5694  -26.2291   23.3600 H   0  0  0  0  0  0
  -21.6647  -26.7469   22.1195 H   0  0  0  0  0  0
  -19.6924  -25.6297   21.1238 H   0  0  0  0  0  0
  -19.6700  -27.3188   20.6730 H   0  0  0  0  0  0
  -17.4204  -26.6663   21.4008 H   0  0  0  0  0  0
  -18.0329  -26.0071   22.9005 H   0  0  0  0  0  0
  -19.7941  -30.7242   24.2288 H   0  0  0  0  0  0
  -17.5034  -31.6271   24.5167 H   0  0  0  0  0  0
  -15.5359  -30.3013   23.7646 H   0  0  0  0  0  0
  -15.8660  -28.0855   22.7042 H   0  0  0  0  0  0
  -24.5912  -30.7075   25.7799 H   0  0  0  0  0  0
  -24.8937  -32.2884   26.4888 H   0  0  0  0  0  0
  -25.8083  -30.8901   27.0230 H   0  0  0  0  0  0
  -26.2925  -29.6775   24.1170 H   0  0  0  0  0  0
  -27.4133  -29.7303   25.4592 H   0  0  0  0  0  0
  -27.8746  -30.4372   23.9289 H   0  0  0  0  0  0
  -27.2637  -33.3639   26.2076 H   0  0  0  0  0  0
  -28.3863  -32.6914   25.0354 H   0  0  0  0  0  0
  -28.0689  -31.8474   26.5440 H   0  0  0  0  0  0
  -28.2583  -38.0127   24.7525 H   0  0  0  0  0  0
  -28.1106  -36.2658   24.6273 H   0  0  0  0  0  0
  -27.2293  -37.1453   25.8856 H   0  0  0  0  0  0
  -20.9315  -29.8840   21.6986 H   0  0  0  0  0  0
  -26.0180  -38.2865   24.1406 H   0  0  0  0  0  0
  -30.3028  -18.4880   24.4842 H   0  0  0  0  0  0
  -30.3369  -17.8144   19.5739 H   0  0  0  0  0  0
  -26.8487  -21.0481   20.3925 H   0  0  0  0  0  0
  -28.1899  -20.1252   19.5342 H   0  0  0  0  0  0
  -29.1430  -23.5180   22.0249 H   0  0  0  0  0  0
  -27.6422  -22.7456   22.1079 H   0  0  0  0  0  0
  -27.0622  -24.8484   21.3092 H   0  0  0  0  0  0
  -26.8310  -23.7627   19.9962 H   0  0  0  0  0  0
  -30.5157  -24.9148   21.1895 H   0  0  0  0  0  0
  -31.7309  -24.9332   20.0051 H   0  0  0  0  0  0
  -29.6555  -23.8944   18.4907 H   0  0  0  0  0  0
  -30.1898  -25.5297   18.5288 H   0  0  0  0  0  0
  -31.4946  -22.8323   21.5695 H   0  0  0  0  0  0
  -32.1080  -22.7478   19.9572 H   0  0  0  0  0  0
  -27.8435  -25.2453   18.6919 H   0  0  0  0  0  0
  -30.8989  -20.6738   24.3315 H   0  0  0  0  0  0
  -30.1384  -21.5314   23.0140 H   0  0  0  0  0  0
  -31.8735  -21.1224   22.9509 H   0  0  0  0  0  0
  -29.8622  -16.2375   24.8899 H   0  0  0  0  0  0
  -30.5354  -15.1138   23.7131 H   0  0  0  0  0  0
  -28.8103  -15.5083   23.6798 H   0  0  0  0  0  0
  -30.7502  -20.0638   19.1647 H   0  0  0  0  0  0
  -31.9934  -20.5643   20.2372 H   0  0  0  0  0  0
  -28.9163  -15.1923   21.2622 H   0  0  0  0  0  0
  -30.2228  -21.9520   19.1716 H   0  0  0  0  0  0
  1 25  1  0  0  0
  1 30  2  0  0  0
  1 88  1  0  0  0
  2  3  1  0  0  0
  2 25  1  0  0  0
  2 90  1  0  0  0
  2 91  1  0  0  0
  3  4  1  0  0  0
  3 92  1  0  0  0
  3 93  1  0  0  0
  4  5  1  0  0  0
  4 94  1  0  0  0
  4 95  1  0  0  0
  5  6  1  0  0  0
  5 26  1  0  0  0
  5 96  1  0  0  0
  6 25  1  0  0  0
  6 97  1  0  0  0
  6 98  1  0  0  0
  7  8  2  0  0  0
  7 26  1  0  0  0
  7 29  1  0  0  0
  8  9  1  0  0  0
  8 22  1  0  0  0
  9 10  1  0  0  0
  9 27  2  0  0  0
 10 11  2  0  0  0
 10 15  1  0  0  0
 11 12  1  0  0  0
 11 99  1  0  0  0
 12 13  2  0  0  0
 12100  1  0  0  0
 13 14  1  0  0  0
 13 31  1  0  0  0
 14 15  2  0  0  0
 14101  1  0  0  0
 15102  1  0  0  0
 16 17  2  0  0  0
 16 21  1  0  0  0
 16 31  1  0  0  0
 17 18  1  0  0  0
 17103  1  0  0  0
 18 19  2  0  0  0
 18104  1  0  0  0
 19 20  1  0  0  0
 19 24  1  0  0  0
 20 21  2  0  0  0
 20105  1  0  0  0
 21 23  1  0  0  0
 22 28  1  0  0  0
 22 32  2  0  0  0
 26 27  1  0  0  0
 28106  1  0  0  0
 28107  1  0  0  0
 29108  1  0  0  0
 29109  1  0  0  0
 33 34  1  0  0  0
 33 66  1  0  0  0
 33 70  2  0  0  0
 34 36  1  0  0  0
 34 59  1  0  0  0
 34110  1  0  0  0
 35 44  2  0  0  0
 35 45  1  0  0  0
 35 68  1  0  0  0
 36 56  1  0  0  0
 36111  1  0  0  0
 37 39  1  0  0  0
 37 47  1  0  0  0
 37 66  1  0  0  0
 37112  1  0  0  0
 38 43  2  0  0  0
 38 46  1  0  0  0
 38 47  1  0  0  0
 39 64  1  0  0  0
 39 67  2  0  0  0
 40 52  1  0  0  0
 40 53  2  0  0  0
 40 58  1  0  0  0
 41113  1  0  0  0
 41114  1  0  0  0
 41115  1  0  0  0
 41 48  1  0  0  0
 42 43  1  0  0  0
 42 66  1  0  0  0
 42116  1  0  0  0
 42117  1  0  0  0
 43 44  1  0  0  0
 44118  1  0  0  0
 45 46  2  0  0  0
 45119  1  0  0  0
 46120  1  0  0  0
 47121  1  0  0  0
 47122  1  0  0  0
 48 56  1  0  0  0
 48 65  1  0  0  0
 48123  1  0  0  0
 49 50  1  0  0  0
 49 53  1  0  0  0
 49 64  1  0  0  0
 49124  1  0  0  0
 50 51  1  0  0  0
 50125  1  0  0  0
 50126  1  0  0  0
 51 52  1  0  0  0
 51127  1  0  0  0
 51128  1  0  0  0
 52129  1  0  0  0
 52130  1  0  0  0
 53 54  1  0  0  0
 54 55  2  0  0  0
 54131  1  0  0  0
 55 57  1  0  0  0
 55132  1  0  0  0
 56 69  2  0  0  0
 57 58  2  0  0  0
 57133  1  0  0  0
 58134  1  0  0  0
 59 60  1  0  0  0
 59 61  1  0  0  0
 59 62  1  0  0  0
 60135  1  0  0  0
 60136  1  0  0  0
 60137  1  0  0  0
 61138  1  0  0  0
 61139  1  0  0  0
 61140  1  0  0  0
 62141  1  0  0  0
 62142  1  0  0  0
 62143  1  0  0  0
 63 65  1  0  0  0
 63144  1  0  0  0
 63145  1  0  0  0
 63146  1  0  0  0
 64147  1  0  0  0
 65148  1  0  0  0
 68 84  1  0  0  0
 71 73  2  0  0  0
 71 74  1  0  0  0
 71149  1  0  0  0
 72 75  2  0  0  0
 72 76  1  0  0  0
 72150  1  0  0  0
 73 75  1  0  0  0
 73 85  1  0  0  0
 74 76  2  0  0  0
 74 86  1  0  0  0
 75 87  1  0  0  0
 76 88  1  0  0  0
 77 78  2  0  0  0
 77 79  1  0  0  0
 77 89  1  0  0  0
 78151  1  0  0  0
 78152  1  0  0  0
 79 80  1  0  0  0
 79153  1  0  0  0
 79154  1  0  0  0
 80 84  1  0  0  0
 80155  1  0  0  0
 80156  1  0  0  0
 81 82  1  0  0  0
 81 83  1  0  0  0
 81157  1  0  0  0
 81158  1  0  0  0
 82 84  1  0  0  0
 82159  1  0  0  0
 82160  1  0  0  0
 83 89  1  0  0  0
 83161  1  0  0  0
 83162  1  0  0  0
 84163  1  0  0  0
 85164  1  0  0  0
 85165  1  0  0  0
 85166  1  0  0  0
 86167  1  0  0  0
 86168  1  0  0  0
 86169  1  0  0  0
 87170  1  0  0  0
 87171  1  0  0  0
 87 89  1  0  0  0
 88172  1  0  0  0
 89173  1  0  0  0
M  CHG  1  89   1
M  ISO  4   1 100  68 101  84 101  88 100
M  END
> <chiral flag>
0

> <version>
0

> <s_m_source_file>
/data/baiqing/PycharmProjects/Reinvent-master-3.2/result/LINK_invent/BTK/process_docking_weight1_custom_product_contain_oxygen_bond_distance_aromatic_linkinvent_7_9_3/rearranged_h_0040.sdf

> <i_m_source_file_index>
92

> <r_mmod_Potential_Energy-OPLS-2005>
-1.8100483417511

> <r_mmod_Stretch_Energy-OPLS-2005>
63.0608215332031

> <r_mmod_Bend_Energy-OPLS-2005>
189.62109375

> <r_mmod_Torsional_Energy-OPLS-2005>
284.768951416016

> <r_mmod_Improper_Torsional_Energy-OPLS-2005>
6.62411975860596

> <r_mmod_Van_der_Waal_Energy-OPLS-2005>
160.988067626953

> <r_mmod_Electrostatic_Energy-OPLS-2005>
-298.201202392578

> <r_mmod_Solvation_Energy-OPLS-2005>
-432.561645507812

> <b_mmod_Minimization_Converged-OPLS-2005>
0

> <r_mmod_RMS_Derivative-OPLS-2005>
1.11041700839996

$$$$
92
                    3D
 Structure written by MMmdl.
167176  0  0  1  0            999 V2000
  -30.7331  -14.4548   20.6143 C   0  0  0  0  0  0
  -30.4169  -12.3182   19.4137 C   0  0  0  0  0  0
  -29.4879  -12.5143   18.2001 C   0  0  0  0  0  0
  -28.0114  -12.3712   18.6160 C   0  0  0  0  0  0
  -27.6597  -13.2111   19.8736 C   0  0  2  0  0  0
  -28.7015  -12.9966   20.9936 C   0  0  0  0  0  0
  -25.2579  -13.8168   20.5680 C   0  0  0  0  0  0
  -24.1833  -13.0439   20.9170 C   0  0  0  0  0  0
  -24.6392  -11.6907   20.8728 C   0  0  0  0  0  0
  -23.9062  -10.4291   21.0397 C   0  0  0  0  0  0
  -24.3614   -9.4211   21.9179 C   0  0  0  0  0  0
  -23.6289   -8.2248   22.0754 C   0  0  0  0  0  0
  -22.4275   -8.0281   21.3541 C   0  0  0  0  0  0
  -21.9905   -9.0255   20.4645 C   0  0  0  0  0  0
  -22.7233  -10.2135   20.3050 C   0  0  0  0  0  0
  -21.6853   -6.0737   22.5276 C   0  0  0  0  0  0
  -21.4014   -6.5637   23.8212 C   0  0  0  0  0  0
  -21.3661   -5.6790   24.9171 C   0  0  0  0  0  0
  -21.6044   -4.3053   24.7222 C   0  0  0  0  0  0
  -21.8822   -3.8145   23.4344 C   0  0  0  0  0  0
  -21.9194   -4.6963   22.3399 C   0  0  0  0  0  0
  -22.7859  -13.5240   21.1837 C   0  0  0  0  0  0
  -22.1662   -4.2148   21.0979 F   0  0  0  0  0  0
  -21.5631   -3.4541   25.7738 F   0  0  0  0  0  0
  -30.0312  -13.3022   20.4381 N   0  0  0  0  0  0
  -26.3019  -12.9346   20.3369 N   0  0  0  0  0  0
  -25.9321  -11.6500   20.5760 N   0  0  0  0  0  0
  -22.0500  -12.8230   22.0391 N   0  0  0  0  0  0
  -25.4302  -15.1887   20.4101 N   0  0  0  0  0  0
  -31.8323  -14.6504   20.0887 O   0  0  0  0  0  0
  -21.6639   -6.8880   21.4239 O   0  0  0  0  0  0
  -22.3538  -14.5547   20.6690 O   0  0  0  0  0  0
  -24.6153  -31.8661   23.2084 C   0  0  0  0  0  0
  -25.9046  -32.4812   23.8378 C   0  0  1  0  0  0
  -27.2379  -27.4246   20.0826 C   0  0  0  0  0  0
  -25.5910  -33.8612   24.2311 N   0  0  0  0  0  0
  -23.4026  -30.4897   21.5504 C   0  0  2  0  0  0
  -24.8470  -28.9541   20.1159 C   0  0  0  0  0  0
  -22.7406  -29.4649   22.4994 C   0  0  0  0  0  0
  -18.0271  -28.1367   22.8495 C   0  0  0  0  0  0
  -24.1485  -36.7301   23.2641 C   0  0  0  0  0  0
  -25.9324  -30.8281   21.3620 C   0  0  0  0  0  0
  -26.0085  -29.4623   20.7075 C   0  0  0  0  0  0
  -27.2032  -28.7048   20.6871 C   0  0  0  0  0  0
  -26.0457  -26.9270   19.5020 C   0  0  0  0  0  0
  -24.8602  -27.6856   19.5142 C   0  0  0  0  0  0
  -23.6099  -29.8223   20.1659 C   0  0  0  0  0  0
  -25.4105  -36.3098   24.0338 C   0  0  1  0  0  0
  -20.5860  -28.3652   23.1316 C   0  0  2  0  0  0
  -20.6761  -26.9393   22.5411 C   0  0  0  0  0  0
  -19.5740  -26.6376   21.5210 C   0  0  0  0  0  0
  -18.1916  -26.7912   22.1621 C   0  0  0  0  0  0
  -19.1523  -28.8827   23.2902 C   0  0  0  0  0  0
  -18.9456  -30.1439   23.8904 C   0  0  0  0  0  0
  -17.6460  -30.6578   24.0574 C   0  0  0  0  0  0
  -25.9033  -34.9471   23.5118 C   0  0  0  0  0  0
  -16.5350  -29.9078   23.6340 C   0  0  0  0  0  0
  -16.7263  -28.6500   23.0348 C   0  0  0  0  0  0
  -26.4479  -31.6597   25.0710 C   0  0  0  0  0  0
  -25.3751  -31.3709   26.1471 C   0  0  0  0  0  0
  -27.0317  -30.3039   24.6086 C   0  0  0  0  0  0
  -27.6045  -32.4334   25.7473 C   0  0  0  0  0  0
  -27.5573  -37.1799   24.8472 C   0  0  0  0  0  0
  -21.4133  -29.3027   22.3729 N   0  0  0  0  0  0
  -26.4290  -37.3782   23.9413 N   0  0  0  0  0  0
  -24.6685  -31.0754   22.0988 N   0  0  0  0  0  0
  -23.4179  -28.8193   23.3040 O   0  0  0  0  0  0
  -28.4325  -26.7196   20.1017 O   0  0  0  0  0  0
  -26.5588  -34.8935   22.4672 O   0  0  0  0  0  0
  -23.5347  -32.1424   23.7476 O   0  0  0  0  0  0
  -31.2246  -18.8052   20.7974 C   0  0  0  0  0  0
  -30.3525  -17.9742   21.5277 C   0  0  0  0  0  0
  -28.8327  -19.9038   21.7965 C   0  0  0  0  0  0
  -29.7710  -20.7617   21.1443 C   0  0  0  0  0  0
  -30.9522  -20.1761   20.6151 C   0  0  0  0  0  0
  -29.1330  -18.5226   21.9936 C   0  0  0  0  0  0
  -28.1136  -24.2718   20.5104 C   0  0  0  0  0  0
  -27.3679  -24.4432   21.6194 C   0  0  0  0  0  0
  -30.2315  -23.8570   18.4059 C   0  0  0  0  0  0
  -29.9998  -25.2067   19.1112 C   0  0  0  0  0  0
  -29.1632  -22.7936   18.7480 C   0  0  0  0  0  0
  -28.5378  -25.3953   19.5379 C   0  0  2  0  0  0
  -27.5319  -20.4669   22.3661 C   0  0  0  0  0  0
  -30.8360  -16.5728   21.9385 C   0  0  0  0  0  0
  -29.6034  -22.3048   21.1522 C   0  0  0  0  0  0
  -30.1500  -15.4004   21.3733 N   0  0  0  0  0  0
  -28.6681  -22.8985   20.1452 N   0  3  1  0  0  0
  -32.1465  -21.1186   19.7961 Cl  0  0  0  0  0  0
  -28.0508  -17.5064   22.8877 Cl  0  0  0  0  0  0
  -31.4608  -12.4147   19.1092 H   0  0  0  0  0  0
  -30.3182  -11.3071   19.8124 H   0  0  0  0  0  0
  -29.7280  -11.7904   17.4203 H   0  0  0  0  0  0
  -29.6534  -13.5007   17.7637 H   0  0  0  0  0  0
  -27.8234  -11.3144   18.8107 H   0  0  0  0  0  0
  -27.3587  -12.6466   17.7868 H   0  0  0  0  0  0
  -27.7029  -14.2598   19.5771 H   0  0  0  0  0  0
  -28.6799  -11.9611   21.3375 H   0  0  0  0  0  0
  -28.4560  -13.5981   21.8696 H   0  0  0  0  0  0
  -25.2762   -9.5690   22.4750 H   0  0  0  0  0  0
  -24.0001   -7.4642   22.7473 H   0  0  0  0  0  0
  -21.0840   -8.8769   19.8950 H   0  0  0  0  0  0
  -22.3690  -10.9671   19.6157 H   0  0  0  0  0  0
  -21.2004   -7.6143   23.9711 H   0  0  0  0  0  0
  -21.1481   -6.0521   25.9074 H   0  0  0  0  0  0
  -22.0600   -2.7606   23.2843 H   0  0  0  0  0  0
  -22.4120  -11.9893   22.4777 H   0  0  0  0  0  0
  -21.1116  -13.1248   22.2596 H   0  0  0  0  0  0
  -24.6700  -15.8480   20.5342 H   0  0  0  0  0  0
  -26.2955  -15.6301   20.1253 H   0  0  0  0  0  0
  -26.7107  -32.5526   23.1133 H   0  0  0  0  0  0
  -25.0106  -33.9781   25.0487 H   0  0  0  0  0  0
  -22.6929  -31.3076   21.4113 H   0  0  0  0  0  0
  -23.3753  -35.9630   23.3316 H   0  0  0  0  0  0
  -24.3575  -36.8898   22.2053 H   0  0  0  0  0  0
  -23.7233  -37.6507   23.6646 H   0  0  0  0  0  0
  -26.0446  -31.5950   20.5946 H   0  0  0  0  0  0
  -26.8205  -30.8808   21.9801 H   0  0  0  0  0  0
  -28.1034  -29.0975   21.1385 H   0  0  0  0  0  0
  -25.9946  -25.9521   19.0437 H   0  0  0  0  0  0
  -23.9622  -27.2837   19.0662 H   0  0  0  0  0  0
  -23.7180  -30.5980   19.4068 H   0  0  0  0  0  0
  -22.7337  -29.2427   19.8714 H   0  0  0  0  0  0
  -25.1277  -36.1952   25.0828 H   0  0  0  0  0  0
  -20.9956  -28.3216   24.1434 H   0  0  0  0  0  0
  -20.5664  -26.2260   23.3590 H   0  0  0  0  0  0
  -21.6627  -26.7424   22.1204 H   0  0  0  0  0  0
  -19.6903  -25.6292   21.1223 H   0  0  0  0  0  0
  -19.6680  -27.3205   20.6755 H   0  0  0  0  0  0
  -17.4184  -26.6674   21.4025 H   0  0  0  0  0  0
  -18.0323  -26.0037   22.9003 H   0  0  0  0  0  0
  -19.7940  -30.7262   24.2253 H   0  0  0  0  0  0
  -17.5023  -31.6266   24.5167 H   0  0  0  0  0  0
  -15.5355  -30.2992   23.7651 H   0  0  0  0  0  0
  -15.8659  -28.0836   22.7030 H   0  0  0  0  0  0
  -24.5912  -30.7060   25.7826 H   0  0  0  0  0  0
  -24.8974  -32.2880   26.4936 H   0  0  0  0  0  0
  -25.8118  -30.8870   27.0215 H   0  0  0  0  0  0
  -26.2853  -29.6791   24.1171 H   0  0  0  0  0  0
  -27.4127  -29.7280   25.4532 H   0  0  0  0  0  0
  -27.8667  -30.4367   23.9200 H   0  0  0  0  0  0
  -27.2633  -33.3621   26.2061 H   0  0  0  0  0  0
  -28.3840  -32.6918   25.0293 H   0  0  0  0  0  0
  -28.0730  -31.8461   26.5383 H   0  0  0  0  0  0
  -28.2594  -38.0094   24.7515 H   0  0  0  0  0  0
  -28.1054  -36.2620   24.6288 H   0  0  0  0  0  0
  -27.2295  -37.1451   25.8879 H   0  0  0  0  0  0
  -20.9279  -29.8763   21.6970 H   0  0  0  0  0  0
  -26.0174  -38.2849   24.1439 H   0  0  0  0  0  0
  -32.1619  -18.4091   20.4331 H   0  0  0  0  0  0
  -26.9965  -25.4190   21.8968 H   0  0  0  0  0  0
  -27.1119  -23.6271   22.2776 H   0  0  0  0  0  0
  -31.2303  -23.4957   18.6503 H   0  0  0  0  0  0
  -30.2330  -24.0021   17.3252 H   0  0  0  0  0  0
  -30.3134  -26.0234   18.4593 H   0  0  0  0  0  0
  -30.6341  -25.2681   19.9968 H   0  0  0  0  0  0
  -29.5309  -21.7903   18.5282 H   0  0  0  0  0  0
  -28.3042  -22.9340   18.0900 H   0  0  0  0  0  0
  -27.9451  -25.3248   18.6268 H   0  0  0  0  0  0
  -27.6829  -20.8201   23.3867 H   0  0  0  0  0  0
  -26.7346  -19.7247   22.3836 H   0  0  0  0  0  0
  -27.1435  -21.2905   21.7725 H   0  0  0  0  0  0
  -30.7396  -16.5022   23.0228 H   0  0  0  0  0  0
  -31.9118  -16.5092   21.7638 H   0  0  0  0  0  0
  -30.5685  -22.8042   21.0756 H   0  0  0  0  0  0
  -29.2652  -22.5701   22.1533 H   0  0  0  0  0  0
  -29.2280  -15.1967   21.7283 H   0  0  0  0  0  0
  -27.8829  -22.2657   20.1552 H   0  0  0  0  0  0
  1 25  1  0  0  0
  1 30  2  0  0  0
  1 86  1  0  0  0
  2  3  1  0  0  0
  2 25  1  0  0  0
  2 90  1  0  0  0
  2 91  1  0  0  0
  3  4  1  0  0  0
  3 92  1  0  0  0
  3 93  1  0  0  0
  4  5  1  0  0  0
  4 94  1  0  0  0
  4 95  1  0  0  0
  5  6  1  0  0  0
  5 26  1  0  0  0
  5 96  1  0  0  0
  6 25  1  0  0  0
  6 97  1  0  0  0
  6 98  1  0  0  0
  7  8  2  0  0  0
  7 26  1  0  0  0
  7 29  1  0  0  0
  8  9  1  0  0  0
  8 22  1  0  0  0
  9 10  1  0  0  0
  9 27  2  0  0  0
 10 11  2  0  0  0
 10 15  1  0  0  0
 11 12  1  0  0  0
 11 99  1  0  0  0
 12 13  2  0  0  0
 12100  1  0  0  0
 13 14  1  0  0  0
 13 31  1  0  0  0
 14 15  2  0  0  0
 14101  1  0  0  0
 15102  1  0  0  0
 16 17  2  0  0  0
 16 21  1  0  0  0
 16 31  1  0  0  0
 17 18  1  0  0  0
 17103  1  0  0  0
 18 19  2  0  0  0
 18104  1  0  0  0
 19 20  1  0  0  0
 19 24  1  0  0  0
 20 21  2  0  0  0
 20105  1  0  0  0
 21 23  1  0  0  0
 22 28  1  0  0  0
 22 32  2  0  0  0
 26 27  1  0  0  0
 28106  1  0  0  0
 28107  1  0  0  0
 29108  1  0  0  0
 29109  1  0  0  0
 33 34  1  0  0  0
 33 66  1  0  0  0
 33 70  2  0  0  0
 34 36  1  0  0  0
 34 59  1  0  0  0
 34110  1  0  0  0
 35 44  2  0  0  0
 35 45  1  0  0  0
 35 68  1  0  0  0
 36 56  1  0  0  0
 36111  1  0  0  0
 37 39  1  0  0  0
 37 47  1  0  0  0
 37 66  1  0  0  0
 37112  1  0  0  0
 38 43  2  0  0  0
 38 46  1  0  0  0
 38 47  1  0  0  0
 39 64  1  0  0  0
 39 67  2  0  0  0
 40 52  1  0  0  0
 40 53  2  0  0  0
 40 58  1  0  0  0
 41113  1  0  0  0
 41114  1  0  0  0
 41115  1  0  0  0
 41 48  1  0  0  0
 42 43  1  0  0  0
 42 66  1  0  0  0
 42116  1  0  0  0
 42117  1  0  0  0
 43 44  1  0  0  0
 44118  1  0  0  0
 45 46  2  0  0  0
 45119  1  0  0  0
 46120  1  0  0  0
 47121  1  0  0  0
 47122  1  0  0  0
 48 56  1  0  0  0
 48 65  1  0  0  0
 48123  1  0  0  0
 49 50  1  0  0  0
 49 53  1  0  0  0
 49 64  1  0  0  0
 49124  1  0  0  0
 50 51  1  0  0  0
 50125  1  0  0  0
 50126  1  0  0  0
 51 52  1  0  0  0
 51127  1  0  0  0
 51128  1  0  0  0
 52129  1  0  0  0
 52130  1  0  0  0
 53 54  1  0  0  0
 54 55  2  0  0  0
 54131  1  0  0  0
 55 57  1  0  0  0
 55132  1  0  0  0
 56 69  2  0  0  0
 57 58  2  0  0  0
 57133  1  0  0  0
 58134  1  0  0  0
 59 60  1  0  0  0
 59 61  1  0  0  0
 59 62  1  0  0  0
 60135  1  0  0  0
 60136  1  0  0  0
 60137  1  0  0  0
 61138  1  0  0  0
 61139  1  0  0  0
 61140  1  0  0  0
 62141  1  0  0  0
 62142  1  0  0  0
 62143  1  0  0  0
 63 65  1  0  0  0
 63144  1  0  0  0
 63145  1  0  0  0
 63146  1  0  0  0
 64147  1  0  0  0
 65148  1  0  0  0
 68 82  1  0  0  0
 71 72  2  0  0  0
 71 75  1  0  0  0
 71149  1  0  0  0
 72 76  1  0  0  0
 72 84  1  0  0  0
 73 74  1  0  0  0
 73 76  2  0  0  0
 73 83  1  0  0  0
 74 75  2  0  0  0
 74 85  1  0  0  0
 75 88  1  0  0  0
 76 89  1  0  0  0
 77 78  2  0  0  0
 77 82  1  0  0  0
 77 87  1  0  0  0
 78150  1  0  0  0
 78151  1  0  0  0
 79 80  1  0  0  0
 79 81  1  0  0  0
 79152  1  0  0  0
 79153  1  0  0  0
 80 82  1  0  0  0
 80154  1  0  0  0
 80155  1  0  0  0
 81 87  1  0  0  0
 81156  1  0  0  0
 81157  1  0  0  0
 82158  1  0  0  0
 83159  1  0  0  0
 83160  1  0  0  0
 83161  1  0  0  0
 84 86  1  0  0  0
 84162  1  0  0  0
 84163  1  0  0  0
 85164  1  0  0  0
 85165  1  0  0  0
 85 87  1  0  0  0
 86166  1  0  0  0
 87167  1  0  0  0
M  CHG  1  87   1
M  ISO  4   1 100  68 101  82 101  86 100
M  END
> <chiral flag>
0

> <version>
0

> <s_m_source_file>
/data/baiqing/PycharmProjects/Reinvent-master-3.2/result/LINK_invent/BTK/process_docking_weight1_custom_product_contain_oxygen_bond_distance_aromatic_linkinvent_7_9_3/rearranged_h_0040.sdf

> <i_m_source_file_index>
93

> <r_mmod_Potential_Energy-OPLS-2005>
-190.569046020508

> <r_mmod_Stretch_Energy-OPLS-2005>
48.5151176452637

> <r_mmod_Bend_Energy-OPLS-2005>
120.606636047363

> <r_mmod_Torsional_Energy-OPLS-2005>
219.674270629883

> <r_mmod_Improper_Torsional_Energy-OPLS-2005>
3.59448385238647

> <r_mmod_Van_der_Waal_Energy-OPLS-2005>
162.203765869141

> <r_mmod_Electrostatic_Energy-OPLS-2005>
-329.808868408203

> <r_mmod_Solvation_Energy-OPLS-2005>
-427.46337890625

> <b_mmod_Minimization_Converged-OPLS-2005>
0

> <r_mmod_RMS_Derivative-OPLS-2005>
1.22978472709656

$$$$
93
                    3D
 Structure written by MMmdl.
176185  0  0  1  0            999 V2000
  -30.6918  -14.5037   20.5899 C   0  0  0  0  0  0
  -30.4223  -12.3419   19.4179 C   0  0  0  0  0  0
  -29.4887  -12.5202   18.2025 C   0  0  0  0  0  0
  -28.0121  -12.3679   18.6196 C   0  0  0  0  0  0
  -27.6559  -13.2114   19.8719 C   0  0  2  0  0  0
  -28.6972  -13.0114   20.9939 C   0  0  0  0  0  0
  -25.2574  -13.8151   20.5684 C   0  0  0  0  0  0
  -24.1825  -13.0440   20.9181 C   0  0  0  0  0  0
  -24.6381  -11.6912   20.8731 C   0  0  0  0  0  0
  -23.9043  -10.4307   21.0406 C   0  0  0  0  0  0
  -24.3610   -9.4231   21.9182 C   0  0  0  0  0  0
  -23.6304   -8.2253   22.0743 C   0  0  0  0  0  0
  -22.4278   -8.0280   21.3539 C   0  0  0  0  0  0
  -21.9909   -9.0244   20.4630 C   0  0  0  0  0  0
  -22.7224  -10.2137   20.3051 C   0  0  0  0  0  0
  -21.6848   -6.0748   22.5274 C   0  0  0  0  0  0
  -21.4008   -6.5650   23.8213 C   0  0  0  0  0  0
  -21.3670   -5.6803   24.9173 C   0  0  0  0  0  0
  -21.6062   -4.3068   24.7223 C   0  0  0  0  0  0
  -21.8824   -3.8166   23.4337 C   0  0  0  0  0  0
  -21.9189   -4.6978   22.3395 C   0  0  0  0  0  0
  -22.7858  -13.5238   21.1851 C   0  0  0  0  0  0
  -22.1656   -4.2172   21.0976 F   0  0  0  0  0  0
  -21.5642   -3.4552   25.7731 F   0  0  0  0  0  0
  -30.0204  -13.3286   20.4349 N   0  0  0  0  0  0
  -26.2997  -12.9333   20.3361 N   0  0  0  0  0  0
  -25.9306  -11.6492   20.5761 N   0  0  0  0  0  0
  -22.0490  -12.8223   22.0401 N   0  0  0  0  0  0
  -25.4308  -15.1863   20.4087 N   0  0  0  0  0  0
  -31.8231  -14.6787   20.1311 O   0  0  0  0  0  0
  -21.6646   -6.8873   21.4228 O   0  0  0  0  0  0
  -22.3568  -14.5573   20.6722 O   0  0  0  0  0  0
  -24.6158  -31.8664   23.2072 C   0  0  0  0  0  0
  -25.9042  -32.4804   23.8372 C   0  0  1  0  0  0
  -27.2330  -27.4009   20.1289 C   0  0  0  0  0  0
  -25.5909  -33.8602   24.2317 N   0  0  0  0  0  0
  -23.4051  -30.4878   21.5486 C   0  0  2  0  0  0
  -24.8521  -28.9422   20.1239 C   0  0  0  0  0  0
  -22.7423  -29.4653   22.4988 C   0  0  0  0  0  0
  -18.0276  -28.1385   22.8491 C   0  0  0  0  0  0
  -24.1491  -36.7308   23.2644 C   0  0  0  0  0  0
  -25.9352  -30.8243   21.3628 C   0  0  0  0  0  0
  -26.0122  -29.4530   20.7188 C   0  0  0  0  0  0
  -27.2091  -28.6969   20.7070 C   0  0  0  0  0  0
  -26.0602  -26.9157   19.5177 C   0  0  0  0  0  0
  -24.8727  -27.6744   19.5165 C   0  0  0  0  0  0
  -23.6156  -29.8138   20.1661 C   0  0  0  0  0  0
  -25.4110  -36.3096   24.0345 C   0  0  1  0  0  0
  -20.5867  -28.3665   23.1318 C   0  0  2  0  0  0
  -20.6763  -26.9401   22.5422 C   0  0  0  0  0  0
  -19.5743  -26.6383   21.5221 C   0  0  0  0  0  0
  -18.1921  -26.7931   22.1617 C   0  0  0  0  0  0
  -19.1526  -28.8842   23.2900 C   0  0  0  0  0  0
  -18.9452  -30.1443   23.8910 C   0  0  0  0  0  0
  -17.6453  -30.6583   24.0558 C   0  0  0  0  0  0
  -25.9041  -34.9464   23.5127 C   0  0  0  0  0  0
  -16.5344  -29.9078   23.6332 C   0  0  0  0  0  0
  -16.7261  -28.6502   23.0344 C   0  0  0  0  0  0
  -26.4466  -31.6576   25.0703 C   0  0  0  0  0  0
  -25.3739  -31.3680   26.1459 C   0  0  0  0  0  0
  -27.0309  -30.3020   24.6081 C   0  0  0  0  0  0
  -27.6038  -32.4299   25.7467 C   0  0  0  0  0  0
  -27.5581  -37.1811   24.8464 C   0  0  0  0  0  0
  -21.4150  -29.3030   22.3723 N   0  0  0  0  0  0
  -26.4292  -37.3785   23.9408 N   0  0  0  0  0  0
  -24.6706  -31.0747   22.0982 N   0  0  0  0  0  0
  -23.4184  -28.8203   23.3036 O   0  0  0  0  0  0
  -28.3810  -26.6347   20.0128 O   0  0  0  0  0  0
  -26.5591  -34.8927   22.4683 O   0  0  0  0  0  0
  -23.5344  -32.1421   23.7461 O   0  0  0  0  0  0
  -29.2883  -18.8968   22.2787 C   0  0  0  0  0  0
  -28.7896  -20.1859   21.9735 C   0  0  0  0  0  0
  -29.9596  -18.6098   19.9745 C   0  0  0  0  0  0
  -29.8981  -18.0965   21.2870 C   0  0  0  0  0  0
  -28.8945  -20.7343   20.6705 C   0  0  0  0  0  0
  -29.4749  -19.9088   19.6612 C   0  0  0  0  0  0
  -28.2392  -24.5558   21.4562 C   0  0  0  0  0  0
  -27.0867  -24.5340   22.1681 C   0  0  0  0  0  0
  -30.7238  -24.4963   19.9186 C   0  0  0  0  0  0
  -30.4373  -25.7862   20.6662 C   0  0  0  0  0  0
  -30.4685  -23.3590   20.8983 C   0  0  0  0  0  0
  -28.9652  -25.9169   21.1310 C   0  0  1  0  0  0
  -29.6144  -20.3921   18.2274 C   0  0  0  0  0  0
  -29.0096  -26.8048   22.4017 C   0  0  0  0  0  0
  -26.3240  -23.4912   24.3369 C   0  0  0  0  0  0
  -30.6012  -16.7773   21.6676 C   0  0  0  0  0  0
  -28.3783  -22.1793   20.3869 C   0  0  0  0  0  0
  -26.3684  -23.3555   22.8103 C   0  0  0  0  0  0
  -30.0154  -15.5087   21.1916 N   0  0  0  0  0  0
  -29.0259  -23.2448   21.2244 N   0  3  2  0  0  0
  -31.4631  -12.4592   19.1130 H   0  0  0  0  0  0
  -30.3443  -11.3312   19.8206 H   0  0  0  0  0  0
  -29.7349  -11.7995   17.4221 H   0  0  0  0  0  0
  -29.6455  -13.5082   17.7660 H   0  0  0  0  0  0
  -27.8300  -11.3113   18.8193 H   0  0  0  0  0  0
  -27.3573  -12.6365   17.7895 H   0  0  0  0  0  0
  -27.6935  -14.2578   19.5673 H   0  0  0  0  0  0
  -28.6859  -11.9795   21.3463 H   0  0  0  0  0  0
  -28.4522  -13.6203   21.8639 H   0  0  0  0  0  0
  -25.2754   -9.5732   22.4756 H   0  0  0  0  0  0
  -24.0038   -7.4648   22.7457 H   0  0  0  0  0  0
  -21.0842   -8.8741   19.8932 H   0  0  0  0  0  0
  -22.3665  -10.9667   19.6166 H   0  0  0  0  0  0
  -21.1984   -7.6155   23.9730 H   0  0  0  0  0  0
  -21.1486   -6.0520   25.9082 H   0  0  0  0  0  0
  -22.0587   -2.7625   23.2817 H   0  0  0  0  0  0
  -22.4081  -11.9879   22.4797 H   0  0  0  0  0  0
  -21.1104  -13.1248   22.2574 H   0  0  0  0  0  0
  -24.6679  -15.8439   20.5218 H   0  0  0  0  0  0
  -26.2879  -15.6256   20.0992 H   0  0  0  0  0  0
  -26.7119  -32.5519   23.1135 H   0  0  0  0  0  0
  -25.0055  -33.9759   25.0458 H   0  0  0  0  0  0
  -22.6942  -31.3044   21.4057 H   0  0  0  0  0  0
  -23.3756  -35.9639   23.3304 H   0  0  0  0  0  0
  -24.3592  -36.8921   22.2063 H   0  0  0  0  0  0
  -23.7239  -37.6515   23.6654 H   0  0  0  0  0  0
  -26.0505  -31.5857   20.5896 H   0  0  0  0  0  0
  -26.8221  -30.8786   21.9827 H   0  0  0  0  0  0
  -28.1102  -29.1121   21.1346 H   0  0  0  0  0  0
  -26.0716  -25.9477   19.0372 H   0  0  0  0  0  0
  -23.9849  -27.2778   19.0431 H   0  0  0  0  0  0
  -23.7272  -30.5846   19.4023 H   0  0  0  0  0  0
  -22.7389  -29.2331   19.8721 H   0  0  0  0  0  0
  -25.1289  -36.1957   25.0839 H   0  0  0  0  0  0
  -20.9955  -28.3228   24.1438 H   0  0  0  0  0  0
  -20.5675  -26.2274   23.3609 H   0  0  0  0  0  0
  -21.6633  -26.7452   22.1203 H   0  0  0  0  0  0
  -19.6895  -25.6302   21.1230 H   0  0  0  0  0  0
  -19.6680  -27.3204   20.6766 H   0  0  0  0  0  0
  -17.4199  -26.6699   21.4012 H   0  0  0  0  0  0
  -18.0297  -26.0071   22.9003 H   0  0  0  0  0  0
  -19.7934  -30.7252   24.2290 H   0  0  0  0  0  0
  -17.5014  -31.6273   24.5130 H   0  0  0  0  0  0
  -15.5342  -30.2973   23.7667 H   0  0  0  0  0  0
  -15.8667  -28.0821   22.7045 H   0  0  0  0  0  0
  -24.5895  -30.7047   25.7791 H   0  0  0  0  0  0
  -24.8957  -32.2838   26.4950 H   0  0  0  0  0  0
  -25.8103  -30.8812   27.0190 H   0  0  0  0  0  0
  -26.2866  -29.6764   24.1144 H   0  0  0  0  0  0
  -27.4096  -29.7261   25.4532 H   0  0  0  0  0  0
  -27.8682  -30.4346   23.9225 H   0  0  0  0  0  0
  -27.2653  -33.3587   26.2067 H   0  0  0  0  0  0
  -28.3835  -32.6874   25.0287 H   0  0  0  0  0  0
  -28.0716  -31.8410   26.5363 H   0  0  0  0  0  0
  -28.2596  -38.0113   24.7514 H   0  0  0  0  0  0
  -28.1082  -36.2643   24.6279 H   0  0  0  0  0  0
  -27.2307  -37.1449   25.8870 H   0  0  0  0  0  0
  -20.9313  -29.8766   21.6959 H   0  0  0  0  0  0
  -26.0180  -38.2871   24.1386 H   0  0  0  0  0  0
  -29.2294  -18.5387   23.2981 H   0  0  0  0  0  0
  -28.3449  -20.7562   22.7764 H   0  0  0  0  0  0
  -30.4270  -18.0102   19.2048 H   0  0  0  0  0  0
  -26.6056  -25.4806   22.3691 H   0  0  0  0  0  0
  -31.7630  -24.4817   19.5884 H   0  0  0  0  0  0
  -30.1066  -24.4070   19.0233 H   0  0  0  0  0  0
  -30.7214  -26.6420   20.0514 H   0  0  0  0  0  0
  -31.1127  -25.8295   21.5235 H   0  0  0  0  0  0
  -31.0199  -23.5318   21.8233 H   0  0  0  0  0  0
  -30.8726  -22.4283   20.4990 H   0  0  0  0  0  0
  -30.0084  -19.6098   17.5781 H   0  0  0  0  0  0
  -30.3029  -21.2355   18.1754 H   0  0  0  0  0  0
  -28.6500  -20.6962   17.8196 H   0  0  0  0  0  0
  -29.4847  -26.2745   23.2279 H   0  0  0  0  0  0
  -28.0265  -27.1105   22.7566 H   0  0  0  0  0  0
  -29.5885  -27.7123   22.2322 H   0  0  0  0  0  0
  -25.7734  -22.6637   24.7879 H   0  0  0  0  0  0
  -25.8384  -24.4189   24.6433 H   0  0  0  0  0  0
  -27.3281  -23.4826   24.7621 H   0  0  0  0  0  0
  -30.6520  -16.7104   22.7556 H   0  0  0  0  0  0
  -31.6400  -16.8645   21.3463 H   0  0  0  0  0  0
  -27.2978  -22.1750   20.5159 H   0  0  0  0  0  0
  -28.5125  -22.4558   19.3424 H   0  0  0  0  0  0
  -26.8228  -22.3999   22.5774 H   0  0  0  0  0  0
  -25.3519  -23.3149   22.4149 H   0  0  0  0  0  0
  -29.0668  -15.3131   21.4736 H   0  0  0  0  0  0
  -29.0532  -22.7962   22.1264 H   0  0  0  0  0  0
  1 25  1  0  0  0
  1 30  2  0  0  0
  1 89  1  0  0  0
  2  3  1  0  0  0
  2 25  1  0  0  0
  2 91  1  0  0  0
  2 92  1  0  0  0
  3  4  1  0  0  0
  3 93  1  0  0  0
  3 94  1  0  0  0
  4  5  1  0  0  0
  4 95  1  0  0  0
  4 96  1  0  0  0
  5  6  1  0  0  0
  5 26  1  0  0  0
  5 97  1  0  0  0
  6 25  1  0  0  0
  6 98  1  0  0  0
  6 99  1  0  0  0
  7  8  2  0  0  0
  7 26  1  0  0  0
  7 29  1  0  0  0
  8  9  1  0  0  0
  8 22  1  0  0  0
  9 10  1  0  0  0
  9 27  2  0  0  0
 10 11  2  0  0  0
 10 15  1  0  0  0
 11 12  1  0  0  0
 11100  1  0  0  0
 12 13  2  0  0  0
 12101  1  0  0  0
 13 14  1  0  0  0
 13 31  1  0  0  0
 14 15  2  0  0  0
 14102  1  0  0  0
 15103  1  0  0  0
 16 17  2  0  0  0
 16 21  1  0  0  0
 16 31  1  0  0  0
 17 18  1  0  0  0
 17104  1  0  0  0
 18 19  2  0  0  0
 18105  1  0  0  0
 19 20  1  0  0  0
 19 24  1  0  0  0
 20 21  2  0  0  0
 20106  1  0  0  0
 21 23  1  0  0  0
 22 28  1  0  0  0
 22 32  2  0  0  0
 26 27  1  0  0  0
 28107  1  0  0  0
 28108  1  0  0  0
 29109  1  0  0  0
 29110  1  0  0  0
 33 34  1  0  0  0
 33 66  1  0  0  0
 33 70  2  0  0  0
 34 36  1  0  0  0
 34 59  1  0  0  0
 34111  1  0  0  0
 35 44  2  0  0  0
 35 45  1  0  0  0
 35 68  1  0  0  0
 36 56  1  0  0  0
 36112  1  0  0  0
 37 39  1  0  0  0
 37 47  1  0  0  0
 37 66  1  0  0  0
 37113  1  0  0  0
 38 43  2  0  0  0
 38 46  1  0  0  0
 38 47  1  0  0  0
 39 64  1  0  0  0
 39 67  2  0  0  0
 40 52  1  0  0  0
 40 53  2  0  0  0
 40 58  1  0  0  0
 41114  1  0  0  0
 41115  1  0  0  0
 41116  1  0  0  0
 41 48  1  0  0  0
 42 43  1  0  0  0
 42 66  1  0  0  0
 42117  1  0  0  0
 42118  1  0  0  0
 43 44  1  0  0  0
 44119  1  0  0  0
 45 46  2  0  0  0
 45120  1  0  0  0
 46121  1  0  0  0
 47122  1  0  0  0
 47123  1  0  0  0
 48 56  1  0  0  0
 48 65  1  0  0  0
 48124  1  0  0  0
 49 50  1  0  0  0
 49 53  1  0  0  0
 49 64  1  0  0  0
 49125  1  0  0  0
 50 51  1  0  0  0
 50126  1  0  0  0
 50127  1  0  0  0
 51 52  1  0  0  0
 51128  1  0  0  0
 51129  1  0  0  0
 52130  1  0  0  0
 52131  1  0  0  0
 53 54  1  0  0  0
 54 55  2  0  0  0
 54132  1  0  0  0
 55 57  1  0  0  0
 55133  1  0  0  0
 56 69  2  0  0  0
 57 58  2  0  0  0
 57134  1  0  0  0
 58135  1  0  0  0
 59 60  1  0  0  0
 59 61  1  0  0  0
 59 62  1  0  0  0
 60136  1  0  0  0
 60137  1  0  0  0
 60138  1  0  0  0
 61139  1  0  0  0
 61140  1  0  0  0
 61141  1  0  0  0
 62142  1  0  0  0
 62143  1  0  0  0
 62144  1  0  0  0
 63 65  1  0  0  0
 63145  1  0  0  0
 63146  1  0  0  0
 63147  1  0  0  0
 64148  1  0  0  0
 65149  1  0  0  0
 68 82  1  0  0  0
 71 72  2  0  0  0
 71 74  1  0  0  0
 71150  1  0  0  0
 72 75  1  0  0  0
 72151  1  0  0  0
 73 74  2  0  0  0
 73 76  1  0  0  0
 73152  1  0  0  0
 74 86  1  0  0  0
 75 76  2  0  0  0
 75 87  1  0  0  0
 76 83  1  0  0  0
 77 78  2  0  0  0
 77 82  1  0  0  0
 77 90  1  0  0  0
 78 88  1  0  0  0
 78153  1  0  0  0
 79 80  1  0  0  0
 79 81  1  0  0  0
 79154  1  0  0  0
 79155  1  0  0  0
 80 82  1  0  0  0
 80156  1  0  0  0
 80157  1  0  0  0
 81 90  1  0  0  0
 81158  1  0  0  0
 81159  1  0  0  0
 82 84  1  0  0  0
 83160  1  0  0  0
 83161  1  0  0  0
 83162  1  0  0  0
 84163  1  0  0  0
 84164  1  0  0  0
 84165  1  0  0  0
 85 88  1  0  0  0
 85166  1  0  0  0
 85167  1  0  0  0
 85168  1  0  0  0
 86 89  1  0  0  0
 86169  1  0  0  0
 86170  1  0  0  0
 87171  1  0  0  0
 87172  1  0  0  0
 87 90  1  0  0  0
 88173  1  0  0  0
 88174  1  0  0  0
 89175  1  0  0  0
 90176  1  0  0  0
M  CHG  1  90   1
M  ISO  4   1 100  68 101  82 101  89 100
M  END
> <chiral flag>
0

> <version>
0

> <s_m_source_file>
/data/baiqing/PycharmProjects/Reinvent-master-3.2/result/LINK_invent/BTK/process_docking_weight1_custom_product_contain_oxygen_bond_distance_aromatic_linkinvent_7_9_3/rearranged_h_0040.sdf

> <i_m_source_file_index>
94

> <r_mmod_Potential_Energy-OPLS-2005>
-148.558883666992

> <r_mmod_Stretch_Energy-OPLS-2005>
59.1657943725586

> <r_mmod_Bend_Energy-OPLS-2005>
146.420761108398

> <r_mmod_Torsional_Energy-OPLS-2005>
235.855331420898

> <r_mmod_Improper_Torsional_Energy-OPLS-2005>
3.97263598442078

> <r_mmod_Van_der_Waal_Energy-OPLS-2005>
153.021957397461

> <r_mmod_Electrostatic_Energy-OPLS-2005>
-360.121704101562

> <r_mmod_Solvation_Energy-OPLS-2005>
-402.794616699219

> <b_mmod_Minimization_Converged-OPLS-2005>
0

> <r_mmod_RMS_Derivative-OPLS-2005>
2.15324759483337

$$$$
94
                    3D
 Structure written by MMmdl.
170179  0  0  1  0            999 V2000
  -30.6218  -14.6237   20.5870 C   0  0  0  0  0  0
  -30.4484  -12.4057   19.4479 C   0  0  0  0  0  0
  -29.5120  -12.5393   18.2252 C   0  0  0  0  0  0
  -28.0350  -12.3658   18.6322 C   0  0  0  0  0  0
  -27.6625  -13.2136   19.8767 C   0  0  2  0  0  0
  -28.7037  -13.0221   21.0030 C   0  0  0  0  0  0
  -25.2568  -13.8139   20.5619 C   0  0  0  0  0  0
  -24.1839  -13.0428   20.9174 C   0  0  0  0  0  0
  -24.6400  -11.6899   20.8732 C   0  0  0  0  0  0
  -23.9057  -10.4289   21.0401 C   0  0  0  0  0  0
  -24.3605   -9.4210   21.9184 C   0  0  0  0  0  0
  -23.6282   -8.2246   22.0757 C   0  0  0  0  0  0
  -22.4270   -8.0272   21.3541 C   0  0  0  0  0  0
  -21.9895   -9.0251   20.4652 C   0  0  0  0  0  0
  -22.7220  -10.2130   20.3057 C   0  0  0  0  0  0
  -21.6854   -6.0730   22.5274 C   0  0  0  0  0  0
  -21.4014   -6.5638   23.8205 C   0  0  0  0  0  0
  -21.3663   -5.6789   24.9170 C   0  0  0  0  0  0
  -21.6042   -4.3051   24.7219 C   0  0  0  0  0  0
  -21.8820   -3.8143   23.4341 C   0  0  0  0  0  0
  -21.9196   -4.6960   22.3397 C   0  0  0  0  0  0
  -22.7861  -13.5248   21.1838 C   0  0  0  0  0  0
  -22.1666   -4.2148   21.0975 F   0  0  0  0  0  0
  -21.5630   -3.4537   25.7734 F   0  0  0  0  0  0
  -30.0290  -13.3902   20.4686 N   0  0  0  0  0  0
  -26.3028  -12.9331   20.3337 N   0  0  0  0  0  0
  -25.9335  -11.6486   20.5752 N   0  0  0  0  0  0
  -22.0494  -12.8262   22.0404 N   0  0  0  0  0  0
  -25.4256  -15.1831   20.3920 N   0  0  0  0  0  0
  -31.6843  -14.8914   20.0167 O   0  0  0  0  0  0
  -21.6632   -6.8870   21.4235 O   0  0  0  0  0  0
  -22.3547  -14.5549   20.6684 O   0  0  0  0  0  0
  -24.6248  -31.8597   23.2023 C   0  0  0  0  0  0
  -25.9098  -32.4778   23.8352 C   0  0  1  0  0  0
  -27.2339  -27.3241   20.1200 C   0  0  0  0  0  0
  -25.5913  -33.8577   24.2279 N   0  0  0  0  0  0
  -23.4186  -30.4816   21.5448 C   0  0  2  0  0  0
  -24.8660  -28.9309   20.1167 C   0  0  0  0  0  0
  -22.7466  -29.4620   22.4944 C   0  0  0  0  0  0
  -18.0285  -28.1380   22.8485 C   0  0  0  0  0  0
  -24.1489  -36.7298   23.2639 C   0  0  0  0  0  0
  -25.9575  -30.7921   21.3715 C   0  0  0  0  0  0
  -26.0329  -29.4171   20.7184 C   0  0  0  0  0  0
  -27.2180  -28.6258   20.7081 C   0  0  0  0  0  0
  -26.0435  -26.8860   19.4971 C   0  0  0  0  0  0
  -24.8725  -27.6701   19.4984 C   0  0  0  0  0  0
  -23.6339  -29.8115   20.1617 C   0  0  0  0  0  0
  -25.4113  -36.3084   24.0329 C   0  0  1  0  0  0
  -20.5883  -28.3683   23.1288 C   0  0  2  0  0  0
  -20.6773  -26.9407   22.5411 C   0  0  0  0  0  0
  -19.5750  -26.6380   21.5211 C   0  0  0  0  0  0
  -18.1929  -26.7923   22.1621 C   0  0  0  0  0  0
  -19.1537  -28.8848   23.2881 C   0  0  0  0  0  0
  -18.9459  -30.1450   23.8895 C   0  0  0  0  0  0
  -17.6460  -30.6583   24.0561 C   0  0  0  0  0  0
  -25.9045  -34.9453   23.5105 C   0  0  0  0  0  0
  -16.5352  -29.9081   23.6327 C   0  0  0  0  0  0
  -16.7273  -28.6499   23.0348 C   0  0  0  0  0  0
  -26.4490  -31.6587   25.0722 C   0  0  0  0  0  0
  -25.3729  -31.3721   26.1455 C   0  0  0  0  0  0
  -27.0333  -30.3013   24.6169 C   0  0  0  0  0  0
  -27.6054  -32.4316   25.7493 C   0  0  0  0  0  0
  -27.5579  -37.1803   24.8463 C   0  0  0  0  0  0
  -21.4182  -29.3040   22.3686 N   0  0  0  0  0  0
  -26.4291  -37.3777   23.9406 N   0  0  0  0  0  0
  -24.6857  -31.0616   22.0967 N   0  0  0  0  0  0
  -23.4193  -28.8163   23.3023 O   0  0  0  0  0  0
  -28.3868  -26.5259   20.1228 O   0  0  0  0  0  0
  -26.5617  -34.8918   22.4674 O   0  0  0  0  0  0
  -23.5414  -32.1391   23.7356 O   0  0  0  0  0  0
  -29.8995  -18.0791   20.9102 C   0  0  0  0  0  0
  -28.0458  -16.7901   21.8042 C   0  0  0  0  0  0
  -29.1524  -19.3176   21.0810 C   0  0  0  0  0  0
  -27.8518  -19.2279   21.6632 C   0  0  0  0  0  0
  -29.3583  -16.7955   21.2973 C   0  0  0  0  0  0
  -27.3030  -17.9664   21.9828 C   0  0  0  0  0  0
  -29.8905  -23.0074   19.3939 C   0  0  0  0  0  0
  -29.5078  -24.3159   19.6147 C   0  0  0  0  0  0
  -30.9888  -22.6894   18.3948 C   0  0  0  0  0  0
  -30.3963  -22.5027   16.9757 C   0  0  0  0  0  0
  -29.2444  -21.4690   16.8291 C   0  0  0  0  0  0
  -27.9420  -21.8224   17.5978 C   0  0  0  0  0  0
  -27.9406  -21.4119   19.0902 C   0  0  0  0  0  0
  -27.0160  -20.4586   22.0208 C   0  0  0  0  0  0
  -29.7691  -20.7516   20.8245 C   0  0  0  0  0  0
  -28.3056  -25.0510   20.2645 C   0  0  0  0  0  0
  -30.0115  -15.4930   21.4433 N   0  0  0  0  0  0
  -29.2767  -21.6314   19.6795 N   0  3  2  0  0  0
  -25.7206  -17.8322   22.6705 Cl  0  0  0  0  0  0
  -31.4876  -12.5501   19.1467 H   0  0  0  0  0  0
  -30.3962  -11.3964   19.8595 H   0  0  0  0  0  0
  -29.7790  -11.8065   17.4627 H   0  0  0  0  0  0
  -29.6506  -13.5199   17.7674 H   0  0  0  0  0  0
  -27.8668  -11.3081   18.8394 H   0  0  0  0  0  0
  -27.3818  -12.6185   17.7958 H   0  0  0  0  0  0
  -27.6968  -14.2585   19.5679 H   0  0  0  0  0  0
  -28.7161  -11.9818   21.3324 H   0  0  0  0  0  0
  -28.4237  -13.5951   21.8866 H   0  0  0  0  0  0
  -25.2751   -9.5696   22.4755 H   0  0  0  0  0  0
  -23.9990   -7.4644   22.7479 H   0  0  0  0  0  0
  -21.0825   -8.8769   19.8962 H   0  0  0  0  0  0
  -22.3677  -10.9666   19.6165 H   0  0  0  0  0  0
  -21.2007   -7.6145   23.9710 H   0  0  0  0  0  0
  -21.1485   -6.0515   25.9073 H   0  0  0  0  0  0
  -22.0598   -2.7605   23.2833 H   0  0  0  0  0  0
  -22.4089  -11.9918   22.4791 H   0  0  0  0  0  0
  -21.1112  -13.1304   22.2598 H   0  0  0  0  0  0
  -24.6702  -15.8419   20.5431 H   0  0  0  0  0  0
  -26.2755  -15.6222   20.0656 H   0  0  0  0  0  0
  -26.7168  -32.5452   23.1105 H   0  0  0  0  0  0
  -25.0063  -33.9722   25.0425 H   0  0  0  0  0  0
  -22.7121  -31.3016   21.4000 H   0  0  0  0  0  0
  -23.3743  -35.9639   23.3308 H   0  0  0  0  0  0
  -24.3581  -36.8910   22.2051 H   0  0  0  0  0  0
  -23.7250  -37.6506   23.6659 H   0  0  0  0  0  0
  -26.0851  -31.5543   20.6012 H   0  0  0  0  0  0
  -26.8386  -30.8448   21.9994 H   0  0  0  0  0  0
  -28.1174  -29.0003   21.1763 H   0  0  0  0  0  0
  -25.9989  -25.9365   18.9869 H   0  0  0  0  0  0
  -23.9796  -27.2959   19.0171 H   0  0  0  0  0  0
  -23.7527  -30.5851   19.4022 H   0  0  0  0  0  0
  -22.7544  -29.2392   19.8615 H   0  0  0  0  0  0
  -25.1293  -36.1935   25.0820 H   0  0  0  0  0  0
  -20.9975  -28.3254   24.1411 H   0  0  0  0  0  0
  -20.5672  -26.2290   23.3609 H   0  0  0  0  0  0
  -21.6643  -26.7437   22.1208 H   0  0  0  0  0  0
  -19.6910  -25.6289   21.1245 H   0  0  0  0  0  0
  -19.6689  -27.3189   20.6740 H   0  0  0  0  0  0
  -17.4199  -26.6667   21.4024 H   0  0  0  0  0  0
  -18.0332  -26.0067   22.9021 H   0  0  0  0  0  0
  -19.7935  -30.7265   24.2264 H   0  0  0  0  0  0
  -17.5017  -31.6266   24.5160 H   0  0  0  0  0  0
  -15.5352  -30.2984   23.7654 H   0  0  0  0  0  0
  -15.8671  -28.0822   22.7061 H   0  0  0  0  0  0
  -24.5899  -30.7076   25.7784 H   0  0  0  0  0  0
  -24.8928  -32.2886   26.4891 H   0  0  0  0  0  0
  -25.8059  -30.8891   27.0224 H   0  0  0  0  0  0
  -26.2905  -29.6762   24.1200 H   0  0  0  0  0  0
  -27.4040  -29.7268   25.4668 H   0  0  0  0  0  0
  -27.8772  -30.4296   23.9386 H   0  0  0  0  0  0
  -27.2669  -33.3612   26.2078 H   0  0  0  0  0  0
  -28.3865  -32.6876   25.0323 H   0  0  0  0  0  0
  -28.0728  -31.8436   26.5401 H   0  0  0  0  0  0
  -28.2596  -38.0100   24.7506 H   0  0  0  0  0  0
  -28.1072  -36.2628   24.6294 H   0  0  0  0  0  0
  -27.2297  -37.1463   25.8867 H   0  0  0  0  0  0
  -20.9352  -29.8768   21.6906 H   0  0  0  0  0  0
  -26.0171  -38.2853   24.1400 H   0  0  0  0  0  0
  -30.9199  -18.1251   20.5549 H   0  0  0  0  0  0
  -27.5913  -15.8646   22.1266 H   0  0  0  0  0  0
  -30.1589  -25.0409   19.1485 H   0  0  0  0  0  0
  -31.5544  -21.8045   18.6916 H   0  0  0  0  0  0
  -31.7172  -23.5022   18.3824 H   0  0  0  0  0  0
  -31.2048  -22.2231   16.2982 H   0  0  0  0  0  0
  -30.0445  -23.4705   16.6121 H   0  0  0  0  0  0
  -29.5855  -20.4638   17.0829 H   0  0  0  0  0  0
  -28.9938  -21.4195   15.7677 H   0  0  0  0  0  0
  -27.0949  -21.3325   17.1157 H   0  0  0  0  0  0
  -27.7425  -22.8912   17.5026 H   0  0  0  0  0  0
  -27.6710  -20.3581   19.1489 H   0  0  0  0  0  0
  -27.1824  -21.9726   19.6371 H   0  0  0  0  0  0
  -27.5318  -21.4112   21.9408 H   0  0  0  0  0  0
  -26.6769  -20.3929   23.0553 H   0  0  0  0  0  0
  -26.1287  -20.5054   21.3886 H   0  0  0  0  0  0
  -30.8401  -20.6151   20.6765 H   0  0  0  0  0  0
  -29.7079  -21.3263   21.7478 H   0  0  0  0  0  0
  -28.2814  -24.8052   21.3265 H   0  0  0  0  0  0
  -27.4014  -24.6285   19.8319 H   0  0  0  0  0  0
  -29.4788  -14.9189   22.0785 H   0  0  0  0  0  0
  -29.7493  -21.0901   18.9712 H   0  0  0  0  0  0
  1 25  1  0  0  0
  1 30  2  0  0  0
  1 87  1  0  0  0
  2  3  1  0  0  0
  2 25  1  0  0  0
  2 90  1  0  0  0
  2 91  1  0  0  0
  3  4  1  0  0  0
  3 92  1  0  0  0
  3 93  1  0  0  0
  4  5  1  0  0  0
  4 94  1  0  0  0
  4 95  1  0  0  0
  5  6  1  0  0  0
  5 26  1  0  0  0
  5 96  1  0  0  0
  6 25  1  0  0  0
  6 97  1  0  0  0
  6 98  1  0  0  0
  7  8  2  0  0  0
  7 26  1  0  0  0
  7 29  1  0  0  0
  8  9  1  0  0  0
  8 22  1  0  0  0
  9 10  1  0  0  0
  9 27  2  0  0  0
 10 11  2  0  0  0
 10 15  1  0  0  0
 11 12  1  0  0  0
 11 99  1  0  0  0
 12 13  2  0  0  0
 12100  1  0  0  0
 13 14  1  0  0  0
 13 31  1  0  0  0
 14 15  2  0  0  0
 14101  1  0  0  0
 15102  1  0  0  0
 16 17  2  0  0  0
 16 21  1  0  0  0
 16 31  1  0  0  0
 17 18  1  0  0  0
 17103  1  0  0  0
 18 19  2  0  0  0
 18104  1  0  0  0
 19 20  1  0  0  0
 19 24  1  0  0  0
 20 21  2  0  0  0
 20105  1  0  0  0
 21 23  1  0  0  0
 22 28  1  0  0  0
 22 32  2  0  0  0
 26 27  1  0  0  0
 28106  1  0  0  0
 28107  1  0  0  0
 29108  1  0  0  0
 29109  1  0  0  0
 33 34  1  0  0  0
 33 66  1  0  0  0
 33 70  2  0  0  0
 34 36  1  0  0  0
 34 59  1  0  0  0
 34110  1  0  0  0
 35 44  2  0  0  0
 35 45  1  0  0  0
 35 68  1  0  0  0
 36 56  1  0  0  0
 36111  1  0  0  0
 37 39  1  0  0  0
 37 47  1  0  0  0
 37 66  1  0  0  0
 37112  1  0  0  0
 38 43  2  0  0  0
 38 46  1  0  0  0
 38 47  1  0  0  0
 39 64  1  0  0  0
 39 67  2  0  0  0
 40 52  1  0  0  0
 40 53  2  0  0  0
 40 58  1  0  0  0
 41113  1  0  0  0
 41114  1  0  0  0
 41115  1  0  0  0
 41 48  1  0  0  0
 42 43  1  0  0  0
 42 66  1  0  0  0
 42116  1  0  0  0
 42117  1  0  0  0
 43 44  1  0  0  0
 44118  1  0  0  0
 45 46  2  0  0  0
 45119  1  0  0  0
 46120  1  0  0  0
 47121  1  0  0  0
 47122  1  0  0  0
 48 56  1  0  0  0
 48 65  1  0  0  0
 48123  1  0  0  0
 49 50  1  0  0  0
 49 53  1  0  0  0
 49 64  1  0  0  0
 49124  1  0  0  0
 50 51  1  0  0  0
 50125  1  0  0  0
 50126  1  0  0  0
 51 52  1  0  0  0
 51127  1  0  0  0
 51128  1  0  0  0
 52129  1  0  0  0
 52130  1  0  0  0
 53 54  1  0  0  0
 54 55  2  0  0  0
 54131  1  0  0  0
 55 57  1  0  0  0
 55132  1  0  0  0
 56 69  2  0  0  0
 57 58  2  0  0  0
 57133  1  0  0  0
 58134  1  0  0  0
 59 60  1  0  0  0
 59 61  1  0  0  0
 59 62  1  0  0  0
 60135  1  0  0  0
 60136  1  0  0  0
 60137  1  0  0  0
 61138  1  0  0  0
 61139  1  0  0  0
 61140  1  0  0  0
 62141  1  0  0  0
 62142  1  0  0  0
 62143  1  0  0  0
 63 65  1  0  0  0
 63144  1  0  0  0
 63145  1  0  0  0
 63146  1  0  0  0
 64147  1  0  0  0
 65148  1  0  0  0
 68 86  1  0  0  0
 71 73  2  0  0  0
 71 75  1  0  0  0
 71149  1  0  0  0
 72 75  2  0  0  0
 72 76  1  0  0  0
 72150  1  0  0  0
 73 74  1  0  0  0
 73 85  1  0  0  0
 74 76  2  0  0  0
 74 84  1  0  0  0
 75 87  1  0  0  0
 76 89  1  0  0  0
 77 78  2  0  0  0
 77 79  1  0  0  0
 77 88  1  0  0  0
 78 86  1  0  0  0
 78151  1  0  0  0
 79 80  1  0  0  0
 79152  1  0  0  0
 79153  1  0  0  0
 80 81  1  0  0  0
 80154  1  0  0  0
 80155  1  0  0  0
 81 82  1  0  0  0
 81156  1  0  0  0
 81157  1  0  0  0
 82 83  1  0  0  0
 82158  1  0  0  0
 82159  1  0  0  0
 83 88  1  0  0  0
 83160  1  0  0  0
 83161  1  0  0  0
 84162  1  0  0  0
 84163  1  0  0  0
 84164  1  0  0  0
 85165  1  0  0  0
 85166  1  0  0  0
 85 88  1  0  0  0
 86167  1  0  0  0
 86168  1  0  0  0
 87169  1  0  0  0
 88170  1  0  0  0
M  CHG  1  88   1
M  ISO  4   1 100  68 101  86 101  87 100
M  END
> <chiral flag>
0

> <version>
0

> <s_m_source_file>
/data/baiqing/PycharmProjects/Reinvent-master-3.2/result/LINK_invent/BTK/process_docking_weight1_custom_product_contain_oxygen_bond_distance_aromatic_linkinvent_7_9_3/rearranged_h_0040.sdf

> <i_m_source_file_index>
95

> <r_mmod_Potential_Energy-OPLS-2005>
126.029403686523

> <r_mmod_Stretch_Energy-OPLS-2005>
89.6563949584961

> <r_mmod_Bend_Energy-OPLS-2005>
246.095733642578

> <r_mmod_Torsional_Energy-OPLS-2005>
280.457641601562

> <r_mmod_Improper_Torsional_Energy-OPLS-2005>
8.62193489074707

> <r_mmod_Van_der_Waal_Energy-OPLS-2005>
140.364227294922

> <r_mmod_Electrostatic_Energy-OPLS-2005>
-249.105987548828

> <r_mmod_Solvation_Energy-OPLS-2005>
-433.159576416016

> <b_mmod_Minimization_Converged-OPLS-2005>
0

> <r_mmod_RMS_Derivative-OPLS-2005>
1.13024520874023

$$$$
