0
                    3D
 Structure written by MMmdl.
160168  0  0  1  0            999 V2000
  -30.7514  -14.3592   20.7174 C   0  0  0  0  0  0
  -30.4284  -12.3102   19.3680 C   0  0  0  0  0  0
  -29.4826  -12.5564   18.1783 C   0  0  0  0  0  0
  -28.0064  -12.4170   18.5963 C   0  0  0  0  0  0
  -27.6755  -13.2023   19.8967 C   0  0  2  0  0  0
  -28.7197  -12.8767   20.9881 C   0  0  0  0  0  0
  -25.2615  -13.8138   20.5679 C   0  0  0  0  0  0
  -24.1867  -13.0420   20.9159 C   0  0  0  0  0  0
  -24.6418  -11.6885   20.8720 C   0  0  0  0  0  0
  -23.9071  -10.4289   21.0378 C   0  0  0  0  0  0
  -24.3615   -9.4194   21.9149 C   0  0  0  0  0  0
  -23.6281   -8.2245   22.0741 C   0  0  0  0  0  0
  -22.4259   -8.0278   21.3539 C   0  0  0  0  0  0
  -21.9886   -9.0257   20.4645 C   0  0  0  0  0  0
  -22.7233  -10.2126   20.3036 C   0  0  0  0  0  0
  -21.6853   -6.0726   22.5276 C   0  0  0  0  0  0
  -21.4028   -6.5630   23.8214 C   0  0  0  0  0  0
  -21.3658   -5.6768   24.9166 C   0  0  0  0  0  0
  -21.6043   -4.3032   24.7204 C   0  0  0  0  0  0
  -21.8826   -3.8132   23.4326 C   0  0  0  0  0  0
  -21.9204   -4.6954   22.3390 C   0  0  0  0  0  0
  -22.7883  -13.5216   21.1809 C   0  0  0  0  0  0
  -22.1666   -4.2143   21.0957 F   0  0  0  0  0  0
  -21.5618   -3.4517   25.7714 F   0  0  0  0  0  0
  -30.0482  -13.2248   20.4567 N   0  0  0  0  0  0
  -26.3104  -12.9337   20.3481 N   0  0  0  0  0  0
  -25.9346  -11.6489   20.5767 N   0  0  0  0  0  0
  -22.0514  -12.8283   22.0392 N   0  0  0  0  0  0
  -25.4262  -15.1877   20.4081 N   0  0  0  0  0  0
  -31.7720  -14.6514   20.0839 O   0  0  0  0  0  0
  -21.6629   -6.8866   21.4239 O   0  0  0  0  0  0
  -22.3580  -14.5518   20.6615 O   0  0  0  0  0  0
  -24.6153  -31.8678   23.2062 C   0  0  0  0  0  0
  -25.9051  -32.4809   23.8359 C   0  0  1  0  0  0
  -27.2325  -27.4516   20.0810 C   0  0  0  0  0  0
  -25.5897  -33.8612   24.2311 N   0  0  0  0  0  0
  -23.4025  -30.4926   21.5452 C   0  0  2  0  0  0
  -24.8490  -28.9586   20.1121 C   0  0  0  0  0  0
  -22.7399  -29.4687   22.4959 C   0  0  0  0  0  0
  -18.0268  -28.1364   22.8468 C   0  0  0  0  0  0
  -24.1498  -36.7321   23.2635 C   0  0  0  0  0  0
  -25.9278  -30.8426   21.3464 C   0  0  0  0  0  0
  -26.0104  -29.4762   20.7000 C   0  0  0  0  0  0
  -27.2105  -28.7325   20.6758 C   0  0  0  0  0  0
  -26.0576  -26.9449   19.4873 C   0  0  0  0  0  0
  -24.8672  -27.6933   19.5007 C   0  0  0  0  0  0
  -23.6103  -29.8214   20.1609 C   0  0  0  0  0  0
  -25.4119  -36.3124   24.0341 C   0  0  1  0  0  0
  -20.5841  -28.3714   23.1307 C   0  0  2  0  0  0
  -20.6796  -26.9431   22.5444 C   0  0  0  0  0  0
  -19.5782  -26.6335   21.5258 C   0  0  0  0  0  0
  -18.1942  -26.7889   22.1642 C   0  0  0  0  0  0
  -19.1494  -28.8856   23.2877 C   0  0  0  0  0  0
  -18.9420  -30.1442   23.8893 C   0  0  0  0  0  0
  -17.6422  -30.6577   24.0537 C   0  0  0  0  0  0
  -25.9050  -34.9479   23.5134 C   0  0  0  0  0  0
  -16.5308  -29.9089   23.6256 C   0  0  0  0  0  0
  -16.7245  -28.6490   23.0306 C   0  0  0  0  0  0
  -26.4491  -31.6552   25.0636 C   0  0  0  0  0  0
  -25.3756  -31.3607   26.1357 C   0  0  0  0  0  0
  -27.0280  -30.3018   24.5894 C   0  0  0  0  0  0
  -27.6118  -32.4197   25.7373 C   0  0  0  0  0  0
  -27.5595  -37.1810   24.8465 C   0  0  0  0  0  0
  -21.4118  -29.3074   22.3710 N   0  0  0  0  0  0
  -26.4319  -37.3798   23.9407 N   0  0  0  0  0  0
  -24.6694  -31.0812   22.0933 N   0  0  0  0  0  0
  -23.4168  -28.8225   23.3005 O   0  0  0  0  0  0
  -28.3864  -26.7031   20.0952 O   0  0  0  0  0  0
  -26.5608  -34.8921   22.4682 O   0  0  0  0  0  0
  -23.5354  -32.1433   23.7462 O   0  0  0  0  0  0
  -28.3830  -19.4804   22.9695 C   0  0  0  0  0  0
  -27.7708  -20.7056   22.6527 C   0  0  0  0  0  0
  -29.6111  -19.5583   20.8793 C   0  0  0  0  0  0
  -29.3272  -18.8968   22.0984 C   0  0  0  0  0  0
  -28.0678  -21.3771   21.4539 C   0  0  0  0  0  0
  -28.9944  -20.7849   20.5543 C   0  0  0  0  0  0
  -30.4349  -17.6684   23.8746 C   0  0  0  0  0  0
  -30.3178  -15.3157   21.8472 C   0  0  0  0  0  0
  -28.2247  -24.2458   19.6458 C   0  0  0  0  0  0
  -30.5716  -16.7997   21.4984 C   0  0  0  0  0  0
  -28.2351  -25.3987   20.6732 C   0  0  0  0  0  0
  -27.2182  -23.1327   19.9938 C   0  0  0  0  0  0
  -29.9763  -17.7046   22.4886 N   0  0  0  0  0  0
  -27.4343  -22.5910   21.2931 O   0  0  0  0  0  0
  -29.3417  -21.3946   19.3943 F   0  0  0  0  0  0
  -31.4654  -12.4415   19.0509 H   0  0  0  0  0  0
  -30.3584  -11.2738   19.7012 H   0  0  0  0  0  0
  -29.7143  -11.8675   17.3644 H   0  0  0  0  0  0
  -29.6557  -13.5582   17.7791 H   0  0  0  0  0  0
  -27.7979  -11.3549   18.7392 H   0  0  0  0  0  0
  -27.3587  -12.7502   17.7843 H   0  0  0  0  0  0
  -27.7511  -14.2670   19.6748 H   0  0  0  0  0  0
  -28.6972  -11.8064   21.1973 H   0  0  0  0  0  0
  -28.4740  -13.3357   21.9434 H   0  0  0  0  0  0
  -25.2754   -9.5680   22.4711 H   0  0  0  0  0  0
  -23.9987   -7.4644   22.7474 H   0  0  0  0  0  0
  -21.0814   -8.8788   19.8964 H   0  0  0  0  0  0
  -22.3688  -10.9662   19.6153 H   0  0  0  0  0  0
  -21.2031   -7.6131   23.9721 H   0  0  0  0  0  0
  -21.1471   -6.0484   25.9072 H   0  0  0  0  0  0
  -22.0613   -2.7597   23.2821 H   0  0  0  0  0  0
  -22.4112  -11.9997   22.4908 H   0  0  0  0  0  0
  -21.1124  -13.1368   22.2493 H   0  0  0  0  0  0
  -24.6497  -15.8301   20.5118 H   0  0  0  0  0  0
  -26.2826  -15.6462   20.1223 H   0  0  0  0  0  0
  -26.7107  -32.5545   23.1124 H   0  0  0  0  0  0
  -25.0018  -33.9765   25.0437 H   0  0  0  0  0  0
  -22.6932  -31.3091   21.4013 H   0  0  0  0  0  0
  -23.3756  -35.9657   23.3316 H   0  0  0  0  0  0
  -24.3611  -36.8914   22.2046 H   0  0  0  0  0  0
  -23.7245  -37.6535   23.6628 H   0  0  0  0  0  0
  -26.0127  -31.6018   20.5675 H   0  0  0  0  0  0
  -26.8284  -30.9197   21.9420 H   0  0  0  0  0  0
  -28.1155  -29.1331   21.1159 H   0  0  0  0  0  0
  -26.0572  -25.9753   19.0114 H   0  0  0  0  0  0
  -23.9737  -27.2894   19.0425 H   0  0  0  0  0  0
  -23.7189  -30.5910   19.3966 H   0  0  0  0  0  0
  -22.7347  -29.2404   19.8669 H   0  0  0  0  0  0
  -25.1299  -36.2018   25.0840 H   0  0  0  0  0  0
  -20.9887  -28.3379   24.1447 H   0  0  0  0  0  0
  -20.5730  -26.2316   23.3651 H   0  0  0  0  0  0
  -21.6681  -26.7489   22.1236 H   0  0  0  0  0  0
  -19.6978  -25.6211   21.1399 H   0  0  0  0  0  0
  -19.6732  -27.3062   20.6744 H   0  0  0  0  0  0
  -17.4244  -26.6560   21.4056 H   0  0  0  0  0  0
  -18.0369  -26.0048   22.9044 H   0  0  0  0  0  0
  -19.7878  -30.7294   24.2257 H   0  0  0  0  0  0
  -17.4949  -31.6289   24.5086 H   0  0  0  0  0  0
  -15.5307  -30.2998   23.7525 H   0  0  0  0  0  0
  -15.8662  -28.0817   22.6976 H   0  0  0  0  0  0
  -24.6028  -30.6847   25.7666 H   0  0  0  0  0  0
  -24.8793  -32.2719   26.4713 H   0  0  0  0  0  0
  -25.8102  -30.8850   27.0157 H   0  0  0  0  0  0
  -26.2751  -29.6762   24.1068 H   0  0  0  0  0  0
  -27.4278  -29.7244   25.4243 H   0  0  0  0  0  0
  -27.8494  -30.4384   23.8846 H   0  0  0  0  0  0
  -27.2851  -33.3541   26.1945 H   0  0  0  0  0  0
  -28.3931  -32.6651   25.0162 H   0  0  0  0  0  0
  -28.0775  -31.8263   26.5258 H   0  0  0  0  0  0
  -28.2621  -38.0093   24.7531 H   0  0  0  0  0  0
  -28.1086  -36.2640   24.6305 H   0  0  0  0  0  0
  -27.2308  -37.1477   25.8860 H   0  0  0  0  0  0
  -20.9273  -29.8897   21.7031 H   0  0  0  0  0  0
  -26.0219  -38.2880   24.1411 H   0  0  0  0  0  0
  -28.1113  -18.9999   23.8985 H   0  0  0  0  0  0
  -27.0659  -21.1383   23.3487 H   0  0  0  0  0  0
  -30.3359  -19.1585   20.1872 H   0  0  0  0  0  0
  -30.7670  -18.6566   24.2034 H   0  0  0  0  0  0
  -31.2735  -16.9824   23.9936 H   0  0  0  0  0  0
  -29.6383  -17.3319   24.5400 H   0  0  0  0  0  0
  -30.8720  -15.0292   22.7432 H   0  0  0  0  0  0
  -29.2629  -15.2229   22.0928 H   0  0  0  0  0  0
  -29.2292  -23.8356   19.5433 H   0  0  0  0  0  0
  -27.9567  -24.6305   18.6619 H   0  0  0  0  0  0
  -30.1522  -16.9876   20.5094 H   0  0  0  0  0  0
  -31.6444  -16.9879   21.4153 H   0  0  0  0  0  0
  -29.0650  -25.2430   21.3615 H   0  0  0  0  0  0
  -27.3394  -25.3560   21.2986 H   0  0  0  0  0  0
  -27.1755  -22.3651   19.2194 H   0  0  0  0  0  0
  -26.2184  -23.5665   20.0074 H   0  0  0  0  0  0
  1 25  1  0  0  0
  1 30  2  0  0  0
  1 78  1  0  0  0
  2  3  1  0  0  0
  2 25  1  0  0  0
  2 86  1  0  0  0
  2 87  1  0  0  0
  3  4  1  0  0  0
  3 88  1  0  0  0
  3 89  1  0  0  0
  4  5  1  0  0  0
  4 90  1  0  0  0
  4 91  1  0  0  0
  5  6  1  0  0  0
  5 26  1  0  0  0
  5 92  1  0  0  0
  6 25  1  0  0  0
  6 93  1  0  0  0
  6 94  1  0  0  0
  7  8  2  0  0  0
  7 26  1  0  0  0
  7 29  1  0  0  0
  8  9  1  0  0  0
  8 22  1  0  0  0
  9 10  1  0  0  0
  9 27  2  0  0  0
 10 11  2  0  0  0
 10 15  1  0  0  0
 11 12  1  0  0  0
 11 95  1  0  0  0
 12 13  2  0  0  0
 12 96  1  0  0  0
 13 14  1  0  0  0
 13 31  1  0  0  0
 14 15  2  0  0  0
 14 97  1  0  0  0
 15 98  1  0  0  0
 16 17  2  0  0  0
 16 21  1  0  0  0
 16 31  1  0  0  0
 17 18  1  0  0  0
 17 99  1  0  0  0
 18 19  2  0  0  0
 18100  1  0  0  0
 19 20  1  0  0  0
 19 24  1  0  0  0
 20 21  2  0  0  0
 20101  1  0  0  0
 21 23  1  0  0  0
 22 28  1  0  0  0
 22 32  2  0  0  0
 26 27  1  0  0  0
 28102  1  0  0  0
 28103  1  0  0  0
 29104  1  0  0  0
 29105  1  0  0  0
 33 34  1  0  0  0
 33 66  1  0  0  0
 33 70  2  0  0  0
 34 36  1  0  0  0
 34 59  1  0  0  0
 34106  1  0  0  0
 35 44  2  0  0  0
 35 45  1  0  0  0
 35 68  1  0  0  0
 36 56  1  0  0  0
 36107  1  0  0  0
 37 39  1  0  0  0
 37 47  1  0  0  0
 37 66  1  0  0  0
 37108  1  0  0  0
 38 43  2  0  0  0
 38 46  1  0  0  0
 38 47  1  0  0  0
 39 64  1  0  0  0
 39 67  2  0  0  0
 40 52  1  0  0  0
 40 53  2  0  0  0
 40 58  1  0  0  0
 41109  1  0  0  0
 41110  1  0  0  0
 41111  1  0  0  0
 41 48  1  0  0  0
 42 43  1  0  0  0
 42 66  1  0  0  0
 42112  1  0  0  0
 42113  1  0  0  0
 43 44  1  0  0  0
 44114  1  0  0  0
 45 46  2  0  0  0
 45115  1  0  0  0
 46116  1  0  0  0
 47117  1  0  0  0
 47118  1  0  0  0
 48 56  1  0  0  0
 48 65  1  0  0  0
 48119  1  0  0  0
 49 50  1  0  0  0
 49 53  1  0  0  0
 49 64  1  0  0  0
 49120  1  0  0  0
 50 51  1  0  0  0
 50121  1  0  0  0
 50122  1  0  0  0
 51 52  1  0  0  0
 51123  1  0  0  0
 51124  1  0  0  0
 52125  1  0  0  0
 52126  1  0  0  0
 53 54  1  0  0  0
 54 55  2  0  0  0
 54127  1  0  0  0
 55 57  1  0  0  0
 55128  1  0  0  0
 56 69  2  0  0  0
 57 58  2  0  0  0
 57129  1  0  0  0
 58130  1  0  0  0
 59 60  1  0  0  0
 59 61  1  0  0  0
 59 62  1  0  0  0
 60131  1  0  0  0
 60132  1  0  0  0
 60133  1  0  0  0
 61134  1  0  0  0
 61135  1  0  0  0
 61136  1  0  0  0
 62137  1  0  0  0
 62138  1  0  0  0
 62139  1  0  0  0
 63 65  1  0  0  0
 63140  1  0  0  0
 63141  1  0  0  0
 63142  1  0  0  0
 64143  1  0  0  0
 65144  1  0  0  0
 68 81  1  0  0  0
 71 72  2  0  0  0
 71 74  1  0  0  0
 71145  1  0  0  0
 72 75  1  0  0  0
 72146  1  0  0  0
 73 74  2  0  0  0
 73 76  1  0  0  0
 73147  1  0  0  0
 74 83  1  0  0  0
 75 76  2  0  0  0
 75 84  1  0  0  0
 76 85  1  0  0  0
 77 83  1  0  0  0
 77148  1  0  0  0
 77149  1  0  0  0
 77150  1  0  0  0
 78 80  1  0  0  0
 78151  1  0  0  0
 78152  1  0  0  0
 79 81  1  0  0  0
 79 82  1  0  0  0
 79153  1  0  0  0
 79154  1  0  0  0
 80 83  1  0  0  0
 80155  1  0  0  0
 80156  1  0  0  0
 81157  1  0  0  0
 81158  1  0  0  0
 82 84  1  0  0  0
 82159  1  0  0  0
 82160  1  0  0  0
M  ISO  4   1 100  68 101  78 100  81 101
M  END
> <chiral flag>
0

> <version>
0

> <s_m_source_file>
/data/baiqing/PycharmProjects/Reinvent-master-3.2/result/LINK_invent/BTK/process_docking_weight1_custom_product_contain_oxygen_bond_distance_aromatic_linkinvent_7_9_3/rearranged_h_0016.sdf

> <i_m_source_file_index>
1

> <r_mmod_Potential_Energy-OPLS-2005>
9.67894744873047

> <r_mmod_Stretch_Energy-OPLS-2005>
35.8553771972656

> <r_mmod_Bend_Energy-OPLS-2005>
117.018928527832

> <r_mmod_Torsional_Energy-OPLS-2005>
197.984771728516

> <r_mmod_Improper_Torsional_Energy-OPLS-2005>
2.87345623970032

> <r_mmod_Van_der_Waal_Energy-OPLS-2005>
163.72785949707

> <r_mmod_Electrostatic_Energy-OPLS-2005>
-316.960571289062

> <r_mmod_Solvation_Energy-OPLS-2005>
-199.995849609375

> <b_mmod_Minimization_Converged-OPLS-2005>
0

> <r_mmod_RMS_Derivative-OPLS-2005>
4.39020538330078

$$$$
1
                    3D
 Structure written by MMmdl.
161169  0  0  1  0            999 V2000
  -30.8063  -14.4409   20.6560 C   0  0  0  0  0  0
  -30.3939  -12.3157   19.4563 C   0  0  0  0  0  0
  -29.4933  -12.5400   18.2247 C   0  0  0  0  0  0
  -28.0154  -12.3705   18.6153 C   0  0  0  0  0  0
  -27.6528  -13.2080   19.8680 C   0  0  2  0  0  0
  -28.6824  -12.9983   20.9982 C   0  0  0  0  0  0
  -25.2537  -13.8155   20.5658 C   0  0  0  0  0  0
  -24.1800  -13.0431   20.9135 C   0  0  0  0  0  0
  -24.6351  -11.6898   20.8676 C   0  0  0  0  0  0
  -23.9036  -10.4290   21.0364 C   0  0  0  0  0  0
  -24.3592   -9.4234   21.9160 C   0  0  0  0  0  0
  -23.6271   -8.2277   22.0762 C   0  0  0  0  0  0
  -22.4257   -8.0298   21.3546 C   0  0  0  0  0  0
  -21.9875   -9.0265   20.4650 C   0  0  0  0  0  0
  -22.7198  -10.2139   20.3039 C   0  0  0  0  0  0
  -21.6846   -6.0739   22.5280 C   0  0  0  0  0  0
  -21.4028   -6.5644   23.8216 C   0  0  0  0  0  0
  -21.3672   -5.6792   24.9171 C   0  0  0  0  0  0
  -21.6052   -4.3057   24.7216 C   0  0  0  0  0  0
  -21.8813   -3.8150   23.4334 C   0  0  0  0  0  0
  -21.9194   -4.6970   22.3396 C   0  0  0  0  0  0
  -22.7838  -13.5260   21.1830 C   0  0  0  0  0  0
  -22.1656   -4.2157   21.0972 F   0  0  0  0  0  0
  -21.5629   -3.4545   25.7730 F   0  0  0  0  0  0
  -30.0290  -13.3198   20.4819 N   0  0  0  0  0  0
  -26.2947  -12.9320   20.3270 N   0  0  0  0  0  0
  -25.9268  -11.6474   20.5675 N   0  0  0  0  0  0
  -22.0473  -12.8271   22.0393 N   0  0  0  0  0  0
  -25.4241  -15.1880   20.4165 N   0  0  0  0  0  0
  -31.8838  -14.5311   20.0528 O   0  0  0  0  0  0
  -21.6637   -6.8881   21.4240 O   0  0  0  0  0  0
  -22.3546  -14.5583   20.6694 O   0  0  0  0  0  0
  -24.6126  -31.8701   23.2104 C   0  0  0  0  0  0
  -25.9051  -32.4813   23.8400 C   0  0  1  0  0  0
  -27.2510  -27.4492   20.0950 C   0  0  0  0  0  0
  -25.5966  -33.8616   24.2346 N   0  0  0  0  0  0
  -23.3981  -30.4900   21.5485 C   0  0  2  0  0  0
  -24.8493  -28.9559   20.1187 C   0  0  0  0  0  0
  -22.7391  -29.4638   22.4989 C   0  0  0  0  0  0
  -18.0254  -28.1399   22.8496 C   0  0  0  0  0  0
  -24.1485  -36.7215   23.2643 C   0  0  0  0  0  0
  -25.9275  -30.8410   21.3604 C   0  0  0  0  0  0
  -26.0074  -29.4754   20.7070 C   0  0  0  0  0  0
  -27.2061  -28.7321   20.6879 C   0  0  0  0  0  0
  -26.0669  -26.9324   19.5180 C   0  0  0  0  0  0
  -24.8731  -27.6830   19.5241 C   0  0  0  0  0  0
  -23.6091  -29.8191   20.1631 C   0  0  0  0  0  0
  -25.4132  -36.3090   24.0339 C   0  0  1  0  0  0
  -20.5842  -28.3640   23.1346 C   0  0  2  0  0  0
  -20.6739  -26.9386   22.5414 C   0  0  0  0  0  0
  -19.5737  -26.6398   21.5204 C   0  0  0  0  0  0
  -18.1915  -26.7954   22.1614 C   0  0  0  0  0  0
  -19.1503  -28.8839   23.2909 C   0  0  0  0  0  0
  -18.9453  -30.1460   23.8895 C   0  0  0  0  0  0
  -17.6464  -30.6609   24.0580 C   0  0  0  0  0  0
  -25.9088  -34.9466   23.5126 C   0  0  0  0  0  0
  -16.5342  -29.9141   23.6332 C   0  0  0  0  0  0
  -16.7239  -28.6550   23.0345 C   0  0  0  0  0  0
  -26.4499  -31.6559   25.0715 C   0  0  0  0  0  0
  -25.3781  -31.3609   26.1463 C   0  0  0  0  0  0
  -27.0306  -30.3018   24.6058 C   0  0  0  0  0  0
  -27.6088  -32.4228   25.7512 C   0  0  0  0  0  0
  -27.5579  -37.1772   24.8505 C   0  0  0  0  0  0
  -21.4117  -29.2995   22.3747 N   0  0  0  0  0  0
  -26.4307  -37.3791   23.9435 N   0  0  0  0  0  0
  -24.6629  -31.0854   22.0965 N   0  0  0  0  0  0
  -23.4166  -28.8173   23.3023 O   0  0  0  0  0  0
  -28.4706  -26.7992   20.0946 O   0  0  0  0  0  0
  -26.5622  -34.8928   22.4668 O   0  0  0  0  0  0
  -23.5319  -32.1398   23.7535 O   0  0  0  0  0  0
  -30.3551  -18.7805   22.6159 C   0  0  0  0  0  0
  -29.9595  -18.8911   20.2265 C   0  0  0  0  0  0
  -29.8311  -20.0814   22.7618 C   0  0  0  0  0  0
  -29.4581  -20.2037   20.3721 C   0  0  0  0  0  0
  -30.4165  -18.1624   21.3494 C   0  0  0  0  0  0
  -29.3796  -20.8229   21.6444 C   0  0  0  0  0  0
  -27.8668  -22.2685   22.8739 C   0  0  0  0  0  0
  -29.6876  -15.4497   22.6520 C   0  0  0  0  0  0
  -31.1228  -16.8134   21.1668 C   0  0  0  0  0  0
  -28.6103  -24.5288   21.0262 C   0  0  0  0  0  0
  -28.8306  -23.0368   20.6670 C   0  0  0  0  0  0
  -28.5950  -25.4140   19.7657 C   0  0  0  0  0  0
  -28.8804  -22.1354   21.8249 N   0  0  0  0  0  0
  -30.3634  -15.5365   21.3509 N   0  0  0  0  0  0
  -31.4424  -12.3557   19.1590 H   0  0  0  0  0  0
  -30.2572  -11.3061   19.8494 H   0  0  0  0  0  0
  -29.7605  -11.8459   17.4269 H   0  0  0  0  0  0
  -29.6513  -13.5433   17.8228 H   0  0  0  0  0  0
  -27.8399  -11.3109   18.8084 H   0  0  0  0  0  0
  -27.3697  -12.6390   17.7778 H   0  0  0  0  0  0
  -27.6930  -14.2565   19.5726 H   0  0  0  0  0  0
  -28.6581  -11.9598   21.3338 H   0  0  0  0  0  0
  -28.3640  -13.5543   21.8690 H   0  0  0  0  0  0
  -25.2735   -9.5730   22.4723 H   0  0  0  0  0  0
  -23.9989   -7.4674   22.7481 H   0  0  0  0  0  0
  -21.0814   -8.8765   19.8956 H   0  0  0  0  0  0
  -22.3637  -10.9672   19.6147 H   0  0  0  0  0  0
  -21.2030   -7.6150   23.9720 H   0  0  0  0  0  0
  -21.1500   -6.0519   25.9072 H   0  0  0  0  0  0
  -22.0579   -2.7617   23.2825 H   0  0  0  0  0  0
  -22.4045  -11.9916   22.4769 H   0  0  0  0  0  0
  -21.1107  -13.1343   22.2595 H   0  0  0  0  0  0
  -24.6580  -15.8404   20.5457 H   0  0  0  0  0  0
  -26.2936  -15.6425   20.1644 H   0  0  0  0  0  0
  -26.7126  -32.5500   23.1163 H   0  0  0  0  0  0
  -25.0205  -33.9799   25.0558 H   0  0  0  0  0  0
  -22.6835  -31.3017   21.4047 H   0  0  0  0  0  0
  -23.3809  -35.9486   23.3377 H   0  0  0  0  0  0
  -24.3574  -36.8749   22.2045 H   0  0  0  0  0  0
  -23.7186  -37.6419   23.6595 H   0  0  0  0  0  0
  -26.0608  -31.6109   20.5985 H   0  0  0  0  0  0
  -26.8091  -30.8833   21.9857 H   0  0  0  0  0  0
  -28.1011  -29.1419   21.1325 H   0  0  0  0  0  0
  -26.0271  -25.9608   19.0518 H   0  0  0  0  0  0
  -23.9777  -27.2737   19.0767 H   0  0  0  0  0  0
  -23.7156  -30.5876   19.3975 H   0  0  0  0  0  0
  -22.7354  -29.2365   19.8651 H   0  0  0  0  0  0
  -25.1324  -36.1941   25.0833 H   0  0  0  0  0  0
  -20.9929  -28.3199   24.1469 H   0  0  0  0  0  0
  -20.5683  -26.2223   23.3574 H   0  0  0  0  0  0
  -21.6618  -26.7467   22.1208 H   0  0  0  0  0  0
  -19.6907  -25.6327   21.1213 H   0  0  0  0  0  0
  -19.6721  -27.3236   20.6760 H   0  0  0  0  0  0
  -17.4182  -26.6664   21.4016 H   0  0  0  0  0  0
  -18.0325  -26.0094   22.9013 H   0  0  0  0  0  0
  -19.7923  -30.7272   24.2255 H   0  0  0  0  0  0
  -17.5030  -31.6302   24.5183 H   0  0  0  0  0  0
  -15.5356  -30.3077   23.7672 H   0  0  0  0  0  0
  -15.8599  -28.0912   22.7064 H   0  0  0  0  0  0
  -24.5991  -30.6939   25.7787 H   0  0  0  0  0  0
  -24.8931  -32.2713   26.4962 H   0  0  0  0  0  0
  -25.8175  -30.8730   27.0170 H   0  0  0  0  0  0
  -26.2792  -29.6810   24.1166 H   0  0  0  0  0  0
  -27.4159  -29.7247   25.4476 H   0  0  0  0  0  0
  -27.8631  -30.4378   23.9156 H   0  0  0  0  0  0
  -27.2763  -33.3526   26.2145 H   0  0  0  0  0  0
  -28.3935  -32.6789   25.0379 H   0  0  0  0  0  0
  -28.0734  -31.8285   26.5410 H   0  0  0  0  0  0
  -28.2662  -38.0017   24.7568 H   0  0  0  0  0  0
  -28.1012  -36.2560   24.6325 H   0  0  0  0  0  0
  -27.2279  -37.1422   25.8907 H   0  0  0  0  0  0
  -20.9265  -29.8620   21.6898 H   0  0  0  0  0  0
  -26.0186  -38.2857   24.1474 H   0  0  0  0  0  0
  -30.7436  -18.2769   23.4888 H   0  0  0  0  0  0
  -30.0321  -18.4728   19.2321 H   0  0  0  0  0  0
  -29.8052  -20.5196   23.7487 H   0  0  0  0  0  0
  -29.1396  -20.7236   19.4822 H   0  0  0  0  0  0
  -27.4389  -21.3103   23.1725 H   0  0  0  0  0  0
  -27.0316  -22.8851   22.5437 H   0  0  0  0  0  0
  -28.2963  -22.7425   23.7559 H   0  0  0  0  0  0
  -29.8628  -14.4913   23.1442 H   0  0  0  0  0  0
  -28.6157  -15.6159   22.5369 H   0  0  0  0  0  0
  -30.0415  -16.1980   23.3540 H   0  0  0  0  0  0
  -31.9780  -16.7963   21.8453 H   0  0  0  0  0  0
  -31.5529  -16.8680   20.1636 H   0  0  0  0  0  0
  -29.4025  -24.8670   21.6973 H   0  0  0  0  0  0
  -27.6734  -24.6751   21.5629 H   0  0  0  0  0  0
  -29.7715  -22.9527   20.1178 H   0  0  0  0  0  0
  -28.0473  -22.7043   19.9844 H   0  0  0  0  0  0
  -27.8687  -25.0565   19.0387 H   0  0  0  0  0  0
  -29.5583  -25.3080   19.2670 H   0  0  0  0  0  0
  1 25  1  0  0  0
  1 30  2  0  0  0
  1 84  1  0  0  0
  2  3  1  0  0  0
  2 25  1  0  0  0
  2 85  1  0  0  0
  2 86  1  0  0  0
  3  4  1  0  0  0
  3 87  1  0  0  0
  3 88  1  0  0  0
  4  5  1  0  0  0
  4 89  1  0  0  0
  4 90  1  0  0  0
  5  6  1  0  0  0
  5 26  1  0  0  0
  5 91  1  0  0  0
  6 25  1  0  0  0
  6 92  1  0  0  0
  6 93  1  0  0  0
  7  8  2  0  0  0
  7 26  1  0  0  0
  7 29  1  0  0  0
  8  9  1  0  0  0
  8 22  1  0  0  0
  9 10  1  0  0  0
  9 27  2  0  0  0
 10 11  2  0  0  0
 10 15  1  0  0  0
 11 12  1  0  0  0
 11 94  1  0  0  0
 12 13  2  0  0  0
 12 95  1  0  0  0
 13 14  1  0  0  0
 13 31  1  0  0  0
 14 15  2  0  0  0
 14 96  1  0  0  0
 15 97  1  0  0  0
 16 17  2  0  0  0
 16 21  1  0  0  0
 16 31  1  0  0  0
 17 18  1  0  0  0
 17 98  1  0  0  0
 18 19  2  0  0  0
 18 99  1  0  0  0
 19 20  1  0  0  0
 19 24  1  0  0  0
 20 21  2  0  0  0
 20100  1  0  0  0
 21 23  1  0  0  0
 22 28  1  0  0  0
 22 32  2  0  0  0
 26 27  1  0  0  0
 28101  1  0  0  0
 28102  1  0  0  0
 29103  1  0  0  0
 29104  1  0  0  0
 33 34  1  0  0  0
 33 66  1  0  0  0
 33 70  2  0  0  0
 34 36  1  0  0  0
 34 59  1  0  0  0
 34105  1  0  0  0
 35 44  2  0  0  0
 35 45  1  0  0  0
 35 68  1  0  0  0
 36 56  1  0  0  0
 36106  1  0  0  0
 37 39  1  0  0  0
 37 47  1  0  0  0
 37 66  1  0  0  0
 37107  1  0  0  0
 38 43  2  0  0  0
 38 46  1  0  0  0
 38 47  1  0  0  0
 39 64  1  0  0  0
 39 67  2  0  0  0
 40 52  1  0  0  0
 40 53  2  0  0  0
 40 58  1  0  0  0
 41108  1  0  0  0
 41109  1  0  0  0
 41110  1  0  0  0
 41 48  1  0  0  0
 42 43  1  0  0  0
 42 66  1  0  0  0
 42111  1  0  0  0
 42112  1  0  0  0
 43 44  1  0  0  0
 44113  1  0  0  0
 45 46  2  0  0  0
 45114  1  0  0  0
 46115  1  0  0  0
 47116  1  0  0  0
 47117  1  0  0  0
 48 56  1  0  0  0
 48 65  1  0  0  0
 48118  1  0  0  0
 49 50  1  0  0  0
 49 53  1  0  0  0
 49 64  1  0  0  0
 49119  1  0  0  0
 50 51  1  0  0  0
 50120  1  0  0  0
 50121  1  0  0  0
 51 52  1  0  0  0
 51122  1  0  0  0
 51123  1  0  0  0
 52124  1  0  0  0
 52125  1  0  0  0
 53 54  1  0  0  0
 54 55  2  0  0  0
 54126  1  0  0  0
 55 57  1  0  0  0
 55127  1  0  0  0
 56 69  2  0  0  0
 57 58  2  0  0  0
 57128  1  0  0  0
 58129  1  0  0  0
 59 60  1  0  0  0
 59 61  1  0  0  0
 59 62  1  0  0  0
 60130  1  0  0  0
 60131  1  0  0  0
 60132  1  0  0  0
 61133  1  0  0  0
 61134  1  0  0  0
 61135  1  0  0  0
 62136  1  0  0  0
 62137  1  0  0  0
 62138  1  0  0  0
 63 65  1  0  0  0
 63139  1  0  0  0
 63140  1  0  0  0
 63141  1  0  0  0
 64142  1  0  0  0
 65143  1  0  0  0
 68 82  1  0  0  0
 71 73  2  0  0  0
 71 75  1  0  0  0
 71144  1  0  0  0
 72 74  1  0  0  0
 72 75  2  0  0  0
 72145  1  0  0  0
 73 76  1  0  0  0
 73146  1  0  0  0
 74 76  2  0  0  0
 74147  1  0  0  0
 75 79  1  0  0  0
 76 83  1  0  0  0
 77 83  1  0  0  0
 77148  1  0  0  0
 77149  1  0  0  0
 77150  1  0  0  0
 78 84  1  0  0  0
 78151  1  0  0  0
 78152  1  0  0  0
 78153  1  0  0  0
 79 84  1  0  0  0
 79154  1  0  0  0
 79155  1  0  0  0
 80 81  1  0  0  0
 80 82  1  0  0  0
 80156  1  0  0  0
 80157  1  0  0  0
 81 83  1  0  0  0
 81158  1  0  0  0
 81159  1  0  0  0
 82160  1  0  0  0
 82161  1  0  0  0
M  ISO  4   1 100  68 101  82 101  84 100
M  END
> <chiral flag>
0

> <version>
0

> <s_m_source_file>
/data/baiqing/PycharmProjects/Reinvent-master-3.2/result/LINK_invent/BTK/process_docking_weight1_custom_product_contain_oxygen_bond_distance_aromatic_linkinvent_7_9_3/rearranged_h_0016.sdf

> <i_m_source_file_index>
2

> <r_mmod_Potential_Energy-OPLS-2005>
100.385414123535

> <r_mmod_Stretch_Energy-OPLS-2005>
46.212100982666

> <r_mmod_Bend_Energy-OPLS-2005>
142.126251220703

> <r_mmod_Torsional_Energy-OPLS-2005>
238.704498291016

> <r_mmod_Improper_Torsional_Energy-OPLS-2005>
7.92415904998779

> <r_mmod_Van_der_Waal_Energy-OPLS-2005>
180.791030883789

> <r_mmod_Electrostatic_Energy-OPLS-2005>
-317.921661376953

> <r_mmod_Solvation_Energy-OPLS-2005>
-212.284820556641

> <b_mmod_Minimization_Converged-OPLS-2005>
0

> <r_mmod_RMS_Derivative-OPLS-2005>
4.60344171524048

$$$$
2
                    3D
 Structure written by MMmdl.
152160  0  0  1  0            999 V2000
  -30.6277  -14.6294   20.4980 C   0  0  0  0  0  0
  -30.4393  -12.3863   19.4469 C   0  0  0  0  0  0
  -29.5055  -12.5053   18.2216 C   0  0  0  0  0  0
  -28.0285  -12.3459   18.6359 C   0  0  0  0  0  0
  -27.6541  -13.2160   19.8655 C   0  0  2  0  0  0
  -28.7016  -13.0646   20.9922 C   0  0  0  0  0  0
  -25.2555  -13.8160   20.5693 C   0  0  0  0  0  0
  -24.1817  -13.0421   20.9157 C   0  0  0  0  0  0
  -24.6395  -11.6897   20.8725 C   0  0  0  0  0  0
  -23.9064  -10.4284   21.0397 C   0  0  0  0  0  0
  -24.3615   -9.4204   21.9180 C   0  0  0  0  0  0
  -23.6289   -8.2240   22.0753 C   0  0  0  0  0  0
  -22.4272   -8.0276   21.3542 C   0  0  0  0  0  0
  -21.9905   -9.0249   20.4644 C   0  0  0  0  0  0
  -22.7234  -10.2127   20.3051 C   0  0  0  0  0  0
  -21.6852   -6.0733   22.5278 C   0  0  0  0  0  0
  -21.4014   -6.5638   23.8210 C   0  0  0  0  0  0
  -21.3659   -5.6792   24.9172 C   0  0  0  0  0  0
  -21.6044   -4.3054   24.7225 C   0  0  0  0  0  0
  -21.8821   -3.8146   23.4346 C   0  0  0  0  0  0
  -21.9193   -4.6961   22.3401 C   0  0  0  0  0  0
  -22.7841  -13.5216   21.1834 C   0  0  0  0  0  0
  -22.1661   -4.2147   21.0979 F   0  0  0  0  0  0
  -21.5628   -3.4539   25.7739 F   0  0  0  0  0  0
  -30.0177  -13.4048   20.4273 N   0  0  0  0  0  0
  -26.3000  -12.9352   20.3351 N   0  0  0  0  0  0
  -25.9331  -11.6503   20.5768 N   0  0  0  0  0  0
  -22.0496  -12.8212   22.0402 N   0  0  0  0  0  0
  -25.4226  -15.1887   20.4187 N   0  0  0  0  0  0
  -31.7924  -14.7913   20.1228 O   0  0  0  0  0  0
  -21.6635   -6.8875   21.4240 O   0  0  0  0  0  0
  -22.3519  -14.5526   20.6692 O   0  0  0  0  0  0
  -24.6256  -31.8613   23.2042 C   0  0  0  0  0  0
  -25.9109  -32.4785   23.8365 C   0  0  1  0  0  0
  -27.2232  -27.3290   20.1086 C   0  0  0  0  0  0
  -25.5933  -33.8586   24.2291 N   0  0  0  0  0  0
  -23.4180  -30.4863   21.5473 C   0  0  2  0  0  0
  -24.8629  -28.9457   20.1112 C   0  0  0  0  0  0
  -22.7474  -29.4628   22.4946 C   0  0  0  0  0  0
  -18.0285  -28.1374   22.8480 C   0  0  0  0  0  0
  -24.1490  -36.7293   23.2640 C   0  0  0  0  0  0
  -25.9589  -30.7951   21.3736 C   0  0  0  0  0  0
  -26.0329  -29.4238   20.7145 C   0  0  0  0  0  0
  -27.2164  -28.6275   20.7037 C   0  0  0  0  0  0
  -26.0263  -26.9047   19.4828 C   0  0  0  0  0  0
  -24.8609  -27.6905   19.4878 C   0  0  0  0  0  0
  -23.6312  -29.8251   20.1612 C   0  0  0  0  0  0
  -25.4113  -36.3087   24.0330 C   0  0  1  0  0  0
  -20.5885  -28.3682   23.1280 C   0  0  2  0  0  0
  -20.6774  -26.9406   22.5402 C   0  0  0  0  0  0
  -19.5751  -26.6379   21.5201 C   0  0  0  0  0  0
  -18.1932  -26.7917   22.1615 C   0  0  0  0  0  0
  -19.1536  -28.8844   23.2874 C   0  0  0  0  0  0
  -18.9464  -30.1446   23.8892 C   0  0  0  0  0  0
  -17.6467  -30.6582   24.0558 C   0  0  0  0  0  0
  -25.9051  -34.9457   23.5108 C   0  0  0  0  0  0
  -16.5356  -29.9082   23.6326 C   0  0  0  0  0  0
  -16.7273  -28.6496   23.0348 C   0  0  0  0  0  0
  -26.4501  -31.6587   25.0726 C   0  0  0  0  0  0
  -25.3739  -31.3713   26.1458 C   0  0  0  0  0  0
  -27.0345  -30.3016   24.6159 C   0  0  0  0  0  0
  -27.6067  -32.4318   25.7496 C   0  0  0  0  0  0
  -27.5579  -37.1803   24.8467 C   0  0  0  0  0  0
  -21.4188  -29.3043   22.3685 N   0  0  0  0  0  0
  -26.4293  -37.3780   23.9410 N   0  0  0  0  0  0
  -24.6864  -31.0636   22.0986 N   0  0  0  0  0  0
  -23.4203  -28.8165   23.3020 O   0  0  0  0  0  0
  -28.3431  -26.4819   20.1555 O   0  0  0  0  0  0
  -26.5619  -34.8922   22.4674 O   0  0  0  0  0  0
  -23.5423  -32.1409   23.7375 O   0  0  0  0  0  0
  -31.1103  -19.2766   20.4270 C   0  0  0  0  0  0
  -31.1197  -17.8533   20.5200 C   0  0  0  0  0  0
  -28.7132  -19.3054   20.6227 C   0  0  0  0  0  0
  -29.9150  -20.0452   20.4791 C   0  0  0  0  0  0
  -29.9168  -17.1190   20.6787 C   0  0  0  0  0  0
  -28.7196  -17.8819   20.7251 C   0  0  0  0  0  0
  -29.2531  -23.9849   20.3327 C   0  0  0  0  0  0
  -28.8666  -22.4388   20.2474 C   0  0  0  0  0  0
  -28.1050  -25.0290   20.0068 C   0  0  0  0  0  0
  -29.8093  -15.6712   20.8318 N   0  0  0  0  0  0
  -29.9954  -21.4759   20.4049 N   0  0  0  0  0  0
  -27.5437  -17.2241   20.8723 F   0  0  0  0  0  0
  -31.4799  -12.5120   19.1429 H   0  0  0  0  0  0
  -30.3743  -11.3902   19.8869 H   0  0  0  0  0  0
  -29.7662  -11.7539   17.4750 H   0  0  0  0  0  0
  -29.6483  -13.4750   17.7417 H   0  0  0  0  0  0
  -27.8644  -11.2928   18.8671 H   0  0  0  0  0  0
  -27.3725  -12.5775   17.7959 H   0  0  0  0  0  0
  -27.6710  -14.2517   19.5258 H   0  0  0  0  0  0
  -28.7123  -12.0412   21.3706 H   0  0  0  0  0  0
  -28.4518  -13.6935   21.8479 H   0  0  0  0  0  0
  -25.2763   -9.5681   22.4751 H   0  0  0  0  0  0
  -23.9996   -7.4636   22.7478 H   0  0  0  0  0  0
  -21.0833   -8.8769   19.8954 H   0  0  0  0  0  0
  -22.3693  -10.9665   19.6158 H   0  0  0  0  0  0
  -21.2008   -7.6149   23.9713 H   0  0  0  0  0  0
  -21.1478   -6.0523   25.9076 H   0  0  0  0  0  0
  -22.0601   -2.7609   23.2847 H   0  0  0  0  0  0
  -22.4116  -11.9870   22.4781 H   0  0  0  0  0  0
  -21.1120  -13.1242   22.2625 H   0  0  0  0  0  0
  -24.6604  -15.8384   20.5728 H   0  0  0  0  0  0
  -26.2973  -15.6603   20.2196 H   0  0  0  0  0  0
  -26.7179  -32.5458   23.1117 H   0  0  0  0  0  0
  -25.0095  -33.9729   25.0447 H   0  0  0  0  0  0
  -22.7109  -31.3064   21.4068 H   0  0  0  0  0  0
  -23.3753  -35.9627   23.3306 H   0  0  0  0  0  0
  -24.3582  -36.8908   22.2055 H   0  0  0  0  0  0
  -23.7242  -37.6495   23.6658 H   0  0  0  0  0  0
  -26.0889  -31.5599   20.6067 H   0  0  0  0  0  0
  -26.8400  -30.8430   22.0016 H   0  0  0  0  0  0
  -28.1140  -28.9900   21.1854 H   0  0  0  0  0  0
  -25.9544  -25.9489   18.9873 H   0  0  0  0  0  0
  -23.9646  -27.3180   19.0110 H   0  0  0  0  0  0
  -23.7505  -30.6036   19.4066 H   0  0  0  0  0  0
  -22.7508  -29.2556   19.8578 H   0  0  0  0  0  0
  -25.1291  -36.1944   25.0822 H   0  0  0  0  0  0
  -20.9971  -28.3255   24.1404 H   0  0  0  0  0  0
  -20.5668  -26.2296   23.3603 H   0  0  0  0  0  0
  -21.6645  -26.7435   22.1199 H   0  0  0  0  0  0
  -19.6917  -25.6290   21.1229 H   0  0  0  0  0  0
  -19.6684  -27.3194   20.6733 H   0  0  0  0  0  0
  -17.4198  -26.6658   21.4021 H   0  0  0  0  0  0
  -18.0337  -26.0057   22.9010 H   0  0  0  0  0  0
  -19.7946  -30.7253   24.2264 H   0  0  0  0  0  0
  -17.5028  -31.6262   24.5162 H   0  0  0  0  0  0
  -15.5356  -30.2986   23.7653 H   0  0  0  0  0  0
  -15.8670  -28.0816   22.7070 H   0  0  0  0  0  0
  -24.5922  -30.7050   25.7791 H   0  0  0  0  0  0
  -24.8919  -32.2874   26.4884 H   0  0  0  0  0  0
  -25.8072  -30.8897   27.0232 H   0  0  0  0  0  0
  -26.2909  -29.6764   24.1201 H   0  0  0  0  0  0
  -27.4083  -29.7271   25.4645 H   0  0  0  0  0  0
  -27.8763  -30.4318   23.9352 H   0  0  0  0  0  0
  -27.2684  -33.3624   26.2068 H   0  0  0  0  0  0
  -28.3882  -32.6867   25.0323 H   0  0  0  0  0  0
  -28.0732  -31.8443   26.5415 H   0  0  0  0  0  0
  -28.2600  -38.0099   24.7512 H   0  0  0  0  0  0
  -28.1070  -36.2628   24.6294 H   0  0  0  0  0  0
  -27.2294  -37.1454   25.8870 H   0  0  0  0  0  0
  -20.9367  -29.8783   21.6908 H   0  0  0  0  0  0
  -26.0173  -38.2855   24.1415 H   0  0  0  0  0  0
  -32.0603  -19.7811   20.3182 H   0  0  0  0  0  0
  -32.0688  -17.3390   20.4825 H   0  0  0  0  0  0
  -27.7649  -19.8187   20.6717 H   0  0  0  0  0  0
  -30.0827  -24.1818   19.6530 H   0  0  0  0  0  0
  -29.6322  -24.1934   21.3336 H   0  0  0  0  0  0
  -28.3951  -22.2470   19.2820 H   0  0  0  0  0  0
  -28.1087  -22.2219   21.0019 H   0  0  0  0  0  0
  -27.8088  -24.8426   18.9741 H   0  0  0  0  0  0
  -27.2483  -24.7622   20.6286 H   0  0  0  0  0  0
  -28.8812  -15.3714   21.0895 H   0  0  0  0  0  0
  -30.9277  -21.8702   20.2977 H   0  0  0  0  0  0
  1 25  1  0  0  0
  1 30  2  0  0  0
  1 80  1  0  0  0
  2  3  1  0  0  0
  2 25  1  0  0  0
  2 83  1  0  0  0
  2 84  1  0  0  0
  3  4  1  0  0  0
  3 85  1  0  0  0
  3 86  1  0  0  0
  4  5  1  0  0  0
  4 87  1  0  0  0
  4 88  1  0  0  0
  5  6  1  0  0  0
  5 26  1  0  0  0
  5 89  1  0  0  0
  6 25  1  0  0  0
  6 90  1  0  0  0
  6 91  1  0  0  0
  7  8  2  0  0  0
  7 26  1  0  0  0
  7 29  1  0  0  0
  8  9  1  0  0  0
  8 22  1  0  0  0
  9 10  1  0  0  0
  9 27  2  0  0  0
 10 11  2  0  0  0
 10 15  1  0  0  0
 11 12  1  0  0  0
 11 92  1  0  0  0
 12 13  2  0  0  0
 12 93  1  0  0  0
 13 14  1  0  0  0
 13 31  1  0  0  0
 14 15  2  0  0  0
 14 94  1  0  0  0
 15 95  1  0  0  0
 16 17  2  0  0  0
 16 21  1  0  0  0
 16 31  1  0  0  0
 17 18  1  0  0  0
 17 96  1  0  0  0
 18 19  2  0  0  0
 18 97  1  0  0  0
 19 20  1  0  0  0
 19 24  1  0  0  0
 20 21  2  0  0  0
 20 98  1  0  0  0
 21 23  1  0  0  0
 22 28  1  0  0  0
 22 32  2  0  0  0
 26 27  1  0  0  0
 28 99  1  0  0  0
 28100  1  0  0  0
 29101  1  0  0  0
 29102  1  0  0  0
 33 34  1  0  0  0
 33 66  1  0  0  0
 33 70  2  0  0  0
 34 36  1  0  0  0
 34 59  1  0  0  0
 34103  1  0  0  0
 35 44  2  0  0  0
 35 45  1  0  0  0
 35 68  1  0  0  0
 36 56  1  0  0  0
 36104  1  0  0  0
 37 39  1  0  0  0
 37 47  1  0  0  0
 37 66  1  0  0  0
 37105  1  0  0  0
 38 43  2  0  0  0
 38 46  1  0  0  0
 38 47  1  0  0  0
 39 64  1  0  0  0
 39 67  2  0  0  0
 40 52  1  0  0  0
 40 53  2  0  0  0
 40 58  1  0  0  0
 41106  1  0  0  0
 41107  1  0  0  0
 41108  1  0  0  0
 41 48  1  0  0  0
 42 43  1  0  0  0
 42 66  1  0  0  0
 42109  1  0  0  0
 42110  1  0  0  0
 43 44  1  0  0  0
 44111  1  0  0  0
 45 46  2  0  0  0
 45112  1  0  0  0
 46113  1  0  0  0
 47114  1  0  0  0
 47115  1  0  0  0
 48 56  1  0  0  0
 48 65  1  0  0  0
 48116  1  0  0  0
 49 50  1  0  0  0
 49 53  1  0  0  0
 49 64  1  0  0  0
 49117  1  0  0  0
 50 51  1  0  0  0
 50118  1  0  0  0
 50119  1  0  0  0
 51 52  1  0  0  0
 51120  1  0  0  0
 51121  1  0  0  0
 52122  1  0  0  0
 52123  1  0  0  0
 53 54  1  0  0  0
 54 55  2  0  0  0
 54124  1  0  0  0
 55 57  1  0  0  0
 55125  1  0  0  0
 56 69  2  0  0  0
 57 58  2  0  0  0
 57126  1  0  0  0
 58127  1  0  0  0
 59 60  1  0  0  0
 59 61  1  0  0  0
 59 62  1  0  0  0
 60128  1  0  0  0
 60129  1  0  0  0
 60130  1  0  0  0
 61131  1  0  0  0
 61132  1  0  0  0
 61133  1  0  0  0
 62134  1  0  0  0
 62135  1  0  0  0
 62136  1  0  0  0
 63 65  1  0  0  0
 63137  1  0  0  0
 63138  1  0  0  0
 63139  1  0  0  0
 64140  1  0  0  0
 65141  1  0  0  0
 68 79  1  0  0  0
 71 72  2  0  0  0
 71 74  1  0  0  0
 71142  1  0  0  0
 72 75  1  0  0  0
 72143  1  0  0  0
 73 74  2  0  0  0
 73 76  1  0  0  0
 73144  1  0  0  0
 74 81  1  0  0  0
 75 76  2  0  0  0
 75 80  1  0  0  0
 76 82  1  0  0  0
 77 78  1  0  0  0
 77 79  1  0  0  0
 77145  1  0  0  0
 77146  1  0  0  0
 78 81  1  0  0  0
 78147  1  0  0  0
 78148  1  0  0  0
 79149  1  0  0  0
 79150  1  0  0  0
 80151  1  0  0  0
 81152  1  0  0  0
M  ISO  4   1 100  68 101  79 101  80 100
M  END
> <chiral flag>
0

> <version>
0

> <s_m_source_file>
/data/baiqing/PycharmProjects/Reinvent-master-3.2/result/LINK_invent/BTK/process_docking_weight1_custom_product_contain_oxygen_bond_distance_aromatic_linkinvent_7_9_3/rearranged_h_0016.sdf

> <i_m_source_file_index>
3

> <r_mmod_Potential_Energy-OPLS-2005>
-1.59744024276733

> <r_mmod_Stretch_Energy-OPLS-2005>
71.6558456420898

> <r_mmod_Bend_Energy-OPLS-2005>
143.812271118164

> <r_mmod_Torsional_Energy-OPLS-2005>
200.10888671875

> <r_mmod_Improper_Torsional_Energy-OPLS-2005>
4.6348934173584

> <r_mmod_Van_der_Waal_Energy-OPLS-2005>
145.609085083008

> <r_mmod_Electrostatic_Energy-OPLS-2005>
-403.753173828125

> <r_mmod_Solvation_Energy-OPLS-2005>
-208.76188659668

> <b_mmod_Minimization_Converged-OPLS-2005>
0

> <r_mmod_RMS_Derivative-OPLS-2005>
0.584842085838318

$$$$
3
                    3D
 Structure written by MMmdl.
171179  0  0  1  0            999 V2000
  -30.7665  -14.3700   20.6074 C   0  0  0  0  0  0
  -30.4186  -12.2560   19.4017 C   0  0  0  0  0  0
  -29.4977  -12.4945   18.1936 C   0  0  0  0  0  0
  -28.0203  -12.3603   18.6082 C   0  0  0  0  0  0
  -27.6747  -13.1999   19.8730 C   0  0  2  0  0  0
  -28.7153  -12.9613   20.9925 C   0  0  0  0  0  0
  -25.2656  -13.8160   20.5631 C   0  0  0  0  0  0
  -24.1893  -13.0421   20.9165 C   0  0  0  0  0  0
  -24.6440  -11.6895   20.8733 C   0  0  0  0  0  0
  -23.9107  -10.4287   21.0399 C   0  0  0  0  0  0
  -24.3648   -9.4216   21.9190 C   0  0  0  0  0  0
  -23.6296   -8.2260   22.0780 C   0  0  0  0  0  0
  -22.4287   -8.0300   21.3553 C   0  0  0  0  0  0
  -21.9929   -9.0280   20.4662 C   0  0  0  0  0  0
  -22.7282  -10.2152   20.3054 C   0  0  0  0  0  0
  -21.6849   -6.0757   22.5316 C   0  0  0  0  0  0
  -21.4007   -6.5657   23.8240 C   0  0  0  0  0  0
  -21.3636   -5.6791   24.9198 C   0  0  0  0  0  0
  -21.6055   -4.3058   24.7228 C   0  0  0  0  0  0
  -21.8809   -3.8179   23.4332 C   0  0  0  0  0  0
  -21.9173   -4.6996   22.3418 C   0  0  0  0  0  0
  -22.7933  -13.5286   21.1814 C   0  0  0  0  0  0
  -22.1656   -4.2190   21.0977 F   0  0  0  0  0  0
  -21.5612   -3.4540   25.7722 F   0  0  0  0  0  0
  -30.0517  -13.2306   20.4368 N   0  0  0  0  0  0
  -26.3095  -12.9307   20.3337 N   0  0  0  0  0  0
  -25.9368  -11.6482   20.5765 N   0  0  0  0  0  0
  -22.0503  -12.8264   22.0330 N   0  0  0  0  0  0
  -25.4318  -15.1848   20.4077 N   0  0  0  0  0  0
  -31.8565  -14.5590   20.0560 O   0  0  0  0  0  0
  -21.6618   -6.8927   21.4280 O   0  0  0  0  0  0
  -22.3623  -14.5557   20.6638 O   0  0  0  0  0  0
  -24.6137  -31.8734   23.2021 C   0  0  0  0  0  0
  -25.9026  -32.4849   23.8268 C   0  0  1  0  0  0
  -27.2939  -27.5330   20.0350 C   0  0  0  0  0  0
  -25.5935  -33.8639   24.2272 N   0  0  0  0  0  0
  -23.3972  -30.4931   21.5432 C   0  0  2  0  0  0
  -24.8487  -28.9546   20.1164 C   0  0  0  0  0  0
  -22.7441  -29.4701   22.4952 C   0  0  0  0  0  0
  -18.0368  -28.1384   22.8495 C   0  0  0  0  0  0
  -24.1508  -36.7230   23.2672 C   0  0  0  0  0  0
  -25.9231  -30.8530   21.3518 C   0  0  0  0  0  0
  -26.0001  -29.4878   20.7108 C   0  0  0  0  0  0
  -27.2132  -28.7714   20.6874 C   0  0  0  0  0  0
  -26.1146  -26.9707   19.4857 C   0  0  0  0  0  0
  -24.8881  -27.6791   19.5231 C   0  0  0  0  0  0
  -23.6089  -29.8167   20.1558 C   0  0  0  0  0  0
  -25.4136  -36.3142   24.0404 C   0  0  1  0  0  0
  -20.5961  -28.3606   23.1320 C   0  0  2  0  0  0
  -20.6861  -26.9327   22.5413 C   0  0  0  0  0  0
  -19.5817  -26.6360   21.5238 C   0  0  0  0  0  0
  -18.1980  -26.7921   22.1641 C   0  0  0  0  0  0
  -19.1596  -28.8798   23.2931 C   0  0  0  0  0  0
  -18.9563  -30.1452   23.8881 C   0  0  0  0  0  0
  -17.6545  -30.6577   24.0563 C   0  0  0  0  0  0
  -25.9101  -34.9516   23.5116 C   0  0  0  0  0  0
  -16.5428  -29.9067   23.6370 C   0  0  0  0  0  0
  -16.7352  -28.6524   23.0306 C   0  0  0  0  0  0
  -26.4472  -31.6680   25.0602 C   0  0  0  0  0  0
  -25.3619  -31.3834   26.1243 C   0  0  0  0  0  0
  -27.0401  -30.3170   24.5980 C   0  0  0  0  0  0
  -27.6061  -32.4378   25.7397 C   0  0  0  0  0  0
  -27.5616  -37.1793   24.8526 C   0  0  0  0  0  0
  -21.4143  -29.2951   22.3754 N   0  0  0  0  0  0
  -26.4330  -37.3802   23.9464 N   0  0  0  0  0  0
  -24.6629  -31.0867   22.0933 N   0  0  0  0  0  0
  -23.4236  -28.8255   23.3005 O   0  0  0  0  0  0
  -28.5151  -26.8856   20.0086 O   0  0  0  0  0  0
  -26.5636  -34.8982   22.4669 O   0  0  0  0  0  0
  -23.5345  -32.1486   23.7443 O   0  0  0  0  0  0
  -29.5384  -21.7195   24.3772 C   0  0  0  0  0  0
  -31.9278  -21.3113   24.0653 C   0  0  0  0  0  0
  -29.2538  -20.4174   23.9548 C   0  0  0  0  0  0
  -31.6415  -19.9892   23.6657 C   0  0  0  0  0  0
  -30.8742  -22.1912   24.3872 C   0  0  0  0  0  0
  -30.3096  -19.5432   23.5920 C   0  0  0  0  0  0
  -29.1067  -17.4585   23.9444 C   0  0  0  0  0  0
  -31.9221  -25.7481   23.6597 C   0  0  0  0  0  0
  -31.1507  -23.6569   24.6894 C   0  0  0  0  0  0
  -30.1774  -15.5118   21.4501 C   0  0  0  0  0  0
  -30.9584  -16.8433   21.2768 C   0  0  0  0  0  0
  -29.8745  -25.1930   21.3584 C   0  0  0  0  0  0
  -30.1538  -18.0874   21.6830 C   0  0  0  0  0  0
  -29.8244  -24.6983   22.8451 C   0  0  0  0  0  0
  -28.5200  -25.7975   20.9129 C   0  0  0  0  0  0
  -30.0512  -18.2379   23.1404 N   0  0  0  0  0  0
  -31.1800  -24.4762   23.4439 N   0  3  1  0  0  0
  -31.4662  -12.3239   19.1034 H   0  0  0  0  0  0
  -30.2909  -11.2415   19.7851 H   0  0  0  0  0  0
  -29.7276  -11.7805   17.4037 H   0  0  0  0  0  0
  -29.6804  -13.4831   17.7756 H   0  0  0  0  0  0
  -27.8303  -11.3039   18.8082 H   0  0  0  0  0  0
  -27.3650  -12.6341   17.7783 H   0  0  0  0  0  0
  -27.7252  -14.2514   19.5832 H   0  0  0  0  0  0
  -28.6684  -11.9253   21.3317 H   0  0  0  0  0  0
  -28.4891  -13.5689   21.8680 H   0  0  0  0  0  0
  -25.2809   -9.5647   22.4758 H   0  0  0  0  0  0
  -23.9985   -7.4645   22.7501 H   0  0  0  0  0  0
  -21.0869   -8.8847   19.8943 H   0  0  0  0  0  0
  -22.3807  -10.9696   19.6147 H   0  0  0  0  0  0
  -21.2012   -7.6159   23.9773 H   0  0  0  0  0  0
  -21.1461   -6.0502   25.9087 H   0  0  0  0  0  0
  -22.0591   -2.7641   23.2826 H   0  0  0  0  0  0
  -22.4068  -11.9945   22.4771 H   0  0  0  0  0  0
  -21.1129  -13.1377   22.2485 H   0  0  0  0  0  0
  -24.6600  -15.8315   20.5212 H   0  0  0  0  0  0
  -26.2840  -15.6377   20.1006 H   0  0  0  0  0  0
  -26.7127  -32.5614   23.1055 H   0  0  0  0  0  0
  -25.0097  -33.9763   25.0418 H   0  0  0  0  0  0
  -22.6926  -31.3098   21.3993 H   0  0  0  0  0  0
  -23.3836  -35.9472   23.3377 H   0  0  0  0  0  0
  -24.3602  -36.8749   22.2055 H   0  0  0  0  0  0
  -23.7177  -37.6426   23.6607 H   0  0  0  0  0  0
  -26.0312  -31.6024   20.5696 H   0  0  0  0  0  0
  -26.8190  -30.9079   21.9626 H   0  0  0  0  0  0
  -28.0947  -29.1708   21.1625 H   0  0  0  0  0  0
  -26.1303  -25.9957   19.0171 H   0  0  0  0  0  0
  -23.9928  -27.2502   19.0819 H   0  0  0  0  0  0
  -23.7343  -30.5904   19.3977 H   0  0  0  0  0  0
  -22.7356  -29.2425   19.8561 H   0  0  0  0  0  0
  -25.1338  -36.1956   25.0889 H   0  0  0  0  0  0
  -21.0146  -28.3074   24.1434 H   0  0  0  0  0  0
  -20.5802  -26.2125   23.3537 H   0  0  0  0  0  0
  -21.6694  -26.7373   22.1146 H   0  0  0  0  0  0
  -19.6911  -25.6280   21.1221 H   0  0  0  0  0  0
  -19.6788  -27.3218   20.6766 H   0  0  0  0  0  0
  -17.4287  -26.6766   21.4025 H   0  0  0  0  0  0
  -18.0347  -26.0083   22.9016 H   0  0  0  0  0  0
  -19.8003  -30.7378   24.2102 H   0  0  0  0  0  0
  -17.5063  -31.6251   24.5187 H   0  0  0  0  0  0
  -15.5407  -30.2932   23.7703 H   0  0  0  0  0  0
  -15.8797  -28.0903   22.6828 H   0  0  0  0  0  0
  -24.5767  -30.7336   25.7445 H   0  0  0  0  0  0
  -24.8848  -32.3061   26.4544 H   0  0  0  0  0  0
  -25.7727  -30.8979   27.0071 H   0  0  0  0  0  0
  -26.3008  -29.6812   24.1123 H   0  0  0  0  0  0
  -27.4429  -29.7514   25.4382 H   0  0  0  0  0  0
  -27.8654  -30.4630   23.9008 H   0  0  0  0  0  0
  -27.2724  -33.3658   26.1975 H   0  0  0  0  0  0
  -28.3844  -32.6886   25.0239 H   0  0  0  0  0  0
  -28.0706  -31.8455   26.5295 H   0  0  0  0  0  0
  -28.2681  -38.0045   24.7610 H   0  0  0  0  0  0
  -28.1083  -36.2600   24.6344 H   0  0  0  0  0  0
  -27.2345  -37.1421   25.8931 H   0  0  0  0  0  0
  -20.9316  -29.8634   21.6987 H   0  0  0  0  0  0
  -26.0242  -38.2896   24.1400 H   0  0  0  0  0  0
  -28.7296  -22.3863   24.6400 H   0  0  0  0  0  0
  -32.9589  -21.6291   24.1143 H   0  0  0  0  0  0
  -28.2238  -20.0982   23.8991 H   0  0  0  0  0  0
  -32.4479  -19.3195   23.3981 H   0  0  0  0  0  0
  -28.8636  -17.9664   24.8841 H   0  0  0  0  0  0
  -29.5615  -16.5072   24.2194 H   0  0  0  0  0  0
  -28.1710  -17.2618   23.4157 H   0  0  0  0  0  0
  -32.8769  -25.5670   24.1538 H   0  0  0  0  0  0
  -31.3420  -26.4422   24.2704 H   0  0  0  0  0  0
  -32.1507  -26.2379   22.7042 H   0  0  0  0  0  0
  -32.1246  -23.7065   25.1994 H   0  0  0  0  0  0
  -30.4268  -24.0457   25.4011 H   0  0  0  0  0  0
  -29.1389  -15.6702   21.1378 H   0  0  0  0  0  0
  -30.1746  -15.2116   22.5012 H   0  0  0  0  0  0
  -31.2243  -16.9753   20.2261 H   0  0  0  0  0  0
  -31.9032  -16.8013   21.8257 H   0  0  0  0  0  0
  -30.1137  -24.3238   20.7055 H   0  0  0  0  0  0
  -30.6707  -25.9490   21.2027 H   0  0  0  0  0  0
  -29.1635  -18.0718   21.2170 H   0  0  0  0  0  0
  -30.6655  -18.9591   21.2575 H   0  0  0  0  0  0
  -29.2420  -23.7747   22.8562 H   0  0  0  0  0  0
  -29.2778  -25.4017   23.4838 H   0  0  0  0  0  0
  -27.9377  -25.0516   20.3745 H   0  0  0  0  0  0
  -28.0226  -26.1502   21.7998 H   0  0  0  0  0  0
  -31.7167  -23.9231   22.7843 H   0  0  0  0  0  0
  1 25  1  0  0  0
  1 30  2  0  0  0
  1 80  1  0  0  0
  2  3  1  0  0  0
  2 25  1  0  0  0
  2 88  1  0  0  0
  2 89  1  0  0  0
  3  4  1  0  0  0
  3 90  1  0  0  0
  3 91  1  0  0  0
  4  5  1  0  0  0
  4 92  1  0  0  0
  4 93  1  0  0  0
  5  6  1  0  0  0
  5 26  1  0  0  0
  5 94  1  0  0  0
  6 25  1  0  0  0
  6 95  1  0  0  0
  6 96  1  0  0  0
  7  8  2  0  0  0
  7 26  1  0  0  0
  7 29  1  0  0  0
  8  9  1  0  0  0
  8 22  1  0  0  0
  9 10  1  0  0  0
  9 27  2  0  0  0
 10 11  2  0  0  0
 10 15  1  0  0  0
 11 12  1  0  0  0
 11 97  1  0  0  0
 12 13  2  0  0  0
 12 98  1  0  0  0
 13 14  1  0  0  0
 13 31  1  0  0  0
 14 15  2  0  0  0
 14 99  1  0  0  0
 15100  1  0  0  0
 16 17  2  0  0  0
 16 21  1  0  0  0
 16 31  1  0  0  0
 17 18  1  0  0  0
 17101  1  0  0  0
 18 19  2  0  0  0
 18102  1  0  0  0
 19 20  1  0  0  0
 19 24  1  0  0  0
 20 21  2  0  0  0
 20103  1  0  0  0
 21 23  1  0  0  0
 22 28  1  0  0  0
 22 32  2  0  0  0
 26 27  1  0  0  0
 28104  1  0  0  0
 28105  1  0  0  0
 29106  1  0  0  0
 29107  1  0  0  0
 33 34  1  0  0  0
 33 66  1  0  0  0
 33 70  2  0  0  0
 34 36  1  0  0  0
 34 59  1  0  0  0
 34108  1  0  0  0
 35 44  2  0  0  0
 35 45  1  0  0  0
 35 68  1  0  0  0
 36 56  1  0  0  0
 36109  1  0  0  0
 37 39  1  0  0  0
 37 47  1  0  0  0
 37 66  1  0  0  0
 37110  1  0  0  0
 38 43  2  0  0  0
 38 46  1  0  0  0
 38 47  1  0  0  0
 39 64  1  0  0  0
 39 67  2  0  0  0
 40 52  1  0  0  0
 40 53  2  0  0  0
 40 58  1  0  0  0
 41111  1  0  0  0
 41112  1  0  0  0
 41113  1  0  0  0
 41 48  1  0  0  0
 42 43  1  0  0  0
 42 66  1  0  0  0
 42114  1  0  0  0
 42115  1  0  0  0
 43 44  1  0  0  0
 44116  1  0  0  0
 45 46  2  0  0  0
 45117  1  0  0  0
 46118  1  0  0  0
 47119  1  0  0  0
 47120  1  0  0  0
 48 56  1  0  0  0
 48 65  1  0  0  0
 48121  1  0  0  0
 49 50  1  0  0  0
 49 53  1  0  0  0
 49 64  1  0  0  0
 49122  1  0  0  0
 50 51  1  0  0  0
 50123  1  0  0  0
 50124  1  0  0  0
 51 52  1  0  0  0
 51125  1  0  0  0
 51126  1  0  0  0
 52127  1  0  0  0
 52128  1  0  0  0
 53 54  1  0  0  0
 54 55  2  0  0  0
 54129  1  0  0  0
 55 57  1  0  0  0
 55130  1  0  0  0
 56 69  2  0  0  0
 57 58  2  0  0  0
 57131  1  0  0  0
 58132  1  0  0  0
 59 60  1  0  0  0
 59 61  1  0  0  0
 59 62  1  0  0  0
 60133  1  0  0  0
 60134  1  0  0  0
 60135  1  0  0  0
 61136  1  0  0  0
 61137  1  0  0  0
 61138  1  0  0  0
 62139  1  0  0  0
 62140  1  0  0  0
 62141  1  0  0  0
 63 65  1  0  0  0
 63142  1  0  0  0
 63143  1  0  0  0
 63144  1  0  0  0
 64145  1  0  0  0
 65146  1  0  0  0
 68 85  1  0  0  0
 71 73  2  0  0  0
 71 75  1  0  0  0
 71147  1  0  0  0
 72 74  1  0  0  0
 72 75  2  0  0  0
 72148  1  0  0  0
 73 76  1  0  0  0
 73149  1  0  0  0
 74 76  2  0  0  0
 74150  1  0  0  0
 75 79  1  0  0  0
 76 86  1  0  0  0
 77 86  1  0  0  0
 77151  1  0  0  0
 77152  1  0  0  0
 77153  1  0  0  0
 78154  1  0  0  0
 78155  1  0  0  0
 78156  1  0  0  0
 78 87  1  0  0  0
 79 87  1  0  0  0
 79157  1  0  0  0
 79158  1  0  0  0
 80 81  1  0  0  0
 80159  1  0  0  0
 80160  1  0  0  0
 81 83  1  0  0  0
 81161  1  0  0  0
 81162  1  0  0  0
 82 84  1  0  0  0
 82 85  1  0  0  0
 82163  1  0  0  0
 82164  1  0  0  0
 83 86  1  0  0  0
 83165  1  0  0  0
 83166  1  0  0  0
 84 87  1  0  0  0
 84167  1  0  0  0
 84168  1  0  0  0
 85169  1  0  0  0
 85170  1  0  0  0
 87171  1  0  0  0
M  CHG  1  87   1
M  ISO  4   1 100  68 101  80 100  85 101
M  END
> <chiral flag>
0

> <version>
0

> <s_m_source_file>
/data/baiqing/PycharmProjects/Reinvent-master-3.2/result/LINK_invent/BTK/process_docking_weight1_custom_product_contain_oxygen_bond_distance_aromatic_linkinvent_7_9_3/rearranged_h_0016.sdf

> <i_m_source_file_index>
4

> <r_mmod_Potential_Energy-OPLS-2005>
-156.883651733398

> <r_mmod_Stretch_Energy-OPLS-2005>
40.4571685791016

> <r_mmod_Bend_Energy-OPLS-2005>
102.907608032227

> <r_mmod_Torsional_Energy-OPLS-2005>
229.373718261719

> <r_mmod_Improper_Torsional_Energy-OPLS-2005>
4.34563732147217

> <r_mmod_Van_der_Waal_Energy-OPLS-2005>
166.930847167969

> <r_mmod_Electrostatic_Energy-OPLS-2005>
-270.687805175781

> <r_mmod_Solvation_Energy-OPLS-2005>
-443.529907226562

> <b_mmod_Minimization_Converged-OPLS-2005>
0

> <r_mmod_RMS_Derivative-OPLS-2005>
21.2511539459229

$$$$
4
                    3D
 Structure written by MMmdl.
162171  0  0  1  0            999 V2000
  -30.7257  -14.5216   20.5792 C   0  0  0  0  0  0
  -30.4139  -12.3479   19.4312 C   0  0  0  0  0  0
  -29.4886  -12.5022   18.2087 C   0  0  0  0  0  0
  -28.0154  -12.3282   18.6243 C   0  0  0  0  0  0
  -27.6439  -13.1936   19.8550 C   0  0  2  0  0  0
  -28.6914  -13.0524   20.9857 C   0  0  0  0  0  0
  -25.2538  -13.8114   20.5678 C   0  0  0  0  0  0
  -24.1799  -13.0413   20.9223 C   0  0  0  0  0  0
  -24.6341  -11.6878   20.8780 C   0  0  0  0  0  0
  -23.9008  -10.4276   21.0435 C   0  0  0  0  0  0
  -24.3578   -9.4196   21.9198 C   0  0  0  0  0  0
  -23.6273   -8.2222   22.0757 C   0  0  0  0  0  0
  -22.4255   -8.0262   21.3548 C   0  0  0  0  0  0
  -21.9884   -9.0233   20.4652 C   0  0  0  0  0  0
  -22.7193  -10.2123   20.3067 C   0  0  0  0  0  0
  -21.6843   -6.0722   22.5281 C   0  0  0  0  0  0
  -21.4003   -6.5623   23.8215 C   0  0  0  0  0  0
  -21.3668   -5.6776   24.9176 C   0  0  0  0  0  0
  -21.6053   -4.3038   24.7226 C   0  0  0  0  0  0
  -21.8818   -3.8130   23.4344 C   0  0  0  0  0  0
  -21.9192   -4.6951   22.3404 C   0  0  0  0  0  0
  -22.7832  -13.5241   21.1865 C   0  0  0  0  0  0
  -22.1662   -4.2140   21.0984 F   0  0  0  0  0  0
  -21.5641   -3.4525   25.7740 F   0  0  0  0  0  0
  -30.0170  -13.3621   20.4259 N   0  0  0  0  0  0
  -26.2924  -12.9238   20.3285 N   0  0  0  0  0  0
  -25.9251  -11.6427   20.5763 N   0  0  0  0  0  0
  -22.0437  -12.8267   22.0417 N   0  0  0  0  0  0
  -25.4246  -15.1832   20.4052 N   0  0  0  0  0  0
  -31.8611  -14.6504   20.1086 O   0  0  0  0  0  0
  -21.6621   -6.8863   21.4242 O   0  0  0  0  0  0
  -22.3543  -14.5551   20.6692 O   0  0  0  0  0  0
  -24.6170  -31.8665   23.2099 C   0  0  0  0  0  0
  -25.9057  -32.4811   23.8395 C   0  0  1  0  0  0
  -27.2323  -27.4152   20.0789 C   0  0  0  0  0  0
  -25.5915  -33.8608   24.2331 N   0  0  0  0  0  0
  -23.4048  -30.4913   21.5510 C   0  0  2  0  0  0
  -24.8480  -28.9551   20.1122 C   0  0  0  0  0  0
  -22.7419  -29.4654   22.4988 C   0  0  0  0  0  0
  -18.0273  -28.1380   22.8494 C   0  0  0  0  0  0
  -24.1483  -36.7299   23.2633 C   0  0  0  0  0  0
  -25.9360  -30.8215   21.3685 C   0  0  0  0  0  0
  -26.0087  -29.4540   20.7152 C   0  0  0  0  0  0
  -27.1979  -28.6863   20.7052 C   0  0  0  0  0  0
  -26.0469  -26.9367   19.4739 C   0  0  0  0  0  0
  -24.8619  -27.6950   19.4929 C   0  0  0  0  0  0
  -23.6123  -29.8259   20.1648 C   0  0  0  0  0  0
  -25.4101  -36.3105   24.0345 C   0  0  1  0  0  0
  -20.5864  -28.3666   23.1316 C   0  0  2  0  0  0
  -20.6761  -26.9407   22.5413 C   0  0  0  0  0  0
  -19.5738  -26.6395   21.5208 C   0  0  0  0  0  0
  -18.1918  -26.7930   22.1628 C   0  0  0  0  0  0
  -19.1520  -28.8841   23.2902 C   0  0  0  0  0  0
  -18.9449  -30.1448   23.8909 C   0  0  0  0  0  0
  -17.6452  -30.6589   24.0561 C   0  0  0  0  0  0
  -25.9036  -34.9472   23.5134 C   0  0  0  0  0  0
  -16.5341  -29.9094   23.6325 C   0  0  0  0  0  0
  -16.7261  -28.6508   23.0351 C   0  0  0  0  0  0
  -26.4482  -31.6593   25.0727 C   0  0  0  0  0  0
  -25.3761  -31.3714   26.1494 C   0  0  0  0  0  0
  -27.0287  -30.3026   24.6110 C   0  0  0  0  0  0
  -27.6077  -32.4297   25.7472 C   0  0  0  0  0  0
  -27.5587  -37.1789   24.8457 C   0  0  0  0  0  0
  -21.4145  -29.3032   22.3724 N   0  0  0  0  0  0
  -26.4276  -37.3804   23.9433 N   0  0  0  0  0  0
  -24.6709  -31.0750   22.1006 N   0  0  0  0  0  0
  -23.4184  -28.8195   23.3029 O   0  0  0  0  0  0
  -28.4076  -26.6807   20.0982 O   0  0  0  0  0  0
  -26.5589  -34.8925   22.4691 O   0  0  0  0  0  0
  -23.5357  -32.1427   23.7482 O   0  0  0  0  0  0
  -29.7875  -18.3022   19.3928 C   0  0  0  0  0  0
  -29.7250  -19.6695   19.0410 C   0  0  0  0  0  0
  -28.6023  -18.7928   21.4499 C   0  0  0  0  0  0
  -29.1877  -17.8382   20.5827 C   0  0  0  0  0  0
  -29.0764  -20.6189   19.8656 C   0  0  0  0  0  0
  -28.5411  -20.1663   21.1007 C   0  0  0  0  0  0
  -27.5937  -23.5015   18.1672 C   0  0  0  0  0  0
  -27.6948  -22.0222   18.5084 C   0  0  0  0  0  0
  -29.0174  -23.1753   20.1008 C   0  0  0  0  0  0
  -28.0522  -24.2158   19.4473 C   0  0  1  0  0  0
  -31.0079  -16.2353   22.2904 C   0  0  0  0  0  0
  -29.0215  -16.3249   20.8308 C   0  0  0  0  0  0
  -28.6153  -25.6393   19.1246 C   0  0  0  0  0  0
  -28.8814  -21.9214   19.3399 N   0  0  0  0  0  0
  -30.1764  -15.5315   21.3121 N   0  0  0  0  0  0
  -27.8896  -21.0233   21.9245 F   0  0  0  0  0  0
  -31.4580  -12.4397   19.1261 H   0  0  0  0  0  0
  -30.3201  -11.3489   19.8592 H   0  0  0  0  0  0
  -29.7495  -11.7707   17.4429 H   0  0  0  0  0  0
  -29.6311  -13.4854   17.7572 H   0  0  0  0  0  0
  -27.8572  -11.2737   18.8529 H   0  0  0  0  0  0
  -27.3554  -12.5598   17.7872 H   0  0  0  0  0  0
  -27.6426  -14.2129   19.4892 H   0  0  0  0  0  0
  -28.6890  -12.0353   21.3796 H   0  0  0  0  0  0
  -28.4385  -13.6935   21.8312 H   0  0  0  0  0  0
  -25.2727   -9.5683   22.4765 H   0  0  0  0  0  0
  -23.9997   -7.4610   22.7462 H   0  0  0  0  0  0
  -21.0822   -8.8735   19.8956 H   0  0  0  0  0  0
  -22.3645  -10.9657   19.6170 H   0  0  0  0  0  0
  -21.1974   -7.6126   23.9721 H   0  0  0  0  0  0
  -21.1499   -6.0497   25.9087 H   0  0  0  0  0  0
  -22.0591   -2.7589   23.2831 H   0  0  0  0  0  0
  -22.4020  -11.9942   22.4859 H   0  0  0  0  0  0
  -21.1062  -13.1335   22.2590 H   0  0  0  0  0  0
  -24.6501  -15.8301   20.5063 H   0  0  0  0  0  0
  -26.2613  -15.6203   20.0432 H   0  0  0  0  0  0
  -26.7123  -32.5512   23.1147 H   0  0  0  0  0  0
  -25.0101  -33.9769   25.0501 H   0  0  0  0  0  0
  -22.6948  -31.3098   21.4137 H   0  0  0  0  0  0
  -23.3764  -35.9611   23.3269 H   0  0  0  0  0  0
  -24.3595  -36.8932   22.2056 H   0  0  0  0  0  0
  -23.7199  -37.6484   23.6650 H   0  0  0  0  0  0
  -26.0551  -31.5869   20.6004 H   0  0  0  0  0  0
  -26.8231  -30.8716   21.9883 H   0  0  0  0  0  0
  -28.0939  -29.0677   21.1750 H   0  0  0  0  0  0
  -26.0116  -25.9740   18.9879 H   0  0  0  0  0  0
  -23.9681  -27.3033   19.0260 H   0  0  0  0  0  0
  -23.7228  -30.6014   19.4063 H   0  0  0  0  0  0
  -22.7350  -29.2480   19.8686 H   0  0  0  0  0  0
  -25.1267  -36.1964   25.0835 H   0  0  0  0  0  0
  -20.9957  -28.3229   24.1435 H   0  0  0  0  0  0
  -20.5670  -26.2274   23.3598 H   0  0  0  0  0  0
  -21.6632  -26.7459   22.1196 H   0  0  0  0  0  0
  -19.6897  -25.6311   21.1226 H   0  0  0  0  0  0
  -19.6672  -27.3215   20.6747 H   0  0  0  0  0  0
  -17.4190  -26.6676   21.4033 H   0  0  0  0  0  0
  -18.0323  -26.0073   22.9028 H   0  0  0  0  0  0
  -19.7925  -30.7254   24.2292 H   0  0  0  0  0  0
  -17.5010  -31.6274   24.5163 H   0  0  0  0  0  0
  -15.5342  -30.2997   23.7647 H   0  0  0  0  0  0
  -15.8664  -28.0832   22.7061 H   0  0  0  0  0  0
  -24.5873  -30.7135   25.7828 H   0  0  0  0  0  0
  -24.9029  -32.2882   26.5021 H   0  0  0  0  0  0
  -25.8119  -30.8802   27.0204 H   0  0  0  0  0  0
  -26.2811  -29.6795   24.1184 H   0  0  0  0  0  0
  -27.4062  -29.7262   25.4565 H   0  0  0  0  0  0
  -27.8658  -30.4324   23.9247 H   0  0  0  0  0  0
  -27.2734  -33.3622   26.2032 H   0  0  0  0  0  0
  -28.3892  -32.6809   25.0287 H   0  0  0  0  0  0
  -28.0729  -31.8417   26.5394 H   0  0  0  0  0  0
  -28.2567  -38.0127   24.7586 H   0  0  0  0  0  0
  -28.1123  -36.2665   24.6173 H   0  0  0  0  0  0
  -27.2326  -37.1309   25.8862 H   0  0  0  0  0  0
  -20.9307  -29.8759   21.6947 H   0  0  0  0  0  0
  -26.0166  -38.2870   24.1486 H   0  0  0  0  0  0
  -30.2369  -17.6013   18.7030 H   0  0  0  0  0  0
  -30.1350  -19.9824   18.0913 H   0  0  0  0  0  0
  -28.1285  -18.4690   22.3648 H   0  0  0  0  0  0
  -26.5914  -23.7924   17.8496 H   0  0  0  0  0  0
  -28.2747  -23.7238   17.3442 H   0  0  0  0  0  0
  -27.7683  -21.4057   17.6112 H   0  0  0  0  0  0
  -26.8153  -21.6988   19.0685 H   0  0  0  0  0  0
  -28.7967  -23.0522   21.1614 H   0  0  0  0  0  0
  -30.0517  -23.5143   20.0283 H   0  0  0  0  0  0
  -27.1789  -24.3108   20.0931 H   0  0  0  0  0  0
  -30.3891  -16.7595   23.0205 H   0  0  0  0  0  0
  -31.6569  -16.9627   21.7999 H   0  0  0  0  0  0
  -31.6415  -15.5404   22.8440 H   0  0  0  0  0  0
  -28.7027  -15.9412   19.8653 H   0  0  0  0  0  0
  -28.1875  -16.1632   21.5148 H   0  0  0  0  0  0
  -28.2182  -25.9898   18.1696 H   0  0  0  0  0  0
  -29.6885  -25.5625   18.9510 H   0  0  0  0  0  0
  1 25  1  0  0  0
  1 30  2  0  0  0
  1 85  1  0  0  0
  2  3  1  0  0  0
  2 25  1  0  0  0
  2 87  1  0  0  0
  2 88  1  0  0  0
  3  4  1  0  0  0
  3 89  1  0  0  0
  3 90  1  0  0  0
  4  5  1  0  0  0
  4 91  1  0  0  0
  4 92  1  0  0  0
  5  6  1  0  0  0
  5 26  1  0  0  0
  5 93  1  0  0  0
  6 25  1  0  0  0
  6 94  1  0  0  0
  6 95  1  0  0  0
  7  8  2  0  0  0
  7 26  1  0  0  0
  7 29  1  0  0  0
  8  9  1  0  0  0
  8 22  1  0  0  0
  9 10  1  0  0  0
  9 27  2  0  0  0
 10 11  2  0  0  0
 10 15  1  0  0  0
 11 12  1  0  0  0
 11 96  1  0  0  0
 12 13  2  0  0  0
 12 97  1  0  0  0
 13 14  1  0  0  0
 13 31  1  0  0  0
 14 15  2  0  0  0
 14 98  1  0  0  0
 15 99  1  0  0  0
 16 17  2  0  0  0
 16 21  1  0  0  0
 16 31  1  0  0  0
 17 18  1  0  0  0
 17100  1  0  0  0
 18 19  2  0  0  0
 18101  1  0  0  0
 19 20  1  0  0  0
 19 24  1  0  0  0
 20 21  2  0  0  0
 20102  1  0  0  0
 21 23  1  0  0  0
 22 28  1  0  0  0
 22 32  2  0  0  0
 26 27  1  0  0  0
 28103  1  0  0  0
 28104  1  0  0  0
 29105  1  0  0  0
 29106  1  0  0  0
 33 34  1  0  0  0
 33 66  1  0  0  0
 33 70  2  0  0  0
 34 36  1  0  0  0
 34 59  1  0  0  0
 34107  1  0  0  0
 35 44  2  0  0  0
 35 45  1  0  0  0
 35 68  1  0  0  0
 36 56  1  0  0  0
 36108  1  0  0  0
 37 39  1  0  0  0
 37 47  1  0  0  0
 37 66  1  0  0  0
 37109  1  0  0  0
 38 43  2  0  0  0
 38 46  1  0  0  0
 38 47  1  0  0  0
 39 64  1  0  0  0
 39 67  2  0  0  0
 40 52  1  0  0  0
 40 53  2  0  0  0
 40 58  1  0  0  0
 41110  1  0  0  0
 41111  1  0  0  0
 41112  1  0  0  0
 41 48  1  0  0  0
 42 43  1  0  0  0
 42 66  1  0  0  0
 42113  1  0  0  0
 42114  1  0  0  0
 43 44  1  0  0  0
 44115  1  0  0  0
 45 46  2  0  0  0
 45116  1  0  0  0
 46117  1  0  0  0
 47118  1  0  0  0
 47119  1  0  0  0
 48 56  1  0  0  0
 48 65  1  0  0  0
 48120  1  0  0  0
 49 50  1  0  0  0
 49 53  1  0  0  0
 49 64  1  0  0  0
 49121  1  0  0  0
 50 51  1  0  0  0
 50122  1  0  0  0
 50123  1  0  0  0
 51 52  1  0  0  0
 51124  1  0  0  0
 51125  1  0  0  0
 52126  1  0  0  0
 52127  1  0  0  0
 53 54  1  0  0  0
 54 55  2  0  0  0
 54128  1  0  0  0
 55 57  1  0  0  0
 55129  1  0  0  0
 56 69  2  0  0  0
 57 58  2  0  0  0
 57130  1  0  0  0
 58131  1  0  0  0
 59 60  1  0  0  0
 59 61  1  0  0  0
 59 62  1  0  0  0
 60132  1  0  0  0
 60133  1  0  0  0
 60134  1  0  0  0
 61135  1  0  0  0
 61136  1  0  0  0
 61137  1  0  0  0
 62138  1  0  0  0
 62139  1  0  0  0
 62140  1  0  0  0
 63 65  1  0  0  0
 63141  1  0  0  0
 63142  1  0  0  0
 63143  1  0  0  0
 64144  1  0  0  0
 65145  1  0  0  0
 68 83  1  0  0  0
 71 72  2  0  0  0
 71 74  1  0  0  0
 71146  1  0  0  0
 72 75  1  0  0  0
 72147  1  0  0  0
 73 74  2  0  0  0
 73 76  1  0  0  0
 73148  1  0  0  0
 74 82  1  0  0  0
 75 76  2  0  0  0
 75 84  1  0  0  0
 76 86  1  0  0  0
 77 78  1  0  0  0
 77 80  1  0  0  0
 77149  1  0  0  0
 77150  1  0  0  0
 78 84  1  0  0  0
 78151  1  0  0  0
 78152  1  0  0  0
 79 80  1  0  0  0
 79 84  1  0  0  0
 79153  1  0  0  0
 79154  1  0  0  0
 80 83  1  0  0  0
 80155  1  0  0  0
 81 85  1  0  0  0
 81156  1  0  0  0
 81157  1  0  0  0
 81158  1  0  0  0
 82 85  1  0  0  0
 82159  1  0  0  0
 82160  1  0  0  0
 83161  1  0  0  0
 83162  1  0  0  0
M  ISO  4   1 100  68 101  83 101  85 100
M  END
> <chiral flag>
0

> <version>
0

> <s_m_source_file>
/data/baiqing/PycharmProjects/Reinvent-master-3.2/result/LINK_invent/BTK/process_docking_weight1_custom_product_contain_oxygen_bond_distance_aromatic_linkinvent_7_9_3/rearranged_h_0016.sdf

> <i_m_source_file_index>
5

> <r_mmod_Potential_Energy-OPLS-2005>
248.118392944336

> <r_mmod_Stretch_Energy-OPLS-2005>
45.3211784362793

> <r_mmod_Bend_Energy-OPLS-2005>
152.218521118164

> <r_mmod_Torsional_Energy-OPLS-2005>
352.177673339844

> <r_mmod_Improper_Torsional_Energy-OPLS-2005>
9.07302761077881

> <r_mmod_Van_der_Waal_Energy-OPLS-2005>
147.229064941406

> <r_mmod_Electrostatic_Energy-OPLS-2005>
-266.537689208984

> <r_mmod_Solvation_Energy-OPLS-2005>
-211.031219482422

> <b_mmod_Minimization_Converged-OPLS-2005>
0

> <r_mmod_RMS_Derivative-OPLS-2005>
1.39878976345062

$$$$
5
                    3D
 Structure written by MMmdl.
152160  0  0  1  0            999 V2000
  -30.5165  -14.8989   20.4388 C   0  0  0  0  0  0
  -30.4560  -12.5540   19.4863 C   0  0  0  0  0  0
  -29.5258  -12.5290   18.2492 C   0  0  0  0  0  0
  -28.0551  -12.3209   18.6634 C   0  0  0  0  0  0
  -27.6392  -13.2341   19.8454 C   0  0  2  0  0  0
  -28.6847  -13.2061   20.9820 C   0  0  0  0  0  0
  -25.2504  -13.8174   20.5683 C   0  0  0  0  0  0
  -24.1808  -13.0425   20.9234 C   0  0  0  0  0  0
  -24.6402  -11.6905   20.8757 C   0  0  0  0  0  0
  -23.9075  -10.4285   21.0411 C   0  0  0  0  0  0
  -24.3621   -9.4199   21.9186 C   0  0  0  0  0  0
  -23.6293   -8.2237   22.0755 C   0  0  0  0  0  0
  -22.4275   -8.0278   21.3544 C   0  0  0  0  0  0
  -21.9913   -9.0254   20.4646 C   0  0  0  0  0  0
  -22.7247  -10.2131   20.3057 C   0  0  0  0  0  0
  -21.6851   -6.0735   22.5279 C   0  0  0  0  0  0
  -21.4014   -6.5639   23.8213 C   0  0  0  0  0  0
  -21.3659   -5.6791   24.9175 C   0  0  0  0  0  0
  -21.6043   -4.3054   24.7225 C   0  0  0  0  0  0
  -21.8819   -3.8146   23.4346 C   0  0  0  0  0  0
  -21.9193   -4.6962   22.3402 C   0  0  0  0  0  0
  -22.7828  -13.5212   21.1878 C   0  0  0  0  0  0
  -22.1659   -4.2149   21.0980 F   0  0  0  0  0  0
  -21.5629   -3.4537   25.7737 F   0  0  0  0  0  0
  -29.9703  -13.6209   20.4004 N   0  0  0  0  0  0
  -26.2927  -12.9383   20.3241 N   0  0  0  0  0  0
  -25.9331  -11.6528   20.5736 N   0  0  0  0  0  0
  -22.0465  -12.8209   22.0432 N   0  0  0  0  0  0
  -25.4168  -15.1891   20.4035 N   0  0  0  0  0  0
  -31.7077  -15.0414   20.1400 O   0  0  0  0  0  0
  -21.6637   -6.8877   21.4240 O   0  0  0  0  0  0
  -22.3516  -14.5512   20.6713 O   0  0  0  0  0  0
  -24.6417  -31.8465   23.1908 C   0  0  0  0  0  0
  -25.9198  -32.4709   23.8290 C   0  0  1  0  0  0
  -27.2210  -27.1590   20.1485 C   0  0  0  0  0  0
  -25.5952  -33.8514   24.2207 N   0  0  0  0  0  0
  -23.4442  -30.4667   21.5365 C   0  0  2  0  0  0
  -24.8937  -28.8979   20.1138 C   0  0  0  0  0  0
  -22.7560  -29.4559   22.4874 C   0  0  0  0  0  0
  -18.0302  -28.1395   22.8479 C   0  0  0  0  0  0
  -24.1490  -36.7262   23.2642 C   0  0  0  0  0  0
  -25.9993  -30.7278   21.3868 C   0  0  0  0  0  0
  -26.0713  -29.3408   20.7297 C   0  0  0  0  0  0
  -27.2367  -28.4882   20.7292 C   0  0  0  0  0  0
  -26.0173  -26.8174   19.4905 C   0  0  0  0  0  0
  -24.8785  -27.6486   19.4790 C   0  0  0  0  0  0
  -23.6698  -29.7974   20.1557 C   0  0  0  0  0  0
  -25.4122  -36.3041   24.0318 C   0  0  1  0  0  0
  -20.5916  -28.3720   23.1241 C   0  0  2  0  0  0
  -20.6788  -26.9426   22.5402 C   0  0  0  0  0  0
  -19.5759  -26.6382   21.5212 C   0  0  0  0  0  0
  -18.1941  -26.7934   22.1628 C   0  0  0  0  0  0
  -19.1560  -28.8876   23.2853 C   0  0  0  0  0  0
  -18.9476  -30.1471   23.8878 C   0  0  0  0  0  0
  -17.6472  -30.6592   24.0564 C   0  0  0  0  0  0
  -25.9070  -34.9416   23.5069 C   0  0  0  0  0  0
  -16.5363  -29.9086   23.6338 C   0  0  0  0  0  0
  -16.7286  -28.6506   23.0356 C   0  0  0  0  0  0
  -26.4525  -31.6569   25.0723 C   0  0  0  0  0  0
  -25.3713  -31.3751   26.1418 C   0  0  0  0  0  0
  -27.0389  -30.2970   24.6290 C   0  0  0  0  0  0
  -27.6055  -32.4333   25.7507 C   0  0  0  0  0  0
  -27.5575  -37.1789   24.8466 C   0  0  0  0  0  0
  -21.4254  -29.3048   22.3619 N   0  0  0  0  0  0
  -26.4287  -37.3751   23.9407 N   0  0  0  0  0  0
  -24.7148  -31.0339   22.0934 N   0  0  0  0  0  0
  -23.4211  -28.8102   23.3014 O   0  0  0  0  0  0
  -28.2865  -26.1917   20.1924 O   0  0  0  0  0  0
  -26.5652  -34.8907   22.4646 O   0  0  0  0  0  0
  -23.5539  -32.1330   23.7139 O   0  0  0  0  0  0
  -30.5610  -18.5156   20.5913 C   0  0  0  0  0  0
  -30.2843  -19.9557   20.6009 C   0  0  0  0  0  0
  -28.2500  -18.1002   20.4130 C   0  0  0  0  0  0
  -29.5424  -17.4991   20.5241 C   0  0  0  0  0  0
  -28.9681  -20.5456   20.5388 C   0  0  0  0  0  0
  -27.9696  -19.5160   20.4105 C   0  0  0  0  0  0
  -27.9687  -22.0548   22.1176 C   0  0  0  0  0  0
  -29.0338  -23.3608   20.2765 C   0  0  0  0  0  0
  -27.9861  -24.6770   20.3425 C   0  0  0  0  0  0
  -29.6233  -15.9752   20.6300 N   0  0  0  0  0  0
  -28.5781  -21.9657   20.7894 N   0  0  0  0  0  0
  -26.3024  -19.9657   20.2753 Cl  0  0  0  0  0  0
  -31.4869  -12.7301   19.1746 H   0  0  0  0  0  0
  -30.4568  -11.5870   19.9921 H   0  0  0  0  0  0
  -29.8357  -11.7431   17.5589 H   0  0  0  0  0  0
  -29.6206  -13.4695   17.7041 H   0  0  0  0  0  0
  -27.9389  -11.2750   18.9495 H   0  0  0  0  0  0
  -27.3943  -12.4779   17.8101 H   0  0  0  0  0  0
  -27.6169  -14.2463   19.4413 H   0  0  0  0  0  0
  -28.7593  -12.2084   21.4173 H   0  0  0  0  0  0
  -28.3909  -13.8710   21.7958 H   0  0  0  0  0  0
  -25.2765   -9.5675   22.4764 H   0  0  0  0  0  0
  -24.0000   -7.4627   22.7474 H   0  0  0  0  0  0
  -21.0845   -8.8776   19.8952 H   0  0  0  0  0  0
  -22.3705  -10.9672   19.6169 H   0  0  0  0  0  0
  -21.2004   -7.6147   23.9717 H   0  0  0  0  0  0
  -21.1482   -6.0520   25.9079 H   0  0  0  0  0  0
  -22.0599   -2.7609   23.2845 H   0  0  0  0  0  0
  -22.4078  -11.9877   22.4834 H   0  0  0  0  0  0
  -21.1080  -13.1233   22.2625 H   0  0  0  0  0  0
  -24.6316  -15.8261   20.4823 H   0  0  0  0  0  0
  -26.2197  -15.6064   19.9543 H   0  0  0  0  0  0
  -26.7264  -32.5326   23.1022 H   0  0  0  0  0  0
  -25.0080  -33.9635   25.0340 H   0  0  0  0  0  0
  -22.7461  -31.2922   21.3833 H   0  0  0  0  0  0
  -23.3756  -35.9591   23.3296 H   0  0  0  0  0  0
  -24.3575  -36.8900   22.2058 H   0  0  0  0  0  0
  -23.7243  -37.6456   23.6682 H   0  0  0  0  0  0
  -26.1518  -31.4828   20.6145 H   0  0  0  0  0  0
  -26.8712  -30.7784   22.0274 H   0  0  0  0  0  0
  -28.1352  -28.8249   21.2272 H   0  0  0  0  0  0
  -25.9199  -25.8767   18.9733 H   0  0  0  0  0  0
  -23.9822  -27.3076   18.9793 H   0  0  0  0  0  0
  -23.8056  -30.5722   19.4004 H   0  0  0  0  0  0
  -22.7855  -29.2381   19.8449 H   0  0  0  0  0  0
  -25.1310  -36.1873   25.0810 H   0  0  0  0  0  0
  -21.0008  -28.3308   24.1362 H   0  0  0  0  0  0
  -21.6653  -26.7434   22.1198 H   0  0  0  0  0  0
  -20.5680  -26.2334   23.3618 H   0  0  0  0  0  0
  -19.6917  -25.6286   21.1258 H   0  0  0  0  0  0
  -19.6695  -27.3179   20.6730 H   0  0  0  0  0  0
  -17.4211  -26.6670   21.4032 H   0  0  0  0  0  0
  -18.0342  -26.0083   22.9034 H   0  0  0  0  0  0
  -19.7950  -30.7295   24.2238 H   0  0  0  0  0  0
  -17.5026  -31.6268   24.5172 H   0  0  0  0  0  0
  -15.5364  -30.2982   23.7674 H   0  0  0  0  0  0
  -15.8686  -28.0820   22.7081 H   0  0  0  0  0  0
  -24.5899  -30.7090   25.7739 H   0  0  0  0  0  0
  -24.8892  -32.2930   26.4792 H   0  0  0  0  0  0
  -25.8000  -30.8959   27.0228 H   0  0  0  0  0  0
  -26.3004  -29.6695   24.1287 H   0  0  0  0  0  0
  -27.3999  -29.7265   25.4858 H   0  0  0  0  0  0
  -27.8913  -30.4212   23.9607 H   0  0  0  0  0  0
  -27.2648  -33.3650   26.2034 H   0  0  0  0  0  0
  -28.3894  -32.6866   25.0357 H   0  0  0  0  0  0
  -28.0692  -31.8491   26.5465 H   0  0  0  0  0  0
  -28.2590  -38.0087   24.7508 H   0  0  0  0  0  0
  -28.1074  -36.2617   24.6302 H   0  0  0  0  0  0
  -27.2291  -37.1447   25.8868 H   0  0  0  0  0  0
  -20.9463  -29.8763   21.6800 H   0  0  0  0  0  0
  -26.0156  -38.2821   24.1406 H   0  0  0  0  0  0
  -31.5905  -18.1997   20.6860 H   0  0  0  0  0  0
  -31.1257  -20.6223   20.7222 H   0  0  0  0  0  0
  -27.3952  -17.4452   20.3470 H   0  0  0  0  0  0
  -28.4608  -22.8185   22.7219 H   0  0  0  0  0  0
  -26.9146  -22.3230   22.0345 H   0  0  0  0  0  0
  -28.0270  -21.1221   22.6822 H   0  0  0  0  0  0
  -29.9258  -23.6228   20.8472 H   0  0  0  0  0  0
  -29.3777  -23.2450   19.2480 H   0  0  0  0  0  0
  -27.4875  -24.6237   21.3099 H   0  0  0  0  0  0
  -27.2141  -24.4139   19.6248 H   0  0  0  0  0  0
  -28.7163  -15.5777   20.8186 H   0  0  0  0  0  0
  1 25  1  0  0  0
  1 30  2  0  0  0
  1 80  1  0  0  0
  2  3  1  0  0  0
  2 25  1  0  0  0
  2 83  1  0  0  0
  2 84  1  0  0  0
  3  4  1  0  0  0
  3 85  1  0  0  0
  3 86  1  0  0  0
  4  5  1  0  0  0
  4 87  1  0  0  0
  4 88  1  0  0  0
  5  6  1  0  0  0
  5 26  1  0  0  0
  5 89  1  0  0  0
  6 25  1  0  0  0
  6 90  1  0  0  0
  6 91  1  0  0  0
  7  8  2  0  0  0
  7 26  1  0  0  0
  7 29  1  0  0  0
  8  9  1  0  0  0
  8 22  1  0  0  0
  9 10  1  0  0  0
  9 27  2  0  0  0
 10 11  2  0  0  0
 10 15  1  0  0  0
 11 12  1  0  0  0
 11 92  1  0  0  0
 12 13  2  0  0  0
 12 93  1  0  0  0
 13 14  1  0  0  0
 13 31  1  0  0  0
 14 15  2  0  0  0
 14 94  1  0  0  0
 15 95  1  0  0  0
 16 17  2  0  0  0
 16 21  1  0  0  0
 16 31  1  0  0  0
 17 18  1  0  0  0
 17 96  1  0  0  0
 18 19  2  0  0  0
 18 97  1  0  0  0
 19 20  1  0  0  0
 19 24  1  0  0  0
 20 21  2  0  0  0
 20 98  1  0  0  0
 21 23  1  0  0  0
 22 28  1  0  0  0
 22 32  2  0  0  0
 26 27  1  0  0  0
 28 99  1  0  0  0
 28100  1  0  0  0
 29101  1  0  0  0
 29102  1  0  0  0
 33 34  1  0  0  0
 33 66  1  0  0  0
 33 70  2  0  0  0
 34 36  1  0  0  0
 34 59  1  0  0  0
 34103  1  0  0  0
 35 44  2  0  0  0
 35 45  1  0  0  0
 35 68  1  0  0  0
 36 56  1  0  0  0
 36104  1  0  0  0
 37 39  1  0  0  0
 37 47  1  0  0  0
 37 66  1  0  0  0
 37105  1  0  0  0
 38 43  2  0  0  0
 38 46  1  0  0  0
 38 47  1  0  0  0
 39 64  1  0  0  0
 39 67  2  0  0  0
 40 52  1  0  0  0
 40 53  2  0  0  0
 40 58  1  0  0  0
 41106  1  0  0  0
 41107  1  0  0  0
 41108  1  0  0  0
 41 48  1  0  0  0
 42 43  1  0  0  0
 42 66  1  0  0  0
 42109  1  0  0  0
 42110  1  0  0  0
 43 44  1  0  0  0
 44111  1  0  0  0
 45 46  2  0  0  0
 45112  1  0  0  0
 46113  1  0  0  0
 47114  1  0  0  0
 47115  1  0  0  0
 48 56  1  0  0  0
 48 65  1  0  0  0
 48116  1  0  0  0
 49 50  1  0  0  0
 49 53  1  0  0  0
 49 64  1  0  0  0
 49117  1  0  0  0
 50 51  1  0  0  0
 50118  1  0  0  0
 50119  1  0  0  0
 51 52  1  0  0  0
 51120  1  0  0  0
 51121  1  0  0  0
 52122  1  0  0  0
 52123  1  0  0  0
 53 54  1  0  0  0
 54 55  2  0  0  0
 54124  1  0  0  0
 55 57  1  0  0  0
 55125  1  0  0  0
 56 69  2  0  0  0
 57 58  2  0  0  0
 57126  1  0  0  0
 58127  1  0  0  0
 59 60  1  0  0  0
 59 61  1  0  0  0
 59 62  1  0  0  0
 60128  1  0  0  0
 60129  1  0  0  0
 60130  1  0  0  0
 61131  1  0  0  0
 61132  1  0  0  0
 61133  1  0  0  0
 62134  1  0  0  0
 62135  1  0  0  0
 62136  1  0  0  0
 63 65  1  0  0  0
 63137  1  0  0  0
 63138  1  0  0  0
 63139  1  0  0  0
 64140  1  0  0  0
 65141  1  0  0  0
 68 79  1  0  0  0
 71 72  2  0  0  0
 71 74  1  0  0  0
 71142  1  0  0  0
 72 75  1  0  0  0
 72143  1  0  0  0
 73 74  2  0  0  0
 73 76  1  0  0  0
 73144  1  0  0  0
 74 80  1  0  0  0
 75 76  2  0  0  0
 75 81  1  0  0  0
 76 82  1  0  0  0
 77 81  1  0  0  0
 77145  1  0  0  0
 77146  1  0  0  0
 77147  1  0  0  0
 78 79  1  0  0  0
 78 81  1  0  0  0
 78148  1  0  0  0
 78149  1  0  0  0
 79150  1  0  0  0
 79151  1  0  0  0
 80152  1  0  0  0
M  ISO  4   1 100  68 101  79 101  80 100
M  END
> <chiral flag>
0

> <version>
0

> <s_m_source_file>
/data/baiqing/PycharmProjects/Reinvent-master-3.2/result/LINK_invent/BTK/process_docking_weight1_custom_product_contain_oxygen_bond_distance_aromatic_linkinvent_7_9_3/rearranged_h_0016.sdf

> <i_m_source_file_index>
6

> <r_mmod_Potential_Energy-OPLS-2005>
505.272094726562

> <r_mmod_Stretch_Energy-OPLS-2005>
210.874435424805

> <r_mmod_Bend_Energy-OPLS-2005>
276.394287109375

> <r_mmod_Torsional_Energy-OPLS-2005>
243.519805908203

> <r_mmod_Improper_Torsional_Energy-OPLS-2005>
7.89769601821899

> <r_mmod_Van_der_Waal_Energy-OPLS-2005>
135.679702758789

> <r_mmod_Electrostatic_Energy-OPLS-2005>
-314.520172119141

> <r_mmod_Solvation_Energy-OPLS-2005>
-219.548599243164

> <b_mmod_Minimization_Converged-OPLS-2005>
0

> <r_mmod_RMS_Derivative-OPLS-2005>
0.424254149198532

$$$$
6
                    3D
 Structure written by MMmdl.
165173  0  0  1  0            999 V2000
  -30.7555  -14.3991   20.6629 C   0  0  0  0  0  0
  -30.4180  -12.3049   19.3950 C   0  0  0  0  0  0
  -29.4812  -12.5137   18.1901 C   0  0  0  0  0  0
  -28.0060  -12.3571   18.6068 C   0  0  0  0  0  0
  -27.6585  -13.1797   19.8733 C   0  0  2  0  0  0
  -28.7048  -12.9361   20.9878 C   0  0  0  0  0  0
  -25.2596  -13.8092   20.5669 C   0  0  0  0  0  0
  -24.1831  -13.0411   20.9202 C   0  0  0  0  0  0
  -24.6346  -11.6869   20.8758 C   0  0  0  0  0  0
  -23.9010  -10.4274   21.0422 C   0  0  0  0  0  0
  -24.3582   -9.4196   21.9188 C   0  0  0  0  0  0
  -23.6274   -8.2223   22.0748 C   0  0  0  0  0  0
  -22.4257   -8.0262   21.3542 C   0  0  0  0  0  0
  -21.9885   -9.0233   20.4648 C   0  0  0  0  0  0
  -22.7195  -10.2117   20.3059 C   0  0  0  0  0  0
  -21.6850   -6.0717   22.5275 C   0  0  0  0  0  0
  -21.4006   -6.5625   23.8207 C   0  0  0  0  0  0
  -21.3664   -5.6774   24.9171 C   0  0  0  0  0  0
  -21.6050   -4.3037   24.7225 C   0  0  0  0  0  0
  -21.8824   -3.8130   23.4344 C   0  0  0  0  0  0
  -21.9197   -4.6948   22.3404 C   0  0  0  0  0  0
  -22.7860  -13.5245   21.1852 C   0  0  0  0  0  0
  -22.1666   -4.2134   21.0985 F   0  0  0  0  0  0
  -21.5638   -3.4524   25.7737 F   0  0  0  0  0  0
  -30.0377  -13.2599   20.4493 N   0  0  0  0  0  0
  -26.2995  -12.9195   20.3357 N   0  0  0  0  0  0
  -25.9257  -11.6395   20.5767 N   0  0  0  0  0  0
  -22.0475  -12.8262   22.0403 N   0  0  0  0  0  0
  -25.4326  -15.1802   20.4030 N   0  0  0  0  0  0
  -31.8153  -14.6298   20.0676 O   0  0  0  0  0  0
  -21.6630   -6.8863   21.4240 O   0  0  0  0  0  0
  -22.3568  -14.5560   20.6686 O   0  0  0  0  0  0
  -24.6098  -31.8715   23.2131 C   0  0  0  0  0  0
  -25.9014  -32.4838   23.8409 C   0  0  1  0  0  0
  -27.2422  -27.4760   20.0767 C   0  0  0  0  0  0
  -25.5898  -33.8637   24.2348 N   0  0  0  0  0  0
  -23.3946  -30.4943   21.5526 C   0  0  2  0  0  0
  -24.8411  -28.9629   20.1164 C   0  0  0  0  0  0
  -22.7384  -29.4666   22.5016 C   0  0  0  0  0  0
  -18.0260  -28.1374   22.8495 C   0  0  0  0  0  0
  -24.1482  -36.7319   23.2627 C   0  0  0  0  0  0
  -25.9192  -30.8444   21.3632 C   0  0  0  0  0  0
  -25.9949  -29.4783   20.7180 C   0  0  0  0  0  0
  -27.1907  -28.7334   20.7113 C   0  0  0  0  0  0
  -26.0669  -26.9588   19.4839 C   0  0  0  0  0  0
  -24.8683  -27.6975   19.5039 C   0  0  0  0  0  0
  -23.6007  -29.8251   20.1667 C   0  0  0  0  0  0
  -25.4093  -36.3121   24.0349 C   0  0  1  0  0  0
  -20.5846  -28.3654   23.1346 C   0  0  2  0  0  0
  -20.6749  -26.9400   22.5430 C   0  0  0  0  0  0
  -19.5733  -26.6389   21.5220 C   0  0  0  0  0  0
  -18.1907  -26.7921   22.1625 C   0  0  0  0  0  0
  -19.1506  -28.8832   23.2912 C   0  0  0  0  0  0
  -18.9434  -30.1441   23.8916 C   0  0  0  0  0  0
  -17.6442  -30.6587   24.0557 C   0  0  0  0  0  0
  -25.9036  -34.9492   23.5144 C   0  0  0  0  0  0
  -16.5331  -29.9090   23.6321 C   0  0  0  0  0  0
  -16.7249  -28.6506   23.0348 C   0  0  0  0  0  0
  -26.4460  -31.6602   25.0720 C   0  0  0  0  0  0
  -25.3744  -31.3722   26.1491 C   0  0  0  0  0  0
  -27.0260  -30.3036   24.6067 C   0  0  0  0  0  0
  -27.6062  -32.4303   25.7463 C   0  0  0  0  0  0
  -27.5609  -37.1766   24.8429 C   0  0  0  0  0  0
  -21.4120  -29.3028   22.3766 N   0  0  0  0  0  0
  -26.4266  -37.3825   23.9456 N   0  0  0  0  0  0
  -24.6590  -31.0842   22.1016 N   0  0  0  0  0  0
  -23.4185  -28.8217   23.3038 O   0  0  0  0  0  0
  -28.4488  -26.8147   20.0709 O   0  0  0  0  0  0
  -26.5595  -34.8940   22.4701 O   0  0  0  0  0  0
  -23.5301  -32.1456   23.7549 O   0  0  0  0  0  0
  -29.6920  -18.5482   21.7359 C   0  0  0  0  0  0
  -29.6061  -18.8355   18.9495 C   0  0  0  0  0  0
  -29.4326  -17.4168   20.9319 C   0  0  0  0  0  0
  -29.8374  -19.9700   19.7523 C   0  0  0  0  0  0
  -29.3818  -17.5746   19.5254 C   0  0  0  0  0  0
  -29.8855  -19.8203   21.1588 C   0  0  0  0  0  0
  -31.3973  -15.7076   22.5972 C   0  0  0  0  0  0
  -27.8427  -21.3686   17.8934 C   0  0  0  0  0  0
  -29.1855  -16.0669   21.6030 C   0  0  0  0  0  0
  -30.0415  -21.3197   19.0718 C   0  0  0  0  0  0
  -28.4859  -24.4598   19.4517 C   0  0  0  0  0  0
  -29.0164  -23.4651   18.4100 C   0  0  0  0  0  0
  -28.7326  -25.9091   19.0120 C   0  0  0  0  0  0
  -30.3677  -15.1892   21.6917 N   0  0  0  0  0  0
  -28.7736  -22.0585   18.8210 N   0  3  1  0  0  0
  -29.0187  -16.2655   18.4632 Cl  0  0  0  0  0  0
  -30.1678  -21.1715   22.1981 Cl  0  0  0  0  0  0
  -31.4578  -12.4150   19.0812 H   0  0  0  0  0  0
  -30.3333  -11.2835   19.7702 H   0  0  0  0  0  0
  -29.7229  -11.8034   17.3984 H   0  0  0  0  0  0
  -29.6431  -13.5051   17.7651 H   0  0  0  0  0  0
  -27.8203  -11.2979   18.7898 H   0  0  0  0  0  0
  -27.3503  -12.6413   17.7833 H   0  0  0  0  0  0
  -27.6944  -14.2203   19.5710 H   0  0  0  0  0  0
  -28.6860  -11.8875   21.2883 H   0  0  0  0  0  0
  -28.4572  -13.4849   21.8962 H   0  0  0  0  0  0
  -25.2732   -9.5673   22.4746 H   0  0  0  0  0  0
  -23.9998   -7.4608   22.7453 H   0  0  0  0  0  0
  -21.0820   -8.8736   19.8954 H   0  0  0  0  0  0
  -22.3653  -10.9647   19.6155 H   0  0  0  0  0  0
  -21.1983   -7.6126   23.9706 H   0  0  0  0  0  0
  -21.1488   -6.0502   25.9076 H   0  0  0  0  0  0
  -22.0602   -2.7585   23.2839 H   0  0  0  0  0  0
  -22.4065  -11.9929   22.4824 H   0  0  0  0  0  0
  -21.1091  -13.1308   22.2572 H   0  0  0  0  0  0
  -24.6587  -15.8282   20.4989 H   0  0  0  0  0  0
  -26.2676  -15.6136   20.0322 H   0  0  0  0  0  0
  -26.7083  -32.5570   23.1179 H   0  0  0  0  0  0
  -25.0044  -33.9805   25.0488 H   0  0  0  0  0  0
  -22.6798  -31.3086   21.4170 H   0  0  0  0  0  0
  -23.3777  -35.9613   23.3204 H   0  0  0  0  0  0
  -24.3615  -36.9015   22.2060 H   0  0  0  0  0  0
  -23.7183  -37.6480   23.6682 H   0  0  0  0  0  0
  -26.0245  -31.6084   20.5914 H   0  0  0  0  0  0
  -26.8108  -30.9014   21.9762 H   0  0  0  0  0  0
  -28.0834  -29.1313   21.1741 H   0  0  0  0  0  0
  -26.0584  -25.9932   19.0018 H   0  0  0  0  0  0
  -23.9794  -27.2930   19.0399 H   0  0  0  0  0  0
  -23.7028  -30.5982   19.4044 H   0  0  0  0  0  0
  -22.7271  -29.2391   19.8764 H   0  0  0  0  0  0
  -25.1246  -36.1965   25.0831 H   0  0  0  0  0  0
  -20.9930  -28.3211   24.1470 H   0  0  0  0  0  0
  -20.5675  -26.2255   23.3604 H   0  0  0  0  0  0
  -21.6618  -26.7460   22.1216 H   0  0  0  0  0  0
  -19.6895  -25.6307   21.1231 H   0  0  0  0  0  0
  -19.6683  -27.3212   20.6763 H   0  0  0  0  0  0
  -17.4190  -26.6689   21.4008 H   0  0  0  0  0  0
  -18.0290  -26.0062   22.9016 H   0  0  0  0  0  0
  -19.7914  -30.7236   24.2305 H   0  0  0  0  0  0
  -17.5004  -31.6273   24.5154 H   0  0  0  0  0  0
  -15.5333  -30.2997   23.7646 H   0  0  0  0  0  0
  -15.8648  -28.0836   22.7050 H   0  0  0  0  0  0
  -24.5882  -30.7107   25.7837 H   0  0  0  0  0  0
  -24.8978  -32.2892   26.4968 H   0  0  0  0  0  0
  -25.8109  -30.8862   27.0227 H   0  0  0  0  0  0
  -26.2773  -29.6826   24.1135 H   0  0  0  0  0  0
  -27.4041  -29.7249   25.4506 H   0  0  0  0  0  0
  -27.8616  -30.4340   23.9184 H   0  0  0  0  0  0
  -27.2702  -33.3597   26.2070 H   0  0  0  0  0  0
  -28.3851  -32.6871   25.0271 H   0  0  0  0  0  0
  -28.0753  -31.8407   26.5349 H   0  0  0  0  0  0
  -28.2495  -38.0193   24.7689 H   0  0  0  0  0  0
  -28.1233  -36.2749   24.5957 H   0  0  0  0  0  0
  -27.2378  -37.1057   25.8830 H   0  0  0  0  0  0
  -20.9274  -29.8755   21.6998 H   0  0  0  0  0  0
  -26.0148  -38.2874   24.1585 H   0  0  0  0  0  0
  -29.7303  -18.4475   22.8117 H   0  0  0  0  0  0
  -29.5713  -18.9301   17.8739 H   0  0  0  0  0  0
  -30.9628  -16.0507   23.5365 H   0  0  0  0  0  0
  -31.9304  -16.5429   22.1396 H   0  0  0  0  0  0
  -32.1315  -14.9379   22.8436 H   0  0  0  0  0  0
  -27.4998  -20.4165   18.2961 H   0  0  0  0  0  0
  -28.3135  -21.1839   16.9262 H   0  0  0  0  0  0
  -26.9503  -21.9709   17.7204 H   0  0  0  0  0  0
  -28.3539  -15.5899   21.0963 H   0  0  0  0  0  0
  -28.8090  -16.2368   22.6130 H   0  0  0  0  0  0
  -30.5672  -21.1719   18.1269 H   0  0  0  0  0  0
  -30.7100  -21.9274   19.6817 H   0  0  0  0  0  0
  -28.9843  -24.2895   20.4066 H   0  0  0  0  0  0
  -27.4222  -24.2949   19.6239 H   0  0  0  0  0  0
  -30.0812  -23.6433   18.2522 H   0  0  0  0  0  0
  -28.5525  -23.6725   17.4440 H   0  0  0  0  0  0
  -28.1939  -26.1540   18.0949 H   0  0  0  0  0  0
  -29.7898  -26.0333   18.7728 H   0  0  0  0  0  0
  -28.2971  -22.1065   19.7088 H   0  0  0  0  0  0
  1 25  1  0  0  0
  1 30  2  0  0  0
  1 84  1  0  0  0
  2  3  1  0  0  0
  2 25  1  0  0  0
  2 88  1  0  0  0
  2 89  1  0  0  0
  3  4  1  0  0  0
  3 90  1  0  0  0
  3 91  1  0  0  0
  4  5  1  0  0  0
  4 92  1  0  0  0
  4 93  1  0  0  0
  5  6  1  0  0  0
  5 26  1  0  0  0
  5 94  1  0  0  0
  6 25  1  0  0  0
  6 95  1  0  0  0
  6 96  1  0  0  0
  7  8  2  0  0  0
  7 26  1  0  0  0
  7 29  1  0  0  0
  8  9  1  0  0  0
  8 22  1  0  0  0
  9 10  1  0  0  0
  9 27  2  0  0  0
 10 11  2  0  0  0
 10 15  1  0  0  0
 11 12  1  0  0  0
 11 97  1  0  0  0
 12 13  2  0  0  0
 12 98  1  0  0  0
 13 14  1  0  0  0
 13 31  1  0  0  0
 14 15  2  0  0  0
 14 99  1  0  0  0
 15100  1  0  0  0
 16 17  2  0  0  0
 16 21  1  0  0  0
 16 31  1  0  0  0
 17 18  1  0  0  0
 17101  1  0  0  0
 18 19  2  0  0  0
 18102  1  0  0  0
 19 20  1  0  0  0
 19 24  1  0  0  0
 20 21  2  0  0  0
 20103  1  0  0  0
 21 23  1  0  0  0
 22 28  1  0  0  0
 22 32  2  0  0  0
 26 27  1  0  0  0
 28104  1  0  0  0
 28105  1  0  0  0
 29106  1  0  0  0
 29107  1  0  0  0
 33 34  1  0  0  0
 33 66  1  0  0  0
 33 70  2  0  0  0
 34 36  1  0  0  0
 34 59  1  0  0  0
 34108  1  0  0  0
 35 44  2  0  0  0
 35 45  1  0  0  0
 35 68  1  0  0  0
 36 56  1  0  0  0
 36109  1  0  0  0
 37 39  1  0  0  0
 37 47  1  0  0  0
 37 66  1  0  0  0
 37110  1  0  0  0
 38 43  2  0  0  0
 38 46  1  0  0  0
 38 47  1  0  0  0
 39 64  1  0  0  0
 39 67  2  0  0  0
 40 52  1  0  0  0
 40 53  2  0  0  0
 40 58  1  0  0  0
 41111  1  0  0  0
 41112  1  0  0  0
 41113  1  0  0  0
 41 48  1  0  0  0
 42 43  1  0  0  0
 42 66  1  0  0  0
 42114  1  0  0  0
 42115  1  0  0  0
 43 44  1  0  0  0
 44116  1  0  0  0
 45 46  2  0  0  0
 45117  1  0  0  0
 46118  1  0  0  0
 47119  1  0  0  0
 47120  1  0  0  0
 48 56  1  0  0  0
 48 65  1  0  0  0
 48121  1  0  0  0
 49 50  1  0  0  0
 49 53  1  0  0  0
 49 64  1  0  0  0
 49122  1  0  0  0
 50 51  1  0  0  0
 50123  1  0  0  0
 50124  1  0  0  0
 51 52  1  0  0  0
 51125  1  0  0  0
 51126  1  0  0  0
 52127  1  0  0  0
 52128  1  0  0  0
 53 54  1  0  0  0
 54 55  2  0  0  0
 54129  1  0  0  0
 55 57  1  0  0  0
 55130  1  0  0  0
 56 69  2  0  0  0
 57 58  2  0  0  0
 57131  1  0  0  0
 58132  1  0  0  0
 59 60  1  0  0  0
 59 61  1  0  0  0
 59 62  1  0  0  0
 60133  1  0  0  0
 60134  1  0  0  0
 60135  1  0  0  0
 61136  1  0  0  0
 61137  1  0  0  0
 61138  1  0  0  0
 62139  1  0  0  0
 62140  1  0  0  0
 62141  1  0  0  0
 63 65  1  0  0  0
 63142  1  0  0  0
 63143  1  0  0  0
 63144  1  0  0  0
 64145  1  0  0  0
 65146  1  0  0  0
 68 83  1  0  0  0
 71 73  2  0  0  0
 71 76  1  0  0  0
 71147  1  0  0  0
 72 74  1  0  0  0
 72 75  2  0  0  0
 72148  1  0  0  0
 73 75  1  0  0  0
 73 79  1  0  0  0
 74 76  2  0  0  0
 74 80  1  0  0  0
 75 86  1  0  0  0
 76 87  1  0  0  0
 77 84  1  0  0  0
 77149  1  0  0  0
 77150  1  0  0  0
 77151  1  0  0  0
 78152  1  0  0  0
 78153  1  0  0  0
 78154  1  0  0  0
 78 85  1  0  0  0
 79 84  1  0  0  0
 79155  1  0  0  0
 79156  1  0  0  0
 80 85  1  0  0  0
 80157  1  0  0  0
 80158  1  0  0  0
 81 82  1  0  0  0
 81 83  1  0  0  0
 81159  1  0  0  0
 81160  1  0  0  0
 82 85  1  0  0  0
 82161  1  0  0  0
 82162  1  0  0  0
 83163  1  0  0  0
 83164  1  0  0  0
 85165  1  0  0  0
M  CHG  1  85   1
M  ISO  4   1 100  68 101  83 101  84 100
M  END
> <chiral flag>
0

> <version>
0

> <s_m_source_file>
/data/baiqing/PycharmProjects/Reinvent-master-3.2/result/LINK_invent/BTK/process_docking_weight1_custom_product_contain_oxygen_bond_distance_aromatic_linkinvent_7_9_3/rearranged_h_0016.sdf

> <i_m_source_file_index>
7

> <r_mmod_Potential_Energy-OPLS-2005>
-109.268005371094

> <r_mmod_Stretch_Energy-OPLS-2005>
34.8127517700195

> <r_mmod_Bend_Energy-OPLS-2005>
101.299362182617

> <r_mmod_Torsional_Energy-OPLS-2005>
259.610778808594

> <r_mmod_Improper_Torsional_Energy-OPLS-2005>
6.18285083770752

> <r_mmod_Van_der_Waal_Energy-OPLS-2005>
152.941650390625

> <r_mmod_Electrostatic_Energy-OPLS-2005>
-228.791366577148

> <r_mmod_Solvation_Energy-OPLS-2005>
-444.158538818359

> <b_mmod_Minimization_Converged-OPLS-2005>
0

> <r_mmod_RMS_Derivative-OPLS-2005>
1.58730745315552

$$$$
7
                    3D
 Structure written by MMmdl.
166175  0  0  1  0            999 V2000
  -30.7974  -14.3246   20.7209 C   0  0  0  0  0  0
  -30.4155  -12.2903   19.3717 C   0  0  0  0  0  0
  -29.4723  -12.5187   18.1786 C   0  0  0  0  0  0
  -28.0028  -12.3619   18.6076 C   0  0  0  0  0  0
  -27.6662  -13.1949   19.8714 C   0  0  2  0  0  0
  -28.7073  -12.9499   20.9857 C   0  0  0  0  0  0
  -25.2630  -13.8144   20.5662 C   0  0  0  0  0  0
  -24.1858  -13.0444   20.9152 C   0  0  0  0  0  0
  -24.6388  -11.6904   20.8721 C   0  0  0  0  0  0
  -23.9045  -10.4299   21.0396 C   0  0  0  0  0  0
  -24.3615   -9.4211   21.9164 C   0  0  0  0  0  0
  -23.6296   -8.2243   22.0743 C   0  0  0  0  0  0
  -22.4272   -8.0280   21.3542 C   0  0  0  0  0  0
  -21.9896   -9.0252   20.4653 C   0  0  0  0  0  0
  -22.7214  -10.2138   20.3053 C   0  0  0  0  0  0
  -21.6853   -6.0734   22.5283 C   0  0  0  0  0  0
  -21.4017   -6.5641   23.8217 C   0  0  0  0  0  0
  -21.3655   -5.6794   24.9181 C   0  0  0  0  0  0
  -21.6039   -4.3057   24.7233 C   0  0  0  0  0  0
  -21.8819   -3.8151   23.4356 C   0  0  0  0  0  0
  -21.9192   -4.6963   22.3408 C   0  0  0  0  0  0
  -22.7884  -13.5252   21.1825 C   0  0  0  0  0  0
  -22.1657   -4.2150   21.0986 F   0  0  0  0  0  0
  -21.5628   -3.4534   25.7742 F   0  0  0  0  0  0
  -30.0500  -13.2265   20.4435 N   0  0  0  0  0  0
  -26.3054  -12.9293   20.3358 N   0  0  0  0  0  0
  -25.9310  -11.6461   20.5754 N   0  0  0  0  0  0
  -22.0526  -12.8258   22.0404 N   0  0  0  0  0  0
  -25.4382  -15.1859   20.4078 N   0  0  0  0  0  0
  -31.7871  -14.6358   20.0499 O   0  0  0  0  0  0
  -21.6643   -6.8873   21.4241 O   0  0  0  0  0  0
  -22.3557  -14.5543   20.6662 O   0  0  0  0  0  0
  -24.6122  -31.8704   23.2121 C   0  0  0  0  0  0
  -25.9029  -32.4845   23.8394 C   0  0  1  0  0  0
  -27.2408  -27.4685   20.0675 C   0  0  0  0  0  0
  -25.5932  -33.8641   24.2355 N   0  0  0  0  0  0
  -23.3995  -30.4934   21.5528 C   0  0  2  0  0  0
  -24.8441  -28.9655   20.1139 C   0  0  0  0  0  0
  -22.7401  -29.4657   22.4996 C   0  0  0  0  0  0
  -18.0296  -28.1351   22.8469 C   0  0  0  0  0  0
  -24.1521  -36.7348   23.2620 C   0  0  0  0  0  0
  -25.9223  -30.8480   21.3531 C   0  0  0  0  0  0
  -26.0024  -29.4795   20.7092 C   0  0  0  0  0  0
  -27.1980  -28.7322   20.6973 C   0  0  0  0  0  0
  -26.0538  -26.9518   19.4967 C   0  0  0  0  0  0
  -24.8615  -27.6962   19.5126 C   0  0  0  0  0  0
  -23.6055  -29.8269   20.1663 C   0  0  0  0  0  0
  -25.4131  -36.3135   24.0336 C   0  0  1  0  0  0
  -20.5878  -28.3645   23.1321 C   0  0  2  0  0  0
  -20.6786  -26.9372   22.5428 C   0  0  0  0  0  0
  -19.5787  -26.6360   21.5200 C   0  0  0  0  0  0
  -18.1955  -26.7901   22.1593 C   0  0  0  0  0  0
  -19.1537  -28.8817   23.2895 C   0  0  0  0  0  0
  -18.9453  -30.1433   23.8881 C   0  0  0  0  0  0
  -17.6449  -30.6550   24.0566 C   0  0  0  0  0  0
  -25.9036  -34.9490   23.5131 C   0  0  0  0  0  0
  -16.5349  -29.9043   23.6310 C   0  0  0  0  0  0
  -16.7286  -28.6481   23.0293 C   0  0  0  0  0  0
  -26.4471  -31.6596   25.0688 C   0  0  0  0  0  0
  -25.3786  -31.3721   26.1486 C   0  0  0  0  0  0
  -27.0223  -30.3042   24.5973 C   0  0  0  0  0  0
  -27.6133  -32.4233   25.7398 C   0  0  0  0  0  0
  -27.5627  -37.1791   24.8435 C   0  0  0  0  0  0
  -21.4138  -29.3024   22.3736 N   0  0  0  0  0  0
  -26.4322  -37.3814   23.9410 N   0  0  0  0  0  0
  -24.6642  -31.0818   22.0999 N   0  0  0  0  0  0
  -23.4183  -28.8168   23.3016 O   0  0  0  0  0  0
  -28.4306  -26.7740   20.0658 O   0  0  0  0  0  0
  -26.5550  -34.8927   22.4656 O   0  0  0  0  0  0
  -23.5326  -32.1411   23.7541 O   0  0  0  0  0  0
  -30.4253  -19.3466   19.8675 C   0  0  0  0  0  0
  -30.8290  -18.3300   20.7513 C   0  0  0  0  0  0
  -29.5857  -20.6355   21.7401 C   0  0  0  0  0  0
  -29.7811  -20.5014   20.3503 C   0  0  0  0  0  0
  -30.6183  -18.4291   22.1516 C   0  0  0  0  0  0
  -30.0116  -19.6278   22.6305 C   0  0  0  0  0  0
  -29.3292  -23.8705   20.2958 C   0  0  0  0  0  0
  -29.8503  -23.7212   18.3028 C   0  0  0  0  0  0
  -29.7307  -24.9129   19.2517 C   0  0  1  0  0  0
  -30.2700  -17.2075   24.2829 C   0  0  0  0  0  0
  -29.2692  -21.5489   19.3665 C   0  0  0  0  0  0
  -30.4190  -15.1898   21.9328 C   0  0  0  0  0  0
  -28.7777  -26.0478   18.8872 C   0  0  0  0  0  0
  -31.5379  -16.1267   22.4492 C   0  0  0  0  0  0
  -30.9920  -17.3630   23.0198 N   0  0  0  0  0  0
  -29.9755  -22.8475   19.4690 N   0  3  2  0  0  0
  -29.8221  -19.8450   23.9550 F   0  0  0  0  0  0
  -31.4544  -12.3988   19.0542 H   0  0  0  0  0  0
  -30.3265  -11.2659   19.7362 H   0  0  0  0  0  0
  -29.7029  -11.8165   17.3765 H   0  0  0  0  0  0
  -29.6287  -13.5169   17.7685 H   0  0  0  0  0  0
  -27.8197  -11.3034   18.7985 H   0  0  0  0  0  0
  -27.3395  -12.6385   17.7870 H   0  0  0  0  0  0
  -27.7231  -14.2459   19.5868 H   0  0  0  0  0  0
  -28.6655  -11.9146   21.3256 H   0  0  0  0  0  0
  -28.4438  -13.5544   21.8514 H   0  0  0  0  0  0
  -25.2770   -9.5685   22.4728 H   0  0  0  0  0  0
  -24.0014   -7.4627   22.7453 H   0  0  0  0  0  0
  -21.0819   -8.8760   19.8971 H   0  0  0  0  0  0
  -22.3651  -10.9676   19.6170 H   0  0  0  0  0  0
  -21.2009   -7.6150   23.9725 H   0  0  0  0  0  0
  -21.1473   -6.0525   25.9082 H   0  0  0  0  0  0
  -22.0601   -2.7614   23.2858 H   0  0  0  0  0  0
  -22.4159  -11.9950   22.4832 H   0  0  0  0  0  0
  -21.1146  -13.1292   22.2620 H   0  0  0  0  0  0
  -24.6766  -15.8466   20.5157 H   0  0  0  0  0  0
  -26.3028  -15.6232   20.1141 H   0  0  0  0  0  0
  -26.7099  -32.5581   23.1172 H   0  0  0  0  0  0
  -25.0253  -33.9830   25.0614 H   0  0  0  0  0  0
  -22.6885  -31.3102   21.4129 H   0  0  0  0  0  0
  -23.3780  -35.9678   23.3246 H   0  0  0  0  0  0
  -24.3647  -36.8982   22.2043 H   0  0  0  0  0  0
  -23.7264  -37.6554   23.6622 H   0  0  0  0  0  0
  -26.0097  -31.6084   20.5743 H   0  0  0  0  0  0
  -26.8203  -30.9213   21.9541 H   0  0  0  0  0  0
  -28.0927  -29.1295   21.1549 H   0  0  0  0  0  0
  -26.0173  -25.9681   19.0523 H   0  0  0  0  0  0
  -23.9648  -27.2873   19.0678 H   0  0  0  0  0  0
  -23.7095  -30.6000   19.4040 H   0  0  0  0  0  0
  -22.7337  -29.2393   19.8741 H   0  0  0  0  0  0
  -25.1299  -36.2023   25.0829 H   0  0  0  0  0  0
  -20.9978  -28.3203   24.1442 H   0  0  0  0  0  0
  -20.5684  -26.2243   23.3621 H   0  0  0  0  0  0
  -21.6661  -26.7403   22.1232 H   0  0  0  0  0  0
  -19.6950  -25.6271   21.1232 H   0  0  0  0  0  0
  -19.6759  -27.3176   20.6737 H   0  0  0  0  0  0
  -17.4251  -26.6671   21.3965 H   0  0  0  0  0  0
  -18.0326  -26.0033   22.8980 H   0  0  0  0  0  0
  -19.7934  -30.7260   24.2216 H   0  0  0  0  0  0
  -17.4997  -31.6212   24.5202 H   0  0  0  0  0  0
  -15.5343  -30.2920   23.7638 H   0  0  0  0  0  0
  -15.8708  -28.0816   22.6920 H   0  0  0  0  0  0
  -24.5999  -30.6986   25.7883 H   0  0  0  0  0  0
  -24.8927  -32.2884   26.4850 H   0  0  0  0  0  0
  -25.8201  -30.9003   27.0281 H   0  0  0  0  0  0
  -26.2678  -29.6826   24.1134 H   0  0  0  0  0  0
  -27.4146  -29.7253   25.4346 H   0  0  0  0  0  0
  -27.8452  -30.4380   23.8950 H   0  0  0  0  0  0
  -27.2859  -33.3547   26.2023 H   0  0  0  0  0  0
  -28.3900  -32.6746   25.0160 H   0  0  0  0  0  0
  -28.0828  -31.8289   26.5251 H   0  0  0  0  0  0
  -28.2606  -38.0131   24.7556 H   0  0  0  0  0  0
  -28.1164  -36.2668   24.6154 H   0  0  0  0  0  0
  -27.2359  -37.1322   25.8839 H   0  0  0  0  0  0
  -20.9277  -29.8794   21.7007 H   0  0  0  0  0  0
  -26.0228  -38.2888   24.1452 H   0  0  0  0  0  0
  -30.5909  -19.2107   18.8077 H   0  0  0  0  0  0
  -31.2854  -17.4644   20.2996 H   0  0  0  0  0  0
  -29.0968  -21.5095   22.1437 H   0  0  0  0  0  0
  -28.2475  -23.7580   20.3804 H   0  0  0  0  0  0
  -29.7925  -24.0047   21.2734 H   0  0  0  0  0  0
  -30.7334  -23.7355   17.6633 H   0  0  0  0  0  0
  -28.9406  -23.5347   17.7269 H   0  0  0  0  0  0
  -30.7252  -25.2933   19.4978 H   0  0  0  0  0  0
  -30.6977  -17.8468   25.0561 H   0  0  0  0  0  0
  -30.3239  -16.1802   24.6489 H   0  0  0  0  0  0
  -29.2110  -17.4487   24.1711 H   0  0  0  0  0  0
  -28.1909  -21.6701   19.4794 H   0  0  0  0  0  0
  -29.4122  -21.1645   18.3556 H   0  0  0  0  0  0
  -29.5412  -15.7643   21.6357 H   0  0  0  0  0  0
  -30.1140  -14.5532   22.7626 H   0  0  0  0  0  0
  -27.9270  -25.6445   18.3423 H   0  0  0  0  0  0
  -29.2620  -26.7374   18.1962 H   0  0  0  0  0  0
  -32.2969  -16.3498   21.6992 H   0  0  0  0  0  0
  -32.0954  -15.6032   23.2279 H   0  0  0  0  0  0
  -30.9490  -22.7266   19.7023 H   0  0  0  0  0  0
  1 25  1  0  0  0
  1 30  2  0  0  0
  1 82  1  0  0  0
  2  3  1  0  0  0
  2 25  1  0  0  0
  2 88  1  0  0  0
  2 89  1  0  0  0
  3  4  1  0  0  0
  3 90  1  0  0  0
  3 91  1  0  0  0
  4  5  1  0  0  0
  4 92  1  0  0  0
  4 93  1  0  0  0
  5  6  1  0  0  0
  5 26  1  0  0  0
  5 94  1  0  0  0
  6 25  1  0  0  0
  6 95  1  0  0  0
  6 96  1  0  0  0
  7  8  2  0  0  0
  7 26  1  0  0  0
  7 29  1  0  0  0
  8  9  1  0  0  0
  8 22  1  0  0  0
  9 10  1  0  0  0
  9 27  2  0  0  0
 10 11  2  0  0  0
 10 15  1  0  0  0
 11 12  1  0  0  0
 11 97  1  0  0  0
 12 13  2  0  0  0
 12 98  1  0  0  0
 13 14  1  0  0  0
 13 31  1  0  0  0
 14 15  2  0  0  0
 14 99  1  0  0  0
 15100  1  0  0  0
 16 17  2  0  0  0
 16 21  1  0  0  0
 16 31  1  0  0  0
 17 18  1  0  0  0
 17101  1  0  0  0
 18 19  2  0  0  0
 18102  1  0  0  0
 19 20  1  0  0  0
 19 24  1  0  0  0
 20 21  2  0  0  0
 20103  1  0  0  0
 21 23  1  0  0  0
 22 28  1  0  0  0
 22 32  2  0  0  0
 26 27  1  0  0  0
 28104  1  0  0  0
 28105  1  0  0  0
 29106  1  0  0  0
 29107  1  0  0  0
 33 34  1  0  0  0
 33 66  1  0  0  0
 33 70  2  0  0  0
 34 36  1  0  0  0
 34 59  1  0  0  0
 34108  1  0  0  0
 35 44  2  0  0  0
 35 45  1  0  0  0
 35 68  1  0  0  0
 36 56  1  0  0  0
 36109  1  0  0  0
 37 39  1  0  0  0
 37 47  1  0  0  0
 37 66  1  0  0  0
 37110  1  0  0  0
 38 43  2  0  0  0
 38 46  1  0  0  0
 38 47  1  0  0  0
 39 64  1  0  0  0
 39 67  2  0  0  0
 40 52  1  0  0  0
 40 53  2  0  0  0
 40 58  1  0  0  0
 41111  1  0  0  0
 41112  1  0  0  0
 41113  1  0  0  0
 41 48  1  0  0  0
 42 43  1  0  0  0
 42 66  1  0  0  0
 42114  1  0  0  0
 42115  1  0  0  0
 43 44  1  0  0  0
 44116  1  0  0  0
 45 46  2  0  0  0
 45117  1  0  0  0
 46118  1  0  0  0
 47119  1  0  0  0
 47120  1  0  0  0
 48 56  1  0  0  0
 48 65  1  0  0  0
 48121  1  0  0  0
 49 50  1  0  0  0
 49 53  1  0  0  0
 49 64  1  0  0  0
 49122  1  0  0  0
 50 51  1  0  0  0
 50123  1  0  0  0
 50124  1  0  0  0
 51 52  1  0  0  0
 51125  1  0  0  0
 51126  1  0  0  0
 52127  1  0  0  0
 52128  1  0  0  0
 53 54  1  0  0  0
 54 55  2  0  0  0
 54129  1  0  0  0
 55 57  1  0  0  0
 55130  1  0  0  0
 56 69  2  0  0  0
 57 58  2  0  0  0
 57131  1  0  0  0
 58132  1  0  0  0
 59 60  1  0  0  0
 59 61  1  0  0  0
 59 62  1  0  0  0
 60133  1  0  0  0
 60134  1  0  0  0
 60135  1  0  0  0
 61136  1  0  0  0
 61137  1  0  0  0
 61138  1  0  0  0
 62139  1  0  0  0
 62140  1  0  0  0
 62141  1  0  0  0
 63 65  1  0  0  0
 63142  1  0  0  0
 63143  1  0  0  0
 63144  1  0  0  0
 64145  1  0  0  0
 65146  1  0  0  0
 68 83  1  0  0  0
 71 72  2  0  0  0
 71 74  1  0  0  0
 71147  1  0  0  0
 72 75  1  0  0  0
 72148  1  0  0  0
 73 74  2  0  0  0
 73 76  1  0  0  0
 73149  1  0  0  0
 74 81  1  0  0  0
 75 76  2  0  0  0
 75 85  1  0  0  0
 76 87  1  0  0  0
 77 79  1  0  0  0
 77 86  1  0  0  0
 77150  1  0  0  0
 77151  1  0  0  0
 78 79  1  0  0  0
 78 86  1  0  0  0
 78152  1  0  0  0
 78153  1  0  0  0
 79 83  1  0  0  0
 79154  1  0  0  0
 80 85  1  0  0  0
 80155  1  0  0  0
 80156  1  0  0  0
 80157  1  0  0  0
 81158  1  0  0  0
 81159  1  0  0  0
 81 86  1  0  0  0
 82 84  1  0  0  0
 82160  1  0  0  0
 82161  1  0  0  0
 83162  1  0  0  0
 83163  1  0  0  0
 84 85  1  0  0  0
 84164  1  0  0  0
 84165  1  0  0  0
 86166  1  0  0  0
M  CHG  1  86   1
M  ISO  4   1 100  68 101  82 100  83 101
M  END
> <chiral flag>
0

> <version>
0

> <s_m_source_file>
/data/baiqing/PycharmProjects/Reinvent-master-3.2/result/LINK_invent/BTK/process_docking_weight1_custom_product_contain_oxygen_bond_distance_aromatic_linkinvent_7_9_3/rearranged_h_0016.sdf

> <i_m_source_file_index>
8

> <r_mmod_Potential_Energy-OPLS-2005>
-132.551986694336

> <r_mmod_Stretch_Energy-OPLS-2005>
36.4421806335449

> <r_mmod_Bend_Energy-OPLS-2005>
114.191497802734

> <r_mmod_Torsional_Energy-OPLS-2005>
194.150405883789

> <r_mmod_Improper_Torsional_Energy-OPLS-2005>
3.64264917373657

> <r_mmod_Van_der_Waal_Energy-OPLS-2005>
170.94416809082

> <r_mmod_Electrostatic_Energy-OPLS-2005>
-190.915802001953

> <r_mmod_Solvation_Energy-OPLS-2005>
-469.105773925781

> <b_mmod_Minimization_Converged-OPLS-2005>
0

> <r_mmod_RMS_Derivative-OPLS-2005>
2.41297626495361

$$$$
8
                    3D
 Structure written by MMmdl.
158166  0  0  1  0            999 V2000
  -30.6949  -14.6305   20.5890 C   0  0  0  0  0  0
  -30.4211  -12.4148   19.4677 C   0  0  0  0  0  0
  -29.5057  -12.5303   18.2286 C   0  0  0  0  0  0
  -28.0339  -12.3343   18.6367 C   0  0  0  0  0  0
  -27.6460  -13.2160   19.8541 C   0  0  2  0  0  0
  -28.6797  -13.0750   20.9890 C   0  0  0  0  0  0
  -25.2531  -13.8150   20.5645 C   0  0  0  0  0  0
  -24.1798  -13.0414   20.9134 C   0  0  0  0  0  0
  -24.6365  -11.6887   20.8701 C   0  0  0  0  0  0
  -23.9044  -10.4277   21.0395 C   0  0  0  0  0  0
  -24.3606   -9.4209   21.9185 C   0  0  0  0  0  0
  -23.6287   -8.2244   22.0769 C   0  0  0  0  0  0
  -22.4272   -8.0268   21.3559 C   0  0  0  0  0  0
  -21.9895   -9.0233   20.4652 C   0  0  0  0  0  0
  -22.7214  -10.2114   20.3056 C   0  0  0  0  0  0
  -21.6850   -6.0730   22.5274 C   0  0  0  0  0  0
  -21.4005   -6.5637   23.8207 C   0  0  0  0  0  0
  -21.3661   -5.6794   24.9165 C   0  0  0  0  0  0
  -21.6045   -4.3062   24.7217 C   0  0  0  0  0  0
  -21.8822   -3.8143   23.4342 C   0  0  0  0  0  0
  -21.9189   -4.6954   22.3394 C   0  0  0  0  0  0
  -22.7825  -13.5218   21.1804 C   0  0  0  0  0  0
  -22.1663   -4.2145   21.0978 F   0  0  0  0  0  0
  -21.5633   -3.4543   25.7732 F   0  0  0  0  0  0
  -29.9971  -13.4457   20.4478 N   0  0  0  0  0  0
  -26.2931  -12.9327   20.3225 N   0  0  0  0  0  0
  -25.9287  -11.6481   20.5681 N   0  0  0  0  0  0
  -22.0476  -12.8235   22.0366 N   0  0  0  0  0  0
  -25.4262  -15.1864   20.4123 N   0  0  0  0  0  0
  -31.8252  -14.7163   20.0963 O   0  0  0  0  0  0
  -21.6640   -6.8865   21.4241 O   0  0  0  0  0  0
  -22.3528  -14.5533   20.6642 O   0  0  0  0  0  0
  -24.6222  -31.8617   23.2067 C   0  0  0  0  0  0
  -25.9082  -32.4817   23.8367 C   0  0  1  0  0  0
  -27.1927  -27.3254   20.1074 C   0  0  0  0  0  0
  -25.5923  -33.8614   24.2300 N   0  0  0  0  0  0
  -23.4147  -30.4891   21.5520 C   0  0  2  0  0  0
  -24.8563  -28.9610   20.0998 C   0  0  0  0  0  0
  -22.7476  -29.4600   22.4952 C   0  0  0  0  0  0
  -18.0278  -28.1358   22.8496 C   0  0  0  0  0  0
  -24.1503  -36.7293   23.2622 C   0  0  0  0  0  0
  -25.9547  -30.7960   21.3761 C   0  0  0  0  0  0
  -26.0254  -29.4258   20.7172 C   0  0  0  0  0  0
  -27.1981  -28.6135   20.7238 C   0  0  0  0  0  0
  -26.0169  -26.9413   19.4222 C   0  0  0  0  0  0
  -24.8555  -27.7283   19.4397 C   0  0  0  0  0  0
  -23.6237  -29.8372   20.1619 C   0  0  0  0  0  0
  -25.4116  -36.3104   24.0339 C   0  0  1  0  0  0
  -20.5878  -28.3658   23.1290 C   0  0  2  0  0  0
  -20.6780  -26.9388   22.5399 C   0  0  0  0  0  0
  -19.5751  -26.6384   21.5202 C   0  0  0  0  0  0
  -18.1924  -26.7906   22.1614 C   0  0  0  0  0  0
  -19.1540  -28.8832   23.2869 C   0  0  0  0  0  0
  -18.9462  -30.1427   23.8892 C   0  0  0  0  0  0
  -17.6465  -30.6563   24.0586 C   0  0  0  0  0  0
  -25.9049  -34.9472   23.5117 C   0  0  0  0  0  0
  -16.5350  -29.9087   23.6313 C   0  0  0  0  0  0
  -16.7269  -28.6497   23.0352 C   0  0  0  0  0  0
  -26.4460  -31.6595   25.0721 C   0  0  0  0  0  0
  -25.3697  -31.3745   26.1464 C   0  0  0  0  0  0
  -27.0223  -30.3017   24.6093 C   0  0  0  0  0  0
  -27.6059  -32.4286   25.7464 C   0  0  0  0  0  0
  -27.5603  -37.1768   24.8447 C   0  0  0  0  0  0
  -21.4193  -29.3016   22.3717 N   0  0  0  0  0  0
  -26.4276  -37.3817   23.9454 N   0  0  0  0  0  0
  -24.6832  -31.0658   22.1012 N   0  0  0  0  0  0
  -23.4247  -28.8108   23.2966 O   0  0  0  0  0  0
  -28.2719  -26.4328   20.1973 O   0  0  0  0  0  0
  -26.5603  -34.8929   22.4670 O   0  0  0  0  0  0
  -23.5389  -32.1382   23.7422 O   0  0  0  0  0  0
  -30.5145  -19.6669   20.1613 C   0  0  0  0  0  0
  -29.9626  -20.9782   20.2434 C   0  0  0  0  0  0
  -28.6233  -18.7693   21.3114 C   0  0  0  0  0  0
  -29.8826  -18.5217   20.7139 C   0  0  0  0  0  0
  -28.7207  -21.2496   20.8793 C   0  0  0  0  0  0
  -28.0487  -20.0740   21.3718 C   0  0  0  0  0  0
  -27.1843  -22.8202   22.0600 C   0  0  0  0  0  0
  -29.5127  -15.8182   22.4032 C   0  0  0  0  0  0
  -30.6356  -17.1374   20.6406 C   0  0  0  0  0  0
  -28.8911  -23.8680   20.6167 C   0  0  0  0  0  0
  -27.9649  -24.9976   19.9937 C   0  0  0  0  0  0
  -28.1911  -22.5984   21.0113 N   0  0  0  0  0  0
  -30.0726  -15.7879   21.0464 N   0  0  0  0  0  0
  -26.8078  -20.1560   21.9145 F   0  0  0  0  0  0
  -31.4670  -12.5096   19.1700 H   0  0  0  0  0  0
  -30.3355  -11.4191   19.9067 H   0  0  0  0  0  0
  -29.7894  -11.7932   17.4755 H   0  0  0  0  0  0
  -29.6313  -13.5103   17.7657 H   0  0  0  0  0  0
  -27.8997  -11.2817   18.8884 H   0  0  0  0  0  0
  -27.3715  -12.5254   17.7921 H   0  0  0  0  0  0
  -27.6638  -14.2501   19.5108 H   0  0  0  0  0  0
  -28.6988  -12.0448   21.3466 H   0  0  0  0  0  0
  -28.3725  -13.6580   21.8509 H   0  0  0  0  0  0
  -25.2756   -9.5676   22.4755 H   0  0  0  0  0  0
  -23.9983   -7.4636   22.7505 H   0  0  0  0  0  0
  -21.0825   -8.8733   19.8965 H   0  0  0  0  0  0
  -22.3670  -10.9642   19.6155 H   0  0  0  0  0  0
  -21.2002   -7.6148   23.9698 H   0  0  0  0  0  0
  -21.1484   -6.0534   25.9071 H   0  0  0  0  0  0
  -22.0605   -2.7605   23.2837 H   0  0  0  0  0  0
  -22.4098  -11.9898   22.4758 H   0  0  0  0  0  0
  -21.1092  -13.1264   22.2559 H   0  0  0  0  0  0
  -24.6626  -15.8419   20.5372 H   0  0  0  0  0  0
  -26.2888  -15.6292   20.1206 H   0  0  0  0  0  0
  -26.7148  -32.5493   23.1104 H   0  0  0  0  0  0
  -25.0179  -33.9773   25.0526 H   0  0  0  0  0  0
  -22.7018  -31.3051   21.4169 H   0  0  0  0  0  0
  -23.3795  -35.9585   23.3229 H   0  0  0  0  0  0
  -24.3645  -36.8958   22.2051 H   0  0  0  0  0  0
  -23.7172  -37.6454   23.6656 H   0  0  0  0  0  0
  -26.0769  -31.5581   20.6057 H   0  0  0  0  0  0
  -26.8380  -30.8483   21.9985 H   0  0  0  0  0  0
  -28.0841  -28.9502   21.2434 H   0  0  0  0  0  0
  -25.9498  -26.0147   18.8713 H   0  0  0  0  0  0
  -23.9709  -27.3788   18.9275 H   0  0  0  0  0  0
  -23.7357  -30.6181   19.4089 H   0  0  0  0  0  0
  -22.7415  -29.2659   19.8684 H   0  0  0  0  0  0
  -25.1267  -36.1947   25.0825 H   0  0  0  0  0  0
  -20.9946  -28.3213   24.1418 H   0  0  0  0  0  0
  -20.5655  -26.2265   23.3589 H   0  0  0  0  0  0
  -21.6654  -26.7404   22.1191 H   0  0  0  0  0  0
  -19.6944  -25.6320   21.1177 H   0  0  0  0  0  0
  -19.6716  -27.3254   20.6781 H   0  0  0  0  0  0
  -17.4215  -26.6662   21.4005 H   0  0  0  0  0  0
  -18.0292  -26.0016   22.8966 H   0  0  0  0  0  0
  -19.7946  -30.7217   24.2266 H   0  0  0  0  0  0
  -17.5043  -31.6238   24.5198 H   0  0  0  0  0  0
  -15.5351  -30.3019   23.7629 H   0  0  0  0  0  0
  -15.8648  -28.0824   22.7071 H   0  0  0  0  0  0
  -24.5946  -30.6999   25.7826 H   0  0  0  0  0  0
  -24.8810  -32.2919   26.4774 H   0  0  0  0  0  0
  -25.8047  -30.9049   27.0302 H   0  0  0  0  0  0
  -26.2738  -29.6857   24.1098 H   0  0  0  0  0  0
  -27.3914  -29.7190   25.4525 H   0  0  0  0  0  0
  -27.8641  -30.4323   23.9285 H   0  0  0  0  0  0
  -27.2773  -33.3701   26.1880 H   0  0  0  0  0  0
  -28.3955  -32.6621   25.0315 H   0  0  0  0  0  0
  -28.0598  -31.8468   26.5497 H   0  0  0  0  0  0
  -28.2506  -38.0177   24.7638 H   0  0  0  0  0  0
  -28.1182  -36.2701   24.6046 H   0  0  0  0  0  0
  -27.2340  -37.1157   25.8844 H   0  0  0  0  0  0
  -20.9327  -29.8796   21.7012 H   0  0  0  0  0  0
  -26.0148  -38.2865   24.1562 H   0  0  0  0  0  0
  -31.4673  -19.5534   19.6616 H   0  0  0  0  0  0
  -30.5302  -21.7806   19.8004 H   0  0  0  0  0  0
  -28.0620  -17.9605   21.7495 H   0  0  0  0  0  0
  -26.1689  -22.7427   21.6634 H   0  0  0  0  0  0
  -27.2839  -23.8217   22.4848 H   0  0  0  0  0  0
  -27.2705  -22.1432   22.9098 H   0  0  0  0  0  0
  -28.4240  -15.8249   22.3668 H   0  0  0  0  0  0
  -29.8306  -16.7053   22.9534 H   0  0  0  0  0  0
  -29.8333  -14.9643   23.0029 H   0  0  0  0  0  0
  -31.5341  -17.2716   21.2476 H   0  0  0  0  0  0
  -31.0013  -17.0631   19.6151 H   0  0  0  0  0  0
  -29.3431  -24.2736   21.5247 H   0  0  0  0  0  0
  -29.7166  -23.6889   19.9312 H   0  0  0  0  0  0
  -26.9576  -24.7981   20.3627 H   0  0  0  0  0  0
  -27.9193  -24.8237   18.9175 H   0  0  0  0  0  0
  1 25  1  0  0  0
  1 30  2  0  0  0
  1 83  1  0  0  0
  2  3  1  0  0  0
  2 25  1  0  0  0
  2 85  1  0  0  0
  2 86  1  0  0  0
  3  4  1  0  0  0
  3 87  1  0  0  0
  3 88  1  0  0  0
  4  5  1  0  0  0
  4 89  1  0  0  0
  4 90  1  0  0  0
  5  6  1  0  0  0
  5 26  1  0  0  0
  5 91  1  0  0  0
  6 25  1  0  0  0
  6 92  1  0  0  0
  6 93  1  0  0  0
  7  8  2  0  0  0
  7 26  1  0  0  0
  7 29  1  0  0  0
  8  9  1  0  0  0
  8 22  1  0  0  0
  9 10  1  0  0  0
  9 27  2  0  0  0
 10 11  2  0  0  0
 10 15  1  0  0  0
 11 12  1  0  0  0
 11 94  1  0  0  0
 12 13  2  0  0  0
 12 95  1  0  0  0
 13 14  1  0  0  0
 13 31  1  0  0  0
 14 15  2  0  0  0
 14 96  1  0  0  0
 15 97  1  0  0  0
 16 17  2  0  0  0
 16 21  1  0  0  0
 16 31  1  0  0  0
 17 18  1  0  0  0
 17 98  1  0  0  0
 18 19  2  0  0  0
 18 99  1  0  0  0
 19 20  1  0  0  0
 19 24  1  0  0  0
 20 21  2  0  0  0
 20100  1  0  0  0
 21 23  1  0  0  0
 22 28  1  0  0  0
 22 32  2  0  0  0
 26 27  1  0  0  0
 28101  1  0  0  0
 28102  1  0  0  0
 29103  1  0  0  0
 29104  1  0  0  0
 33 34  1  0  0  0
 33 66  1  0  0  0
 33 70  2  0  0  0
 34 36  1  0  0  0
 34 59  1  0  0  0
 34105  1  0  0  0
 35 44  2  0  0  0
 35 45  1  0  0  0
 35 68  1  0  0  0
 36 56  1  0  0  0
 36106  1  0  0  0
 37 39  1  0  0  0
 37 47  1  0  0  0
 37 66  1  0  0  0
 37107  1  0  0  0
 38 43  2  0  0  0
 38 46  1  0  0  0
 38 47  1  0  0  0
 39 64  1  0  0  0
 39 67  2  0  0  0
 40 52  1  0  0  0
 40 53  2  0  0  0
 40 58  1  0  0  0
 41108  1  0  0  0
 41109  1  0  0  0
 41110  1  0  0  0
 41 48  1  0  0  0
 42 43  1  0  0  0
 42 66  1  0  0  0
 42111  1  0  0  0
 42112  1  0  0  0
 43 44  1  0  0  0
 44113  1  0  0  0
 45 46  2  0  0  0
 45114  1  0  0  0
 46115  1  0  0  0
 47116  1  0  0  0
 47117  1  0  0  0
 48 56  1  0  0  0
 48 65  1  0  0  0
 48118  1  0  0  0
 49 50  1  0  0  0
 49 53  1  0  0  0
 49 64  1  0  0  0
 49119  1  0  0  0
 50 51  1  0  0  0
 50120  1  0  0  0
 50121  1  0  0  0
 51 52  1  0  0  0
 51122  1  0  0  0
 51123  1  0  0  0
 52124  1  0  0  0
 52125  1  0  0  0
 53 54  1  0  0  0
 54 55  2  0  0  0
 54126  1  0  0  0
 55 57  1  0  0  0
 55127  1  0  0  0
 56 69  2  0  0  0
 57 58  2  0  0  0
 57128  1  0  0  0
 58129  1  0  0  0
 59 60  1  0  0  0
 59 61  1  0  0  0
 59 62  1  0  0  0
 60130  1  0  0  0
 60131  1  0  0  0
 60132  1  0  0  0
 61133  1  0  0  0
 61134  1  0  0  0
 61135  1  0  0  0
 62136  1  0  0  0
 62137  1  0  0  0
 62138  1  0  0  0
 63 65  1  0  0  0
 63139  1  0  0  0
 63140  1  0  0  0
 63141  1  0  0  0
 64142  1  0  0  0
 65143  1  0  0  0
 68 81  1  0  0  0
 71 72  2  0  0  0
 71 74  1  0  0  0
 71144  1  0  0  0
 72 75  1  0  0  0
 72145  1  0  0  0
 73 74  2  0  0  0
 73 76  1  0  0  0
 73146  1  0  0  0
 74 79  1  0  0  0
 75 76  2  0  0  0
 75 82  1  0  0  0
 76 84  1  0  0  0
 77 82  1  0  0  0
 77147  1  0  0  0
 77148  1  0  0  0
 77149  1  0  0  0
 78 83  1  0  0  0
 78150  1  0  0  0
 78151  1  0  0  0
 78152  1  0  0  0
 79 83  1  0  0  0
 79153  1  0  0  0
 79154  1  0  0  0
 80 81  1  0  0  0
 80 82  1  0  0  0
 80155  1  0  0  0
 80156  1  0  0  0
 81157  1  0  0  0
 81158  1  0  0  0
M  ISO  4   1 100  68 101  81 101  83 100
M  END
> <chiral flag>
0

> <version>
0

> <s_m_source_file>
/data/baiqing/PycharmProjects/Reinvent-master-3.2/result/LINK_invent/BTK/process_docking_weight1_custom_product_contain_oxygen_bond_distance_aromatic_linkinvent_7_9_3/rearranged_h_0016.sdf

> <i_m_source_file_index>
9

> <r_mmod_Potential_Energy-OPLS-2005>
282.087982177734

> <r_mmod_Stretch_Energy-OPLS-2005>
90.8793334960938

> <r_mmod_Bend_Energy-OPLS-2005>
177.44465637207

> <r_mmod_Torsional_Energy-OPLS-2005>
238.673614501953

> <r_mmod_Improper_Torsional_Energy-OPLS-2005>
9.91357612609863

> <r_mmod_Van_der_Waal_Energy-OPLS-2005>
179.141708374023

> <r_mmod_Electrostatic_Energy-OPLS-2005>
-257.315521240234

> <r_mmod_Solvation_Energy-OPLS-2005>
-207.741561889648

> <b_mmod_Minimization_Converged-OPLS-2005>
0

> <r_mmod_RMS_Derivative-OPLS-2005>
4.32430124282837

$$$$
9
                    3D
 Structure written by MMmdl.
178186  0  0  1  0            999 V2000
  -30.7807  -14.2857   20.7620 C   0  0  0  0  0  0
  -30.4322  -12.2862   19.3522 C   0  0  0  0  0  0
  -29.4775  -12.5520   18.1725 C   0  0  0  0  0  0
  -28.0009  -12.4120   18.5960 C   0  0  0  0  0  0
  -27.6829  -13.1825   19.9042 C   0  0  2  0  0  0
  -28.7299  -12.8113   20.9801 C   0  0  0  0  0  0
  -25.2707  -13.8149   20.5732 C   0  0  0  0  0  0
  -24.1914  -13.0463   20.9184 C   0  0  0  0  0  0
  -24.6420  -11.6894   20.8756 C   0  0  0  0  0  0
  -23.9088  -10.4292   21.0405 C   0  0  0  0  0  0
  -24.3632   -9.4199   21.9180 C   0  0  0  0  0  0
  -23.6297   -8.2256   22.0766 C   0  0  0  0  0  0
  -22.4276   -8.0283   21.3566 C   0  0  0  0  0  0
  -21.9912   -9.0281   20.4679 C   0  0  0  0  0  0
  -22.7257  -10.2133   20.3067 C   0  0  0  0  0  0
  -21.6836   -6.0741   22.5300 C   0  0  0  0  0  0
  -21.4020   -6.5660   23.8224 C   0  0  0  0  0  0
  -21.3665   -5.6795   24.9198 C   0  0  0  0  0  0
  -21.6043   -4.3069   24.7220 C   0  0  0  0  0  0
  -21.8815   -3.8151   23.4353 C   0  0  0  0  0  0
  -21.9199   -4.6989   22.3396 C   0  0  0  0  0  0
  -22.7939  -13.5270   21.1815 C   0  0  0  0  0  0
  -22.1648   -4.2166   21.0984 F   0  0  0  0  0  0
  -21.5631   -3.4542   25.7740 F   0  0  0  0  0  0
  -30.0608  -13.1712   20.4653 N   0  0  0  0  0  0
  -26.3155  -12.9264   20.3535 N   0  0  0  0  0  0
  -25.9339  -11.6447   20.5814 N   0  0  0  0  0  0
  -22.0560  -12.8274   22.0375 N   0  0  0  0  0  0
  -25.4432  -15.1856   20.4097 N   0  0  0  0  0  0
  -31.7611  -14.6363   20.0896 O   0  0  0  0  0  0
  -21.6635   -6.8894   21.4249 O   0  0  0  0  0  0
  -22.3625  -14.5578   20.6644 O   0  0  0  0  0  0
  -24.6154  -31.8718   23.2237 C   0  0  0  0  0  0
  -25.9059  -32.4849   23.8486 C   0  0  1  0  0  0
  -27.2118  -27.4480   20.0388 C   0  0  0  0  0  0
  -25.5965  -33.8654   24.2415 N   0  0  0  0  0  0
  -23.4009  -30.5082   21.5652 C   0  0  2  0  0  0
  -24.8382  -28.9894   20.1197 C   0  0  0  0  0  0
  -22.7421  -29.4680   22.4994 C   0  0  0  0  0  0
  -18.0269  -28.1347   22.8502 C   0  0  0  0  0  0
  -24.1484  -36.7325   23.2642 C   0  0  0  0  0  0
  -25.9380  -30.8241   21.3906 C   0  0  0  0  0  0
  -26.0038  -29.4620   20.7363 C   0  0  0  0  0  0
  -27.1855  -28.6833   20.7262 C   0  0  0  0  0  0
  -26.0464  -27.0572   19.3395 C   0  0  0  0  0  0
  -24.8493  -27.7703   19.4361 C   0  0  0  0  0  0
  -23.6107  -29.8624   20.1741 C   0  0  0  0  0  0
  -25.4099  -36.3131   24.0367 C   0  0  1  0  0  0
  -20.5864  -28.3636   23.1315 C   0  0  2  0  0  0
  -20.6757  -26.9360   22.5420 C   0  0  0  0  0  0
  -19.5736  -26.6360   21.5205 C   0  0  0  0  0  0
  -18.1919  -26.7909   22.1618 C   0  0  0  0  0  0
  -19.1525  -28.8809   23.2921 C   0  0  0  0  0  0
  -18.9454  -30.1419   23.8933 C   0  0  0  0  0  0
  -17.6461  -30.6576   24.0559 C   0  0  0  0  0  0
  -25.9033  -34.9489   23.5159 C   0  0  0  0  0  0
  -16.5344  -29.9080   23.6309 C   0  0  0  0  0  0
  -16.7258  -28.6481   23.0355 C   0  0  0  0  0  0
  -26.4483  -31.6617   25.0801 C   0  0  0  0  0  0
  -25.3768  -31.3725   26.1564 C   0  0  0  0  0  0
  -27.0327  -30.3067   24.6182 C   0  0  0  0  0  0
  -27.6063  -32.4338   25.7551 C   0  0  0  0  0  0
  -27.5582  -37.1823   24.8472 C   0  0  0  0  0  0
  -21.4149  -29.3044   22.3758 N   0  0  0  0  0  0
  -26.4286  -37.3817   23.9426 N   0  0  0  0  0  0
  -24.6704  -31.0810   22.1165 N   0  0  0  0  0  0
  -23.4222  -28.8154   23.2961 O   0  0  0  0  0  0
  -28.3536  -26.6714   20.0522 O   0  0  0  0  0  0
  -26.5556  -34.8911   22.4686 O   0  0  0  0  0  0
  -23.5356  -32.1482   23.7624 O   0  0  0  0  0  0
  -26.9898  -21.6052   23.8717 C   0  0  0  0  0  0
  -26.6032  -22.5606   22.9128 C   0  0  0  0  0  0
  -25.4289  -20.8286   21.6757 C   0  0  0  0  0  0
  -26.6587  -20.2459   23.6943 C   0  0  0  0  0  0
  -25.8685  -22.1620   21.7757 C   0  0  0  0  0  0
  -25.7997  -19.8766   22.6373 C   0  0  0  0  0  0
  -31.4497  -14.9924   24.3829 C   0  0  0  0  0  0
  -29.7422  -17.4669   20.6686 C   0  0  0  0  0  0
  -29.6090  -19.6792   23.8730 C   0  0  0  0  0  0
  -27.2960  -19.1851   24.5876 C   0  0  0  0  0  0
  -27.6876  -24.2082   20.2799 C   0  0  0  0  0  0
  -31.7551  -14.9794   22.8724 C   0  0  0  0  0  0
  -29.3744  -15.5887   22.3364 C   0  0  0  0  0  0
  -28.3220  -17.8744   22.7416 C   0  0  0  0  0  0
  -28.3128  -25.3655   19.4449 C   0  0  0  0  0  0
  -26.1664  -24.2606   20.6077 C   0  0  0  0  0  0
  -29.5470  -17.1101   22.1563 C   0  0  2  0  0  0
  -30.5774  -14.7926   22.0031 N   0  0  0  0  0  0
  -28.5588  -18.6360   24.0077 N   0  3  1  0  0  0
  -25.5529  -22.9860   20.7282 O   0  0  0  0  0  0
  -25.4064  -18.5890   22.4877 F   0  0  0  0  0  0
  -31.4707  -12.4121   19.0356 H   0  0  0  0  0  0
  -30.3621  -11.2459   19.6672 H   0  0  0  0  0  0
  -29.6959  -11.8765   17.3433 H   0  0  0  0  0  0
  -29.6501  -13.5605   17.7921 H   0  0  0  0  0  0
  -27.7764  -11.3514   18.7163 H   0  0  0  0  0  0
  -27.3529  -12.7626   17.7945 H   0  0  0  0  0  0
  -27.7662  -14.2459   19.6835 H   0  0  0  0  0  0
  -28.7035  -11.7320   21.1305 H   0  0  0  0  0  0
  -28.5008  -13.2054   21.9665 H   0  0  0  0  0  0
  -25.2769   -9.5683   22.4763 H   0  0  0  0  0  0
  -24.0009   -7.4642   22.7475 H   0  0  0  0  0  0
  -21.0846   -8.8829   19.8966 H   0  0  0  0  0  0
  -22.3743  -10.9699   19.6189 H   0  0  0  0  0  0
  -21.2005   -7.6161   23.9752 H   0  0  0  0  0  0
  -21.1488   -6.0519   25.9099 H   0  0  0  0  0  0
  -22.0582   -2.7619   23.2846 H   0  0  0  0  0  0
  -22.4100  -11.9893   22.4764 H   0  0  0  0  0  0
  -21.1202  -13.1349   22.2586 H   0  0  0  0  0  0
  -24.6756  -15.8386   20.5291 H   0  0  0  0  0  0
  -26.2887  -15.6251   20.0711 H   0  0  0  0  0  0
  -26.7122  -32.5536   23.1241 H   0  0  0  0  0  0
  -25.0198  -33.9826   25.0618 H   0  0  0  0  0  0
  -22.6894  -31.3274   21.4371 H   0  0  0  0  0  0
  -23.3746  -35.9660   23.3317 H   0  0  0  0  0  0
  -24.3580  -36.8905   22.2051 H   0  0  0  0  0  0
  -23.7213  -37.6543   23.6611 H   0  0  0  0  0  0
  -26.0614  -31.5880   20.6225 H   0  0  0  0  0  0
  -26.8236  -30.8730   22.0121 H   0  0  0  0  0  0
  -28.0717  -29.0251   21.2425 H   0  0  0  0  0  0
  -26.0308  -26.2211   18.6687 H   0  0  0  0  0  0
  -23.9634  -27.4172   18.9249 H   0  0  0  0  0  0
  -23.7435  -30.6489   19.4317 H   0  0  0  0  0  0
  -22.7299  -29.3070   19.8513 H   0  0  0  0  0  0
  -25.1250  -36.2038   25.0872 H   0  0  0  0  0  0
  -20.9964  -28.3169   24.1432 H   0  0  0  0  0  0
  -20.5636  -26.2224   23.3595 H   0  0  0  0  0  0
  -21.6619  -26.7392   22.1210 H   0  0  0  0  0  0
  -19.6885  -25.6278   21.1216 H   0  0  0  0  0  0
  -19.6680  -27.3180   20.6743 H   0  0  0  0  0  0
  -17.4186  -26.6677   21.4022 H   0  0  0  0  0  0
  -18.0317  -26.0035   22.8994 H   0  0  0  0  0  0
  -19.7931  -30.7218   24.2334 H   0  0  0  0  0  0
  -17.5012  -31.6254   24.5144 H   0  0  0  0  0  0
  -15.5351  -30.2994   23.7609 H   0  0  0  0  0  0
  -15.8653  -28.0802   22.7066 H   0  0  0  0  0  0
  -24.5928  -30.7075   25.7920 H   0  0  0  0  0  0
  -24.8978  -32.2891   26.5036 H   0  0  0  0  0  0
  -25.8154  -30.8894   27.0304 H   0  0  0  0  0  0
  -26.2884  -29.6841   24.1212 H   0  0  0  0  0  0
  -27.4078  -29.7299   25.4644 H   0  0  0  0  0  0
  -27.8733  -30.4410   23.9368 H   0  0  0  0  0  0
  -27.2682  -33.3615   26.2181 H   0  0  0  0  0  0
  -28.3850  -32.6937   25.0369 H   0  0  0  0  0  0
  -28.0759  -31.8436   26.5435 H   0  0  0  0  0  0
  -28.2614  -38.0108   24.7505 H   0  0  0  0  0  0
  -28.1065  -36.2638   24.6307 H   0  0  0  0  0  0
  -27.2306  -37.1489   25.8880 H   0  0  0  0  0  0
  -20.9273  -29.8897   21.7103 H   0  0  0  0  0  0
  -26.0196  -38.2915   24.1412 H   0  0  0  0  0  0
  -27.5795  -21.9139   24.7232 H   0  0  0  0  0  0
  -26.9043  -23.5877   23.0493 H   0  0  0  0  0  0
  -24.8509  -20.5112   20.8200 H   0  0  0  0  0  0
  -32.3793  -15.0763   24.9468 H   0  0  0  0  0  0
  -30.9705  -14.0665   24.6920 H   0  0  0  0  0  0
  -30.8147  -15.8243   24.6932 H   0  0  0  0  0  0
  -29.8212  -18.5424   20.5184 H   0  0  0  0  0  0
  -28.9002  -17.1182   20.0737 H   0  0  0  0  0  0
  -30.6501  -17.0376   20.2443 H   0  0  0  0  0  0
  -29.6795  -20.2869   24.7737 H   0  0  0  0  0  0
  -29.3993  -20.3529   23.0394 H   0  0  0  0  0  0
  -30.5929  -19.2519   23.7026 H   0  0  0  0  0  0
  -26.5895  -18.3732   24.7698 H   0  0  0  0  0  0
  -27.5020  -19.6267   25.5660 H   0  0  0  0  0  0
  -28.2717  -24.0721   21.1894 H   0  0  0  0  0  0
  -27.8559  -23.2987   19.7011 H   0  0  0  0  0  0
  -32.4474  -14.1535   22.6996 H   0  0  0  0  0  0
  -32.3036  -15.8735   22.5745 H   0  0  0  0  0  0
  -29.0512  -15.3535   23.3500 H   0  0  0  0  0  0
  -28.5290  -15.3140   21.7076 H   0  0  0  0  0  0
  -27.9539  -18.5641   21.9785 H   0  0  0  0  0  0
  -27.5051  -17.1654   22.9142 H   0  0  0  0  0  0
  -27.9062  -25.3896   18.4340 H   0  0  0  0  0  0
  -29.3558  -25.1024   19.2737 H   0  0  0  0  0  0
  -25.5928  -24.6338   19.7712 H   0  0  0  0  0  0
  -25.9285  -24.9151   21.4471 H   0  0  0  0  0  0
  -30.4652  -17.3897   22.6622 H   0  0  0  0  0  0
  -28.8901  -17.9742   24.6959 H   0  0  0  0  0  0
  1 25  1  0  0  0
  1 30  2  0  0  0
  1 88  1  0  0  0
  2  3  1  0  0  0
  2 25  1  0  0  0
  2 92  1  0  0  0
  2 93  1  0  0  0
  3  4  1  0  0  0
  3 94  1  0  0  0
  3 95  1  0  0  0
  4  5  1  0  0  0
  4 96  1  0  0  0
  4 97  1  0  0  0
  5  6  1  0  0  0
  5 26  1  0  0  0
  5 98  1  0  0  0
  6 25  1  0  0  0
  6 99  1  0  0  0
  6100  1  0  0  0
  7  8  2  0  0  0
  7 26  1  0  0  0
  7 29  1  0  0  0
  8  9  1  0  0  0
  8 22  1  0  0  0
  9 10  1  0  0  0
  9 27  2  0  0  0
 10 11  2  0  0  0
 10 15  1  0  0  0
 11 12  1  0  0  0
 11101  1  0  0  0
 12 13  2  0  0  0
 12102  1  0  0  0
 13 14  1  0  0  0
 13 31  1  0  0  0
 14 15  2  0  0  0
 14103  1  0  0  0
 15104  1  0  0  0
 16 17  2  0  0  0
 16 21  1  0  0  0
 16 31  1  0  0  0
 17 18  1  0  0  0
 17105  1  0  0  0
 18 19  2  0  0  0
 18106  1  0  0  0
 19 20  1  0  0  0
 19 24  1  0  0  0
 20 21  2  0  0  0
 20107  1  0  0  0
 21 23  1  0  0  0
 22 28  1  0  0  0
 22 32  2  0  0  0
 26 27  1  0  0  0
 28108  1  0  0  0
 28109  1  0  0  0
 29110  1  0  0  0
 29111  1  0  0  0
 33 34  1  0  0  0
 33 66  1  0  0  0
 33 70  2  0  0  0
 34 36  1  0  0  0
 34 59  1  0  0  0
 34112  1  0  0  0
 35 44  2  0  0  0
 35 45  1  0  0  0
 35 68  1  0  0  0
 36 56  1  0  0  0
 36113  1  0  0  0
 37 39  1  0  0  0
 37 47  1  0  0  0
 37 66  1  0  0  0
 37114  1  0  0  0
 38 43  2  0  0  0
 38 46  1  0  0  0
 38 47  1  0  0  0
 39 64  1  0  0  0
 39 67  2  0  0  0
 40 52  1  0  0  0
 40 53  2  0  0  0
 40 58  1  0  0  0
 41115  1  0  0  0
 41116  1  0  0  0
 41117  1  0  0  0
 41 48  1  0  0  0
 42 43  1  0  0  0
 42 66  1  0  0  0
 42118  1  0  0  0
 42119  1  0  0  0
 43 44  1  0  0  0
 44120  1  0  0  0
 45 46  2  0  0  0
 45121  1  0  0  0
 46122  1  0  0  0
 47123  1  0  0  0
 47124  1  0  0  0
 48 56  1  0  0  0
 48 65  1  0  0  0
 48125  1  0  0  0
 49 50  1  0  0  0
 49 53  1  0  0  0
 49 64  1  0  0  0
 49126  1  0  0  0
 50 51  1  0  0  0
 50127  1  0  0  0
 50128  1  0  0  0
 51 52  1  0  0  0
 51129  1  0  0  0
 51130  1  0  0  0
 52131  1  0  0  0
 52132  1  0  0  0
 53 54  1  0  0  0
 54 55  2  0  0  0
 54133  1  0  0  0
 55 57  1  0  0  0
 55134  1  0  0  0
 56 69  2  0  0  0
 57 58  2  0  0  0
 57135  1  0  0  0
 58136  1  0  0  0
 59 60  1  0  0  0
 59 61  1  0  0  0
 59 62  1  0  0  0
 60137  1  0  0  0
 60138  1  0  0  0
 60139  1  0  0  0
 61140  1  0  0  0
 61141  1  0  0  0
 61142  1  0  0  0
 62143  1  0  0  0
 62144  1  0  0  0
 62145  1  0  0  0
 63 65  1  0  0  0
 63146  1  0  0  0
 63147  1  0  0  0
 63148  1  0  0  0
 64149  1  0  0  0
 65150  1  0  0  0
 68 85  1  0  0  0
 71 72  2  0  0  0
 71 74  1  0  0  0
 71151  1  0  0  0
 72 75  1  0  0  0
 72152  1  0  0  0
 73 75  2  0  0  0
 73 76  1  0  0  0
 73153  1  0  0  0
 74 76  2  0  0  0
 74 80  1  0  0  0
 75 90  1  0  0  0
 76 91  1  0  0  0
 77 82  1  0  0  0
 77154  1  0  0  0
 77155  1  0  0  0
 77156  1  0  0  0
 78157  1  0  0  0
 78158  1  0  0  0
 78159  1  0  0  0
 78 87  1  0  0  0
 79160  1  0  0  0
 79161  1  0  0  0
 79162  1  0  0  0
 79 89  1  0  0  0
 80 89  1  0  0  0
 80163  1  0  0  0
 80164  1  0  0  0
 81 85  1  0  0  0
 81 86  1  0  0  0
 81165  1  0  0  0
 81166  1  0  0  0
 82 88  1  0  0  0
 82167  1  0  0  0
 82168  1  0  0  0
 83 87  1  0  0  0
 83 88  1  0  0  0
 83169  1  0  0  0
 83170  1  0  0  0
 84 87  1  0  0  0
 84 89  1  0  0  0
 84171  1  0  0  0
 84172  1  0  0  0
 85173  1  0  0  0
 85174  1  0  0  0
 86 90  1  0  0  0
 86175  1  0  0  0
 86176  1  0  0  0
 87177  1  0  0  0
 89178  1  0  0  0
M  CHG  1  89   1
M  ISO  4   1 100  68 101  85 101  88 100
M  END
> <chiral flag>
0

> <version>
0

> <s_m_source_file>
/data/baiqing/PycharmProjects/Reinvent-master-3.2/result/LINK_invent/BTK/process_docking_weight1_custom_product_contain_oxygen_bond_distance_aromatic_linkinvent_7_9_3/rearranged_h_0016.sdf

> <i_m_source_file_index>
10

> <r_mmod_Potential_Energy-OPLS-2005>
74.9052200317383

> <r_mmod_Stretch_Energy-OPLS-2005>
40.9920043945312

> <r_mmod_Bend_Energy-OPLS-2005>
136.159118652344

> <r_mmod_Torsional_Energy-OPLS-2005>
310.425445556641

> <r_mmod_Improper_Torsional_Energy-OPLS-2005>
9.65468311309814

> <r_mmod_Van_der_Waal_Energy-OPLS-2005>
184.17724609375

> <r_mmod_Electrostatic_Energy-OPLS-2005>
-200.090103149414

> <r_mmod_Solvation_Energy-OPLS-2005>
-425.779663085938

> <b_mmod_Minimization_Converged-OPLS-2005>
0

> <r_mmod_RMS_Derivative-OPLS-2005>
5.51669406890869

$$$$
10
                    3D
 Structure written by MMmdl.
161169  0  0  1  0            999 V2000
  -30.7328  -14.4944   20.5791 C   0  0  0  0  0  0
  -30.4121  -12.3290   19.4233 C   0  0  0  0  0  0
  -29.4837  -12.4971   18.2050 C   0  0  0  0  0  0
  -28.0095  -12.3431   18.6245 C   0  0  0  0  0  0
  -27.6493  -13.1979   19.8670 C   0  0  2  0  0  0
  -28.6990  -13.0318   20.9913 C   0  0  0  0  0  0
  -25.2551  -13.8121   20.5696 C   0  0  0  0  0  0
  -24.1807  -13.0405   20.9215 C   0  0  0  0  0  0
  -24.6354  -11.6879   20.8763 C   0  0  0  0  0  0
  -23.9015  -10.4273   21.0419 C   0  0  0  0  0  0
  -24.3575   -9.4197   21.9200 C   0  0  0  0  0  0
  -23.6261   -8.2226   22.0764 C   0  0  0  0  0  0
  -22.4248   -8.0259   21.3548 C   0  0  0  0  0  0
  -21.9880   -9.0230   20.4649 C   0  0  0  0  0  0
  -22.7192  -10.2118   20.3060 C   0  0  0  0  0  0
  -21.6842   -6.0716   22.5280 C   0  0  0  0  0  0
  -21.4006   -6.5630   23.8213 C   0  0  0  0  0  0
  -21.3662   -5.6788   24.9181 C   0  0  0  0  0  0
  -21.6049   -4.3051   24.7236 C   0  0  0  0  0  0
  -21.8822   -3.8136   23.4360 C   0  0  0  0  0  0
  -21.9190   -4.6945   22.3412 C   0  0  0  0  0  0
  -22.7842  -13.5218   21.1872 C   0  0  0  0  0  0
  -22.1659   -4.2126   21.0989 F   0  0  0  0  0  0
  -21.5636   -3.4541   25.7752 F   0  0  0  0  0  0
  -30.0242  -13.3362   20.4270 N   0  0  0  0  0  0
  -26.2959  -12.9266   20.3366 N   0  0  0  0  0  0
  -25.9274  -11.6442   20.5791 N   0  0  0  0  0  0
  -22.0481  -12.8203   22.0422 N   0  0  0  0  0  0
  -25.4239  -15.1835   20.4061 N   0  0  0  0  0  0
  -31.8644  -14.6335   20.1037 O   0  0  0  0  0  0
  -21.6624   -6.8850   21.4235 O   0  0  0  0  0  0
  -22.3545  -14.5534   20.6732 O   0  0  0  0  0  0
  -24.6149  -31.8679   23.2098 C   0  0  0  0  0  0
  -25.9040  -32.4818   23.8401 C   0  0  1  0  0  0
  -27.2360  -27.4238   20.0891 C   0  0  0  0  0  0
  -25.5893  -33.8616   24.2333 N   0  0  0  0  0  0
  -23.4027  -30.4913   21.5507 C   0  0  2  0  0  0
  -24.8462  -28.9531   20.1175 C   0  0  0  0  0  0
  -22.7405  -29.4661   22.4994 C   0  0  0  0  0  0
  -18.0273  -28.1381   22.8484 C   0  0  0  0  0  0
  -24.1480  -36.7308   23.2649 C   0  0  0  0  0  0
  -25.9325  -30.8283   21.3650 C   0  0  0  0  0  0
  -26.0069  -29.4610   20.7129 C   0  0  0  0  0  0
  -27.2005  -28.7026   20.6959 C   0  0  0  0  0  0
  -26.0484  -26.9257   19.5031 C   0  0  0  0  0  0
  -24.8616  -27.6839   19.5143 C   0  0  0  0  0  0
  -23.6110  -29.8244   20.1649 C   0  0  0  0  0  0
  -25.4105  -36.3105   24.0342 C   0  0  1  0  0  0
  -20.5865  -28.3664   23.1309 C   0  0  2  0  0  0
  -20.6769  -26.9407   22.5407 C   0  0  0  0  0  0
  -19.5745  -26.6391   21.5196 C   0  0  0  0  0  0
  -18.1920  -26.7928   22.1616 C   0  0  0  0  0  0
  -19.1524  -28.8835   23.2894 C   0  0  0  0  0  0
  -18.9454  -30.1440   23.8905 C   0  0  0  0  0  0
  -17.6462  -30.6588   24.0560 C   0  0  0  0  0  0
  -25.9036  -34.9469   23.5139 C   0  0  0  0  0  0
  -16.5347  -29.9096   23.6323 C   0  0  0  0  0  0
  -16.7265  -28.6512   23.0341 C   0  0  0  0  0  0
  -26.4482  -31.6600   25.0726 C   0  0  0  0  0  0
  -25.3752  -31.3645   26.1468 C   0  0  0  0  0  0
  -27.0369  -30.3073   24.6095 C   0  0  0  0  0  0
  -27.6056  -32.4341   25.7482 C   0  0  0  0  0  0
  -27.5577  -37.1803   24.8480 C   0  0  0  0  0  0
  -21.4138  -29.3028   22.3709 N   0  0  0  0  0  0
  -26.4294  -37.3792   23.9419 N   0  0  0  0  0  0
  -24.6685  -31.0773   22.0998 N   0  0  0  0  0  0
  -23.4164  -28.8228   23.3062 O   0  0  0  0  0  0
  -28.4334  -26.7290   20.0924 O   0  0  0  0  0  0
  -26.5607  -34.8921   22.4707 O   0  0  0  0  0  0
  -23.5336  -32.1454   23.7473 O   0  0  0  0  0  0
  -28.6219  -18.6799   21.6382 C   0  0  0  0  0  0
  -28.6994  -20.0880   21.5258 C   0  0  0  0  0  0
  -29.9466  -18.4476   19.6228 C   0  0  0  0  0  0
  -29.2393  -17.8411   20.6848 C   0  0  0  0  0  0
  -29.4020  -20.7058   20.4653 C   0  0  0  0  0  0
  -30.0274  -19.8559   19.5083 C   0  0  0  0  0  0
  -30.7266  -22.7105   19.9639 C   0  0  0  0  0  0
  -30.9986  -16.1860   22.3041 C   0  0  0  0  0  0
  -29.0650  -16.3121   20.7539 C   0  0  0  0  0  0
  -28.1228  -24.2983   20.5862 C   0  0  0  0  0  0
  -28.2138  -22.8277   20.0777 C   0  0  0  0  0  0
  -28.5264  -25.3933   19.5628 C   0  0  0  0  0  0
  -29.4644  -22.1266   20.4126 N   0  0  0  0  0  0
  -30.1735  -15.4982   21.3062 N   0  0  0  0  0  0
  -30.6938  -20.3766   18.4482 F   0  0  0  0  0  0
  -31.4553  -12.4192   19.1148 H   0  0  0  0  0  0
  -30.3125  -11.3273   19.8446 H   0  0  0  0  0  0
  -29.7303  -11.7605   17.4396 H   0  0  0  0  0  0
  -29.6387  -13.4772   17.7503 H   0  0  0  0  0  0
  -27.8343  -11.2876   18.8360 H   0  0  0  0  0  0
  -27.3521  -12.5985   17.7924 H   0  0  0  0  0  0
  -27.6607  -14.2280   19.5273 H   0  0  0  0  0  0
  -28.6910  -12.0103   21.3741 H   0  0  0  0  0  0
  -28.4560  -13.6659   21.8448 H   0  0  0  0  0  0
  -25.2715   -9.5696   22.4780 H   0  0  0  0  0  0
  -23.9982   -7.4627   22.7487 H   0  0  0  0  0  0
  -21.0817   -8.8727   19.8953 H   0  0  0  0  0  0
  -22.3631  -10.9654   19.6173 H   0  0  0  0  0  0
  -21.1986   -7.6141   23.9700 H   0  0  0  0  0  0
  -21.1487   -6.0528   25.9079 H   0  0  0  0  0  0
  -22.0597   -2.7593   23.2869 H   0  0  0  0  0  0
  -22.4087  -11.9844   22.4779 H   0  0  0  0  0  0
  -21.1108  -13.1239   22.2644 H   0  0  0  0  0  0
  -24.6496  -15.8313   20.5059 H   0  0  0  0  0  0
  -26.2603  -15.6222   20.0453 H   0  0  0  0  0  0
  -26.7112  -32.5522   23.1168 H   0  0  0  0  0  0
  -25.0018  -33.9779   25.0459 H   0  0  0  0  0  0
  -22.6906  -31.3078   21.4124 H   0  0  0  0  0  0
  -23.3746  -35.9640   23.3317 H   0  0  0  0  0  0
  -24.3568  -36.8931   22.2070 H   0  0  0  0  0  0
  -23.7225  -37.6503   23.6677 H   0  0  0  0  0  0
  -26.0483  -31.5924   20.5951 H   0  0  0  0  0  0
  -26.8198  -30.8817   21.9836 H   0  0  0  0  0  0
  -28.0998  -29.0954   21.1510 H   0  0  0  0  0  0
  -26.0098  -25.9556   19.0329 H   0  0  0  0  0  0
  -23.9673  -27.2819   19.0580 H   0  0  0  0  0  0
  -23.7258  -30.6011   19.4075 H   0  0  0  0  0  0
  -22.7338  -29.2486   19.8668 H   0  0  0  0  0  0
  -25.1274  -36.1977   25.0837 H   0  0  0  0  0  0
  -20.9944  -28.3246   24.1439 H   0  0  0  0  0  0
  -20.5698  -26.2268   23.3587 H   0  0  0  0  0  0
  -21.6641  -26.7474   22.1185 H   0  0  0  0  0  0
  -19.6903  -25.6303   21.1225 H   0  0  0  0  0  0
  -19.6678  -27.3197   20.6729 H   0  0  0  0  0  0
  -17.4187  -26.6661   21.4023 H   0  0  0  0  0  0
  -18.0335  -26.0072   22.9019 H   0  0  0  0  0  0
  -19.7931  -30.7238   24.2288 H   0  0  0  0  0  0
  -17.5028  -31.6272   24.5161 H   0  0  0  0  0  0
  -15.5350  -30.3008   23.7641 H   0  0  0  0  0  0
  -15.8665  -28.0840   22.7049 H   0  0  0  0  0  0
  -24.5915  -30.7031   25.7757 H   0  0  0  0  0  0
  -24.8942  -32.2766   26.5008 H   0  0  0  0  0  0
  -25.8109  -30.8722   27.0170 H   0  0  0  0  0  0
  -26.2914  -29.6753   24.1252 H   0  0  0  0  0  0
  -27.4299  -29.7388   25.4534 H   0  0  0  0  0  0
  -27.8676  -30.4448   23.9165 H   0  0  0  0  0  0
  -27.2683  -33.3646   26.2063 H   0  0  0  0  0  0
  -28.3845  -32.6892   25.0282 H   0  0  0  0  0  0
  -28.0756  -31.8462   26.5376 H   0  0  0  0  0  0
  -28.2596  -38.0101   24.7539 H   0  0  0  0  0  0
  -28.1065  -36.2623   24.6307 H   0  0  0  0  0  0
  -27.2279  -37.1462   25.8878 H   0  0  0  0  0  0
  -20.9304  -29.8737   21.6919 H   0  0  0  0  0  0
  -26.0178  -38.2871   24.1413 H   0  0  0  0  0  0
  -28.0693  -18.2445   22.4594 H   0  0  0  0  0  0
  -28.2175  -20.6982   22.2759 H   0  0  0  0  0  0
  -30.4151  -17.8359   18.8664 H   0  0  0  0  0  0
  -31.5798  -22.0794   20.2181 H   0  0  0  0  0  0
  -30.8903  -23.6756   20.4447 H   0  0  0  0  0  0
  -30.7251  -22.8673   18.8839 H   0  0  0  0  0  0
  -30.3736  -16.6737   23.0525 H   0  0  0  0  0  0
  -31.6283  -16.9434   21.8342 H   0  0  0  0  0  0
  -31.6508  -15.4870   22.8299 H   0  0  0  0  0  0
  -28.8514  -15.9968   19.7327 H   0  0  0  0  0  0
  -28.1698  -16.0878   21.3345 H   0  0  0  0  0  0
  -28.6940  -24.4173   21.5075 H   0  0  0  0  0  0
  -27.0859  -24.4851   20.8665 H   0  0  0  0  0  0
  -28.0503  -22.7966   18.9995 H   0  0  0  0  0  0
  -27.3823  -22.2728   20.5161 H   0  0  0  0  0  0
  -27.9872  -25.2872   18.6222 H   0  0  0  0  0  0
  -29.5725  -25.2476   19.2946 H   0  0  0  0  0  0
  1 25  1  0  0  0
  1 30  2  0  0  0
  1 84  1  0  0  0
  2  3  1  0  0  0
  2 25  1  0  0  0
  2 86  1  0  0  0
  2 87  1  0  0  0
  3  4  1  0  0  0
  3 88  1  0  0  0
  3 89  1  0  0  0
  4  5  1  0  0  0
  4 90  1  0  0  0
  4 91  1  0  0  0
  5  6  1  0  0  0
  5 26  1  0  0  0
  5 92  1  0  0  0
  6 25  1  0  0  0
  6 93  1  0  0  0
  6 94  1  0  0  0
  7  8  2  0  0  0
  7 26  1  0  0  0
  7 29  1  0  0  0
  8  9  1  0  0  0
  8 22  1  0  0  0
  9 10  1  0  0  0
  9 27  2  0  0  0
 10 11  2  0  0  0
 10 15  1  0  0  0
 11 12  1  0  0  0
 11 95  1  0  0  0
 12 13  2  0  0  0
 12 96  1  0  0  0
 13 14  1  0  0  0
 13 31  1  0  0  0
 14 15  2  0  0  0
 14 97  1  0  0  0
 15 98  1  0  0  0
 16 17  2  0  0  0
 16 21  1  0  0  0
 16 31  1  0  0  0
 17 18  1  0  0  0
 17 99  1  0  0  0
 18 19  2  0  0  0
 18100  1  0  0  0
 19 20  1  0  0  0
 19 24  1  0  0  0
 20 21  2  0  0  0
 20101  1  0  0  0
 21 23  1  0  0  0
 22 28  1  0  0  0
 22 32  2  0  0  0
 26 27  1  0  0  0
 28102  1  0  0  0
 28103  1  0  0  0
 29104  1  0  0  0
 29105  1  0  0  0
 33 34  1  0  0  0
 33 66  1  0  0  0
 33 70  2  0  0  0
 34 36  1  0  0  0
 34 59  1  0  0  0
 34106  1  0  0  0
 35 44  2  0  0  0
 35 45  1  0  0  0
 35 68  1  0  0  0
 36 56  1  0  0  0
 36107  1  0  0  0
 37 39  1  0  0  0
 37 47  1  0  0  0
 37 66  1  0  0  0
 37108  1  0  0  0
 38 43  2  0  0  0
 38 46  1  0  0  0
 38 47  1  0  0  0
 39 64  1  0  0  0
 39 67  2  0  0  0
 40 52  1  0  0  0
 40 53  2  0  0  0
 40 58  1  0  0  0
 41109  1  0  0  0
 41110  1  0  0  0
 41111  1  0  0  0
 41 48  1  0  0  0
 42 43  1  0  0  0
 42 66  1  0  0  0
 42112  1  0  0  0
 42113  1  0  0  0
 43 44  1  0  0  0
 44114  1  0  0  0
 45 46  2  0  0  0
 45115  1  0  0  0
 46116  1  0  0  0
 47117  1  0  0  0
 47118  1  0  0  0
 48 56  1  0  0  0
 48 65  1  0  0  0
 48119  1  0  0  0
 49 50  1  0  0  0
 49 53  1  0  0  0
 49 64  1  0  0  0
 49120  1  0  0  0
 50 51  1  0  0  0
 50121  1  0  0  0
 50122  1  0  0  0
 51 52  1  0  0  0
 51123  1  0  0  0
 51124  1  0  0  0
 52125  1  0  0  0
 52126  1  0  0  0
 53 54  1  0  0  0
 54 55  2  0  0  0
 54127  1  0  0  0
 55 57  1  0  0  0
 55128  1  0  0  0
 56 69  2  0  0  0
 57 58  2  0  0  0
 57129  1  0  0  0
 58130  1  0  0  0
 59 60  1  0  0  0
 59 61  1  0  0  0
 59 62  1  0  0  0
 60131  1  0  0  0
 60132  1  0  0  0
 60133  1  0  0  0
 61134  1  0  0  0
 61135  1  0  0  0
 61136  1  0  0  0
 62137  1  0  0  0
 62138  1  0  0  0
 62139  1  0  0  0
 63 65  1  0  0  0
 63140  1  0  0  0
 63141  1  0  0  0
 63142  1  0  0  0
 64143  1  0  0  0
 65144  1  0  0  0
 68 82  1  0  0  0
 71 72  2  0  0  0
 71 74  1  0  0  0
 71145  1  0  0  0
 72 75  1  0  0  0
 72146  1  0  0  0
 73 74  2  0  0  0
 73 76  1  0  0  0
 73147  1  0  0  0
 74 79  1  0  0  0
 75 76  2  0  0  0
 75 83  1  0  0  0
 76 85  1  0  0  0
 77 83  1  0  0  0
 77148  1  0  0  0
 77149  1  0  0  0
 77150  1  0  0  0
 78 84  1  0  0  0
 78151  1  0  0  0
 78152  1  0  0  0
 78153  1  0  0  0
 79 84  1  0  0  0
 79154  1  0  0  0
 79155  1  0  0  0
 80 81  1  0  0  0
 80 82  1  0  0  0
 80156  1  0  0  0
 80157  1  0  0  0
 81 83  1  0  0  0
 81158  1  0  0  0
 81159  1  0  0  0
 82160  1  0  0  0
 82161  1  0  0  0
M  ISO  4   1 100  68 101  82 101  84 100
M  END
> <chiral flag>
0

> <version>
0

> <s_m_source_file>
/data/baiqing/PycharmProjects/Reinvent-master-3.2/result/LINK_invent/BTK/process_docking_weight1_custom_product_contain_oxygen_bond_distance_aromatic_linkinvent_7_9_3/rearranged_h_0016.sdf

> <i_m_source_file_index>
11

> <r_mmod_Potential_Energy-OPLS-2005>
149.001327514648

> <r_mmod_Stretch_Energy-OPLS-2005>
44.1051406860352

> <r_mmod_Bend_Energy-OPLS-2005>
115.683898925781

> <r_mmod_Torsional_Energy-OPLS-2005>
281.501556396484

> <r_mmod_Improper_Torsional_Energy-OPLS-2005>
6.35699892044067

> <r_mmod_Van_der_Waal_Energy-OPLS-2005>
154.160858154297

> <r_mmod_Electrostatic_Energy-OPLS-2005>
-262.1337890625

> <r_mmod_Solvation_Energy-OPLS-2005>
-206.490859985352

> <b_mmod_Minimization_Converged-OPLS-2005>
0

> <r_mmod_RMS_Derivative-OPLS-2005>
1.6886088848114

$$$$
11
                    3D
 Structure written by MMmdl.
166174  0  0  1  0            999 V2000
  -30.8299  -14.3687   20.6574 C   0  0  0  0  0  0
  -30.4026  -12.2816   19.4153 C   0  0  0  0  0  0
  -29.4827  -12.5201   18.2080 C   0  0  0  0  0  0
  -28.0058  -12.4081   18.6215 C   0  0  0  0  0  0
  -27.6739  -13.2295   19.8960 C   0  0  2  0  0  0
  -28.7189  -13.0082   21.0138 C   0  0  0  0  0  0
  -25.2608  -13.8240   20.5753 C   0  0  0  0  0  0
  -24.1863  -13.0431   20.9208 C   0  0  0  0  0  0
  -24.6513  -11.6935   20.8820 C   0  0  0  0  0  0
  -23.9187  -10.4284   21.0445 C   0  0  0  0  0  0
  -24.3684   -9.4191   21.9234 C   0  0  0  0  0  0
  -23.6340   -8.2247   22.0802 C   0  0  0  0  0  0
  -22.4350   -8.0293   21.3532 C   0  0  0  0  0  0
  -22.0001   -9.0289   20.4648 C   0  0  0  0  0  0
  -22.7369  -10.2144   20.3088 C   0  0  0  0  0  0
  -21.6892   -6.0740   22.5289 C   0  0  0  0  0  0
  -21.4044   -6.5625   23.8215 C   0  0  0  0  0  0
  -21.3649   -5.6764   24.9158 C   0  0  0  0  0  0
  -21.6045   -4.3024   24.7233 C   0  0  0  0  0  0
  -21.8803   -3.8130   23.4352 C   0  0  0  0  0  0
  -21.9200   -4.6955   22.3424 C   0  0  0  0  0  0
  -22.7849  -13.5201   21.1793 C   0  0  0  0  0  0
  -22.1625   -4.2154   21.0974 F   0  0  0  0  0  0
  -21.5643   -3.4481   25.7718 F   0  0  0  0  0  0
  -30.0632  -13.2576   20.4659 N   0  0  0  0  0  0
  -26.3118  -12.9466   20.3546 N   0  0  0  0  0  0
  -25.9479  -11.6592   20.5996 N   0  0  0  0  0  0
  -22.0366  -12.8118   22.0226 N   0  0  0  0  0  0
  -25.4220  -15.1963   20.4180 N   0  0  0  0  0  0
  -31.8334  -14.6086   19.9780 O   0  0  0  0  0  0
  -21.6682   -6.8891   21.4245 O   0  0  0  0  0  0
  -22.3551  -14.5512   20.6656 O   0  0  0  0  0  0
  -24.6170  -31.8648   23.2082 C   0  0  0  0  0  0
  -25.9039  -32.4802   23.8401 C   0  0  1  0  0  0
  -27.2559  -27.4201   20.1488 C   0  0  0  0  0  0
  -25.5887  -33.8606   24.2340 N   0  0  0  0  0  0
  -23.4083  -30.4831   21.5456 C   0  0  2  0  0  0
  -24.8645  -28.9411   20.1188 C   0  0  0  0  0  0
  -22.7423  -29.4637   22.4981 C   0  0  0  0  0  0
  -18.0251  -28.1397   22.8466 C   0  0  0  0  0  0
  -24.1487  -36.7323   23.2645 C   0  0  0  0  0  0
  -25.9367  -30.8317   21.3585 C   0  0  0  0  0  0
  -26.0187  -29.4624   20.7149 C   0  0  0  0  0  0
  -27.2156  -28.7119   20.7228 C   0  0  0  0  0  0
  -26.0908  -26.9227   19.5207 C   0  0  0  0  0  0
  -24.8934  -27.6688   19.5190 C   0  0  0  0  0  0
  -23.6237  -29.8060   20.1647 C   0  0  0  0  0  0
  -25.4101  -36.3109   24.0359 C   0  0  1  0  0  0
  -20.5849  -28.3680   23.1297 C   0  0  2  0  0  0
  -20.6751  -26.9411   22.5416 C   0  0  0  0  0  0
  -19.5742  -26.6395   21.5208 C   0  0  0  0  0  0
  -18.1913  -26.7935   22.1608 C   0  0  0  0  0  0
  -19.1509  -28.8847   23.2868 C   0  0  0  0  0  0
  -18.9450  -30.1451   23.8888 C   0  0  0  0  0  0
  -17.6454  -30.6594   24.0562 C   0  0  0  0  0  0
  -25.9034  -34.9470   23.5154 C   0  0  0  0  0  0
  -16.5337  -29.9101   23.6325 C   0  0  0  0  0  0
  -16.7241  -28.6521   23.0335 C   0  0  0  0  0  0
  -26.4462  -31.6586   25.0739 C   0  0  0  0  0  0
  -25.3706  -31.3652   26.1468 C   0  0  0  0  0  0
  -27.0344  -30.3038   24.6135 C   0  0  0  0  0  0
  -27.6074  -32.4282   25.7461 C   0  0  0  0  0  0
  -27.5585  -37.1809   24.8465 C   0  0  0  0  0  0
  -21.4145  -29.3053   22.3728 N   0  0  0  0  0  0
  -26.4294  -37.3789   23.9431 N   0  0  0  0  0  0
  -24.6711  -31.0762   22.0957 N   0  0  0  0  0  0
  -23.4168  -28.8185   23.3053 O   0  0  0  0  0  0
  -28.4264  -26.6861   20.2264 O   0  0  0  0  0  0
  -26.5599  -34.8902   22.4712 O   0  0  0  0  0  0
  -23.5351  -32.1414   23.7464 O   0  0  0  0  0  0
  -30.3898  -18.3267   23.1133 C   0  0  0  0  0  0
  -30.4824  -19.6845   23.4999 C   0  0  0  0  0  0
  -29.9102  -19.0319   20.8421 C   0  0  0  0  0  0
  -30.1331  -17.9818   21.7591 C   0  0  0  0  0  0
  -30.3098  -20.7268   22.5560 C   0  0  0  0  0  0
  -29.9792  -20.3830   21.2301 C   0  0  0  0  0  0
  -28.7358  -23.9933   22.7205 C   0  0  0  0  0  0
  -30.2503  -14.6837   24.0566 C   0  0  0  0  0  0
  -28.8405  -22.4953   24.6648 C   0  0  0  0  0  0
  -30.0263  -16.5544   21.1844 C   0  0  0  0  0  0
  -30.5461  -22.1972   22.9337 C   0  0  0  0  0  0
  -29.3482  -24.6921   21.4749 C   0  0  0  0  0  0
  -31.2114  -15.0681   22.9259 C   0  0  0  0  0  0
  -28.3139  -25.2593   20.4455 C   0  0  0  0  0  0
  -29.3460  -22.9447   23.3552 N   0  0  0  0  0  0
  -30.4791  -15.2174   21.6524 N   0  0  0  0  0  0
  -27.6814  -24.4606   23.1657 O   0  0  0  0  0  0
  -29.7363  -21.3559   20.3204 F   0  0  0  0  0  0
  -31.4489  -12.3319   19.1025 H   0  0  0  0  0  0
  -30.2625  -11.2688   19.7993 H   0  0  0  0  0  0
  -29.7017  -11.7930   17.4267 H   0  0  0  0  0  0
  -29.6793  -13.5077   17.7919 H   0  0  0  0  0  0
  -27.7836  -11.3563   18.7983 H   0  0  0  0  0  0
  -27.3569  -12.7156   17.8001 H   0  0  0  0  0  0
  -27.7234  -14.2850   19.6280 H   0  0  0  0  0  0
  -28.6747  -11.9910   21.4009 H   0  0  0  0  0  0
  -28.4807  -13.6537   21.8577 H   0  0  0  0  0  0
  -25.2791   -9.5633   22.4842 H   0  0  0  0  0  0
  -24.0004   -7.4648   22.7559 H   0  0  0  0  0  0
  -21.0949   -8.8845   19.8930 H   0  0  0  0  0  0
  -22.3915  -10.9679   19.6170 H   0  0  0  0  0  0
  -21.2074   -7.6133   23.9733 H   0  0  0  0  0  0
  -21.1456   -6.0490   25.9042 H   0  0  0  0  0  0
  -22.0627   -2.7604   23.2877 H   0  0  0  0  0  0
  -22.3868  -11.9708   22.4564 H   0  0  0  0  0  0
  -21.0838  -13.0946   22.2016 H   0  0  0  0  0  0
  -24.6505  -15.8457   20.5462 H   0  0  0  0  0  0
  -26.2870  -15.6536   20.1570 H   0  0  0  0  0  0
  -26.7117  -32.5518   23.1173 H   0  0  0  0  0  0
  -25.0051  -33.9766   25.0488 H   0  0  0  0  0  0
  -22.6987  -31.2996   21.3954 H   0  0  0  0  0  0
  -23.3749  -35.9656   23.3306 H   0  0  0  0  0  0
  -24.3587  -36.8946   22.2064 H   0  0  0  0  0  0
  -23.7243  -37.6528   23.6650 H   0  0  0  0  0  0
  -26.0524  -31.5917   20.5848 H   0  0  0  0  0  0
  -26.8206  -30.8887   21.9802 H   0  0  0  0  0  0
  -28.1011  -29.1101   21.1979 H   0  0  0  0  0  0
  -26.0996  -25.9540   19.0391 H   0  0  0  0  0  0
  -24.0048  -27.2597   19.0575 H   0  0  0  0  0  0
  -23.7315  -30.5762   19.4000 H   0  0  0  0  0  0
  -22.7497  -29.2217   19.8668 H   0  0  0  0  0  0
  -25.1255  -36.1999   25.0856 H   0  0  0  0  0  0
  -20.9895  -28.3262   24.1432 H   0  0  0  0  0  0
  -20.5678  -26.2288   23.3611 H   0  0  0  0  0  0
  -21.6622  -26.7487   22.1204 H   0  0  0  0  0  0
  -19.6936  -25.6311   21.1242 H   0  0  0  0  0  0
  -19.6709  -27.3198   20.6736 H   0  0  0  0  0  0
  -17.4194  -26.6654   21.4003 H   0  0  0  0  0  0
  -18.0320  -26.0087   22.9010 H   0  0  0  0  0  0
  -19.7937  -30.7256   24.2278 H   0  0  0  0  0  0
  -17.5021  -31.6275   24.5180 H   0  0  0  0  0  0
  -15.5346  -30.3007   23.7687 H   0  0  0  0  0  0
  -15.8629  -28.0862   22.7054 H   0  0  0  0  0  0
  -24.5904  -30.6974   25.7774 H   0  0  0  0  0  0
  -24.8848  -32.2776   26.4937 H   0  0  0  0  0  0
  -25.8038  -30.8803   27.0228 H   0  0  0  0  0  0
  -26.2933  -29.6725   24.1206 H   0  0  0  0  0  0
  -27.4154  -29.7321   25.4619 H   0  0  0  0  0  0
  -27.8724  -30.4394   23.9289 H   0  0  0  0  0  0
  -27.2773  -33.3612   26.2022 H   0  0  0  0  0  0
  -28.3850  -32.6777   25.0233 H   0  0  0  0  0  0
  -28.0749  -31.8393   26.5356 H   0  0  0  0  0  0
  -28.2587  -38.0116   24.7523 H   0  0  0  0  0  0
  -28.1090  -36.2652   24.6257 H   0  0  0  0  0  0
  -27.2307  -37.1424   25.8862 H   0  0  0  0  0  0
  -20.9350  -29.8761   21.6915 H   0  0  0  0  0  0
  -26.0191  -38.2887   24.1381 H   0  0  0  0  0  0
  -30.5223  -17.5737   23.8771 H   0  0  0  0  0  0
  -30.7148  -19.9239   24.5293 H   0  0  0  0  0  0
  -29.6882  -18.7923   19.8131 H   0  0  0  0  0  0
  -29.7184  -13.7612   23.8349 H   0  0  0  0  0  0
  -29.5058  -15.4583   24.2385 H   0  0  0  0  0  0
  -30.7935  -14.5129   24.9839 H   0  0  0  0  0  0
  -27.9555  -21.8725   24.5338 H   0  0  0  0  0  0
  -28.5662  -23.3356   25.3026 H   0  0  0  0  0  0
  -29.5752  -21.9218   25.2309 H   0  0  0  0  0  0
  -29.2761  -16.4616   21.9681 H   0  0  0  0  0  0
  -31.0981  -16.7778   21.1821 H   0  0  0  0  0  0
  -31.0811  -22.6824   22.1208 H   0  0  0  0  0  0
  -31.2690  -22.2270   23.7509 H   0  0  0  0  0  0
  -30.0285  -24.0323   20.9390 H   0  0  0  0  0  0
  -29.9595  -25.5148   21.8437 H   0  0  0  0  0  0
  -31.9845  -14.2956   22.8451 H   0  0  0  0  0  0
  -31.7697  -15.9657   23.1779 H   0  0  0  0  0  0
  -27.3047  -24.9769   20.7444 H   0  0  0  0  0  0
  -28.4846  -24.7724   19.4846 H   0  0  0  0  0  0
  1 25  1  0  0  0
  1 30  2  0  0  0
  1 86  1  0  0  0
  2  3  1  0  0  0
  2 25  1  0  0  0
  2 89  1  0  0  0
  2 90  1  0  0  0
  3  4  1  0  0  0
  3 91  1  0  0  0
  3 92  1  0  0  0
  4  5  1  0  0  0
  4 93  1  0  0  0
  4 94  1  0  0  0
  5  6  1  0  0  0
  5 26  1  0  0  0
  5 95  1  0  0  0
  6 25  1  0  0  0
  6 96  1  0  0  0
  6 97  1  0  0  0
  7  8  2  0  0  0
  7 26  1  0  0  0
  7 29  1  0  0  0
  8  9  1  0  0  0
  8 22  1  0  0  0
  9 10  1  0  0  0
  9 27  2  0  0  0
 10 11  2  0  0  0
 10 15  1  0  0  0
 11 12  1  0  0  0
 11 98  1  0  0  0
 12 13  2  0  0  0
 12 99  1  0  0  0
 13 14  1  0  0  0
 13 31  1  0  0  0
 14 15  2  0  0  0
 14100  1  0  0  0
 15101  1  0  0  0
 16 17  2  0  0  0
 16 21  1  0  0  0
 16 31  1  0  0  0
 17 18  1  0  0  0
 17102  1  0  0  0
 18 19  2  0  0  0
 18103  1  0  0  0
 19 20  1  0  0  0
 19 24  1  0  0  0
 20 21  2  0  0  0
 20104  1  0  0  0
 21 23  1  0  0  0
 22 28  1  0  0  0
 22 32  2  0  0  0
 26 27  1  0  0  0
 28105  1  0  0  0
 28106  1  0  0  0
 29107  1  0  0  0
 29108  1  0  0  0
 33 34  1  0  0  0
 33 66  1  0  0  0
 33 70  2  0  0  0
 34 36  1  0  0  0
 34 59  1  0  0  0
 34109  1  0  0  0
 35 44  2  0  0  0
 35 45  1  0  0  0
 35 68  1  0  0  0
 36 56  1  0  0  0
 36110  1  0  0  0
 37 39  1  0  0  0
 37 47  1  0  0  0
 37 66  1  0  0  0
 37111  1  0  0  0
 38 43  2  0  0  0
 38 46  1  0  0  0
 38 47  1  0  0  0
 39 64  1  0  0  0
 39 67  2  0  0  0
 40 52  1  0  0  0
 40 53  2  0  0  0
 40 58  1  0  0  0
 41112  1  0  0  0
 41113  1  0  0  0
 41114  1  0  0  0
 41 48  1  0  0  0
 42 43  1  0  0  0
 42 66  1  0  0  0
 42115  1  0  0  0
 42116  1  0  0  0
 43 44  1  0  0  0
 44117  1  0  0  0
 45 46  2  0  0  0
 45118  1  0  0  0
 46119  1  0  0  0
 47120  1  0  0  0
 47121  1  0  0  0
 48 56  1  0  0  0
 48 65  1  0  0  0
 48122  1  0  0  0
 49 50  1  0  0  0
 49 53  1  0  0  0
 49 64  1  0  0  0
 49123  1  0  0  0
 50 51  1  0  0  0
 50124  1  0  0  0
 50125  1  0  0  0
 51 52  1  0  0  0
 51126  1  0  0  0
 51127  1  0  0  0
 52128  1  0  0  0
 52129  1  0  0  0
 53 54  1  0  0  0
 54 55  2  0  0  0
 54130  1  0  0  0
 55 57  1  0  0  0
 55131  1  0  0  0
 56 69  2  0  0  0
 57 58  2  0  0  0
 57132  1  0  0  0
 58133  1  0  0  0
 59 60  1  0  0  0
 59 61  1  0  0  0
 59 62  1  0  0  0
 60134  1  0  0  0
 60135  1  0  0  0
 60136  1  0  0  0
 61137  1  0  0  0
 61138  1  0  0  0
 61139  1  0  0  0
 62140  1  0  0  0
 62141  1  0  0  0
 62142  1  0  0  0
 63 65  1  0  0  0
 63143  1  0  0  0
 63144  1  0  0  0
 63145  1  0  0  0
 64146  1  0  0  0
 65147  1  0  0  0
 68 84  1  0  0  0
 71 72  2  0  0  0
 71 74  1  0  0  0
 71148  1  0  0  0
 72 75  1  0  0  0
 72149  1  0  0  0
 73 74  2  0  0  0
 73 76  1  0  0  0
 73150  1  0  0  0
 74 80  1  0  0  0
 75 76  2  0  0  0
 75 81  1  0  0  0
 76 88  1  0  0  0
 77 82  1  0  0  0
 77 85  1  0  0  0
 77 87  2  0  0  0
 78 83  1  0  0  0
 78151  1  0  0  0
 78152  1  0  0  0
 78153  1  0  0  0
 79 85  1  0  0  0
 79154  1  0  0  0
 79155  1  0  0  0
 79156  1  0  0  0
 80 86  1  0  0  0
 80157  1  0  0  0
 80158  1  0  0  0
 81 85  1  0  0  0
 81159  1  0  0  0
 81160  1  0  0  0
 82 84  1  0  0  0
 82161  1  0  0  0
 82162  1  0  0  0
 83 86  1  0  0  0
 83163  1  0  0  0
 83164  1  0  0  0
 84165  1  0  0  0
 84166  1  0  0  0
M  ISO  4   1 100  68 101  84 101  86 100
M  END
> <chiral flag>
0

> <version>
0

> <s_m_source_file>
/data/baiqing/PycharmProjects/Reinvent-master-3.2/result/LINK_invent/BTK/process_docking_weight1_custom_product_contain_oxygen_bond_distance_aromatic_linkinvent_7_9_3/rearranged_h_0016.sdf

> <i_m_source_file_index>
12

> <r_mmod_Potential_Energy-OPLS-2005>
361.678802490234

> <r_mmod_Stretch_Energy-OPLS-2005>
49.3530082702637

> <r_mmod_Bend_Energy-OPLS-2005>
337.965576171875

> <r_mmod_Torsional_Energy-OPLS-2005>
308.252136230469

> <r_mmod_Improper_Torsional_Energy-OPLS-2005>
4.3268404006958

> <r_mmod_Van_der_Waal_Energy-OPLS-2005>
166.888824462891

> <r_mmod_Electrostatic_Energy-OPLS-2005>
-307.282470703125

> <r_mmod_Solvation_Energy-OPLS-2005>
-212.652389526367

> <b_mmod_Minimization_Converged-OPLS-2005>
0

> <r_mmod_RMS_Derivative-OPLS-2005>
5.92429876327515

$$$$
12
                    3D
 Structure written by MMmdl.
165173  0  0  1  0            999 V2000
  -30.7410  -14.5002   20.5447 C   0  0  0  0  0  0
  -30.4037  -12.3336   19.4120 C   0  0  0  0  0  0
  -29.4749  -12.5155   18.1960 C   0  0  0  0  0  0
  -27.9961  -12.3890   18.6107 C   0  0  0  0  0  0
  -27.6492  -13.2220   19.8727 C   0  0  2  0  0  0
  -28.7022  -13.0013   20.9797 C   0  0  0  0  0  0
  -25.2512  -13.8205   20.5735 C   0  0  0  0  0  0
  -24.1800  -13.0433   20.9231 C   0  0  0  0  0  0
  -24.6378  -11.6925   20.8777 C   0  0  0  0  0  0
  -23.9060  -10.4288   21.0410 C   0  0  0  0  0  0
  -24.3628   -9.4200   21.9180 C   0  0  0  0  0  0
  -23.6307   -8.2235   22.0742 C   0  0  0  0  0  0
  -22.4276   -8.0285   21.3533 C   0  0  0  0  0  0
  -21.9897   -9.0254   20.4627 C   0  0  0  0  0  0
  -22.7240  -10.2126   20.3037 C   0  0  0  0  0  0
  -21.6857   -6.0754   22.5286 C   0  0  0  0  0  0
  -21.4024   -6.5661   23.8223 C   0  0  0  0  0  0
  -21.3650   -5.6802   24.9182 C   0  0  0  0  0  0
  -21.6054   -4.3068   24.7213 C   0  0  0  0  0  0
  -21.8815   -3.8160   23.4330 C   0  0  0  0  0  0
  -21.9183   -4.6979   22.3392 C   0  0  0  0  0  0
  -22.7812  -13.5205   21.1875 C   0  0  0  0  0  0
  -22.1649   -4.2169   21.0965 F   0  0  0  0  0  0
  -21.5596   -3.4550   25.7724 F   0  0  0  0  0  0
  -30.0121  -13.3489   20.4113 N   0  0  0  0  0  0
  -26.2966  -12.9399   20.3433 N   0  0  0  0  0  0
  -25.9302  -11.6548   20.5820 N   0  0  0  0  0  0
  -22.0460  -12.8188   22.0447 N   0  0  0  0  0  0
  -25.4153  -15.1933   20.4115 N   0  0  0  0  0  0
  -31.9134  -14.5255   20.1575 O   0  0  0  0  0  0
  -21.6641   -6.8881   21.4244 O   0  0  0  0  0  0
  -22.3498  -14.5499   20.6697 O   0  0  0  0  0  0
  -24.6175  -31.8687   23.2129 C   0  0  0  0  0  0
  -25.9060  -32.4837   23.8430 C   0  0  1  0  0  0
  -27.2213  -27.4154   20.0798 C   0  0  0  0  0  0
  -25.5904  -33.8639   24.2348 N   0  0  0  0  0  0
  -23.4060  -30.4990   21.5542 C   0  0  2  0  0  0
  -24.8467  -28.9728   20.1089 C   0  0  0  0  0  0
  -22.7435  -29.4673   22.4971 C   0  0  0  0  0  0
  -18.0281  -28.1379   22.8508 C   0  0  0  0  0  0
  -24.1474  -36.7325   23.2638 C   0  0  0  0  0  0
  -25.9395  -30.8284   21.3680 C   0  0  0  0  0  0
  -26.0113  -29.4642   20.7108 C   0  0  0  0  0  0
  -27.1964  -28.6898   20.7022 C   0  0  0  0  0  0
  -26.0284  -26.9470   19.4856 C   0  0  0  0  0  0
  -24.8514  -27.7131   19.4964 C   0  0  0  0  0  0
  -23.6124  -29.8428   20.1643 C   0  0  0  0  0  0
  -25.4097  -36.3125   24.0331 C   0  0  1  0  0  0
  -20.5878  -28.3669   23.1317 C   0  0  2  0  0  0
  -20.6772  -26.9401   22.5423 C   0  0  0  0  0  0
  -19.5740  -26.6384   21.5227 C   0  0  0  0  0  0
  -18.1922  -26.7928   22.1638 C   0  0  0  0  0  0
  -19.1530  -28.8833   23.2925 C   0  0  0  0  0  0
  -18.9449  -30.1441   23.8929 C   0  0  0  0  0  0
  -17.6449  -30.6587   24.0563 C   0  0  0  0  0  0
  -25.9032  -34.9493   23.5137 C   0  0  0  0  0  0
  -16.5344  -29.9095   23.6318 C   0  0  0  0  0  0
  -16.7269  -28.6508   23.0354 C   0  0  0  0  0  0
  -26.4473  -31.6625   25.0761 C   0  0  0  0  0  0
  -25.3733  -31.3738   26.1502 C   0  0  0  0  0  0
  -27.0286  -30.3067   24.6126 C   0  0  0  0  0  0
  -27.6054  -32.4349   25.7512 C   0  0  0  0  0  0
  -27.5575  -37.1820   24.8464 C   0  0  0  0  0  0
  -21.4156  -29.3047   22.3717 N   0  0  0  0  0  0
  -26.4290  -37.3809   23.9415 N   0  0  0  0  0  0
  -24.6743  -31.0796   22.1030 N   0  0  0  0  0  0
  -23.4225  -28.8183   23.2983 O   0  0  0  0  0  0
  -28.3644  -26.6358   20.1584 O   0  0  0  0  0  0
  -26.5596  -34.8947   22.4698 O   0  0  0  0  0  0
  -23.5364  -32.1419   23.7525 O   0  0  0  0  0  0
  -30.4169  -19.1896   21.1980 C   0  0  0  0  0  0
  -30.2007  -20.5808   21.0525 C   0  0  0  0  0  0
  -29.6138  -18.8279   18.9363 C   0  0  0  0  0  0
  -30.1788  -18.3040   20.1219 C   0  0  0  0  0  0
  -29.7494  -21.1156   19.8242 C   0  0  0  0  0  0
  -29.4026  -20.2155   18.7882 C   0  0  0  0  0  0
  -28.7143  -24.1467   17.2015 C   0  0  0  0  0  0
  -29.1377  -15.9650   21.7999 C   0  0  0  0  0  0
  -27.3087  -22.6469   19.9347 C   0  0  0  0  0  0
  -30.7837  -16.8888   20.1336 C   0  0  0  0  0  0
  -29.7991  -22.6359   19.5558 C   0  0  0  0  0  0
  -28.8657  -25.9402   19.0028 C   0  0  0  0  0  0
  -28.3033  -24.5251   18.6424 C   0  0  2  0  0  0
  -30.0960  -15.7009   20.7210 N   0  0  0  0  0  0
  -28.5372  -23.4456   19.6774 N   0  3  1  0  0  0
  -28.9333  -20.6902   17.6116 F   0  0  0  0  0  0
  -31.4450  -12.4072   19.0930 H   0  0  0  0  0  0
  -30.3027  -11.3309   19.8289 H   0  0  0  0  0  0
  -29.7086  -11.7782   17.4280 H   0  0  0  0  0  0
  -29.6451  -13.4961   17.7444 H   0  0  0  0  0  0
  -27.7892  -11.3343   18.7934 H   0  0  0  0  0  0
  -27.3509  -12.6875   17.7852 H   0  0  0  0  0  0
  -27.6840  -14.2696   19.5777 H   0  0  0  0  0  0
  -28.7000  -11.9499   21.2746 H   0  0  0  0  0  0
  -28.4638  -13.5380   21.8924 H   0  0  0  0  0  0
  -25.2762   -9.5683   22.4771 H   0  0  0  0  0  0
  -24.0025   -7.4620   22.7452 H   0  0  0  0  0  0
  -21.0816   -8.8760   19.8945 H   0  0  0  0  0  0
  -22.3694  -10.9665   19.6149 H   0  0  0  0  0  0
  -21.2048   -7.6170   23.9755 H   0  0  0  0  0  0
  -21.1470   -6.0510   25.9098 H   0  0  0  0  0  0
  -22.0600   -2.7621   23.2811 H   0  0  0  0  0  0
  -22.4065  -11.9863   22.4859 H   0  0  0  0  0  0
  -21.1065  -13.1183   22.2639 H   0  0  0  0  0  0
  -24.6475  -15.8443   20.5342 H   0  0  0  0  0  0
  -26.2705  -15.6458   20.1143 H   0  0  0  0  0  0
  -26.7128  -32.5535   23.1202 H   0  0  0  0  0  0
  -25.0059  -33.9817   25.0491 H   0  0  0  0  0  0
  -22.6967  -31.3183   21.4231 H   0  0  0  0  0  0
  -23.3737  -35.9655   23.3299 H   0  0  0  0  0  0
  -24.3579  -36.8945   22.2055 H   0  0  0  0  0  0
  -23.7216  -37.6529   23.6649 H   0  0  0  0  0  0
  -26.0524  -31.5922   20.5978 H   0  0  0  0  0  0
  -26.8291  -30.8841   21.9829 H   0  0  0  0  0  0
  -28.0919  -29.0599   21.1818 H   0  0  0  0  0  0
  -25.9325  -25.9768   19.0438 H   0  0  0  0  0  0
  -23.9505  -27.3223   19.0448 H   0  0  0  0  0  0
  -23.7303  -30.6246   19.4133 H   0  0  0  0  0  0
  -22.7314  -29.2743   19.8586 H   0  0  0  0  0  0
  -25.1271  -36.1998   25.0820 H   0  0  0  0  0  0
  -20.9998  -28.3221   24.1433 H   0  0  0  0  0  0
  -20.5688  -26.2271   23.3616 H   0  0  0  0  0  0
  -21.6638  -26.7455   22.1199 H   0  0  0  0  0  0
  -19.6909  -25.6301   21.1240 H   0  0  0  0  0  0
  -19.6668  -27.3204   20.6761 H   0  0  0  0  0  0
  -17.4205  -26.6689   21.4034 H   0  0  0  0  0  0
  -18.0320  -26.0056   22.9012 H   0  0  0  0  0  0
  -19.7913  -30.7255   24.2324 H   0  0  0  0  0  0
  -17.4994  -31.6271   24.5152 H   0  0  0  0  0  0
  -15.5344  -30.3008   23.7613 H   0  0  0  0  0  0
  -15.8669  -28.0830   22.7064 H   0  0  0  0  0  0
  -24.5889  -30.7103   25.7841 H   0  0  0  0  0  0
  -24.8933  -32.2891   26.4975 H   0  0  0  0  0  0
  -25.8073  -30.8887   27.0252 H   0  0  0  0  0  0
  -26.2816  -29.6863   24.1152 H   0  0  0  0  0  0
  -27.4022  -29.7282   25.4588 H   0  0  0  0  0  0
  -27.8678  -30.4400   23.9292 H   0  0  0  0  0  0
  -27.2678  -33.3651   26.2106 H   0  0  0  0  0  0
  -28.3844  -32.6922   25.0319 H   0  0  0  0  0  0
  -28.0734  -31.8462   26.5411 H   0  0  0  0  0  0
  -28.2608  -38.0109   24.7529 H   0  0  0  0  0  0
  -28.1066  -36.2651   24.6265 H   0  0  0  0  0  0
  -27.2314  -37.1444   25.8876 H   0  0  0  0  0  0
  -20.9314  -29.8791   21.6947 H   0  0  0  0  0  0
  -26.0173  -38.2888   24.1435 H   0  0  0  0  0  0
  -30.8598  -18.8149   22.1108 H   0  0  0  0  0  0
  -30.4727  -21.2393   21.8649 H   0  0  0  0  0  0
  -29.4335  -18.1850   18.0855 H   0  0  0  0  0  0
  -28.3134  -24.8737   16.4945 H   0  0  0  0  0  0
  -28.3228  -23.1719   16.9118 H   0  0  0  0  0  0
  -29.7945  -24.1542   17.0511 H   0  0  0  0  0  0
  -29.1244  -17.0027   22.1227 H   0  0  0  0  0  0
  -29.3793  -15.3795   22.6897 H   0  0  0  0  0  0
  -28.1235  -15.7247   21.4807 H   0  0  0  0  0  0
  -27.4400  -21.9490   20.7624 H   0  0  0  0  0  0
  -27.0038  -22.0866   19.0500 H   0  0  0  0  0  0
  -26.4804  -23.2975   20.2175 H   0  0  0  0  0  0
  -31.7560  -16.9917   20.6190 H   0  0  0  0  0  0
  -31.0137  -16.6522   19.0923 H   0  0  0  0  0  0
  -30.2549  -22.7292   18.5726 H   0  0  0  0  0  0
  -30.5309  -23.0824   20.2278 H   0  0  0  0  0  0
  -28.7434  -26.6049   18.1452 H   0  0  0  0  0  0
  -29.9458  -25.8499   19.1399 H   0  0  0  0  0  0
  -27.2320  -24.6146   18.5502 H   0  0  0  0  0  0
  -28.6561  -23.9453   20.5487 H   0  0  0  0  0  0
  1 25  1  0  0  0
  1 30  2  0  0  0
  1 84  1  0  0  0
  2  3  1  0  0  0
  2 25  1  0  0  0
  2 87  1  0  0  0
  2 88  1  0  0  0
  3  4  1  0  0  0
  3 89  1  0  0  0
  3 90  1  0  0  0
  4  5  1  0  0  0
  4 91  1  0  0  0
  4 92  1  0  0  0
  5  6  1  0  0  0
  5 26  1  0  0  0
  5 93  1  0  0  0
  6 25  1  0  0  0
  6 94  1  0  0  0
  6 95  1  0  0  0
  7  8  2  0  0  0
  7 26  1  0  0  0
  7 29  1  0  0  0
  8  9  1  0  0  0
  8 22  1  0  0  0
  9 10  1  0  0  0
  9 27  2  0  0  0
 10 11  2  0  0  0
 10 15  1  0  0  0
 11 12  1  0  0  0
 11 96  1  0  0  0
 12 13  2  0  0  0
 12 97  1  0  0  0
 13 14  1  0  0  0
 13 31  1  0  0  0
 14 15  2  0  0  0
 14 98  1  0  0  0
 15 99  1  0  0  0
 16 17  2  0  0  0
 16 21  1  0  0  0
 16 31  1  0  0  0
 17 18  1  0  0  0
 17100  1  0  0  0
 18 19  2  0  0  0
 18101  1  0  0  0
 19 20  1  0  0  0
 19 24  1  0  0  0
 20 21  2  0  0  0
 20102  1  0  0  0
 21 23  1  0  0  0
 22 28  1  0  0  0
 22 32  2  0  0  0
 26 27  1  0  0  0
 28103  1  0  0  0
 28104  1  0  0  0
 29105  1  0  0  0
 29106  1  0  0  0
 33 34  1  0  0  0
 33 66  1  0  0  0
 33 70  2  0  0  0
 34 36  1  0  0  0
 34 59  1  0  0  0
 34107  1  0  0  0
 35 44  2  0  0  0
 35 45  1  0  0  0
 35 68  1  0  0  0
 36 56  1  0  0  0
 36108  1  0  0  0
 37 39  1  0  0  0
 37 47  1  0  0  0
 37 66  1  0  0  0
 37109  1  0  0  0
 38 43  2  0  0  0
 38 46  1  0  0  0
 38 47  1  0  0  0
 39 64  1  0  0  0
 39 67  2  0  0  0
 40 52  1  0  0  0
 40 53  2  0  0  0
 40 58  1  0  0  0
 41110  1  0  0  0
 41111  1  0  0  0
 41112  1  0  0  0
 41 48  1  0  0  0
 42 43  1  0  0  0
 42 66  1  0  0  0
 42113  1  0  0  0
 42114  1  0  0  0
 43 44  1  0  0  0
 44115  1  0  0  0
 45 46  2  0  0  0
 45116  1  0  0  0
 46117  1  0  0  0
 47118  1  0  0  0
 47119  1  0  0  0
 48 56  1  0  0  0
 48 65  1  0  0  0
 48120  1  0  0  0
 49 50  1  0  0  0
 49 53  1  0  0  0
 49 64  1  0  0  0
 49121  1  0  0  0
 50 51  1  0  0  0
 50122  1  0  0  0
 50123  1  0  0  0
 51 52  1  0  0  0
 51124  1  0  0  0
 51125  1  0  0  0
 52126  1  0  0  0
 52127  1  0  0  0
 53 54  1  0  0  0
 54 55  2  0  0  0
 54128  1  0  0  0
 55 57  1  0  0  0
 55129  1  0  0  0
 56 69  2  0  0  0
 57 58  2  0  0  0
 57130  1  0  0  0
 58131  1  0  0  0
 59 60  1  0  0  0
 59 61  1  0  0  0
 59 62  1  0  0  0
 60132  1  0  0  0
 60133  1  0  0  0
 60134  1  0  0  0
 61135  1  0  0  0
 61136  1  0  0  0
 61137  1  0  0  0
 62138  1  0  0  0
 62139  1  0  0  0
 62140  1  0  0  0
 63 65  1  0  0  0
 63141  1  0  0  0
 63142  1  0  0  0
 63143  1  0  0  0
 64144  1  0  0  0
 65145  1  0  0  0
 68 82  1  0  0  0
 71 72  2  0  0  0
 71 74  1  0  0  0
 71146  1  0  0  0
 72 75  1  0  0  0
 72147  1  0  0  0
 73 74  2  0  0  0
 73 76  1  0  0  0
 73148  1  0  0  0
 74 80  1  0  0  0
 75 76  2  0  0  0
 75 81  1  0  0  0
 76 86  1  0  0  0
 77149  1  0  0  0
 77150  1  0  0  0
 77151  1  0  0  0
 77 83  1  0  0  0
 78 84  1  0  0  0
 78152  1  0  0  0
 78153  1  0  0  0
 78154  1  0  0  0
 79155  1  0  0  0
 79156  1  0  0  0
 79157  1  0  0  0
 79 85  1  0  0  0
 80 84  1  0  0  0
 80158  1  0  0  0
 80159  1  0  0  0
 81 85  1  0  0  0
 81160  1  0  0  0
 81161  1  0  0  0
 82 83  1  0  0  0
 82162  1  0  0  0
 82163  1  0  0  0
 83 85  1  0  0  0
 83164  1  0  0  0
 85165  1  0  0  0
M  CHG  1  85   1
M  ISO  4   1 100  68 101  82 101  84 100
M  END
> <chiral flag>
0

> <version>
0

> <s_m_source_file>
/data/baiqing/PycharmProjects/Reinvent-master-3.2/result/LINK_invent/BTK/process_docking_weight1_custom_product_contain_oxygen_bond_distance_aromatic_linkinvent_7_9_3/rearranged_h_0016.sdf

> <i_m_source_file_index>
13

> <r_mmod_Potential_Energy-OPLS-2005>
98.6961441040039

> <r_mmod_Stretch_Energy-OPLS-2005>
51.1384010314941

> <r_mmod_Bend_Energy-OPLS-2005>
157.7509765625

> <r_mmod_Torsional_Energy-OPLS-2005>
292.321624755859

> <r_mmod_Improper_Torsional_Energy-OPLS-2005>
15.1371259689331

> <r_mmod_Van_der_Waal_Energy-OPLS-2005>
174.110473632812

> <r_mmod_Electrostatic_Energy-OPLS-2005>
-219.430740356445

> <r_mmod_Solvation_Energy-OPLS-2005>
-396.081359863281

> <b_mmod_Minimization_Converged-OPLS-2005>
0

> <r_mmod_RMS_Derivative-OPLS-2005>
3.33835577964783

$$$$
13
                    3D
 Structure written by MMmdl.
158166  0  0  1  0            999 V2000
  -30.6435  -14.6557   20.5699 C   0  0  0  0  0  0
  -30.4313  -12.4256   19.4564 C   0  0  0  0  0  0
  -29.5034  -12.5267   18.2269 C   0  0  0  0  0  0
  -28.0304  -12.3582   18.6384 C   0  0  0  0  0  0
  -27.6502  -13.2269   19.8641 C   0  0  2  0  0  0
  -28.6866  -13.0867   20.9952 C   0  0  0  0  0  0
  -25.2563  -13.8211   20.5776 C   0  0  0  0  0  0
  -24.1823  -13.0451   20.9193 C   0  0  0  0  0  0
  -24.6413  -11.6928   20.8728 C   0  0  0  0  0  0
  -23.9087  -10.4311   21.0382 C   0  0  0  0  0  0
  -24.3653   -9.4209   21.9126 C   0  0  0  0  0  0
  -23.6312   -8.2259   22.0715 C   0  0  0  0  0  0
  -22.4280   -8.0307   21.3527 C   0  0  0  0  0  0
  -21.9913   -9.0301   20.4647 C   0  0  0  0  0  0
  -22.7255  -10.2168   20.3053 C   0  0  0  0  0  0
  -21.6863   -6.0747   22.5251 C   0  0  0  0  0  0
  -21.4032   -6.5640   23.8188 C   0  0  0  0  0  0
  -21.3676   -5.6784   24.9134 C   0  0  0  0  0  0
  -21.6049   -4.3046   24.7194 C   0  0  0  0  0  0
  -21.8808   -3.8144   23.4315 C   0  0  0  0  0  0
  -21.9198   -4.6970   22.3366 C   0  0  0  0  0  0
  -22.7842  -13.5257   21.1839 C   0  0  0  0  0  0
  -22.1645   -4.2155   21.0939 F   0  0  0  0  0  0
  -21.5650   -3.4530   25.7701 F   0  0  0  0  0  0
  -30.0021  -13.4439   20.4439 N   0  0  0  0  0  0
  -26.2981  -12.9405   20.3341 N   0  0  0  0  0  0
  -25.9342  -11.6540   20.5735 N   0  0  0  0  0  0
  -22.0515  -12.8271   22.0424 N   0  0  0  0  0  0
  -25.4293  -15.1954   20.4356 N   0  0  0  0  0  0
  -31.7419  -14.8386   20.0333 O   0  0  0  0  0  0
  -21.6646   -6.8896   21.4217 O   0  0  0  0  0  0
  -22.3513  -14.5560   20.6686 O   0  0  0  0  0  0
  -24.6273  -31.8610   23.2024 C   0  0  0  0  0  0
  -25.9121  -32.4791   23.8358 C   0  0  1  0  0  0
  -27.2098  -27.3063   20.1302 C   0  0  0  0  0  0
  -25.5969  -33.8590   24.2316 N   0  0  0  0  0  0
  -23.4197  -30.4825   21.5446 C   0  0  2  0  0  0
  -24.8651  -28.9290   20.1158 C   0  0  0  0  0  0
  -22.7468  -29.4605   22.4924 C   0  0  0  0  0  0
  -18.0276  -28.1372   22.8496 C   0  0  0  0  0  0
  -24.1491  -36.7274   23.2636 C   0  0  0  0  0  0
  -25.9576  -30.7895   21.3704 C   0  0  0  0  0  0
  -26.0347  -29.4134   20.7178 C   0  0  0  0  0  0
  -27.2147  -28.6126   20.7093 C   0  0  0  0  0  0
  -26.0219  -26.8704   19.5120 C   0  0  0  0  0  0
  -24.8606  -27.6663   19.5027 C   0  0  0  0  0  0
  -23.6358  -29.8137   20.1602 C   0  0  0  0  0  0
  -25.4122  -36.3081   24.0337 C   0  0  1  0  0  0
  -20.5882  -28.3686   23.1285 C   0  0  2  0  0  0
  -20.6763  -26.9406   22.5408 C   0  0  0  0  0  0
  -19.5739  -26.6380   21.5204 C   0  0  0  0  0  0
  -18.1925  -26.7925   22.1624 C   0  0  0  0  0  0
  -19.1527  -28.8839   23.2894 C   0  0  0  0  0  0
  -18.9454  -30.1444   23.8919 C   0  0  0  0  0  0
  -17.6460  -30.6587   24.0563 C   0  0  0  0  0  0
  -25.9059  -34.9457   23.5109 C   0  0  0  0  0  0
  -16.5349  -29.9094   23.6322 C   0  0  0  0  0  0
  -16.7269  -28.6492   23.0369 C   0  0  0  0  0  0
  -26.4517  -31.6572   25.0701 C   0  0  0  0  0  0
  -25.3750  -31.3698   26.1430 C   0  0  0  0  0  0
  -27.0325  -30.2991   24.6119 C   0  0  0  0  0  0
  -27.6089  -32.4278   25.7475 C   0  0  0  0  0  0
  -27.5582  -37.1806   24.8474 C   0  0  0  0  0  0
  -21.4173  -29.3046   22.3677 N   0  0  0  0  0  0
  -26.4309  -37.3773   23.9402 N   0  0  0  0  0  0
  -24.6880  -31.0600   22.0981 N   0  0  0  0  0  0
  -23.4188  -28.8130   23.3005 O   0  0  0  0  0  0
  -28.3124  -26.4479   20.1318 O   0  0  0  0  0  0
  -26.5586  -34.8913   22.4655 O   0  0  0  0  0  0
  -23.5435  -32.1417   23.7354 O   0  0  0  0  0  0
  -29.8372  -18.1732   21.7100 C   0  0  0  0  0  0
  -29.3933  -19.4875   21.3568 C   0  0  0  0  0  0
  -29.1026  -17.3215   19.6030 C   0  0  0  0  0  0
  -29.6923  -17.0306   20.8596 C   0  0  0  0  0  0
  -28.7460  -19.7705   20.1265 C   0  0  0  0  0  0
  -28.6465  -18.6318   19.2481 C   0  0  0  0  0  0
  -30.1952  -15.4833   22.7644 C   0  0  0  0  0  0
  -26.9199  -20.9995   19.0774 C   0  0  0  0  0  0
  -28.2037  -23.7594   19.8366 C   0  0  0  0  0  0
  -28.3782  -22.3441   20.5921 C   0  0  0  0  0  0
  -28.1544  -25.0940   20.7230 C   0  0  0  0  0  0
  -30.0449  -15.6611   21.3123 N   0  0  0  0  0  0
  -28.1997  -21.0805   19.7900 N   0  0  0  0  0  0
  -28.0912  -18.7679   18.0190 F   0  0  0  0  0  0
  -31.4698  -12.5548   19.1478 H   0  0  0  0  0  0
  -30.3815  -11.4298   19.8999 H   0  0  0  0  0  0
  -29.7738  -11.7750   17.4847 H   0  0  0  0  0  0
  -29.6371  -13.4950   17.7435 H   0  0  0  0  0  0
  -27.8647  -11.3056   18.8675 H   0  0  0  0  0  0
  -27.3805  -12.5977   17.7966 H   0  0  0  0  0  0
  -27.6679  -14.2643   19.5290 H   0  0  0  0  0  0
  -28.7026  -12.0675   21.3841 H   0  0  0  0  0  0
  -28.4012  -13.7162   21.8369 H   0  0  0  0  0  0
  -25.2832   -9.5664   22.4650 H   0  0  0  0  0  0
  -24.0015   -7.4660   22.7441 H   0  0  0  0  0  0
  -21.0820   -8.8890   19.8980 H   0  0  0  0  0  0
  -22.3720  -10.9744   19.6193 H   0  0  0  0  0  0
  -21.2016   -7.6142   23.9695 H   0  0  0  0  0  0
  -21.1519   -6.0499   25.9039 H   0  0  0  0  0  0
  -22.0589   -2.7622   23.2788 H   0  0  0  0  0  0
  -22.4236  -12.0031   22.4913 H   0  0  0  0  0  0
  -21.1164  -13.1307   22.2727 H   0  0  0  0  0  0
  -24.6784  -15.8525   20.6183 H   0  0  0  0  0  0
  -26.3016  -15.6469   20.1933 H   0  0  0  0  0  0
  -26.7183  -32.5475   23.1088 H   0  0  0  0  0  0
  -25.0170  -33.9745   25.0495 H   0  0  0  0  0  0
  -22.7112  -31.3025   21.3990 H   0  0  0  0  0  0
  -23.3763  -35.9598   23.3315 H   0  0  0  0  0  0
  -24.3585  -36.8869   22.2045 H   0  0  0  0  0  0
  -23.7219  -37.6482   23.6628 H   0  0  0  0  0  0
  -26.0789  -31.5487   20.5983 H   0  0  0  0  0  0
  -26.8430  -30.8495   21.9926 H   0  0  0  0  0  0
  -28.1188  -28.9749   21.1781 H   0  0  0  0  0  0
  -25.9895  -25.8988   19.0431 H   0  0  0  0  0  0
  -23.9632  -27.2915   19.0298 H   0  0  0  0  0  0
  -23.7630  -30.5891   19.4031 H   0  0  0  0  0  0
  -22.7554  -29.2482   19.8526 H   0  0  0  0  0  0
  -25.1293  -36.1958   25.0838 H   0  0  0  0  0  0
  -20.9986  -28.3263   24.1400 H   0  0  0  0  0  0
  -20.5649  -26.2291   23.3607 H   0  0  0  0  0  0
  -21.6639  -26.7416   22.1214 H   0  0  0  0  0  0
  -19.6912  -25.6294   21.1237 H   0  0  0  0  0  0
  -19.6694  -27.3182   20.6726 H   0  0  0  0  0  0
  -17.4196  -26.6677   21.4028 H   0  0  0  0  0  0
  -18.0349  -26.0041   22.8995 H   0  0  0  0  0  0
  -19.7928  -30.7247   24.2314 H   0  0  0  0  0  0
  -17.5014  -31.6280   24.5143 H   0  0  0  0  0  0
  -15.5356  -30.3011   23.7628 H   0  0  0  0  0  0
  -15.8657  -28.0819   22.7098 H   0  0  0  0  0  0
  -24.5945  -30.7031   25.7752 H   0  0  0  0  0  0
  -24.8927  -32.2846   26.4874 H   0  0  0  0  0  0
  -25.8096  -30.8870   27.0180 H   0  0  0  0  0  0
  -26.2874  -29.6778   24.1124 H   0  0  0  0  0  0
  -27.4002  -29.7221   25.4605 H   0  0  0  0  0  0
  -27.8763  -30.4272   23.9329 H   0  0  0  0  0  0
  -27.2731  -33.3573   26.2074 H   0  0  0  0  0  0
  -28.3891  -32.6839   25.0293 H   0  0  0  0  0  0
  -28.0739  -31.8372   26.5368 H   0  0  0  0  0  0
  -28.2621  -38.0087   24.7501 H   0  0  0  0  0  0
  -28.1053  -36.2604   24.6330 H   0  0  0  0  0  0
  -27.2283  -37.1503   25.8879 H   0  0  0  0  0  0
  -20.9354  -29.8796   21.6902 H   0  0  0  0  0  0
  -26.0185  -38.2856   24.1418 H   0  0  0  0  0  0
  -30.2893  -18.0684   22.6846 H   0  0  0  0  0  0
  -29.5359  -20.2787   22.0796 H   0  0  0  0  0  0
  -28.9528  -16.5234   18.8904 H   0  0  0  0  0  0
  -29.3187  -15.8731   23.2850 H   0  0  0  0  0  0
  -31.0795  -16.0070   23.1311 H   0  0  0  0  0  0
  -30.2968  -14.4383   23.0667 H   0  0  0  0  0  0
  -26.3901  -20.0614   19.2607 H   0  0  0  0  0  0
  -27.0817  -21.0875   18.0021 H   0  0  0  0  0  0
  -26.2347  -21.7950   19.3753 H   0  0  0  0  0  0
  -27.2906  -23.7415   19.2419 H   0  0  0  0  0  0
  -29.0142  -23.8572   19.1146 H   0  0  0  0  0  0
  -27.6618  -22.3065   21.4164 H   0  0  0  0  0  0
  -29.3642  -22.3305   21.0550 H   0  0  0  0  0  0
  -28.9588  -25.0121   21.4541 H   0  0  0  0  0  0
  -27.2446  -25.0717   21.3254 H   0  0  0  0  0  0
  1 25  1  0  0  0
  1 30  2  0  0  0
  1 82  1  0  0  0
  2  3  1  0  0  0
  2 25  1  0  0  0
  2 85  1  0  0  0
  2 86  1  0  0  0
  3  4  1  0  0  0
  3 87  1  0  0  0
  3 88  1  0  0  0
  4  5  1  0  0  0
  4 89  1  0  0  0
  4 90  1  0  0  0
  5  6  1  0  0  0
  5 26  1  0  0  0
  5 91  1  0  0  0
  6 25  1  0  0  0
  6 92  1  0  0  0
  6 93  1  0  0  0
  7  8  2  0  0  0
  7 26  1  0  0  0
  7 29  1  0  0  0
  8  9  1  0  0  0
  8 22  1  0  0  0
  9 10  1  0  0  0
  9 27  2  0  0  0
 10 11  2  0  0  0
 10 15  1  0  0  0
 11 12  1  0  0  0
 11 94  1  0  0  0
 12 13  2  0  0  0
 12 95  1  0  0  0
 13 14  1  0  0  0
 13 31  1  0  0  0
 14 15  2  0  0  0
 14 96  1  0  0  0
 15 97  1  0  0  0
 16 17  2  0  0  0
 16 21  1  0  0  0
 16 31  1  0  0  0
 17 18  1  0  0  0
 17 98  1  0  0  0
 18 19  2  0  0  0
 18 99  1  0  0  0
 19 20  1  0  0  0
 19 24  1  0  0  0
 20 21  2  0  0  0
 20100  1  0  0  0
 21 23  1  0  0  0
 22 28  1  0  0  0
 22 32  2  0  0  0
 26 27  1  0  0  0
 28101  1  0  0  0
 28102  1  0  0  0
 29103  1  0  0  0
 29104  1  0  0  0
 33 34  1  0  0  0
 33 66  1  0  0  0
 33 70  2  0  0  0
 34 36  1  0  0  0
 34 59  1  0  0  0
 34105  1  0  0  0
 35 44  2  0  0  0
 35 45  1  0  0  0
 35 68  1  0  0  0
 36 56  1  0  0  0
 36106  1  0  0  0
 37 39  1  0  0  0
 37 47  1  0  0  0
 37 66  1  0  0  0
 37107  1  0  0  0
 38 43  2  0  0  0
 38 46  1  0  0  0
 38 47  1  0  0  0
 39 64  1  0  0  0
 39 67  2  0  0  0
 40 52  1  0  0  0
 40 53  2  0  0  0
 40 58  1  0  0  0
 41108  1  0  0  0
 41109  1  0  0  0
 41110  1  0  0  0
 41 48  1  0  0  0
 42 43  1  0  0  0
 42 66  1  0  0  0
 42111  1  0  0  0
 42112  1  0  0  0
 43 44  1  0  0  0
 44113  1  0  0  0
 45 46  2  0  0  0
 45114  1  0  0  0
 46115  1  0  0  0
 47116  1  0  0  0
 47117  1  0  0  0
 48 56  1  0  0  0
 48 65  1  0  0  0
 48118  1  0  0  0
 49 50  1  0  0  0
 49 53  1  0  0  0
 49 64  1  0  0  0
 49119  1  0  0  0
 50 51  1  0  0  0
 50120  1  0  0  0
 50121  1  0  0  0
 51 52  1  0  0  0
 51122  1  0  0  0
 51123  1  0  0  0
 52124  1  0  0  0
 52125  1  0  0  0
 53 54  1  0  0  0
 54 55  2  0  0  0
 54126  1  0  0  0
 55 57  1  0  0  0
 55127  1  0  0  0
 56 69  2  0  0  0
 57 58  2  0  0  0
 57128  1  0  0  0
 58129  1  0  0  0
 59 60  1  0  0  0
 59 61  1  0  0  0
 59 62  1  0  0  0
 60130  1  0  0  0
 60131  1  0  0  0
 60132  1  0  0  0
 61133  1  0  0  0
 61134  1  0  0  0
 61135  1  0  0  0
 62136  1  0  0  0
 62137  1  0  0  0
 62138  1  0  0  0
 63 65  1  0  0  0
 63139  1  0  0  0
 63140  1  0  0  0
 63141  1  0  0  0
 64142  1  0  0  0
 65143  1  0  0  0
 68 81  1  0  0  0
 71 72  2  0  0  0
 71 74  1  0  0  0
 71144  1  0  0  0
 72 75  1  0  0  0
 72145  1  0  0  0
 73 74  2  0  0  0
 73 76  1  0  0  0
 73146  1  0  0  0
 74 82  1  0  0  0
 75 76  2  0  0  0
 75 83  1  0  0  0
 76 84  1  0  0  0
 77 82  1  0  0  0
 77147  1  0  0  0
 77148  1  0  0  0
 77149  1  0  0  0
 78 83  1  0  0  0
 78150  1  0  0  0
 78151  1  0  0  0
 78152  1  0  0  0
 79 80  1  0  0  0
 79 81  1  0  0  0
 79153  1  0  0  0
 79154  1  0  0  0
 80 83  1  0  0  0
 80155  1  0  0  0
 80156  1  0  0  0
 81157  1  0  0  0
 81158  1  0  0  0
M  ISO  4   1 100  68 101  81 101  82 100
M  END
> <chiral flag>
0

> <version>
0

> <s_m_source_file>
/data/baiqing/PycharmProjects/Reinvent-master-3.2/result/LINK_invent/BTK/process_docking_weight1_custom_product_contain_oxygen_bond_distance_aromatic_linkinvent_7_9_3/rearranged_h_0016.sdf

> <i_m_source_file_index>
14

> <r_mmod_Potential_Energy-OPLS-2005>
298.814392089844

> <r_mmod_Stretch_Energy-OPLS-2005>
100.716773986816

> <r_mmod_Bend_Energy-OPLS-2005>
157.641067504883

> <r_mmod_Torsional_Energy-OPLS-2005>
292.392608642578

> <r_mmod_Improper_Torsional_Energy-OPLS-2005>
5.31196117401123

> <r_mmod_Van_der_Waal_Energy-OPLS-2005>
149.978576660156

> <r_mmod_Electrostatic_Energy-OPLS-2005>
-252.091934204102

> <r_mmod_Solvation_Energy-OPLS-2005>
-208.098175048828

> <b_mmod_Minimization_Converged-OPLS-2005>
0

> <r_mmod_RMS_Derivative-OPLS-2005>
3.74081015586853

$$$$
14
                    3D
 Structure written by MMmdl.
157165  0  0  1  0            999 V2000
  -30.6181  -14.6487   20.4978 C   0  0  0  0  0  0
  -30.4390  -12.3972   19.4540 C   0  0  0  0  0  0
  -29.5091  -12.5085   18.2249 C   0  0  0  0  0  0
  -28.0317  -12.3424   18.6347 C   0  0  0  0  0  0
  -27.6518  -13.2157   19.8600 C   0  0  2  0  0  0
  -28.6958  -13.0755   20.9912 C   0  0  0  0  0  0
  -25.2560  -13.8170   20.5684 C   0  0  0  0  0  0
  -24.1825  -13.0439   20.9196 C   0  0  0  0  0  0
  -24.6389  -11.6908   20.8739 C   0  0  0  0  0  0
  -23.9060  -10.4292   21.0398 C   0  0  0  0  0  0
  -24.3615   -9.4210   21.9176 C   0  0  0  0  0  0
  -23.6292   -8.2245   22.0749 C   0  0  0  0  0  0
  -22.4272   -8.0282   21.3546 C   0  0  0  0  0  0
  -21.9908   -9.0249   20.4643 C   0  0  0  0  0  0
  -22.7232  -10.2130   20.3048 C   0  0  0  0  0  0
  -21.6855   -6.0735   22.5280 C   0  0  0  0  0  0
  -21.4015   -6.5641   23.8215 C   0  0  0  0  0  0
  -21.3659   -5.6789   24.9176 C   0  0  0  0  0  0
  -21.6046   -4.3052   24.7224 C   0  0  0  0  0  0
  -21.8816   -3.8146   23.4345 C   0  0  0  0  0  0
  -21.9192   -4.6963   22.3404 C   0  0  0  0  0  0
  -22.7849  -13.5236   21.1852 C   0  0  0  0  0  0
  -22.1660   -4.2153   21.0982 F   0  0  0  0  0  0
  -21.5629   -3.4535   25.7736 F   0  0  0  0  0  0
  -30.0105  -13.4205   20.4286 N   0  0  0  0  0  0
  -26.2979  -12.9347   20.3291 N   0  0  0  0  0  0
  -25.9317  -11.6507   20.5740 N   0  0  0  0  0  0
  -22.0486  -12.8234   22.0408 N   0  0  0  0  0  0
  -25.4268  -15.1894   20.4103 N   0  0  0  0  0  0
  -31.7868  -14.7988   20.1296 O   0  0  0  0  0  0
  -21.6639   -6.8879   21.4242 O   0  0  0  0  0  0
  -22.3548  -14.5536   20.6679 O   0  0  0  0  0  0
  -24.6275  -31.8601   23.2020 C   0  0  0  0  0  0
  -25.9119  -32.4784   23.8355 C   0  0  1  0  0  0
  -27.2186  -27.3122   20.1168 C   0  0  0  0  0  0
  -25.5931  -33.8577   24.2282 N   0  0  0  0  0  0
  -23.4210  -30.4860   21.5448 C   0  0  2  0  0  0
  -24.8664  -28.9444   20.1068 C   0  0  0  0  0  0
  -22.7483  -29.4632   22.4916 C   0  0  0  0  0  0
  -18.0291  -28.1388   22.8482 C   0  0  0  0  0  0
  -24.1479  -36.7286   23.2642 C   0  0  0  0  0  0
  -25.9636  -30.7885   21.3751 C   0  0  0  0  0  0
  -26.0369  -29.4170   20.7142 C   0  0  0  0  0  0
  -27.2165  -28.6133   20.7094 C   0  0  0  0  0  0
  -26.0282  -26.9037   19.4713 C   0  0  0  0  0  0
  -24.8651  -27.6932   19.4749 C   0  0  0  0  0  0
  -23.6353  -29.8255   20.1582 C   0  0  0  0  0  0
  -25.4105  -36.3084   24.0335 C   0  0  1  0  0  0
  -20.5891  -28.3697   23.1263 C   0  0  2  0  0  0
  -20.6776  -26.9416   22.5395 C   0  0  0  0  0  0
  -19.5748  -26.6386   21.5201 C   0  0  0  0  0  0
  -18.1934  -26.7932   22.1620 C   0  0  0  0  0  0
  -19.1545  -28.8856   23.2877 C   0  0  0  0  0  0
  -18.9470  -30.1460   23.8896 C   0  0  0  0  0  0
  -17.6471  -30.6593   24.0564 C   0  0  0  0  0  0
  -25.9044  -34.9454   23.5108 C   0  0  0  0  0  0
  -16.5360  -29.9091   23.6331 C   0  0  0  0  0  0
  -16.7279  -28.6504   23.0354 C   0  0  0  0  0  0
  -26.4494  -31.6598   25.0734 C   0  0  0  0  0  0
  -25.3720  -31.3740   26.1459 C   0  0  0  0  0  0
  -27.0351  -30.3023   24.6204 C   0  0  0  0  0  0
  -27.6055  -32.4327   25.7510 C   0  0  0  0  0  0
  -27.5573  -37.1802   24.8472 C   0  0  0  0  0  0
  -21.4191  -29.3056   22.3664 N   0  0  0  0  0  0
  -26.4283  -37.3782   23.9417 N   0  0  0  0  0  0
  -24.6895  -31.0613   22.0972 N   0  0  0  0  0  0
  -23.4202  -28.8169   23.2995 O   0  0  0  0  0  0
  -28.3176  -26.4352   20.1875 O   0  0  0  0  0  0
  -26.5609  -34.8920   22.4672 O   0  0  0  0  0  0
  -23.5433  -32.1386   23.7347 O   0  0  0  0  0  0
  -31.2047  -19.2754   20.4225 C   0  0  0  0  0  0
  -28.8504  -19.4240   20.8623 C   0  0  0  0  0  0
  -31.1477  -17.8509   20.4625 C   0  0  0  0  0  0
  -28.7910  -17.9942   20.9020 C   0  0  0  0  0  0
  -30.0702  -20.1104   20.6333 C   0  0  0  0  0  0
  -29.9346  -17.1611   20.7160 C   0  0  0  0  0  0
  -29.3062  -24.0253   20.3323 C   0  0  0  0  0  0
  -30.8991  -21.9601   22.1246 C   0  0  0  0  0  0
  -27.2644  -24.7494   21.6625 C   0  0  0  0  0  0
  -30.2809  -21.6735   20.7422 C   0  0  2  0  0  0
  -28.0395  -24.9738   20.3450 C   0  0  1  0  0  0
  -29.7976  -15.7022   20.8194 N   0  0  0  0  0  0
  -29.1699  -22.6623   20.5033 N   0  0  0  0  0  0
  -30.4188  -24.5373   20.1860 O   0  0  0  0  0  0
  -31.4795  -12.5250   19.1505 H   0  0  0  0  0  0
  -30.3785  -11.4017   19.8962 H   0  0  0  0  0  0
  -29.7768  -11.7589   17.4792 H   0  0  0  0  0  0
  -29.6494  -13.4793   17.7465 H   0  0  0  0  0  0
  -27.8701  -11.2892   18.8679 H   0  0  0  0  0  0
  -27.3781  -12.5680   17.7917 H   0  0  0  0  0  0
  -27.6675  -14.2494   19.5155 H   0  0  0  0  0  0
  -28.7096  -12.0542   21.3751 H   0  0  0  0  0  0
  -28.4391  -13.7090   21.8420 H   0  0  0  0  0  0
  -25.2757   -9.5692   22.4754 H   0  0  0  0  0  0
  -24.0000   -7.4640   22.7472 H   0  0  0  0  0  0
  -21.0841   -8.8765   19.8955 H   0  0  0  0  0  0
  -22.3685  -10.9666   19.6160 H   0  0  0  0  0  0
  -21.2009   -7.6149   23.9723 H   0  0  0  0  0  0
  -21.1486   -6.0519   25.9080 H   0  0  0  0  0  0
  -22.0597   -2.7608   23.2843 H   0  0  0  0  0  0
  -22.4087  -11.9899   22.4819 H   0  0  0  0  0  0
  -21.1099  -13.1262   22.2594 H   0  0  0  0  0  0
  -24.6554  -15.8394   20.5190 H   0  0  0  0  0  0
  -26.2650  -15.6268   20.0503 H   0  0  0  0  0  0
  -26.7197  -32.5447   23.1111 H   0  0  0  0  0  0
  -25.0107  -33.9717   25.0449 H   0  0  0  0  0  0
  -22.7154  -31.3073   21.4039 H   0  0  0  0  0  0
  -23.3747  -35.9618   23.3316 H   0  0  0  0  0  0
  -24.3565  -36.8886   22.2055 H   0  0  0  0  0  0
  -23.7226  -37.6488   23.6648 H   0  0  0  0  0  0
  -26.0985  -31.5527   20.6080 H   0  0  0  0  0  0
  -26.8428  -30.8330   22.0063 H   0  0  0  0  0  0
  -28.1102  -28.9685   21.2026 H   0  0  0  0  0  0
  -25.9596  -25.9549   18.9643 H   0  0  0  0  0  0
  -23.9707  -27.3282   18.9877 H   0  0  0  0  0  0
  -23.7536  -30.6042   19.4033 H   0  0  0  0  0  0
  -22.7545  -29.2565   19.8557 H   0  0  0  0  0  0
  -25.1287  -36.1939   25.0830 H   0  0  0  0  0  0
  -20.9997  -28.3276   24.1379 H   0  0  0  0  0  0
  -20.5658  -26.2316   23.3602 H   0  0  0  0  0  0
  -21.6650  -26.7429   22.1206 H   0  0  0  0  0  0
  -19.6905  -25.6292   21.1240 H   0  0  0  0  0  0
  -19.6690  -27.3190   20.6726 H   0  0  0  0  0  0
  -17.4201  -26.6677   21.4029 H   0  0  0  0  0  0
  -18.0345  -26.0076   22.9019 H   0  0  0  0  0  0
  -19.7946  -30.7275   24.2270 H   0  0  0  0  0  0
  -17.5025  -31.6273   24.5167 H   0  0  0  0  0  0
  -15.5360  -30.2998   23.7647 H   0  0  0  0  0  0
  -15.8676  -28.0822   22.7070 H   0  0  0  0  0  0
  -24.5903  -30.7079   25.7792 H   0  0  0  0  0  0
  -24.8906  -32.2907   26.4869 H   0  0  0  0  0  0
  -25.8038  -30.8934   27.0247 H   0  0  0  0  0  0
  -26.2936  -29.6759   24.1228 H   0  0  0  0  0  0
  -27.4053  -29.7292   25.4718 H   0  0  0  0  0  0
  -27.8801  -30.4318   23.9435 H   0  0  0  0  0  0
  -27.2675  -33.3634   26.2078 H   0  0  0  0  0  0
  -28.3877  -32.6868   25.0346 H   0  0  0  0  0  0
  -28.0710  -31.8455   26.5435 H   0  0  0  0  0  0
  -28.2608  -38.0084   24.7513 H   0  0  0  0  0  0
  -28.1048  -36.2615   24.6307 H   0  0  0  0  0  0
  -27.2289  -37.1470   25.8874 H   0  0  0  0  0  0
  -20.9357  -29.8801   21.6900 H   0  0  0  0  0  0
  -26.0163  -38.2858   24.1415 H   0  0  0  0  0  0
  -32.1684  -19.7391   20.2629 H   0  0  0  0  0  0
  -27.9494  -19.9912   21.0487 H   0  0  0  0  0  0
  -32.0650  -17.2993   20.3184 H   0  0  0  0  0  0
  -27.8317  -17.5358   21.0992 H   0  0  0  0  0  0
  -31.8048  -21.3748   22.2824 H   0  0  0  0  0  0
  -30.2023  -21.7055   22.9232 H   0  0  0  0  0  0
  -31.1778  -23.0066   22.2464 H   0  0  0  0  0  0
  -27.0656  -23.6929   21.8458 H   0  0  0  0  0  0
  -26.2956  -25.2472   21.6591 H   0  0  0  0  0  0
  -27.8284  -25.1319   22.5132 H   0  0  0  0  0  0
  -31.0394  -21.9088   19.9933 H   0  0  0  0  0  0
  -27.4474  -24.6164   19.5051 H   0  0  0  0  0  0
  -28.8772  -15.3905   21.0886 H   0  0  0  0  0  0
  -28.2276  -22.3053   20.5753 H   0  0  0  0  0  0
  1 25  1  0  0  0
  1 30  2  0  0  0
  1 82  1  0  0  0
  2  3  1  0  0  0
  2 25  1  0  0  0
  2 85  1  0  0  0
  2 86  1  0  0  0
  3  4  1  0  0  0
  3 87  1  0  0  0
  3 88  1  0  0  0
  4  5  1  0  0  0
  4 89  1  0  0  0
  4 90  1  0  0  0
  5  6  1  0  0  0
  5 26  1  0  0  0
  5 91  1  0  0  0
  6 25  1  0  0  0
  6 92  1  0  0  0
  6 93  1  0  0  0
  7  8  2  0  0  0
  7 26  1  0  0  0
  7 29  1  0  0  0
  8  9  1  0  0  0
  8 22  1  0  0  0
  9 10  1  0  0  0
  9 27  2  0  0  0
 10 11  2  0  0  0
 10 15  1  0  0  0
 11 12  1  0  0  0
 11 94  1  0  0  0
 12 13  2  0  0  0
 12 95  1  0  0  0
 13 14  1  0  0  0
 13 31  1  0  0  0
 14 15  2  0  0  0
 14 96  1  0  0  0
 15 97  1  0  0  0
 16 17  2  0  0  0
 16 21  1  0  0  0
 16 31  1  0  0  0
 17 18  1  0  0  0
 17 98  1  0  0  0
 18 19  2  0  0  0
 18 99  1  0  0  0
 19 20  1  0  0  0
 19 24  1  0  0  0
 20 21  2  0  0  0
 20100  1  0  0  0
 21 23  1  0  0  0
 22 28  1  0  0  0
 22 32  2  0  0  0
 26 27  1  0  0  0
 28101  1  0  0  0
 28102  1  0  0  0
 29103  1  0  0  0
 29104  1  0  0  0
 33 34  1  0  0  0
 33 66  1  0  0  0
 33 70  2  0  0  0
 34 36  1  0  0  0
 34 59  1  0  0  0
 34105  1  0  0  0
 35 44  2  0  0  0
 35 45  1  0  0  0
 35 68  1  0  0  0
 36 56  1  0  0  0
 36106  1  0  0  0
 37 39  1  0  0  0
 37 47  1  0  0  0
 37 66  1  0  0  0
 37107  1  0  0  0
 38 43  2  0  0  0
 38 46  1  0  0  0
 38 47  1  0  0  0
 39 64  1  0  0  0
 39 67  2  0  0  0
 40 52  1  0  0  0
 40 53  2  0  0  0
 40 58  1  0  0  0
 41108  1  0  0  0
 41109  1  0  0  0
 41110  1  0  0  0
 41 48  1  0  0  0
 42 43  1  0  0  0
 42 66  1  0  0  0
 42111  1  0  0  0
 42112  1  0  0  0
 43 44  1  0  0  0
 44113  1  0  0  0
 45 46  2  0  0  0
 45114  1  0  0  0
 46115  1  0  0  0
 47116  1  0  0  0
 47117  1  0  0  0
 48 56  1  0  0  0
 48 65  1  0  0  0
 48118  1  0  0  0
 49 50  1  0  0  0
 49 53  1  0  0  0
 49 64  1  0  0  0
 49119  1  0  0  0
 50 51  1  0  0  0
 50120  1  0  0  0
 50121  1  0  0  0
 51 52  1  0  0  0
 51122  1  0  0  0
 51123  1  0  0  0
 52124  1  0  0  0
 52125  1  0  0  0
 53 54  1  0  0  0
 54 55  2  0  0  0
 54126  1  0  0  0
 55 57  1  0  0  0
 55127  1  0  0  0
 56 69  2  0  0  0
 57 58  2  0  0  0
 57128  1  0  0  0
 58129  1  0  0  0
 59 60  1  0  0  0
 59 61  1  0  0  0
 59 62  1  0  0  0
 60130  1  0  0  0
 60131  1  0  0  0
 60132  1  0  0  0
 61133  1  0  0  0
 61134  1  0  0  0
 61135  1  0  0  0
 62136  1  0  0  0
 62137  1  0  0  0
 62138  1  0  0  0
 63 65  1  0  0  0
 63139  1  0  0  0
 63140  1  0  0  0
 63141  1  0  0  0
 64142  1  0  0  0
 65143  1  0  0  0
 68 81  1  0  0  0
 71 73  2  0  0  0
 71 75  1  0  0  0
 71144  1  0  0  0
 72 74  1  0  0  0
 72 75  2  0  0  0
 72145  1  0  0  0
 73 76  1  0  0  0
 73146  1  0  0  0
 74 76  2  0  0  0
 74147  1  0  0  0
 75 80  1  0  0  0
 76 82  1  0  0  0
 77 81  1  0  0  0
 77 83  1  0  0  0
 77 84  2  0  0  0
 78148  1  0  0  0
 78149  1  0  0  0
 78150  1  0  0  0
 78 80  1  0  0  0
 79151  1  0  0  0
 79152  1  0  0  0
 79153  1  0  0  0
 79 81  1  0  0  0
 80 83  1  0  0  0
 80154  1  0  0  0
 81155  1  0  0  0
 82156  1  0  0  0
 83157  1  0  0  0
M  ISO  4   1 100  68 101  81 101  82 100
M  END
> <chiral flag>
0

> <version>
0

> <s_m_source_file>
/data/baiqing/PycharmProjects/Reinvent-master-3.2/result/LINK_invent/BTK/process_docking_weight1_custom_product_contain_oxygen_bond_distance_aromatic_linkinvent_7_9_3/rearranged_h_0016.sdf

> <i_m_source_file_index>
15

> <r_mmod_Potential_Energy-OPLS-2005>
-7.39430379867554

> <r_mmod_Stretch_Energy-OPLS-2005>
85.6734161376953

> <r_mmod_Bend_Energy-OPLS-2005>
141.272415161133

> <r_mmod_Torsional_Energy-OPLS-2005>
219.254257202148

> <r_mmod_Improper_Torsional_Energy-OPLS-2005>
4.99606466293335

> <r_mmod_Van_der_Waal_Energy-OPLS-2005>
147.355361938477

> <r_mmod_Electrostatic_Energy-OPLS-2005>
-422.896789550781

> <r_mmod_Solvation_Energy-OPLS-2005>
-236.955230712891

> <b_mmod_Minimization_Converged-OPLS-2005>
0

> <r_mmod_RMS_Derivative-OPLS-2005>
1.30105698108673

$$$$
15
                    3D
 Structure written by MMmdl.
172180  0  0  1  0            999 V2000
  -30.6520  -14.5865   20.3723 C   0  0  0  0  0  0
  -30.4246  -12.3205   19.4389 C   0  0  0  0  0  0
  -29.4791  -12.3600   18.2159 C   0  0  0  0  0  0
  -28.0049  -12.2714   18.6499 C   0  0  0  0  0  0
  -27.6417  -13.2006   19.8410 C   0  0  2  0  0  0
  -28.6975  -13.1208   20.9663 C   0  0  0  0  0  0
  -25.2562  -13.8150   20.5723 C   0  0  0  0  0  0
  -24.1813  -13.0443   20.9199 C   0  0  0  0  0  0
  -24.6353  -11.6901   20.8780 C   0  0  0  0  0  0
  -23.9030  -10.4298   21.0432 C   0  0  0  0  0  0
  -24.3607   -9.4213   21.9193 C   0  0  0  0  0  0
  -23.6298   -8.2241   22.0749 C   0  0  0  0  0  0
  -22.4276   -8.0280   21.3545 C   0  0  0  0  0  0
  -21.9909   -9.0243   20.4639 C   0  0  0  0  0  0
  -22.7218  -10.2131   20.3064 C   0  0  0  0  0  0
  -21.6858   -6.0731   22.5272 C   0  0  0  0  0  0
  -21.4003   -6.5637   23.8205 C   0  0  0  0  0  0
  -21.3657   -5.6787   24.9168 C   0  0  0  0  0  0
  -21.6047   -4.3051   24.7215 C   0  0  0  0  0  0
  -21.8823   -3.8142   23.4339 C   0  0  0  0  0  0
  -21.9192   -4.6956   22.3393 C   0  0  0  0  0  0
  -22.7841  -13.5246   21.1855 C   0  0  0  0  0  0
  -22.1671   -4.2147   21.0972 F   0  0  0  0  0  0
  -21.5641   -3.4539   25.7731 F   0  0  0  0  0  0
  -30.0090  -13.3856   20.3641 N   0  0  0  0  0  0
  -26.2949  -12.9297   20.3327 N   0  0  0  0  0  0
  -25.9277  -11.6475   20.5840 N   0  0  0  0  0  0
  -22.0490  -12.8241   22.0413 N   0  0  0  0  0  0
  -25.4322  -15.1865   20.4174 N   0  0  0  0  0  0
  -31.8802  -14.6670   20.2726 O   0  0  0  0  0  0
  -21.6643   -6.8875   21.4238 O   0  0  0  0  0  0
  -22.3519  -14.5543   20.6693 O   0  0  0  0  0  0
  -24.6145  -31.8666   23.2088 C   0  0  0  0  0  0
  -25.9030  -32.4821   23.8391 C   0  0  1  0  0  0
  -27.2356  -27.4208   20.1169 C   0  0  0  0  0  0
  -25.5880  -33.8617   24.2327 N   0  0  0  0  0  0
  -23.4055  -30.4875   21.5461 C   0  0  2  0  0  0
  -24.8583  -28.9523   20.1106 C   0  0  0  0  0  0
  -22.7430  -29.4634   22.4962 C   0  0  0  0  0  0
  -18.0278  -28.1379   22.8488 C   0  0  0  0  0  0
  -24.1486  -36.7314   23.2641 C   0  0  0  0  0  0
  -25.9339  -30.8313   21.3625 C   0  0  0  0  0  0
  -26.0158  -29.4627   20.7127 C   0  0  0  0  0  0
  -27.2108  -28.7043   20.7123 C   0  0  0  0  0  0
  -26.0692  -26.9302   19.4996 C   0  0  0  0  0  0
  -24.8801  -27.6860   19.4992 C   0  0  0  0  0  0
  -23.6180  -29.8172   20.1609 C   0  0  0  0  0  0
  -25.4104  -36.3116   24.0343 C   0  0  1  0  0  0
  -20.5873  -28.3662   23.1318 C   0  0  2  0  0  0
  -20.6760  -26.9393   22.5420 C   0  0  0  0  0  0
  -19.5741  -26.6383   21.5218 C   0  0  0  0  0  0
  -18.1921  -26.7921   22.1627 C   0  0  0  0  0  0
  -19.1529  -28.8836   23.2900 C   0  0  0  0  0  0
  -18.9453  -30.1444   23.8912 C   0  0  0  0  0  0
  -17.6454  -30.6580   24.0565 C   0  0  0  0  0  0
  -25.9026  -34.9478   23.5131 C   0  0  0  0  0  0
  -16.5345  -29.9084   23.6323 C   0  0  0  0  0  0
  -16.7267  -28.6502   23.0339 C   0  0  0  0  0  0
  -26.4462  -31.6595   25.0714 C   0  0  0  0  0  0
  -25.3737  -31.3691   26.1469 C   0  0  0  0  0  0
  -27.0288  -30.3044   24.6066 C   0  0  0  0  0  0
  -27.6044  -32.4312   25.7467 C   0  0  0  0  0  0
  -27.5582  -37.1808   24.8470 C   0  0  0  0  0  0
  -21.4155  -29.3036   22.3725 N   0  0  0  0  0  0
  -26.4298  -37.3797   23.9407 N   0  0  0  0  0  0
  -24.6692  -31.0763   22.0985 N   0  0  0  0  0  0
  -23.4197  -28.8187   23.3022 O   0  0  0  0  0  0
  -28.3604  -26.6246   20.1557 O   0  0  0  0  0  0
  -26.5597  -34.8926   22.4702 O   0  0  0  0  0  0
  -23.5329  -32.1417   23.7470 O   0  0  0  0  0  0
  -28.0801  -18.8290   20.1340 C   0  0  0  0  0  0
  -30.1732  -19.0239   21.3371 C   0  0  0  0  0  0
  -28.3348  -17.4553   19.9276 C   0  0  0  0  0  0
  -30.4287  -17.6413   21.1380 C   0  0  0  0  0  0
  -29.0133  -19.6459   20.8079 C   0  0  0  0  0  0
  -29.5330  -16.8485   20.3824 C   0  0  0  0  0  0
  -27.7959  -23.1870   21.9300 C   0  0  0  0  0  0
  -27.6381  -18.9665   24.1305 C   0  0  0  0  0  0
  -29.0753  -21.0113   24.3427 C   0  0  0  0  0  0
  -26.7141  -21.0208   25.1668 C   0  0  0  0  0  0
  -30.0530  -15.7131   18.3374 C   0  0  0  0  0  0
  -28.8373  -21.1861   20.8292 C   0  0  0  0  0  0
  -28.3096  -24.1596   20.8247 C   0  0  0  0  0  0
  -27.0851  -20.9453   22.6561 C   0  0  0  0  0  0
  -28.3613  -25.6705   21.2439 C   0  0  0  0  0  0
  -27.6454  -20.5070   24.0510 C   0  0  0  0  0  0
  -29.9079  -15.5841   19.8008 N   0  0  0  0  0  0
  -27.9443  -21.8276   21.8292 N   0  0  0  0  0  0
  -27.1785  -23.6818   22.8785 O   0  0  0  0  0  0
  -31.4598  -12.4373   19.1131 H   0  0  0  0  0  0
  -30.3681  -11.3529   19.9400 H   0  0  0  0  0  0
  -29.7084  -11.5252   17.5530 H   0  0  0  0  0  0
  -29.6316  -13.2454   17.6098 H   0  0  0  0  0  0
  -27.8292  -11.2322   18.9319 H   0  0  0  0  0  0
  -27.3446  -12.4621   17.8046 H   0  0  0  0  0  0
  -27.6373  -14.2152   19.4451 H   0  0  0  0  0  0
  -28.6921  -12.1399   21.4429 H   0  0  0  0  0  0
  -28.4783  -13.8507   21.7482 H   0  0  0  0  0  0
  -25.2764   -9.5687   22.4760 H   0  0  0  0  0  0
  -24.0022   -7.4615   22.7455 H   0  0  0  0  0  0
  -21.0851   -8.8743   19.8934 H   0  0  0  0  0  0
  -22.3674  -10.9673   19.6181 H   0  0  0  0  0  0
  -21.1995   -7.6143   23.9706 H   0  0  0  0  0  0
  -21.1490   -6.0525   25.9074 H   0  0  0  0  0  0
  -22.0605   -2.7607   23.2829 H   0  0  0  0  0  0
  -22.4132  -11.9899   22.4783 H   0  0  0  0  0  0
  -21.1093  -13.1224   22.2606 H   0  0  0  0  0  0
  -24.6825  -15.8535   20.5621 H   0  0  0  0  0  0
  -26.3157  -15.6218   20.1908 H   0  0  0  0  0  0
  -26.7106  -32.5546   23.1165 H   0  0  0  0  0  0
  -25.0049  -33.9780   25.0481 H   0  0  0  0  0  0
  -22.6949  -31.3043   21.4040 H   0  0  0  0  0  0
  -23.3748  -35.9649   23.3327 H   0  0  0  0  0  0
  -24.3588  -36.8901   22.2053 H   0  0  0  0  0  0
  -23.7242  -37.6526   23.6640 H   0  0  0  0  0  0
  -26.0441  -31.5951   20.5914 H   0  0  0  0  0  0
  -26.8226  -30.8910   21.9788 H   0  0  0  0  0  0
  -28.1029  -29.0879   21.1870 H   0  0  0  0  0  0
  -26.0794  -25.9554   19.0337 H   0  0  0  0  0  0
  -23.9911  -27.2866   19.0323 H   0  0  0  0  0  0
  -23.7294  -30.5922   19.4021 H   0  0  0  0  0  0
  -22.7431  -29.2363   19.8636 H   0  0  0  0  0  0
  -25.1279  -36.1990   25.0838 H   0  0  0  0  0  0
  -20.9962  -28.3226   24.1444 H   0  0  0  0  0  0
  -20.5663  -26.2269   23.3609 H   0  0  0  0  0  0
  -21.6625  -26.7429   22.1214 H   0  0  0  0  0  0
  -19.6898  -25.6307   21.1230 H   0  0  0  0  0  0
  -19.6678  -27.3207   20.6765 H   0  0  0  0  0  0
  -17.4187  -26.6686   21.4030 H   0  0  0  0  0  0
  -18.0312  -26.0058   22.9019 H   0  0  0  0  0  0
  -19.7927  -30.7261   24.2282 H   0  0  0  0  0  0
  -17.5004  -31.6260   24.5172 H   0  0  0  0  0  0
  -15.5346  -30.2986   23.7636 H   0  0  0  0  0  0
  -15.8670  -28.0832   22.7033 H   0  0  0  0  0  0
  -24.5913  -30.7031   25.7817 H   0  0  0  0  0  0
  -24.8914  -32.2831   26.4938 H   0  0  0  0  0  0
  -25.8091  -30.8857   27.0219 H   0  0  0  0  0  0
  -26.2817  -29.6815   24.1130 H   0  0  0  0  0  0
  -27.4093  -29.7271   25.4501 H   0  0  0  0  0  0
  -27.8638  -30.4388   23.9187 H   0  0  0  0  0  0
  -27.2675  -33.3607   26.2068 H   0  0  0  0  0  0
  -28.3828  -32.6876   25.0272 H   0  0  0  0  0  0
  -28.0736  -31.8420   26.5355 H   0  0  0  0  0  0
  -28.2610  -38.0095   24.7500 H   0  0  0  0  0  0
  -28.1061  -36.2622   24.6310 H   0  0  0  0  0  0
  -27.2298  -37.1479   25.8875 H   0  0  0  0  0  0
  -20.9318  -29.8778   21.6959 H   0  0  0  0  0  0
  -26.0193  -38.2881   24.1397 H   0  0  0  0  0  0
  -27.1916  -19.2706   19.7042 H   0  0  0  0  0  0
  -30.9141  -19.6223   21.8460 H   0  0  0  0  0  0
  -27.6452  -16.8942   19.3125 H   0  0  0  0  0  0
  -31.3716  -17.2325   21.4697 H   0  0  0  0  0  0
  -27.9904  -18.6070   25.0985 H   0  0  0  0  0  0
  -28.2774  -18.5219   23.3686 H   0  0  0  0  0  0
  -26.6355  -18.5639   23.9813 H   0  0  0  0  0  0
  -29.4215  -20.6715   25.3198 H   0  0  0  0  0  0
  -29.1297  -22.1002   24.3466 H   0  0  0  0  0  0
  -29.7921  -20.6454   23.6104 H   0  0  0  0  0  0
  -27.0647  -20.7094   26.1518 H   0  0  0  0  0  0
  -25.6987  -20.6366   25.0554 H   0  0  0  0  0  0
  -26.6522  -22.1100   25.1705 H   0  0  0  0  0  0
  -30.3183  -16.7341   18.0528 H   0  0  0  0  0  0
  -29.1127  -15.4738   17.8413 H   0  0  0  0  0  0
  -30.8344  -15.0800   17.9135 H   0  0  0  0  0  0
  -28.4948  -21.4850   19.8357 H   0  0  0  0  0  0
  -29.8303  -21.6229   20.9380 H   0  0  0  0  0  0
  -27.6284  -24.0542   19.9799 H   0  0  0  0  0  0
  -29.2946  -23.8543   20.4761 H   0  0  0  0  0  0
  -26.1192  -21.4359   22.7958 H   0  0  0  0  0  0
  -26.7889  -20.0754   22.0757 H   0  0  0  0  0  0
  -29.2774  -25.8373   21.8123 H   0  0  0  0  0  0
  -27.5552  -25.9119   21.9408 H   0  0  0  0  0  0
  1 25  1  0  0  0
  1 30  2  0  0  0
  1 87  1  0  0  0
  2  3  1  0  0  0
  2 25  1  0  0  0
  2 90  1  0  0  0
  2 91  1  0  0  0
  3  4  1  0  0  0
  3 92  1  0  0  0
  3 93  1  0  0  0
  4  5  1  0  0  0
  4 94  1  0  0  0
  4 95  1  0  0  0
  5  6  1  0  0  0
  5 26  1  0  0  0
  5 96  1  0  0  0
  6 25  1  0  0  0
  6 97  1  0  0  0
  6 98  1  0  0  0
  7  8  2  0  0  0
  7 26  1  0  0  0
  7 29  1  0  0  0
  8  9  1  0  0  0
  8 22  1  0  0  0
  9 10  1  0  0  0
  9 27  2  0  0  0
 10 11  2  0  0  0
 10 15  1  0  0  0
 11 12  1  0  0  0
 11 99  1  0  0  0
 12 13  2  0  0  0
 12100  1  0  0  0
 13 14  1  0  0  0
 13 31  1  0  0  0
 14 15  2  0  0  0
 14101  1  0  0  0
 15102  1  0  0  0
 16 17  2  0  0  0
 16 21  1  0  0  0
 16 31  1  0  0  0
 17 18  1  0  0  0
 17103  1  0  0  0
 18 19  2  0  0  0
 18104  1  0  0  0
 19 20  1  0  0  0
 19 24  1  0  0  0
 20 21  2  0  0  0
 20105  1  0  0  0
 21 23  1  0  0  0
 22 28  1  0  0  0
 22 32  2  0  0  0
 26 27  1  0  0  0
 28106  1  0  0  0
 28107  1  0  0  0
 29108  1  0  0  0
 29109  1  0  0  0
 33 34  1  0  0  0
 33 66  1  0  0  0
 33 70  2  0  0  0
 34 36  1  0  0  0
 34 59  1  0  0  0
 34110  1  0  0  0
 35 44  2  0  0  0
 35 45  1  0  0  0
 35 68  1  0  0  0
 36 56  1  0  0  0
 36111  1  0  0  0
 37 39  1  0  0  0
 37 47  1  0  0  0
 37 66  1  0  0  0
 37112  1  0  0  0
 38 43  2  0  0  0
 38 46  1  0  0  0
 38 47  1  0  0  0
 39 64  1  0  0  0
 39 67  2  0  0  0
 40 52  1  0  0  0
 40 53  2  0  0  0
 40 58  1  0  0  0
 41113  1  0  0  0
 41114  1  0  0  0
 41115  1  0  0  0
 41 48  1  0  0  0
 42 43  1  0  0  0
 42 66  1  0  0  0
 42116  1  0  0  0
 42117  1  0  0  0
 43 44  1  0  0  0
 44118  1  0  0  0
 45 46  2  0  0  0
 45119  1  0  0  0
 46120  1  0  0  0
 47121  1  0  0  0
 47122  1  0  0  0
 48 56  1  0  0  0
 48 65  1  0  0  0
 48123  1  0  0  0
 49 50  1  0  0  0
 49 53  1  0  0  0
 49 64  1  0  0  0
 49124  1  0  0  0
 50 51  1  0  0  0
 50125  1  0  0  0
 50126  1  0  0  0
 51 52  1  0  0  0
 51127  1  0  0  0
 51128  1  0  0  0
 52129  1  0  0  0
 52130  1  0  0  0
 53 54  1  0  0  0
 54 55  2  0  0  0
 54131  1  0  0  0
 55 57  1  0  0  0
 55132  1  0  0  0
 56 69  2  0  0  0
 57 58  2  0  0  0
 57133  1  0  0  0
 58134  1  0  0  0
 59 60  1  0  0  0
 59 61  1  0  0  0
 59 62  1  0  0  0
 60135  1  0  0  0
 60136  1  0  0  0
 60137  1  0  0  0
 61138  1  0  0  0
 61139  1  0  0  0
 61140  1  0  0  0
 62141  1  0  0  0
 62142  1  0  0  0
 62143  1  0  0  0
 63 65  1  0  0  0
 63144  1  0  0  0
 63145  1  0  0  0
 63146  1  0  0  0
 64147  1  0  0  0
 65148  1  0  0  0
 68 85  1  0  0  0
 71 73  2  0  0  0
 71 75  1  0  0  0
 71149  1  0  0  0
 72 74  1  0  0  0
 72 75  2  0  0  0
 72150  1  0  0  0
 73 76  1  0  0  0
 73151  1  0  0  0
 74 76  2  0  0  0
 74152  1  0  0  0
 75 82  1  0  0  0
 76 87  1  0  0  0
 77 83  1  0  0  0
 77 88  1  0  0  0
 77 89  2  0  0  0
 78153  1  0  0  0
 78154  1  0  0  0
 78155  1  0  0  0
 78 86  1  0  0  0
 79 86  1  0  0  0
 79156  1  0  0  0
 79157  1  0  0  0
 79158  1  0  0  0
 80 86  1  0  0  0
 80159  1  0  0  0
 80160  1  0  0  0
 80161  1  0  0  0
 81 87  1  0  0  0
 81162  1  0  0  0
 81163  1  0  0  0
 81164  1  0  0  0
 82 88  1  0  0  0
 82165  1  0  0  0
 82166  1  0  0  0
 83 85  1  0  0  0
 83167  1  0  0  0
 83168  1  0  0  0
 84 86  1  0  0  0
 84 88  1  0  0  0
 84169  1  0  0  0
 84170  1  0  0  0
 85171  1  0  0  0
 85172  1  0  0  0
M  ISO  4   1 100  68 101  85 101  87 100
M  END
> <chiral flag>
0

> <version>
0

> <s_m_source_file>
/data/baiqing/PycharmProjects/Reinvent-master-3.2/result/LINK_invent/BTK/process_docking_weight1_custom_product_contain_oxygen_bond_distance_aromatic_linkinvent_7_9_3/rearranged_h_0016.sdf

> <i_m_source_file_index>
16

> <r_mmod_Potential_Energy-OPLS-2005>
286.839874267578

> <r_mmod_Stretch_Energy-OPLS-2005>
54.7413482666016

> <r_mmod_Bend_Energy-OPLS-2005>
129.462600708008

> <r_mmod_Torsional_Energy-OPLS-2005>
408.256774902344

> <r_mmod_Improper_Torsional_Energy-OPLS-2005>
31.0654964447021

> <r_mmod_Van_der_Waal_Energy-OPLS-2005>
154.836334228516

> <r_mmod_Electrostatic_Energy-OPLS-2005>
-333.570007324219

> <r_mmod_Solvation_Energy-OPLS-2005>
-202.227325439453

> <b_mmod_Minimization_Converged-OPLS-2005>
0

> <r_mmod_RMS_Derivative-OPLS-2005>
2.3757688999176

$$$$
16
                    3D
 Structure written by MMmdl.
158167  0  0  1  0            999 V2000
  -30.6202  -14.7053   20.3557 C   0  0  0  0  0  0
  -30.4394  -12.3942   19.4623 C   0  0  0  0  0  0
  -29.5017  -12.3647   18.2332 C   0  0  0  0  0  0
  -28.0205  -12.2824   18.6533 C   0  0  0  0  0  0
  -27.6396  -13.2167   19.8346 C   0  0  2  0  0  0
  -28.6960  -13.1775   20.9586 C   0  0  0  0  0  0
  -25.2530  -13.8166   20.5723 C   0  0  0  0  0  0
  -24.1793  -13.0436   20.9212 C   0  0  0  0  0  0
  -24.6369  -11.6912   20.8777 C   0  0  0  0  0  0
  -23.9048  -10.4289   21.0422 C   0  0  0  0  0  0
  -24.3603   -9.4203   21.9195 C   0  0  0  0  0  0
  -23.6281   -8.2236   22.0757 C   0  0  0  0  0  0
  -22.4266   -8.0275   21.3546 C   0  0  0  0  0  0
  -21.9901   -9.0247   20.4650 C   0  0  0  0  0  0
  -22.7225  -10.2129   20.3066 C   0  0  0  0  0  0
  -21.6848   -6.0729   22.5276 C   0  0  0  0  0  0
  -21.4012   -6.5638   23.8209 C   0  0  0  0  0  0
  -21.3656   -5.6795   24.9173 C   0  0  0  0  0  0
  -21.6041   -4.3055   24.7226 C   0  0  0  0  0  0
  -21.8821   -3.8146   23.4349 C   0  0  0  0  0  0
  -21.9189   -4.6958   22.3405 C   0  0  0  0  0  0
  -22.7820  -13.5232   21.1862 C   0  0  0  0  0  0
  -22.1659   -4.2145   21.0980 F   0  0  0  0  0  0
  -21.5626   -3.4540   25.7738 F   0  0  0  0  0  0
  -29.9916  -13.4863   20.3460 N   0  0  0  0  0  0
  -26.2944  -12.9355   20.3297 N   0  0  0  0  0  0
  -25.9302  -11.6523   20.5828 N   0  0  0  0  0  0
  -22.0460  -12.8219   22.0413 N   0  0  0  0  0  0
  -25.4259  -15.1881   20.4199 N   0  0  0  0  0  0
  -31.8518  -14.7682   20.2998 O   0  0  0  0  0  0
  -21.6635   -6.8869   21.4237 O   0  0  0  0  0  0
  -22.3510  -14.5539   20.6711 O   0  0  0  0  0  0
  -24.6258  -31.8593   23.2014 C   0  0  0  0  0  0
  -25.9106  -32.4770   23.8349 C   0  0  1  0  0  0
  -27.2238  -27.3234   20.1299 C   0  0  0  0  0  0
  -25.5927  -33.8570   24.2283 N   0  0  0  0  0  0
  -23.4193  -30.4811   21.5437 C   0  0  2  0  0  0
  -24.8663  -28.9299   20.1156 C   0  0  0  0  0  0
  -22.7477  -29.4621   22.4945 C   0  0  0  0  0  0
  -18.0286  -28.1387   22.8487 C   0  0  0  0  0  0
  -24.1489  -36.7284   23.2636 C   0  0  0  0  0  0
  -25.9577  -30.7942   21.3682 C   0  0  0  0  0  0
  -26.0339  -29.4186   20.7164 C   0  0  0  0  0  0
  -27.2194  -28.6282   20.7088 C   0  0  0  0  0  0
  -26.0378  -26.8769   19.5135 C   0  0  0  0  0  0
  -24.8697  -27.6650   19.5038 C   0  0  0  0  0  0
  -23.6344  -29.8106   20.1605 C   0  0  0  0  0  0
  -25.4112  -36.3072   24.0327 C   0  0  1  0  0  0
  -20.5887  -28.3687   23.1291 C   0  0  2  0  0  0
  -20.6775  -26.9411   22.5416 C   0  0  0  0  0  0
  -19.5752  -26.6386   21.5217 C   0  0  0  0  0  0
  -18.1929  -26.7930   22.1626 C   0  0  0  0  0  0
  -19.1541  -28.8854   23.2883 C   0  0  0  0  0  0
  -18.9463  -30.1456   23.8895 C   0  0  0  0  0  0
  -17.6461  -30.6587   24.0563 C   0  0  0  0  0  0
  -25.9045  -34.9442   23.5102 C   0  0  0  0  0  0
  -16.5352  -29.9085   23.6329 C   0  0  0  0  0  0
  -16.7274  -28.6507   23.0346 C   0  0  0  0  0  0
  -26.4495  -31.6569   25.0708 C   0  0  0  0  0  0
  -25.3735  -31.3695   26.1441 C   0  0  0  0  0  0
  -27.0326  -30.2994   24.6135 C   0  0  0  0  0  0
  -27.6064  -32.4296   25.7478 C   0  0  0  0  0  0
  -27.5577  -37.1792   24.8463 C   0  0  0  0  0  0
  -21.4192  -29.3037   22.3683 N   0  0  0  0  0  0
  -26.4286  -37.3768   23.9413 N   0  0  0  0  0  0
  -24.6864  -31.0617   22.0953 N   0  0  0  0  0  0
  -23.4201  -28.8168   23.3030 O   0  0  0  0  0  0
  -28.3480  -26.4937   20.1225 O   0  0  0  0  0  0
  -26.5607  -34.8909   22.4662 O   0  0  0  0  0  0
  -23.5427  -32.1381   23.7357 O   0  0  0  0  0  0
  -29.9926  -19.4454   20.6916 C   0  0  0  0  0  0
  -30.3662  -18.0561   20.6762 C   0  0  0  0  0  0
  -28.2328  -17.5193   19.7358 C   0  0  0  0  0  0
  -28.7414  -19.9258   20.1865 C   0  0  0  0  0  0
  -29.4999  -17.0526   20.1604 C   0  0  0  0  0  0
  -27.8601  -18.8891   19.7455 C   0  0  0  0  0  0
  -28.9846  -22.5030   20.5055 C   0  0  0  0  0  0
  -27.1560  -23.3252   19.2097 C   0  0  0  0  0  0
  -27.2470  -21.7882   19.1991 C   0  0  0  0  0  0
  -28.4399  -23.8321   19.8602 C   0  0  1  0  0  0
  -30.0559  -15.7054   18.2534 C   0  0  0  0  0  0
  -28.2490  -25.1514   20.7423 C   0  0  0  0  0  0
  -28.3807  -21.3657   20.0339 N   0  0  0  0  0  0
  -29.9071  -15.7118   19.7204 N   0  0  0  0  0  0
  -29.8874  -22.5253   21.3467 O   0  0  0  0  0  0
  -26.6290  -19.1711   19.2596 F   0  0  0  0  0  0
  -31.4745  -12.5256   19.1420 H   0  0  0  0  0  0
  -30.4047  -11.4439   19.9977 H   0  0  0  0  0  0
  -29.7468  -11.4996   17.6158 H   0  0  0  0  0  0
  -29.6618  -13.2187   17.5841 H   0  0  0  0  0  0
  -27.8380  -11.2460   18.9393 H   0  0  0  0  0  0
  -27.3740  -12.4724   17.7964 H   0  0  0  0  0  0
  -27.6230  -14.2262   19.4271 H   0  0  0  0  0  0
  -28.7241  -12.1999   21.4415 H   0  0  0  0  0  0
  -28.4577  -13.9077   21.7339 H   0  0  0  0  0  0
  -25.2746   -9.5678   22.4775 H   0  0  0  0  0  0
  -23.9987   -7.4627   22.7477 H   0  0  0  0  0  0
  -21.0835   -8.8769   19.8958 H   0  0  0  0  0  0
  -22.3685  -10.9670   19.6180 H   0  0  0  0  0  0
  -21.2011   -7.6148   23.9710 H   0  0  0  0  0  0
  -21.1473   -6.0526   25.9071 H   0  0  0  0  0  0
  -22.0603   -2.7608   23.2854 H   0  0  0  0  0  0
  -22.4068  -11.9874   22.4799 H   0  0  0  0  0  0
  -21.1083  -13.1252   22.2629 H   0  0  0  0  0  0
  -24.6695  -15.8507   20.5502 H   0  0  0  0  0  0
  -26.3013  -15.6260   20.1708 H   0  0  0  0  0  0
  -26.7171  -32.5454   23.1101 H   0  0  0  0  0  0
  -25.0104  -33.9712   25.0449 H   0  0  0  0  0  0
  -22.7121  -31.3005   21.3979 H   0  0  0  0  0  0
  -23.3747  -35.9619   23.3300 H   0  0  0  0  0  0
  -24.3582  -36.8903   22.2050 H   0  0  0  0  0  0
  -23.7248  -37.6486   23.6660 H   0  0  0  0  0  0
  -26.0821  -31.5541   20.5959 H   0  0  0  0  0  0
  -26.8414  -30.8495   21.9924 H   0  0  0  0  0  0
  -28.1209  -29.0030   21.1735 H   0  0  0  0  0  0
  -26.0115  -25.9083   19.0363 H   0  0  0  0  0  0
  -23.9757  -27.2861   19.0281 H   0  0  0  0  0  0
  -23.7530  -30.5836   19.4002 H   0  0  0  0  0  0
  -22.7547  -29.2381   19.8610 H   0  0  0  0  0  0
  -25.1290  -36.1917   25.0817 H   0  0  0  0  0  0
  -20.9975  -28.3256   24.1414 H   0  0  0  0  0  0
  -20.5681  -26.2290   23.3613 H   0  0  0  0  0  0
  -21.6643  -26.7445   22.1204 H   0  0  0  0  0  0
  -19.6913  -25.6300   21.1242 H   0  0  0  0  0  0
  -19.6690  -27.3206   20.6754 H   0  0  0  0  0  0
  -17.4200  -26.6686   21.4024 H   0  0  0  0  0  0
  -18.0318  -26.0073   22.9022 H   0  0  0  0  0  0
  -19.7937  -30.7277   24.2265 H   0  0  0  0  0  0
  -17.5012  -31.6267   24.5167 H   0  0  0  0  0  0
  -15.5352  -30.2981   23.7658 H   0  0  0  0  0  0
  -15.8676  -28.0827   22.7052 H   0  0  0  0  0  0
  -24.5929  -30.7013   25.7782 H   0  0  0  0  0  0
  -24.8897  -32.2848   26.4859 H   0  0  0  0  0  0
  -25.8074  -30.8893   27.0221 H   0  0  0  0  0  0
  -26.2884  -29.6759   24.1164 H   0  0  0  0  0  0
  -27.4039  -29.7235   25.4621 H   0  0  0  0  0  0
  -27.8749  -30.4287   23.9335 H   0  0  0  0  0  0
  -27.2688  -33.3603   26.2056 H   0  0  0  0  0  0
  -28.3883  -32.6845   25.0307 H   0  0  0  0  0  0
  -28.0720  -31.8407   26.5395 H   0  0  0  0  0  0
  -28.2585  -38.0096   24.7512 H   0  0  0  0  0  0
  -28.1083  -36.2627   24.6291 H   0  0  0  0  0  0
  -27.2290  -37.1435   25.8862 H   0  0  0  0  0  0
  -20.9374  -29.8748   21.6884 H   0  0  0  0  0  0
  -26.0162  -38.2835   24.1431 H   0  0  0  0  0  0
  -30.7285  -20.1536   21.0414 H   0  0  0  0  0  0
  -31.3686  -17.7841   20.9766 H   0  0  0  0  0  0
  -27.5408  -16.8218   19.2893 H   0  0  0  0  0  0
  -26.2848  -23.6280   19.7927 H   0  0  0  0  0  0
  -27.0251  -23.7266   18.2040 H   0  0  0  0  0  0
  -27.3792  -21.4173   18.1815 H   0  0  0  0  0  0
  -26.3098  -21.3927   19.5907 H   0  0  0  0  0  0
  -29.1623  -24.0637   19.0778 H   0  0  0  0  0  0
  -29.1272  -15.3815   17.7839 H   0  0  0  0  0  0
  -30.8639  -15.0650   17.8933 H   0  0  0  0  0  0
  -30.2802  -16.7005   17.8655 H   0  0  0  0  0  0
  -29.0261  -25.1430   21.5063 H   0  0  0  0  0  0
  -27.3191  -25.0757   21.3085 H   0  0  0  0  0  0
  1 25  1  0  0  0
  1 30  2  0  0  0
  1 84  1  0  0  0
  2  3  1  0  0  0
  2 25  1  0  0  0
  2 87  1  0  0  0
  2 88  1  0  0  0
  3  4  1  0  0  0
  3 89  1  0  0  0
  3 90  1  0  0  0
  4  5  1  0  0  0
  4 91  1  0  0  0
  4 92  1  0  0  0
  5  6  1  0  0  0
  5 26  1  0  0  0
  5 93  1  0  0  0
  6 25  1  0  0  0
  6 94  1  0  0  0
  6 95  1  0  0  0
  7  8  2  0  0  0
  7 26  1  0  0  0
  7 29  1  0  0  0
  8  9  1  0  0  0
  8 22  1  0  0  0
  9 10  1  0  0  0
  9 27  2  0  0  0
 10 11  2  0  0  0
 10 15  1  0  0  0
 11 12  1  0  0  0
 11 96  1  0  0  0
 12 13  2  0  0  0
 12 97  1  0  0  0
 13 14  1  0  0  0
 13 31  1  0  0  0
 14 15  2  0  0  0
 14 98  1  0  0  0
 15 99  1  0  0  0
 16 17  2  0  0  0
 16 21  1  0  0  0
 16 31  1  0  0  0
 17 18  1  0  0  0
 17100  1  0  0  0
 18 19  2  0  0  0
 18101  1  0  0  0
 19 20  1  0  0  0
 19 24  1  0  0  0
 20 21  2  0  0  0
 20102  1  0  0  0
 21 23  1  0  0  0
 22 28  1  0  0  0
 22 32  2  0  0  0
 26 27  1  0  0  0
 28103  1  0  0  0
 28104  1  0  0  0
 29105  1  0  0  0
 29106  1  0  0  0
 33 34  1  0  0  0
 33 66  1  0  0  0
 33 70  2  0  0  0
 34 36  1  0  0  0
 34 59  1  0  0  0
 34107  1  0  0  0
 35 44  2  0  0  0
 35 45  1  0  0  0
 35 68  1  0  0  0
 36 56  1  0  0  0
 36108  1  0  0  0
 37 39  1  0  0  0
 37 47  1  0  0  0
 37 66  1  0  0  0
 37109  1  0  0  0
 38 43  2  0  0  0
 38 46  1  0  0  0
 38 47  1  0  0  0
 39 64  1  0  0  0
 39 67  2  0  0  0
 40 52  1  0  0  0
 40 53  2  0  0  0
 40 58  1  0  0  0
 41110  1  0  0  0
 41111  1  0  0  0
 41112  1  0  0  0
 41 48  1  0  0  0
 42 43  1  0  0  0
 42 66  1  0  0  0
 42113  1  0  0  0
 42114  1  0  0  0
 43 44  1  0  0  0
 44115  1  0  0  0
 45 46  2  0  0  0
 45116  1  0  0  0
 46117  1  0  0  0
 47118  1  0  0  0
 47119  1  0  0  0
 48 56  1  0  0  0
 48 65  1  0  0  0
 48120  1  0  0  0
 49 50  1  0  0  0
 49 53  1  0  0  0
 49 64  1  0  0  0
 49121  1  0  0  0
 50 51  1  0  0  0
 50122  1  0  0  0
 50123  1  0  0  0
 51 52  1  0  0  0
 51124  1  0  0  0
 51125  1  0  0  0
 52126  1  0  0  0
 52127  1  0  0  0
 53 54  1  0  0  0
 54 55  2  0  0  0
 54128  1  0  0  0
 55 57  1  0  0  0
 55129  1  0  0  0
 56 69  2  0  0  0
 57 58  2  0  0  0
 57130  1  0  0  0
 58131  1  0  0  0
 59 60  1  0  0  0
 59 61  1  0  0  0
 59 62  1  0  0  0
 60132  1  0  0  0
 60133  1  0  0  0
 60134  1  0  0  0
 61135  1  0  0  0
 61136  1  0  0  0
 61137  1  0  0  0
 62138  1  0  0  0
 62139  1  0  0  0
 62140  1  0  0  0
 63 65  1  0  0  0
 63141  1  0  0  0
 63142  1  0  0  0
 63143  1  0  0  0
 64144  1  0  0  0
 65145  1  0  0  0
 68 82  1  0  0  0
 71 72  2  0  0  0
 71 74  1  0  0  0
 71146  1  0  0  0
 72 75  1  0  0  0
 72147  1  0  0  0
 73 75  2  0  0  0
 73 76  1  0  0  0
 73148  1  0  0  0
 74 76  2  0  0  0
 74 83  1  0  0  0
 75 84  1  0  0  0
 76 86  1  0  0  0
 77 80  1  0  0  0
 77 83  1  0  0  0
 77 85  2  0  0  0
 78 79  1  0  0  0
 78 80  1  0  0  0
 78149  1  0  0  0
 78150  1  0  0  0
 79 83  1  0  0  0
 79151  1  0  0  0
 79152  1  0  0  0
 80 82  1  0  0  0
 80153  1  0  0  0
 81 84  1  0  0  0
 81154  1  0  0  0
 81155  1  0  0  0
 81156  1  0  0  0
 82157  1  0  0  0
 82158  1  0  0  0
M  ISO  4   1 100  68 101  82 101  84 100
M  END
> <chiral flag>
0

> <version>
0

> <s_m_source_file>
/data/baiqing/PycharmProjects/Reinvent-master-3.2/result/LINK_invent/BTK/process_docking_weight1_custom_product_contain_oxygen_bond_distance_aromatic_linkinvent_7_9_3/rearranged_h_0016.sdf

> <i_m_source_file_index>
17

> <r_mmod_Potential_Energy-OPLS-2005>
433.658233642578

> <r_mmod_Stretch_Energy-OPLS-2005>
88.728759765625

> <r_mmod_Bend_Energy-OPLS-2005>
185.840133666992

> <r_mmod_Torsional_Energy-OPLS-2005>
403.299194335938

> <r_mmod_Improper_Torsional_Energy-OPLS-2005>
32.1175346374512

> <r_mmod_Van_der_Waal_Energy-OPLS-2005>
141.850494384766

> <r_mmod_Electrostatic_Energy-OPLS-2005>
-293.004547119141

> <r_mmod_Solvation_Energy-OPLS-2005>
-200.37922668457

> <b_mmod_Minimization_Converged-OPLS-2005>
0

> <r_mmod_RMS_Derivative-OPLS-2005>
0.947185337543488

$$$$
17
                    3D
 Structure written by MMmdl.
162170  0  0  1  0            999 V2000
  -30.6601  -14.6028   20.3938 C   0  0  0  0  0  0
  -30.4481  -12.3281   19.4535 C   0  0  0  0  0  0
  -29.5104  -12.3337   18.2254 C   0  0  0  0  0  0
  -28.0159  -12.3078   18.6305 C   0  0  0  0  0  0
  -27.6472  -13.1969   19.8557 C   0  0  2  0  0  0
  -28.7114  -13.0821   20.9664 C   0  0  0  0  0  0
  -25.2570  -13.8129   20.5726 C   0  0  0  0  0  0
  -24.1818  -13.0426   20.9223 C   0  0  0  0  0  0
  -24.6360  -11.6891   20.8778 C   0  0  0  0  0  0
  -23.9024  -10.4287   21.0423 C   0  0  0  0  0  0
  -24.3590   -9.4206   21.9193 C   0  0  0  0  0  0
  -23.6280   -8.2234   22.0743 C   0  0  0  0  0  0
  -22.4263   -8.0273   21.3531 C   0  0  0  0  0  0
  -21.9894   -9.0250   20.4634 C   0  0  0  0  0  0
  -22.7206  -10.2138   20.3055 C   0  0  0  0  0  0
  -21.6860   -6.0724   22.5277 C   0  0  0  0  0  0
  -21.4023   -6.5624   23.8211 C   0  0  0  0  0  0
  -21.3660   -5.6771   24.9169 C   0  0  0  0  0  0
  -21.6055   -4.3035   24.7224 C   0  0  0  0  0  0
  -21.8814   -3.8133   23.4341 C   0  0  0  0  0  0
  -21.9192   -4.6950   22.3400 C   0  0  0  0  0  0
  -22.7841  -13.5246   21.1846 C   0  0  0  0  0  0
  -22.1657   -4.2129   21.0975 F   0  0  0  0  0  0
  -21.5629   -3.4520   25.7738 F   0  0  0  0  0  0
  -30.0123  -13.3986   20.3637 N   0  0  0  0  0  0
  -26.2984  -12.9256   20.3402 N   0  0  0  0  0  0
  -25.9284  -11.6439   20.5838 N   0  0  0  0  0  0
  -22.0443  -12.8276   22.0398 N   0  0  0  0  0  0
  -25.4253  -15.1848   20.4119 N   0  0  0  0  0  0
  -31.8853  -14.6779   20.2825 O   0  0  0  0  0  0
  -21.6638   -6.8866   21.4235 O   0  0  0  0  0  0
  -22.3545  -14.5538   20.6652 O   0  0  0  0  0  0
  -24.6147  -31.8677   23.2101 C   0  0  0  0  0  0
  -25.9043  -32.4817   23.8405 C   0  0  1  0  0  0
  -27.2360  -27.4235   20.1000 C   0  0  0  0  0  0
  -25.5902  -33.8617   24.2338 N   0  0  0  0  0  0
  -23.4044  -30.4900   21.5499 C   0  0  2  0  0  0
  -24.8536  -28.9487   20.1206 C   0  0  0  0  0  0
  -22.7416  -29.4655   22.4990 C   0  0  0  0  0  0
  -18.0265  -28.1367   22.8486 C   0  0  0  0  0  0
  -24.1485  -36.7313   23.2643 C   0  0  0  0  0  0
  -25.9355  -30.8254   21.3697 C   0  0  0  0  0  0
  -26.0129  -29.4555   20.7237 C   0  0  0  0  0  0
  -27.2089  -28.6980   20.7181 C   0  0  0  0  0  0
  -26.0661  -26.9357   19.4877 C   0  0  0  0  0  0
  -24.8735  -27.6854   19.5028 C   0  0  0  0  0  0
  -23.6167  -29.8196   20.1657 C   0  0  0  0  0  0
  -25.4108  -36.3115   24.0346 C   0  0  1  0  0  0
  -20.5856  -28.3659   23.1303 C   0  0  2  0  0  0
  -20.6745  -26.9390   22.5414 C   0  0  0  0  0  0
  -19.5730  -26.6374   21.5203 C   0  0  0  0  0  0
  -18.1910  -26.7911   22.1616 C   0  0  0  0  0  0
  -19.1514  -28.8827   23.2892 C   0  0  0  0  0  0
  -18.9450  -30.1431   23.8908 C   0  0  0  0  0  0
  -17.6453  -30.6579   24.0558 C   0  0  0  0  0  0
  -25.9034  -34.9475   23.5144 C   0  0  0  0  0  0
  -16.5342  -29.9084   23.6321 C   0  0  0  0  0  0
  -16.7253  -28.6492   23.0355 C   0  0  0  0  0  0
  -26.4476  -31.6589   25.0730 C   0  0  0  0  0  0
  -25.3751  -31.3688   26.1488 C   0  0  0  0  0  0
  -27.0318  -30.3035   24.6106 C   0  0  0  0  0  0
  -27.6064  -32.4303   25.7480 C   0  0  0  0  0  0
  -27.5586  -37.1814   24.8470 C   0  0  0  0  0  0
  -21.4140  -29.3031   22.3721 N   0  0  0  0  0  0
  -26.4298  -37.3799   23.9410 N   0  0  0  0  0  0
  -24.6696  -31.0763   22.1014 N   0  0  0  0  0  0
  -23.4179  -28.8202   23.3043 O   0  0  0  0  0  0
  -28.3793  -26.6563   20.0238 O   0  0  0  0  0  0
  -26.5598  -34.8922   22.4706 O   0  0  0  0  0  0
  -23.5329  -32.1446   23.7467 O   0  0  0  0  0  0
  -30.4023  -19.3949   19.9758 C   0  0  0  0  0  0
  -30.6583  -18.0230   19.7586 C   0  0  0  0  0  0
  -28.9095  -18.8026   21.7819 C   0  0  0  0  0  0
  -29.4784  -19.8082   20.9622 C   0  0  0  0  0  0
  -29.9647  -17.0043   20.4677 C   0  0  0  0  0  0
  -29.1332  -17.4209   21.5398 C   0  0  0  0  0  0
  -29.7634  -15.6609   18.4476 C   0  0  0  0  0  0
  -31.1177  -22.4427   21.7081 C   0  0  0  0  0  0
  -29.0030  -21.2795   21.0772 C   0  0  0  0  0  0
  -28.6127  -24.4647   21.2553 C   0  0  0  0  0  0
  -29.4884  -23.6501   20.2527 C   0  0  0  0  0  0
  -28.8041  -26.0139   21.2330 C   0  0  0  0  0  0
  -29.9259  -15.6606   19.9198 N   0  0  0  0  0  0
  -30.0162  -22.3211   20.7245 N   0  3  1  0  0  0
  -28.2864  -16.2778   22.5118 Cl  0  0  0  0  0  0
  -31.4829  -12.4546   19.1301 H   0  0  0  0  0  0
  -30.4110  -11.3660   19.9665 H   0  0  0  0  0  0
  -29.7248  -11.4494   17.6230 H   0  0  0  0  0  0
  -29.7371  -13.1614   17.5603 H   0  0  0  0  0  0
  -27.7797  -11.2683   18.8633 H   0  0  0  0  0  0
  -27.3916  -12.5626   17.7727 H   0  0  0  0  0  0
  -27.6309  -14.2279   19.5224 H   0  0  0  0  0  0
  -28.7224  -12.0755   21.3862 H   0  0  0  0  0  0
  -28.4868  -13.7477   21.7954 H   0  0  0  0  0  0
  -25.2726   -9.5710   22.4780 H   0  0  0  0  0  0
  -23.9987   -7.4630   22.7474 H   0  0  0  0  0  0
  -21.0816   -8.8778   19.8950 H   0  0  0  0  0  0
  -22.3653  -10.9689   19.6173 H   0  0  0  0  0  0
  -21.2018   -7.6133   23.9713 H   0  0  0  0  0  0
  -21.1488   -6.0499   25.9070 H   0  0  0  0  0  0
  -22.0591   -2.7594   23.2847 H   0  0  0  0  0  0
  -22.4013  -11.9972   22.4896 H   0  0  0  0  0  0
  -21.1046  -13.1322   22.2500 H   0  0  0  0  0  0
  -24.6689  -15.8435   20.5581 H   0  0  0  0  0  0
  -26.3013  -15.6324   20.1746 H   0  0  0  0  0  0
  -26.7114  -32.5529   23.1166 H   0  0  0  0  0  0
  -25.0047  -33.9788   25.0477 H   0  0  0  0  0  0
  -22.6934  -31.3068   21.4084 H   0  0  0  0  0  0
  -23.3746  -35.9648   23.3312 H   0  0  0  0  0  0
  -24.3575  -36.8916   22.2056 H   0  0  0  0  0  0
  -23.7229  -37.6519   23.6643 H   0  0  0  0  0  0
  -26.0524  -31.5872   20.5969 H   0  0  0  0  0  0
  -26.8217  -30.8784   21.9902 H   0  0  0  0  0  0
  -28.1057  -29.0896   21.1768 H   0  0  0  0  0  0
  -26.0798  -25.9715   18.9982 H   0  0  0  0  0  0
  -23.9845  -27.2912   19.0304 H   0  0  0  0  0  0
  -23.7294  -30.5950   19.4062 H   0  0  0  0  0  0
  -22.7402  -29.2422   19.8664 H   0  0  0  0  0  0
  -25.1277  -36.1994   25.0840 H   0  0  0  0  0  0
  -20.9939  -28.3227   24.1426 H   0  0  0  0  0  0
  -20.5623  -26.2280   23.3615 H   0  0  0  0  0  0
  -21.6624  -26.7430   22.1229 H   0  0  0  0  0  0
  -19.6900  -25.6290   21.1224 H   0  0  0  0  0  0
  -19.6665  -27.3190   20.6739 H   0  0  0  0  0  0
  -17.4187  -26.6662   21.4010 H   0  0  0  0  0  0
  -18.0312  -26.0044   22.9003 H   0  0  0  0  0  0
  -19.7936  -30.7224   24.2293 H   0  0  0  0  0  0
  -17.5023  -31.6260   24.5163 H   0  0  0  0  0  0
  -15.5343  -30.2999   23.7630 H   0  0  0  0  0  0
  -15.8652  -28.0809   22.7080 H   0  0  0  0  0  0
  -24.5912  -30.7049   25.7823 H   0  0  0  0  0  0
  -24.8956  -32.2838   26.4979 H   0  0  0  0  0  0
  -25.8118  -30.8828   27.0221 H   0  0  0  0  0  0
  -26.2868  -29.6783   24.1171 H   0  0  0  0  0  0
  -27.4104  -29.7282   25.4562 H   0  0  0  0  0  0
  -27.8694  -30.4363   23.9255 H   0  0  0  0  0  0
  -27.2706  -33.3597   26.2087 H   0  0  0  0  0  0
  -28.3853  -32.6866   25.0288 H   0  0  0  0  0  0
  -28.0755  -31.8406   26.5365 H   0  0  0  0  0  0
  -28.2614  -38.0102   24.7512 H   0  0  0  0  0  0
  -28.1067  -36.2632   24.6293 H   0  0  0  0  0  0
  -27.2304  -37.1470   25.8875 H   0  0  0  0  0  0
  -20.9304  -29.8774   21.6959 H   0  0  0  0  0  0
  -26.0188  -38.2882   24.1397 H   0  0  0  0  0  0
  -30.8774  -20.1137   19.3233 H   0  0  0  0  0  0
  -31.3215  -17.7594   18.9456 H   0  0  0  0  0  0
  -28.2154  -19.0831   22.5618 H   0  0  0  0  0  0
  -29.4903  -16.6312   18.0336 H   0  0  0  0  0  0
  -28.9483  -15.0269   18.1238 H   0  0  0  0  0  0
  -30.6736  -15.3425   17.9334 H   0  0  0  0  0  0
  -31.5253  -21.4680   21.9767 H   0  0  0  0  0  0
  -30.7907  -22.9309   22.6251 H   0  0  0  0  0  0
  -31.9377  -23.0279   21.2887 H   0  0  0  0  0  0
  -28.6232  -21.4683   22.0822 H   0  0  0  0  0  0
  -28.1456  -21.3856   20.4099 H   0  0  0  0  0  0
  -28.8275  -24.1370   22.2706 H   0  0  0  0  0  0
  -27.5609  -24.2287   21.0906 H   0  0  0  0  0  0
  -30.3425  -24.2586   19.9526 H   0  0  0  0  0  0
  -28.9220  -23.4985   19.3323 H   0  0  0  0  0  0
  -29.8591  -26.2492   21.3823 H   0  0  0  0  0  0
  -28.2855  -26.4454   22.0921 H   0  0  0  0  0  0
  -30.4571  -21.9443   19.8995 H   0  0  0  0  0  0
  1 25  1  0  0  0
  1 30  2  0  0  0
  1 83  1  0  0  0
  2  3  1  0  0  0
  2 25  1  0  0  0
  2 86  1  0  0  0
  2 87  1  0  0  0
  3  4  1  0  0  0
  3 88  1  0  0  0
  3 89  1  0  0  0
  4  5  1  0  0  0
  4 90  1  0  0  0
  4 91  1  0  0  0
  5  6  1  0  0  0
  5 26  1  0  0  0
  5 92  1  0  0  0
  6 25  1  0  0  0
  6 93  1  0  0  0
  6 94  1  0  0  0
  7  8  2  0  0  0
  7 26  1  0  0  0
  7 29  1  0  0  0
  8  9  1  0  0  0
  8 22  1  0  0  0
  9 10  1  0  0  0
  9 27  2  0  0  0
 10 11  2  0  0  0
 10 15  1  0  0  0
 11 12  1  0  0  0
 11 95  1  0  0  0
 12 13  2  0  0  0
 12 96  1  0  0  0
 13 14  1  0  0  0
 13 31  1  0  0  0
 14 15  2  0  0  0
 14 97  1  0  0  0
 15 98  1  0  0  0
 16 17  2  0  0  0
 16 21  1  0  0  0
 16 31  1  0  0  0
 17 18  1  0  0  0
 17 99  1  0  0  0
 18 19  2  0  0  0
 18100  1  0  0  0
 19 20  1  0  0  0
 19 24  1  0  0  0
 20 21  2  0  0  0
 20101  1  0  0  0
 21 23  1  0  0  0
 22 28  1  0  0  0
 22 32  2  0  0  0
 26 27  1  0  0  0
 28102  1  0  0  0
 28103  1  0  0  0
 29104  1  0  0  0
 29105  1  0  0  0
 33 34  1  0  0  0
 33 66  1  0  0  0
 33 70  2  0  0  0
 34 36  1  0  0  0
 34 59  1  0  0  0
 34106  1  0  0  0
 35 44  2  0  0  0
 35 45  1  0  0  0
 35 68  1  0  0  0
 36 56  1  0  0  0
 36107  1  0  0  0
 37 39  1  0  0  0
 37 47  1  0  0  0
 37 66  1  0  0  0
 37108  1  0  0  0
 38 43  2  0  0  0
 38 46  1  0  0  0
 38 47  1  0  0  0
 39 64  1  0  0  0
 39 67  2  0  0  0
 40 52  1  0  0  0
 40 53  2  0  0  0
 40 58  1  0  0  0
 41109  1  0  0  0
 41110  1  0  0  0
 41111  1  0  0  0
 41 48  1  0  0  0
 42 43  1  0  0  0
 42 66  1  0  0  0
 42112  1  0  0  0
 42113  1  0  0  0
 43 44  1  0  0  0
 44114  1  0  0  0
 45 46  2  0  0  0
 45115  1  0  0  0
 46116  1  0  0  0
 47117  1  0  0  0
 47118  1  0  0  0
 48 56  1  0  0  0
 48 65  1  0  0  0
 48119  1  0  0  0
 49 50  1  0  0  0
 49 53  1  0  0  0
 49 64  1  0  0  0
 49120  1  0  0  0
 50 51  1  0  0  0
 50121  1  0  0  0
 50122  1  0  0  0
 51 52  1  0  0  0
 51123  1  0  0  0
 51124  1  0  0  0
 52125  1  0  0  0
 52126  1  0  0  0
 53 54  1  0  0  0
 54 55  2  0  0  0
 54127  1  0  0  0
 55 57  1  0  0  0
 55128  1  0  0  0
 56 69  2  0  0  0
 57 58  2  0  0  0
 57129  1  0  0  0
 58130  1  0  0  0
 59 60  1  0  0  0
 59 61  1  0  0  0
 59 62  1  0  0  0
 60131  1  0  0  0
 60132  1  0  0  0
 60133  1  0  0  0
 61134  1  0  0  0
 61135  1  0  0  0
 61136  1  0  0  0
 62137  1  0  0  0
 62138  1  0  0  0
 62139  1  0  0  0
 63 65  1  0  0  0
 63140  1  0  0  0
 63141  1  0  0  0
 63142  1  0  0  0
 64143  1  0  0  0
 65144  1  0  0  0
 68 82  1  0  0  0
 71 72  2  0  0  0
 71 74  1  0  0  0
 71145  1  0  0  0
 72 75  1  0  0  0
 72146  1  0  0  0
 73 74  2  0  0  0
 73 76  1  0  0  0
 73147  1  0  0  0
 74 79  1  0  0  0
 75 76  2  0  0  0
 75 83  1  0  0  0
 76 85  1  0  0  0
 77 83  1  0  0  0
 77148  1  0  0  0
 77149  1  0  0  0
 77150  1  0  0  0
 78151  1  0  0  0
 78152  1  0  0  0
 78153  1  0  0  0
 78 84  1  0  0  0
 79 84  1  0  0  0
 79154  1  0  0  0
 79155  1  0  0  0
 80 81  1  0  0  0
 80 82  1  0  0  0
 80156  1  0  0  0
 80157  1  0  0  0
 81 84  1  0  0  0
 81158  1  0  0  0
 81159  1  0  0  0
 82160  1  0  0  0
 82161  1  0  0  0
 84162  1  0  0  0
M  CHG  1  84   1
M  ISO  4   1 100  68 101  82 101  83 100
M  END
> <chiral flag>
0

> <version>
0

> <s_m_source_file>
/data/baiqing/PycharmProjects/Reinvent-master-3.2/result/LINK_invent/BTK/process_docking_weight1_custom_product_contain_oxygen_bond_distance_aromatic_linkinvent_7_9_3/rearranged_h_0016.sdf

> <i_m_source_file_index>
18

> <r_mmod_Potential_Energy-OPLS-2005>
101.626335144043

> <r_mmod_Stretch_Energy-OPLS-2005>
50.6671752929688

> <r_mmod_Bend_Energy-OPLS-2005>
123.652946472168

> <r_mmod_Torsional_Energy-OPLS-2005>
369.828857421875

> <r_mmod_Improper_Torsional_Energy-OPLS-2005>
26.798698425293

> <r_mmod_Van_der_Waal_Energy-OPLS-2005>
148.168075561523

> <r_mmod_Electrostatic_Energy-OPLS-2005>
-216.450576782227

> <r_mmod_Solvation_Energy-OPLS-2005>
-442.502563476562

> <b_mmod_Minimization_Converged-OPLS-2005>
0

> <r_mmod_RMS_Derivative-OPLS-2005>
2.22306895256042

$$$$
18
                    3D
 Structure written by MMmdl.
167175  0  0  1  0            999 V2000
  -30.7131  -14.4969   20.5956 C   0  0  0  0  0  0
  -30.4202  -12.3373   19.4170 C   0  0  0  0  0  0
  -29.4865  -12.5044   18.2019 C   0  0  0  0  0  0
  -28.0121  -12.3420   18.6195 C   0  0  0  0  0  0
  -27.6509  -13.1939   19.8632 C   0  0  2  0  0  0
  -28.6975  -13.0082   20.9866 C   0  0  0  0  0  0
  -25.2551  -13.8115   20.5659 C   0  0  0  0  0  0
  -24.1809  -13.0413   20.9197 C   0  0  0  0  0  0
  -24.6354  -11.6878   20.8754 C   0  0  0  0  0  0
  -23.9022  -10.4276   21.0416 C   0  0  0  0  0  0
  -24.3589   -9.4197   21.9190 C   0  0  0  0  0  0
  -23.6274   -8.2229   22.0755 C   0  0  0  0  0  0
  -22.4261   -8.0262   21.3545 C   0  0  0  0  0  0
  -21.9885   -9.0229   20.4648 C   0  0  0  0  0  0
  -22.7198  -10.2117   20.3057 C   0  0  0  0  0  0
  -21.6847   -6.0720   22.5278 C   0  0  0  0  0  0
  -21.4009   -6.5630   23.8209 C   0  0  0  0  0  0
  -21.3658   -5.6783   24.9173 C   0  0  0  0  0  0
  -21.6046   -4.3047   24.7226 C   0  0  0  0  0  0
  -21.8820   -3.8138   23.4348 C   0  0  0  0  0  0
  -21.9193   -4.6951   22.3404 C   0  0  0  0  0  0
  -22.7839  -13.5230   21.1851 C   0  0  0  0  0  0
  -22.1662   -4.2138   21.0980 F   0  0  0  0  0  0
  -21.5633   -3.4533   25.7740 F   0  0  0  0  0  0
  -30.0212  -13.3309   20.4301 N   0  0  0  0  0  0
  -26.2963  -12.9256   20.3323 N   0  0  0  0  0  0
  -25.9270  -11.6440   20.5769 N   0  0  0  0  0  0
  -22.0470  -12.8234   22.0408 N   0  0  0  0  0  0
  -25.4227  -15.1830   20.4002 N   0  0  0  0  0  0
  -31.8454  -14.6558   20.1264 O   0  0  0  0  0  0
  -21.6631   -6.8858   21.4238 O   0  0  0  0  0  0
  -22.3540  -14.5539   20.6692 O   0  0  0  0  0  0
  -24.6150  -31.8663   23.2084 C   0  0  0  0  0  0
  -25.9042  -32.4814   23.8380 C   0  0  1  0  0  0
  -27.2370  -27.4266   20.1083 C   0  0  0  0  0  0
  -25.5892  -33.8615   24.2314 N   0  0  0  0  0  0
  -23.4031  -30.4880   21.5493 C   0  0  2  0  0  0
  -24.8505  -28.9457   20.1199 C   0  0  0  0  0  0
  -22.7405  -29.4656   22.5001 C   0  0  0  0  0  0
  -18.0267  -28.1386   22.8493 C   0  0  0  0  0  0
  -24.1485  -36.7317   23.2640 C   0  0  0  0  0  0
  -25.9312  -30.8302   21.3602 C   0  0  0  0  0  0
  -26.0097  -29.4617   20.7131 C   0  0  0  0  0  0
  -27.2076  -28.7109   20.6988 C   0  0  0  0  0  0
  -26.0623  -26.9197   19.5157 C   0  0  0  0  0  0
  -24.8716  -27.6741   19.5176 C   0  0  0  0  0  0
  -23.6119  -29.8138   20.1660 C   0  0  0  0  0  0
  -25.4105  -36.3109   24.0334 C   0  0  1  0  0  0
  -20.5856  -28.3671   23.1324 C   0  0  2  0  0  0
  -20.6761  -26.9409   22.5424 C   0  0  0  0  0  0
  -19.5745  -26.6392   21.5217 C   0  0  0  0  0  0
  -18.1919  -26.7934   22.1619 C   0  0  0  0  0  0
  -19.1515  -28.8844   23.2907 C   0  0  0  0  0  0
  -18.9446  -30.1451   23.8917 C   0  0  0  0  0  0
  -17.6450  -30.6595   24.0571 C   0  0  0  0  0  0
  -25.9030  -34.9474   23.5123 C   0  0  0  0  0  0
  -16.5339  -29.9096   23.6331 C   0  0  0  0  0  0
  -16.7256  -28.6513   23.0349 C   0  0  0  0  0  0
  -26.4469  -31.6598   25.0710 C   0  0  0  0  0  0
  -25.3737  -31.3698   26.1461 C   0  0  0  0  0  0
  -27.0296  -30.3042   24.6081 C   0  0  0  0  0  0
  -27.6047  -32.4318   25.7469 C   0  0  0  0  0  0
  -27.5582  -37.1807   24.8459 C   0  0  0  0  0  0
  -21.4134  -29.3038   22.3734 N   0  0  0  0  0  0
  -26.4292  -37.3795   23.9409 N   0  0  0  0  0  0
  -24.6681  -31.0757   22.0983 N   0  0  0  0  0  0
  -23.4174  -28.8208   23.3054 O   0  0  0  0  0  0
  -28.4121  -26.7078   20.0698 O   0  0  0  0  0  0
  -26.5599  -34.8929   22.4687 O   0  0  0  0  0  0
  -23.5342  -32.1418   23.7479 O   0  0  0  0  0  0
  -29.8760  -18.6237   20.3107 C   0  0  0  0  0  0
  -27.8957  -18.3793   21.6840 C   0  0  0  0  0  0
  -29.7573  -20.0335   20.3941 C   0  0  0  0  0  0
  -27.7808  -19.7837   21.7685 C   0  0  0  0  0  0
  -28.9422  -17.7789   20.9519 C   0  0  0  0  0  0
  -28.7025  -20.6417   21.1223 C   0  0  0  0  0  0
  -30.9938  -22.8628   23.0577 C   0  0  0  0  0  0
  -30.9211  -16.1589   22.3615 C   0  0  0  0  0  0
  -28.9799  -16.2477   20.7901 C   0  0  0  0  0  0
  -29.6772  -22.2186   23.5141 C   0  0  0  0  0  0
  -28.2382  -24.2024   19.8596 C   0  0  0  0  0  0
  -28.4591  -22.5464   22.6257 C   0  0  0  0  0  0
  -29.0914  -22.9361   20.1894 C   0  0  0  0  0  0
  -28.4361  -25.4485   20.7658 C   0  0  0  0  0  0
  -28.5647  -22.0519   21.2472 N   0  0  0  0  0  0
  -30.1290  -15.4817   21.3313 N   0  0  0  0  0  0
  -31.4611  -12.4456   19.1074 H   0  0  0  0  0  0
  -30.3386  -11.3302   19.8283 H   0  0  0  0  0  0
  -29.7376  -11.7740   17.4317 H   0  0  0  0  0  0
  -29.6361  -13.4872   17.7516 H   0  0  0  0  0  0
  -27.8398  -11.2862   18.8313 H   0  0  0  0  0  0
  -27.3540  -12.5950   17.7870 H   0  0  0  0  0  0
  -27.6706  -14.2264   19.5276 H   0  0  0  0  0  0
  -28.6924  -11.9767   21.3414 H   0  0  0  0  0  0
  -28.4505  -13.6127   21.8597 H   0  0  0  0  0  0
  -25.2734   -9.5683   22.4762 H   0  0  0  0  0  0
  -23.9990   -7.4620   22.7469 H   0  0  0  0  0  0
  -21.0819   -8.8734   19.8953 H   0  0  0  0  0  0
  -22.3648  -10.9652   19.6168 H   0  0  0  0  0  0
  -21.1996   -7.6136   23.9711 H   0  0  0  0  0  0
  -21.1482   -6.0514   25.9076 H   0  0  0  0  0  0
  -22.0603   -2.7600   23.2849 H   0  0  0  0  0  0
  -22.4072  -11.9900   22.4813 H   0  0  0  0  0  0
  -21.1088  -13.1273   22.2599 H   0  0  0  0  0  0
  -24.6458  -15.8273   20.4963 H   0  0  0  0  0  0
  -26.2525  -15.6218   20.0247 H   0  0  0  0  0  0
  -26.7113  -32.5524   23.1148 H   0  0  0  0  0  0
  -25.0044  -33.9773   25.0460 H   0  0  0  0  0  0
  -22.6927  -31.3050   21.4070 H   0  0  0  0  0  0
  -23.3743  -35.9652   23.3297 H   0  0  0  0  0  0
  -24.3588  -36.8936   22.2055 H   0  0  0  0  0  0
  -23.7238  -37.6520   23.6659 H   0  0  0  0  0  0
  -26.0390  -31.5919   20.5868 H   0  0  0  0  0  0
  -26.8213  -30.8888   21.9748 H   0  0  0  0  0  0
  -28.1068  -29.1089   21.1476 H   0  0  0  0  0  0
  -26.0693  -25.9491   19.0413 H   0  0  0  0  0  0
  -23.9808  -27.2714   19.0553 H   0  0  0  0  0  0
  -23.7201  -30.5851   19.4025 H   0  0  0  0  0  0
  -22.7360  -29.2320   19.8722 H   0  0  0  0  0  0
  -25.1283  -36.1968   25.0826 H   0  0  0  0  0  0
  -20.9944  -28.3234   24.1447 H   0  0  0  0  0  0
  -20.5669  -26.2278   23.3608 H   0  0  0  0  0  0
  -21.6632  -26.7462   22.1214 H   0  0  0  0  0  0
  -19.6907  -25.6306   21.1242 H   0  0  0  0  0  0
  -19.6689  -27.3207   20.6752 H   0  0  0  0  0  0
  -17.4194  -26.6690   21.4014 H   0  0  0  0  0  0
  -18.0313  -26.0071   22.9006 H   0  0  0  0  0  0
  -19.7923  -30.7263   24.2296 H   0  0  0  0  0  0
  -17.5006  -31.6278   24.5166 H   0  0  0  0  0  0
  -15.5344  -30.3008   23.7652 H   0  0  0  0  0  0
  -15.8649  -28.0845   22.7057 H   0  0  0  0  0  0
  -24.5923  -30.7029   25.7804 H   0  0  0  0  0  0
  -24.8912  -32.2846   26.4911 H   0  0  0  0  0  0
  -25.8097  -30.8875   27.0218 H   0  0  0  0  0  0
  -26.2833  -29.6807   24.1145 H   0  0  0  0  0  0
  -27.4080  -29.7276   25.4532 H   0  0  0  0  0  0
  -27.8660  -30.4364   23.9213 H   0  0  0  0  0  0
  -27.2672  -33.3614   26.2068 H   0  0  0  0  0  0
  -28.3845  -32.6889   25.0287 H   0  0  0  0  0  0
  -28.0730  -31.8428   26.5365 H   0  0  0  0  0  0
  -28.2594  -38.0114   24.7526 H   0  0  0  0  0  0
  -28.1087  -36.2647   24.6255 H   0  0  0  0  0  0
  -27.2306  -37.1416   25.8864 H   0  0  0  0  0  0
  -20.9299  -29.8748   21.6941 H   0  0  0  0  0  0
  -26.0175  -38.2871   24.1417 H   0  0  0  0  0  0
  -30.6832  -18.1925   19.7356 H   0  0  0  0  0  0
  -27.1531  -17.7651   22.1747 H   0  0  0  0  0  0
  -30.5016  -20.6393   19.8980 H   0  0  0  0  0  0
  -26.9523  -20.1941   22.3275 H   0  0  0  0  0  0
  -31.7756  -22.7124   23.8027 H   0  0  0  0  0  0
  -30.8808  -23.9369   22.9079 H   0  0  0  0  0  0
  -31.3478  -22.4235   22.1252 H   0  0  0  0  0  0
  -30.2771  -16.6575   23.0866 H   0  0  0  0  0  0
  -31.5845  -16.9028   21.9187 H   0  0  0  0  0  0
  -31.5376  -15.4478   22.9141 H   0  0  0  0  0  0
  -28.8925  -16.0639   19.7176 H   0  0  0  0  0  0
  -28.0774  -15.8385   21.2425 H   0  0  0  0  0  0
  -29.4590  -22.5695   24.5238 H   0  0  0  0  0  0
  -29.8084  -21.1399   23.6055 H   0  0  0  0  0  0
  -27.1812  -23.9452   19.7900 H   0  0  0  0  0  0
  -28.5240  -24.5051   18.8517 H   0  0  0  0  0  0
  -28.3171  -23.6235   22.6262 H   0  0  0  0  0  0
  -27.5557  -22.1498   23.0896 H   0  0  0  0  0  0
  -30.1169  -23.2287   20.4133 H   0  0  0  0  0  0
  -29.1481  -22.3573   19.2663 H   0  0  0  0  0  0
  -29.4172  -25.3874   21.2381 H   0  0  0  0  0  0
  -27.7109  -25.4485   21.5810 H   0  0  0  0  0  0
  1 25  1  0  0  0
  1 30  2  0  0  0
  1 86  1  0  0  0
  2  3  1  0  0  0
  2 25  1  0  0  0
  2 87  1  0  0  0
  2 88  1  0  0  0
  3  4  1  0  0  0
  3 89  1  0  0  0
  3 90  1  0  0  0
  4  5  1  0  0  0
  4 91  1  0  0  0
  4 92  1  0  0  0
  5  6  1  0  0  0
  5 26  1  0  0  0
  5 93  1  0  0  0
  6 25  1  0  0  0
  6 94  1  0  0  0
  6 95  1  0  0  0
  7  8  2  0  0  0
  7 26  1  0  0  0
  7 29  1  0  0  0
  8  9  1  0  0  0
  8 22  1  0  0  0
  9 10  1  0  0  0
  9 27  2  0  0  0
 10 11  2  0  0  0
 10 15  1  0  0  0
 11 12  1  0  0  0
 11 96  1  0  0  0
 12 13  2  0  0  0
 12 97  1  0  0  0
 13 14  1  0  0  0
 13 31  1  0  0  0
 14 15  2  0  0  0
 14 98  1  0  0  0
 15 99  1  0  0  0
 16 17  2  0  0  0
 16 21  1  0  0  0
 16 31  1  0  0  0
 17 18  1  0  0  0
 17100  1  0  0  0
 18 19  2  0  0  0
 18101  1  0  0  0
 19 20  1  0  0  0
 19 24  1  0  0  0
 20 21  2  0  0  0
 20102  1  0  0  0
 21 23  1  0  0  0
 22 28  1  0  0  0
 22 32  2  0  0  0
 26 27  1  0  0  0
 28103  1  0  0  0
 28104  1  0  0  0
 29105  1  0  0  0
 29106  1  0  0  0
 33 34  1  0  0  0
 33 66  1  0  0  0
 33 70  2  0  0  0
 34 36  1  0  0  0
 34 59  1  0  0  0
 34107  1  0  0  0
 35 44  2  0  0  0
 35 45  1  0  0  0
 35 68  1  0  0  0
 36 56  1  0  0  0
 36108  1  0  0  0
 37 39  1  0  0  0
 37 47  1  0  0  0
 37 66  1  0  0  0
 37109  1  0  0  0
 38 43  2  0  0  0
 38 46  1  0  0  0
 38 47  1  0  0  0
 39 64  1  0  0  0
 39 67  2  0  0  0
 40 52  1  0  0  0
 40 53  2  0  0  0
 40 58  1  0  0  0
 41110  1  0  0  0
 41111  1  0  0  0
 41112  1  0  0  0
 41 48  1  0  0  0
 42 43  1  0  0  0
 42 66  1  0  0  0
 42113  1  0  0  0
 42114  1  0  0  0
 43 44  1  0  0  0
 44115  1  0  0  0
 45 46  2  0  0  0
 45116  1  0  0  0
 46117  1  0  0  0
 47118  1  0  0  0
 47119  1  0  0  0
 48 56  1  0  0  0
 48 65  1  0  0  0
 48120  1  0  0  0
 49 50  1  0  0  0
 49 53  1  0  0  0
 49 64  1  0  0  0
 49121  1  0  0  0
 50 51  1  0  0  0
 50122  1  0  0  0
 50123  1  0  0  0
 51 52  1  0  0  0
 51124  1  0  0  0
 51125  1  0  0  0
 52126  1  0  0  0
 52127  1  0  0  0
 53 54  1  0  0  0
 54 55  2  0  0  0
 54128  1  0  0  0
 55 57  1  0  0  0
 55129  1  0  0  0
 56 69  2  0  0  0
 57 58  2  0  0  0
 57130  1  0  0  0
 58131  1  0  0  0
 59 60  1  0  0  0
 59 61  1  0  0  0
 59 62  1  0  0  0
 60132  1  0  0  0
 60133  1  0  0  0
 60134  1  0  0  0
 61135  1  0  0  0
 61136  1  0  0  0
 61137  1  0  0  0
 62138  1  0  0  0
 62139  1  0  0  0
 62140  1  0  0  0
 63 65  1  0  0  0
 63141  1  0  0  0
 63142  1  0  0  0
 63143  1  0  0  0
 64144  1  0  0  0
 65145  1  0  0  0
 68 84  1  0  0  0
 71 73  2  0  0  0
 71 75  1  0  0  0
 71146  1  0  0  0
 72 74  1  0  0  0
 72 75  2  0  0  0
 72147  1  0  0  0
 73 76  1  0  0  0
 73148  1  0  0  0
 74 76  2  0  0  0
 74149  1  0  0  0
 75 79  1  0  0  0
 76 85  1  0  0  0
 77 80  1  0  0  0
 77150  1  0  0  0
 77151  1  0  0  0
 77152  1  0  0  0
 78 86  1  0  0  0
 78153  1  0  0  0
 78154  1  0  0  0
 78155  1  0  0  0
 79 86  1  0  0  0
 79156  1  0  0  0
 79157  1  0  0  0
 80 82  1  0  0  0
 80158  1  0  0  0
 80159  1  0  0  0
 81 83  1  0  0  0
 81 84  1  0  0  0
 81160  1  0  0  0
 81161  1  0  0  0
 82 85  1  0  0  0
 82162  1  0  0  0
 82163  1  0  0  0
 83 85  1  0  0  0
 83164  1  0  0  0
 83165  1  0  0  0
 84166  1  0  0  0
 84167  1  0  0  0
M  ISO  4   1 100  68 101  84 101  86 100
M  END
> <chiral flag>
0

> <version>
0

> <s_m_source_file>
/data/baiqing/PycharmProjects/Reinvent-master-3.2/result/LINK_invent/BTK/process_docking_weight1_custom_product_contain_oxygen_bond_distance_aromatic_linkinvent_7_9_3/rearranged_h_0016.sdf

> <i_m_source_file_index>
19

> <r_mmod_Potential_Energy-OPLS-2005>
115.895469665527

> <r_mmod_Stretch_Energy-OPLS-2005>
44.1847152709961

> <r_mmod_Bend_Energy-OPLS-2005>
116.373977661133

> <r_mmod_Torsional_Energy-OPLS-2005>
318.645812988281

> <r_mmod_Improper_Torsional_Energy-OPLS-2005>
5.36807060241699

> <r_mmod_Van_der_Waal_Energy-OPLS-2005>
148.524566650391

> <r_mmod_Electrostatic_Energy-OPLS-2005>
-332.233612060547

> <r_mmod_Solvation_Energy-OPLS-2005>
-199.51985168457

> <b_mmod_Minimization_Converged-OPLS-2005>
0

> <r_mmod_RMS_Derivative-OPLS-2005>
0.798842906951904

$$$$
19
                    3D
 Structure written by MMmdl.
158166  0  0  1  0            999 V2000
  -30.5262  -14.9599   20.3346 C   0  0  0  0  0  0
  -30.4530  -12.5675   19.4899 C   0  0  0  0  0  0
  -29.5250  -12.3947   18.2623 C   0  0  0  0  0  0
  -28.0460  -12.2601   18.6814 C   0  0  0  0  0  0
  -27.6256  -13.2158   19.8290 C   0  0  2  0  0  0
  -28.6791  -13.2917   20.9506 C   0  0  0  0  0  0
  -25.2507  -13.8141   20.5735 C   0  0  0  0  0  0
  -24.1783  -13.0413   20.9241 C   0  0  0  0  0  0
  -24.6354  -11.6884   20.8794 C   0  0  0  0  0  0
  -23.9037  -10.4274   21.0433 C   0  0  0  0  0  0
  -24.3593   -9.4185   21.9203 C   0  0  0  0  0  0
  -23.6272   -8.2219   22.0761 C   0  0  0  0  0  0
  -22.4258   -8.0264   21.3546 C   0  0  0  0  0  0
  -21.9888   -9.0248   20.4657 C   0  0  0  0  0  0
  -22.7215  -10.2129   20.3078 C   0  0  0  0  0  0
  -21.6843   -6.0725   22.5279 C   0  0  0  0  0  0
  -21.4007   -6.5636   23.8211 C   0  0  0  0  0  0
  -21.3649   -5.6797   24.9178 C   0  0  0  0  0  0
  -21.6040   -4.3061   24.7237 C   0  0  0  0  0  0
  -21.8819   -3.8145   23.4362 C   0  0  0  0  0  0
  -21.9188   -4.6954   22.3407 C   0  0  0  0  0  0
  -22.7814  -13.5221   21.1878 C   0  0  0  0  0  0
  -22.1656   -4.2139   21.0989 F   0  0  0  0  0  0
  -21.5625   -3.4543   25.7747 F   0  0  0  0  0  0
  -29.9398  -13.6939   20.3149 N   0  0  0  0  0  0
  -26.2885  -12.9294   20.3299 N   0  0  0  0  0  0
  -25.9279  -11.6467   20.5824 N   0  0  0  0  0  0
  -22.0453  -12.8218   22.0425 N   0  0  0  0  0  0
  -25.4242  -15.1858   20.4131 N   0  0  0  0  0  0
  -31.7585  -15.0102   20.2396 O   0  0  0  0  0  0
  -21.6630   -6.8857   21.4237 O   0  0  0  0  0  0
  -22.3516  -14.5531   20.6719 O   0  0  0  0  0  0
  -24.6404  -31.8466   23.1884 C   0  0  0  0  0  0
  -25.9190  -32.4698   23.8267 C   0  0  1  0  0  0
  -27.2226  -27.1607   20.1365 C   0  0  0  0  0  0
  -25.5944  -33.8502   24.2188 N   0  0  0  0  0  0
  -23.4421  -30.4667   21.5346 C   0  0  2  0  0  0
  -24.8903  -28.8973   20.1079 C   0  0  0  0  0  0
  -22.7559  -29.4564   22.4871 C   0  0  0  0  0  0
  -18.0316  -28.1393   22.8479 C   0  0  0  0  0  0
  -24.1499  -36.7262   23.2644 C   0  0  0  0  0  0
  -25.9963  -30.7258   21.3846 C   0  0  0  0  0  0
  -26.0653  -29.3395   20.7261 C   0  0  0  0  0  0
  -27.2271  -28.4849   20.7286 C   0  0  0  0  0  0
  -26.0185  -26.8151   19.4789 C   0  0  0  0  0  0
  -24.8783  -27.6474   19.4728 C   0  0  0  0  0  0
  -23.6647  -29.7958   20.1534 C   0  0  0  0  0  0
  -25.4128  -36.3037   24.0321 C   0  0  1  0  0  0
  -20.5923  -28.3729   23.1248 C   0  0  2  0  0  0
  -20.6813  -26.9438   22.5415 C   0  0  0  0  0  0
  -19.5787  -26.6386   21.5223 C   0  0  0  0  0  0
  -18.1967  -26.7925   22.1631 C   0  0  0  0  0  0
  -19.1568  -28.8879   23.2856 C   0  0  0  0  0  0
  -18.9477  -30.1479   23.8879 C   0  0  0  0  0  0
  -17.6472  -30.6595   24.0549 C   0  0  0  0  0  0
  -25.9079  -34.9412   23.5070 C   0  0  0  0  0  0
  -16.5368  -29.9083   23.6320 C   0  0  0  0  0  0
  -16.7300  -28.6497   23.0349 C   0  0  0  0  0  0
  -26.4517  -31.6554   25.0701 C   0  0  0  0  0  0
  -25.3696  -31.3748   26.1393 C   0  0  0  0  0  0
  -27.0387  -30.2953   24.6273 C   0  0  0  0  0  0
  -27.6054  -32.4310   25.7483 C   0  0  0  0  0  0
  -27.5581  -37.1791   24.8465 C   0  0  0  0  0  0
  -21.4252  -29.3053   22.3621 N   0  0  0  0  0  0
  -26.4294  -37.3746   23.9403 N   0  0  0  0  0  0
  -24.7127  -31.0347   22.0906 N   0  0  0  0  0  0
  -23.4217  -28.8115   23.3013 O   0  0  0  0  0  0
  -28.3060  -26.2190   20.2448 O   0  0  0  0  0  0
  -26.5675  -34.8911   22.4657 O   0  0  0  0  0  0
  -23.5531  -32.1337   23.7122 O   0  0  0  0  0  0
  -30.6949  -18.5476   20.1270 C   0  0  0  0  0  0
  -28.4002  -18.2145   20.5694 C   0  0  0  0  0  0
  -30.4582  -19.9824   20.0502 C   0  0  0  0  0  0
  -28.1678  -19.6435   20.4953 C   0  0  0  0  0  0
  -29.6669  -17.5707   20.3550 C   0  0  0  0  0  0
  -29.1741  -20.6164   20.1852 C   0  0  0  0  0  0
  -29.8802  -23.5444   21.4554 C   0  0  0  0  0  0
  -29.2599  -16.0379   18.5707 C   0  0  0  0  0  0
  -28.0715  -21.9259   18.5290 C   0  0  0  0  0  0
  -28.3389  -24.7653   19.7076 C   0  0  0  0  0  0
  -28.6778  -23.3351   20.5303 C   0  0  2  0  0  0
  -29.7338  -16.0965   19.9639 N   0  0  0  0  0  0
  -28.8788  -22.0058   19.7464 N   0  0  0  0  0  0
  -31.4771  -12.7457   19.1602 H   0  0  0  0  0  0
  -30.4827  -11.6507   20.0807 H   0  0  0  0  0  0
  -29.8210  -11.4999   17.7133 H   0  0  0  0  0  0
  -29.6511  -13.2009   17.5469 H   0  0  0  0  0  0
  -27.9090  -11.2282   19.0066 H   0  0  0  0  0  0
  -27.3934  -12.3887   17.8174 H   0  0  0  0  0  0
  -27.5599  -14.1955   19.3750 H   0  0  0  0  0  0
  -28.7790  -12.3363   21.4675 H   0  0  0  0  0  0
  -28.3855  -14.0284   21.7003 H   0  0  0  0  0  0
  -25.2731   -9.5662   22.4793 H   0  0  0  0  0  0
  -23.9979   -7.4610   22.7476 H   0  0  0  0  0  0
  -21.0816   -8.8776   19.8963 H   0  0  0  0  0  0
  -22.3669  -10.9684   19.6210 H   0  0  0  0  0  0
  -21.2002   -7.6151   23.9703 H   0  0  0  0  0  0
  -21.1463   -6.0538   25.9078 H   0  0  0  0  0  0
  -22.0602   -2.7606   23.2874 H   0  0  0  0  0  0
  -22.4057  -11.9870   22.4809 H   0  0  0  0  0  0
  -21.1083  -13.1271   22.2646 H   0  0  0  0  0  0
  -24.6595  -15.8440   20.5189 H   0  0  0  0  0  0
  -26.2841  -15.6168   20.1012 H   0  0  0  0  0  0
  -26.7260  -32.5311   23.0999 H   0  0  0  0  0  0
  -25.0013  -33.9606   25.0281 H   0  0  0  0  0  0
  -22.7434  -31.2924   21.3827 H   0  0  0  0  0  0
  -23.3759  -35.9594   23.3289 H   0  0  0  0  0  0
  -24.3587  -36.8907   22.2062 H   0  0  0  0  0  0
  -23.7264  -37.6462   23.6684 H   0  0  0  0  0  0
  -26.1534  -31.4787   20.6110 H   0  0  0  0  0  0
  -26.8657  -30.7736   22.0282 H   0  0  0  0  0  0
  -28.1208  -28.8170   21.2382 H   0  0  0  0  0  0
  -25.8983  -25.8681   18.9817 H   0  0  0  0  0  0
  -23.9786  -27.3020   18.9817 H   0  0  0  0  0  0
  -23.7954  -30.5697   19.3958 H   0  0  0  0  0  0
  -22.7788  -29.2361   19.8482 H   0  0  0  0  0  0
  -25.1319  -36.1870   25.0813 H   0  0  0  0  0  0
  -21.0022  -28.3332   24.1366 H   0  0  0  0  0  0
  -20.5731  -26.2345   23.3631 H   0  0  0  0  0  0
  -21.6683  -26.7471   22.1203 H   0  0  0  0  0  0
  -19.6961  -25.6295   21.1267 H   0  0  0  0  0  0
  -19.6717  -27.3192   20.6749 H   0  0  0  0  0  0
  -18.0369  -26.0071   22.9031 H   0  0  0  0  0  0
  -17.4238  -26.6663   21.4035 H   0  0  0  0  0  0
  -19.7952  -30.7301   24.2242 H   0  0  0  0  0  0
  -17.5022  -31.6272   24.5155 H   0  0  0  0  0  0
  -15.5369  -30.2975   23.7649 H   0  0  0  0  0  0
  -15.8702  -28.0807   22.7075 H   0  0  0  0  0  0
  -24.5879  -30.7095   25.7707 H   0  0  0  0  0  0
  -24.8874  -32.2932   26.4747 H   0  0  0  0  0  0
  -25.7956  -30.8963   27.0218 H   0  0  0  0  0  0
  -26.3014  -29.6677   24.1253 H   0  0  0  0  0  0
  -27.3988  -29.7246   25.4844 H   0  0  0  0  0  0
  -27.8919  -30.4194   23.9600 H   0  0  0  0  0  0
  -27.2654  -33.3623   26.2017 H   0  0  0  0  0  0
  -28.3878  -32.6842   25.0319 H   0  0  0  0  0  0
  -28.0704  -31.8464   26.5430 H   0  0  0  0  0  0
  -28.2597  -38.0089   24.7502 H   0  0  0  0  0  0
  -28.1080  -36.2620   24.6298 H   0  0  0  0  0  0
  -27.2296  -37.1449   25.8868 H   0  0  0  0  0  0
  -20.9459  -29.8767   21.6804 H   0  0  0  0  0  0
  -26.0165  -38.2821   24.1367 H   0  0  0  0  0  0
  -31.6885  -18.1929   19.8922 H   0  0  0  0  0  0
  -27.5300  -17.5862   20.6962 H   0  0  0  0  0  0
  -31.2981  -20.6061   19.7793 H   0  0  0  0  0  0
  -27.1476  -19.9875   20.5862 H   0  0  0  0  0  0
  -30.7956  -23.7015   20.8839 H   0  0  0  0  0  0
  -30.0363  -22.6858   22.1085 H   0  0  0  0  0  0
  -29.7307  -24.4165   22.0930 H   0  0  0  0  0  0
  -29.5889  -16.9150   18.0103 H   0  0  0  0  0  0
  -28.1729  -16.0391   18.5190 H   0  0  0  0  0  0
  -29.6391  -15.1993   17.9994 H   0  0  0  0  0  0
  -28.3709  -22.7011   17.8229 H   0  0  0  0  0  0
  -27.0113  -22.0611   18.7478 H   0  0  0  0  0  0
  -28.1885  -20.9733   18.0065 H   0  0  0  0  0  0
  -27.4312  -24.5663   19.1496 H   0  0  0  0  0  0
  -29.0994  -24.8261   18.9289 H   0  0  0  0  0  0
  -27.8181  -23.1554   21.1772 H   0  0  0  0  0  0
  1 25  1  0  0  0
  1 30  2  0  0  0
  1 82  1  0  0  0
  2  3  1  0  0  0
  2 25  1  0  0  0
  2 84  1  0  0  0
  2 85  1  0  0  0
  3  4  1  0  0  0
  3 86  1  0  0  0
  3 87  1  0  0  0
  4  5  1  0  0  0
  4 88  1  0  0  0
  4 89  1  0  0  0
  5  6  1  0  0  0
  5 26  1  0  0  0
  5 90  1  0  0  0
  6 25  1  0  0  0
  6 91  1  0  0  0
  6 92  1  0  0  0
  7  8  2  0  0  0
  7 26  1  0  0  0
  7 29  1  0  0  0
  8  9  1  0  0  0
  8 22  1  0  0  0
  9 10  1  0  0  0
  9 27  2  0  0  0
 10 11  2  0  0  0
 10 15  1  0  0  0
 11 12  1  0  0  0
 11 93  1  0  0  0
 12 13  2  0  0  0
 12 94  1  0  0  0
 13 14  1  0  0  0
 13 31  1  0  0  0
 14 15  2  0  0  0
 14 95  1  0  0  0
 15 96  1  0  0  0
 16 17  2  0  0  0
 16 21  1  0  0  0
 16 31  1  0  0  0
 17 18  1  0  0  0
 17 97  1  0  0  0
 18 19  2  0  0  0
 18 98  1  0  0  0
 19 20  1  0  0  0
 19 24  1  0  0  0
 20 21  2  0  0  0
 20 99  1  0  0  0
 21 23  1  0  0  0
 22 28  1  0  0  0
 22 32  2  0  0  0
 26 27  1  0  0  0
 28100  1  0  0  0
 28101  1  0  0  0
 29102  1  0  0  0
 29103  1  0  0  0
 33 34  1  0  0  0
 33 66  1  0  0  0
 33 70  2  0  0  0
 34 36  1  0  0  0
 34 59  1  0  0  0
 34104  1  0  0  0
 35 44  2  0  0  0
 35 45  1  0  0  0
 35 68  1  0  0  0
 36 56  1  0  0  0
 36105  1  0  0  0
 37 39  1  0  0  0
 37 47  1  0  0  0
 37 66  1  0  0  0
 37106  1  0  0  0
 38 43  2  0  0  0
 38 46  1  0  0  0
 38 47  1  0  0  0
 39 64  1  0  0  0
 39 67  2  0  0  0
 40 52  1  0  0  0
 40 53  2  0  0  0
 40 58  1  0  0  0
 41107  1  0  0  0
 41108  1  0  0  0
 41109  1  0  0  0
 41 48  1  0  0  0
 42 43  1  0  0  0
 42 66  1  0  0  0
 42110  1  0  0  0
 42111  1  0  0  0
 43 44  1  0  0  0
 44112  1  0  0  0
 45 46  2  0  0  0
 45113  1  0  0  0
 46114  1  0  0  0
 47115  1  0  0  0
 47116  1  0  0  0
 48 56  1  0  0  0
 48 65  1  0  0  0
 48117  1  0  0  0
 49 50  1  0  0  0
 49 53  1  0  0  0
 49 64  1  0  0  0
 49118  1  0  0  0
 50 51  1  0  0  0
 50119  1  0  0  0
 50120  1  0  0  0
 51 52  1  0  0  0
 51121  1  0  0  0
 51122  1  0  0  0
 52123  1  0  0  0
 52124  1  0  0  0
 53 54  1  0  0  0
 54 55  2  0  0  0
 54125  1  0  0  0
 55 57  1  0  0  0
 55126  1  0  0  0
 56 69  2  0  0  0
 57 58  2  0  0  0
 57127  1  0  0  0
 58128  1  0  0  0
 59 60  1  0  0  0
 59 61  1  0  0  0
 59 62  1  0  0  0
 60129  1  0  0  0
 60130  1  0  0  0
 60131  1  0  0  0
 61132  1  0  0  0
 61133  1  0  0  0
 61134  1  0  0  0
 62135  1  0  0  0
 62136  1  0  0  0
 62137  1  0  0  0
 63 65  1  0  0  0
 63138  1  0  0  0
 63139  1  0  0  0
 63140  1  0  0  0
 64141  1  0  0  0
 65142  1  0  0  0
 68 80  1  0  0  0
 71 73  2  0  0  0
 71 75  1  0  0  0
 71143  1  0  0  0
 72 74  1  0  0  0
 72 75  2  0  0  0
 72144  1  0  0  0
 73 76  1  0  0  0
 73145  1  0  0  0
 74 76  2  0  0  0
 74146  1  0  0  0
 75 82  1  0  0  0
 76 83  1  0  0  0
 77147  1  0  0  0
 77148  1  0  0  0
 77149  1  0  0  0
 77 81  1  0  0  0
 78 82  1  0  0  0
 78150  1  0  0  0
 78151  1  0  0  0
 78152  1  0  0  0
 79 83  1  0  0  0
 79153  1  0  0  0
 79154  1  0  0  0
 79155  1  0  0  0
 80 81  1  0  0  0
 80156  1  0  0  0
 80157  1  0  0  0
 81 83  1  0  0  0
 81158  1  0  0  0
M  ISO  4   1 100  68 101  80 101  82 100
M  END
> <chiral flag>
0

> <version>
0

> <s_m_source_file>
/data/baiqing/PycharmProjects/Reinvent-master-3.2/result/LINK_invent/BTK/process_docking_weight1_custom_product_contain_oxygen_bond_distance_aromatic_linkinvent_7_9_3/rearranged_h_0016.sdf

> <i_m_source_file_index>
20

> <r_mmod_Potential_Energy-OPLS-2005>
708.1005859375

> <r_mmod_Stretch_Energy-OPLS-2005>
214.092864990234

> <r_mmod_Bend_Energy-OPLS-2005>
276.326232910156

> <r_mmod_Torsional_Energy-OPLS-2005>
373.311401367188

> <r_mmod_Improper_Torsional_Energy-OPLS-2005>
27.4526119232178

> <r_mmod_Van_der_Waal_Energy-OPLS-2005>
140.456161499023

> <r_mmod_Electrostatic_Energy-OPLS-2005>
-315.609741210938

> <r_mmod_Solvation_Energy-OPLS-2005>
-202.80908203125

> <b_mmod_Minimization_Converged-OPLS-2005>
0

> <r_mmod_RMS_Derivative-OPLS-2005>
1.54752850532532

$$$$
20
                    3D
 Structure written by MMmdl.
171179  0  0  1  0            999 V2000
  -30.8163  -14.3650   20.7138 C   0  0  0  0  0  0
  -30.4104  -12.3058   19.4098 C   0  0  0  0  0  0
  -29.4904  -12.5405   18.2013 C   0  0  0  0  0  0
  -28.0158  -12.3903   18.6109 C   0  0  0  0  0  0
  -27.6661  -13.2153   19.8784 C   0  0  2  0  0  0
  -28.7040  -12.9941   21.0033 C   0  0  0  0  0  0
  -25.2588  -13.8179   20.5659 C   0  0  0  0  0  0
  -24.1836  -13.0435   20.9152 C   0  0  0  0  0  0
  -24.6406  -11.6923   20.8700 C   0  0  0  0  0  0
  -23.9061  -10.4301   21.0374 C   0  0  0  0  0  0
  -24.3615   -9.4222   21.9160 C   0  0  0  0  0  0
  -23.6294   -8.2257   22.0752 C   0  0  0  0  0  0
  -22.4273   -8.0289   21.3542 C   0  0  0  0  0  0
  -21.9894   -9.0253   20.4638 C   0  0  0  0  0  0
  -22.7222  -10.2138   20.3032 C   0  0  0  0  0  0
  -21.6854   -6.0736   22.5287 C   0  0  0  0  0  0
  -21.4014   -6.5640   23.8217 C   0  0  0  0  0  0
  -21.3662   -5.6793   24.9178 C   0  0  0  0  0  0
  -21.6044   -4.3053   24.7228 C   0  0  0  0  0  0
  -21.8810   -3.8146   23.4347 C   0  0  0  0  0  0
  -21.9199   -4.6966   22.3406 C   0  0  0  0  0  0
  -22.7863  -13.5248   21.1837 C   0  0  0  0  0  0
  -22.1663   -4.2153   21.0980 F   0  0  0  0  0  0
  -21.5630   -3.4538   25.7738 F   0  0  0  0  0  0
  -30.0526  -13.2646   20.4693 N   0  0  0  0  0  0
  -26.3045  -12.9374   20.3346 N   0  0  0  0  0  0
  -25.9340  -11.6520   20.5718 N   0  0  0  0  0  0
  -22.0485  -12.8239   22.0385 N   0  0  0  0  0  0
  -25.4275  -15.1892   20.4119 N   0  0  0  0  0  0
  -31.7937  -14.6687   20.0240 O   0  0  0  0  0  0
  -21.6645   -6.8877   21.4246 O   0  0  0  0  0  0
  -22.3554  -14.5559   20.6716 O   0  0  0  0  0  0
  -24.6092  -31.8759   23.2113 C   0  0  0  0  0  0
  -25.9003  -32.4876   23.8403 C   0  0  1  0  0  0
  -27.2340  -27.4513   20.1023 C   0  0  0  0  0  0
  -25.5930  -33.8673   24.2409 N   0  0  0  0  0  0
  -23.3899  -30.4984   21.5541 C   0  0  2  0  0  0
  -24.8384  -28.9773   20.1115 C   0  0  0  0  0  0
  -22.7384  -29.4660   22.5026 C   0  0  0  0  0  0
  -18.0263  -28.1334   22.8525 C   0  0  0  0  0  0
  -24.1443  -36.7318   23.2640 C   0  0  0  0  0  0
  -25.9093  -30.8592   21.3416 C   0  0  0  0  0  0
  -25.9950  -29.4828   20.7142 C   0  0  0  0  0  0
  -27.1903  -28.7228   20.7233 C   0  0  0  0  0  0
  -26.0493  -26.9648   19.4876 C   0  0  0  0  0  0
  -24.8621  -27.7199   19.4908 C   0  0  0  0  0  0
  -23.5939  -29.8361   20.1649 C   0  0  0  0  0  0
  -25.4067  -36.3167   24.0352 C   0  0  1  0  0  0
  -20.5863  -28.3605   23.1347 C   0  0  2  0  0  0
  -20.6749  -26.9348   22.5431 C   0  0  0  0  0  0
  -19.5713  -26.6341   21.5252 C   0  0  0  0  0  0
  -18.1888  -26.7887   22.1658 C   0  0  0  0  0  0
  -19.1526  -28.8786   23.2913 C   0  0  0  0  0  0
  -18.9462  -30.1410   23.8892 C   0  0  0  0  0  0
  -17.6471  -30.6564   24.0554 C   0  0  0  0  0  0
  -25.9013  -34.9528   23.5177 C   0  0  0  0  0  0
  -16.5354  -29.9074   23.6312 C   0  0  0  0  0  0
  -16.7255  -28.6482   23.0338 C   0  0  0  0  0  0
  -26.4484  -31.6590   25.0650 C   0  0  0  0  0  0
  -25.3828  -31.3603   26.1462 C   0  0  0  0  0  0
  -27.0275  -30.3091   24.5787 C   0  0  0  0  0  0
  -27.6093  -32.4275   25.7416 C   0  0  0  0  0  0
  -27.5537  -37.1796   24.8485 C   0  0  0  0  0  0
  -21.4125  -29.3029   22.3811 N   0  0  0  0  0  0
  -26.4251  -37.3840   23.9454 N   0  0  0  0  0  0
  -24.6561  -31.0881   22.1000 N   0  0  0  0  0  0
  -23.4209  -28.8180   23.3002 O   0  0  0  0  0  0
  -28.4251  -26.7399   20.1060 O   0  0  0  0  0  0
  -26.5501  -34.8973   22.4698 O   0  0  0  0  0  0
  -23.5303  -32.1475   23.7568 O   0  0  0  0  0  0
  -30.0048  -19.8221   21.4119 C   0  0  0  0  0  0
  -32.0435  -20.1104   20.1442 C   0  0  0  0  0  0
  -29.3978  -20.8741   20.6881 C   0  0  0  0  0  0
  -31.3193  -19.3801   21.1242 C   0  0  0  0  0  0
  -30.0998  -21.5120   19.6346 C   0  0  0  0  0  0
  -31.4463  -21.1544   19.4074 C   0  0  0  0  0  0
  -29.7186  -23.6300   18.4152 C   0  0  0  0  0  0
  -27.9806  -21.2687   21.0533 C   0  0  0  0  0  0
  -31.2725  -17.8709   24.1210 C   0  0  0  0  0  0
  -28.4804  -21.6675   17.7742 C   0  0  0  0  0  0
  -33.3613  -18.2551   21.8576 C   0  0  0  0  0  0
  -29.7436  -24.6586   19.5535 C   0  0  0  0  0  0
  -31.5157  -15.8735   22.5679 C   0  0  0  0  0  0
  -28.4068  -25.4388   19.5122 C   0  0  0  0  0  0
  -31.1114  -17.3746   22.6696 C   0  0  2  0  0  0
  -30.5537  -15.0183   21.8545 N   0  0  0  0  0  0
  -29.4250  -22.3350   18.6778 N   0  0  0  0  0  0
  -31.8966  -18.2455   21.7655 N   0  0  0  0  0  0
  -29.8588  -24.0420   17.2582 O   0  0  0  0  0  0
  -32.1600  -21.7662   18.4305 F   0  0  0  0  0  0
  -31.4573  -12.3851   19.1127 H   0  0  0  0  0  0
  -30.2914  -11.2893   19.7855 H   0  0  0  0  0  0
  -29.7343  -11.8415   17.4019 H   0  0  0  0  0  0
  -29.6624  -13.5390   17.7966 H   0  0  0  0  0  0
  -27.8219  -11.3315   18.7879 H   0  0  0  0  0  0
  -27.3686  -12.6836   17.7831 H   0  0  0  0  0  0
  -27.7139  -14.2662   19.5949 H   0  0  0  0  0  0
  -28.6588  -11.9635   21.3582 H   0  0  0  0  0  0
  -28.4516  -13.6157   21.8624 H   0  0  0  0  0  0
  -25.2758   -9.5723   22.4725 H   0  0  0  0  0  0
  -24.0014   -7.4654   22.7475 H   0  0  0  0  0  0
  -21.0818   -8.8750   19.8949 H   0  0  0  0  0  0
  -22.3651  -10.9668   19.6140 H   0  0  0  0  0  0
  -21.2000   -7.6147   23.9719 H   0  0  0  0  0  0
  -21.1489   -6.0523   25.9079 H   0  0  0  0  0  0
  -22.0588   -2.7612   23.2845 H   0  0  0  0  0  0
  -22.4113  -11.9917   22.4789 H   0  0  0  0  0  0
  -21.1092  -13.1267   22.2566 H   0  0  0  0  0  0
  -24.6598  -15.8418   20.5228 H   0  0  0  0  0  0
  -26.2878  -15.6323   20.1132 H   0  0  0  0  0  0
  -26.7068  -32.5668   23.1174 H   0  0  0  0  0  0
  -25.0361  -33.9891   25.0727 H   0  0  0  0  0  0
  -22.6736  -31.3130   21.4233 H   0  0  0  0  0  0
  -23.3732  -35.9630   23.3337 H   0  0  0  0  0  0
  -24.3564  -36.8886   22.2059 H   0  0  0  0  0  0
  -23.7130  -37.6508   23.6616 H   0  0  0  0  0  0
  -25.9568  -31.6030   20.5451 H   0  0  0  0  0  0
  -26.8184  -30.9702   21.9161 H   0  0  0  0  0  0
  -28.0740  -29.1152   21.2088 H   0  0  0  0  0  0
  -26.0090  -26.0104   18.9810 H   0  0  0  0  0  0
  -23.9798  -27.3297   19.0045 H   0  0  0  0  0  0
  -23.6834  -30.6143   19.4065 H   0  0  0  0  0  0
  -22.7186  -29.2512   19.8771 H   0  0  0  0  0  0
  -25.1207  -36.2070   25.0828 H   0  0  0  0  0  0
  -20.9935  -28.3153   24.1467 H   0  0  0  0  0  0
  -20.5670  -26.2209   23.3611 H   0  0  0  0  0  0
  -21.6601  -26.7388   22.1202 H   0  0  0  0  0  0
  -19.6854  -25.6265   21.1239 H   0  0  0  0  0  0
  -19.6617  -27.3179   20.6815 H   0  0  0  0  0  0
  -17.4148  -26.6667   21.4045 H   0  0  0  0  0  0
  -18.0238  -26.0000   22.9020 H   0  0  0  0  0  0
  -19.7952  -30.7225   24.2220 H   0  0  0  0  0  0
  -17.5039  -31.6254   24.5155 H   0  0  0  0  0  0
  -15.5346  -30.2982   23.7614 H   0  0  0  0  0  0
  -15.8659  -28.0815   22.7008 H   0  0  0  0  0  0
  -24.6089  -30.6821   25.7852 H   0  0  0  0  0  0
  -24.8896  -32.2708   26.4904 H   0  0  0  0  0  0
  -25.8299  -30.8865   27.0210 H   0  0  0  0  0  0
  -26.2720  -29.6886   24.0967 H   0  0  0  0  0  0
  -27.4347  -29.7243   25.4035 H   0  0  0  0  0  0
  -27.8386  -30.4538   23.8643 H   0  0  0  0  0  0
  -27.2772  -33.3629   26.1949 H   0  0  0  0  0  0
  -28.3928  -32.6750   25.0230 H   0  0  0  0  0  0
  -28.0712  -31.8390   26.5362 H   0  0  0  0  0  0
  -28.2594  -38.0056   24.7540 H   0  0  0  0  0  0
  -28.0977  -36.2593   24.6298 H   0  0  0  0  0  0
  -27.2279  -37.1454   25.8894 H   0  0  0  0  0  0
  -20.9237  -29.8846   21.7155 H   0  0  0  0  0  0
  -26.0151  -38.2903   24.1549 H   0  0  0  0  0  0
  -29.4158  -19.3507   22.1837 H   0  0  0  0  0  0
  -33.0608  -19.8539   19.8933 H   0  0  0  0  0  0
  -27.8514  -21.2422   22.1353 H   0  0  0  0  0  0
  -27.2646  -20.5830   20.6029 H   0  0  0  0  0  0
  -27.7475  -22.2848   20.7333 H   0  0  0  0  0  0
  -30.6186  -17.3271   24.8021 H   0  0  0  0  0  0
  -31.0290  -18.9285   24.2266 H   0  0  0  0  0  0
  -32.2916  -17.7283   24.4826 H   0  0  0  0  0  0
  -28.7776  -21.7578   16.7264 H   0  0  0  0  0  0
  -27.4900  -22.1133   17.8732 H   0  0  0  0  0  0
  -28.3889  -20.6040   17.9942 H   0  0  0  0  0  0
  -33.8110  -17.9962   20.8964 H   0  0  0  0  0  0
  -33.7474  -17.5477   22.5928 H   0  0  0  0  0  0
  -33.7211  -19.2458   22.1459 H   0  0  0  0  0  0
  -29.9105  -24.1886   20.5226 H   0  0  0  0  0  0
  -30.5775  -25.3410   19.3827 H   0  0  0  0  0  0
  -31.5599  -15.4540   23.5753 H   0  0  0  0  0  0
  -32.5278  -15.7412   22.1839 H   0  0  0  0  0  0
  -28.1053  -25.5744   18.4720 H   0  0  0  0  0  0
  -27.6418  -24.8300   19.9976 H   0  0  0  0  0  0
  -30.0505  -17.4200   22.4306 H   0  0  0  0  0  0
  -29.7335  -14.7259   22.3632 H   0  0  0  0  0  0
  1 25  1  0  0  0
  1 30  2  0  0  0
  1 86  1  0  0  0
  2  3  1  0  0  0
  2 25  1  0  0  0
  2 91  1  0  0  0
  2 92  1  0  0  0
  3  4  1  0  0  0
  3 93  1  0  0  0
  3 94  1  0  0  0
  4  5  1  0  0  0
  4 95  1  0  0  0
  4 96  1  0  0  0
  5  6  1  0  0  0
  5 26  1  0  0  0
  5 97  1  0  0  0
  6 25  1  0  0  0
  6 98  1  0  0  0
  6 99  1  0  0  0
  7  8  2  0  0  0
  7 26  1  0  0  0
  7 29  1  0  0  0
  8  9  1  0  0  0
  8 22  1  0  0  0
  9 10  1  0  0  0
  9 27  2  0  0  0
 10 11  2  0  0  0
 10 15  1  0  0  0
 11 12  1  0  0  0
 11100  1  0  0  0
 12 13  2  0  0  0
 12101  1  0  0  0
 13 14  1  0  0  0
 13 31  1  0  0  0
 14 15  2  0  0  0
 14102  1  0  0  0
 15103  1  0  0  0
 16 17  2  0  0  0
 16 21  1  0  0  0
 16 31  1  0  0  0
 17 18  1  0  0  0
 17104  1  0  0  0
 18 19  2  0  0  0
 18105  1  0  0  0
 19 20  1  0  0  0
 19 24  1  0  0  0
 20 21  2  0  0  0
 20106  1  0  0  0
 21 23  1  0  0  0
 22 28  1  0  0  0
 22 32  2  0  0  0
 26 27  1  0  0  0
 28107  1  0  0  0
 28108  1  0  0  0
 29109  1  0  0  0
 29110  1  0  0  0
 33 34  1  0  0  0
 33 66  1  0  0  0
 33 70  2  0  0  0
 34 36  1  0  0  0
 34 59  1  0  0  0
 34111  1  0  0  0
 35 44  2  0  0  0
 35 45  1  0  0  0
 35 68  1  0  0  0
 36 56  1  0  0  0
 36112  1  0  0  0
 37 39  1  0  0  0
 37 47  1  0  0  0
 37 66  1  0  0  0
 37113  1  0  0  0
 38 43  2  0  0  0
 38 46  1  0  0  0
 38 47  1  0  0  0
 39 64  1  0  0  0
 39 67  2  0  0  0
 40 52  1  0  0  0
 40 53  2  0  0  0
 40 58  1  0  0  0
 41114  1  0  0  0
 41115  1  0  0  0
 41116  1  0  0  0
 41 48  1  0  0  0
 42 43  1  0  0  0
 42 66  1  0  0  0
 42117  1  0  0  0
 42118  1  0  0  0
 43 44  1  0  0  0
 44119  1  0  0  0
 45 46  2  0  0  0
 45120  1  0  0  0
 46121  1  0  0  0
 47122  1  0  0  0
 47123  1  0  0  0
 48 56  1  0  0  0
 48 65  1  0  0  0
 48124  1  0  0  0
 49 50  1  0  0  0
 49 53  1  0  0  0
 49 64  1  0  0  0
 49125  1  0  0  0
 50 51  1  0  0  0
 50126  1  0  0  0
 50127  1  0  0  0
 51 52  1  0  0  0
 51128  1  0  0  0
 51129  1  0  0  0
 52130  1  0  0  0
 52131  1  0  0  0
 53 54  1  0  0  0
 54 55  2  0  0  0
 54132  1  0  0  0
 55 57  1  0  0  0
 55133  1  0  0  0
 56 69  2  0  0  0
 57 58  2  0  0  0
 57134  1  0  0  0
 58135  1  0  0  0
 59 60  1  0  0  0
 59 61  1  0  0  0
 59 62  1  0  0  0
 60136  1  0  0  0
 60137  1  0  0  0
 60138  1  0  0  0
 61139  1  0  0  0
 61140  1  0  0  0
 61141  1  0  0  0
 62142  1  0  0  0
 62143  1  0  0  0
 62144  1  0  0  0
 63 65  1  0  0  0
 63145  1  0  0  0
 63146  1  0  0  0
 63147  1  0  0  0
 64148  1  0  0  0
 65149  1  0  0  0
 68 84  1  0  0  0
 71 73  2  0  0  0
 71 74  1  0  0  0
 71150  1  0  0  0
 72 74  2  0  0  0
 72 76  1  0  0  0
 72151  1  0  0  0
 73 75  1  0  0  0
 73 78  1  0  0  0
 74 88  1  0  0  0
 75 76  2  0  0  0
 75 87  1  0  0  0
 76 90  1  0  0  0
 77 82  1  0  0  0
 77 87  1  0  0  0
 77 89  2  0  0  0
 78152  1  0  0  0
 78153  1  0  0  0
 78154  1  0  0  0
 79155  1  0  0  0
 79156  1  0  0  0
 79157  1  0  0  0
 79 85  1  0  0  0
 80 87  1  0  0  0
 80158  1  0  0  0
 80159  1  0  0  0
 80160  1  0  0  0
 81 88  1  0  0  0
 81161  1  0  0  0
 81162  1  0  0  0
 81163  1  0  0  0
 82 84  1  0  0  0
 82164  1  0  0  0
 82165  1  0  0  0
 83 85  1  0  0  0
 83 86  1  0  0  0
 83166  1  0  0  0
 83167  1  0  0  0
 84168  1  0  0  0
 84169  1  0  0  0
 85 88  1  0  0  0
 85170  1  0  0  0
 86171  1  0  0  0
M  ISO  4   1 100  68 101  84 101  86 100
M  END
> <chiral flag>
0

> <version>
0

> <s_m_source_file>
/data/baiqing/PycharmProjects/Reinvent-master-3.2/result/LINK_invent/BTK/process_docking_weight1_custom_product_contain_oxygen_bond_distance_aromatic_linkinvent_7_9_3/rearranged_h_0016.sdf

> <i_m_source_file_index>
21

> <r_mmod_Potential_Energy-OPLS-2005>
-23.1115474700928

> <r_mmod_Stretch_Energy-OPLS-2005>
44.1370468139648

> <r_mmod_Bend_Energy-OPLS-2005>
118.263397216797

> <r_mmod_Torsional_Energy-OPLS-2005>
313.191162109375

> <r_mmod_Improper_Torsional_Energy-OPLS-2005>
7.2498025894165

> <r_mmod_Van_der_Waal_Energy-OPLS-2005>
176.228775024414

> <r_mmod_Electrostatic_Energy-OPLS-2005>
-455.834625244141

> <r_mmod_Solvation_Energy-OPLS-2005>
-235.173690795898

> <b_mmod_Minimization_Converged-OPLS-2005>
0

> <r_mmod_RMS_Derivative-OPLS-2005>
4.38471555709839

$$$$
21
                    3D
 Structure written by MMmdl.
159168  0  0  1  0            999 V2000
  -30.6979  -14.6990   20.4867 C   0  0  0  0  0  0
  -30.4088  -12.4374   19.4720 C   0  0  0  0  0  0
  -29.4999  -12.5184   18.2318 C   0  0  0  0  0  0
  -28.0307  -12.3352   18.6467 C   0  0  0  0  0  0
  -27.6373  -13.2365   19.8473 C   0  0  2  0  0  0
  -28.6833  -13.1988   20.9840 C   0  0  0  0  0  0
  -25.2485  -13.8192   20.5704 C   0  0  0  0  0  0
  -24.1791  -13.0435   20.9217 C   0  0  0  0  0  0
  -24.6392  -11.6915   20.8760 C   0  0  0  0  0  0
  -23.9079  -10.4293   21.0416 C   0  0  0  0  0  0
  -24.3621   -9.4208   21.9197 C   0  0  0  0  0  0
  -23.6293   -8.2243   22.0756 C   0  0  0  0  0  0
  -22.4273   -8.0281   21.3550 C   0  0  0  0  0  0
  -21.9918   -9.0254   20.4652 C   0  0  0  0  0  0
  -22.7249  -10.2134   20.3069 C   0  0  0  0  0  0
  -21.6857   -6.0745   22.5284 C   0  0  0  0  0  0
  -21.4007   -6.5644   23.8215 C   0  0  0  0  0  0
  -21.3663   -5.6801   24.9179 C   0  0  0  0  0  0
  -21.6042   -4.3062   24.7230 C   0  0  0  0  0  0
  -21.8810   -3.8155   23.4348 C   0  0  0  0  0  0
  -21.9183   -4.6972   22.3406 C   0  0  0  0  0  0
  -22.7809  -13.5217   21.1870 C   0  0  0  0  0  0
  -22.1659   -4.2155   21.0985 F   0  0  0  0  0  0
  -21.5632   -3.4544   25.7745 F   0  0  0  0  0  0
  -29.9928  -13.5178   20.4015 N   0  0  0  0  0  0
  -26.2925  -12.9419   20.3299 N   0  0  0  0  0  0
  -25.9323  -11.6554   20.5760 N   0  0  0  0  0  0
  -22.0451  -12.8219   22.0429 N   0  0  0  0  0  0
  -25.4136  -15.1916   20.4089 N   0  0  0  0  0  0
  -31.8681  -14.7221   20.0928 O   0  0  0  0  0  0
  -21.6633   -6.8883   21.4245 O   0  0  0  0  0  0
  -22.3493  -14.5524   20.6711 O   0  0  0  0  0  0
  -24.6290  -31.8564   23.1981 C   0  0  0  0  0  0
  -25.9132  -32.4757   23.8320 C   0  0  1  0  0  0
  -27.2365  -27.2830   20.1049 C   0  0  0  0  0  0
  -25.5951  -33.8557   24.2263 N   0  0  0  0  0  0
  -23.4257  -30.4750   21.5407 C   0  0  2  0  0  0
  -24.8729  -28.9194   20.1094 C   0  0  0  0  0  0
  -22.7498  -29.4590   22.4922 C   0  0  0  0  0  0
  -18.0302  -28.1376   22.8494 C   0  0  0  0  0  0
  -24.1489  -36.7241   23.2637 C   0  0  0  0  0  0
  -25.9692  -30.7699   21.3774 C   0  0  0  0  0  0
  -26.0411  -29.3936   20.7164 C   0  0  0  0  0  0
  -27.2183  -28.5850   20.7069 C   0  0  0  0  0  0
  -26.0359  -26.8590   19.4904 C   0  0  0  0  0  0
  -24.8728  -27.6560   19.4937 C   0  0  0  0  0  0
  -23.6437  -29.8060   20.1567 C   0  0  0  0  0  0
  -25.4123  -36.3055   24.0327 C   0  0  1  0  0  0
  -20.5904  -28.3674   23.1287 C   0  0  2  0  0  0
  -20.6773  -26.9391   22.5411 C   0  0  0  0  0  0
  -19.5739  -26.6385   21.5212 C   0  0  0  0  0  0
  -18.1926  -26.7926   22.1629 C   0  0  0  0  0  0
  -19.1554  -28.8842   23.2878 C   0  0  0  0  0  0
  -18.9472  -30.1441   23.8898 C   0  0  0  0  0  0
  -17.6466  -30.6574   24.0560 C   0  0  0  0  0  0
  -25.9068  -34.9431   23.5092 C   0  0  0  0  0  0
  -16.5360  -29.9069   23.6338 C   0  0  0  0  0  0
  -16.7283  -28.6485   23.0369 C   0  0  0  0  0  0
  -26.4522  -31.6584   25.0703 C   0  0  0  0  0  0
  -25.3746  -31.3739   26.1425 C   0  0  0  0  0  0
  -27.0376  -30.3007   24.6180 C   0  0  0  0  0  0
  -27.6096  -32.4310   25.7471 C   0  0  0  0  0  0
  -27.5582  -37.1772   24.8477 C   0  0  0  0  0  0
  -21.4209  -29.3021   22.3682 N   0  0  0  0  0  0
  -26.4297  -37.3762   23.9416 N   0  0  0  0  0  0
  -24.6939  -31.0518   22.0948 N   0  0  0  0  0  0
  -23.4207  -28.8146   23.3025 O   0  0  0  0  0  0
  -28.3780  -26.4544   20.1732 O   0  0  0  0  0  0
  -26.5612  -34.8912   22.4644 O   0  0  0  0  0  0
  -23.5448  -32.1399   23.7276 O   0  0  0  0  0  0
  -27.9638  -19.0308   20.0125 C   0  0  0  0  0  0
  -28.0548  -20.4516   19.8583 C   0  0  0  0  0  0
  -30.3627  -20.3395   20.5056 C   0  0  0  0  0  0
  -29.0721  -18.2236   20.3944 C   0  0  0  0  0  0
  -30.2676  -18.9135   20.6795 C   0  0  0  0  0  0
  -29.2678  -21.1614   20.0616 C   0  0  0  0  0  0
  -31.4463  -18.0727   21.1601 C   0  0  0  0  0  0
  -28.9863  -16.6474   20.4764 C   0  0  0  0  0  0
  -31.0153  -16.7401   21.8477 C   0  0  0  0  0  0
  -30.7062  -22.8184   19.0533 C   0  0  0  0  0  0
  -28.7421  -23.7516   20.3585 C   0  0  0  0  0  0
  -28.5227  -25.1212   19.5097 C   0  0  0  0  0  0
  -30.1523  -15.8640   21.0194 N   0  0  0  0  0  0
  -29.4105  -22.5620   19.6881 N   0  0  0  0  0  0
  -31.4551  -12.5107   19.1739 H   0  0  0  0  0  0
  -30.3114  -11.4645   19.9564 H   0  0  0  0  0  0
  -29.7838  -11.7638   17.4968 H   0  0  0  0  0  0
  -29.6280  -13.4855   17.7451 H   0  0  0  0  0  0
  -27.8953  -11.2869   18.9114 H   0  0  0  0  0  0
  -27.3702  -12.5244   17.7994 H   0  0  0  0  0  0
  -27.6231  -14.2519   19.4541 H   0  0  0  0  0  0
  -28.7077  -12.2166   21.4572 H   0  0  0  0  0  0
  -28.4205  -13.9127   21.7664 H   0  0  0  0  0  0
  -25.2758   -9.5683   22.4782 H   0  0  0  0  0  0
  -24.0000   -7.4629   22.7468 H   0  0  0  0  0  0
  -21.0850   -8.8770   19.8957 H   0  0  0  0  0  0
  -22.3698  -10.9671   19.6183 H   0  0  0  0  0  0
  -21.1999   -7.6150   23.9721 H   0  0  0  0  0  0
  -21.1502   -6.0536   25.9086 H   0  0  0  0  0  0
  -22.0583   -2.7617   23.2847 H   0  0  0  0  0  0
  -22.4064  -11.9885   22.4838 H   0  0  0  0  0  0
  -21.1065  -13.1249   22.2623 H   0  0  0  0  0  0
  -24.6381  -15.8379   20.5041 H   0  0  0  0  0  0
  -26.2533  -15.6299   20.0553 H   0  0  0  0  0  0
  -26.7190  -32.5394   23.1055 H   0  0  0  0  0  0
  -25.0195  -33.9715   25.0478 H   0  0  0  0  0  0
  -22.7178  -31.2938   21.3936 H   0  0  0  0  0  0
  -23.3778  -35.9551   23.3313 H   0  0  0  0  0  0
  -24.3586  -36.8844   22.2051 H   0  0  0  0  0  0
  -23.7226  -37.6440   23.6647 H   0  0  0  0  0  0
  -26.1130  -31.5359   20.6145 H   0  0  0  0  0  0
  -26.8446  -30.8113   22.0140 H   0  0  0  0  0  0
  -28.1137  -28.9451   21.1948 H   0  0  0  0  0  0
  -25.9553  -25.8889   19.0280 H   0  0  0  0  0  0
  -23.9726  -27.2822   19.0252 H   0  0  0  0  0  0
  -23.7684  -30.5827   19.4005 H   0  0  0  0  0  0
  -22.7627  -29.2394   19.8535 H   0  0  0  0  0  0
  -25.1312  -36.1910   25.0824 H   0  0  0  0  0  0
  -20.9980  -28.3223   24.1415 H   0  0  0  0  0  0
  -20.5670  -26.2267   23.3601 H   0  0  0  0  0  0
  -21.6639  -26.7406   22.1197 H   0  0  0  0  0  0
  -19.6889  -25.6309   21.1210 H   0  0  0  0  0  0
  -19.6678  -27.3221   20.6759 H   0  0  0  0  0  0
  -17.4199  -26.6700   21.4021 H   0  0  0  0  0  0
  -18.0300  -26.0066   22.9018 H   0  0  0  0  0  0
  -19.7952  -30.7260   24.2252 H   0  0  0  0  0  0
  -17.5031  -31.6258   24.5150 H   0  0  0  0  0  0
  -15.5361  -30.2962   23.7660 H   0  0  0  0  0  0
  -15.8695  -28.0785   22.7092 H   0  0  0  0  0  0
  -24.5928  -30.7081   25.7766 H   0  0  0  0  0  0
  -24.8923  -32.2907   26.4814 H   0  0  0  0  0  0
  -25.8068  -30.8952   27.0218 H   0  0  0  0  0  0
  -26.2964  -29.6746   24.1200 H   0  0  0  0  0  0
  -27.4096  -29.7278   25.4682 H   0  0  0  0  0  0
  -27.8827  -30.4320   23.9421 H   0  0  0  0  0  0
  -27.2739  -33.3622   26.2048 H   0  0  0  0  0  0
  -28.3921  -32.6839   25.0301 H   0  0  0  0  0  0
  -28.0756  -31.8417   26.5380 H   0  0  0  0  0  0
  -28.2605  -38.0060   24.7526 H   0  0  0  0  0  0
  -28.1061  -36.2587   24.6310 H   0  0  0  0  0  0
  -27.2281  -37.1447   25.8873 H   0  0  0  0  0  0
  -20.9381  -29.8750   21.6910 H   0  0  0  0  0  0
  -26.0164  -38.2831   24.1432 H   0  0  0  0  0  0
  -27.0171  -18.5524   19.8060 H   0  0  0  0  0  0
  -27.1829  -20.9891   19.5123 H   0  0  0  0  0  0
  -31.3223  -20.7973   20.6987 H   0  0  0  0  0  0
  -32.0400  -18.6643   21.8587 H   0  0  0  0  0  0
  -32.0966  -17.8628   20.3117 H   0  0  0  0  0  0
  -28.1175  -16.3894   21.0819 H   0  0  0  0  0  0
  -28.7733  -16.2923   19.4687 H   0  0  0  0  0  0
  -30.4677  -16.9711   22.7625 H   0  0  0  0  0  0
  -31.9076  -16.2059   22.1816 H   0  0  0  0  0  0
  -31.4688  -23.0328   19.8025 H   0  0  0  0  0  0
  -30.6646  -23.6593   18.3630 H   0  0  0  0  0  0
  -31.0463  -21.9651   18.4621 H   0  0  0  0  0  0
  -27.7884  -23.4345   20.7844 H   0  0  0  0  0  0
  -29.3790  -24.0024   21.2077 H   0  0  0  0  0  0
  -29.4294  -25.2809   18.9291 H   0  0  0  0  0  0
  -27.7748  -24.9529   18.7400 H   0  0  0  0  0  0
  1 25  1  0  0  0
  1 30  2  0  0  0
  1 83  1  0  0  0
  2  3  1  0  0  0
  2 25  1  0  0  0
  2 85  1  0  0  0
  2 86  1  0  0  0
  3  4  1  0  0  0
  3 87  1  0  0  0
  3 88  1  0  0  0
  4  5  1  0  0  0
  4 89  1  0  0  0
  4 90  1  0  0  0
  5  6  1  0  0  0
  5 26  1  0  0  0
  5 91  1  0  0  0
  6 25  1  0  0  0
  6 92  1  0  0  0
  6 93  1  0  0  0
  7  8  2  0  0  0
  7 26  1  0  0  0
  7 29  1  0  0  0
  8  9  1  0  0  0
  8 22  1  0  0  0
  9 10  1  0  0  0
  9 27  2  0  0  0
 10 11  2  0  0  0
 10 15  1  0  0  0
 11 12  1  0  0  0
 11 94  1  0  0  0
 12 13  2  0  0  0
 12 95  1  0  0  0
 13 14  1  0  0  0
 13 31  1  0  0  0
 14 15  2  0  0  0
 14 96  1  0  0  0
 15 97  1  0  0  0
 16 17  2  0  0  0
 16 21  1  0  0  0
 16 31  1  0  0  0
 17 18  1  0  0  0
 17 98  1  0  0  0
 18 19  2  0  0  0
 18 99  1  0  0  0
 19 20  1  0  0  0
 19 24  1  0  0  0
 20 21  2  0  0  0
 20100  1  0  0  0
 21 23  1  0  0  0
 22 28  1  0  0  0
 22 32  2  0  0  0
 26 27  1  0  0  0
 28101  1  0  0  0
 28102  1  0  0  0
 29103  1  0  0  0
 29104  1  0  0  0
 33 34  1  0  0  0
 33 66  1  0  0  0
 33 70  2  0  0  0
 34 36  1  0  0  0
 34 59  1  0  0  0
 34105  1  0  0  0
 35 44  2  0  0  0
 35 45  1  0  0  0
 35 68  1  0  0  0
 36 56  1  0  0  0
 36106  1  0  0  0
 37 39  1  0  0  0
 37 47  1  0  0  0
 37 66  1  0  0  0
 37107  1  0  0  0
 38 43  2  0  0  0
 38 46  1  0  0  0
 38 47  1  0  0  0
 39 64  1  0  0  0
 39 67  2  0  0  0
 40 52  1  0  0  0
 40 53  2  0  0  0
 40 58  1  0  0  0
 41108  1  0  0  0
 41109  1  0  0  0
 41110  1  0  0  0
 41 48  1  0  0  0
 42 43  1  0  0  0
 42 66  1  0  0  0
 42111  1  0  0  0
 42112  1  0  0  0
 43 44  1  0  0  0
 44113  1  0  0  0
 45 46  2  0  0  0
 45114  1  0  0  0
 46115  1  0  0  0
 47116  1  0  0  0
 47117  1  0  0  0
 48 56  1  0  0  0
 48 65  1  0  0  0
 48118  1  0  0  0
 49 50  1  0  0  0
 49 53  1  0  0  0
 49 64  1  0  0  0
 49119  1  0  0  0
 50 51  1  0  0  0
 50120  1  0  0  0
 50121  1  0  0  0
 51 52  1  0  0  0
 51122  1  0  0  0
 51123  1  0  0  0
 52124  1  0  0  0
 52125  1  0  0  0
 53 54  1  0  0  0
 54 55  2  0  0  0
 54126  1  0  0  0
 55 57  1  0  0  0
 55127  1  0  0  0
 56 69  2  0  0  0
 57 58  2  0  0  0
 57128  1  0  0  0
 58129  1  0  0  0
 59 60  1  0  0  0
 59 61  1  0  0  0
 59 62  1  0  0  0
 60130  1  0  0  0
 60131  1  0  0  0
 60132  1  0  0  0
 61133  1  0  0  0
 61134  1  0  0  0
 61135  1  0  0  0
 62136  1  0  0  0
 62137  1  0  0  0
 62138  1  0  0  0
 63 65  1  0  0  0
 63139  1  0  0  0
 63140  1  0  0  0
 63141  1  0  0  0
 64142  1  0  0  0
 65143  1  0  0  0
 68 82  1  0  0  0
 71 72  2  0  0  0
 71 74  1  0  0  0
 71144  1  0  0  0
 72 76  1  0  0  0
 72145  1  0  0  0
 73 75  1  0  0  0
 73 76  2  0  0  0
 73146  1  0  0  0
 74 75  2  0  0  0
 74 78  1  0  0  0
 75 77  1  0  0  0
 76 84  1  0  0  0
 77 79  1  0  0  0
 77147  1  0  0  0
 77148  1  0  0  0
 78 83  1  0  0  0
 78149  1  0  0  0
 78150  1  0  0  0
 79 83  1  0  0  0
 79151  1  0  0  0
 79152  1  0  0  0
 80 84  1  0  0  0
 80153  1  0  0  0
 80154  1  0  0  0
 80155  1  0  0  0
 81 82  1  0  0  0
 81 84  1  0  0  0
 81156  1  0  0  0
 81157  1  0  0  0
 82158  1  0  0  0
 82159  1  0  0  0
M  ISO  4   1 100  68 101  82 101  83 100
M  END
> <chiral flag>
0

> <version>
0

> <s_m_source_file>
/data/baiqing/PycharmProjects/Reinvent-master-3.2/result/LINK_invent/BTK/process_docking_weight1_custom_product_contain_oxygen_bond_distance_aromatic_linkinvent_7_9_3/rearranged_h_0016.sdf

> <i_m_source_file_index>
22

> <r_mmod_Potential_Energy-OPLS-2005>
290.14892578125

> <r_mmod_Stretch_Energy-OPLS-2005>
110.602813720703

> <r_mmod_Bend_Energy-OPLS-2005>
185.541458129883

> <r_mmod_Torsional_Energy-OPLS-2005>
290.743774414062

> <r_mmod_Improper_Torsional_Energy-OPLS-2005>
5.80491971969604

> <r_mmod_Van_der_Waal_Energy-OPLS-2005>
148.193710327148

> <r_mmod_Electrostatic_Energy-OPLS-2005>
-300.120544433594

> <r_mmod_Solvation_Energy-OPLS-2005>
-219.31901550293

> <b_mmod_Minimization_Converged-OPLS-2005>
0

> <r_mmod_RMS_Derivative-OPLS-2005>
2.69438004493713

$$$$
22
                    3D
 Structure written by MMmdl.
165174  0  0  1  0            999 V2000
  -30.7992  -14.4946   20.5330 C   0  0  0  0  0  0
  -30.3844  -12.3484   19.3909 C   0  0  0  0  0  0
  -29.4502  -12.5190   18.1796 C   0  0  0  0  0  0
  -27.9811  -12.3776   18.6133 C   0  0  0  0  0  0
  -27.6387  -13.2192   19.8740 C   0  0  2  0  0  0
  -28.7079  -13.0167   20.9745 C   0  0  0  0  0  0
  -25.2348  -13.8046   20.5848 C   0  0  0  0  0  0
  -24.1675  -13.0227   20.9301 C   0  0  0  0  0  0
  -24.6357  -11.6781   20.8797 C   0  0  0  0  0  0
  -23.9062  -10.4154   21.0397 C   0  0  0  0  0  0
  -24.3603   -9.4103   21.9202 C   0  0  0  0  0  0
  -23.6266   -8.2158   22.0779 C   0  0  0  0  0  0
  -22.4269   -8.0223   21.3553 C   0  0  0  0  0  0
  -21.9881   -9.0183   20.4672 C   0  0  0  0  0  0
  -22.7210  -10.2047   20.3075 C   0  0  0  0  0  0
  -21.6830   -6.0711   22.5298 C   0  0  0  0  0  0
  -21.3988   -6.5620   23.8224 C   0  0  0  0  0  0
  -21.3648   -5.6801   24.9190 C   0  0  0  0  0  0
  -21.6014   -4.3055   24.7244 C   0  0  0  0  0  0
  -21.8818   -3.8145   23.4367 C   0  0  0  0  0  0
  -21.9194   -4.6946   22.3422 C   0  0  0  0  0  0
  -22.7687  -13.5022   21.1883 C   0  0  0  0  0  0
  -22.1661   -4.2119   21.0998 F   0  0  0  0  0  0
  -21.5654   -3.4557   25.7773 F   0  0  0  0  0  0
  -29.9993  -13.3883   20.3726 N   0  0  0  0  0  0
  -26.2890  -12.9361   20.3484 N   0  0  0  0  0  0
  -25.9281  -11.6465   20.5785 N   0  0  0  0  0  0
  -22.0347  -12.8050   22.0477 N   0  0  0  0  0  0
  -25.3580  -15.1743   20.4422 N   0  0  0  0  0  0
  -31.9993  -14.3645   20.2879 O   0  0  0  0  0  0
  -21.6601   -6.8841   21.4260 O   0  0  0  0  0  0
  -22.3370  -14.5265   20.6644 O   0  0  0  0  0  0
  -24.6084  -31.8707   23.2150 C   0  0  0  0  0  0
  -25.8996  -32.4841   23.8396 C   0  0  1  0  0  0
  -27.2270  -27.4519   20.0658 C   0  0  0  0  0  0
  -25.5866  -33.8633   24.2316 N   0  0  0  0  0  0
  -23.3925  -30.4979   21.5565 C   0  0  2  0  0  0
  -24.8401  -28.9736   20.1116 C   0  0  0  0  0  0
  -22.7361  -29.4684   22.5037 C   0  0  0  0  0  0
  -18.0254  -28.1389   22.8471 C   0  0  0  0  0  0
  -24.1491  -36.7306   23.2635 C   0  0  0  0  0  0
  -25.9226  -30.8389   21.3749 C   0  0  0  0  0  0
  -25.9988  -29.4776   20.7119 C   0  0  0  0  0  0
  -27.1926  -28.7199   20.6959 C   0  0  0  0  0  0
  -26.0427  -26.9686   19.4567 C   0  0  0  0  0  0
  -24.8549  -27.7170   19.4872 C   0  0  0  0  0  0
  -23.5959  -29.8325   20.1718 C   0  0  0  0  0  0
  -25.4112  -36.3113   24.0336 C   0  0  1  0  0  0
  -20.5836  -28.3677   23.1342 C   0  0  2  0  0  0
  -20.6793  -26.9416   22.5429 C   0  0  0  0  0  0
  -19.5774  -26.6391   21.5217 C   0  0  0  0  0  0
  -18.1937  -26.7936   22.1608 C   0  0  0  0  0  0
  -19.1498  -28.8847   23.2909 C   0  0  0  0  0  0
  -18.9427  -30.1469   23.8888 C   0  0  0  0  0  0
  -17.6431  -30.6608   24.0551 C   0  0  0  0  0  0
  -25.9017  -34.9483   23.5116 C   0  0  0  0  0  0
  -16.5320  -29.9087   23.6353 C   0  0  0  0  0  0
  -16.7243  -28.6520   23.0339 C   0  0  0  0  0  0
  -26.4439  -31.6627   25.0727 C   0  0  0  0  0  0
  -25.3709  -31.3704   26.1488 C   0  0  0  0  0  0
  -27.0266  -30.3058   24.6119 C   0  0  0  0  0  0
  -27.6006  -32.4369   25.7464 C   0  0  0  0  0  0
  -27.5581  -37.1808   24.8465 C   0  0  0  0  0  0
  -21.4108  -29.3013   22.3743 N   0  0  0  0  0  0
  -26.4302  -37.3788   23.9405 N   0  0  0  0  0  0
  -24.6585  -31.0830   22.1051 N   0  0  0  0  0  0
  -23.4145  -28.8239   23.3086 O   0  0  0  0  0  0
  -28.4107  -26.7379   20.0653 O   0  0  0  0  0  0
  -26.5589  -34.8936   22.4676 O   0  0  0  0  0  0
  -23.5313  -32.1466   23.7592 O   0  0  0  0  0  0
  -31.4107  -19.1772   21.2028 C   0  0  0  0  0  0
  -31.3227  -20.5781   21.0755 C   0  0  0  0  0  0
  -30.7967  -20.3416   18.7219 C   0  0  0  0  0  0
  -31.1607  -18.3354   20.0988 C   0  0  0  0  0  0
  -31.0308  -21.1771   19.8355 C   0  0  0  0  0  0
  -30.8678  -18.9358   18.8461 C   0  0  0  0  0  0
  -28.4540  -17.5774   21.3227 C   0  0  0  0  0  0
  -28.1808  -16.9739   19.9742 C   0  0  0  0  0  0
  -28.9727  -16.1819   20.9964 C   0  0  0  0  0  0
  -32.1980  -23.1265   19.0437 C   0  0  0  0  0  0
  -31.3750  -16.8234   20.2500 C   0  0  0  0  0  0
  -29.6926  -24.6764   19.9145 C   0  0  0  0  0  0
  -29.7527  -23.2117   19.4193 C   0  0  0  0  0  0
  -28.4092  -25.4159   19.5123 C   0  0  0  0  0  0
  -31.0335  -22.5828   19.7402 N   0  0  0  0  0  0
  -30.3106  -15.7908   20.5695 N   0  0  0  0  0  0
  -30.6794  -18.1724   17.7419 F   0  0  0  0  0  0
  -31.4222  -12.4074   19.0610 H   0  0  0  0  0  0
  -30.2806  -11.3473   19.8120 H   0  0  0  0  0  0
  -29.6782  -11.7790   17.4105 H   0  0  0  0  0  0
  -29.6034  -13.5022   17.7245 H   0  0  0  0  0  0
  -27.7994  -11.3174   18.8080 H   0  0  0  0  0  0
  -27.3257  -12.6580   17.7860 H   0  0  0  0  0  0
  -27.6647  -14.2587   19.5545 H   0  0  0  0  0  0
  -28.7317  -11.9629   21.2605 H   0  0  0  0  0  0
  -28.4921  -13.5230   21.9115 H   0  0  0  0  0  0
  -25.2727   -9.5563   22.4810 H   0  0  0  0  0  0
  -23.9922   -7.4535   22.7492 H   0  0  0  0  0  0
  -21.0812   -8.8704   19.9001 H   0  0  0  0  0  0
  -22.3648  -10.9605   19.6226 H   0  0  0  0  0  0
  -21.1963   -7.6139   23.9679 H   0  0  0  0  0  0
  -21.1465   -6.0568   25.9080 H   0  0  0  0  0  0
  -22.0609   -2.7606   23.2904 H   0  0  0  0  0  0
  -22.3929  -11.9742   22.4968 H   0  0  0  0  0  0
  -21.0989  -13.1172   22.2638 H   0  0  0  0  0  0
  -24.5445  -15.7722   20.5416 H   0  0  0  0  0  0
  -26.1832  -15.6736   20.1414 H   0  0  0  0  0  0
  -26.7031  -32.5556   23.1137 H   0  0  0  0  0  0
  -25.0037  -33.9778   25.0484 H   0  0  0  0  0  0
  -22.6779  -31.3136   21.4243 H   0  0  0  0  0  0
  -23.3780  -35.9609   23.3315 H   0  0  0  0  0  0
  -24.3570  -36.8910   22.2039 H   0  0  0  0  0  0
  -23.7238  -37.6508   23.6656 H   0  0  0  0  0  0
  -26.0448  -31.6191   20.6219 H   0  0  0  0  0  0
  -26.8024  -30.8723   22.0045 H   0  0  0  0  0  0
  -28.0891  -29.1072   21.1628 H   0  0  0  0  0  0
  -26.0109  -26.0228   18.9363 H   0  0  0  0  0  0
  -23.9604  -27.3276   19.0220 H   0  0  0  0  0  0
  -23.6853  -30.6079   19.4105 H   0  0  0  0  0  0
  -22.7213  -29.2443   19.8888 H   0  0  0  0  0  0
  -25.1308  -36.1951   25.0833 H   0  0  0  0  0  0
  -20.9891  -28.3252   24.1486 H   0  0  0  0  0  0
  -20.5778  -26.2234   23.3591 H   0  0  0  0  0  0
  -21.6656  -26.7548   22.1148 H   0  0  0  0  0  0
  -19.6954  -25.6302   21.1246 H   0  0  0  0  0  0
  -19.6752  -27.3222   20.6763 H   0  0  0  0  0  0
  -17.4210  -26.6668   21.4015 H   0  0  0  0  0  0
  -18.0358  -26.0091   22.9015 H   0  0  0  0  0  0
  -19.7903  -30.7300   24.2239 H   0  0  0  0  0  0
  -17.4984  -31.6291   24.5142 H   0  0  0  0  0  0
  -15.5327  -30.2974   23.7720 H   0  0  0  0  0  0
  -15.8645  -28.0865   22.7030 H   0  0  0  0  0  0
  -24.5871  -30.7065   25.7834 H   0  0  0  0  0  0
  -24.8920  -32.2847   26.5000 H   0  0  0  0  0  0
  -25.8072  -30.8821   27.0210 H   0  0  0  0  0  0
  -26.2801  -29.6829   24.1176 H   0  0  0  0  0  0
  -27.4024  -29.7307   25.4595 H   0  0  0  0  0  0
  -27.8660  -30.4384   23.9284 H   0  0  0  0  0  0
  -27.2598  -33.3662   26.2053 H   0  0  0  0  0  0
  -28.3771  -32.6953   25.0245 H   0  0  0  0  0  0
  -28.0725  -31.8497   26.5358 H   0  0  0  0  0  0
  -28.2609  -38.0103   24.7504 H   0  0  0  0  0  0
  -28.1063  -36.2620   24.6310 H   0  0  0  0  0  0
  -27.2272  -37.1487   25.8864 H   0  0  0  0  0  0
  -20.9287  -29.8585   21.6822 H   0  0  0  0  0  0
  -26.0200  -38.2856   24.1439 H   0  0  0  0  0  0
  -31.6590  -18.7396   22.1612 H   0  0  0  0  0  0
  -31.4978  -21.1990   21.9393 H   0  0  0  0  0  0
  -30.5935  -20.7822   17.7569 H   0  0  0  0  0  0
  -27.6443  -17.6104   22.0476 H   0  0  0  0  0  0
  -29.0310  -18.4866   21.3139 H   0  0  0  0  0  0
  -28.7335  -17.3517   19.1211 H   0  0  0  0  0  0
  -27.1557  -16.7357   19.7386 H   0  0  0  0  0  0
  -28.4470  -15.5051   21.6543 H   0  0  0  0  0  0
  -32.9101  -22.3661   18.7201 H   0  0  0  0  0  0
  -32.7333  -23.8222   19.6917 H   0  0  0  0  0  0
  -31.8823  -23.6860   18.1608 H   0  0  0  0  0  0
  -32.1745  -16.7168   20.9832 H   0  0  0  0  0  0
  -31.8333  -16.5511   19.2956 H   0  0  0  0  0  0
  -30.5461  -25.2467   19.5451 H   0  0  0  0  0  0
  -29.7674  -24.6779   21.0012 H   0  0  0  0  0  0
  -29.6161  -23.1766   18.3363 H   0  0  0  0  0  0
  -28.9329  -22.6398   19.8617 H   0  0  0  0  0  0
  -28.3442  -25.4771   18.4234 H   0  0  0  0  0  0
  -27.5600  -24.8350   19.8711 H   0  0  0  0  0  0
  1 25  1  0  0  0
  1 30  2  0  0  0
  1 86  1  0  0  0
  2  3  1  0  0  0
  2 25  1  0  0  0
  2 88  1  0  0  0
  2 89  1  0  0  0
  3  4  1  0  0  0
  3 90  1  0  0  0
  3 91  1  0  0  0
  4  5  1  0  0  0
  4 92  1  0  0  0
  4 93  1  0  0  0
  5  6  1  0  0  0
  5 26  1  0  0  0
  5 94  1  0  0  0
  6 25  1  0  0  0
  6 95  1  0  0  0
  6 96  1  0  0  0
  7  8  2  0  0  0
  7 26  1  0  0  0
  7 29  1  0  0  0
  8  9  1  0  0  0
  8 22  1  0  0  0
  9 10  1  0  0  0
  9 27  2  0  0  0
 10 11  2  0  0  0
 10 15  1  0  0  0
 11 12  1  0  0  0
 11 97  1  0  0  0
 12 13  2  0  0  0
 12 98  1  0  0  0
 13 14  1  0  0  0
 13 31  1  0  0  0
 14 15  2  0  0  0
 14 99  1  0  0  0
 15100  1  0  0  0
 16 17  2  0  0  0
 16 21  1  0  0  0
 16 31  1  0  0  0
 17 18  1  0  0  0
 17101  1  0  0  0
 18 19  2  0  0  0
 18102  1  0  0  0
 19 20  1  0  0  0
 19 24  1  0  0  0
 20 21  2  0  0  0
 20103  1  0  0  0
 21 23  1  0  0  0
 22 28  1  0  0  0
 22 32  2  0  0  0
 26 27  1  0  0  0
 28104  1  0  0  0
 28105  1  0  0  0
 29106  1  0  0  0
 29107  1  0  0  0
 33 34  1  0  0  0
 33 66  1  0  0  0
 33 70  2  0  0  0
 34 36  1  0  0  0
 34 59  1  0  0  0
 34108  1  0  0  0
 35 44  2  0  0  0
 35 45  1  0  0  0
 35 68  1  0  0  0
 36 56  1  0  0  0
 36109  1  0  0  0
 37 39  1  0  0  0
 37 47  1  0  0  0
 37 66  1  0  0  0
 37110  1  0  0  0
 38 43  2  0  0  0
 38 46  1  0  0  0
 38 47  1  0  0  0
 39 64  1  0  0  0
 39 67  2  0  0  0
 40 52  1  0  0  0
 40 53  2  0  0  0
 40 58  1  0  0  0
 41111  1  0  0  0
 41112  1  0  0  0
 41113  1  0  0  0
 41 48  1  0  0  0
 42 43  1  0  0  0
 42 66  1  0  0  0
 42114  1  0  0  0
 42115  1  0  0  0
 43 44  1  0  0  0
 44116  1  0  0  0
 45 46  2  0  0  0
 45117  1  0  0  0
 46118  1  0  0  0
 47119  1  0  0  0
 47120  1  0  0  0
 48 56  1  0  0  0
 48 65  1  0  0  0
 48121  1  0  0  0
 49 50  1  0  0  0
 49 53  1  0  0  0
 49 64  1  0  0  0
 49122  1  0  0  0
 50 51  1  0  0  0
 50123  1  0  0  0
 50124  1  0  0  0
 51 52  1  0  0  0
 51125  1  0  0  0
 51126  1  0  0  0
 52127  1  0  0  0
 52128  1  0  0  0
 53 54  1  0  0  0
 54 55  2  0  0  0
 54129  1  0  0  0
 55 57  1  0  0  0
 55130  1  0  0  0
 56 69  2  0  0  0
 57 58  2  0  0  0
 57131  1  0  0  0
 58132  1  0  0  0
 59 60  1  0  0  0
 59 61  1  0  0  0
 59 62  1  0  0  0
 60133  1  0  0  0
 60134  1  0  0  0
 60135  1  0  0  0
 61136  1  0  0  0
 61137  1  0  0  0
 61138  1  0  0  0
 62139  1  0  0  0
 62140  1  0  0  0
 62141  1  0  0  0
 63 65  1  0  0  0
 63142  1  0  0  0
 63143  1  0  0  0
 63144  1  0  0  0
 64145  1  0  0  0
 65146  1  0  0  0
 68 84  1  0  0  0
 71 72  2  0  0  0
 71 74  1  0  0  0
 71147  1  0  0  0
 72 75  1  0  0  0
 72148  1  0  0  0
 73 75  2  0  0  0
 73 76  1  0  0  0
 73149  1  0  0  0
 74 76  2  0  0  0
 74 81  1  0  0  0
 75 85  1  0  0  0
 76 87  1  0  0  0
 77 78  1  0  0  0
 77 79  1  0  0  0
 77150  1  0  0  0
 77151  1  0  0  0
 78 79  1  0  0  0
 78152  1  0  0  0
 78153  1  0  0  0
 79 86  1  0  0  0
 79154  1  0  0  0
 80 85  1  0  0  0
 80155  1  0  0  0
 80156  1  0  0  0
 80157  1  0  0  0
 81 86  1  0  0  0
 81158  1  0  0  0
 81159  1  0  0  0
 82 83  1  0  0  0
 82 84  1  0  0  0
 82160  1  0  0  0
 82161  1  0  0  0
 83 85  1  0  0  0
 83162  1  0  0  0
 83163  1  0  0  0
 84164  1  0  0  0
 84165  1  0  0  0
M  ISO  4   1 100  68 101  84 101  86 100
M  END
> <chiral flag>
0

> <version>
0

> <s_m_source_file>
/data/baiqing/PycharmProjects/Reinvent-master-3.2/result/LINK_invent/BTK/process_docking_weight1_custom_product_contain_oxygen_bond_distance_aromatic_linkinvent_7_9_3/rearranged_h_0016.sdf

> <i_m_source_file_index>
23

> <r_mmod_Potential_Energy-OPLS-2005>
318.597259521484

> <r_mmod_Stretch_Energy-OPLS-2005>
50.9170608520508

> <r_mmod_Bend_Energy-OPLS-2005>
176.162063598633

> <r_mmod_Torsional_Energy-OPLS-2005>
343.806182861328

> <r_mmod_Improper_Torsional_Energy-OPLS-2005>
15.1854019165039

> <r_mmod_Van_der_Waal_Energy-OPLS-2005>
194.418746948242

> <r_mmod_Electrostatic_Energy-OPLS-2005>
-297.710968017578

> <r_mmod_Solvation_Energy-OPLS-2005>
-202.385726928711

> <b_mmod_Minimization_Converged-OPLS-2005>
0

> <r_mmod_RMS_Derivative-OPLS-2005>
5.98167276382446

$$$$
23
                    3D
 Structure written by MMmdl.
173181  0  0  1  0            999 V2000
  -30.7238  -14.3741   20.6945 C   0  0  0  0  0  0
  -30.4259  -12.2976   19.3749 C   0  0  0  0  0  0
  -29.4796  -12.5260   18.1819 C   0  0  0  0  0  0
  -28.0037  -12.3844   18.6053 C   0  0  0  0  0  0
  -27.6688  -13.1940   19.8859 C   0  0  2  0  0  0
  -28.7116  -12.9013   20.9863 C   0  0  0  0  0  0
  -25.2638  -13.8141   20.5683 C   0  0  0  0  0  0
  -24.1861  -13.0427   20.9163 C   0  0  0  0  0  0
  -24.6393  -11.6892   20.8737 C   0  0  0  0  0  0
  -23.9052  -10.4294   21.0409 C   0  0  0  0  0  0
  -24.3601   -9.4211   21.9187 C   0  0  0  0  0  0
  -23.6275   -8.2245   22.0759 C   0  0  0  0  0  0
  -22.4265   -8.0282   21.3538 C   0  0  0  0  0  0
  -21.9904   -9.0260   20.4645 C   0  0  0  0  0  0
  -22.7226  -10.2140   20.3058 C   0  0  0  0  0  0
  -21.6850   -6.0738   22.5276 C   0  0  0  0  0  0
  -21.4017   -6.5641   23.8211 C   0  0  0  0  0  0
  -21.3658   -5.6794   24.9173 C   0  0  0  0  0  0
  -21.6045   -4.3054   24.7224 C   0  0  0  0  0  0
  -21.8821   -3.8148   23.4340 C   0  0  0  0  0  0
  -21.9193   -4.6967   22.3395 C   0  0  0  0  0  0
  -22.7890  -13.5245   21.1826 C   0  0  0  0  0  0
  -22.1662   -4.2150   21.0974 F   0  0  0  0  0  0
  -21.5625   -3.4535   25.7736 F   0  0  0  0  0  0
  -30.0408  -13.2271   20.4439 N   0  0  0  0  0  0
  -26.3065  -12.9280   20.3421 N   0  0  0  0  0  0
  -25.9315  -11.6454   20.5773 N   0  0  0  0  0  0
  -22.0526  -12.8240   22.0387 N   0  0  0  0  0  0
  -25.4385  -15.1846   20.4096 N   0  0  0  0  0  0
  -31.7637  -14.6677   20.0924 O   0  0  0  0  0  0
  -21.6630   -6.8877   21.4238 O   0  0  0  0  0  0
  -22.3586  -14.5558   20.6680 O   0  0  0  0  0  0
  -24.6121  -31.8718   23.2114 C   0  0  0  0  0  0
  -25.9034  -32.4832   23.8403 C   0  0  1  0  0  0
  -27.2423  -27.4652   20.0853 C   0  0  0  0  0  0
  -25.5931  -33.8643   24.2330 N   0  0  0  0  0  0
  -23.3986  -30.4918   21.5512 C   0  0  2  0  0  0
  -24.8469  -28.9538   20.1262 C   0  0  0  0  0  0
  -22.7396  -29.4657   22.5006 C   0  0  0  0  0  0
  -18.0278  -28.1338   22.8448 C   0  0  0  0  0  0
  -24.1514  -36.7326   23.2621 C   0  0  0  0  0  0
  -25.9241  -30.8403   21.3641 C   0  0  0  0  0  0
  -26.0044  -29.4696   20.7270 C   0  0  0  0  0  0
  -27.2079  -28.7292   20.7160 C   0  0  0  0  0  0
  -26.0716  -26.9579   19.4892 C   0  0  0  0  0  0
  -24.8715  -27.6918   19.5102 C   0  0  0  0  0  0
  -23.6084  -29.8193   20.1676 C   0  0  0  0  0  0
  -25.4128  -36.3121   24.0315 C   0  0  1  0  0  0
  -20.5864  -28.3633   23.1301 C   0  0  2  0  0  0
  -20.6772  -26.9370   22.5397 C   0  0  0  0  0  0
  -19.5777  -26.6352   21.5164 C   0  0  0  0  0  0
  -18.1952  -26.7885   22.1572 C   0  0  0  0  0  0
  -19.1525  -28.8795   23.2873 C   0  0  0  0  0  0
  -18.9453  -30.1402   23.8884 C   0  0  0  0  0  0
  -17.6461  -30.6552   24.0533 C   0  0  0  0  0  0
  -25.9052  -34.9489   23.5109 C   0  0  0  0  0  0
  -16.5349  -29.9056   23.6293 C   0  0  0  0  0  0
  -16.7272  -28.6475   23.0307 C   0  0  0  0  0  0
  -26.4478  -31.6579   25.0712 C   0  0  0  0  0  0
  -25.3756  -31.3672   26.1460 C   0  0  0  0  0  0
  -27.0303  -30.3032   24.6040 C   0  0  0  0  0  0
  -27.6029  -32.4319   25.7502 C   0  0  0  0  0  0
  -27.5598  -37.1831   24.8460 C   0  0  0  0  0  0
  -21.4132  -29.3012   22.3707 N   0  0  0  0  0  0
  -26.4307  -37.3811   23.9411 N   0  0  0  0  0  0
  -24.6616  -31.0830   22.1017 N   0  0  0  0  0  0
  -23.4170  -28.8219   23.3066 O   0  0  0  0  0  0
  -28.3735  -26.7111   19.9056 O   0  0  0  0  0  0
  -26.5603  -34.8922   22.4664 O   0  0  0  0  0  0
  -23.5328  -32.1469   23.7525 O   0  0  0  0  0  0
  -29.7895  -21.2366   20.6002 C   0  0  0  0  0  0
  -31.3874  -19.4804   22.1024 C   0  0  0  0  0  0
  -29.6901  -19.8412   20.3947 C   0  0  0  0  0  0
  -30.6712  -21.7573   21.5731 C   0  0  0  0  0  0
  -30.4835  -18.9478   21.1518 C   0  0  0  0  0  0
  -31.4662  -20.8661   22.3227 C   0  0  0  0  0  0
  -28.6984  -19.2985   19.3804 C   0  0  0  0  0  0
  -30.4620  -25.2917   18.9849 C   0  0  0  0  0  0
  -31.3628  -27.4887   19.7341 C   0  0  0  0  0  0
  -33.1412  -23.5118   21.3039 C   0  0  0  0  0  0
  -30.7215  -23.2594   21.8562 C   0  0  0  0  0  0
  -30.1756  -15.3210   21.7779 C   0  0  0  0  0  0
  -31.6592  -25.4894   21.2516 C   0  0  0  0  0  0
  -30.8624  -16.6914   21.8977 C   0  0  0  0  0  0
  -29.3578  -26.5915   20.9212 C   0  0  0  0  0  0
  -30.6987  -26.1871   20.2327 C   0  0  0  0  0  0
  -31.7570  -24.0072   21.0890 N   0  3  1  0  0  0
  -30.3259  -17.5940   20.9296 O   0  0  0  0  0  0
  -32.3201  -21.3440   23.2583 F   0  0  0  0  0  0
  -31.4634  -12.4258   19.0627 H   0  0  0  0  0  0
  -30.3484  -11.2703   19.7337 H   0  0  0  0  0  0
  -29.7051  -11.8190   17.3824 H   0  0  0  0  0  0
  -29.6463  -13.5206   17.7667 H   0  0  0  0  0  0
  -27.8061  -11.3247   18.7742 H   0  0  0  0  0  0
  -27.3473  -12.6856   17.7880 H   0  0  0  0  0  0
  -27.7369  -14.2510   19.6301 H   0  0  0  0  0  0
  -28.6866  -11.8429   21.2527 H   0  0  0  0  0  0
  -28.4661  -13.4241   21.9091 H   0  0  0  0  0  0
  -25.2753   -9.5683   22.4761 H   0  0  0  0  0  0
  -23.9990   -7.4641   22.7484 H   0  0  0  0  0  0
  -21.0844   -8.8774   19.8945 H   0  0  0  0  0  0
  -22.3689  -10.9676   19.6172 H   0  0  0  0  0  0
  -21.2016   -7.6153   23.9715 H   0  0  0  0  0  0
  -21.1479   -6.0522   25.9077 H   0  0  0  0  0  0
  -22.0605   -2.7609   23.2839 H   0  0  0  0  0  0
  -22.4134  -11.9888   22.4751 H   0  0  0  0  0  0
  -21.1149  -13.1276   22.2597 H   0  0  0  0  0  0
  -24.6768  -15.8461   20.5205 H   0  0  0  0  0  0
  -26.3022  -15.6206   20.1089 H   0  0  0  0  0  0
  -26.7110  -32.5569   23.1174 H   0  0  0  0  0  0
  -25.0181  -33.9838   25.0541 H   0  0  0  0  0  0
  -22.6863  -31.3065   21.4111 H   0  0  0  0  0  0
  -23.3778  -35.9660   23.3295 H   0  0  0  0  0  0
  -24.3606  -36.8970   22.2036 H   0  0  0  0  0  0
  -23.7275  -37.6522   23.6662 H   0  0  0  0  0  0
  -26.0324  -31.5982   20.5862 H   0  0  0  0  0  0
  -26.8138  -30.9044   21.9774 H   0  0  0  0  0  0
  -28.1028  -29.1549   21.1472 H   0  0  0  0  0  0
  -26.0995  -26.0005   18.9895 H   0  0  0  0  0  0
  -23.9863  -27.2906   19.0350 H   0  0  0  0  0  0
  -23.7197  -30.5900   19.4042 H   0  0  0  0  0  0
  -22.7351  -29.2358   19.8700 H   0  0  0  0  0  0
  -25.1286  -36.1979   25.0796 H   0  0  0  0  0  0
  -20.9944  -28.3212   24.1424 H   0  0  0  0  0  0
  -20.5661  -26.2239   23.3573 H   0  0  0  0  0  0
  -21.6662  -26.7425   22.1230 H   0  0  0  0  0  0
  -19.6950  -25.6267   21.1194 H   0  0  0  0  0  0
  -19.6713  -27.3142   20.6679 H   0  0  0  0  0  0
  -17.4211  -26.6585   21.3978 H   0  0  0  0  0  0
  -18.0395  -26.0010   22.8961 H   0  0  0  0  0  0
  -19.7945  -30.7192   24.2266 H   0  0  0  0  0  0
  -17.5032  -31.6223   24.5160 H   0  0  0  0  0  0
  -15.5351  -30.2950   23.7626 H   0  0  0  0  0  0
  -15.8681  -28.0794   22.7015 H   0  0  0  0  0  0
  -24.5964  -30.6960   25.7827 H   0  0  0  0  0  0
  -24.8883  -32.2818   26.4855 H   0  0  0  0  0  0
  -25.8132  -30.8912   27.0239 H   0  0  0  0  0  0
  -26.2823  -29.6812   24.1110 H   0  0  0  0  0  0
  -27.4121  -29.7239   25.4454 H   0  0  0  0  0  0
  -27.8645  -30.4374   23.9149 H   0  0  0  0  0  0
  -27.2611  -33.3625   26.2051 H   0  0  0  0  0  0
  -28.3858  -32.6884   25.0348 H   0  0  0  0  0  0
  -28.0663  -31.8460   26.5447 H   0  0  0  0  0  0
  -28.2585  -38.0161   24.7557 H   0  0  0  0  0  0
  -28.1122  -36.2694   24.6231 H   0  0  0  0  0  0
  -27.2310  -37.1417   25.8859 H   0  0  0  0  0  0
  -20.9300  -29.8756   21.6942 H   0  0  0  0  0  0
  -26.0179  -38.2873   24.1460 H   0  0  0  0  0  0
  -29.1596  -21.9057   20.0294 H   0  0  0  0  0  0
  -32.0316  -18.8445   22.6903 H   0  0  0  0  0  0
  -28.1898  -20.0980   18.8421 H   0  0  0  0  0  0
  -27.9399  -18.6965   19.8810 H   0  0  0  0  0  0
  -29.2032  -18.6678   18.6490 H   0  0  0  0  0  0
  -31.4016  -24.9610   18.5405 H   0  0  0  0  0  0
  -29.9377  -25.8341   18.1973 H   0  0  0  0  0  0
  -29.8537  -24.4133   19.2066 H   0  0  0  0  0  0
  -32.3104  -27.2922   19.2291 H   0  0  0  0  0  0
  -31.5678  -28.1764   20.5557 H   0  0  0  0  0  0
  -30.7213  -28.0143   19.0247 H   0  0  0  0  0  0
  -33.2471  -22.4715   21.0005 H   0  0  0  0  0  0
  -33.4347  -23.6000   22.3513 H   0  0  0  0  0  0
  -33.8591  -24.0728   20.7037 H   0  0  0  0  0  0
  -30.8642  -23.4194   22.9258 H   0  0  0  0  0  0
  -29.7380  -23.6661   21.6231 H   0  0  0  0  0  0
  -29.1120  -15.4966   21.6226 H   0  0  0  0  0  0
  -30.2739  -14.7986   22.7309 H   0  0  0  0  0  0
  -31.4079  -25.7490   22.2807 H   0  0  0  0  0  0
  -32.6575  -25.9092   21.1104 H   0  0  0  0  0  0
  -31.9460  -16.6146   21.7936 H   0  0  0  0  0  0
  -30.6616  -17.0575   22.9049 H   0  0  0  0  0  0
  -29.4837  -27.4973   21.5154 H   0  0  0  0  0  0
  -29.0132  -25.8205   21.6104 H   0  0  0  0  0  0
  -31.5619  -23.8435   20.1125 H   0  0  0  0  0  0
  1 25  1  0  0  0
  1 30  2  0  0  0
  1 82  1  0  0  0
  2  3  1  0  0  0
  2 25  1  0  0  0
  2 90  1  0  0  0
  2 91  1  0  0  0
  3  4  1  0  0  0
  3 92  1  0  0  0
  3 93  1  0  0  0
  4  5  1  0  0  0
  4 94  1  0  0  0
  4 95  1  0  0  0
  5  6  1  0  0  0
  5 26  1  0  0  0
  5 96  1  0  0  0
  6 25  1  0  0  0
  6 97  1  0  0  0
  6 98  1  0  0  0
  7  8  2  0  0  0
  7 26  1  0  0  0
  7 29  1  0  0  0
  8  9  1  0  0  0
  8 22  1  0  0  0
  9 10  1  0  0  0
  9 27  2  0  0  0
 10 11  2  0  0  0
 10 15  1  0  0  0
 11 12  1  0  0  0
 11 99  1  0  0  0
 12 13  2  0  0  0
 12100  1  0  0  0
 13 14  1  0  0  0
 13 31  1  0  0  0
 14 15  2  0  0  0
 14101  1  0  0  0
 15102  1  0  0  0
 16 17  2  0  0  0
 16 21  1  0  0  0
 16 31  1  0  0  0
 17 18  1  0  0  0
 17103  1  0  0  0
 18 19  2  0  0  0
 18104  1  0  0  0
 19 20  1  0  0  0
 19 24  1  0  0  0
 20 21  2  0  0  0
 20105  1  0  0  0
 21 23  1  0  0  0
 22 28  1  0  0  0
 22 32  2  0  0  0
 26 27  1  0  0  0
 28106  1  0  0  0
 28107  1  0  0  0
 29108  1  0  0  0
 29109  1  0  0  0
 33 34  1  0  0  0
 33 66  1  0  0  0
 33 70  2  0  0  0
 34 36  1  0  0  0
 34 59  1  0  0  0
 34110  1  0  0  0
 35 44  2  0  0  0
 35 45  1  0  0  0
 35 68  1  0  0  0
 36 56  1  0  0  0
 36111  1  0  0  0
 37 39  1  0  0  0
 37 47  1  0  0  0
 37 66  1  0  0  0
 37112  1  0  0  0
 38 43  2  0  0  0
 38 46  1  0  0  0
 38 47  1  0  0  0
 39 64  1  0  0  0
 39 67  2  0  0  0
 40 52  1  0  0  0
 40 53  2  0  0  0
 40 58  1  0  0  0
 41113  1  0  0  0
 41114  1  0  0  0
 41115  1  0  0  0
 41 48  1  0  0  0
 42 43  1  0  0  0
 42 66  1  0  0  0
 42116  1  0  0  0
 42117  1  0  0  0
 43 44  1  0  0  0
 44118  1  0  0  0
 45 46  2  0  0  0
 45119  1  0  0  0
 46120  1  0  0  0
 47121  1  0  0  0
 47122  1  0  0  0
 48 56  1  0  0  0
 48 65  1  0  0  0
 48123  1  0  0  0
 49 50  1  0  0  0
 49 53  1  0  0  0
 49 64  1  0  0  0
 49124  1  0  0  0
 50 51  1  0  0  0
 50125  1  0  0  0
 50126  1  0  0  0
 51 52  1  0  0  0
 51127  1  0  0  0
 51128  1  0  0  0
 52129  1  0  0  0
 52130  1  0  0  0
 53 54  1  0  0  0
 54 55  2  0  0  0
 54131  1  0  0  0
 55 57  1  0  0  0
 55132  1  0  0  0
 56 69  2  0  0  0
 57 58  2  0  0  0
 57133  1  0  0  0
 58134  1  0  0  0
 59 60  1  0  0  0
 59 61  1  0  0  0
 59 62  1  0  0  0
 60135  1  0  0  0
 60136  1  0  0  0
 60137  1  0  0  0
 61138  1  0  0  0
 61139  1  0  0  0
 61140  1  0  0  0
 62141  1  0  0  0
 62142  1  0  0  0
 62143  1  0  0  0
 63 65  1  0  0  0
 63144  1  0  0  0
 63145  1  0  0  0
 63146  1  0  0  0
 64147  1  0  0  0
 65148  1  0  0  0
 68 85  1  0  0  0
 71 73  2  0  0  0
 71 74  1  0  0  0
 71149  1  0  0  0
 72 75  2  0  0  0
 72 76  1  0  0  0
 72150  1  0  0  0
 73 75  1  0  0  0
 73 77  1  0  0  0
 74 76  2  0  0  0
 74 81  1  0  0  0
 75 88  1  0  0  0
 76 89  1  0  0  0
 77151  1  0  0  0
 77152  1  0  0  0
 77153  1  0  0  0
 78154  1  0  0  0
 78155  1  0  0  0
 78156  1  0  0  0
 78 86  1  0  0  0
 79 86  1  0  0  0
 79157  1  0  0  0
 79158  1  0  0  0
 79159  1  0  0  0
 80160  1  0  0  0
 80161  1  0  0  0
 80162  1  0  0  0
 80 87  1  0  0  0
 81 87  1  0  0  0
 81163  1  0  0  0
 81164  1  0  0  0
 82 84  1  0  0  0
 82165  1  0  0  0
 82166  1  0  0  0
 83 86  1  0  0  0
 83 87  1  0  0  0
 83167  1  0  0  0
 83168  1  0  0  0
 84 88  1  0  0  0
 84169  1  0  0  0
 84170  1  0  0  0
 85 86  1  0  0  0
 85171  1  0  0  0
 85172  1  0  0  0
 87173  1  0  0  0
M  CHG  1  87   1
M  ISO  4   1 100  68 101  82 100  85 101
M  END
> <chiral flag>
0

> <version>
0

> <s_m_source_file>
/data/baiqing/PycharmProjects/Reinvent-master-3.2/result/LINK_invent/BTK/process_docking_weight1_custom_product_contain_oxygen_bond_distance_aromatic_linkinvent_7_9_3/rearranged_h_0016.sdf

> <i_m_source_file_index>
24

> <r_mmod_Potential_Energy-OPLS-2005>
-166.226455688477

> <r_mmod_Stretch_Energy-OPLS-2005>
37.4860916137695

> <r_mmod_Bend_Energy-OPLS-2005>
115.991065979004

> <r_mmod_Torsional_Energy-OPLS-2005>
201.36067199707

> <r_mmod_Improper_Torsional_Energy-OPLS-2005>
1.98869526386261

> <r_mmod_Van_der_Waal_Energy-OPLS-2005>
168.188903808594

> <r_mmod_Electrostatic_Energy-OPLS-2005>
-292.49951171875

> <r_mmod_Solvation_Energy-OPLS-2005>
-406.939727783203

> <b_mmod_Minimization_Converged-OPLS-2005>
0

> <r_mmod_RMS_Derivative-OPLS-2005>
2.44033002853394

$$$$
24
                    3D
 Structure written by MMmdl.
154162  0  0  1  0            999 V2000
  -30.5567  -14.9592   20.4882 C   0  0  0  0  0  0
  -30.4463  -12.6082   19.5048 C   0  0  0  0  0  0
  -29.5267  -12.5548   18.2604 C   0  0  0  0  0  0
  -28.0558  -12.3360   18.6628 C   0  0  0  0  0  0
  -27.6341  -13.2450   19.8420 C   0  0  2  0  0  0
  -28.6719  -13.2230   20.9784 C   0  0  0  0  0  0
  -25.2491  -13.8198   20.5715 C   0  0  0  0  0  0
  -24.1791  -13.0421   20.9214 C   0  0  0  0  0  0
  -24.6405  -11.6910   20.8731 C   0  0  0  0  0  0
  -23.9099  -10.4278   21.0408 C   0  0  0  0  0  0
  -24.3653   -9.4193   21.9192 C   0  0  0  0  0  0
  -23.6322   -8.2226   22.0755 C   0  0  0  0  0  0
  -22.4301   -8.0272   21.3538 C   0  0  0  0  0  0
  -21.9935   -9.0251   20.4640 C   0  0  0  0  0  0
  -22.7272  -10.2126   20.3059 C   0  0  0  0  0  0
  -21.6851   -6.0746   22.5291 C   0  0  0  0  0  0
  -21.4008   -6.5653   23.8222 C   0  0  0  0  0  0
  -21.3655   -5.6803   24.9184 C   0  0  0  0  0  0
  -21.6036   -4.3061   24.7235 C   0  0  0  0  0  0
  -21.8825   -3.8157   23.4359 C   0  0  0  0  0  0
  -21.9201   -4.6976   22.3415 C   0  0  0  0  0  0
  -22.7828  -13.5203   21.1909 C   0  0  0  0  0  0
  -22.1692   -4.2165   21.0987 F   0  0  0  0  0  0
  -21.5613   -3.4543   25.7743 F   0  0  0  0  0  0
  -29.9566  -13.6876   20.4176 N   0  0  0  0  0  0
  -26.2901  -12.9430   20.3232 N   0  0  0  0  0  0
  -25.9328  -11.6561   20.5696 N   0  0  0  0  0  0
  -22.0482  -12.8171   22.0452 N   0  0  0  0  0  0
  -25.4211  -15.1928   20.4210 N   0  0  0  0  0  0
  -31.7025  -15.0492   20.0309 O   0  0  0  0  0  0
  -21.6642   -6.8885   21.4248 O   0  0  0  0  0  0
  -22.3517  -14.5531   20.6788 O   0  0  0  0  0  0
  -24.6440  -31.8456   23.1877 C   0  0  0  0  0  0
  -25.9215  -32.4706   23.8276 C   0  0  1  0  0  0
  -27.2284  -27.1403   20.1533 C   0  0  0  0  0  0
  -25.5971  -33.8503   24.2209 N   0  0  0  0  0  0
  -23.4451  -30.4639   21.5337 C   0  0  2  0  0  0
  -24.8959  -28.8825   20.1173 C   0  0  0  0  0  0
  -22.7541  -29.4571   22.4872 C   0  0  0  0  0  0
  -18.0287  -28.1406   22.8488 C   0  0  0  0  0  0
  -24.1480  -36.7226   23.2642 C   0  0  0  0  0  0
  -26.0000  -30.7228   21.3817 C   0  0  0  0  0  0
  -26.0735  -29.3300   20.7297 C   0  0  0  0  0  0
  -27.2405  -28.4760   20.7269 C   0  0  0  0  0  0
  -26.0222  -26.7902   19.5088 C   0  0  0  0  0  0
  -24.8826  -27.6257   19.4925 C   0  0  0  0  0  0
  -23.6724  -29.7876   20.1556 C   0  0  0  0  0  0
  -25.4125  -36.3027   24.0311 C   0  0  1  0  0  0
  -20.5912  -28.3726   23.1248 C   0  0  2  0  0  0
  -20.6770  -26.9431   22.5410 C   0  0  0  0  0  0
  -19.5747  -26.6388   21.5213 C   0  0  0  0  0  0
  -18.1927  -26.7950   22.1623 C   0  0  0  0  0  0
  -19.1551  -28.8881   23.2863 C   0  0  0  0  0  0
  -18.9476  -30.1474   23.8889 C   0  0  0  0  0  0
  -17.6477  -30.6611   24.0567 C   0  0  0  0  0  0
  -25.9066  -34.9401   23.5057 C   0  0  0  0  0  0
  -16.5364  -29.9104   23.6337 C   0  0  0  0  0  0
  -16.7276  -28.6517   23.0369 C   0  0  0  0  0  0
  -26.4534  -31.6570   25.0710 C   0  0  0  0  0  0
  -25.3721  -31.3791   26.1413 C   0  0  0  0  0  0
  -27.0384  -30.2970   24.6264 C   0  0  0  0  0  0
  -27.6045  -32.4339   25.7528 C   0  0  0  0  0  0
  -27.5560  -37.1797   24.8481 C   0  0  0  0  0  0
  -21.4240  -29.3051   22.3606 N   0  0  0  0  0  0
  -26.4289  -37.3738   23.9391 N   0  0  0  0  0  0
  -24.7164  -31.0311   22.0910 N   0  0  0  0  0  0
  -23.4180  -28.8121   23.3030 O   0  0  0  0  0  0
  -28.3162  -26.1925   20.1759 O   0  0  0  0  0  0
  -26.5633  -34.8894   22.4623 O   0  0  0  0  0  0
  -23.5561  -32.1309   23.7107 O   0  0  0  0  0  0
  -30.3501  -19.7335   19.3302 C   0  0  0  0  0  0
  -28.8351  -19.9997   21.0923 C   0  0  0  0  0  0
  -30.4525  -18.2998   19.5667 C   0  0  0  0  0  0
  -28.9451  -18.5642   21.3419 C   0  0  0  0  0  0
  -29.5628  -20.6952   20.0766 C   0  0  0  0  0  0
  -29.7746  -17.6086   20.6230 C   0  0  0  0  0  0
  -29.6886  -22.2519   19.6819 C   0  0  0  0  0  0
  -29.2999  -23.6379   19.7053 C   0  0  0  0  0  0
  -30.2097  -24.5598   18.8913 C   0  0  0  0  0  0
  -29.5407  -15.9254   22.4499 C   0  0  0  0  0  0
  -28.1528  -24.6382   20.3033 C   0  0  0  0  0  0
  -29.8875  -16.1119   21.0306 N   0  0  0  0  0  0
  -31.4787  -12.7705   19.1930 H   0  0  0  0  0  0
  -30.4485  -11.6471   20.0209 H   0  0  0  0  0  0
  -29.8509  -11.7606   17.5852 H   0  0  0  0  0  0
  -29.6169  -13.4862   17.7002 H   0  0  0  0  0  0
  -27.9406  -11.2900   18.9468 H   0  0  0  0  0  0
  -27.3995  -12.4923   17.8060 H   0  0  0  0  0  0
  -27.6124  -14.2612   19.4455 H   0  0  0  0  0  0
  -28.7660  -12.2193   21.3955 H   0  0  0  0  0  0
  -28.3122  -13.8358   21.7973 H   0  0  0  0  0  0
  -25.2795   -9.5666   22.4769 H   0  0  0  0  0  0
  -24.0032   -7.4619   22.7477 H   0  0  0  0  0  0
  -21.0860   -8.8782   19.8943 H   0  0  0  0  0  0
  -22.3744  -10.9682   19.6171 H   0  0  0  0  0  0
  -21.2003   -7.6161   23.9736 H   0  0  0  0  0  0
  -21.1474   -6.0524   25.9089 H   0  0  0  0  0  0
  -22.0605   -2.7621   23.2857 H   0  0  0  0  0  0
  -22.4126  -11.9816   22.4794 H   0  0  0  0  0  0
  -21.1100  -13.1171   22.2679 H   0  0  0  0  0  0
  -24.6593  -15.8506   20.5477 H   0  0  0  0  0  0
  -26.2867  -15.6351   20.1379 H   0  0  0  0  0  0
  -26.7287  -32.5327   23.1009 H   0  0  0  0  0  0
  -25.0161  -33.9626   25.0391 H   0  0  0  0  0  0
  -22.7467  -31.2890   21.3780 H   0  0  0  0  0  0
  -23.3744  -35.9558   23.3347 H   0  0  0  0  0  0
  -24.3557  -36.8796   22.2047 H   0  0  0  0  0  0
  -23.7220  -37.6427   23.6648 H   0  0  0  0  0  0
  -26.1431  -31.4755   20.6051 H   0  0  0  0  0  0
  -26.8741  -30.7840   22.0178 H   0  0  0  0  0  0
  -28.1401  -28.8196   21.2180 H   0  0  0  0  0  0
  -25.9391  -25.8361   19.0102 H   0  0  0  0  0  0
  -23.9828  -27.2798   19.0016 H   0  0  0  0  0  0
  -23.8073  -30.5583   19.3959 H   0  0  0  0  0  0
  -22.7865  -29.2287   19.8488 H   0  0  0  0  0  0
  -25.1322  -36.1860   25.0804 H   0  0  0  0  0  0
  -21.0008  -28.3328   24.1371 H   0  0  0  0  0  0
  -20.5652  -26.2343   23.3628 H   0  0  0  0  0  0
  -21.6643  -26.7418   22.1230 H   0  0  0  0  0  0
  -19.6896  -25.6286   21.1260 H   0  0  0  0  0  0
  -19.6696  -27.3176   20.6735 H   0  0  0  0  0  0
  -17.4195  -26.6688   21.4031 H   0  0  0  0  0  0
  -18.0333  -26.0095   22.9028 H   0  0  0  0  0  0
  -19.7951  -30.7288   24.2261 H   0  0  0  0  0  0
  -17.5033  -31.6292   24.5164 H   0  0  0  0  0  0
  -15.5370  -30.3015   23.7668 H   0  0  0  0  0  0
  -15.8666  -28.0829   22.7121 H   0  0  0  0  0  0
  -24.5885  -30.7138   25.7774 H   0  0  0  0  0  0
  -24.8942  -32.2994   26.4775 H   0  0  0  0  0  0
  -25.8023  -30.9014   27.0222 H   0  0  0  0  0  0
  -26.3008  -29.6724   24.1217 H   0  0  0  0  0  0
  -27.3937  -29.7250   25.4843 H   0  0  0  0  0  0
  -27.8930  -30.4207   23.9613 H   0  0  0  0  0  0
  -27.2596  -33.3619   26.2106 H   0  0  0  0  0  0
  -28.3892  -32.6945   25.0413 H   0  0  0  0  0  0
  -28.0676  -31.8463   26.5457 H   0  0  0  0  0  0
  -28.2644  -38.0034   24.7448 H   0  0  0  0  0  0
  -28.0988  -36.2554   24.6430 H   0  0  0  0  0  0
  -27.2259  -37.1598   25.8886 H   0  0  0  0  0  0
  -20.9424  -29.8763   21.6799 H   0  0  0  0  0  0
  -26.0146  -38.2802   24.1389 H   0  0  0  0  0  0
  -30.9505  -20.1158   18.5157 H   0  0  0  0  0  0
  -28.1956  -20.5762   21.7463 H   0  0  0  0  0  0
  -31.1098  -17.7347   18.9204 H   0  0  0  0  0  0
  -28.3481  -18.2016   22.1663 H   0  0  0  0  0  0
  -30.5784  -22.2152   19.0741 H   0  0  0  0  0  0
  -31.0936  -24.0823   18.4681 H   0  0  0  0  0  0
  -30.5745  -25.3809   19.5078 H   0  0  0  0  0  0
  -29.6514  -24.9853   18.0567 H   0  0  0  0  0  0
  -28.4593  -15.9033   22.5790 H   0  0  0  0  0  0
  -29.9262  -16.7466   23.0558 H   0  0  0  0  0  0
  -29.9572  -15.0210   22.8991 H   0  0  0  0  0  0
  -28.0366  -24.4069   21.3624 H   0  0  0  0  0  0
  -27.2178  -24.3312   19.8401 H   0  0  0  0  0  0
  1 25  1  0  0  0
  1 30  2  0  0  0
  1 82  1  0  0  0
  2  3  1  0  0  0
  2 25  1  0  0  0
  2 83  1  0  0  0
  2 84  1  0  0  0
  3  4  1  0  0  0
  3 85  1  0  0  0
  3 86  1  0  0  0
  4  5  1  0  0  0
  4 87  1  0  0  0
  4 88  1  0  0  0
  5  6  1  0  0  0
  5 26  1  0  0  0
  5 89  1  0  0  0
  6 25  1  0  0  0
  6 90  1  0  0  0
  6 91  1  0  0  0
  7  8  2  0  0  0
  7 26  1  0  0  0
  7 29  1  0  0  0
  8  9  1  0  0  0
  8 22  1  0  0  0
  9 10  1  0  0  0
  9 27  2  0  0  0
 10 11  2  0  0  0
 10 15  1  0  0  0
 11 12  1  0  0  0
 11 92  1  0  0  0
 12 13  2  0  0  0
 12 93  1  0  0  0
 13 14  1  0  0  0
 13 31  1  0  0  0
 14 15  2  0  0  0
 14 94  1  0  0  0
 15 95  1  0  0  0
 16 17  2  0  0  0
 16 21  1  0  0  0
 16 31  1  0  0  0
 17 18  1  0  0  0
 17 96  1  0  0  0
 18 19  2  0  0  0
 18 97  1  0  0  0
 19 20  1  0  0  0
 19 24  1  0  0  0
 20 21  2  0  0  0
 20 98  1  0  0  0
 21 23  1  0  0  0
 22 28  1  0  0  0
 22 32  2  0  0  0
 26 27  1  0  0  0
 28 99  1  0  0  0
 28100  1  0  0  0
 29101  1  0  0  0
 29102  1  0  0  0
 33 34  1  0  0  0
 33 66  1  0  0  0
 33 70  2  0  0  0
 34 36  1  0  0  0
 34 59  1  0  0  0
 34103  1  0  0  0
 35 44  2  0  0  0
 35 45  1  0  0  0
 35 68  1  0  0  0
 36 56  1  0  0  0
 36104  1  0  0  0
 37 39  1  0  0  0
 37 47  1  0  0  0
 37 66  1  0  0  0
 37105  1  0  0  0
 38 43  2  0  0  0
 38 46  1  0  0  0
 38 47  1  0  0  0
 39 64  1  0  0  0
 39 67  2  0  0  0
 40 52  1  0  0  0
 40 53  2  0  0  0
 40 58  1  0  0  0
 41106  1  0  0  0
 41107  1  0  0  0
 41108  1  0  0  0
 41 48  1  0  0  0
 42 43  1  0  0  0
 42 66  1  0  0  0
 42109  1  0  0  0
 42110  1  0  0  0
 43 44  1  0  0  0
 44111  1  0  0  0
 45 46  2  0  0  0
 45112  1  0  0  0
 46113  1  0  0  0
 47114  1  0  0  0
 47115  1  0  0  0
 48 56  1  0  0  0
 48 65  1  0  0  0
 48116  1  0  0  0
 49 50  1  0  0  0
 49 53  1  0  0  0
 49 64  1  0  0  0
 49117  1  0  0  0
 50 51  1  0  0  0
 50118  1  0  0  0
 50119  1  0  0  0
 51 52  1  0  0  0
 51120  1  0  0  0
 51121  1  0  0  0
 52122  1  0  0  0
 52123  1  0  0  0
 53 54  1  0  0  0
 54 55  2  0  0  0
 54124  1  0  0  0
 55 57  1  0  0  0
 55125  1  0  0  0
 56 69  2  0  0  0
 57 58  2  0  0  0
 57126  1  0  0  0
 58127  1  0  0  0
 59 60  1  0  0  0
 59 61  1  0  0  0
 59 62  1  0  0  0
 60128  1  0  0  0
 60129  1  0  0  0
 60130  1  0  0  0
 61131  1  0  0  0
 61132  1  0  0  0
 61133  1  0  0  0
 62134  1  0  0  0
 62135  1  0  0  0
 62136  1  0  0  0
 63 65  1  0  0  0
 63137  1  0  0  0
 63138  1  0  0  0
 63139  1  0  0  0
 64140  1  0  0  0
 65141  1  0  0  0
 68 81  1  0  0  0
 71 73  2  0  0  0
 71 75  1  0  0  0
 71142  1  0  0  0
 72 74  1  0  0  0
 72 75  2  0  0  0
 72143  1  0  0  0
 73 76  1  0  0  0
 73144  1  0  0  0
 74 76  2  0  0  0
 74145  1  0  0  0
 75 77  1  0  0  0
 76 82  1  0  0  0
 77 78  2  0  0  0
 77146  1  0  0  0
 78 79  1  0  0  0
 78 81  1  0  0  0
 79147  1  0  0  0
 79148  1  0  0  0
 79149  1  0  0  0
 80 82  1  0  0  0
 80150  1  0  0  0
 80151  1  0  0  0
 80152  1  0  0  0
 81153  1  0  0  0
 81154  1  0  0  0
M  ISO  4   1 100  68 101  81 101  82 100
M  END
> <chiral flag>
0

> <version>
0

> <s_m_source_file>
/data/baiqing/PycharmProjects/Reinvent-master-3.2/result/LINK_invent/BTK/process_docking_weight1_custom_product_contain_oxygen_bond_distance_aromatic_linkinvent_7_9_3/rearranged_h_0016.sdf

> <i_m_source_file_index>
25

> <r_mmod_Potential_Energy-OPLS-2005>
790.127502441406

> <r_mmod_Stretch_Energy-OPLS-2005>
260.744171142578

> <r_mmod_Bend_Energy-OPLS-2005>
384.717895507812

> <r_mmod_Torsional_Energy-OPLS-2005>
281.752288818359

> <r_mmod_Improper_Torsional_Energy-OPLS-2005>
2.69708275794983

> <r_mmod_Van_der_Waal_Energy-OPLS-2005>
155.664459228516

> <r_mmod_Electrostatic_Energy-OPLS-2005>
-291.479034423828

> <r_mmod_Solvation_Energy-OPLS-2005>
-185.917831420898

> <b_mmod_Minimization_Converged-OPLS-2005>
0

> <r_mmod_RMS_Derivative-OPLS-2005>
3.05525183677673

$$$$
25
                    3D
 Structure written by MMmdl.
170179  0  0  1  0            999 V2000
  -30.7396  -14.3828   20.5994 C   0  0  0  0  0  0
  -30.4095  -12.2640   19.4030 C   0  0  0  0  0  0
  -29.4852  -12.5216   18.1973 C   0  0  0  0  0  0
  -28.0048  -12.3952   18.6065 C   0  0  0  0  0  0
  -27.6648  -13.2064   19.8864 C   0  0  2  0  0  0
  -28.7050  -12.9461   21.0000 C   0  0  0  0  0  0
  -25.2586  -13.8178   20.5673 C   0  0  0  0  0  0
  -24.1843  -13.0442   20.9174 C   0  0  0  0  0  0
  -24.6404  -11.6906   20.8735 C   0  0  0  0  0  0
  -23.9059  -10.4291   21.0389 C   0  0  0  0  0  0
  -24.3613   -9.4216   21.9178 C   0  0  0  0  0  0
  -23.6291   -8.2244   22.0756 C   0  0  0  0  0  0
  -22.4270   -8.0280   21.3550 C   0  0  0  0  0  0
  -21.9905   -9.0245   20.4647 C   0  0  0  0  0  0
  -22.7222  -10.2128   20.3048 C   0  0  0  0  0  0
  -21.6862   -6.0746   22.5286 C   0  0  0  0  0  0
  -21.4009   -6.5642   23.8219 C   0  0  0  0  0  0
  -21.3668   -5.6793   24.9186 C   0  0  0  0  0  0
  -21.6037   -4.3052   24.7229 C   0  0  0  0  0  0
  -21.8820   -3.8150   23.4350 C   0  0  0  0  0  0
  -21.9187   -4.6976   22.3408 C   0  0  0  0  0  0
  -22.7864  -13.5232   21.1847 C   0  0  0  0  0  0
  -22.1657   -4.2169   21.0987 F   0  0  0  0  0  0
  -21.5641   -3.4531   25.7743 F   0  0  0  0  0  0
  -30.0444  -13.2259   20.4525 N   0  0  0  0  0  0
  -26.3046  -12.9340   20.3418 N   0  0  0  0  0  0
  -25.9335  -11.6499   20.5781 N   0  0  0  0  0  0
  -22.0500  -12.8222   22.0397 N   0  0  0  0  0  0
  -25.4262  -15.1900   20.4089 N   0  0  0  0  0  0
  -31.8266  -14.5958   20.0602 O   0  0  0  0  0  0
  -21.6639   -6.8882   21.4246 O   0  0  0  0  0  0
  -22.3545  -14.5532   20.6700 O   0  0  0  0  0  0
  -24.6096  -31.8689   23.2154 C   0  0  0  0  0  0
  -25.8987  -32.4858   23.8420 C   0  0  1  0  0  0
  -27.2206  -27.4618   20.0960 C   0  0  0  0  0  0
  -25.5831  -33.8659   24.2343 N   0  0  0  0  0  0
  -23.3946  -30.4963   21.5548 C   0  0  2  0  0  0
  -24.8408  -28.9659   20.1144 C   0  0  0  0  0  0
  -22.7383  -29.4660   22.5007 C   0  0  0  0  0  0
  -18.0258  -28.1384   22.8576 C   0  0  0  0  0  0
  -24.1471  -36.7322   23.2644 C   0  0  0  0  0  0
  -25.9209  -30.8444   21.3620 C   0  0  0  0  0  0
  -25.9979  -29.4763   20.7190 C   0  0  0  0  0  0
  -27.1940  -28.7287   20.7172 C   0  0  0  0  0  0
  -26.0569  -26.9627   19.4768 C   0  0  0  0  0  0
  -24.8602  -27.7047   19.4947 C   0  0  0  0  0  0
  -23.6027  -29.8330   20.1692 C   0  0  0  0  0  0
  -25.4092  -36.3141   24.0357 C   0  0  1  0  0  0
  -20.5856  -28.3633   23.1350 C   0  0  2  0  0  0
  -20.6749  -26.9386   22.5394 C   0  0  0  0  0  0
  -19.5619  -26.6242   21.5329 C   0  0  0  0  0  0
  -18.1840  -26.7917   22.1763 C   0  0  0  0  0  0
  -19.1523  -28.8829   23.2959 C   0  0  0  0  0  0
  -18.9449  -30.1437   23.8976 C   0  0  0  0  0  0
  -17.6456  -30.6598   24.0633 C   0  0  0  0  0  0
  -25.9004  -34.9513   23.5159 C   0  0  0  0  0  0
  -16.5361  -29.9130   23.6350 C   0  0  0  0  0  0
  -16.7263  -28.6547   23.0384 C   0  0  0  0  0  0
  -26.4436  -31.6604   25.0721 C   0  0  0  0  0  0
  -25.3729  -31.3641   26.1492 C   0  0  0  0  0  0
  -27.0260  -30.3077   24.6012 C   0  0  0  0  0  0
  -27.6029  -32.4297   25.7463 C   0  0  0  0  0  0
  -27.5578  -37.1810   24.8483 C   0  0  0  0  0  0
  -21.4098  -29.3053   22.3797 N   0  0  0  0  0  0
  -26.4283  -37.3831   23.9440 N   0  0  0  0  0  0
  -24.6602  -31.0798   22.1050 N   0  0  0  0  0  0
  -23.4186  -28.8125   23.2963 O   0  0  0  0  0  0
  -28.3661  -26.7115   20.0676 O   0  0  0  0  0  0
  -26.5591  -34.8963   22.4736 O   0  0  0  0  0  0
  -23.5307  -32.1441   23.7586 O   0  0  0  0  0  0
  -25.9077  -20.8493   21.0031 C   0  0  0  0  0  0
  -26.8192  -19.8933   20.5120 C   0  0  0  0  0  0
  -27.5186  -21.5058   22.7115 C   0  0  0  0  0  0
  -26.2544  -21.6607   22.1060 C   0  0  0  0  0  0
  -28.0883  -19.7461   21.1139 C   0  0  0  0  0  0
  -28.4386  -20.5635   22.2176 C   0  0  0  0  0  0
  -29.1896  -17.6337   21.3314 C   0  0  0  0  0  0
  -29.6962  -18.5290   18.1641 C   0  0  0  0  0  0
  -29.3352  -19.9791   18.3598 C   0  0  0  0  0  0
  -29.8683  -19.1684   19.5302 C   0  0  0  0  0  0
  -25.2675  -22.6799   22.6557 C   0  0  0  0  0  0
  -30.4359  -16.7701   21.0949 C   0  0  0  0  0  0
  -27.6560  -24.6855   21.3264 C   0  0  0  0  0  0
  -26.4017  -24.8961   22.2072 C   0  0  0  0  0  0
  -28.5923  -25.9148   21.2321 C   0  0  0  0  0  0
  -30.1057  -15.3550   21.2561 N   0  0  0  0  0  0
  -29.0047  -18.7760   20.6175 N   0  0  0  0  0  0
  -25.2868  -23.9592   21.9133 N   0  3  0  0  0  0
  -28.3774  -17.2374   22.1763 O   0  0  0  0  0  0
  -29.9895  -20.4483   22.9746 Cl  0  0  0  0  0  0
  -31.4561  -12.3416   19.1021 H   0  0  0  0  0  0
  -30.2809  -11.2433   19.7687 H   0  0  0  0  0  0
  -29.7104  -11.8231   17.3902 H   0  0  0  0  0  0
  -29.6761  -13.5183   17.7982 H   0  0  0  0  0  0
  -27.7892  -11.3380   18.7630 H   0  0  0  0  0  0
  -27.3628  -12.7133   17.7846 H   0  0  0  0  0  0
  -27.7187  -14.2623   19.6231 H   0  0  0  0  0  0
  -28.6569  -11.9033   21.3218 H   0  0  0  0  0  0
  -28.4771  -13.5327   21.8906 H   0  0  0  0  0  0
  -25.2755   -9.5717   22.4755 H   0  0  0  0  0  0
  -24.0020   -7.4645   22.7469 H   0  0  0  0  0  0
  -21.0848   -8.8745   19.8948 H   0  0  0  0  0  0
  -22.3668  -10.9669   19.6160 H   0  0  0  0  0  0
  -21.1985   -7.6148   23.9736 H   0  0  0  0  0  0
  -21.1498   -6.0521   25.9093 H   0  0  0  0  0  0
  -22.0587   -2.7612   23.2848 H   0  0  0  0  0  0
  -22.4075  -11.9872   22.4793 H   0  0  0  0  0  0
  -21.1128  -13.1281   22.2583 H   0  0  0  0  0  0
  -24.6571  -15.8417   20.5220 H   0  0  0  0  0  0
  -26.2884  -15.6417   20.1302 H   0  0  0  0  0  0
  -26.7026  -32.5573   23.1151 H   0  0  0  0  0  0
  -24.9972  -33.9860   25.0488 H   0  0  0  0  0  0
  -22.6796  -31.3113   21.4208 H   0  0  0  0  0  0
  -23.3763  -35.9632   23.3340 H   0  0  0  0  0  0
  -24.3554  -36.8929   22.2050 H   0  0  0  0  0  0
  -23.7225  -37.6536   23.6633 H   0  0  0  0  0  0
  -26.0179  -31.5986   20.5799 H   0  0  0  0  0  0
  -26.8154  -30.9127   21.9694 H   0  0  0  0  0  0
  -28.0834  -29.1252   21.1853 H   0  0  0  0  0  0
  -26.0724  -25.9993   18.9859 H   0  0  0  0  0  0
  -23.9701  -27.3134   19.0204 H   0  0  0  0  0  0
  -23.7081  -30.6108   19.4101 H   0  0  0  0  0  0
  -22.7267  -29.2504   19.8796 H   0  0  0  0  0  0
  -25.1272  -36.1998   25.0851 H   0  0  0  0  0  0
  -20.9995  -28.3100   24.1444 H   0  0  0  0  0  0
  -20.5820  -26.2231   23.3577 H   0  0  0  0  0  0
  -21.6599  -26.7463   22.1116 H   0  0  0  0  0  0
  -19.6665  -25.6089   21.1500 H   0  0  0  0  0  0
  -19.6468  -27.2891   20.6732 H   0  0  0  0  0  0
  -17.4082  -26.6650   21.4209 H   0  0  0  0  0  0
  -18.0189  -26.0104   22.9201 H   0  0  0  0  0  0
  -19.7917  -30.7277   24.2330 H   0  0  0  0  0  0
  -17.5015  -31.6261   24.5263 H   0  0  0  0  0  0
  -15.5367  -30.3094   23.7612 H   0  0  0  0  0  0
  -15.8630  -28.0932   22.7067 H   0  0  0  0  0  0
  -24.5925  -30.6963   25.7807 H   0  0  0  0  0  0
  -24.8892  -32.2762   26.4940 H   0  0  0  0  0  0
  -25.8119  -30.8791   27.0229 H   0  0  0  0  0  0
  -26.2764  -29.6846   24.1124 H   0  0  0  0  0  0
  -27.4145  -29.7281   25.4394 H   0  0  0  0  0  0
  -27.8539  -30.4457   23.9088 H   0  0  0  0  0  0
  -27.2662  -33.3606   26.2033 H   0  0  0  0  0  0
  -28.3818  -32.6839   25.0259 H   0  0  0  0  0  0
  -28.0708  -31.8429   26.5371 H   0  0  0  0  0  0
  -28.2606  -38.0099   24.7552 H   0  0  0  0  0  0
  -28.1076  -36.2638   24.6275 H   0  0  0  0  0  0
  -27.2315  -37.1453   25.8899 H   0  0  0  0  0  0
  -20.9197  -29.8838   21.7119 H   0  0  0  0  0  0
  -26.0186  -38.2929   24.1428 H   0  0  0  0  0  0
  -24.9388  -20.9462   20.5330 H   0  0  0  0  0  0
  -26.5483  -19.2777   19.6642 H   0  0  0  0  0  0
  -27.7986  -22.1232   23.5546 H   0  0  0  0  0  0
  -30.5969  -18.3173   17.5901 H   0  0  0  0  0  0
  -28.8802  -17.8212   18.0217 H   0  0  0  0  0  0
  -28.2776  -20.2182   18.2846 H   0  0  0  0  0  0
  -29.9976  -20.7256   17.9257 H   0  0  0  0  0  0
  -30.8919  -19.4065   19.8173 H   0  0  0  0  0  0
  -25.4447  -22.8485   23.7197 H   0  0  0  0  0  0
  -24.2674  -22.2486   22.5864 H   0  0  0  0  0  0
  -31.2057  -17.0448   21.8175 H   0  0  0  0  0  0
  -30.8571  -16.9434   20.1045 H   0  0  0  0  0  0
  -27.3790  -24.3670   20.3216 H   0  0  0  0  0  0
  -28.2361  -23.8636   21.7432 H   0  0  0  0  0  0
  -26.0108  -25.9021   22.0507 H   0  0  0  0  0  0
  -26.6767  -24.8565   23.2614 H   0  0  0  0  0  0
  -29.6192  -25.5581   21.1514 H   0  0  0  0  0  0
  -28.5541  -26.5205   22.1398 H   0  0  0  0  0  0
  -29.2197  -15.1500   21.6940 H   0  0  0  0  0  0
  -24.4378  -24.4409   22.1710 H   0  0  0  0  0  0
  -25.2212  -23.7763   20.9254 H   0  0  0  0  0  0
  1 25  1  0  0  0
  1 30  2  0  0  0
  1 86  1  0  0  0
  2  3  1  0  0  0
  2 25  1  0  0  0
  2 91  1  0  0  0
  2 92  1  0  0  0
  3  4  1  0  0  0
  3 93  1  0  0  0
  3 94  1  0  0  0
  4  5  1  0  0  0
  4 95  1  0  0  0
  4 96  1  0  0  0
  5  6  1  0  0  0
  5 26  1  0  0  0
  5 97  1  0  0  0
  6 25  1  0  0  0
  6 98  1  0  0  0
  6 99  1  0  0  0
  7  8  2  0  0  0
  7 26  1  0  0  0
  7 29  1  0  0  0
  8  9  1  0  0  0
  8 22  1  0  0  0
  9 10  1  0  0  0
  9 27  2  0  0  0
 10 11  2  0  0  0
 10 15  1  0  0  0
 11 12  1  0  0  0
 11100  1  0  0  0
 12 13  2  0  0  0
 12101  1  0  0  0
 13 14  1  0  0  0
 13 31  1  0  0  0
 14 15  2  0  0  0
 14102  1  0  0  0
 15103  1  0  0  0
 16 17  2  0  0  0
 16 21  1  0  0  0
 16 31  1  0  0  0
 17 18  1  0  0  0
 17104  1  0  0  0
 18 19  2  0  0  0
 18105  1  0  0  0
 19 20  1  0  0  0
 19 24  1  0  0  0
 20 21  2  0  0  0
 20106  1  0  0  0
 21 23  1  0  0  0
 22 28  1  0  0  0
 22 32  2  0  0  0
 26 27  1  0  0  0
 28107  1  0  0  0
 28108  1  0  0  0
 29109  1  0  0  0
 29110  1  0  0  0
 33 34  1  0  0  0
 33 66  1  0  0  0
 33 70  2  0  0  0
 34 36  1  0  0  0
 34 59  1  0  0  0
 34111  1  0  0  0
 35 44  2  0  0  0
 35 45  1  0  0  0
 35 68  1  0  0  0
 36 56  1  0  0  0
 36112  1  0  0  0
 37 39  1  0  0  0
 37 47  1  0  0  0
 37 66  1  0  0  0
 37113  1  0  0  0
 38 43  2  0  0  0
 38 46  1  0  0  0
 38 47  1  0  0  0
 39 64  1  0  0  0
 39 67  2  0  0  0
 40 52  1  0  0  0
 40 53  2  0  0  0
 40 58  1  0  0  0
 41114  1  0  0  0
 41115  1  0  0  0
 41116  1  0  0  0
 41 48  1  0  0  0
 42 43  1  0  0  0
 42 66  1  0  0  0
 42117  1  0  0  0
 42118  1  0  0  0
 43 44  1  0  0  0
 44119  1  0  0  0
 45 46  2  0  0  0
 45120  1  0  0  0
 46121  1  0  0  0
 47122  1  0  0  0
 47123  1  0  0  0
 48 56  1  0  0  0
 48 65  1  0  0  0
 48124  1  0  0  0
 49 50  1  0  0  0
 49 53  1  0  0  0
 49 64  1  0  0  0
 49125  1  0  0  0
 50 51  1  0  0  0
 50126  1  0  0  0
 50127  1  0  0  0
 51 52  1  0  0  0
 51128  1  0  0  0
 51129  1  0  0  0
 52130  1  0  0  0
 52131  1  0  0  0
 53 54  1  0  0  0
 54 55  2  0  0  0
 54132  1  0  0  0
 55 57  1  0  0  0
 55133  1  0  0  0
 56 69  2  0  0  0
 57 58  2  0  0  0
 57134  1  0  0  0
 58135  1  0  0  0
 59 60  1  0  0  0
 59 61  1  0  0  0
 59 62  1  0  0  0
 60136  1  0  0  0
 60137  1  0  0  0
 60138  1  0  0  0
 61139  1  0  0  0
 61140  1  0  0  0
 61141  1  0  0  0
 62142  1  0  0  0
 62143  1  0  0  0
 62144  1  0  0  0
 63 65  1  0  0  0
 63145  1  0  0  0
 63146  1  0  0  0
 63147  1  0  0  0
 64148  1  0  0  0
 65149  1  0  0  0
 68 85  1  0  0  0
 71 72  2  0  0  0
 71 74  1  0  0  0
 71150  1  0  0  0
 72 75  1  0  0  0
 72151  1  0  0  0
 73 74  2  0  0  0
 73 76  1  0  0  0
 73152  1  0  0  0
 74 81  1  0  0  0
 75 76  2  0  0  0
 75 87  1  0  0  0
 76 90  1  0  0  0
 77 82  1  0  0  0
 77 87  1  0  0  0
 77 89  2  0  0  0
 78 79  1  0  0  0
 78 80  1  0  0  0
 78153  1  0  0  0
 78154  1  0  0  0
 79 80  1  0  0  0
 79155  1  0  0  0
 79156  1  0  0  0
 80 87  1  0  0  0
 80157  1  0  0  0
 81 88  1  0  0  0
 81158  1  0  0  0
 81159  1  0  0  0
 82 86  1  0  0  0
 82160  1  0  0  0
 82161  1  0  0  0
 83 84  1  0  0  0
 83 85  1  0  0  0
 83162  1  0  0  0
 83163  1  0  0  0
 84 88  1  0  0  0
 84164  1  0  0  0
 84165  1  0  0  0
 85166  1  0  0  0
 85167  1  0  0  0
 86168  1  0  0  0
 88169  1  0  0  0
 88170  1  0  0  0
M  CHG  1  88   1
M  ISO  4   1 100  68 101  85 101  86 100
M  END
> <chiral flag>
0

> <version>
0

> <s_m_source_file>
/data/baiqing/PycharmProjects/Reinvent-master-3.2/result/LINK_invent/BTK/process_docking_weight1_custom_product_contain_oxygen_bond_distance_aromatic_linkinvent_7_9_3/rearranged_h_0016.sdf

> <i_m_source_file_index>
26

> <r_mmod_Potential_Energy-OPLS-2005>
-202.611450195312

> <r_mmod_Stretch_Energy-OPLS-2005>
35.1287422180176

> <r_mmod_Bend_Energy-OPLS-2005>
95.0989837646484

> <r_mmod_Torsional_Energy-OPLS-2005>
357.250823974609

> <r_mmod_Improper_Torsional_Energy-OPLS-2005>
4.21039724349976

> <r_mmod_Van_der_Waal_Energy-OPLS-2005>
145.916168212891

> <r_mmod_Electrostatic_Energy-OPLS-2005>
-377.026794433594

> <r_mmod_Solvation_Energy-OPLS-2005>
-471.197448730469

> <b_mmod_Minimization_Converged-OPLS-2005>
0

> <r_mmod_RMS_Derivative-OPLS-2005>
4.06709861755371

$$$$
26
                    3D
 Structure written by MMmdl.
173182  0  0  1  0            999 V2000
  -30.7279  -14.3804   20.6476 C   0  0  0  0  0  0
  -30.4204  -12.2780   19.3994 C   0  0  0  0  0  0
  -29.4894  -12.5258   18.1961 C   0  0  0  0  0  0
  -28.0104  -12.3885   18.6076 C   0  0  0  0  0  0
  -27.6691  -13.1993   19.8857 C   0  0  2  0  0  0
  -28.7047  -12.9177   20.9965 C   0  0  0  0  0  0
  -25.2613  -13.8147   20.5674 C   0  0  0  0  0  0
  -24.1845  -13.0436   20.9153 C   0  0  0  0  0  0
  -24.6387  -11.6898   20.8718 C   0  0  0  0  0  0
  -23.9049  -10.4292   21.0398 C   0  0  0  0  0  0
  -24.3602   -9.4212   21.9181 C   0  0  0  0  0  0
  -23.6281   -8.2246   22.0756 C   0  0  0  0  0  0
  -22.4267   -8.0278   21.3546 C   0  0  0  0  0  0
  -21.9898   -9.0246   20.4643 C   0  0  0  0  0  0
  -22.7222  -10.2128   20.3047 C   0  0  0  0  0  0
  -21.6850   -6.0727   22.5278 C   0  0  0  0  0  0
  -21.4012   -6.5634   23.8210 C   0  0  0  0  0  0
  -21.3658   -5.6792   24.9174 C   0  0  0  0  0  0
  -21.6046   -4.3052   24.7225 C   0  0  0  0  0  0
  -21.8820   -3.8139   23.4347 C   0  0  0  0  0  0
  -21.9194   -4.6957   22.3401 C   0  0  0  0  0  0
  -22.7871  -13.5244   21.1829 C   0  0  0  0  0  0
  -22.1662   -4.2142   21.0978 F   0  0  0  0  0  0
  -21.5630   -3.4537   25.7737 F   0  0  0  0  0  0
  -30.0490  -13.2187   20.4653 N   0  0  0  0  0  0
  -26.3052  -12.9307   20.3400 N   0  0  0  0  0  0
  -25.9314  -11.6471   20.5756 N   0  0  0  0  0  0
  -22.0503  -12.8230   22.0374 N   0  0  0  0  0  0
  -25.4361  -15.1862   20.4078 N   0  0  0  0  0  0
  -31.7845  -14.6433   20.0631 O   0  0  0  0  0  0
  -21.6634   -6.8869   21.4238 O   0  0  0  0  0  0
  -22.3565  -14.5565   20.6702 O   0  0  0  0  0  0
  -24.6089  -31.8702   23.2124 C   0  0  0  0  0  0
  -25.9000  -32.4830   23.8404 C   0  0  1  0  0  0
  -27.2419  -27.4708   20.0777 C   0  0  0  0  0  0
  -25.5874  -33.8628   24.2348 N   0  0  0  0  0  0
  -23.3937  -30.4938   21.5521 C   0  0  2  0  0  0
  -24.8394  -28.9614   20.1180 C   0  0  0  0  0  0
  -22.7376  -29.4658   22.5002 C   0  0  0  0  0  0
  -18.0261  -28.1356   22.8490 C   0  0  0  0  0  0
  -24.1490  -36.7316   23.2639 C   0  0  0  0  0  0
  -25.9181  -30.8453   21.3590 C   0  0  0  0  0  0
  -25.9955  -29.4793   20.7125 C   0  0  0  0  0  0
  -27.1945  -28.7362   20.6982 C   0  0  0  0  0  0
  -26.0604  -26.9507   19.4981 C   0  0  0  0  0  0
  -24.8632  -27.6914   19.5153 C   0  0  0  0  0  0
  -23.6001  -29.8250   20.1666 C   0  0  0  0  0  0
  -25.4101  -36.3113   24.0349 C   0  0  1  0  0  0
  -20.5845  -28.3636   23.1334 C   0  0  2  0  0  0
  -20.6753  -26.9386   22.5401 C   0  0  0  0  0  0
  -19.5742  -26.6377   21.5196 C   0  0  0  0  0  0
  -18.1919  -26.7908   22.1609 C   0  0  0  0  0  0
  -19.1508  -28.8810   23.2912 C   0  0  0  0  0  0
  -18.9445  -30.1419   23.8917 C   0  0  0  0  0  0
  -17.6453  -30.6570   24.0564 C   0  0  0  0  0  0
  -25.9017  -34.9482   23.5146 C   0  0  0  0  0  0
  -16.5341  -29.9076   23.6316 C   0  0  0  0  0  0
  -16.7252  -28.6492   23.0335 C   0  0  0  0  0  0
  -26.4447  -31.6582   25.0705 C   0  0  0  0  0  0
  -25.3735  -31.3628   26.1464 C   0  0  0  0  0  0
  -27.0273  -30.3051   24.5997 C   0  0  0  0  0  0
  -27.6036  -32.4277   25.7465 C   0  0  0  0  0  0
  -27.5579  -37.1816   24.8469 C   0  0  0  0  0  0
  -21.4108  -29.3028   22.3761 N   0  0  0  0  0  0
  -26.4292  -37.3793   23.9416 N   0  0  0  0  0  0
  -24.6587  -31.0837   22.1005 N   0  0  0  0  0  0
  -23.4181  -28.8191   23.3016 O   0  0  0  0  0  0
  -28.4489  -26.8072   20.0643 O   0  0  0  0  0  0
  -26.5583  -34.8932   22.4708 O   0  0  0  0  0  0
  -23.5295  -32.1430   23.7553 O   0  0  0  0  0  0
  -30.8949  -18.8375   20.7790 C   0  0  0  0  0  0
  -30.8599  -17.4386   20.6332 C   0  0  0  0  0  0
  -29.7793  -18.6399   22.9362 C   0  0  0  0  0  0
  -30.3568  -19.4452   21.9321 C   0  0  0  0  0  0
  -30.2838  -16.6262   21.6405 C   0  0  0  0  0  0
  -29.7342  -17.2399   22.7888 C   0  0  0  0  0  0
  -32.5870  -23.3169   21.0871 C   0  0  0  0  0  0
  -33.2798  -22.0246   24.1707 C   0  0  0  0  0  0
  -32.6827  -23.3315   23.6470 C   0  0  0  0  0  0
  -32.2391  -20.9898   23.7552 C   0  0  0  0  0  0
  -31.8608  -22.9376   22.3970 C   0  0  2  0  0  0
  -32.8719  -24.7106   19.0896 C   0  0  0  0  0  0
  -30.3818  -20.9583   22.0772 C   0  0  0  0  0  0
  -30.0967  -25.3709   19.0484 C   0  0  0  0  0  0
  -30.6883  -24.7591   20.3399 C   0  0  0  0  0  0
  -28.6054  -25.7138   19.1694 C   0  0  0  0  0  0
  -30.1637  -15.2151   21.5302 N   0  0  0  0  0  0
  -32.0680  -24.2352   20.2283 N   0  0  0  0  0  0
  -31.7244  -21.4624   22.4506 N   0  3  2  0  0  0
  -33.6547  -22.7363   20.8596 O   0  0  0  0  0  0
  -28.9879  -16.2855   24.0227 Cl  0  0  0  0  0  0
  -31.4652  -12.3791   19.0996 H   0  0  0  0  0  0
  -30.3145  -11.2528   19.7568 H   0  0  0  0  0  0
  -29.7196  -11.8267   17.3911 H   0  0  0  0  0  0
  -29.6667  -13.5246   17.7935 H   0  0  0  0  0  0
  -27.8100  -11.3299   18.7760 H   0  0  0  0  0  0
  -27.3615  -12.6941   17.7860 H   0  0  0  0  0  0
  -27.7337  -14.2570   19.6285 H   0  0  0  0  0  0
  -28.6645  -11.8668   21.2861 H   0  0  0  0  0  0
  -28.4531  -13.4674   21.9036 H   0  0  0  0  0  0
  -25.2749   -9.5691   22.4755 H   0  0  0  0  0  0
  -23.9989   -7.4640   22.7482 H   0  0  0  0  0  0
  -21.0829   -8.8757   19.8947 H   0  0  0  0  0  0
  -22.3682  -10.9661   19.6148 H   0  0  0  0  0  0
  -21.2000   -7.6144   23.9712 H   0  0  0  0  0  0
  -21.1480   -6.0520   25.9077 H   0  0  0  0  0  0
  -22.0600   -2.7602   23.2850 H   0  0  0  0  0  0
  -22.4093  -11.9866   22.4736 H   0  0  0  0  0  0
  -21.1126  -13.1271   22.2583 H   0  0  0  0  0  0
  -24.6762  -15.8483   20.5191 H   0  0  0  0  0  0
  -26.3003  -15.6222   20.1105 H   0  0  0  0  0  0
  -26.7061  -32.5551   23.1167 H   0  0  0  0  0  0
  -25.0041  -33.9790   25.0507 H   0  0  0  0  0  0
  -22.6800  -31.3094   21.4143 H   0  0  0  0  0  0
  -23.3755  -35.9647   23.3295 H   0  0  0  0  0  0
  -24.3605  -36.8912   22.2055 H   0  0  0  0  0  0
  -23.7241  -37.6527   23.6642 H   0  0  0  0  0  0
  -26.0190  -31.6105   20.5878 H   0  0  0  0  0  0
  -26.8105  -30.9035   21.9699 H   0  0  0  0  0  0
  -28.0907  -29.1392   21.1477 H   0  0  0  0  0  0
  -26.0430  -25.9776   19.0289 H   0  0  0  0  0  0
  -23.9701  -27.2813   19.0641 H   0  0  0  0  0  0
  -23.7037  -30.6001   19.4062 H   0  0  0  0  0  0
  -22.7254  -29.2413   19.8739 H   0  0  0  0  0  0
  -25.1271  -36.1984   25.0845 H   0  0  0  0  0  0
  -20.9928  -28.3183   24.1454 H   0  0  0  0  0  0
  -20.5643  -26.2241   23.3563 H   0  0  0  0  0  0
  -21.6624  -26.7418   22.1203 H   0  0  0  0  0  0
  -19.6906  -25.6298   21.1197 H   0  0  0  0  0  0
  -19.6693  -27.3205   20.6749 H   0  0  0  0  0  0
  -17.4184  -26.6652   21.4013 H   0  0  0  0  0  0
  -18.0329  -26.0025   22.8984 H   0  0  0  0  0  0
  -19.7927  -30.7220   24.2292 H   0  0  0  0  0  0
  -17.5020  -31.6257   24.5153 H   0  0  0  0  0  0
  -15.5348  -30.2998   23.7630 H   0  0  0  0  0  0
  -15.8645  -28.0831   22.7031 H   0  0  0  0  0  0
  -24.5961  -30.6906   25.7806 H   0  0  0  0  0  0
  -24.8864  -32.2748   26.4927 H   0  0  0  0  0  0
  -25.8128  -30.8817   27.0213 H   0  0  0  0  0  0
  -26.2783  -29.6819   24.1092 H   0  0  0  0  0  0
  -27.4139  -29.7263   25.4395 H   0  0  0  0  0  0
  -27.8577  -30.4407   23.9062 H   0  0  0  0  0  0
  -27.2677  -33.3584   26.2051 H   0  0  0  0  0  0
  -28.3859  -32.6797   25.0291 H   0  0  0  0  0  0
  -28.0684  -31.8372   26.5369 H   0  0  0  0  0  0
  -28.2584  -38.0123   24.7517 H   0  0  0  0  0  0
  -28.1082  -36.2653   24.6286 H   0  0  0  0  0  0
  -27.2303  -37.1450   25.8873 H   0  0  0  0  0  0
  -20.9237  -29.8786   21.7032 H   0  0  0  0  0  0
  -26.0183  -38.2873   24.1412 H   0  0  0  0  0  0
  -31.3282  -19.4386   19.9911 H   0  0  0  0  0  0
  -31.2629  -17.0135   19.7257 H   0  0  0  0  0  0
  -29.3524  -19.0905   23.8215 H   0  0  0  0  0  0
  -33.4598  -22.0356   25.2466 H   0  0  0  0  0  0
  -34.2296  -21.8192   23.6734 H   0  0  0  0  0  0
  -33.4506  -24.0807   23.4477 H   0  0  0  0  0  0
  -32.0158  -23.7536   24.3999 H   0  0  0  0  0  0
  -31.4315  -20.9675   24.4900 H   0  0  0  0  0  0
  -32.6555  -19.9832   23.6892 H   0  0  0  0  0  0
  -30.8854  -23.4099   22.4943 H   0  0  0  0  0  0
  -32.5185  -24.2751   18.1546 H   0  0  0  0  0  0
  -33.9336  -24.4732   19.1715 H   0  0  0  0  0  0
  -32.8209  -25.7965   19.0069 H   0  0  0  0  0  0
  -29.6423  -21.2761   22.8142 H   0  0  0  0  0  0
  -30.0737  -21.3979   21.1272 H   0  0  0  0  0  0
  -30.2103  -24.6654   18.2249 H   0  0  0  0  0  0
  -30.6347  -26.2751   18.7613 H   0  0  0  0  0  0
  -30.0170  -23.9459   20.6167 H   0  0  0  0  0  0
  -30.6501  -25.4946   21.1458 H   0  0  0  0  0  0
  -28.0402  -24.8484   19.5197 H   0  0  0  0  0  0
  -28.2301  -25.9809   18.1803 H   0  0  0  0  0  0
  -29.4401  -14.8085   22.1043 H   0  0  0  0  0  0
  -32.3806  -21.1458   21.7479 H   0  0  0  0  0  0
  1 25  1  0  0  0
  1 30  2  0  0  0
  1 87  1  0  0  0
  2  3  1  0  0  0
  2 25  1  0  0  0
  2 92  1  0  0  0
  2 93  1  0  0  0
  3  4  1  0  0  0
  3 94  1  0  0  0
  3 95  1  0  0  0
  4  5  1  0  0  0
  4 96  1  0  0  0
  4 97  1  0  0  0
  5  6  1  0  0  0
  5 26  1  0  0  0
  5 98  1  0  0  0
  6 25  1  0  0  0
  6 99  1  0  0  0
  6100  1  0  0  0
  7  8  2  0  0  0
  7 26  1  0  0  0
  7 29  1  0  0  0
  8  9  1  0  0  0
  8 22  1  0  0  0
  9 10  1  0  0  0
  9 27  2  0  0  0
 10 11  2  0  0  0
 10 15  1  0  0  0
 11 12  1  0  0  0
 11101  1  0  0  0
 12 13  2  0  0  0
 12102  1  0  0  0
 13 14  1  0  0  0
 13 31  1  0  0  0
 14 15  2  0  0  0
 14103  1  0  0  0
 15104  1  0  0  0
 16 17  2  0  0  0
 16 21  1  0  0  0
 16 31  1  0  0  0
 17 18  1  0  0  0
 17105  1  0  0  0
 18 19  2  0  0  0
 18106  1  0  0  0
 19 20  1  0  0  0
 19 24  1  0  0  0
 20 21  2  0  0  0
 20107  1  0  0  0
 21 23  1  0  0  0
 22 28  1  0  0  0
 22 32  2  0  0  0
 26 27  1  0  0  0
 28108  1  0  0  0
 28109  1  0  0  0
 29110  1  0  0  0
 29111  1  0  0  0
 33 34  1  0  0  0
 33 66  1  0  0  0
 33 70  2  0  0  0
 34 36  1  0  0  0
 34 59  1  0  0  0
 34112  1  0  0  0
 35 44  2  0  0  0
 35 45  1  0  0  0
 35 68  1  0  0  0
 36 56  1  0  0  0
 36113  1  0  0  0
 37 39  1  0  0  0
 37 47  1  0  0  0
 37 66  1  0  0  0
 37114  1  0  0  0
 38 43  2  0  0  0
 38 46  1  0  0  0
 38 47  1  0  0  0
 39 64  1  0  0  0
 39 67  2  0  0  0
 40 52  1  0  0  0
 40 53  2  0  0  0
 40 58  1  0  0  0
 41115  1  0  0  0
 41116  1  0  0  0
 41117  1  0  0  0
 41 48  1  0  0  0
 42 43  1  0  0  0
 42 66  1  0  0  0
 42118  1  0  0  0
 42119  1  0  0  0
 43 44  1  0  0  0
 44120  1  0  0  0
 45 46  2  0  0  0
 45121  1  0  0  0
 46122  1  0  0  0
 47123  1  0  0  0
 47124  1  0  0  0
 48 56  1  0  0  0
 48 65  1  0  0  0
 48125  1  0  0  0
 49 50  1  0  0  0
 49 53  1  0  0  0
 49 64  1  0  0  0
 49126  1  0  0  0
 50 51  1  0  0  0
 50127  1  0  0  0
 50128  1  0  0  0
 51 52  1  0  0  0
 51129  1  0  0  0
 51130  1  0  0  0
 52131  1  0  0  0
 52132  1  0  0  0
 53 54  1  0  0  0
 54 55  2  0  0  0
 54133  1  0  0  0
 55 57  1  0  0  0
 55134  1  0  0  0
 56 69  2  0  0  0
 57 58  2  0  0  0
 57135  1  0  0  0
 58136  1  0  0  0
 59 60  1  0  0  0
 59 61  1  0  0  0
 59 62  1  0  0  0
 60137  1  0  0  0
 60138  1  0  0  0
 60139  1  0  0  0
 61140  1  0  0  0
 61141  1  0  0  0
 61142  1  0  0  0
 62143  1  0  0  0
 62144  1  0  0  0
 62145  1  0  0  0
 63 65  1  0  0  0
 63146  1  0  0  0
 63147  1  0  0  0
 63148  1  0  0  0
 64149  1  0  0  0
 65150  1  0  0  0
 68 86  1  0  0  0
 71 72  2  0  0  0
 71 74  1  0  0  0
 71151  1  0  0  0
 72 75  1  0  0  0
 72152  1  0  0  0
 73 74  2  0  0  0
 73 76  1  0  0  0
 73153  1  0  0  0
 74 83  1  0  0  0
 75 76  2  0  0  0
 75 87  1  0  0  0
 76 91  1  0  0  0
 77 88  1  0  0  0
 77 90  2  0  0  0
 77 81  1  0  0  0
 78 79  1  0  0  0
 78 80  1  0  0  0
 78154  1  0  0  0
 78155  1  0  0  0
 79 81  1  0  0  0
 79156  1  0  0  0
 79157  1  0  0  0
 80 89  1  0  0  0
 80158  1  0  0  0
 80159  1  0  0  0
 81 89  1  0  0  0
 81160  1  0  0  0
 82 88  1  0  0  0
 82161  1  0  0  0
 82162  1  0  0  0
 82163  1  0  0  0
 83164  1  0  0  0
 83165  1  0  0  0
 83 89  1  0  0  0
 84 85  1  0  0  0
 84 86  1  0  0  0
 84166  1  0  0  0
 84167  1  0  0  0
 85 88  1  0  0  0
 85168  1  0  0  0
 85169  1  0  0  0
 86170  1  0  0  0
 86171  1  0  0  0
 87172  1  0  0  0
 89173  1  0  0  0
M  CHG  1  89   1
M  ISO  4   1 100  68 101  86 101  87 100
M  END
> <chiral flag>
0

> <version>
0

> <s_m_source_file>
/data/baiqing/PycharmProjects/Reinvent-master-3.2/result/LINK_invent/BTK/process_docking_weight1_custom_product_contain_oxygen_bond_distance_aromatic_linkinvent_7_9_3/rearranged_h_0016.sdf

> <i_m_source_file_index>
27

> <r_mmod_Potential_Energy-OPLS-2005>
-178.649993896484

> <r_mmod_Stretch_Energy-OPLS-2005>
36.7727508544922

> <r_mmod_Bend_Energy-OPLS-2005>
127.495758056641

> <r_mmod_Torsional_Energy-OPLS-2005>
285.4775390625

> <r_mmod_Improper_Torsional_Energy-OPLS-2005>
2.35016345977783

> <r_mmod_Van_der_Waal_Energy-OPLS-2005>
171.613052368164

> <r_mmod_Electrostatic_Energy-OPLS-2005>
-354.755004882812

> <r_mmod_Solvation_Energy-OPLS-2005>
-455.055786132812

> <b_mmod_Minimization_Converged-OPLS-2005>
0

> <r_mmod_RMS_Derivative-OPLS-2005>
1.34971678256989

$$$$
27
                    3D
 Structure written by MMmdl.
163171  0  0  1  0            999 V2000
  -30.5695  -14.8478   20.4711 C   0  0  0  0  0  0
  -30.4456  -12.5209   19.4817 C   0  0  0  0  0  0
  -29.5178  -12.5249   18.2439 C   0  0  0  0  0  0
  -28.0472  -12.3207   18.6570 C   0  0  0  0  0  0
  -27.6402  -13.2283   19.8449 C   0  0  2  0  0  0
  -28.6860  -13.1857   20.9795 C   0  0  0  0  0  0
  -25.2535  -13.8179   20.5717 C   0  0  0  0  0  0
  -24.1810  -13.0433   20.9178 C   0  0  0  0  0  0
  -24.6395  -11.6903   20.8722 C   0  0  0  0  0  0
  -23.9065  -10.4287   21.0392 C   0  0  0  0  0  0
  -24.3614   -9.4205   21.9175 C   0  0  0  0  0  0
  -23.6285   -8.2242   22.0751 C   0  0  0  0  0  0
  -22.4267   -8.0279   21.3543 C   0  0  0  0  0  0
  -21.9903   -9.0252   20.4645 C   0  0  0  0  0  0
  -22.7234  -10.2128   20.3047 C   0  0  0  0  0  0
  -21.6853   -6.0725   22.5276 C   0  0  0  0  0  0
  -21.4014   -6.5633   23.8209 C   0  0  0  0  0  0
  -21.3660   -5.6787   24.9172 C   0  0  0  0  0  0
  -21.6043   -4.3048   24.7225 C   0  0  0  0  0  0
  -21.8820   -3.8139   23.4349 C   0  0  0  0  0  0
  -21.9195   -4.6954   22.3402 C   0  0  0  0  0  0
  -22.7839  -13.5223   21.1860 C   0  0  0  0  0  0
  -22.1667   -4.2136   21.0979 F   0  0  0  0  0  0
  -21.5628   -3.4536   25.7741 F   0  0  0  0  0  0
  -29.9790  -13.5889   20.4068 N   0  0  0  0  0  0
  -26.2945  -12.9370   20.3269 N   0  0  0  0  0  0
  -25.9324  -11.6513   20.5723 N   0  0  0  0  0  0
  -22.0490  -12.8209   22.0415 N   0  0  0  0  0  0
  -25.4285  -15.1905   20.4248 N   0  0  0  0  0  0
  -31.7408  -14.9344   20.0826 O   0  0  0  0  0  0
  -21.6639   -6.8871   21.4237 O   0  0  0  0  0  0
  -22.3512  -14.5530   20.6713 O   0  0  0  0  0  0
  -24.6394  -31.8496   23.1971 C   0  0  0  0  0  0
  -25.9189  -32.4721   23.8332 C   0  0  1  0  0  0
  -27.2083  -27.1832   20.1268 C   0  0  0  0  0  0
  -25.5954  -33.8531   24.2239 N   0  0  0  0  0  0
  -23.4406  -30.4743   21.5423 C   0  0  2  0  0  0
  -24.8879  -28.9223   20.1060 C   0  0  0  0  0  0
  -22.7549  -29.4566   22.4877 C   0  0  0  0  0  0
  -18.0298  -28.1393   22.8473 C   0  0  0  0  0  0
  -24.1483  -36.7265   23.2640 C   0  0  0  0  0  0
  -25.9962  -30.7352   21.3951 C   0  0  0  0  0  0
  -26.0648  -29.3539   20.7315 C   0  0  0  0  0  0
  -27.2246  -28.4968   20.7367 C   0  0  0  0  0  0
  -26.0130  -26.8684   19.4343 C   0  0  0  0  0  0
  -24.8727  -27.6909   19.4440 C   0  0  0  0  0  0
  -23.6634  -29.8175   20.1570 C   0  0  0  0  0  0
  -25.4111  -36.3047   24.0320 C   0  0  1  0  0  0
  -20.5908  -28.3710   23.1241 C   0  0  2  0  0  0
  -20.6778  -26.9412   22.5402 C   0  0  0  0  0  0
  -19.5756  -26.6379   21.5203 C   0  0  0  0  0  0
  -18.1939  -26.7931   22.1614 C   0  0  0  0  0  0
  -19.1557  -28.8864   23.2849 C   0  0  0  0  0  0
  -18.9475  -30.1463   23.8866 C   0  0  0  0  0  0
  -17.6474  -30.6587   24.0556 C   0  0  0  0  0  0
  -25.9060  -34.9422   23.5079 C   0  0  0  0  0  0
  -16.5360  -29.9083   23.6339 C   0  0  0  0  0  0
  -16.7284  -28.6510   23.0350 C   0  0  0  0  0  0
  -26.4527  -31.6574   25.0753 C   0  0  0  0  0  0
  -25.3722  -31.3746   26.1450 C   0  0  0  0  0  0
  -27.0393  -30.2975   24.6317 C   0  0  0  0  0  0
  -27.6066  -32.4339   25.7526 C   0  0  0  0  0  0
  -27.5578  -37.1781   24.8464 C   0  0  0  0  0  0
  -21.4243  -29.3047   22.3622 N   0  0  0  0  0  0
  -26.4283  -37.3754   23.9411 N   0  0  0  0  0  0
  -24.7117  -31.0391   22.1000 N   0  0  0  0  0  0
  -23.4214  -28.8088   23.2990 O   0  0  0  0  0  0
  -28.2401  -26.1852   20.2251 O   0  0  0  0  0  0
  -26.5638  -34.8906   22.4652 O   0  0  0  0  0  0
  -23.5524  -32.1359   23.7209 O   0  0  0  0  0  0
  -29.5588  -22.6233   19.4449 C   0  0  0  0  0  0
  -29.9335  -21.2354   19.6541 C   0  0  0  0  0  0
  -28.0258  -22.4808   21.2410 C   0  0  0  0  0  0
  -28.5904  -23.3270   20.2364 C   0  0  0  0  0  0
  -29.3603  -20.3946   20.6630 C   0  0  0  0  0  0
  -28.3691  -21.0924   21.4418 C   0  0  0  0  0  0
  -26.3452  -18.6334   23.2710 C   0  0  0  0  0  0
  -29.9640  -16.2575   22.4924 C   0  0  0  0  0  0
  -30.6785  -19.2686   22.2592 C   0  0  0  0  0  0
  -27.8964  -24.7428   19.8233 C   0  0  0  0  0  0
  -30.1246  -17.7430   20.3004 C   0  0  0  0  0  0
  -26.8376  -19.3968   22.0397 C   0  0  0  0  0  0
  -29.8113  -16.2322   20.9608 C   0  0  1  0  0  0
  -29.8505  -19.0623   21.0695 N   0  0  0  0  0  0
  -27.7107  -20.4427   22.4604 O   0  0  0  0  0  0
  -28.5026  -16.0838   20.7452 F   0  0  0  0  0  0
  -31.4803  -12.6672   19.1687 H   0  0  0  0  0  0
  -30.4229  -11.5488   19.9763 H   0  0  0  0  0  0
  -29.8194  -11.7471   17.5410 H   0  0  0  0  0  0
  -29.6211  -13.4734   17.7143 H   0  0  0  0  0  0
  -27.9244  -11.2738   18.9359 H   0  0  0  0  0  0
  -27.3860  -12.4891   17.8064 H   0  0  0  0  0  0
  -27.6211  -14.2392   19.4404 H   0  0  0  0  0  0
  -28.7493  -12.1857   21.4106 H   0  0  0  0  0  0
  -28.3885  -13.8423   21.7958 H   0  0  0  0  0  0
  -25.2757   -9.5682   22.4753 H   0  0  0  0  0  0
  -23.9990   -7.4636   22.7476 H   0  0  0  0  0  0
  -21.0829   -8.8770   19.8959 H   0  0  0  0  0  0
  -22.3686  -10.9665   19.6159 H   0  0  0  0  0  0
  -21.2006   -7.6142   23.9707 H   0  0  0  0  0  0
  -21.1483   -6.0519   25.9072 H   0  0  0  0  0  0
  -22.0599   -2.7602   23.2854 H   0  0  0  0  0  0
  -22.4105  -11.9868   22.4805 H   0  0  0  0  0  0
  -21.1112  -13.1236   22.2631 H   0  0  0  0  0  0
  -24.6807  -15.8556   20.5826 H   0  0  0  0  0  0
  -26.3226  -15.6294   20.2374 H   0  0  0  0  0  0
  -26.7259  -32.5327   23.1066 H   0  0  0  0  0  0
  -25.0082  -33.9657   25.0378 H   0  0  0  0  0  0
  -22.7398  -31.2992   21.3969 H   0  0  0  0  0  0
  -23.3753  -35.9590   23.3295 H   0  0  0  0  0  0
  -24.3565  -36.8912   22.2059 H   0  0  0  0  0  0
  -23.7249  -37.6464   23.6679 H   0  0  0  0  0  0
  -26.1499  -31.4936   20.6262 H   0  0  0  0  0  0
  -26.8687  -30.7801   22.0351 H   0  0  0  0  0  0
  -28.1131  -28.8153   21.2630 H   0  0  0  0  0  0
  -25.9037  -25.9475   18.8839 H   0  0  0  0  0  0
  -23.9791  -27.3661   18.9286 H   0  0  0  0  0  0
  -23.7968  -30.5985   19.4078 H   0  0  0  0  0  0
  -22.7781  -29.2609   19.8453 H   0  0  0  0  0  0
  -25.1297  -36.1884   25.0813 H   0  0  0  0  0  0
  -20.9995  -28.3295   24.1364 H   0  0  0  0  0  0
  -20.5675  -26.2311   23.3615 H   0  0  0  0  0  0
  -21.6643  -26.7422   22.1192 H   0  0  0  0  0  0
  -19.6910  -25.6287   21.1242 H   0  0  0  0  0  0
  -19.6696  -27.3172   20.6721 H   0  0  0  0  0  0
  -17.4204  -26.6666   21.4024 H   0  0  0  0  0  0
  -18.0344  -26.0083   22.9025 H   0  0  0  0  0  0
  -19.7952  -30.7290   24.2223 H   0  0  0  0  0  0
  -17.5029  -31.6263   24.5163 H   0  0  0  0  0  0
  -15.5359  -30.2974   23.7689 H   0  0  0  0  0  0
  -15.8684  -28.0822   22.7076 H   0  0  0  0  0  0
  -24.5909  -30.7080   25.7779 H   0  0  0  0  0  0
  -24.8889  -32.2914   26.4835 H   0  0  0  0  0  0
  -25.8020  -30.8957   27.0256 H   0  0  0  0  0  0
  -26.3011  -29.6689   24.1319 H   0  0  0  0  0  0
  -27.4016  -29.7281   25.4889 H   0  0  0  0  0  0
  -27.8916  -30.4230   23.9635 H   0  0  0  0  0  0
  -27.2683  -33.3677   26.2030 H   0  0  0  0  0  0
  -28.3912  -32.6840   25.0373 H   0  0  0  0  0  0
  -28.0690  -31.8511   26.5500 H   0  0  0  0  0  0
  -28.2577  -38.0097   24.7528 H   0  0  0  0  0  0
  -28.1098  -36.2623   24.6274 H   0  0  0  0  0  0
  -27.2284  -37.1420   25.8866 H   0  0  0  0  0  0
  -20.9442  -29.8799   21.6837 H   0  0  0  0  0  0
  -26.0152  -38.2816   24.1438 H   0  0  0  0  0  0
  -30.0151  -23.1488   18.6172 H   0  0  0  0  0  0
  -30.7056  -20.8198   19.0229 H   0  0  0  0  0  0
  -27.2390  -22.8905   21.8579 H   0  0  0  0  0  0
  -25.7027  -17.8022   22.9786 H   0  0  0  0  0  0
  -25.7720  -19.2806   23.9340 H   0  0  0  0  0  0
  -27.1808  -18.2224   23.8377 H   0  0  0  0  0  0
  -29.2898  -16.9828   22.9450 H   0  0  0  0  0  0
  -30.9863  -16.4988   22.7810 H   0  0  0  0  0  0
  -29.7272  -15.2958   22.9457 H   0  0  0  0  0  0
  -31.0560  -20.2907   22.3389 H   0  0  0  0  0  0
  -31.5538  -18.6191   22.2550 H   0  0  0  0  0  0
  -30.1057  -19.0671   23.1654 H   0  0  0  0  0  0
  -26.8727  -24.5665   20.1522 H   0  0  0  0  0  0
  -27.8596  -24.7353   18.7332 H   0  0  0  0  0  0
  -29.5942  -17.8065   19.3497 H   0  0  0  0  0  0
  -31.1794  -17.7583   20.0230 H   0  0  0  0  0  0
  -25.9909  -19.8231   21.5002 H   0  0  0  0  0  0
  -27.3196  -18.6949   21.3604 H   0  0  0  0  0  0
  1 25  1  0  0  0
  1 30  2  0  0  0
  1 83  1  0  0  0
  2  3  1  0  0  0
  2 25  1  0  0  0
  2 87  1  0  0  0
  2 88  1  0  0  0
  3  4  1  0  0  0
  3 89  1  0  0  0
  3 90  1  0  0  0
  4  5  1  0  0  0
  4 91  1  0  0  0
  4 92  1  0  0  0
  5  6  1  0  0  0
  5 26  1  0  0  0
  5 93  1  0  0  0
  6 25  1  0  0  0
  6 94  1  0  0  0
  6 95  1  0  0  0
  7  8  2  0  0  0
  7 26  1  0  0  0
  7 29  1  0  0  0
  8  9  1  0  0  0
  8 22  1  0  0  0
  9 10  1  0  0  0
  9 27  2  0  0  0
 10 11  2  0  0  0
 10 15  1  0  0  0
 11 12  1  0  0  0
 11 96  1  0  0  0
 12 13  2  0  0  0
 12 97  1  0  0  0
 13 14  1  0  0  0
 13 31  1  0  0  0
 14 15  2  0  0  0
 14 98  1  0  0  0
 15 99  1  0  0  0
 16 17  2  0  0  0
 16 21  1  0  0  0
 16 31  1  0  0  0
 17 18  1  0  0  0
 17100  1  0  0  0
 18 19  2  0  0  0
 18101  1  0  0  0
 19 20  1  0  0  0
 19 24  1  0  0  0
 20 21  2  0  0  0
 20102  1  0  0  0
 21 23  1  0  0  0
 22 28  1  0  0  0
 22 32  2  0  0  0
 26 27  1  0  0  0
 28103  1  0  0  0
 28104  1  0  0  0
 29105  1  0  0  0
 29106  1  0  0  0
 33 34  1  0  0  0
 33 66  1  0  0  0
 33 70  2  0  0  0
 34 36  1  0  0  0
 34 59  1  0  0  0
 34107  1  0  0  0
 35 44  2  0  0  0
 35 45  1  0  0  0
 35 68  1  0  0  0
 36 56  1  0  0  0
 36108  1  0  0  0
 37 39  1  0  0  0
 37 47  1  0  0  0
 37 66  1  0  0  0
 37109  1  0  0  0
 38 43  2  0  0  0
 38 46  1  0  0  0
 38 47  1  0  0  0
 39 64  1  0  0  0
 39 67  2  0  0  0
 40 52  1  0  0  0
 40 53  2  0  0  0
 40 58  1  0  0  0
 41110  1  0  0  0
 41111  1  0  0  0
 41112  1  0  0  0
 41 48  1  0  0  0
 42 43  1  0  0  0
 42 66  1  0  0  0
 42113  1  0  0  0
 42114  1  0  0  0
 43 44  1  0  0  0
 44115  1  0  0  0
 45 46  2  0  0  0
 45116  1  0  0  0
 46117  1  0  0  0
 47118  1  0  0  0
 47119  1  0  0  0
 48 56  1  0  0  0
 48 65  1  0  0  0
 48120  1  0  0  0
 49 50  1  0  0  0
 49 53  1  0  0  0
 49 64  1  0  0  0
 49121  1  0  0  0
 50 51  1  0  0  0
 50122  1  0  0  0
 50123  1  0  0  0
 51 52  1  0  0  0
 51124  1  0  0  0
 51125  1  0  0  0
 52126  1  0  0  0
 52127  1  0  0  0
 53 54  1  0  0  0
 54 55  2  0  0  0
 54128  1  0  0  0
 55 57  1  0  0  0
 55129  1  0  0  0
 56 69  2  0  0  0
 57 58  2  0  0  0
 57130  1  0  0  0
 58131  1  0  0  0
 59 60  1  0  0  0
 59 61  1  0  0  0
 59 62  1  0  0  0
 60132  1  0  0  0
 60133  1  0  0  0
 60134  1  0  0  0
 61135  1  0  0  0
 61136  1  0  0  0
 61137  1  0  0  0
 62138  1  0  0  0
 62139  1  0  0  0
 62140  1  0  0  0
 63 65  1  0  0  0
 63141  1  0  0  0
 63142  1  0  0  0
 63143  1  0  0  0
 64144  1  0  0  0
 65145  1  0  0  0
 68 80  1  0  0  0
 71 72  2  0  0  0
 71 74  1  0  0  0
 71146  1  0  0  0
 72 75  1  0  0  0
 72147  1  0  0  0
 73 74  2  0  0  0
 73 76  1  0  0  0
 73148  1  0  0  0
 74 80  1  0  0  0
 75 76  2  0  0  0
 75 84  1  0  0  0
 76 85  1  0  0  0
 77 82  1  0  0  0
 77149  1  0  0  0
 77150  1  0  0  0
 77151  1  0  0  0
 78152  1  0  0  0
 78153  1  0  0  0
 78154  1  0  0  0
 78 83  1  0  0  0
 79 84  1  0  0  0
 79155  1  0  0  0
 79156  1  0  0  0
 79157  1  0  0  0
 80158  1  0  0  0
 80159  1  0  0  0
 81 83  1  0  0  0
 81 84  1  0  0  0
 81160  1  0  0  0
 81161  1  0  0  0
 82 85  1  0  0  0
 82162  1  0  0  0
 82163  1  0  0  0
 83 86  1  0  0  0
M  ISO  4   1 100  68 101  80 101  83 100
M  END
> <chiral flag>
0

> <version>
0

> <s_m_source_file>
/data/baiqing/PycharmProjects/Reinvent-master-3.2/result/LINK_invent/BTK/process_docking_weight1_custom_product_contain_oxygen_bond_distance_aromatic_linkinvent_7_9_3/rearranged_h_0016.sdf

> <i_m_source_file_index>
28

> <r_mmod_Potential_Energy-OPLS-2005>
551.556579589844

> <r_mmod_Stretch_Energy-OPLS-2005>
196.03547668457

> <r_mmod_Bend_Energy-OPLS-2005>
247.526489257812

> <r_mmod_Torsional_Energy-OPLS-2005>
261.753845214844

> <r_mmod_Improper_Torsional_Energy-OPLS-2005>
8.28087711334229

> <r_mmod_Van_der_Waal_Energy-OPLS-2005>
145.858413696289

> <r_mmod_Electrostatic_Energy-OPLS-2005>
-258.618957519531

> <r_mmod_Solvation_Energy-OPLS-2005>
-190.730743408203

> <b_mmod_Minimization_Converged-OPLS-2005>
0

> <r_mmod_RMS_Derivative-OPLS-2005>
1.38012182712555

$$$$
28
                    3D
 Structure written by MMmdl.
155163  0  0  1  0            999 V2000
  -30.6735  -14.6392   20.5893 C   0  0  0  0  0  0
  -30.4332  -12.4265   19.4477 C   0  0  0  0  0  0
  -29.5064  -12.5531   18.2216 C   0  0  0  0  0  0
  -28.0294  -12.3833   18.6266 C   0  0  0  0  0  0
  -27.6554  -13.2327   19.8699 C   0  0  2  0  0  0
  -28.6985  -13.0827   20.9978 C   0  0  0  0  0  0
  -25.2527  -13.8193   20.5638 C   0  0  0  0  0  0
  -24.1819  -13.0441   20.9152 C   0  0  0  0  0  0
  -24.6419  -11.6915   20.8731 C   0  0  0  0  0  0
  -23.9088  -10.4278   21.0383 C   0  0  0  0  0  0
  -24.3619   -9.4197   21.9175 C   0  0  0  0  0  0
  -23.6278   -8.2246   22.0759 C   0  0  0  0  0  0
  -22.4262   -8.0276   21.3557 C   0  0  0  0  0  0
  -21.9907   -9.0260   20.4668 C   0  0  0  0  0  0
  -22.7250  -10.2120   20.3056 C   0  0  0  0  0  0
  -21.6862   -6.0722   22.5287 C   0  0  0  0  0  0
  -21.4021   -6.5624   23.8218 C   0  0  0  0  0  0
  -21.3670   -5.6778   24.9186 C   0  0  0  0  0  0
  -21.6038   -4.3041   24.7232 C   0  0  0  0  0  0
  -21.8814   -3.8129   23.4358 C   0  0  0  0  0  0
  -21.9185   -4.6950   22.3411 C   0  0  0  0  0  0
  -22.7834  -13.5240   21.1817 C   0  0  0  0  0  0
  -22.1651   -4.2126   21.0987 F   0  0  0  0  0  0
  -21.5633   -3.4522   25.7750 F   0  0  0  0  0  0
  -30.0164  -13.4371   20.4469 N   0  0  0  0  0  0
  -26.3011  -12.9417   20.3356 N   0  0  0  0  0  0
  -25.9367  -11.6557   20.5783 N   0  0  0  0  0  0
  -22.0438  -12.8265   22.0376 N   0  0  0  0  0  0
  -25.4121  -15.1914   20.4012 N   0  0  0  0  0  0
  -31.7654  -14.8233   20.0416 O   0  0  0  0  0  0
  -21.6645   -6.8858   21.4240 O   0  0  0  0  0  0
  -22.3533  -14.5532   20.6632 O   0  0  0  0  0  0
  -24.6228  -31.8637   23.2023 C   0  0  0  0  0  0
  -25.9093  -32.4795   23.8348 C   0  0  1  0  0  0
  -27.2183  -27.3144   20.1089 C   0  0  0  0  0  0
  -25.5904  -33.8597   24.2269 N   0  0  0  0  0  0
  -23.4127  -30.4887   21.5500 C   0  0  2  0  0  0
  -24.8558  -28.9461   20.1076 C   0  0  0  0  0  0
  -22.7421  -29.4672   22.4981 C   0  0  0  0  0  0
  -18.0281  -28.1373   22.8511 C   0  0  0  0  0  0
  -24.1486  -36.7275   23.2642 C   0  0  0  0  0  0
  -25.9560  -30.7887   21.3767 C   0  0  0  0  0  0
  -26.0267  -29.4204   20.7103 C   0  0  0  0  0  0
  -27.2069  -28.6171   20.7008 C   0  0  0  0  0  0
  -26.0206  -26.9018   19.4752 C   0  0  0  0  0  0
  -24.8552  -27.6911   19.4833 C   0  0  0  0  0  0
  -23.6203  -29.8226   20.1653 C   0  0  0  0  0  0
  -25.4123  -36.3091   24.0331 C   0  0  1  0  0  0
  -20.5867  -28.3680   23.1302 C   0  0  2  0  0  0
  -20.6772  -26.9415   22.5419 C   0  0  0  0  0  0
  -19.5753  -26.6376   21.5224 C   0  0  0  0  0  0
  -18.1929  -26.7923   22.1634 C   0  0  0  0  0  0
  -19.1523  -28.8844   23.2906 C   0  0  0  0  0  0
  -18.9465  -30.1449   23.8920 C   0  0  0  0  0  0
  -17.6461  -30.6596   24.0559 C   0  0  0  0  0  0
  -25.9068  -34.9471   23.5098 C   0  0  0  0  0  0
  -16.5356  -29.9098   23.6316 C   0  0  0  0  0  0
  -16.7261  -28.6499   23.0372 C   0  0  0  0  0  0
  -26.4436  -31.6602   25.0731 C   0  0  0  0  0  0
  -25.3628  -31.3796   26.1420 C   0  0  0  0  0  0
  -27.0276  -30.3014   24.6220 C   0  0  0  0  0  0
  -27.5996  -32.4338   25.7501 C   0  0  0  0  0  0
  -27.5590  -37.1797   24.8471 C   0  0  0  0  0  0
  -21.4148  -29.3040   22.3703 N   0  0  0  0  0  0
  -26.4306  -37.3778   23.9404 N   0  0  0  0  0  0
  -24.6831  -31.0634   22.0995 N   0  0  0  0  0  0
  -23.4152  -28.8231   23.3065 O   0  0  0  0  0  0
  -28.3524  -26.4797   20.1855 O   0  0  0  0  0  0
  -26.5668  -34.8919   22.4684 O   0  0  0  0  0  0
  -23.5389  -32.1477   23.7340 O   0  0  0  0  0  0
  -30.4093  -19.2887   20.1844 C   0  0  0  0  0  0
  -30.6091  -17.8666   20.2506 C   0  0  0  0  0  0
  -28.5473  -19.0841   21.6779 C   0  0  0  0  0  0
  -29.4014  -19.9443   20.9442 C   0  0  0  0  0  0
  -29.8082  -17.0188   21.0718 C   0  0  0  0  0  0
  -28.7265  -17.6722   21.7300 C   0  0  0  0  0  0
  -30.3391  -15.3702   22.8343 C   0  0  0  0  0  0
  -29.0400  -23.9358   20.6597 C   0  0  0  0  0  0
  -29.1200  -22.4339   20.0923 C   0  0  0  0  0  0
  -28.2958  -25.0459   19.7901 C   0  0  0  0  0  0
  -29.2822  -21.3695   21.1291 N   0  0  0  0  0  0
  -30.1175  -15.6087   21.3983 N   0  0  0  0  0  0
  -27.8481  -16.9502   22.4679 F   0  0  0  0  0  0
  -31.4739  -12.5492   19.1434 H   0  0  0  0  0  0
  -30.3716  -11.4237   19.8744 H   0  0  0  0  0  0
  -29.7762  -11.8198   17.4605 H   0  0  0  0  0  0
  -29.6467  -13.5349   17.7645 H   0  0  0  0  0  0
  -27.8545  -11.3266   18.8328 H   0  0  0  0  0  0
  -27.3828  -12.6472   17.7870 H   0  0  0  0  0  0
  -27.6735  -14.2754   19.5509 H   0  0  0  0  0  0
  -28.7198  -12.0585   21.3768 H   0  0  0  0  0  0
  -28.4217  -13.7103   21.8446 H   0  0  0  0  0  0
  -25.2766   -9.5674   22.4748 H   0  0  0  0  0  0
  -23.9994   -7.4632   22.7485 H   0  0  0  0  0  0
  -21.0841   -8.8778   19.8972 H   0  0  0  0  0  0
  -22.3719  -10.9649   19.6152 H   0  0  0  0  0  0
  -21.2012   -7.6124   23.9730 H   0  0  0  0  0  0
  -21.1507   -6.0496   25.9082 H   0  0  0  0  0  0
  -22.0581   -2.7590   23.2869 H   0  0  0  0  0  0
  -22.4037  -11.9999   22.4904 H   0  0  0  0  0  0
  -21.1039  -13.1311   22.2493 H   0  0  0  0  0  0
  -24.6244  -15.8243   20.4853 H   0  0  0  0  0  0
  -26.2818  -15.6618   20.1850 H   0  0  0  0  0  0
  -26.7157  -32.5434   23.1086 H   0  0  0  0  0  0
  -24.9939  -33.9746   25.0333 H   0  0  0  0  0  0
  -22.7069  -31.3117   21.4147 H   0  0  0  0  0  0
  -23.3769  -35.9587   23.3314 H   0  0  0  0  0  0
  -24.3568  -36.8875   22.2051 H   0  0  0  0  0  0
  -23.7208  -37.6469   23.6650 H   0  0  0  0  0  0
  -26.0975  -31.5609   20.6194 H   0  0  0  0  0  0
  -26.8314  -30.8236   22.0134 H   0  0  0  0  0  0
  -28.1029  -28.9851   21.1795 H   0  0  0  0  0  0
  -25.9361  -25.9569   18.9641 H   0  0  0  0  0  0
  -23.9543  -27.3237   19.0104 H   0  0  0  0  0  0
  -23.7181  -30.5993   19.4056 H   0  0  0  0  0  0
  -22.7382  -29.2438   19.8809 H   0  0  0  0  0  0
  -25.1305  -36.1948   25.0829 H   0  0  0  0  0  0
  -20.9973  -28.3259   24.1418 H   0  0  0  0  0  0
  -20.5670  -26.2305   23.3626 H   0  0  0  0  0  0
  -21.6647  -26.7460   22.1223 H   0  0  0  0  0  0
  -19.6909  -25.6279   21.1286 H   0  0  0  0  0  0
  -19.6686  -27.3161   20.6741 H   0  0  0  0  0  0
  -17.4202  -26.6674   21.4032 H   0  0  0  0  0  0
  -18.0337  -26.0060   22.9029 H   0  0  0  0  0  0
  -19.7942  -30.7261   24.2292 H   0  0  0  0  0  0
  -17.5026  -31.6283   24.5158 H   0  0  0  0  0  0
  -15.5355  -30.3016   23.7623 H   0  0  0  0  0  0
  -15.8666  -28.0816   22.7089 H   0  0  0  0  0  0
  -24.5770  -30.7212   25.7695 H   0  0  0  0  0  0
  -24.8864  -32.3004   26.4808 H   0  0  0  0  0  0
  -25.7862  -30.8943   27.0215 H   0  0  0  0  0  0
  -26.2868  -29.6795   24.1176 H   0  0  0  0  0  0
  -27.3866  -29.7246   25.4758 H   0  0  0  0  0  0
  -27.8785  -30.4280   23.9516 H   0  0  0  0  0  0
  -27.2595  -33.3621   26.2116 H   0  0  0  0  0  0
  -28.3780  -32.6945   25.0313 H   0  0  0  0  0  0
  -28.0697  -31.8450   26.5393 H   0  0  0  0  0  0
  -28.2619  -38.0088   24.7520 H   0  0  0  0  0  0
  -28.1079  -36.2618   24.6299 H   0  0  0  0  0  0
  -27.2313  -37.1442   25.8879 H   0  0  0  0  0  0
  -20.9310  -29.8743   21.6915 H   0  0  0  0  0  0
  -26.0194  -38.2857   24.1396 H   0  0  0  0  0  0
  -31.1022  -19.8820   19.6061 H   0  0  0  0  0  0
  -31.4477  -17.4442   19.7176 H   0  0  0  0  0  0
  -27.7419  -19.5077   22.2594 H   0  0  0  0  0  0
  -29.4195  -15.4602   23.4098 H   0  0  0  0  0  0
  -31.0514  -16.1033   23.2206 H   0  0  0  0  0  0
  -30.7534  -14.3853   23.0594 H   0  0  0  0  0  0
  -30.0534  -24.2767   20.8764 H   0  0  0  0  0  0
  -28.5363  -23.9159   21.6265 H   0  0  0  0  0  0
  -29.9374  -22.3627   19.3709 H   0  0  0  0  0  0
  -28.2072  -22.2186   19.5343 H   0  0  0  0  0  0
  -27.2725  -24.6856   19.7697 H   0  0  0  0  0  0
  -28.6658  -24.9845   18.7659 H   0  0  0  0  0  0
  -28.8108  -21.6195   21.9955 H   0  0  0  0  0  0
  1 25  1  0  0  0
  1 30  2  0  0  0
  1 82  1  0  0  0
  2  3  1  0  0  0
  2 25  1  0  0  0
  2 84  1  0  0  0
  2 85  1  0  0  0
  3  4  1  0  0  0
  3 86  1  0  0  0
  3 87  1  0  0  0
  4  5  1  0  0  0
  4 88  1  0  0  0
  4 89  1  0  0  0
  5  6  1  0  0  0
  5 26  1  0  0  0
  5 90  1  0  0  0
  6 25  1  0  0  0
  6 91  1  0  0  0
  6 92  1  0  0  0
  7  8  2  0  0  0
  7 26  1  0  0  0
  7 29  1  0  0  0
  8  9  1  0  0  0
  8 22  1  0  0  0
  9 10  1  0  0  0
  9 27  2  0  0  0
 10 11  2  0  0  0
 10 15  1  0  0  0
 11 12  1  0  0  0
 11 93  1  0  0  0
 12 13  2  0  0  0
 12 94  1  0  0  0
 13 14  1  0  0  0
 13 31  1  0  0  0
 14 15  2  0  0  0
 14 95  1  0  0  0
 15 96  1  0  0  0
 16 17  2  0  0  0
 16 21  1  0  0  0
 16 31  1  0  0  0
 17 18  1  0  0  0
 17 97  1  0  0  0
 18 19  2  0  0  0
 18 98  1  0  0  0
 19 20  1  0  0  0
 19 24  1  0  0  0
 20 21  2  0  0  0
 20 99  1  0  0  0
 21 23  1  0  0  0
 22 28  1  0  0  0
 22 32  2  0  0  0
 26 27  1  0  0  0
 28100  1  0  0  0
 28101  1  0  0  0
 29102  1  0  0  0
 29103  1  0  0  0
 33 34  1  0  0  0
 33 66  1  0  0  0
 33 70  2  0  0  0
 34 36  1  0  0  0
 34 59  1  0  0  0
 34104  1  0  0  0
 35 44  2  0  0  0
 35 45  1  0  0  0
 35 68  1  0  0  0
 36 56  1  0  0  0
 36105  1  0  0  0
 37 39  1  0  0  0
 37 47  1  0  0  0
 37 66  1  0  0  0
 37106  1  0  0  0
 38 43  2  0  0  0
 38 46  1  0  0  0
 38 47  1  0  0  0
 39 64  1  0  0  0
 39 67  2  0  0  0
 40 52  1  0  0  0
 40 53  2  0  0  0
 40 58  1  0  0  0
 41107  1  0  0  0
 41108  1  0  0  0
 41109  1  0  0  0
 41 48  1  0  0  0
 42 43  1  0  0  0
 42 66  1  0  0  0
 42110  1  0  0  0
 42111  1  0  0  0
 43 44  1  0  0  0
 44112  1  0  0  0
 45 46  2  0  0  0
 45113  1  0  0  0
 46114  1  0  0  0
 47115  1  0  0  0
 47116  1  0  0  0
 48 56  1  0  0  0
 48 65  1  0  0  0
 48117  1  0  0  0
 49 50  1  0  0  0
 49 53  1  0  0  0
 49 64  1  0  0  0
 49118  1  0  0  0
 50 51  1  0  0  0
 50119  1  0  0  0
 50120  1  0  0  0
 51 52  1  0  0  0
 51121  1  0  0  0
 51122  1  0  0  0
 52123  1  0  0  0
 52124  1  0  0  0
 53 54  1  0  0  0
 54 55  2  0  0  0
 54125  1  0  0  0
 55 57  1  0  0  0
 55126  1  0  0  0
 56 69  2  0  0  0
 57 58  2  0  0  0
 57127  1  0  0  0
 58128  1  0  0  0
 59 60  1  0  0  0
 59 61  1  0  0  0
 59 62  1  0  0  0
 60129  1  0  0  0
 60130  1  0  0  0
 60131  1  0  0  0
 61132  1  0  0  0
 61133  1  0  0  0
 61134  1  0  0  0
 62135  1  0  0  0
 62136  1  0  0  0
 62137  1  0  0  0
 63 65  1  0  0  0
 63138  1  0  0  0
 63139  1  0  0  0
 63140  1  0  0  0
 64141  1  0  0  0
 65142  1  0  0  0
 68 80  1  0  0  0
 71 72  2  0  0  0
 71 74  1  0  0  0
 71143  1  0  0  0
 72 75  1  0  0  0
 72144  1  0  0  0
 73 74  2  0  0  0
 73 76  1  0  0  0
 73145  1  0  0  0
 74 81  1  0  0  0
 75 76  2  0  0  0
 75 82  1  0  0  0
 76 83  1  0  0  0
 77 82  1  0  0  0
 77146  1  0  0  0
 77147  1  0  0  0
 77148  1  0  0  0
 78 79  1  0  0  0
 78 80  1  0  0  0
 78149  1  0  0  0
 78150  1  0  0  0
 79 81  1  0  0  0
 79151  1  0  0  0
 79152  1  0  0  0
 80153  1  0  0  0
 80154  1  0  0  0
 81155  1  0  0  0
M  ISO  4   1 100  68 101  80 101  82 100
M  END
> <chiral flag>
0

> <version>
0

> <s_m_source_file>
/data/baiqing/PycharmProjects/Reinvent-master-3.2/result/LINK_invent/BTK/process_docking_weight1_custom_product_contain_oxygen_bond_distance_aromatic_linkinvent_7_9_3/rearranged_h_0016.sdf

> <i_m_source_file_index>
29

> <r_mmod_Potential_Energy-OPLS-2005>
265.430145263672

> <r_mmod_Stretch_Energy-OPLS-2005>
90.0171661376953

> <r_mmod_Bend_Energy-OPLS-2005>
164.235290527344

> <r_mmod_Torsional_Energy-OPLS-2005>
310.385864257812

> <r_mmod_Improper_Torsional_Energy-OPLS-2005>
7.0911922454834

> <r_mmod_Van_der_Waal_Energy-OPLS-2005>
147.394409179688

> <r_mmod_Electrostatic_Energy-OPLS-2005>
-305.629791259766

> <r_mmod_Solvation_Energy-OPLS-2005>
-195.973190307617

> <b_mmod_Minimization_Converged-OPLS-2005>
0

> <r_mmod_RMS_Derivative-OPLS-2005>
3.26814246177673

$$$$
29
                    3D
 Structure written by MMmdl.
164172  0  0  1  0            999 V2000
  -30.7080  -14.4669   20.4782 C   0  0  0  0  0  0
  -30.4240  -12.2587   19.4639 C   0  0  0  0  0  0
  -29.5139  -12.4390   18.2283 C   0  0  0  0  0  0
  -28.0240  -12.3397   18.6210 C   0  0  0  0  0  0
  -27.6592  -13.2053   19.8558 C   0  0  2  0  0  0
  -28.6984  -13.0362   20.9871 C   0  0  0  0  0  0
  -25.2626  -13.8165   20.5637 C   0  0  0  0  0  0
  -24.1855  -13.0459   20.9141 C   0  0  0  0  0  0
  -24.6397  -11.6928   20.8719 C   0  0  0  0  0  0
  -23.9057  -10.4312   21.0419 C   0  0  0  0  0  0
  -24.3624   -9.4227   21.9195 C   0  0  0  0  0  0
  -23.6298   -8.2257   22.0757 C   0  0  0  0  0  0
  -22.4278   -8.0296   21.3545 C   0  0  0  0  0  0
  -21.9917   -9.0265   20.4640 C   0  0  0  0  0  0
  -22.7243  -10.2146   20.3057 C   0  0  0  0  0  0
  -21.6853   -6.0725   22.5273 C   0  0  0  0  0  0
  -21.4013   -6.5632   23.8209 C   0  0  0  0  0  0
  -21.3657   -5.6789   24.9170 C   0  0  0  0  0  0
  -21.6050   -4.3051   24.7228 C   0  0  0  0  0  0
  -21.8827   -3.8135   23.4358 C   0  0  0  0  0  0
  -21.9205   -4.6951   22.3409 C   0  0  0  0  0  0
  -22.7891  -13.5267   21.1828 C   0  0  0  0  0  0
  -22.1683   -4.2140   21.0989 F   0  0  0  0  0  0
  -21.5644   -3.4545   25.7746 F   0  0  0  0  0  0
  -30.0372  -13.2867   20.4408 N   0  0  0  0  0  0
  -26.3028  -12.9313   20.3263 N   0  0  0  0  0  0
  -25.9317  -11.6491   20.5735 N   0  0  0  0  0  0
  -22.0542  -12.8221   22.0383 N   0  0  0  0  0  0
  -25.4414  -15.1870   20.4106 N   0  0  0  0  0  0
  -31.8932  -14.5528   20.1457 O   0  0  0  0  0  0
  -21.6648   -6.8881   21.4240 O   0  0  0  0  0  0
  -22.3577  -14.5582   20.6706 O   0  0  0  0  0  0
  -24.6112  -31.8707   23.2105 C   0  0  0  0  0  0
  -25.9023  -32.4834   23.8387 C   0  0  1  0  0  0
  -27.2422  -27.4721   20.0911 C   0  0  0  0  0  0
  -25.5891  -33.8628   24.2332 N   0  0  0  0  0  0
  -23.3961  -30.4929   21.5539 C   0  0  2  0  0  0
  -24.8426  -28.9592   20.1207 C   0  0  0  0  0  0
  -22.7375  -29.4674   22.5034 C   0  0  0  0  0  0
  -18.0259  -28.1360   22.8495 C   0  0  0  0  0  0
  -24.1483  -36.7315   23.2636 C   0  0  0  0  0  0
  -25.9207  -30.8492   21.3549 C   0  0  0  0  0  0
  -26.0020  -29.4860   20.7030 C   0  0  0  0  0  0
  -27.2067  -28.7534   20.6772 C   0  0  0  0  0  0
  -26.0636  -26.9425   19.5193 C   0  0  0  0  0  0
  -24.8665  -27.6827   19.5296 C   0  0  0  0  0  0
  -23.6008  -29.8197   20.1708 C   0  0  0  0  0  0
  -25.4099  -36.3116   24.0337 C   0  0  1  0  0  0
  -20.5847  -28.3645   23.1333 C   0  0  2  0  0  0
  -20.6768  -26.9395   22.5419 C   0  0  0  0  0  0
  -19.5753  -26.6384   21.5206 C   0  0  0  0  0  0
  -18.1921  -26.7914   22.1614 C   0  0  0  0  0  0
  -19.1511  -28.8817   23.2913 C   0  0  0  0  0  0
  -18.9448  -30.1426   23.8918 C   0  0  0  0  0  0
  -17.6453  -30.6582   24.0547 C   0  0  0  0  0  0
  -25.9032  -34.9478   23.5127 C   0  0  0  0  0  0
  -16.5335  -29.9076   23.6331 C   0  0  0  0  0  0
  -16.7248  -28.6488   23.0357 C   0  0  0  0  0  0
  -26.4458  -31.6601   25.0697 C   0  0  0  0  0  0
  -25.3733  -31.3708   26.1464 C   0  0  0  0  0  0
  -27.0293  -30.3049   24.6050 C   0  0  0  0  0  0
  -27.6036  -32.4323   25.7463 C   0  0  0  0  0  0
  -27.5581  -37.1808   24.8461 C   0  0  0  0  0  0
  -21.4112  -29.3019   22.3751 N   0  0  0  0  0  0
  -26.4290  -37.3798   23.9408 N   0  0  0  0  0  0
  -24.6612  -31.0839   22.0986 N   0  0  0  0  0  0
  -23.4170  -28.8227   23.3065 O   0  0  0  0  0  0
  -28.4285  -26.7786   20.0820 O   0  0  0  0  0  0
  -26.5589  -34.8918   22.4687 O   0  0  0  0  0  0
  -23.5320  -32.1440   23.7537 O   0  0  0  0  0  0
  -27.7990  -19.5811   19.2011 C   0  0  0  0  0  0
  -30.0313  -20.4750   19.5679 C   0  0  0  0  0  0
  -28.2790  -18.2756   19.4220 C   0  0  0  0  0  0
  -30.5168  -19.1673   19.7730 C   0  0  0  0  0  0
  -28.6757  -20.6917   19.2349 C   0  0  0  0  0  0
  -29.6523  -18.0591   19.6647 C   0  0  0  0  0  0
  -30.3791  -16.4082   22.0650 C   0  0  0  0  0  0
  -27.1422  -22.0969   17.9346 C   0  0  0  0  0  0
  -30.1082  -16.2873   18.2147 C   0  0  0  0  0  0
  -28.5196  -24.4099   19.4732 C   0  0  0  0  0  0
  -28.2962  -22.9745   19.9839 C   0  0  0  0  0  0
  -28.3750  -25.4489   20.5940 C   0  0  0  0  0  0
  -29.9601  -15.8140   20.7065 C   0  0  1  0  0  0
  -28.2363  -21.9898   18.9025 N   0  0  0  0  0  0
  -30.2051  -16.7701   19.6002 N   0  0  0  0  0  0
  -31.4748  -12.3188   19.1728 H   0  0  0  0  0  0
  -30.2928  -11.2656   19.8983 H   0  0  0  0  0  0
  -29.7512  -11.6809   17.4797 H   0  0  0  0  0  0
  -29.7115  -13.4021   17.7568 H   0  0  0  0  0  0
  -27.8100  -11.2907   18.8308 H   0  0  0  0  0  0
  -27.3918  -12.6103   17.7753 H   0  0  0  0  0  0
  -27.6865  -14.2382   19.5139 H   0  0  0  0  0  0
  -28.4811  -13.6954   21.8282 H   0  0  0  0  0  0
  -28.6559  -12.0229   21.3903 H   0  0  0  0  0  0
  -25.2795   -9.5712   22.4740 H   0  0  0  0  0  0
  -24.0027   -7.4649   22.7474 H   0  0  0  0  0  0
  -21.0855   -8.8784   19.8932 H   0  0  0  0  0  0
  -22.3724  -10.9684   19.6153 H   0  0  0  0  0  0
  -21.1985   -7.6138   23.9706 H   0  0  0  0  0  0
  -21.1476   -6.0520   25.9072 H   0  0  0  0  0  0
  -22.0601   -2.7602   23.2859 H   0  0  0  0  0  0
  -22.4164  -11.9869   22.4742 H   0  0  0  0  0  0
  -21.1165  -13.1234   22.2613 H   0  0  0  0  0  0
  -24.6886  -15.8548   20.5371 H   0  0  0  0  0  0
  -26.3110  -15.6184   20.1285 H   0  0  0  0  0  0
  -26.7087  -32.5562   23.1156 H   0  0  0  0  0  0
  -25.0049  -33.9787   25.0480 H   0  0  0  0  0  0
  -22.6821  -31.3069   21.4150 H   0  0  0  0  0  0
  -23.3735  -35.9659   23.3307 H   0  0  0  0  0  0
  -24.3581  -36.8924   22.2052 H   0  0  0  0  0  0
  -23.7250  -37.6523   23.6643 H   0  0  0  0  0  0
  -26.0243  -31.6169   20.5868 H   0  0  0  0  0  0
  -26.8106  -30.9058   21.9701 H   0  0  0  0  0  0
  -28.1062  -29.1636   21.1151 H   0  0  0  0  0  0
  -26.0604  -25.9638   19.0636 H   0  0  0  0  0  0
  -23.9712  -27.2644   19.0898 H   0  0  0  0  0  0
  -23.6986  -30.5909   19.4061 H   0  0  0  0  0  0
  -22.7248  -29.2342   19.8854 H   0  0  0  0  0  0
  -25.1280  -36.1979   25.0832 H   0  0  0  0  0  0
  -20.9927  -28.3210   24.1457 H   0  0  0  0  0  0
  -20.5684  -26.2245   23.3595 H   0  0  0  0  0  0
  -21.6639  -26.7462   22.1205 H   0  0  0  0  0  0
  -19.6922  -25.6303   21.1222 H   0  0  0  0  0  0
  -19.6691  -27.3199   20.6739 H   0  0  0  0  0  0
  -17.4197  -26.6649   21.4003 H   0  0  0  0  0  0
  -18.0320  -26.0038   22.8997 H   0  0  0  0  0  0
  -19.7921  -30.7224   24.2308 H   0  0  0  0  0  0
  -17.5011  -31.6273   24.5127 H   0  0  0  0  0  0
  -15.5340  -30.2979   23.7666 H   0  0  0  0  0  0
  -15.8643  -28.0808   22.7086 H   0  0  0  0  0  0
  -24.5881  -30.7085   25.7810 H   0  0  0  0  0  0
  -24.8941  -32.2866   26.4940 H   0  0  0  0  0  0
  -25.8098  -30.8858   27.0207 H   0  0  0  0  0  0
  -26.2838  -29.6808   24.1121 H   0  0  0  0  0  0
  -27.4096  -29.7295   25.4497 H   0  0  0  0  0  0
  -27.8637  -30.4366   23.9163 H   0  0  0  0  0  0
  -27.2653  -33.3610   26.2079 H   0  0  0  0  0  0
  -28.3835  -32.6933   25.0292 H   0  0  0  0  0  0
  -28.0715  -31.8423   26.5359 H   0  0  0  0  0  0
  -28.2612  -38.0100   24.7530 H   0  0  0  0  0  0
  -28.1082  -36.2639   24.6273 H   0  0  0  0  0  0
  -27.2303  -37.1443   25.8868 H   0  0  0  0  0  0
  -20.9272  -29.8710   21.6944 H   0  0  0  0  0  0
  -26.0183  -38.2878   24.1402 H   0  0  0  0  0  0
  -26.7525  -19.7102   18.9677 H   0  0  0  0  0  0
  -30.7292  -21.3012   19.6031 H   0  0  0  0  0  0
  -27.6009  -17.4394   19.3185 H   0  0  0  0  0  0
  -31.5723  -19.0177   19.9522 H   0  0  0  0  0  0
  -30.2298  -15.6879   22.8693 H   0  0  0  0  0  0
  -29.7938  -17.2923   22.3205 H   0  0  0  0  0  0
  -31.4330  -16.6915   22.0704 H   0  0  0  0  0  0
  -27.2810  -22.9717   17.2962 H   0  0  0  0  0  0
  -26.1797  -22.1961   18.4403 H   0  0  0  0  0  0
  -27.0917  -21.2338   17.2683 H   0  0  0  0  0  0
  -29.2079  -15.6898   18.0711 H   0  0  0  0  0  0
  -30.9667  -15.6712   17.9456 H   0  0  0  0  0  0
  -30.0863  -17.0991   17.4819 H   0  0  0  0  0  0
  -29.5085  -24.4955   19.0219 H   0  0  0  0  0  0
  -27.8057  -24.6459   18.6865 H   0  0  0  0  0  0
  -27.3563  -22.9293   20.5354 H   0  0  0  0  0  0
  -29.0780  -22.7236   20.7034 H   0  0  0  0  0  0
  -29.1918  -25.3290   21.3056 H   0  0  0  0  0  0
  -27.4602  -25.2767   21.1640 H   0  0  0  0  0  0
  -28.8854  -15.6467   20.7428 H   0  0  0  0  0  0
  1 25  1  0  0  0
  1 30  2  0  0  0
  1 83  1  0  0  0
  2  3  1  0  0  0
  2 25  1  0  0  0
  2 86  1  0  0  0
  2 87  1  0  0  0
  3  4  1  0  0  0
  3 88  1  0  0  0
  3 89  1  0  0  0
  4  5  1  0  0  0
  4 90  1  0  0  0
  4 91  1  0  0  0
  5  6  1  0  0  0
  5 26  1  0  0  0
  5 92  1  0  0  0
  6 25  1  0  0  0
  6 93  1  0  0  0
  6 94  1  0  0  0
  7  8  2  0  0  0
  7 26  1  0  0  0
  7 29  1  0  0  0
  8  9  1  0  0  0
  8 22  1  0  0  0
  9 10  1  0  0  0
  9 27  2  0  0  0
 10 11  2  0  0  0
 10 15  1  0  0  0
 11 12  1  0  0  0
 11 95  1  0  0  0
 12 13  2  0  0  0
 12 96  1  0  0  0
 13 14  1  0  0  0
 13 31  1  0  0  0
 14 15  2  0  0  0
 14 97  1  0  0  0
 15 98  1  0  0  0
 16 17  2  0  0  0
 16 21  1  0  0  0
 16 31  1  0  0  0
 17 18  1  0  0  0
 17 99  1  0  0  0
 18 19  2  0  0  0
 18100  1  0  0  0
 19 20  1  0  0  0
 19 24  1  0  0  0
 20 21  2  0  0  0
 20101  1  0  0  0
 21 23  1  0  0  0
 22 28  1  0  0  0
 22 32  2  0  0  0
 26 27  1  0  0  0
 28102  1  0  0  0
 28103  1  0  0  0
 29104  1  0  0  0
 29105  1  0  0  0
 33 34  1  0  0  0
 33 66  1  0  0  0
 33 70  2  0  0  0
 34 36  1  0  0  0
 34 59  1  0  0  0
 34106  1  0  0  0
 35 44  2  0  0  0
 35 45  1  0  0  0
 35 68  1  0  0  0
 36 56  1  0  0  0
 36107  1  0  0  0
 37 39  1  0  0  0
 37 47  1  0  0  0
 37 66  1  0  0  0
 37108  1  0  0  0
 38 43  2  0  0  0
 38 46  1  0  0  0
 38 47  1  0  0  0
 39 64  1  0  0  0
 39 67  2  0  0  0
 40 52  1  0  0  0
 40 53  2  0  0  0
 40 58  1  0  0  0
 41109  1  0  0  0
 41110  1  0  0  0
 41111  1  0  0  0
 41 48  1  0  0  0
 42 43  1  0  0  0
 42 66  1  0  0  0
 42112  1  0  0  0
 42113  1  0  0  0
 43 44  1  0  0  0
 44114  1  0  0  0
 45 46  2  0  0  0
 45115  1  0  0  0
 46116  1  0  0  0
 47117  1  0  0  0
 47118  1  0  0  0
 48 56  1  0  0  0
 48 65  1  0  0  0
 48119  1  0  0  0
 49 50  1  0  0  0
 49 53  1  0  0  0
 49 64  1  0  0  0
 49120  1  0  0  0
 50 51  1  0  0  0
 50121  1  0  0  0
 50122  1  0  0  0
 51 52  1  0  0  0
 51123  1  0  0  0
 51124  1  0  0  0
 52125  1  0  0  0
 52126  1  0  0  0
 53 54  1  0  0  0
 54 55  2  0  0  0
 54127  1  0  0  0
 55 57  1  0  0  0
 55128  1  0  0  0
 56 69  2  0  0  0
 57 58  2  0  0  0
 57129  1  0  0  0
 58130  1  0  0  0
 59 60  1  0  0  0
 59 61  1  0  0  0
 59 62  1  0  0  0
 60131  1  0  0  0
 60132  1  0  0  0
 60133  1  0  0  0
 61134  1  0  0  0
 61135  1  0  0  0
 61136  1  0  0  0
 62137  1  0  0  0
 62138  1  0  0  0
 62139  1  0  0  0
 63 65  1  0  0  0
 63140  1  0  0  0
 63141  1  0  0  0
 63142  1  0  0  0
 64143  1  0  0  0
 65144  1  0  0  0
 68 82  1  0  0  0
 71 73  2  0  0  0
 71 75  1  0  0  0
 71145  1  0  0  0
 72 74  1  0  0  0
 72 75  2  0  0  0
 72146  1  0  0  0
 73 76  1  0  0  0
 73147  1  0  0  0
 74 76  2  0  0  0
 74148  1  0  0  0
 75 84  1  0  0  0
 76 85  1  0  0  0
 77149  1  0  0  0
 77150  1  0  0  0
 77151  1  0  0  0
 77 83  1  0  0  0
 78 84  1  0  0  0
 78152  1  0  0  0
 78153  1  0  0  0
 78154  1  0  0  0
 79 85  1  0  0  0
 79155  1  0  0  0
 79156  1  0  0  0
 79157  1  0  0  0
 80 81  1  0  0  0
 80 82  1  0  0  0
 80158  1  0  0  0
 80159  1  0  0  0
 81 84  1  0  0  0
 81160  1  0  0  0
 81161  1  0  0  0
 82162  1  0  0  0
 82163  1  0  0  0
 83 85  1  0  0  0
 83164  1  0  0  0
M  ISO  4   1 100  68 101  82 101  83 100
M  END
> <chiral flag>
0

> <version>
0

> <s_m_source_file>
/data/baiqing/PycharmProjects/Reinvent-master-3.2/result/LINK_invent/BTK/process_docking_weight1_custom_product_contain_oxygen_bond_distance_aromatic_linkinvent_7_9_3/rearranged_h_0016.sdf

> <i_m_source_file_index>
30

> <r_mmod_Potential_Energy-OPLS-2005>
32.3671760559082

> <r_mmod_Stretch_Energy-OPLS-2005>
36.539665222168

> <r_mmod_Bend_Energy-OPLS-2005>
99.5798034667969

> <r_mmod_Torsional_Energy-OPLS-2005>
239.548049926758

> <r_mmod_Improper_Torsional_Energy-OPLS-2005>
11.8431253433228

> <r_mmod_Van_der_Waal_Energy-OPLS-2005>
157.719711303711

> <r_mmod_Electrostatic_Energy-OPLS-2005>
-314.314971923828

> <r_mmod_Solvation_Energy-OPLS-2005>
-217.302597045898

> <b_mmod_Minimization_Converged-OPLS-2005>
0

> <r_mmod_RMS_Derivative-OPLS-2005>
2.73738527297974

$$$$
30
                    3D
 Structure written by MMmdl.
159167  0  0  1  0            999 V2000
  -30.6630  -14.4738   20.5996 C   0  0  0  0  0  0
  -30.4355  -12.3140   19.4136 C   0  0  0  0  0  0
  -29.4986  -12.5085   18.2018 C   0  0  0  0  0  0
  -28.0175  -12.3685   18.6113 C   0  0  0  0  0  0
  -27.6649  -13.1945   19.8765 C   0  0  2  0  0  0
  -28.7032  -12.9387   20.9915 C   0  0  0  0  0  0
  -25.2618  -13.8126   20.5646 C   0  0  0  0  0  0
  -24.1855  -13.0433   20.9168 C   0  0  0  0  0  0
  -24.6384  -11.6890   20.8729 C   0  0  0  0  0  0
  -23.9041  -10.4287   21.0401 C   0  0  0  0  0  0
  -24.3601   -9.4212   21.9185 C   0  0  0  0  0  0
  -23.6284   -8.2243   22.0757 C   0  0  0  0  0  0
  -22.4268   -8.0276   21.3539 C   0  0  0  0  0  0
  -21.9897   -9.0247   20.4645 C   0  0  0  0  0  0
  -22.7214  -10.2130   20.3053 C   0  0  0  0  0  0
  -21.6854   -6.0733   22.5279 C   0  0  0  0  0  0
  -21.4013   -6.5640   23.8212 C   0  0  0  0  0  0
  -21.3659   -5.6793   24.9174 C   0  0  0  0  0  0
  -21.6039   -4.3054   24.7228 C   0  0  0  0  0  0
  -21.8822   -3.8146   23.4350 C   0  0  0  0  0  0
  -21.9193   -4.6960   22.3401 C   0  0  0  0  0  0
  -22.7881  -13.5245   21.1833 C   0  0  0  0  0  0
  -22.1663   -4.2143   21.0978 F   0  0  0  0  0  0
  -21.5629   -3.4536   25.7744 F   0  0  0  0  0  0
  -30.0345  -13.2749   20.4521 N   0  0  0  0  0  0
  -26.3035  -12.9269   20.3338 N   0  0  0  0  0  0
  -25.9303  -11.6444   20.5737 N   0  0  0  0  0  0
  -22.0512  -12.8244   22.0389 N   0  0  0  0  0  0
  -25.4383  -15.1844   20.4027 N   0  0  0  0  0  0
  -31.7797  -14.7061   20.1238 O   0  0  0  0  0  0
  -21.6637   -6.8872   21.4237 O   0  0  0  0  0  0
  -22.3577  -14.5557   20.6685 O   0  0  0  0  0  0
  -24.6132  -31.8671   23.2078 C   0  0  0  0  0  0
  -25.9020  -32.4823   23.8375 C   0  0  1  0  0  0
  -27.2381  -27.4349   20.0977 C   0  0  0  0  0  0
  -25.5865  -33.8618   24.2302 N   0  0  0  0  0  0
  -23.4013  -30.4891   21.5498 C   0  0  2  0  0  0
  -24.8486  -28.9521   20.1190 C   0  0  0  0  0  0
  -22.7403  -29.4641   22.4993 C   0  0  0  0  0  0
  -18.0266  -28.1369   22.8495 C   0  0  0  0  0  0
  -24.1484  -36.7323   23.2636 C   0  0  0  0  0  0
  -25.9290  -30.8363   21.3582 C   0  0  0  0  0  0
  -26.0092  -29.4698   20.7069 C   0  0  0  0  0  0
  -27.2079  -28.7202   20.6877 C   0  0  0  0  0  0
  -26.0573  -26.9271   19.5111 C   0  0  0  0  0  0
  -24.8667  -27.6794   19.5202 C   0  0  0  0  0  0
  -23.6106  -29.8187   20.1662 C   0  0  0  0  0  0
  -25.4105  -36.3115   24.0332 C   0  0  1  0  0  0
  -20.5856  -28.3648   23.1325 C   0  0  2  0  0  0
  -20.6763  -26.9385   22.5426 C   0  0  0  0  0  0
  -19.5741  -26.6377   21.5217 C   0  0  0  0  0  0
  -18.1917  -26.7916   22.1625 C   0  0  0  0  0  0
  -19.1518  -28.8827   23.2907 C   0  0  0  0  0  0
  -18.9451  -30.1435   23.8915 C   0  0  0  0  0  0
  -17.6459  -30.6587   24.0556 C   0  0  0  0  0  0
  -25.9030  -34.9477   23.5122 C   0  0  0  0  0  0
  -16.5347  -29.9091   23.6316 C   0  0  0  0  0  0
  -16.7259  -28.6502   23.0345 C   0  0  0  0  0  0
  -26.4455  -31.6601   25.0697 C   0  0  0  0  0  0
  -25.3717  -31.3712   26.1444 C   0  0  0  0  0  0
  -27.0255  -30.3039   24.6041 C   0  0  0  0  0  0
  -27.6023  -32.4317   25.7475 C   0  0  0  0  0  0
  -27.5584  -37.1816   24.8457 C   0  0  0  0  0  0
  -21.4131  -29.3018   22.3739 N   0  0  0  0  0  0
  -26.4296  -37.3797   23.9406 N   0  0  0  0  0  0
  -24.6664  -31.0772   22.0982 N   0  0  0  0  0  0
  -23.4180  -28.8184   23.3033 O   0  0  0  0  0  0
  -28.4201  -26.7232   20.0836 O   0  0  0  0  0  0
  -26.5614  -34.8941   22.4700 O   0  0  0  0  0  0
  -23.5331  -32.1418   23.7487 O   0  0  0  0  0  0
  -28.8695  -18.9699   21.6864 C   0  0  0  0  0  0
  -31.2790  -18.9331   21.3798 C   0  0  0  0  0  0
  -28.8336  -17.5690   21.5127 C   0  0  0  0  0  0
  -31.2438  -17.5312   21.2002 C   0  0  0  0  0  0
  -30.0966  -19.6655   21.6428 C   0  0  0  0  0  0
  -30.0172  -16.8298   21.2797 C   0  0  0  0  0  0
  -30.6160  -21.9426   19.7027 C   0  0  0  0  0  0
  -30.1658  -21.1563   22.0104 C   0  0  0  0  0  0
  -29.7812  -24.7728   20.5643 C   0  0  0  0  0  0
  -29.9523  -23.5426   21.5097 C   0  0  0  0  0  0
  -28.3491  -25.3122   20.3457 C   0  0  0  0  0  0
  -29.8989  -15.4079   21.2059 N   0  0  0  0  0  0
  -29.8359  -22.1554   20.9470 N   0  3  1  0  0  0
  -31.4766  -12.4421   19.1116 H   0  0  0  0  0  0
  -30.3597  -11.2955   19.7965 H   0  0  0  0  0  0
  -29.7377  -11.7843   17.4223 H   0  0  0  0  0  0
  -29.6657  -13.4937   17.7635 H   0  0  0  0  0  0
  -27.8228  -11.3109   18.7943 H   0  0  0  0  0  0
  -27.3701  -12.6558   17.7818 H   0  0  0  0  0  0
  -27.7182  -14.2456   19.5951 H   0  0  0  0  0  0
  -28.6873  -11.8882   21.2871 H   0  0  0  0  0  0
  -28.4519  -13.4895   21.8986 H   0  0  0  0  0  0
  -25.2748   -9.5692   22.4756 H   0  0  0  0  0  0
  -23.9997   -7.4636   22.7480 H   0  0  0  0  0  0
  -21.0831   -8.8756   19.8952 H   0  0  0  0  0  0
  -22.3671  -10.9666   19.6162 H   0  0  0  0  0  0
  -21.2008   -7.6151   23.9710 H   0  0  0  0  0  0
  -21.1476   -6.0526   25.9075 H   0  0  0  0  0  0
  -22.0602   -2.7607   23.2852 H   0  0  0  0  0  0
  -22.4119  -11.9901   22.4771 H   0  0  0  0  0  0
  -21.1131  -13.1279   22.2578 H   0  0  0  0  0  0
  -24.6705  -15.8409   20.4939 H   0  0  0  0  0  0
  -26.2806  -15.6100   20.0376 H   0  0  0  0  0  0
  -26.7091  -32.5549   23.1139 H   0  0  0  0  0  0
  -24.9971  -33.9772   25.0418 H   0  0  0  0  0  0
  -22.6892  -31.3051   21.4092 H   0  0  0  0  0  0
  -23.3746  -35.9655   23.3299 H   0  0  0  0  0  0
  -24.3582  -36.8938   22.2050 H   0  0  0  0  0  0
  -23.7239  -37.6527   23.6659 H   0  0  0  0  0  0
  -26.0314  -31.6029   20.5891 H   0  0  0  0  0  0
  -26.8194  -30.8950   21.9722 H   0  0  0  0  0  0
  -28.1076  -29.1192   21.1375 H   0  0  0  0  0  0
  -26.0476  -25.9590   19.0316 H   0  0  0  0  0  0
  -23.9725  -27.2730   19.0671 H   0  0  0  0  0  0
  -23.7184  -30.5912   19.4035 H   0  0  0  0  0  0
  -22.7348  -29.2371   19.8740 H   0  0  0  0  0  0
  -25.1285  -36.1980   25.0824 H   0  0  0  0  0  0
  -20.9948  -28.3235   24.1439 H   0  0  0  0  0  0
  -20.5671  -26.2259   23.3617 H   0  0  0  0  0  0
  -21.6639  -26.7437   22.1211 H   0  0  0  0  0  0
  -19.6902  -25.6290   21.1235 H   0  0  0  0  0  0
  -19.6687  -27.3203   20.6759 H   0  0  0  0  0  0
  -17.4186  -26.6659   21.4025 H   0  0  0  0  0  0
  -18.0305  -26.0060   22.9024 H   0  0  0  0  0  0
  -19.7939  -30.7223   24.2315 H   0  0  0  0  0  0
  -17.5025  -31.6276   24.5143 H   0  0  0  0  0  0
  -15.5350  -30.3004   23.7633 H   0  0  0  0  0  0
  -15.8654  -28.0834   22.7050 H   0  0  0  0  0  0
  -24.5897  -30.7044   25.7784 H   0  0  0  0  0  0
  -24.8906  -32.2875   26.4878 H   0  0  0  0  0  0
  -25.8070  -30.8899   27.0208 H   0  0  0  0  0  0
  -26.2768  -29.6845   24.1084 H   0  0  0  0  0  0
  -27.4000  -29.7229   25.4476 H   0  0  0  0  0  0
  -27.8622  -30.4335   23.9173 H   0  0  0  0  0  0
  -27.2612  -33.3600   26.2072 H   0  0  0  0  0  0
  -28.3835  -32.6904   25.0313 H   0  0  0  0  0  0
  -28.0679  -31.8421   26.5383 H   0  0  0  0  0  0
  -28.2598  -38.0124   24.7528 H   0  0  0  0  0  0
  -28.1094  -36.2659   24.6259 H   0  0  0  0  0  0
  -27.2306  -37.1421   25.8862 H   0  0  0  0  0  0
  -20.9288  -29.8751   21.6970 H   0  0  0  0  0  0
  -26.0192  -38.2871   24.1437 H   0  0  0  0  0  0
  -27.9512  -19.4993   21.9020 H   0  0  0  0  0  0
  -32.2353  -19.4382   21.3593 H   0  0  0  0  0  0
  -27.8798  -17.0642   21.5855 H   0  0  0  0  0  0
  -32.1759  -17.0057   21.0456 H   0  0  0  0  0  0
  -30.5278  -20.9177   19.3427 H   0  0  0  0  0  0
  -31.6749  -22.1535   19.8552 H   0  0  0  0  0  0
  -30.2494  -22.5730   18.8943 H   0  0  0  0  0  0
  -31.1698  -21.3595   22.3869 H   0  0  0  0  0  0
  -29.5000  -21.3154   22.8607 H   0  0  0  0  0  0
  -30.3000  -24.6564   19.6150 H   0  0  0  0  0  0
  -30.3245  -25.5806   21.0566 H   0  0  0  0  0  0
  -29.2749  -23.6457   22.3586 H   0  0  0  0  0  0
  -30.9524  -23.6238   21.9385 H   0  0  0  0  0  0
  -27.7410  -25.1472   21.2376 H   0  0  0  0  0  0
  -27.8804  -24.7767   19.5196 H   0  0  0  0  0  0
  -29.0125  -15.0397   21.5148 H   0  0  0  0  0  0
  -28.8678  -22.0032   20.7073 H   0  0  0  0  0  0
  1 25  1  0  0  0
  1 30  2  0  0  0
  1 82  1  0  0  0
  2  3  1  0  0  0
  2 25  1  0  0  0
  2 84  1  0  0  0
  2 85  1  0  0  0
  3  4  1  0  0  0
  3 86  1  0  0  0
  3 87  1  0  0  0
  4  5  1  0  0  0
  4 88  1  0  0  0
  4 89  1  0  0  0
  5  6  1  0  0  0
  5 26  1  0  0  0
  5 90  1  0  0  0
  6 25  1  0  0  0
  6 91  1  0  0  0
  6 92  1  0  0  0
  7  8  2  0  0  0
  7 26  1  0  0  0
  7 29  1  0  0  0
  8  9  1  0  0  0
  8 22  1  0  0  0
  9 10  1  0  0  0
  9 27  2  0  0  0
 10 11  2  0  0  0
 10 15  1  0  0  0
 11 12  1  0  0  0
 11 93  1  0  0  0
 12 13  2  0  0  0
 12 94  1  0  0  0
 13 14  1  0  0  0
 13 31  1  0  0  0
 14 15  2  0  0  0
 14 95  1  0  0  0
 15 96  1  0  0  0
 16 17  2  0  0  0
 16 21  1  0  0  0
 16 31  1  0  0  0
 17 18  1  0  0  0
 17 97  1  0  0  0
 18 19  2  0  0  0
 18 98  1  0  0  0
 19 20  1  0  0  0
 19 24  1  0  0  0
 20 21  2  0  0  0
 20 99  1  0  0  0
 21 23  1  0  0  0
 22 28  1  0  0  0
 22 32  2  0  0  0
 26 27  1  0  0  0
 28100  1  0  0  0
 28101  1  0  0  0
 29102  1  0  0  0
 29103  1  0  0  0
 33 34  1  0  0  0
 33 66  1  0  0  0
 33 70  2  0  0  0
 34 36  1  0  0  0
 34 59  1  0  0  0
 34104  1  0  0  0
 35 44  2  0  0  0
 35 45  1  0  0  0
 35 68  1  0  0  0
 36 56  1  0  0  0
 36105  1  0  0  0
 37 39  1  0  0  0
 37 47  1  0  0  0
 37 66  1  0  0  0
 37106  1  0  0  0
 38 43  2  0  0  0
 38 46  1  0  0  0
 38 47  1  0  0  0
 39 64  1  0  0  0
 39 67  2  0  0  0
 40 52  1  0  0  0
 40 53  2  0  0  0
 40 58  1  0  0  0
 41107  1  0  0  0
 41108  1  0  0  0
 41109  1  0  0  0
 41 48  1  0  0  0
 42 43  1  0  0  0
 42 66  1  0  0  0
 42110  1  0  0  0
 42111  1  0  0  0
 43 44  1  0  0  0
 44112  1  0  0  0
 45 46  2  0  0  0
 45113  1  0  0  0
 46114  1  0  0  0
 47115  1  0  0  0
 47116  1  0  0  0
 48 56  1  0  0  0
 48 65  1  0  0  0
 48117  1  0  0  0
 49 50  1  0  0  0
 49 53  1  0  0  0
 49 64  1  0  0  0
 49118  1  0  0  0
 50 51  1  0  0  0
 50119  1  0  0  0
 50120  1  0  0  0
 51 52  1  0  0  0
 51121  1  0  0  0
 51122  1  0  0  0
 52123  1  0  0  0
 52124  1  0  0  0
 53 54  1  0  0  0
 54 55  2  0  0  0
 54125  1  0  0  0
 55 57  1  0  0  0
 55126  1  0  0  0
 56 69  2  0  0  0
 57 58  2  0  0  0
 57127  1  0  0  0
 58128  1  0  0  0
 59 60  1  0  0  0
 59 61  1  0  0  0
 59 62  1  0  0  0
 60129  1  0  0  0
 60130  1  0  0  0
 60131  1  0  0  0
 61132  1  0  0  0
 61133  1  0  0  0
 61134  1  0  0  0
 62135  1  0  0  0
 62136  1  0  0  0
 62137  1  0  0  0
 63 65  1  0  0  0
 63138  1  0  0  0
 63139  1  0  0  0
 63140  1  0  0  0
 64141  1  0  0  0
 65142  1  0  0  0
 68 81  1  0  0  0
 71 73  2  0  0  0
 71 75  1  0  0  0
 71143  1  0  0  0
 72 74  1  0  0  0
 72 75  2  0  0  0
 72144  1  0  0  0
 73 76  1  0  0  0
 73145  1  0  0  0
 74 76  2  0  0  0
 74146  1  0  0  0
 75 78  1  0  0  0
 76 82  1  0  0  0
 77147  1  0  0  0
 77148  1  0  0  0
 77149  1  0  0  0
 77 83  1  0  0  0
 78 83  1  0  0  0
 78150  1  0  0  0
 78151  1  0  0  0
 79 80  1  0  0  0
 79 81  1  0  0  0
 79152  1  0  0  0
 79153  1  0  0  0
 80 83  1  0  0  0
 80154  1  0  0  0
 80155  1  0  0  0
 81156  1  0  0  0
 81157  1  0  0  0
 82158  1  0  0  0
 83159  1  0  0  0
M  CHG  1  83   1
M  ISO  4   1 100  68 101  81 101  82 100
M  END
> <chiral flag>
0

> <version>
0

> <s_m_source_file>
/data/baiqing/PycharmProjects/Reinvent-master-3.2/result/LINK_invent/BTK/process_docking_weight1_custom_product_contain_oxygen_bond_distance_aromatic_linkinvent_7_9_3/rearranged_h_0016.sdf

> <i_m_source_file_index>
31

> <r_mmod_Potential_Energy-OPLS-2005>
-169.5888671875

> <r_mmod_Stretch_Energy-OPLS-2005>
39.6837730407715

> <r_mmod_Bend_Energy-OPLS-2005>
116.625686645508

> <r_mmod_Torsional_Energy-OPLS-2005>
224.905197143555

> <r_mmod_Improper_Torsional_Energy-OPLS-2005>
4.02819395065308

> <r_mmod_Van_der_Waal_Energy-OPLS-2005>
155.463958740234

> <r_mmod_Electrostatic_Energy-OPLS-2005>
-270.951782226562

> <r_mmod_Solvation_Energy-OPLS-2005>
-451.460754394531

> <b_mmod_Minimization_Converged-OPLS-2005>
0

> <r_mmod_RMS_Derivative-OPLS-2005>
1.51259875297546

$$$$
31
                    3D
 Structure written by MMmdl.
162170  0  0  1  0            999 V2000
  -30.5687  -14.9409   20.4795 C   0  0  0  0  0  0
  -30.4361  -12.6050   19.4899 C   0  0  0  0  0  0
  -29.5134  -12.5551   18.2511 C   0  0  0  0  0  0
  -28.0438  -12.3430   18.6624 C   0  0  0  0  0  0
  -27.6302  -13.2495   19.8516 C   0  0  2  0  0  0
  -28.6786  -13.2208   20.9831 C   0  0  0  0  0  0
  -25.2424  -13.8209   20.5715 C   0  0  0  0  0  0
  -24.1751  -13.0424   20.9226 C   0  0  0  0  0  0
  -24.6385  -11.6912   20.8759 C   0  0  0  0  0  0
  -23.9078  -10.4279   21.0403 C   0  0  0  0  0  0
  -24.3622   -9.4196   21.9188 C   0  0  0  0  0  0
  -23.6291   -8.2241   22.0756 C   0  0  0  0  0  0
  -22.4275   -8.0282   21.3546 C   0  0  0  0  0  0
  -21.9906   -9.0253   20.4647 C   0  0  0  0  0  0
  -22.7242  -10.2128   20.3061 C   0  0  0  0  0  0
  -21.6847   -6.0739   22.5289 C   0  0  0  0  0  0
  -21.4020   -6.5642   23.8223 C   0  0  0  0  0  0
  -21.3654   -5.6798   24.9184 C   0  0  0  0  0  0
  -21.6033   -4.3057   24.7234 C   0  0  0  0  0  0
  -21.8813   -3.8150   23.4352 C   0  0  0  0  0  0
  -21.9187   -4.6969   22.3408 C   0  0  0  0  0  0
  -22.7772  -13.5200   21.1856 C   0  0  0  0  0  0
  -22.1649   -4.2158   21.0988 F   0  0  0  0  0  0
  -21.5618   -3.4537   25.7736 F   0  0  0  0  0  0
  -29.9417  -13.6893   20.3954 N   0  0  0  0  0  0
  -26.2876  -12.9456   20.3311 N   0  0  0  0  0  0
  -25.9327  -11.6578   20.5786 N   0  0  0  0  0  0
  -22.0400  -12.8222   22.0417 N   0  0  0  0  0  0
  -25.3993  -15.1942   20.4100 N   0  0  0  0  0  0
  -31.7553  -14.9454   20.1394 O   0  0  0  0  0  0
  -21.6626   -6.8885   21.4255 O   0  0  0  0  0  0
  -22.3461  -14.5503   20.6686 O   0  0  0  0  0  0
  -24.6434  -31.8447   23.1885 C   0  0  0  0  0  0
  -25.9209  -32.4692   23.8269 C   0  0  1  0  0  0
  -27.2121  -27.1340   20.1617 C   0  0  0  0  0  0
  -25.5961  -33.8503   24.2185 N   0  0  0  0  0  0
  -23.4462  -30.4641   21.5343 C   0  0  2  0  0  0
  -24.8952  -28.8930   20.1076 C   0  0  0  0  0  0
  -22.7562  -29.4550   22.4868 C   0  0  0  0  0  0
  -18.0302  -28.1387   22.8487 C   0  0  0  0  0  0
  -24.1488  -36.7251   23.2644 C   0  0  0  0  0  0
  -26.0016  -30.7197   21.3856 C   0  0  0  0  0  0
  -26.0719  -29.3306   20.7284 C   0  0  0  0  0  0
  -27.2324  -28.4691   20.7362 C   0  0  0  0  0  0
  -26.0107  -26.7992   19.4985 C   0  0  0  0  0  0
  -24.8787  -27.6409   19.4748 C   0  0  0  0  0  0
  -23.6707  -29.7939   20.1529 C   0  0  0  0  0  0
  -25.4123  -36.3030   24.0314 C   0  0  1  0  0  0
  -20.5915  -28.3718   23.1237 C   0  0  2  0  0  0
  -20.6786  -26.9420   22.5405 C   0  0  0  0  0  0
  -19.5758  -26.6375   21.5217 C   0  0  0  0  0  0
  -18.1940  -26.7927   22.1629 C   0  0  0  0  0  0
  -19.1560  -28.8871   23.2850 C   0  0  0  0  0  0
  -18.9474  -30.1464   23.8877 C   0  0  0  0  0  0
  -17.6469  -30.6584   24.0557 C   0  0  0  0  0  0
  -25.9075  -34.9406   23.5059 C   0  0  0  0  0  0
  -16.5361  -29.9073   23.6333 C   0  0  0  0  0  0
  -16.7285  -28.6489   23.0365 C   0  0  0  0  0  0
  -26.4531  -31.6567   25.0716 C   0  0  0  0  0  0
  -25.3715  -31.3766   26.1415 C   0  0  0  0  0  0
  -27.0393  -30.2960   24.6297 C   0  0  0  0  0  0
  -27.6046  -32.4344   25.7501 C   0  0  0  0  0  0
  -27.5570  -37.1782   24.8468 C   0  0  0  0  0  0
  -21.4257  -29.3042   22.3609 N   0  0  0  0  0  0
  -26.4281  -37.3747   23.9408 N   0  0  0  0  0  0
  -24.7171  -31.0304   22.0910 N   0  0  0  0  0  0
  -23.4208  -28.8112   23.3030 O   0  0  0  0  0  0
  -28.2550  -26.1394   20.2522 O   0  0  0  0  0  0
  -26.5655  -34.8905   22.4632 O   0  0  0  0  0  0
  -23.5555  -32.1327   23.7095 O   0  0  0  0  0  0
  -31.4384  -18.9440   18.5756 C   0  0  0  0  0  0
  -30.2091  -19.4797   18.5338 C   0  0  0  0  0  0
  -31.6531  -17.9796   19.7160 C   0  0  0  0  0  0
  -29.3442  -19.0686   19.7330 C   0  0  1  0  0  0
  -30.1938  -17.6194   20.0424 C   0  0  2  0  0  0
  -28.8600  -16.3277   21.7033 C   0  0  0  0  0  0
  -30.1729  -21.8263   16.8474 C   0  0  0  0  0  0
  -28.9143  -23.2771   20.4807 C   0  0  0  0  0  0
  -28.5258  -21.6664   20.1448 C   0  0  0  0  0  0
  -27.9562  -24.6160   20.0926 C   0  0  0  0  0  0
  -29.3027  -20.3780   20.5858 N   0  0  0  0  0  0
  -29.8601  -16.1891   20.6466 N   0  0  0  0  0  0
  -30.3528  -19.3611   15.8701 O   0  0  0  0  0  0
  -28.1405  -20.0490   16.9036 O   0  0  0  0  0  0
  -29.6142  -20.0928   16.9163 S   0  0  0  0  0  0
  -31.4620  -12.7717   19.1570 H   0  0  0  0  0  0
  -30.4519  -11.6457   20.0076 H   0  0  0  0  0  0
  -29.8360  -11.7675   17.5685 H   0  0  0  0  0  0
  -29.5997  -13.4927   17.7001 H   0  0  0  0  0  0
  -27.9226  -11.2947   18.9368 H   0  0  0  0  0  0
  -27.3860  -12.5135   17.8088 H   0  0  0  0  0  0
  -27.6037  -14.2660   19.4579 H   0  0  0  0  0  0
  -28.7884  -12.2140   21.3885 H   0  0  0  0  0  0
  -28.3630  -13.8262   21.8278 H   0  0  0  0  0  0
  -25.2757   -9.5667   22.4771 H   0  0  0  0  0  0
  -23.9976   -7.4637   22.7487 H   0  0  0  0  0  0
  -21.0823   -8.8789   19.8964 H   0  0  0  0  0  0
  -22.3699  -10.9676   19.6181 H   0  0  0  0  0  0
  -21.2037   -7.6157   23.9732 H   0  0  0  0  0  0
  -21.1471   -6.0528   25.9089 H   0  0  0  0  0  0
  -22.0599   -2.7613   23.2862 H   0  0  0  0  0  0
  -22.3993  -11.9928   22.4910 H   0  0  0  0  0  0
  -21.1014  -13.1286   22.2546 H   0  0  0  0  0  0
  -24.6255  -15.8385   20.5287 H   0  0  0  0  0  0
  -26.2432  -15.6459   20.0831 H   0  0  0  0  0  0
  -26.7282  -32.5292   23.1004 H   0  0  0  0  0  0
  -25.0107  -33.9623   25.0333 H   0  0  0  0  0  0
  -22.7480  -31.2903   21.3818 H   0  0  0  0  0  0
  -23.3748  -35.9583   23.3301 H   0  0  0  0  0  0
  -24.3580  -36.8888   22.2061 H   0  0  0  0  0  0
  -23.7235  -37.6444   23.6686 H   0  0  0  0  0  0
  -26.1572  -31.4734   20.6124 H   0  0  0  0  0  0
  -26.8720  -30.7689   22.0286 H   0  0  0  0  0  0
  -28.1255  -28.8004   21.2466 H   0  0  0  0  0  0
  -25.9099  -25.8400   19.0141 H   0  0  0  0  0  0
  -23.9810  -27.2995   18.9773 H   0  0  0  0  0  0
  -23.8026  -30.5692   19.3969 H   0  0  0  0  0  0
  -22.7844  -29.2354   19.8447 H   0  0  0  0  0  0
  -25.1305  -36.1864   25.0805 H   0  0  0  0  0  0
  -21.0008  -28.3305   24.1359 H   0  0  0  0  0  0
  -20.5686  -26.2333   23.3626 H   0  0  0  0  0  0
  -21.6651  -26.7429   22.1200 H   0  0  0  0  0  0
  -19.6920  -25.6282   21.1254 H   0  0  0  0  0  0
  -19.6682  -27.3180   20.6743 H   0  0  0  0  0  0
  -17.4208  -26.6679   21.4024 H   0  0  0  0  0  0
  -18.0326  -26.0062   22.9022 H   0  0  0  0  0  0
  -19.7950  -30.7286   24.2239 H   0  0  0  0  0  0
  -17.5022  -31.6268   24.5156 H   0  0  0  0  0  0
  -15.5359  -30.2971   23.7666 H   0  0  0  0  0  0
  -15.8690  -28.0796   22.7105 H   0  0  0  0  0  0
  -24.5907  -30.7094   25.7753 H   0  0  0  0  0  0
  -24.8893  -32.2951   26.4769 H   0  0  0  0  0  0
  -25.8011  -30.9004   27.0239 H   0  0  0  0  0  0
  -26.3018  -29.6684   24.1286 H   0  0  0  0  0  0
  -27.3988  -29.7262   25.4876 H   0  0  0  0  0  0
  -27.8931  -30.4194   23.9628 H   0  0  0  0  0  0
  -27.2633  -33.3680   26.1992 H   0  0  0  0  0  0
  -28.3904  -32.6855   25.0360 H   0  0  0  0  0  0
  -28.0665  -31.8531   26.5495 H   0  0  0  0  0  0
  -28.2585  -38.0079   24.7502 H   0  0  0  0  0  0
  -28.1060  -36.2604   24.6304 H   0  0  0  0  0  0
  -27.2286  -37.1443   25.8872 H   0  0  0  0  0  0
  -20.9476  -29.8750   21.6780 H   0  0  0  0  0  0
  -26.0142  -38.2813   24.1412 H   0  0  0  0  0  0
  -32.1550  -19.0177   17.7718 H   0  0  0  0  0  0
  -32.1602  -18.4564   20.5553 H   0  0  0  0  0  0
  -32.2563  -17.1496   19.3570 H   0  0  0  0  0  0
  -28.3314  -18.8342   19.3993 H   0  0  0  0  0  0
  -29.9046  -17.1549   19.0930 H   0  0  0  0  0  0
  -27.8813  -15.9948   21.3611 H   0  0  0  0  0  0
  -28.7566  -17.3643   22.0256 H   0  0  0  0  0  0
  -29.1424  -15.7586   22.5910 H   0  0  0  0  0  0
  -29.6252  -22.4263   17.5643 H   0  0  0  0  0  0
  -30.0050  -22.2128   15.8451 H   0  0  0  0  0  0
  -31.2349  -21.8588   17.0817 H   0  0  0  0  0  0
  -29.8879  -23.4607   20.0269 H   0  0  0  0  0  0
  -29.0992  -23.3346   21.5539 H   0  0  0  0  0  0
  -28.3823  -21.5997   19.0712 H   0  0  0  0  0  0
  -27.5165  -21.5114   20.5304 H   0  0  0  0  0  0
  -27.0233  -24.4507   20.6341 H   0  0  0  0  0  0
  -27.6991  -24.4883   19.0405 H   0  0  0  0  0  0
  -29.0358  -20.1429   21.5401 H   0  0  0  0  0  0
  1 25  1  0  0  0
  1 30  2  0  0  0
  1 82  1  0  0  0
  2  3  1  0  0  0
  2 25  1  0  0  0
  2 86  1  0  0  0
  2 87  1  0  0  0
  3  4  1  0  0  0
  3 88  1  0  0  0
  3 89  1  0  0  0
  4  5  1  0  0  0
  4 90  1  0  0  0
  4 91  1  0  0  0
  5  6  1  0  0  0
  5 26  1  0  0  0
  5 92  1  0  0  0
  6 25  1  0  0  0
  6 93  1  0  0  0
  6 94  1  0  0  0
  7  8  2  0  0  0
  7 26  1  0  0  0
  7 29  1  0  0  0
  8  9  1  0  0  0
  8 22  1  0  0  0
  9 10  1  0  0  0
  9 27  2  0  0  0
 10 11  2  0  0  0
 10 15  1  0  0  0
 11 12  1  0  0  0
 11 95  1  0  0  0
 12 13  2  0  0  0
 12 96  1  0  0  0
 13 14  1  0  0  0
 13 31  1  0  0  0
 14 15  2  0  0  0
 14 97  1  0  0  0
 15 98  1  0  0  0
 16 17  2  0  0  0
 16 21  1  0  0  0
 16 31  1  0  0  0
 17 18  1  0  0  0
 17 99  1  0  0  0
 18 19  2  0  0  0
 18100  1  0  0  0
 19 20  1  0  0  0
 19 24  1  0  0  0
 20 21  2  0  0  0
 20101  1  0  0  0
 21 23  1  0  0  0
 22 28  1  0  0  0
 22 32  2  0  0  0
 26 27  1  0  0  0
 28102  1  0  0  0
 28103  1  0  0  0
 29104  1  0  0  0
 29105  1  0  0  0
 33 34  1  0  0  0
 33 66  1  0  0  0
 33 70  2  0  0  0
 34 36  1  0  0  0
 34 59  1  0  0  0
 34106  1  0  0  0
 35 44  2  0  0  0
 35 45  1  0  0  0
 35 68  1  0  0  0
 36 56  1  0  0  0
 36107  1  0  0  0
 37 39  1  0  0  0
 37 47  1  0  0  0
 37 66  1  0  0  0
 37108  1  0  0  0
 38 43  2  0  0  0
 38 46  1  0  0  0
 38 47  1  0  0  0
 39 64  1  0  0  0
 39 67  2  0  0  0
 40 52  1  0  0  0
 40 53  2  0  0  0
 40 58  1  0  0  0
 41109  1  0  0  0
 41110  1  0  0  0
 41111  1  0  0  0
 41 48  1  0  0  0
 42 43  1  0  0  0
 42 66  1  0  0  0
 42112  1  0  0  0
 42113  1  0  0  0
 43 44  1  0  0  0
 44114  1  0  0  0
 45 46  2  0  0  0
 45115  1  0  0  0
 46116  1  0  0  0
 47117  1  0  0  0
 47118  1  0  0  0
 48 56  1  0  0  0
 48 65  1  0  0  0
 48119  1  0  0  0
 49 50  1  0  0  0
 49 53  1  0  0  0
 49 64  1  0  0  0
 49120  1  0  0  0
 50 51  1  0  0  0
 50121  1  0  0  0
 50122  1  0  0  0
 51 52  1  0  0  0
 51123  1  0  0  0
 51124  1  0  0  0
 52125  1  0  0  0
 52126  1  0  0  0
 53 54  1  0  0  0
 54 55  2  0  0  0
 54127  1  0  0  0
 55 57  1  0  0  0
 55128  1  0  0  0
 56 69  2  0  0  0
 57 58  2  0  0  0
 57129  1  0  0  0
 58130  1  0  0  0
 59 60  1  0  0  0
 59 61  1  0  0  0
 59 62  1  0  0  0
 60131  1  0  0  0
 60132  1  0  0  0
 60133  1  0  0  0
 61134  1  0  0  0
 61135  1  0  0  0
 61136  1  0  0  0
 62137  1  0  0  0
 62138  1  0  0  0
 62139  1  0  0  0
 63 65  1  0  0  0
 63140  1  0  0  0
 63141  1  0  0  0
 63142  1  0  0  0
 64143  1  0  0  0
 65144  1  0  0  0
 68 80  1  0  0  0
 71 72  2  0  0  0
 71 73  1  0  0  0
 71145  1  0  0  0
 72 74  1  0  0  0
 72 85  1  0  0  0
 73 75  1  0  0  0
 73146  1  0  0  0
 73147  1  0  0  0
 74 75  1  0  0  0
 74 81  1  0  0  0
 74148  1  0  0  0
 75 82  1  0  0  0
 75149  1  0  0  0
 76 82  1  0  0  0
 76150  1  0  0  0
 76151  1  0  0  0
 76152  1  0  0  0
 77153  1  0  0  0
 77154  1  0  0  0
 77155  1  0  0  0
 77 85  1  0  0  0
 78 79  1  0  0  0
 78 80  1  0  0  0
 78156  1  0  0  0
 78157  1  0  0  0
 79 81  1  0  0  0
 79158  1  0  0  0
 79159  1  0  0  0
 80160  1  0  0  0
 80161  1  0  0  0
 81162  1  0  0  0
 83 85  2  0  0  0
 84 85  2  0  0  0
M  ISO  4   1 100  68 101  80 101  82 100
M  END
> <chiral flag>
0

> <version>
0

> <s_m_source_file>
/data/baiqing/PycharmProjects/Reinvent-master-3.2/result/LINK_invent/BTK/process_docking_weight1_custom_product_contain_oxygen_bond_distance_aromatic_linkinvent_7_9_3/rearranged_h_0016.sdf

> <i_m_source_file_index>
32

> <r_mmod_Potential_Energy-OPLS-2005>
813.519836425781

> <r_mmod_Stretch_Energy-OPLS-2005>
288.427734375

> <r_mmod_Bend_Energy-OPLS-2005>
454.384307861328

> <r_mmod_Torsional_Energy-OPLS-2005>
312.393127441406

> <r_mmod_Improper_Torsional_Energy-OPLS-2005>
9.19525623321533

> <r_mmod_Van_der_Waal_Energy-OPLS-2005>
120.613838195801

> <r_mmod_Electrostatic_Energy-OPLS-2005>
-307.278228759766

> <r_mmod_Solvation_Energy-OPLS-2005>
-247.957641601562

> <b_mmod_Minimization_Converged-OPLS-2005>
0

> <r_mmod_RMS_Derivative-OPLS-2005>
2.36638832092285

$$$$
32
                    3D
 Structure written by MMmdl.
162170  0  0  1  0            999 V2000
  -30.6791  -14.4600   20.5348 C   0  0  0  0  0  0
  -30.4293  -12.2924   19.4190 C   0  0  0  0  0  0
  -29.4976  -12.5028   18.2071 C   0  0  0  0  0  0
  -28.0144  -12.3794   18.6127 C   0  0  0  0  0  0
  -27.6643  -13.2006   19.8806 C   0  0  2  0  0  0
  -28.7079  -12.9641   20.9991 C   0  0  0  0  0  0
  -25.2590  -13.8144   20.5675 C   0  0  0  0  0  0
  -24.1828  -13.0436   20.9195 C   0  0  0  0  0  0
  -24.6375  -11.6894   20.8738 C   0  0  0  0  0  0
  -23.9028  -10.4278   21.0409 C   0  0  0  0  0  0
  -24.3585   -9.4200   21.9190 C   0  0  0  0  0  0
  -23.6270   -8.2232   22.0753 C   0  0  0  0  0  0
  -22.4250   -8.0267   21.3540 C   0  0  0  0  0  0
  -21.9876   -9.0242   20.4650 C   0  0  0  0  0  0
  -22.7200  -10.2127   20.3063 C   0  0  0  0  0  0
  -21.6858   -6.0724   22.5280 C   0  0  0  0  0  0
  -21.4016   -6.5633   23.8208 C   0  0  0  0  0  0
  -21.3660   -5.6788   24.9165 C   0  0  0  0  0  0
  -21.6043   -4.3051   24.7223 C   0  0  0  0  0  0
  -21.8821   -3.8145   23.4344 C   0  0  0  0  0  0
  -21.9192   -4.6955   22.3400 C   0  0  0  0  0  0
  -22.7846  -13.5249   21.1841 C   0  0  0  0  0  0
  -22.1652   -4.2143   21.0974 F   0  0  0  0  0  0
  -21.5633   -3.4534   25.7739 F   0  0  0  0  0  0
  -30.0432  -13.2646   20.4499 N   0  0  0  0  0  0
  -26.3027  -12.9313   20.3378 N   0  0  0  0  0  0
  -25.9306  -11.6467   20.5761 N   0  0  0  0  0  0
  -22.0483  -12.8251   22.0404 N   0  0  0  0  0  0
  -25.4317  -15.1867   20.4069 N   0  0  0  0  0  0
  -31.8128  -14.6607   20.0886 O   0  0  0  0  0  0
  -21.6625   -6.8867   21.4237 O   0  0  0  0  0  0
  -22.3543  -14.5560   20.6688 O   0  0  0  0  0  0
  -24.6107  -31.8714   23.2090 C   0  0  0  0  0  0
  -25.9010  -32.4833   23.8397 C   0  0  1  0  0  0
  -27.2395  -27.4605   20.0891 C   0  0  0  0  0  0
  -25.5888  -33.8634   24.2332 N   0  0  0  0  0  0
  -23.3965  -30.4932   21.5505 C   0  0  2  0  0  0
  -24.8453  -28.9512   20.1260 C   0  0  0  0  0  0
  -22.7379  -29.4700   22.5023 C   0  0  0  0  0  0
  -18.0269  -28.1378   22.8512 C   0  0  0  0  0  0
  -24.1481  -36.7325   23.2641 C   0  0  0  0  0  0
  -25.9202  -30.8438   21.3560 C   0  0  0  0  0  0
  -26.0026  -29.4733   20.7193 C   0  0  0  0  0  0
  -27.2047  -28.7310   20.7075 C   0  0  0  0  0  0
  -26.0703  -26.9464   19.4954 C   0  0  0  0  0  0
  -24.8710  -27.6839   19.5188 C   0  0  0  0  0  0
  -23.6051  -29.8132   20.1705 C   0  0  0  0  0  0
  -25.4106  -36.3119   24.0348 C   0  0  1  0  0  0
  -20.5850  -28.3664   23.1316 C   0  0  2  0  0  0
  -20.6752  -26.9416   22.5404 C   0  0  0  0  0  0
  -19.5727  -26.6402   21.5198 C   0  0  0  0  0  0
  -18.1913  -26.7927   22.1620 C   0  0  0  0  0  0
  -19.1513  -28.8839   23.2914 C   0  0  0  0  0  0
  -18.9458  -30.1449   23.8928 C   0  0  0  0  0  0
  -17.6459  -30.6593   24.0588 C   0  0  0  0  0  0
  -25.9043  -34.9478   23.5135 C   0  0  0  0  0  0
  -16.5356  -29.9100   23.6336 C   0  0  0  0  0  0
  -16.7260  -28.6513   23.0367 C   0  0  0  0  0  0
  -26.4460  -31.6596   25.0700 C   0  0  0  0  0  0
  -25.3739  -31.3711   26.1454 C   0  0  0  0  0  0
  -27.0279  -30.3041   24.6037 C   0  0  0  0  0  0
  -27.6037  -32.4303   25.7473 C   0  0  0  0  0  0
  -27.5582  -37.1813   24.8468 C   0  0  0  0  0  0
  -21.4113  -29.3045   22.3750 N   0  0  0  0  0  0
  -26.4286  -37.3806   23.9425 N   0  0  0  0  0  0
  -24.6611  -31.0818   22.0979 N   0  0  0  0  0  0
  -23.4175  -28.8283   23.3075 O   0  0  0  0  0  0
  -28.3997  -26.7393   19.9593 O   0  0  0  0  0  0
  -26.5594  -34.8920   22.4685 O   0  0  0  0  0  0
  -23.5301  -32.1453   23.7488 O   0  0  0  0  0  0
  -27.1984  -21.0903   23.3920 C   0  0  0  0  0  0
  -27.7074  -20.0326   22.6137 C   0  0  0  0  0  0
  -27.7187  -22.3896   23.2512 C   0  0  0  0  0  0
  -29.2738  -21.5751   21.5609 C   0  0  0  0  0  0
  -28.7542  -20.2573   21.6852 C   0  0  0  0  0  0
  -28.7634  -22.6430   22.3374 C   0  0  0  0  0  0
  -29.5010  -17.9308   21.3151 C   0  0  0  0  0  0
  -29.4988  -19.5141   19.4335 C   0  0  0  0  0  0
  -29.6197  -24.5750   23.4683 C   0  0  0  0  0  0
  -29.9836  -16.8396   20.3373 C   0  0  0  0  0  0
  -28.5357  -24.7288   21.2064 C   0  0  0  0  0  0
  -28.9798  -26.2077   21.0663 C   0  0  1  0  0  0
  -29.8805  -15.4763   20.8777 N   0  0  0  0  0  0
  -29.2445  -19.1916   20.8473 N   0  0  0  0  0  0
  -29.2906  -23.9395   22.1924 N   0  0  0  0  0  0
  -29.3827  -17.6124   22.5035 O   0  0  0  0  0  0
  -30.3278  -26.2763   20.9222 F   0  0  0  0  0  0
  -31.4714  -12.3997   19.1120 H   0  0  0  0  0  0
  -30.3345  -11.2788   19.8111 H   0  0  0  0  0  0
  -29.7310  -11.7740   17.4303 H   0  0  0  0  0  0
  -29.6791  -13.4877   17.7720 H   0  0  0  0  0  0
  -27.8017  -11.3233   18.7820 H   0  0  0  0  0  0
  -27.3741  -12.6846   17.7840 H   0  0  0  0  0  0
  -27.7095  -14.2504   19.5946 H   0  0  0  0  0  0
  -28.6784  -11.9249   21.3333 H   0  0  0  0  0  0
  -28.4794  -13.5634   21.8811 H   0  0  0  0  0  0
  -25.2727   -9.5698   22.4753 H   0  0  0  0  0  0
  -24.0008   -7.4625   22.7461 H   0  0  0  0  0  0
  -21.0814   -8.8739   19.8947 H   0  0  0  0  0  0
  -22.3652  -10.9656   19.6160 H   0  0  0  0  0  0
  -21.2007   -7.6143   23.9716 H   0  0  0  0  0  0
  -21.1479   -6.0505   25.9068 H   0  0  0  0  0  0
  -22.0605   -2.7604   23.2839 H   0  0  0  0  0  0
  -22.4067  -11.9916   22.4824 H   0  0  0  0  0  0
  -21.1105  -13.1300   22.2591 H   0  0  0  0  0  0
  -24.6680  -15.8449   20.5197 H   0  0  0  0  0  0
  -26.2747  -15.6166   20.0488 H   0  0  0  0  0  0
  -26.7091  -32.5586   23.1192 H   0  0  0  0  0  0
  -25.0005  -33.9804   25.0453 H   0  0  0  0  0  0
  -22.6836  -31.3091   21.4086 H   0  0  0  0  0  0
  -23.3724  -35.9675   23.3307 H   0  0  0  0  0  0
  -24.3568  -36.8923   22.2048 H   0  0  0  0  0  0
  -23.7230  -37.6540   23.6638 H   0  0  0  0  0  0
  -26.0117  -31.6049   20.5800 H   0  0  0  0  0  0
  -26.8142  -30.9100   21.9658 H   0  0  0  0  0  0
  -28.1023  -29.1462   21.1437 H   0  0  0  0  0  0
  -26.0924  -25.9841   19.0017 H   0  0  0  0  0  0
  -23.9821  -27.2768   19.0576 H   0  0  0  0  0  0
  -23.7100  -30.5786   19.4022 H   0  0  0  0  0  0
  -22.7311  -29.2269   19.8797 H   0  0  0  0  0  0
  -25.1274  -36.1992   25.0844 H   0  0  0  0  0  0
  -20.9946  -28.3213   24.1427 H   0  0  0  0  0  0
  -20.5615  -26.2300   23.3590 H   0  0  0  0  0  0
  -21.6637  -26.7465   22.1240 H   0  0  0  0  0  0
  -19.6893  -25.6312   21.1221 H   0  0  0  0  0  0
  -19.6639  -27.3218   20.6730 H   0  0  0  0  0  0
  -17.4190  -26.6688   21.4015 H   0  0  0  0  0  0
  -18.0351  -26.0042   22.8991 H   0  0  0  0  0  0
  -19.7942  -30.7271   24.2287 H   0  0  0  0  0  0
  -17.5025  -31.6276   24.5185 H   0  0  0  0  0  0
  -15.5354  -30.3019   23.7628 H   0  0  0  0  0  0
  -15.8670  -28.0839   22.7050 H   0  0  0  0  0  0
  -24.5912  -30.7047   25.7808 H   0  0  0  0  0  0
  -24.8932  -32.2864   26.4904 H   0  0  0  0  0  0
  -25.8093  -30.8897   27.0212 H   0  0  0  0  0  0
  -26.2806  -29.6803   24.1107 H   0  0  0  0  0  0
  -27.4068  -29.7270   25.4481 H   0  0  0  0  0  0
  -27.8629  -30.4374   23.9157 H   0  0  0  0  0  0
  -27.2679  -33.3596   26.2090 H   0  0  0  0  0  0
  -28.3840  -32.6864   25.0297 H   0  0  0  0  0  0
  -28.0702  -31.8393   26.5363 H   0  0  0  0  0  0
  -28.2620  -38.0097   24.7528 H   0  0  0  0  0  0
  -28.1052  -36.2625   24.6276 H   0  0  0  0  0  0
  -27.2305  -37.1465   25.8874 H   0  0  0  0  0  0
  -20.9268  -29.8769   21.6980 H   0  0  0  0  0  0
  -26.0162  -38.2883   24.1412 H   0  0  0  0  0  0
  -26.3991  -20.9024   24.0927 H   0  0  0  0  0  0
  -27.2723  -19.0483   22.7310 H   0  0  0  0  0  0
  -27.3077  -23.1906   23.8494 H   0  0  0  0  0  0
  -30.0832  -21.7761   20.8727 H   0  0  0  0  0  0
  -29.2026  -20.5286   19.1653 H   0  0  0  0  0  0
  -28.9260  -18.8640   18.7715 H   0  0  0  0  0  0
  -30.5571  -19.4122   19.1899 H   0  0  0  0  0  0
  -29.8889  -23.8385   24.2264 H   0  0  0  0  0  0
  -28.7833  -25.1644   23.8466 H   0  0  0  0  0  0
  -30.4760  -25.2397   23.3486 H   0  0  0  0  0  0
  -31.0013  -17.0752   20.0259 H   0  0  0  0  0  0
  -29.3632  -16.8437   19.4427 H   0  0  0  0  0  0
  -28.6515  -24.2456   20.2352 H   0  0  0  0  0  0
  -27.4679  -24.6959   21.4328 H   0  0  0  0  0  0
  -28.7090  -26.7659   21.9625 H   0  0  0  0  0  0
  -28.9969  -15.2366   21.3022 H   0  0  0  0  0  0
  1 25  1  0  0  0
  1 30  2  0  0  0
  1 83  1  0  0  0
  2  3  1  0  0  0
  2 25  1  0  0  0
  2 88  1  0  0  0
  2 89  1  0  0  0
  3  4  1  0  0  0
  3 90  1  0  0  0
  3 91  1  0  0  0
  4  5  1  0  0  0
  4 92  1  0  0  0
  4 93  1  0  0  0
  5  6  1  0  0  0
  5 26  1  0  0  0
  5 94  1  0  0  0
  6 25  1  0  0  0
  6 95  1  0  0  0
  6 96  1  0  0  0
  7  8  2  0  0  0
  7 26  1  0  0  0
  7 29  1  0  0  0
  8  9  1  0  0  0
  8 22  1  0  0  0
  9 10  1  0  0  0
  9 27  2  0  0  0
 10 11  2  0  0  0
 10 15  1  0  0  0
 11 12  1  0  0  0
 11 97  1  0  0  0
 12 13  2  0  0  0
 12 98  1  0  0  0
 13 14  1  0  0  0
 13 31  1  0  0  0
 14 15  2  0  0  0
 14 99  1  0  0  0
 15100  1  0  0  0
 16 17  2  0  0  0
 16 21  1  0  0  0
 16 31  1  0  0  0
 17 18  1  0  0  0
 17101  1  0  0  0
 18 19  2  0  0  0
 18102  1  0  0  0
 19 20  1  0  0  0
 19 24  1  0  0  0
 20 21  2  0  0  0
 20103  1  0  0  0
 21 23  1  0  0  0
 22 28  1  0  0  0
 22 32  2  0  0  0
 26 27  1  0  0  0
 28104  1  0  0  0
 28105  1  0  0  0
 29106  1  0  0  0
 29107  1  0  0  0
 33 34  1  0  0  0
 33 66  1  0  0  0
 33 70  2  0  0  0
 34 36  1  0  0  0
 34 59  1  0  0  0
 34108  1  0  0  0
 35 44  2  0  0  0
 35 45  1  0  0  0
 35 68  1  0  0  0
 36 56  1  0  0  0
 36109  1  0  0  0
 37 39  1  0  0  0
 37 47  1  0  0  0
 37 66  1  0  0  0
 37110  1  0  0  0
 38 43  2  0  0  0
 38 46  1  0  0  0
 38 47  1  0  0  0
 39 64  1  0  0  0
 39 67  2  0  0  0
 40 52  1  0  0  0
 40 53  2  0  0  0
 40 58  1  0  0  0
 41111  1  0  0  0
 41112  1  0  0  0
 41113  1  0  0  0
 41 48  1  0  0  0
 42 43  1  0  0  0
 42 66  1  0  0  0
 42114  1  0  0  0
 42115  1  0  0  0
 43 44  1  0  0  0
 44116  1  0  0  0
 45 46  2  0  0  0
 45117  1  0  0  0
 46118  1  0  0  0
 47119  1  0  0  0
 47120  1  0  0  0
 48 56  1  0  0  0
 48 65  1  0  0  0
 48121  1  0  0  0
 49 50  1  0  0  0
 49 53  1  0  0  0
 49 64  1  0  0  0
 49122  1  0  0  0
 50 51  1  0  0  0
 50123  1  0  0  0
 50124  1  0  0  0
 51 52  1  0  0  0
 51125  1  0  0  0
 51126  1  0  0  0
 52127  1  0  0  0
 52128  1  0  0  0
 53 54  1  0  0  0
 54 55  2  0  0  0
 54129  1  0  0  0
 55 57  1  0  0  0
 55130  1  0  0  0
 56 69  2  0  0  0
 57 58  2  0  0  0
 57131  1  0  0  0
 58132  1  0  0  0
 59 60  1  0  0  0
 59 61  1  0  0  0
 59 62  1  0  0  0
 60133  1  0  0  0
 60134  1  0  0  0
 60135  1  0  0  0
 61136  1  0  0  0
 61137  1  0  0  0
 61138  1  0  0  0
 62139  1  0  0  0
 62140  1  0  0  0
 62141  1  0  0  0
 63 65  1  0  0  0
 63142  1  0  0  0
 63143  1  0  0  0
 63144  1  0  0  0
 64145  1  0  0  0
 65146  1  0  0  0
 68 82  1  0  0  0
 71 72  2  0  0  0
 71 73  1  0  0  0
 71147  1  0  0  0
 72 75  1  0  0  0
 72148  1  0  0  0
 73 76  2  0  0  0
 73149  1  0  0  0
 74 75  2  0  0  0
 74 76  1  0  0  0
 74150  1  0  0  0
 75 84  1  0  0  0
 76 85  1  0  0  0
 77 80  1  0  0  0
 77 84  1  0  0  0
 77 86  2  0  0  0
 78 84  1  0  0  0
 78151  1  0  0  0
 78152  1  0  0  0
 78153  1  0  0  0
 79 85  1  0  0  0
 79154  1  0  0  0
 79155  1  0  0  0
 79156  1  0  0  0
 80 83  1  0  0  0
 80157  1  0  0  0
 80158  1  0  0  0
 81 82  1  0  0  0
 81 85  1  0  0  0
 81159  1  0  0  0
 81160  1  0  0  0
 82 87  1  0  0  0
 82161  1  0  0  0
 83162  1  0  0  0
M  ISO  4   1 100  68 101  82 101  83 100
M  END
> <chiral flag>
0

> <version>
0

> <s_m_source_file>
/data/baiqing/PycharmProjects/Reinvent-master-3.2/result/LINK_invent/BTK/process_docking_weight1_custom_product_contain_oxygen_bond_distance_aromatic_linkinvent_7_9_3/rearranged_h_0016.sdf

> <i_m_source_file_index>
33

> <r_mmod_Potential_Energy-OPLS-2005>
-13.2642784118652

> <r_mmod_Stretch_Energy-OPLS-2005>
39.7370986938477

> <r_mmod_Bend_Energy-OPLS-2005>
92.3260192871094

> <r_mmod_Torsional_Energy-OPLS-2005>
279.362457275391

> <r_mmod_Improper_Torsional_Energy-OPLS-2005>
12.4028778076172

> <r_mmod_Van_der_Waal_Energy-OPLS-2005>
172.144622802734

> <r_mmod_Electrostatic_Energy-OPLS-2005>
-384.004669189453

> <r_mmod_Solvation_Energy-OPLS-2005>
-235.880096435547

> <b_mmod_Minimization_Converged-OPLS-2005>
0

> <r_mmod_RMS_Derivative-OPLS-2005>
3.35587763786316

$$$$
33
                    3D
 Structure written by MMmdl.
158166  0  0  1  0            999 V2000
  -30.6808  -14.6286   20.5817 C   0  0  0  0  0  0
  -30.4344  -12.4113   19.4574 C   0  0  0  0  0  0
  -29.5090  -12.5212   18.2255 C   0  0  0  0  0  0
  -28.0327  -12.3478   18.6333 C   0  0  0  0  0  0
  -27.6521  -13.2212   19.8560 C   0  0  2  0  0  0
  -28.6888  -13.0699   20.9851 C   0  0  0  0  0  0
  -25.2556  -13.8190   20.5668 C   0  0  0  0  0  0
  -24.1826  -13.0456   20.9168 C   0  0  0  0  0  0
  -24.6399  -11.6919   20.8720 C   0  0  0  0  0  0
  -23.9076  -10.4295   21.0393 C   0  0  0  0  0  0
  -24.3624   -9.4206   21.9170 C   0  0  0  0  0  0
  -23.6294   -8.2246   22.0751 C   0  0  0  0  0  0
  -22.4277   -8.0284   21.3541 C   0  0  0  0  0  0
  -21.9910   -9.0261   20.4648 C   0  0  0  0  0  0
  -22.7250  -10.2132   20.3044 C   0  0  0  0  0  0
  -21.6845   -6.0734   22.5281 C   0  0  0  0  0  0
  -21.4025   -6.5635   23.8219 C   0  0  0  0  0  0
  -21.3660   -5.6782   24.9179 C   0  0  0  0  0  0
  -21.6044   -4.3049   24.7220 C   0  0  0  0  0  0
  -21.8818   -3.8137   23.4339 C   0  0  0  0  0  0
  -21.9197   -4.6959   22.3399 C   0  0  0  0  0  0
  -22.7843  -13.5240   21.1828 C   0  0  0  0  0  0
  -22.1663   -4.2142   21.0977 F   0  0  0  0  0  0
  -21.5621   -3.4536   25.7735 F   0  0  0  0  0  0
  -30.0114  -13.4315   20.4444 N   0  0  0  0  0  0
  -26.2979  -12.9381   20.3257 N   0  0  0  0  0  0
  -25.9321  -11.6526   20.5698 N   0  0  0  0  0  0
  -22.0487  -12.8250   22.0399 N   0  0  0  0  0  0
  -25.4278  -15.1920   20.4136 N   0  0  0  0  0  0
  -31.7955  -14.7707   20.0682 O   0  0  0  0  0  0
  -21.6643   -6.8878   21.4241 O   0  0  0  0  0  0
  -22.3522  -14.5535   20.6659 O   0  0  0  0  0  0
  -24.6265  -31.8605   23.2044 C   0  0  0  0  0  0
  -25.9114  -32.4789   23.8364 C   0  0  1  0  0  0
  -27.2195  -27.3222   20.1116 C   0  0  0  0  0  0
  -25.5936  -33.8588   24.2284 N   0  0  0  0  0  0
  -23.4184  -30.4866   21.5481 C   0  0  2  0  0  0
  -24.8624  -28.9450   20.1128 C   0  0  0  0  0  0
  -22.7471  -29.4639   22.4956 C   0  0  0  0  0  0
  -18.0287  -28.1389   22.8489 C   0  0  0  0  0  0
  -24.1484  -36.7287   23.2636 C   0  0  0  0  0  0
  -25.9610  -30.7929   21.3752 C   0  0  0  0  0  0
  -26.0338  -29.4228   20.7124 C   0  0  0  0  0  0
  -27.2170  -28.6253   20.6981 C   0  0  0  0  0  0
  -26.0191  -26.8964   19.4938 C   0  0  0  0  0  0
  -24.8566  -27.6870   19.4945 C   0  0  0  0  0  0
  -23.6317  -29.8256   20.1622 C   0  0  0  0  0  0
  -25.4113  -36.3089   24.0327 C   0  0  1  0  0  0
  -20.5887  -28.3683   23.1293 C   0  0  2  0  0  0
  -20.6779  -26.9416   22.5410 C   0  0  0  0  0  0
  -19.5754  -26.6385   21.5213 C   0  0  0  0  0  0
  -18.1930  -26.7931   22.1625 C   0  0  0  0  0  0
  -19.1540  -28.8858   23.2883 C   0  0  0  0  0  0
  -18.9461  -30.1457   23.8903 C   0  0  0  0  0  0
  -17.6462  -30.6589   24.0563 C   0  0  0  0  0  0
  -25.9055  -34.9461   23.5100 C   0  0  0  0  0  0
  -16.5354  -29.9087   23.6336 C   0  0  0  0  0  0
  -16.7275  -28.6507   23.0357 C   0  0  0  0  0  0
  -26.4493  -31.6596   25.0727 C   0  0  0  0  0  0
  -25.3723  -31.3759   26.1451 C   0  0  0  0  0  0
  -27.0325  -30.3013   24.6186 C   0  0  0  0  0  0
  -27.6051  -32.4331   25.7502 C   0  0  0  0  0  0
  -27.5586  -37.1799   24.8467 C   0  0  0  0  0  0
  -21.4192  -29.3034   22.3693 N   0  0  0  0  0  0
  -26.4294  -37.3783   23.9414 N   0  0  0  0  0  0
  -24.6873  -31.0627   22.0992 N   0  0  0  0  0  0
  -23.4205  -28.8166   23.3016 O   0  0  0  0  0  0
  -28.3394  -26.4740   20.1539 O   0  0  0  0  0  0
  -26.5616  -34.8925   22.4662 O   0  0  0  0  0  0
  -23.5435  -32.1409   23.7379 O   0  0  0  0  0  0
  -29.0541  -17.9813   21.4596 C   0  0  0  0  0  0
  -30.8349  -17.7129   19.8819 C   0  0  0  0  0  0
  -29.0392  -19.3914   21.2321 C   0  0  0  0  0  0
  -30.8330  -19.1248   19.6712 C   0  0  0  0  0  0
  -29.9805  -17.0934   20.8332 C   0  0  0  0  0  0
  -29.9681  -20.0218   20.3691 C   0  0  0  0  0  0
  -29.9079  -15.4805   22.7039 C   0  0  0  0  0  0
  -31.4550  -21.9255   19.9634 C   0  0  0  0  0  0
  -29.2905  -23.9915   20.2826 C   0  0  0  0  0  0
  -28.9575  -22.4269   20.1778 C   0  0  0  0  0  0
  -28.0998  -25.0144   20.0587 C   0  0  0  0  0  0
  -30.0727  -15.6766   21.2545 N   0  0  0  0  0  0
  -30.1017  -21.4574   20.2730 N   0  0  0  0  0  0
  -31.4766  -12.5245   19.1541 H   0  0  0  0  0  0
  -30.3708  -11.4154   19.8989 H   0  0  0  0  0  0
  -29.7804  -11.7720   17.4807 H   0  0  0  0  0  0
  -29.6489  -13.4915   17.7447 H   0  0  0  0  0  0
  -27.8809  -11.2939   18.8720 H   0  0  0  0  0  0
  -27.3737  -12.5670   17.7932 H   0  0  0  0  0  0
  -27.6760  -14.2596   19.5223 H   0  0  0  0  0  0
  -28.7032  -12.0441   21.3561 H   0  0  0  0  0  0
  -28.3862  -13.6755   21.8334 H   0  0  0  0  0  0
  -25.2772   -9.5675   22.4742 H   0  0  0  0  0  0
  -24.0000   -7.4638   22.7471 H   0  0  0  0  0  0
  -21.0832   -8.8787   19.8969 H   0  0  0  0  0  0
  -22.3711  -10.9664   19.6144 H   0  0  0  0  0  0
  -21.2033   -7.6142   23.9718 H   0  0  0  0  0  0
  -21.1476   -6.0512   25.9079 H   0  0  0  0  0  0
  -22.0597   -2.7596   23.2837 H   0  0  0  0  0  0
  -22.4125  -11.9940   22.4819 H   0  0  0  0  0  0
  -21.1098  -13.1268   22.2595 H   0  0  0  0  0  0
  -24.6628  -15.8481   20.5237 H   0  0  0  0  0  0
  -26.2874  -15.6319   20.1105 H   0  0  0  0  0  0
  -26.7175  -32.5447   23.1107 H   0  0  0  0  0  0
  -25.0103  -33.9730   25.0450 H   0  0  0  0  0  0
  -22.7115  -31.3071   21.4087 H   0  0  0  0  0  0
  -23.3761  -35.9607   23.3298 H   0  0  0  0  0  0
  -24.3586  -36.8910   22.2055 H   0  0  0  0  0  0
  -23.7222  -37.6481   23.6657 H   0  0  0  0  0  0
  -26.0969  -31.5596   20.6116 H   0  0  0  0  0  0
  -26.8406  -30.8367   22.0053 H   0  0  0  0  0  0
  -28.1175  -28.9912   21.1714 H   0  0  0  0  0  0
  -25.9380  -25.9363   19.0089 H   0  0  0  0  0  0
  -23.9577  -27.3152   19.0219 H   0  0  0  0  0  0
  -23.7532  -30.6041   19.4081 H   0  0  0  0  0  0
  -22.7497  -29.2573   19.8595 H   0  0  0  0  0  0
  -25.1296  -36.1941   25.0822 H   0  0  0  0  0  0
  -20.9980  -28.3249   24.1414 H   0  0  0  0  0  0
  -20.5687  -26.2294   23.3603 H   0  0  0  0  0  0
  -21.6645  -26.7453   22.1198 H   0  0  0  0  0  0
  -19.6917  -25.6294   21.1244 H   0  0  0  0  0  0
  -19.6687  -27.3194   20.6742 H   0  0  0  0  0  0
  -17.4200  -26.6676   21.4025 H   0  0  0  0  0  0
  -18.0334  -26.0071   22.9027 H   0  0  0  0  0  0
  -19.7936  -30.7261   24.2281 H   0  0  0  0  0  0
  -17.5022  -31.6275   24.5148 H   0  0  0  0  0  0
  -15.5360  -30.2990   23.7659 H   0  0  0  0  0  0
  -15.8673  -28.0821   22.7083 H   0  0  0  0  0  0
  -24.5887  -30.7113   25.7794 H   0  0  0  0  0  0
  -24.8914  -32.2932   26.4852 H   0  0  0  0  0  0
  -25.8031  -30.8956   27.0243 H   0  0  0  0  0  0
  -26.2899  -29.6778   24.1185 H   0  0  0  0  0  0
  -27.3998  -29.7252   25.4691 H   0  0  0  0  0  0
  -27.8784  -30.4292   23.9428 H   0  0  0  0  0  0
  -27.2662  -33.3641   26.2059 H   0  0  0  0  0  0
  -28.3874  -32.6883   25.0342 H   0  0  0  0  0  0
  -28.0698  -31.8468   26.5438 H   0  0  0  0  0  0
  -28.2602  -38.0102   24.7535 H   0  0  0  0  0  0
  -28.1087  -36.2636   24.6270 H   0  0  0  0  0  0
  -27.2309  -37.1424   25.8872 H   0  0  0  0  0  0
  -20.9378  -29.8756   21.6898 H   0  0  0  0  0  0
  -26.0177  -38.2859   24.1421 H   0  0  0  0  0  0
  -28.3454  -17.5945   22.1756 H   0  0  0  0  0  0
  -31.5691  -17.1322   19.3428 H   0  0  0  0  0  0
  -28.3414  -19.9919   21.7956 H   0  0  0  0  0  0
  -31.5561  -19.5139   18.9684 H   0  0  0  0  0  0
  -30.4377  -16.2620   23.2505 H   0  0  0  0  0  0
  -30.3075  -14.5281   23.0614 H   0  0  0  0  0  0
  -28.8589  -15.5292   22.9921 H   0  0  0  0  0  0
  -31.6434  -22.9198   20.3667 H   0  0  0  0  0  0
  -31.6303  -21.9563   18.8863 H   0  0  0  0  0  0
  -32.2121  -21.2806   20.4144 H   0  0  0  0  0  0
  -30.0483  -24.2411   19.5406 H   0  0  0  0  0  0
  -29.7398  -24.1902   21.2565 H   0  0  0  0  0  0
  -28.4485  -22.2423   19.2302 H   0  0  0  0  0  0
  -28.2304  -22.1824   20.9533 H   0  0  0  0  0  0
  -27.3131  -24.7543   20.7682 H   0  0  0  0  0  0
  -27.7086  -24.7939   19.0658 H   0  0  0  0  0  0
  1 25  1  0  0  0
  1 30  2  0  0  0
  1 82  1  0  0  0
  2  3  1  0  0  0
  2 25  1  0  0  0
  2 84  1  0  0  0
  2 85  1  0  0  0
  3  4  1  0  0  0
  3 86  1  0  0  0
  3 87  1  0  0  0
  4  5  1  0  0  0
  4 88  1  0  0  0
  4 89  1  0  0  0
  5  6  1  0  0  0
  5 26  1  0  0  0
  5 90  1  0  0  0
  6 25  1  0  0  0
  6 91  1  0  0  0
  6 92  1  0  0  0
  7  8  2  0  0  0
  7 26  1  0  0  0
  7 29  1  0  0  0
  8  9  1  0  0  0
  8 22  1  0  0  0
  9 10  1  0  0  0
  9 27  2  0  0  0
 10 11  2  0  0  0
 10 15  1  0  0  0
 11 12  1  0  0  0
 11 93  1  0  0  0
 12 13  2  0  0  0
 12 94  1  0  0  0
 13 14  1  0  0  0
 13 31  1  0  0  0
 14 15  2  0  0  0
 14 95  1  0  0  0
 15 96  1  0  0  0
 16 17  2  0  0  0
 16 21  1  0  0  0
 16 31  1  0  0  0
 17 18  1  0  0  0
 17 97  1  0  0  0
 18 19  2  0  0  0
 18 98  1  0  0  0
 19 20  1  0  0  0
 19 24  1  0  0  0
 20 21  2  0  0  0
 20 99  1  0  0  0
 21 23  1  0  0  0
 22 28  1  0  0  0
 22 32  2  0  0  0
 26 27  1  0  0  0
 28100  1  0  0  0
 28101  1  0  0  0
 29102  1  0  0  0
 29103  1  0  0  0
 33 34  1  0  0  0
 33 66  1  0  0  0
 33 70  2  0  0  0
 34 36  1  0  0  0
 34 59  1  0  0  0
 34104  1  0  0  0
 35 44  2  0  0  0
 35 45  1  0  0  0
 35 68  1  0  0  0
 36 56  1  0  0  0
 36105  1  0  0  0
 37 39  1  0  0  0
 37 47  1  0  0  0
 37 66  1  0  0  0
 37106  1  0  0  0
 38 43  2  0  0  0
 38 46  1  0  0  0
 38 47  1  0  0  0
 39 64  1  0  0  0
 39 67  2  0  0  0
 40 52  1  0  0  0
 40 53  2  0  0  0
 40 58  1  0  0  0
 41107  1  0  0  0
 41108  1  0  0  0
 41109  1  0  0  0
 41 48  1  0  0  0
 42 43  1  0  0  0
 42 66  1  0  0  0
 42110  1  0  0  0
 42111  1  0  0  0
 43 44  1  0  0  0
 44112  1  0  0  0
 45 46  2  0  0  0
 45113  1  0  0  0
 46114  1  0  0  0
 47115  1  0  0  0
 47116  1  0  0  0
 48 56  1  0  0  0
 48 65  1  0  0  0
 48117  1  0  0  0
 49 50  1  0  0  0
 49 53  1  0  0  0
 49 64  1  0  0  0
 49118  1  0  0  0
 50 51  1  0  0  0
 50119  1  0  0  0
 50120  1  0  0  0
 51 52  1  0  0  0
 51121  1  0  0  0
 51122  1  0  0  0
 52123  1  0  0  0
 52124  1  0  0  0
 53 54  1  0  0  0
 54 55  2  0  0  0
 54125  1  0  0  0
 55 57  1  0  0  0
 55126  1  0  0  0
 56 69  2  0  0  0
 57 58  2  0  0  0
 57127  1  0  0  0
 58128  1  0  0  0
 59 60  1  0  0  0
 59 61  1  0  0  0
 59 62  1  0  0  0
 60129  1  0  0  0
 60130  1  0  0  0
 60131  1  0  0  0
 61132  1  0  0  0
 61133  1  0  0  0
 61134  1  0  0  0
 62135  1  0  0  0
 62136  1  0  0  0
 62137  1  0  0  0
 63 65  1  0  0  0
 63138  1  0  0  0
 63139  1  0  0  0
 63140  1  0  0  0
 64141  1  0  0  0
 65142  1  0  0  0
 68 81  1  0  0  0
 71 73  2  0  0  0
 71 75  1  0  0  0
 71143  1  0  0  0
 72 74  1  0  0  0
 72 75  2  0  0  0
 72144  1  0  0  0
 73 76  1  0  0  0
 73145  1  0  0  0
 74 76  2  0  0  0
 74146  1  0  0  0
 75 82  1  0  0  0
 76 83  1  0  0  0
 77 82  1  0  0  0
 77147  1  0  0  0
 77148  1  0  0  0
 77149  1  0  0  0
 78 83  1  0  0  0
 78150  1  0  0  0
 78151  1  0  0  0
 78152  1  0  0  0
 79 80  1  0  0  0
 79 81  1  0  0  0
 79153  1  0  0  0
 79154  1  0  0  0
 80 83  1  0  0  0
 80155  1  0  0  0
 80156  1  0  0  0
 81157  1  0  0  0
 81158  1  0  0  0
M  ISO  4   1 100  68 101  81 101  82 100
M  END
> <chiral flag>
0

> <version>
0

> <s_m_source_file>
/data/baiqing/PycharmProjects/Reinvent-master-3.2/result/LINK_invent/BTK/process_docking_weight1_custom_product_contain_oxygen_bond_distance_aromatic_linkinvent_7_9_3/rearranged_h_0016.sdf

> <i_m_source_file_index>
34

> <r_mmod_Potential_Energy-OPLS-2005>
227.097290039062

> <r_mmod_Stretch_Energy-OPLS-2005>
89.0428237915039

> <r_mmod_Bend_Energy-OPLS-2005>
152.601806640625

> <r_mmod_Torsional_Energy-OPLS-2005>
288.566436767578

> <r_mmod_Improper_Torsional_Energy-OPLS-2005>
4.04857540130615

> <r_mmod_Van_der_Waal_Energy-OPLS-2005>
166.317947387695

> <r_mmod_Electrostatic_Energy-OPLS-2005>
-310.021820068359

> <r_mmod_Solvation_Energy-OPLS-2005>
-207.76628112793

> <b_mmod_Minimization_Converged-OPLS-2005>
0

> <r_mmod_RMS_Derivative-OPLS-2005>
1.96840369701385

$$$$
34
                    3D
 Structure written by MMmdl.
152160  0  0  1  0            999 V2000
  -30.5005  -15.0408   20.4009 C   0  0  0  0  0  0
  -30.4441  -12.6448   19.5263 C   0  0  0  0  0  0
  -29.5291  -12.5289   18.2822 C   0  0  0  0  0  0
  -28.0709  -12.2966   18.7075 C   0  0  0  0  0  0
  -27.6314  -13.2518   19.8463 C   0  0  2  0  0  0
  -28.6665  -13.3173   20.9907 C   0  0  0  0  0  0
  -25.2492  -13.8225   20.5765 C   0  0  0  0  0  0
  -24.1797  -13.0452   20.9246 C   0  0  0  0  0  0
  -24.6406  -11.6934   20.8780 C   0  0  0  0  0  0
  -23.9091  -10.4309   21.0414 C   0  0  0  0  0  0
  -24.3634   -9.4225   21.9187 C   0  0  0  0  0  0
  -23.6307   -8.2265   22.0752 C   0  0  0  0  0  0
  -22.4290   -8.0307   21.3535 C   0  0  0  0  0  0
  -21.9929   -9.0289   20.4644 C   0  0  0  0  0  0
  -22.7266  -10.2158   20.3065 C   0  0  0  0  0  0
  -21.6859   -6.0753   22.5274 C   0  0  0  0  0  0
  -21.4004   -6.5644   23.8211 C   0  0  0  0  0  0
  -21.3651   -5.6791   24.9169 C   0  0  0  0  0  0
  -21.6051   -4.3056   24.7217 C   0  0  0  0  0  0
  -21.8820   -3.8156   23.4333 C   0  0  0  0  0  0
  -21.9193   -4.6979   22.3391 C   0  0  0  0  0  0
  -22.7821  -13.5228   21.1884 C   0  0  0  0  0  0
  -22.1671   -4.2165   21.0970 F   0  0  0  0  0  0
  -21.5624   -3.4534   25.7728 F   0  0  0  0  0  0
  -29.9376  -13.7545   20.3991 N   0  0  0  0  0  0
  -26.2907  -12.9459   20.3296 N   0  0  0  0  0  0
  -25.9337  -11.6583   20.5759 N   0  0  0  0  0  0
  -22.0467  -12.8220   22.0436 N   0  0  0  0  0  0
  -25.4192  -15.1962   20.4231 N   0  0  0  0  0  0
  -31.6837  -15.1045   20.0455 O   0  0  0  0  0  0
  -21.6645   -6.8906   21.4239 O   0  0  0  0  0  0
  -22.3521  -14.5550   20.6748 O   0  0  0  0  0  0
  -24.6445  -31.8344   23.1773 C   0  0  0  0  0  0
  -25.9192  -32.4639   23.8202 C   0  0  1  0  0  0
  -27.2259  -27.0656   20.1737 C   0  0  0  0  0  0
  -25.5894  -33.8444   24.2101 N   0  0  0  0  0  0
  -23.4545  -30.4449   21.5225 C   0  0  2  0  0  0
  -24.9117  -28.8535   20.1034 C   0  0  0  0  0  0
  -22.7594  -29.4470   22.4828 C   0  0  0  0  0  0
  -18.0291  -28.1385   22.8481 C   0  0  0  0  0  0
  -24.1486  -36.7247   23.2646 C   0  0  0  0  0  0
  -26.0112  -30.6867   21.3881 C   0  0  0  0  0  0
  -26.0841  -29.2886   20.7318 C   0  0  0  0  0  0
  -27.2342  -28.4078   20.7513 C   0  0  0  0  0  0
  -26.0338  -26.7451   19.4898 C   0  0  0  0  0  0
  -24.9037  -27.6010   19.4630 C   0  0  0  0  0  0
  -23.6871  -29.7591   20.1472 C   0  0  0  0  0  0
  -25.4115  -36.2994   24.0302 C   0  0  1  0  0  0
  -20.5909  -28.3704   23.1238 C   0  0  2  0  0  0
  -20.6781  -26.9397   22.5416 C   0  0  0  0  0  0
  -19.5753  -26.6369   21.5219 C   0  0  0  0  0  0
  -18.1929  -26.7929   22.1619 C   0  0  0  0  0  0
  -19.1555  -28.8862   23.2843 C   0  0  0  0  0  0
  -18.9483  -30.1462   23.8868 C   0  0  0  0  0  0
  -17.6482  -30.6601   24.0548 C   0  0  0  0  0  0
  -25.9073  -34.9370   23.5039 C   0  0  0  0  0  0
  -16.5369  -29.9089   23.6344 C   0  0  0  0  0  0
  -16.7273  -28.6496   23.0368 C   0  0  0  0  0  0
  -26.4490  -31.6551   25.0687 C   0  0  0  0  0  0
  -25.3652  -31.3777   26.1380 C   0  0  0  0  0  0
  -27.0376  -30.2917   24.6354 C   0  0  0  0  0  0
  -27.5980  -32.4374   25.7481 C   0  0  0  0  0  0
  -27.5577  -37.1750   24.8444 C   0  0  0  0  0  0
  -21.4277  -29.3016   22.3608 N   0  0  0  0  0  0
  -26.4270  -37.3720   23.9415 N   0  0  0  0  0  0
  -24.7231  -31.0124   22.0843 N   0  0  0  0  0  0
  -23.4224  -28.8047   23.3014 O   0  0  0  0  0  0
  -28.2789  -26.0763   20.3470 O   0  0  0  0  0  0
  -26.5709  -34.8886   22.4655 O   0  0  0  0  0  0
  -23.5556  -32.1245   23.6948 O   0  0  0  0  0  0
  -29.5675  -19.0356   18.0683 C   0  0  0  0  0  0
  -29.7832  -17.8088   18.7438 C   0  0  0  0  0  0
  -29.2619  -20.2539   18.7262 C   0  0  0  0  0  0
  -29.3768  -19.0143   20.8024 C   0  0  0  0  0  0
  -29.6824  -17.6887   20.1453 C   0  0  0  0  0  0
  -29.1716  -20.3542   20.1287 C   0  0  0  0  0  0
  -29.5212  -21.8419   22.0465 C   0  0  0  0  0  0
  -28.0644  -22.9827   20.2825 C   0  0  0  0  0  0
  -28.4702  -24.5955   19.8039 C   0  0  0  0  0  0
  -29.7506  -16.2337   20.7134 N   0  0  0  0  0  0
  -28.9950  -21.7500   20.6882 N   0  0  0  0  0  0
  -31.4743  -12.8139   19.2080 H   0  0  0  0  0  0
  -30.4633  -11.7032   20.0779 H   0  0  0  0  0  0
  -29.8641  -11.7091   17.6455 H   0  0  0  0  0  0
  -29.6020  -13.4366   17.6810 H   0  0  0  0  0  0
  -27.9970  -11.2642   19.0526 H   0  0  0  0  0  0
  -27.3995  -12.3762   17.8511 H   0  0  0  0  0  0
  -27.5873  -14.2438   19.3960 H   0  0  0  0  0  0
  -28.7722  -12.3503   21.4855 H   0  0  0  0  0  0
  -28.3431  -14.0199   21.7612 H   0  0  0  0  0  0
  -25.2761   -9.5698   22.4783 H   0  0  0  0  0  0
  -24.0003   -7.4649   22.7473 H   0  0  0  0  0  0
  -21.0857   -8.8837   19.8951 H   0  0  0  0  0  0
  -22.3732  -10.9720   19.6198 H   0  0  0  0  0  0
  -21.1995   -7.6154   23.9719 H   0  0  0  0  0  0
  -21.1463   -6.0517   25.9072 H   0  0  0  0  0  0
  -22.0604   -2.7622   23.2828 H   0  0  0  0  0  0
  -22.4070  -11.9866   22.4803 H   0  0  0  0  0  0
  -21.1091  -13.1253   22.2640 H   0  0  0  0  0  0
  -24.6539  -15.8503   20.5512 H   0  0  0  0  0  0
  -26.2684  -15.6390   20.0954 H   0  0  0  0  0  0
  -26.7269  -32.5212   23.0934 H   0  0  0  0  0  0
  -24.9879  -33.9540   25.0130 H   0  0  0  0  0  0
  -22.7581  -31.2696   21.3584 H   0  0  0  0  0  0
  -23.3749  -35.9576   23.3247 H   0  0  0  0  0  0
  -24.3566  -36.8972   22.2079 H   0  0  0  0  0  0
  -23.7247  -37.6406   23.6757 H   0  0  0  0  0  0
  -26.1705  -31.4392   20.6151 H   0  0  0  0  0  0
  -26.8796  -30.7414   22.0340 H   0  0  0  0  0  0
  -28.1224  -28.7291   21.2795 H   0  0  0  0  0  0
  -25.9425  -25.7767   19.0195 H   0  0  0  0  0  0
  -24.0062  -27.2653   18.9620 H   0  0  0  0  0  0
  -23.8150  -30.5268   19.3835 H   0  0  0  0  0  0
  -22.8040  -29.1962   19.8431 H   0  0  0  0  0  0
  -25.1303  -36.1799   25.0792 H   0  0  0  0  0  0
  -20.9970  -28.3321   24.1368 H   0  0  0  0  0  0
  -20.5680  -26.2316   23.3640 H   0  0  0  0  0  0
  -21.6656  -26.7426   22.1207 H   0  0  0  0  0  0
  -19.6920  -25.6272   21.1264 H   0  0  0  0  0  0
  -19.6700  -27.3185   20.6751 H   0  0  0  0  0  0
  -17.4201  -26.6670   21.4016 H   0  0  0  0  0  0
  -18.0301  -26.0080   22.9023 H   0  0  0  0  0  0
  -19.7972  -30.7254   24.2253 H   0  0  0  0  0  0
  -17.5048  -31.6283   24.5137 H   0  0  0  0  0  0
  -15.5363  -30.2968   23.7704 H   0  0  0  0  0  0
  -15.8676  -28.0808   22.7110 H   0  0  0  0  0  0
  -24.5789  -30.7197   25.7674 H   0  0  0  0  0  0
  -24.8897  -32.2986   26.4772 H   0  0  0  0  0  0
  -25.7902  -30.8932   27.0190 H   0  0  0  0  0  0
  -26.3030  -29.6592   24.1364 H   0  0  0  0  0  0
  -27.3918  -29.7272   25.4988 H   0  0  0  0  0  0
  -27.8964  -30.4071   23.9740 H   0  0  0  0  0  0
  -27.2526  -33.3705   26.1947 H   0  0  0  0  0  0
  -28.3838  -32.6909   25.0359 H   0  0  0  0  0  0
  -28.0597  -31.8594   26.5496 H   0  0  0  0  0  0
  -28.2509  -38.0119   24.7541 H   0  0  0  0  0  0
  -28.1152  -36.2641   24.6203 H   0  0  0  0  0  0
  -27.2295  -37.1314   25.8841 H   0  0  0  0  0  0
  -20.9505  -29.8718   21.6770 H   0  0  0  0  0  0
  -26.0119  -38.2768   24.1480 H   0  0  0  0  0  0
  -29.6409  -19.0409   16.9904 H   0  0  0  0  0  0
  -29.9872  -16.9305   18.1451 H   0  0  0  0  0  0
  -29.1436  -21.1442   18.1256 H   0  0  0  0  0  0
  -29.2965  -19.0016   21.8794 H   0  0  0  0  0  0
  -30.4305  -21.2506   22.1746 H   0  0  0  0  0  0
  -28.7849  -21.4907   22.7732 H   0  0  0  0  0  0
  -29.7715  -22.8735   22.2998 H   0  0  0  0  0  0
  -27.4816  -22.5853   19.4503 H   0  0  0  0  0  0
  -27.3209  -23.0778   21.0760 H   0  0  0  0  0  0
  -28.0621  -24.6694   18.7959 H   0  0  0  0  0  0
  -29.5439  -24.5527   19.6276 H   0  0  0  0  0  0
  -28.9494  -16.0101   21.2850 H   0  0  0  0  0  0
  1 25  1  0  0  0
  1 30  2  0  0  0
  1 80  1  0  0  0
  2  3  1  0  0  0
  2 25  1  0  0  0
  2 82  1  0  0  0
  2 83  1  0  0  0
  3  4  1  0  0  0
  3 84  1  0  0  0
  3 85  1  0  0  0
  4  5  1  0  0  0
  4 86  1  0  0  0
  4 87  1  0  0  0
  5  6  1  0  0  0
  5 26  1  0  0  0
  5 88  1  0  0  0
  6 25  1  0  0  0
  6 89  1  0  0  0
  6 90  1  0  0  0
  7  8  2  0  0  0
  7 26  1  0  0  0
  7 29  1  0  0  0
  8  9  1  0  0  0
  8 22  1  0  0  0
  9 10  1  0  0  0
  9 27  2  0  0  0
 10 11  2  0  0  0
 10 15  1  0  0  0
 11 12  1  0  0  0
 11 91  1  0  0  0
 12 13  2  0  0  0
 12 92  1  0  0  0
 13 14  1  0  0  0
 13 31  1  0  0  0
 14 15  2  0  0  0
 14 93  1  0  0  0
 15 94  1  0  0  0
 16 17  2  0  0  0
 16 21  1  0  0  0
 16 31  1  0  0  0
 17 18  1  0  0  0
 17 95  1  0  0  0
 18 19  2  0  0  0
 18 96  1  0  0  0
 19 20  1  0  0  0
 19 24  1  0  0  0
 20 21  2  0  0  0
 20 97  1  0  0  0
 21 23  1  0  0  0
 22 28  1  0  0  0
 22 32  2  0  0  0
 26 27  1  0  0  0
 28 98  1  0  0  0
 28 99  1  0  0  0
 29100  1  0  0  0
 29101  1  0  0  0
 33 34  1  0  0  0
 33 66  1  0  0  0
 33 70  2  0  0  0
 34 36  1  0  0  0
 34 59  1  0  0  0
 34102  1  0  0  0
 35 44  2  0  0  0
 35 45  1  0  0  0
 35 68  1  0  0  0
 36 56  1  0  0  0
 36103  1  0  0  0
 37 39  1  0  0  0
 37 47  1  0  0  0
 37 66  1  0  0  0
 37104  1  0  0  0
 38 43  2  0  0  0
 38 46  1  0  0  0
 38 47  1  0  0  0
 39 64  1  0  0  0
 39 67  2  0  0  0
 40 52  1  0  0  0
 40 53  2  0  0  0
 40 58  1  0  0  0
 41105  1  0  0  0
 41106  1  0  0  0
 41107  1  0  0  0
 41 48  1  0  0  0
 42 43  1  0  0  0
 42 66  1  0  0  0
 42108  1  0  0  0
 42109  1  0  0  0
 43 44  1  0  0  0
 44110  1  0  0  0
 45 46  2  0  0  0
 45111  1  0  0  0
 46112  1  0  0  0
 47113  1  0  0  0
 47114  1  0  0  0
 48 56  1  0  0  0
 48 65  1  0  0  0
 48115  1  0  0  0
 49 50  1  0  0  0
 49 53  1  0  0  0
 49 64  1  0  0  0
 49116  1  0  0  0
 50 51  1  0  0  0
 50117  1  0  0  0
 50118  1  0  0  0
 51 52  1  0  0  0
 51119  1  0  0  0
 51120  1  0  0  0
 52121  1  0  0  0
 52122  1  0  0  0
 53 54  1  0  0  0
 54 55  2  0  0  0
 54123  1  0  0  0
 55 57  1  0  0  0
 55124  1  0  0  0
 56 69  2  0  0  0
 57 58  2  0  0  0
 57125  1  0  0  0
 58126  1  0  0  0
 59 60  1  0  0  0
 59 61  1  0  0  0
 59 62  1  0  0  0
 60127  1  0  0  0
 60128  1  0  0  0
 60129  1  0  0  0
 61130  1  0  0  0
 61131  1  0  0  0
 61132  1  0  0  0
 62133  1  0  0  0
 62134  1  0  0  0
 62135  1  0  0  0
 63 65  1  0  0  0
 63136  1  0  0  0
 63137  1  0  0  0
 63138  1  0  0  0
 64139  1  0  0  0
 65140  1  0  0  0
 68 79  1  0  0  0
 71 72  2  0  0  0
 71 73  1  0  0  0
 71141  1  0  0  0
 72 75  1  0  0  0
 72142  1  0  0  0
 73 76  2  0  0  0
 73143  1  0  0  0
 74 75  2  0  0  0
 74 76  1  0  0  0
 74144  1  0  0  0
 75 80  1  0  0  0
 76 81  1  0  0  0
 77 81  1  0  0  0
 77145  1  0  0  0
 77146  1  0  0  0
 77147  1  0  0  0
 78 79  1  0  0  0
 78 81  1  0  0  0
 78148  1  0  0  0
 78149  1  0  0  0
 79150  1  0  0  0
 79151  1  0  0  0
 80152  1  0  0  0
M  ISO  4   1 100  68 101  79 101  80 100
M  END
> <chiral flag>
0

> <version>
0

> <s_m_source_file>
/data/baiqing/PycharmProjects/Reinvent-master-3.2/result/LINK_invent/BTK/process_docking_weight1_custom_product_contain_oxygen_bond_distance_aromatic_linkinvent_7_9_3/rearranged_h_0016.sdf

> <i_m_source_file_index>
35

> <r_mmod_Potential_Energy-OPLS-2005>
789.398132324219

> <r_mmod_Stretch_Energy-OPLS-2005>
340.565948486328

> <r_mmod_Bend_Energy-OPLS-2005>
369.432922363281

> <r_mmod_Torsional_Energy-OPLS-2005>
245.295288085938

> <r_mmod_Improper_Torsional_Energy-OPLS-2005>
4.84483671188354

> <r_mmod_Van_der_Waal_Energy-OPLS-2005>
124.150985717773

> <r_mmod_Electrostatic_Energy-OPLS-2005>
-326.690216064453

> <r_mmod_Solvation_Energy-OPLS-2005>
-232.560958862305

> <b_mmod_Minimization_Converged-OPLS-2005>
0

> <r_mmod_RMS_Derivative-OPLS-2005>
2.9001944065094

$$$$
35
                    3D
 Structure written by MMmdl.
161169  0  0  1  0            999 V2000
  -30.7391  -14.4692   20.6267 C   0  0  0  0  0  0
  -30.4128  -12.3312   19.4178 C   0  0  0  0  0  0
  -29.4836  -12.5143   18.2031 C   0  0  0  0  0  0
  -28.0114  -12.3521   18.6210 C   0  0  0  0  0  0
  -27.6550  -13.1999   19.8683 C   0  0  2  0  0  0
  -28.6972  -13.0059   20.9933 C   0  0  0  0  0  0
  -25.2582  -13.8140   20.5673 C   0  0  0  0  0  0
  -24.1829  -13.0426   20.9177 C   0  0  0  0  0  0
  -24.6372  -11.6888   20.8736 C   0  0  0  0  0  0
  -23.9037  -10.4282   21.0407 C   0  0  0  0  0  0
  -24.3597   -9.4202   21.9186 C   0  0  0  0  0  0
  -23.6280   -8.2235   22.0757 C   0  0  0  0  0  0
  -22.4266   -8.0272   21.3542 C   0  0  0  0  0  0
  -21.9891   -9.0242   20.4643 C   0  0  0  0  0  0
  -22.7208  -10.2127   20.3052 C   0  0  0  0  0  0
  -21.6850   -6.0724   22.5275 C   0  0  0  0  0  0
  -21.4011   -6.5632   23.8206 C   0  0  0  0  0  0
  -21.3663   -5.6789   24.9172 C   0  0  0  0  0  0
  -21.6047   -4.3051   24.7224 C   0  0  0  0  0  0
  -21.8821   -3.8138   23.4346 C   0  0  0  0  0  0
  -21.9191   -4.6952   22.3400 C   0  0  0  0  0  0
  -22.7861  -13.5243   21.1836 C   0  0  0  0  0  0
  -22.1661   -4.2135   21.0979 F   0  0  0  0  0  0
  -21.5630   -3.4539   25.7741 F   0  0  0  0  0  0
  -30.0277  -13.3169   20.4457 N   0  0  0  0  0  0
  -26.2990  -12.9285   20.3337 N   0  0  0  0  0  0
  -25.9293  -11.6454   20.5760 N   0  0  0  0  0  0
  -22.0501  -12.8245   22.0398 N   0  0  0  0  0  0
  -25.4306  -15.1855   20.4073 N   0  0  0  0  0  0
  -31.8204  -14.6592   20.0586 O   0  0  0  0  0  0
  -21.6633   -6.8865   21.4236 O   0  0  0  0  0  0
  -22.3559  -14.5550   20.6683 O   0  0  0  0  0  0
  -24.6173  -31.8666   23.2106 C   0  0  0  0  0  0
  -25.9058  -32.4813   23.8404 C   0  0  1  0  0  0
  -27.2272  -27.4049   20.0979 C   0  0  0  0  0  0
  -25.5908  -33.8613   24.2328 N   0  0  0  0  0  0
  -23.4057  -30.4924   21.5514 C   0  0  2  0  0  0
  -24.8496  -28.9603   20.1114 C   0  0  0  0  0  0
  -22.7426  -29.4648   22.4980 C   0  0  0  0  0  0
  -18.0274  -28.1368   22.8485 C   0  0  0  0  0  0
  -24.1484  -36.7316   23.2636 C   0  0  0  0  0  0
  -25.9379  -30.8220   21.3701 C   0  0  0  0  0  0
  -26.0111  -29.4560   20.7151 C   0  0  0  0  0  0
  -27.1995  -28.6848   20.7078 C   0  0  0  0  0  0
  -26.0473  -26.9471   19.4625 C   0  0  0  0  0  0
  -24.8642  -27.7061   19.4827 C   0  0  0  0  0  0
  -23.6147  -29.8307   20.1636 C   0  0  0  0  0  0
  -25.4104  -36.3107   24.0334 C   0  0  1  0  0  0
  -20.5868  -28.3655   23.1305 C   0  0  2  0  0  0
  -20.6760  -26.9386   22.5413 C   0  0  0  0  0  0
  -19.5743  -26.6375   21.5203 C   0  0  0  0  0  0
  -18.1920  -26.7911   22.1612 C   0  0  0  0  0  0
  -19.1527  -28.8827   23.2890 C   0  0  0  0  0  0
  -18.9453  -30.1430   23.8900 C   0  0  0  0  0  0
  -17.6458  -30.6576   24.0556 C   0  0  0  0  0  0
  -25.9035  -34.9471   23.5132 C   0  0  0  0  0  0
  -16.5347  -29.9080   23.6322 C   0  0  0  0  0  0
  -16.7262  -28.6496   23.0343 C   0  0  0  0  0  0
  -26.4481  -31.6597   25.0740 C   0  0  0  0  0  0
  -25.3746  -31.3695   26.1489 C   0  0  0  0  0  0
  -27.0321  -30.3038   24.6130 C   0  0  0  0  0  0
  -27.6059  -32.4320   25.7495 C   0  0  0  0  0  0
  -27.5579  -37.1808   24.8462 C   0  0  0  0  0  0
  -21.4153  -29.3028   22.3722 N   0  0  0  0  0  0
  -26.4290  -37.3794   23.9407 N   0  0  0  0  0  0
  -24.6718  -31.0754   22.1019 N   0  0  0  0  0  0
  -23.4188  -28.8181   23.3022 O   0  0  0  0  0  0
  -28.3935  -26.6532   20.1474 O   0  0  0  0  0  0
  -26.5599  -34.8926   22.4694 O   0  0  0  0  0  0
  -23.5360  -32.1438   23.7485 O   0  0  0  0  0  0
  -29.5847  -18.4841   20.2048 C   0  0  0  0  0  0
  -29.7129  -19.8946   20.2228 C   0  0  0  0  0  0
  -29.4384  -19.8816   22.6304 C   0  0  0  0  0  0
  -29.3628  -17.7567   21.3977 C   0  0  0  0  0  0
  -29.6469  -20.6145   21.4394 C   0  0  0  0  0  0
  -29.2815  -18.4778   22.6122 C   0  0  0  0  0  0
  -31.0735  -22.4037   22.1701 C   0  0  0  0  0  0
  -31.2898  -15.8367   22.5435 C   0  0  0  0  0  0
  -29.1364  -16.2304   21.3600 C   0  0  0  0  0  0
  -29.2145  -24.3891   20.8219 C   0  0  0  0  0  0
  -29.2893  -22.8781   20.4404 C   0  0  0  0  0  0
  -28.3415  -25.2347   19.8610 C   0  0  0  0  0  0
  -29.8273  -22.0184   21.5094 N   0  0  0  0  0  0
  -30.3074  -15.3427   21.5740 N   0  0  0  0  0  0
  -29.0417  -17.8245   23.7749 F   0  0  0  0  0  0
  -31.4554  -12.4258   19.1095 H   0  0  0  0  0  0
  -30.3166  -11.3206   19.8187 H   0  0  0  0  0  0
  -29.7310  -11.7896   17.4265 H   0  0  0  0  0  0
  -29.6356  -13.5015   17.7630 H   0  0  0  0  0  0
  -27.8382  -11.2957   18.8302 H   0  0  0  0  0  0
  -27.3538  -12.6070   17.7894 H   0  0  0  0  0  0
  -27.6848  -14.2369   19.5428 H   0  0  0  0  0  0
  -28.6841  -11.9746   21.3477 H   0  0  0  0  0  0
  -28.4443  -13.6087   21.8651 H   0  0  0  0  0  0
  -25.2741   -9.5686   22.4761 H   0  0  0  0  0  0
  -23.9986   -7.4631   22.7487 H   0  0  0  0  0  0
  -21.0813   -8.8750   19.8957 H   0  0  0  0  0  0
  -22.3654  -10.9665   19.6163 H   0  0  0  0  0  0
  -21.2002   -7.6139   23.9703 H   0  0  0  0  0  0
  -21.1487   -6.0523   25.9074 H   0  0  0  0  0  0
  -22.0599   -2.7597   23.2852 H   0  0  0  0  0  0
  -22.4112  -11.9900   22.4772 H   0  0  0  0  0  0
  -21.1128  -13.1290   22.2619 H   0  0  0  0  0  0
  -24.6605  -15.8379   20.5078 H   0  0  0  0  0  0
  -26.2759  -15.6227   20.0647 H   0  0  0  0  0  0
  -26.7125  -32.5507   23.1165 H   0  0  0  0  0  0
  -25.0051  -33.9764   25.0466 H   0  0  0  0  0  0
  -22.6953  -31.3102   21.4142 H   0  0  0  0  0  0
  -23.3740  -35.9655   23.3313 H   0  0  0  0  0  0
  -24.3576  -36.8930   22.2050 H   0  0  0  0  0  0
  -23.7254  -37.6529   23.6650 H   0  0  0  0  0  0
  -26.0583  -31.5880   20.6031 H   0  0  0  0  0  0
  -26.8224  -30.8706   21.9931 H   0  0  0  0  0  0
  -28.0931  -29.0606   21.1867 H   0  0  0  0  0  0
  -26.0074  -26.0077   18.9322 H   0  0  0  0  0  0
  -23.9749  -27.3243   19.0009 H   0  0  0  0  0  0
  -23.7278  -30.6088   19.4078 H   0  0  0  0  0  0
  -22.7367  -29.2555   19.8631 H   0  0  0  0  0  0
  -25.1285  -36.1976   25.0829 H   0  0  0  0  0  0
  -20.9945  -28.3216   24.1432 H   0  0  0  0  0  0
  -20.5647  -26.2261   23.3605 H   0  0  0  0  0  0
  -21.6633  -26.7418   22.1216 H   0  0  0  0  0  0
  -19.6898  -25.6290   21.1226 H   0  0  0  0  0  0
  -19.6684  -27.3186   20.6735 H   0  0  0  0  0  0
  -17.4189  -26.6659   21.4014 H   0  0  0  0  0  0
  -18.0317  -26.0044   22.9000 H   0  0  0  0  0  0
  -19.7934  -30.7235   24.2277 H   0  0  0  0  0  0
  -17.5020  -31.6256   24.5153 H   0  0  0  0  0  0
  -15.5349  -30.2981   23.7646 H   0  0  0  0  0  0
  -15.8663  -28.0819   22.7050 H   0  0  0  0  0  0
  -24.5927  -30.7031   25.7835 H   0  0  0  0  0  0
  -24.8914  -32.2834   26.4946 H   0  0  0  0  0  0
  -25.8103  -30.8871   27.0245 H   0  0  0  0  0  0
  -26.2868  -29.6784   24.1194 H   0  0  0  0  0  0
  -27.4103  -29.7296   25.4598 H   0  0  0  0  0  0
  -27.8704  -30.4365   23.9288 H   0  0  0  0  0  0
  -27.2691  -33.3617   26.2092 H   0  0  0  0  0  0
  -28.3851  -32.6881   25.0306 H   0  0  0  0  0  0
  -28.0743  -31.8429   26.5390 H   0  0  0  0  0  0
  -28.2603  -38.0100   24.7510 H   0  0  0  0  0  0
  -28.1075  -36.2632   24.6295 H   0  0  0  0  0  0
  -27.2296  -37.1477   25.8867 H   0  0  0  0  0  0
  -20.9318  -29.8795   21.6984 H   0  0  0  0  0  0
  -26.0182  -38.2875   24.1410 H   0  0  0  0  0  0
  -29.6425  -17.9635   19.2593 H   0  0  0  0  0  0
  -29.8869  -20.4115   19.2901 H   0  0  0  0  0  0
  -29.3818  -20.3984   23.5773 H   0  0  0  0  0  0
  -30.8636  -22.9489   23.0917 H   0  0  0  0  0  0
  -31.6755  -23.0476   21.5277 H   0  0  0  0  0  0
  -31.6925  -21.5425   22.4297 H   0  0  0  0  0  0
  -30.8061  -16.1246   23.4759 H   0  0  0  0  0  0
  -31.8289  -16.6990   22.1484 H   0  0  0  0  0  0
  -32.0275  -15.0715   22.7931 H   0  0  0  0  0  0
  -28.3865  -15.9794   22.1118 H   0  0  0  0  0  0
  -28.6668  -16.0078   20.4023 H   0  0  0  0  0  0
  -30.2193  -24.8112   20.8571 H   0  0  0  0  0  0
  -28.8047  -24.4900   21.8277 H   0  0  0  0  0  0
  -29.8865  -22.7628   19.5340 H   0  0  0  0  0  0
  -28.2862  -22.5239   20.1957 H   0  0  0  0  0  0
  -27.3417  -24.8146   19.9546 H   0  0  0  0  0  0
  -28.6590  -25.0809   18.8288 H   0  0  0  0  0  0
  1 25  1  0  0  0
  1 30  2  0  0  0
  1 84  1  0  0  0
  2  3  1  0  0  0
  2 25  1  0  0  0
  2 86  1  0  0  0
  2 87  1  0  0  0
  3  4  1  0  0  0
  3 88  1  0  0  0
  3 89  1  0  0  0
  4  5  1  0  0  0
  4 90  1  0  0  0
  4 91  1  0  0  0
  5  6  1  0  0  0
  5 26  1  0  0  0
  5 92  1  0  0  0
  6 25  1  0  0  0
  6 93  1  0  0  0
  6 94  1  0  0  0
  7  8  2  0  0  0
  7 26  1  0  0  0
  7 29  1  0  0  0
  8  9  1  0  0  0
  8 22  1  0  0  0
  9 10  1  0  0  0
  9 27  2  0  0  0
 10 11  2  0  0  0
 10 15  1  0  0  0
 11 12  1  0  0  0
 11 95  1  0  0  0
 12 13  2  0  0  0
 12 96  1  0  0  0
 13 14  1  0  0  0
 13 31  1  0  0  0
 14 15  2  0  0  0
 14 97  1  0  0  0
 15 98  1  0  0  0
 16 17  2  0  0  0
 16 21  1  0  0  0
 16 31  1  0  0  0
 17 18  1  0  0  0
 17 99  1  0  0  0
 18 19  2  0  0  0
 18100  1  0  0  0
 19 20  1  0  0  0
 19 24  1  0  0  0
 20 21  2  0  0  0
 20101  1  0  0  0
 21 23  1  0  0  0
 22 28  1  0  0  0
 22 32  2  0  0  0
 26 27  1  0  0  0
 28102  1  0  0  0
 28103  1  0  0  0
 29104  1  0  0  0
 29105  1  0  0  0
 33 34  1  0  0  0
 33 66  1  0  0  0
 33 70  2  0  0  0
 34 36  1  0  0  0
 34 59  1  0  0  0
 34106  1  0  0  0
 35 44  2  0  0  0
 35 45  1  0  0  0
 35 68  1  0  0  0
 36 56  1  0  0  0
 36107  1  0  0  0
 37 39  1  0  0  0
 37 47  1  0  0  0
 37 66  1  0  0  0
 37108  1  0  0  0
 38 43  2  0  0  0
 38 46  1  0  0  0
 38 47  1  0  0  0
 39 64  1  0  0  0
 39 67  2  0  0  0
 40 52  1  0  0  0
 40 53  2  0  0  0
 40 58  1  0  0  0
 41109  1  0  0  0
 41110  1  0  0  0
 41111  1  0  0  0
 41 48  1  0  0  0
 42 43  1  0  0  0
 42 66  1  0  0  0
 42112  1  0  0  0
 42113  1  0  0  0
 43 44  1  0  0  0
 44114  1  0  0  0
 45 46  2  0  0  0
 45115  1  0  0  0
 46116  1  0  0  0
 47117  1  0  0  0
 47118  1  0  0  0
 48 56  1  0  0  0
 48 65  1  0  0  0
 48119  1  0  0  0
 49 50  1  0  0  0
 49 53  1  0  0  0
 49 64  1  0  0  0
 49120  1  0  0  0
 50 51  1  0  0  0
 50121  1  0  0  0
 50122  1  0  0  0
 51 52  1  0  0  0
 51123  1  0  0  0
 51124  1  0  0  0
 52125  1  0  0  0
 52126  1  0  0  0
 53 54  1  0  0  0
 54 55  2  0  0  0
 54127  1  0  0  0
 55 57  1  0  0  0
 55128  1  0  0  0
 56 69  2  0  0  0
 57 58  2  0  0  0
 57129  1  0  0  0
 58130  1  0  0  0
 59 60  1  0  0  0
 59 61  1  0  0  0
 59 62  1  0  0  0
 60131  1  0  0  0
 60132  1  0  0  0
 60133  1  0  0  0
 61134  1  0  0  0
 61135  1  0  0  0
 61136  1  0  0  0
 62137  1  0  0  0
 62138  1  0  0  0
 62139  1  0  0  0
 63 65  1  0  0  0
 63140  1  0  0  0
 63141  1  0  0  0
 63142  1  0  0  0
 64143  1  0  0  0
 65144  1  0  0  0
 68 82  1  0  0  0
 71 72  2  0  0  0
 71 74  1  0  0  0
 71145  1  0  0  0
 72 75  1  0  0  0
 72146  1  0  0  0
 73 75  2  0  0  0
 73 76  1  0  0  0
 73147  1  0  0  0
 74 76  2  0  0  0
 74 79  1  0  0  0
 75 83  1  0  0  0
 76 85  1  0  0  0
 77 83  1  0  0  0
 77148  1  0  0  0
 77149  1  0  0  0
 77150  1  0  0  0
 78 84  1  0  0  0
 78151  1  0  0  0
 78152  1  0  0  0
 78153  1  0  0  0
 79 84  1  0  0  0
 79154  1  0  0  0
 79155  1  0  0  0
 80 81  1  0  0  0
 80 82  1  0  0  0
 80156  1  0  0  0
 80157  1  0  0  0
 81 83  1  0  0  0
 81158  1  0  0  0
 81159  1  0  0  0
 82160  1  0  0  0
 82161  1  0  0  0
M  ISO  4   1 100  68 101  82 101  84 100
M  END
> <chiral flag>
0

> <version>
0

> <s_m_source_file>
/data/baiqing/PycharmProjects/Reinvent-master-3.2/result/LINK_invent/BTK/process_docking_weight1_custom_product_contain_oxygen_bond_distance_aromatic_linkinvent_7_9_3/rearranged_h_0016.sdf

> <i_m_source_file_index>
36

> <r_mmod_Potential_Energy-OPLS-2005>
108.428802490234

> <r_mmod_Stretch_Energy-OPLS-2005>
44.937442779541

> <r_mmod_Bend_Energy-OPLS-2005>
110.963203430176

> <r_mmod_Torsional_Energy-OPLS-2005>
274.612030029297

> <r_mmod_Improper_Torsional_Energy-OPLS-2005>
7.38503885269165

> <r_mmod_Van_der_Waal_Energy-OPLS-2005>
158.607894897461

> <r_mmod_Electrostatic_Energy-OPLS-2005>
-295.229187011719

> <r_mmod_Solvation_Energy-OPLS-2005>
-208.233032226562

> <b_mmod_Minimization_Converged-OPLS-2005>
0

> <r_mmod_RMS_Derivative-OPLS-2005>
1.12671661376953

$$$$
36
                    3D
 Structure written by MMmdl.
151159  0  0  1  0            999 V2000
  -30.5782  -14.8959   20.5150 C   0  0  0  0  0  0
  -30.4406  -12.5699   19.5012 C   0  0  0  0  0  0
  -29.5219  -12.5429   18.2569 C   0  0  0  0  0  0
  -28.0527  -12.3282   18.6633 C   0  0  0  0  0  0
  -27.6355  -13.2412   19.8427 C   0  0  2  0  0  0
  -28.6685  -13.2154   20.9841 C   0  0  0  0  0  0
  -25.2488  -13.8208   20.5686 C   0  0  0  0  0  0
  -24.1785  -13.0448   20.9192 C   0  0  0  0  0  0
  -24.6388  -11.6926   20.8732 C   0  0  0  0  0  0
  -23.9076  -10.4298   21.0403 C   0  0  0  0  0  0
  -24.3623   -9.4214   21.9185 C   0  0  0  0  0  0
  -23.6299   -8.2248   22.0753 C   0  0  0  0  0  0
  -22.4284   -8.0282   21.3539 C   0  0  0  0  0  0
  -21.9920   -9.0259   20.4646 C   0  0  0  0  0  0
  -22.7247  -10.2139   20.3057 C   0  0  0  0  0  0
  -21.6856   -6.0730   22.5274 C   0  0  0  0  0  0
  -21.4008   -6.5631   23.8205 C   0  0  0  0  0  0
  -21.3653   -5.6785   24.9165 C   0  0  0  0  0  0
  -21.6045   -4.3049   24.7218 C   0  0  0  0  0  0
  -21.8830   -3.8144   23.4342 C   0  0  0  0  0  0
  -21.9201   -4.6959   22.3399 C   0  0  0  0  0  0
  -22.7811  -13.5223   21.1883 C   0  0  0  0  0  0
  -22.1669   -4.2149   21.0975 F   0  0  0  0  0  0
  -21.5635   -3.4533   25.7731 F   0  0  0  0  0  0
  -29.9646  -13.6415   20.4265 N   0  0  0  0  0  0
  -26.2899  -12.9420   20.3214 N   0  0  0  0  0  0
  -25.9318  -11.6559   20.5710 N   0  0  0  0  0  0
  -22.0467  -12.8204   22.0438 N   0  0  0  0  0  0
  -25.4227  -15.1932   20.4154 N   0  0  0  0  0  0
  -31.7069  -15.0076   20.0224 O   0  0  0  0  0  0
  -21.6644   -6.8878   21.4234 O   0  0  0  0  0  0
  -22.3492  -14.5538   20.6750 O   0  0  0  0  0  0
  -24.6433  -31.8427   23.1912 C   0  0  0  0  0  0
  -25.9221  -32.4680   23.8274 C   0  0  1  0  0  0
  -27.2145  -27.1400   20.1391 C   0  0  0  0  0  0
  -25.5967  -33.8486   24.2187 N   0  0  0  0  0  0
  -23.4459  -30.4648   21.5359 C   0  0  2  0  0  0
  -24.8968  -28.8991   20.1075 C   0  0  0  0  0  0
  -22.7552  -29.4535   22.4858 C   0  0  0  0  0  0
  -18.0293  -28.1390   22.8484 C   0  0  0  0  0  0
  -24.1453  -36.7188   23.2647 C   0  0  0  0  0  0
  -26.0036  -30.7155   21.3947 C   0  0  0  0  0  0
  -26.0738  -29.3301   20.7319 C   0  0  0  0  0  0
  -27.2319  -28.4636   20.7387 C   0  0  0  0  0  0
  -26.0161  -26.8253   19.4563 C   0  0  0  0  0  0
  -24.8808  -27.6595   19.4558 C   0  0  0  0  0  0
  -23.6716  -29.7976   20.1542 C   0  0  0  0  0  0
  -25.4093  -36.2995   24.0322 C   0  0  1  0  0  0
  -20.5908  -28.3705   23.1226 C   0  0  2  0  0  0
  -20.6763  -26.9406   22.5400 C   0  0  0  0  0  0
  -19.5740  -26.6377   21.5201 C   0  0  0  0  0  0
  -18.1918  -26.7939   22.1609 C   0  0  0  0  0  0
  -19.1557  -28.8869   23.2842 C   0  0  0  0  0  0
  -18.9487  -30.1467   23.8866 C   0  0  0  0  0  0
  -17.6491  -30.6598   24.0558 C   0  0  0  0  0  0
  -25.9075  -34.9391   23.5060 C   0  0  0  0  0  0
  -16.5372  -29.9090   23.6366 C   0  0  0  0  0  0
  -16.7283  -28.6502   23.0398 C   0  0  0  0  0  0
  -26.4569  -31.6574   25.0720 C   0  0  0  0  0  0
  -25.3762  -31.3738   26.1412 C   0  0  0  0  0  0
  -27.0494  -30.2984   24.6333 C   0  0  0  0  0  0
  -27.6063  -32.4388   25.7518 C   0  0  0  0  0  0
  -27.5548  -37.1723   24.8470 C   0  0  0  0  0  0
  -21.4248  -29.3025   22.3589 N   0  0  0  0  0  0
  -26.4227  -37.3745   23.9463 N   0  0  0  0  0  0
  -24.7167  -31.0290   22.0949 N   0  0  0  0  0  0
  -23.4194  -28.8077   23.3006 O   0  0  0  0  0  0
  -28.2500  -26.1349   20.2319 O   0  0  0  0  0  0
  -26.5656  -34.8902   22.4637 O   0  0  0  0  0  0
  -23.5560  -32.1311   23.7135 O   0  0  0  0  0  0
  -29.4440  -19.9562   21.5262 C   0  0  0  0  0  0
  -29.2237  -19.4496   19.2492 C   0  0  0  0  0  0
  -29.7231  -18.5523   21.7817 C   0  0  0  0  0  0
  -29.5250  -18.0438   19.4982 C   0  0  0  0  0  0
  -29.1401  -20.4987   20.2392 C   0  0  0  0  0  0
  -29.7755  -17.4901   20.7966 C   0  0  0  0  0  0
  -28.7032  -21.9986   19.8729 C   0  0  0  0  0  0
  -28.6774  -23.2948   20.4459 C   0  0  0  0  0  0
  -29.8890  -15.7577   22.6236 C   0  0  0  0  0  0
  -27.9628  -24.6533   19.8556 C   0  0  0  0  0  0
  -29.9619  -16.0006   21.1713 N   0  0  0  0  0  0
  -31.4746  -12.7247   19.1904 H   0  0  0  0  0  0
  -30.4330  -11.6036   20.0071 H   0  0  0  0  0  0
  -29.8380  -11.7555   17.5714 H   0  0  0  0  0  0
  -29.6172  -13.4822   17.7103 H   0  0  0  0  0  0
  -27.9385  -11.2818   18.9488 H   0  0  0  0  0  0
  -27.3935  -12.4837   17.8085 H   0  0  0  0  0  0
  -27.6181  -14.2567   19.4458 H   0  0  0  0  0  0
  -28.7429  -12.2192   21.4226 H   0  0  0  0  0  0
  -28.3210  -13.8694   21.7811 H   0  0  0  0  0  0
  -25.2764   -9.5691   22.4763 H   0  0  0  0  0  0
  -24.0011   -7.4636   22.7471 H   0  0  0  0  0  0
  -21.0856   -8.8781   19.8944 H   0  0  0  0  0  0
  -22.3711  -10.9681   19.6169 H   0  0  0  0  0  0
  -21.1990   -7.6137   23.9707 H   0  0  0  0  0  0
  -21.1458   -6.0508   25.9065 H   0  0  0  0  0  0
  -22.0620   -2.7606   23.2841 H   0  0  0  0  0  0
  -22.4082  -11.9846   22.4788 H   0  0  0  0  0  0
  -21.1098  -13.1240   22.2694 H   0  0  0  0  0  0
  -24.6652  -15.8574   20.5324 H   0  0  0  0  0  0
  -26.2950  -15.6296   20.1430 H   0  0  0  0  0  0
  -26.7274  -32.5292   23.0984 H   0  0  0  0  0  0
  -25.0104  -33.9600   25.0331 H   0  0  0  0  0  0
  -22.7484  -31.2910   21.3829 H   0  0  0  0  0  0
  -23.3764  -35.9463   23.3258 H   0  0  0  0  0  0
  -24.3527  -36.8881   22.2070 H   0  0  0  0  0  0
  -23.7150  -37.6334   23.6734 H   0  0  0  0  0  0
  -26.1667  -31.4744   20.6284 H   0  0  0  0  0  0
  -26.8702  -30.7576   22.0431 H   0  0  0  0  0  0
  -28.1226  -28.7809   21.2626 H   0  0  0  0  0  0
  -25.9080  -25.8909   18.9273 H   0  0  0  0  0  0
  -23.9848  -27.3292   18.9487 H   0  0  0  0  0  0
  -23.8028  -30.5729   19.3983 H   0  0  0  0  0  0
  -22.7875  -29.2357   19.8460 H   0  0  0  0  0  0
  -25.1274  -36.1779   25.0807 H   0  0  0  0  0  0
  -21.0003  -28.3303   24.1346 H   0  0  0  0  0  0
  -20.5631  -26.2316   23.3618 H   0  0  0  0  0  0
  -21.6627  -26.7388   22.1211 H   0  0  0  0  0  0
  -19.6890  -25.6282   21.1240 H   0  0  0  0  0  0
  -19.6691  -27.3173   20.6718 H   0  0  0  0  0  0
  -17.4187  -26.6705   21.4007 H   0  0  0  0  0  0
  -18.0300  -26.0071   22.8994 H   0  0  0  0  0  0
  -19.7975  -30.7278   24.2215 H   0  0  0  0  0  0
  -17.5063  -31.6286   24.5147 H   0  0  0  0  0  0
  -15.5379  -30.2987   23.7735 H   0  0  0  0  0  0
  -15.8667  -28.0808   22.7171 H   0  0  0  0  0  0
  -24.5982  -30.7038   25.7735 H   0  0  0  0  0  0
  -24.8900  -32.2900   26.4764 H   0  0  0  0  0  0
  -25.8056  -30.8982   27.0236 H   0  0  0  0  0  0
  -26.3159  -29.6656   24.1320 H   0  0  0  0  0  0
  -27.4107  -29.7328   25.4932 H   0  0  0  0  0  0
  -27.9045  -30.4243   23.9686 H   0  0  0  0  0  0
  -27.2632  -33.3731   26.1977 H   0  0  0  0  0  0
  -28.3934  -32.6893   25.0395 H   0  0  0  0  0  0
  -28.0668  -31.8606   26.5540 H   0  0  0  0  0  0
  -28.2512  -38.0073   24.7615 H   0  0  0  0  0  0
  -28.1094  -36.2612   24.6173 H   0  0  0  0  0  0
  -27.2275  -37.1217   25.8869 H   0  0  0  0  0  0
  -20.9459  -29.8717   21.6751 H   0  0  0  0  0  0
  -26.0066  -38.2764   24.1610 H   0  0  0  0  0  0
  -29.4191  -20.6262   22.3738 H   0  0  0  0  0  0
  -29.0181  -19.7237   18.2239 H   0  0  0  0  0  0
  -29.8850  -18.3091   22.8208 H   0  0  0  0  0  0
  -29.5205  -17.3704   18.6528 H   0  0  0  0  0  0
  -28.2384  -22.0069   18.8961 H   0  0  0  0  0  0
  -29.1161  -23.4162   21.4252 H   0  0  0  0  0  0
  -30.6882  -16.2899   23.1401 H   0  0  0  0  0  0
  -30.0028  -14.7143   22.9249 H   0  0  0  0  0  0
  -28.9311  -16.0971   23.0192 H   0  0  0  0  0  0
  -26.9267  -24.4653   20.1343 H   0  0  0  0  0  0
  -27.9898  -24.5865   18.7672 H   0  0  0  0  0  0
  1 25  1  0  0  0
  1 30  2  0  0  0
  1 81  1  0  0  0
  2  3  1  0  0  0
  2 25  1  0  0  0
  2 82  1  0  0  0
  2 83  1  0  0  0
  3  4  1  0  0  0
  3 84  1  0  0  0
  3 85  1  0  0  0
  4  5  1  0  0  0
  4 86  1  0  0  0
  4 87  1  0  0  0
  5  6  1  0  0  0
  5 26  1  0  0  0
  5 88  1  0  0  0
  6 25  1  0  0  0
  6 89  1  0  0  0
  6 90  1  0  0  0
  7  8  2  0  0  0
  7 26  1  0  0  0
  7 29  1  0  0  0
  8  9  1  0  0  0
  8 22  1  0  0  0
  9 10  1  0  0  0
  9 27  2  0  0  0
 10 11  2  0  0  0
 10 15  1  0  0  0
 11 12  1  0  0  0
 11 91  1  0  0  0
 12 13  2  0  0  0
 12 92  1  0  0  0
 13 14  1  0  0  0
 13 31  1  0  0  0
 14 15  2  0  0  0
 14 93  1  0  0  0
 15 94  1  0  0  0
 16 17  2  0  0  0
 16 21  1  0  0  0
 16 31  1  0  0  0
 17 18  1  0  0  0
 17 95  1  0  0  0
 18 19  2  0  0  0
 18 96  1  0  0  0
 19 20  1  0  0  0
 19 24  1  0  0  0
 20 21  2  0  0  0
 20 97  1  0  0  0
 21 23  1  0  0  0
 22 28  1  0  0  0
 22 32  2  0  0  0
 26 27  1  0  0  0
 28 98  1  0  0  0
 28 99  1  0  0  0
 29100  1  0  0  0
 29101  1  0  0  0
 33 34  1  0  0  0
 33 66  1  0  0  0
 33 70  2  0  0  0
 34 36  1  0  0  0
 34 59  1  0  0  0
 34102  1  0  0  0
 35 44  2  0  0  0
 35 45  1  0  0  0
 35 68  1  0  0  0
 36 56  1  0  0  0
 36103  1  0  0  0
 37 39  1  0  0  0
 37 47  1  0  0  0
 37 66  1  0  0  0
 37104  1  0  0  0
 38 43  2  0  0  0
 38 46  1  0  0  0
 38 47  1  0  0  0
 39 64  1  0  0  0
 39 67  2  0  0  0
 40 52  1  0  0  0
 40 53  2  0  0  0
 40 58  1  0  0  0
 41105  1  0  0  0
 41106  1  0  0  0
 41107  1  0  0  0
 41 48  1  0  0  0
 42 43  1  0  0  0
 42 66  1  0  0  0
 42108  1  0  0  0
 42109  1  0  0  0
 43 44  1  0  0  0
 44110  1  0  0  0
 45 46  2  0  0  0
 45111  1  0  0  0
 46112  1  0  0  0
 47113  1  0  0  0
 47114  1  0  0  0
 48 56  1  0  0  0
 48 65  1  0  0  0
 48115  1  0  0  0
 49 50  1  0  0  0
 49 53  1  0  0  0
 49 64  1  0  0  0
 49116  1  0  0  0
 50 51  1  0  0  0
 50117  1  0  0  0
 50118  1  0  0  0
 51 52  1  0  0  0
 51119  1  0  0  0
 51120  1  0  0  0
 52121  1  0  0  0
 52122  1  0  0  0
 53 54  1  0  0  0
 54 55  2  0  0  0
 54123  1  0  0  0
 55 57  1  0  0  0
 55124  1  0  0  0
 56 69  2  0  0  0
 57 58  2  0  0  0
 57125  1  0  0  0
 58126  1  0  0  0
 59 60  1  0  0  0
 59 61  1  0  0  0
 59 62  1  0  0  0
 60127  1  0  0  0
 60128  1  0  0  0
 60129  1  0  0  0
 61130  1  0  0  0
 61131  1  0  0  0
 61132  1  0  0  0
 62133  1  0  0  0
 62134  1  0  0  0
 62135  1  0  0  0
 63 65  1  0  0  0
 63136  1  0  0  0
 63137  1  0  0  0
 63138  1  0  0  0
 64139  1  0  0  0
 65140  1  0  0  0
 68 80  1  0  0  0
 71 73  2  0  0  0
 71 75  1  0  0  0
 71141  1  0  0  0
 72 74  1  0  0  0
 72 75  2  0  0  0
 72142  1  0  0  0
 73 76  1  0  0  0
 73143  1  0  0  0
 74 76  2  0  0  0
 74144  1  0  0  0
 75 77  1  0  0  0
 76 81  1  0  0  0
 77 78  2  0  0  0
 77145  1  0  0  0
 78 80  1  0  0  0
 78146  1  0  0  0
 79 81  1  0  0  0
 79147  1  0  0  0
 79148  1  0  0  0
 79149  1  0  0  0
 80150  1  0  0  0
 80151  1  0  0  0
M  ISO  4   1 100  68 101  80 101  81 100
M  END
> <chiral flag>
0

> <version>
0

> <s_m_source_file>
/data/baiqing/PycharmProjects/Reinvent-master-3.2/result/LINK_invent/BTK/process_docking_weight1_custom_product_contain_oxygen_bond_distance_aromatic_linkinvent_7_9_3/rearranged_h_0016.sdf

> <i_m_source_file_index>
37

> <r_mmod_Potential_Energy-OPLS-2005>
609.430236816406

> <r_mmod_Stretch_Energy-OPLS-2005>
231.733169555664

> <r_mmod_Bend_Energy-OPLS-2005>
257.264984130859

> <r_mmod_Torsional_Energy-OPLS-2005>
278.693908691406

> <r_mmod_Improper_Torsional_Energy-OPLS-2005>
4.21409177780151

> <r_mmod_Van_der_Waal_Energy-OPLS-2005>
149.584045410156

> <r_mmod_Electrostatic_Energy-OPLS-2005>
-291.860595703125

> <r_mmod_Solvation_Energy-OPLS-2005>
-193.18473815918

> <b_mmod_Minimization_Converged-OPLS-2005>
0

> <r_mmod_RMS_Derivative-OPLS-2005>
1.22598135471344

$$$$
37
                    3D
 Structure written by MMmdl.
169178  0  0  1  0            999 V2000
  -30.6852  -14.5814   20.5318 C   0  0  0  0  0  0
  -30.4432  -12.3306   19.4902 C   0  0  0  0  0  0
  -29.5308  -12.3802   18.2401 C   0  0  0  0  0  0
  -28.0350  -12.3267   18.6229 C   0  0  0  0  0  0
  -27.6610  -13.2154   19.8488 C   0  0  2  0  0  0
  -28.6994  -13.0680   20.9844 C   0  0  0  0  0  0
  -25.2625  -13.8225   20.5725 C   0  0  0  0  0  0
  -24.1864  -13.0470   20.9092 C   0  0  0  0  0  0
  -24.6388  -11.6940   20.8646 C   0  0  0  0  0  0
  -23.9021  -10.4352   21.0319 C   0  0  0  0  0  0
  -24.3580   -9.4289   21.9116 C   0  0  0  0  0  0
  -23.6279   -8.2321   22.0758 C   0  0  0  0  0  0
  -22.4249   -8.0326   21.3578 C   0  0  0  0  0  0
  -21.9861   -9.0259   20.4652 C   0  0  0  0  0  0
  -22.7169  -10.2150   20.2991 C   0  0  0  0  0  0
  -21.6864   -6.0760   22.5272 C   0  0  0  0  0  0
  -21.4022   -6.5663   23.8206 C   0  0  0  0  0  0
  -21.3670   -5.6802   24.9160 C   0  0  0  0  0  0
  -21.6074   -4.3082   24.7181 C   0  0  0  0  0  0
  -21.8842   -3.8175   23.4301 C   0  0  0  0  0  0
  -21.9194   -4.7001   22.3372 C   0  0  0  0  0  0
  -22.7890  -13.5270   21.1719 C   0  0  0  0  0  0
  -22.1642   -4.2191   21.0935 F   0  0  0  0  0  0
  -21.5615   -3.4560   25.7685 F   0  0  0  0  0  0
  -30.0248  -13.3859   20.4381 N   0  0  0  0  0  0
  -26.3044  -12.9391   20.3254 N   0  0  0  0  0  0
  -25.9326  -11.6533   20.5662 N   0  0  0  0  0  0
  -22.0528  -12.8280   22.0273 N   0  0  0  0  0  0
  -25.4338  -15.1983   20.4388 N   0  0  0  0  0  0
  -31.8669  -14.6986   20.1874 O   0  0  0  0  0  0
  -21.6658   -6.8898   21.4249 O   0  0  0  0  0  0
  -22.3596  -14.5552   20.6545 O   0  0  0  0  0  0
  -24.6178  -31.8641   23.2122 C   0  0  0  0  0  0
  -25.9061  -32.4805   23.8417 C   0  0  1  0  0  0
  -27.2389  -27.4192   20.1077 C   0  0  0  0  0  0
  -25.5917  -33.8615   24.2347 N   0  0  0  0  0  0
  -23.4067  -30.4873   21.5518 C   0  0  2  0  0  0
  -24.8569  -28.9516   20.1192 C   0  0  0  0  0  0
  -22.7442  -29.4617   22.4995 C   0  0  0  0  0  0
  -18.0266  -28.1374   22.8475 C   0  0  0  0  0  0
  -24.1485  -36.7300   23.2645 C   0  0  0  0  0  0
  -25.9375  -30.8287   21.3689 C   0  0  0  0  0  0
  -26.0183  -29.4639   20.7129 C   0  0  0  0  0  0
  -27.2157  -28.7081   20.6951 C   0  0  0  0  0  0
  -26.0600  -26.9228   19.5135 C   0  0  0  0  0  0
  -24.8726  -27.6813   19.5176 C   0  0  0  0  0  0
  -23.6196  -29.8199   20.1676 C   0  0  0  0  0  0
  -25.4116  -36.3108   24.0337 C   0  0  1  0  0  0
  -20.5858  -28.3652   23.1298 C   0  0  2  0  0  0
  -20.6765  -26.9380   22.5417 C   0  0  0  0  0  0
  -19.5750  -26.6359   21.5214 C   0  0  0  0  0  0
  -18.1915  -26.7923   22.1581 C   0  0  0  0  0  0
  -19.1515  -28.8840   23.2881 C   0  0  0  0  0  0
  -18.9444  -30.1446   23.8877 C   0  0  0  0  0  0
  -17.6445  -30.6585   24.0544 C   0  0  0  0  0  0
  -25.9031  -34.9465   23.5141 C   0  0  0  0  0  0
  -16.5347  -29.9073   23.6345 C   0  0  0  0  0  0
  -16.7253  -28.6493   23.0369 C   0  0  0  0  0  0
  -26.4515  -31.6606   25.0744 C   0  0  0  0  0  0
  -25.3780  -31.3696   26.1480 C   0  0  0  0  0  0
  -27.0385  -30.3053   24.6137 C   0  0  0  0  0  0
  -27.6070  -32.4359   25.7513 C   0  0  0  0  0  0
  -27.5575  -37.1808   24.8458 C   0  0  0  0  0  0
  -21.4168  -29.2980   22.3701 N   0  0  0  0  0  0
  -26.4300  -37.3791   23.9406 N   0  0  0  0  0  0
  -24.6718  -31.0757   22.1012 N   0  0  0  0  0  0
  -23.4198  -28.8142   23.3034 O   0  0  0  0  0  0
  -28.3890  -26.6518   20.0950 O   0  0  0  0  0  0
  -26.5552  -34.8921   22.4666 O   0  0  0  0  0  0
  -23.5372  -32.1346   23.7516 O   0  0  0  0  0  0
  -30.4514  -18.4483   18.1666 C   0  0  0  0  0  0
  -29.8876  -18.2106   20.8996 C   0  0  0  0  0  0
  -30.2898  -17.1650   18.7264 C   0  0  0  0  0  0
  -30.0696  -17.0124   20.1306 C   0  0  0  0  0  0
  -29.9945  -19.5231   20.3223 C   0  0  0  0  0  0
  -30.3257  -19.6064   18.9468 C   0  0  0  0  0  0
  -30.0380  -15.7210   15.3457 C   0  0  0  0  0  0
  -29.1913  -23.1435   21.1133 C   0  0  0  0  0  0
  -28.4786  -24.1941   20.6083 C   0  0  0  0  0  0
  -29.0087  -21.7731   20.5831 C   0  0  0  0  0  0
  -28.8908  -15.4098   14.3986 C   0  0  0  0  0  0
  -27.6610  -15.4375   15.3120 C   0  0  0  0  0  0
  -28.1203  -16.0988   16.6154 C   0  0  0  0  0  0
  -30.5041  -20.8757   22.3658 C   0  0  0  0  0  0
  -30.3294  -15.9622   17.7905 C   0  0  0  0  0  0
  -28.4699  -25.6420   21.1261 C   0  0  0  0  0  0
  -29.5761  -16.0728   16.5508 N   0  0  0  0  0  0
  -29.9196  -15.6937   20.7426 N   0  0  0  0  0  0
  -29.8147  -20.7615   21.0700 N   0  0  0  0  0  0
  -31.2221  -15.5755   15.0340 O   0  0  0  0  0  0
  -28.1335  -21.5248   19.7471 O   0  0  0  0  0  0
  -30.5344  -20.8072   18.3508 F   0  0  0  0  0  0
  -31.4889  -12.4302   19.1958 H   0  0  0  0  0  0
  -30.3645  -11.3561   19.9747 H   0  0  0  0  0  0
  -29.7667  -11.5288   17.5986 H   0  0  0  0  0  0
  -29.7519  -13.2432   17.6204 H   0  0  0  0  0  0
  -27.8030  -11.2801   18.8328 H   0  0  0  0  0  0
  -27.4219  -12.5955   17.7614 H   0  0  0  0  0  0
  -27.6765  -14.2479   19.4984 H   0  0  0  0  0  0
  -28.7001  -12.0413   21.3513 H   0  0  0  0  0  0
  -28.4520  -13.6956   21.8420 H   0  0  0  0  0  0
  -25.2747   -9.5822   22.4662 H   0  0  0  0  0  0
  -24.0056   -7.4767   22.7497 H   0  0  0  0  0  0
  -21.0787   -8.8691   19.8974 H   0  0  0  0  0  0
  -22.3579  -10.9640   19.6072 H   0  0  0  0  0  0
  -21.2022   -7.6186   23.9701 H   0  0  0  0  0  0
  -21.1455   -6.0525   25.9049 H   0  0  0  0  0  0
  -22.0612   -2.7646   23.2734 H   0  0  0  0  0  0
  -22.4120  -11.9931   22.4682 H   0  0  0  0  0  0
  -21.1173  -13.1402   22.2416 H   0  0  0  0  0  0
  -24.6749  -15.8552   20.5892 H   0  0  0  0  0  0
  -26.3080  -15.6569   20.2179 H   0  0  0  0  0  0
  -26.7107  -32.5533   23.1183 H   0  0  0  0  0  0
  -25.0178  -33.9793   25.0551 H   0  0  0  0  0  0
  -22.6950  -31.3046   21.4129 H   0  0  0  0  0  0
  -23.3767  -35.9610   23.3306 H   0  0  0  0  0  0
  -24.3569  -36.8912   22.2054 H   0  0  0  0  0  0
  -23.7207  -37.6493   23.6663 H   0  0  0  0  0  0
  -26.0560  -31.6017   20.6102 H   0  0  0  0  0  0
  -26.8225  -30.8763   21.9913 H   0  0  0  0  0  0
  -28.1211  -29.1076   21.1331 H   0  0  0  0  0  0
  -26.0568  -25.9457   19.0510 H   0  0  0  0  0  0
  -23.9749  -27.2869   19.0599 H   0  0  0  0  0  0
  -23.7323  -30.5937   19.4090 H   0  0  0  0  0  0
  -22.7446  -29.2426   19.8663 H   0  0  0  0  0  0
  -25.1306  -36.1983   25.0832 H   0  0  0  0  0  0
  -20.9928  -28.3224   24.1425 H   0  0  0  0  0  0
  -20.5682  -26.2251   23.3602 H   0  0  0  0  0  0
  -21.6634  -26.7422   22.1185 H   0  0  0  0  0  0
  -19.6913  -25.6271   21.1230 H   0  0  0  0  0  0
  -19.6740  -27.3167   20.6749 H   0  0  0  0  0  0
  -17.4214  -26.6693   21.3958 H   0  0  0  0  0  0
  -18.0282  -26.0069   22.8962 H   0  0  0  0  0  0
  -19.7944  -30.7261   24.2213 H   0  0  0  0  0  0
  -17.5029  -31.6276   24.5124 H   0  0  0  0  0  0
  -15.5347  -30.2975   23.7710 H   0  0  0  0  0  0
  -15.8640  -28.0815   22.7103 H   0  0  0  0  0  0
  -24.5990  -30.7002   25.7816 H   0  0  0  0  0  0
  -24.8926  -32.2836   26.4919 H   0  0  0  0  0  0
  -25.8126  -30.8888   27.0252 H   0  0  0  0  0  0
  -26.2937  -29.6774   24.1227 H   0  0  0  0  0  0
  -27.4195  -29.7342   25.4619 H   0  0  0  0  0  0
  -27.8763  -30.4381   23.9284 H   0  0  0  0  0  0
  -27.2663  -33.3676   26.2069 H   0  0  0  0  0  0
  -28.3902  -32.6896   25.0347 H   0  0  0  0  0  0
  -28.0734  -31.8504   26.5457 H   0  0  0  0  0  0
  -28.2584  -38.0117   24.7530 H   0  0  0  0  0  0
  -28.1085  -36.2642   24.6281 H   0  0  0  0  0  0
  -27.2283  -37.1436   25.8859 H   0  0  0  0  0  0
  -20.9366  -29.8676   21.6874 H   0  0  0  0  0  0
  -26.0191  -38.2860   24.1462 H   0  0  0  0  0  0
  -30.6677  -18.5661   17.1121 H   0  0  0  0  0  0
  -29.6539  -18.1170   21.9494 H   0  0  0  0  0  0
  -29.8794  -23.3308   21.9254 H   0  0  0  0  0  0
  -27.8022  -24.0315   19.7834 H   0  0  0  0  0  0
  -29.0142  -14.4284   13.9382 H   0  0  0  0  0  0
  -28.8373  -16.1620   13.6088 H   0  0  0  0  0  0
  -27.3295  -14.4187   15.5235 H   0  0  0  0  0  0
  -26.8292  -15.9782   14.8616 H   0  0  0  0  0  0
  -27.7261  -15.5653   17.4830 H   0  0  0  0  0  0
  -27.7836  -17.1335   16.6820 H   0  0  0  0  0  0
  -30.7368  -19.9004   22.7907 H   0  0  0  0  0  0
  -29.9055  -21.3975   23.1154 H   0  0  0  0  0  0
  -31.4518  -21.4045   22.2573 H   0  0  0  0  0  0
  -29.7731  -15.1780   18.2702 H   0  0  0  0  0  0
  -31.3461  -15.5856   17.6522 H   0  0  0  0  0  0
  -29.3542  -25.8248   21.7360 H   0  0  0  0  0  0
  -27.6119  -25.7217   21.7963 H   0  0  0  0  0  0
  -29.0145  -15.5157   21.1481 H   0  0  0  0  0  0
  1 25  1  0  0  0
  1 30  2  0  0  0
  1 88  1  0  0  0
  2  3  1  0  0  0
  2 25  1  0  0  0
  2 93  1  0  0  0
  2 94  1  0  0  0
  3  4  1  0  0  0
  3 95  1  0  0  0
  3 96  1  0  0  0
  4  5  1  0  0  0
  4 97  1  0  0  0
  4 98  1  0  0  0
  5  6  1  0  0  0
  5 26  1  0  0  0
  5 99  1  0  0  0
  6 25  1  0  0  0
  6100  1  0  0  0
  6101  1  0  0  0
  7  8  2  0  0  0
  7 26  1  0  0  0
  7 29  1  0  0  0
  8  9  1  0  0  0
  8 22  1  0  0  0
  9 10  1  0  0  0
  9 27  2  0  0  0
 10 11  2  0  0  0
 10 15  1  0  0  0
 11 12  1  0  0  0
 11102  1  0  0  0
 12 13  2  0  0  0
 12103  1  0  0  0
 13 14  1  0  0  0
 13 31  1  0  0  0
 14 15  2  0  0  0
 14104  1  0  0  0
 15105  1  0  0  0
 16 17  2  0  0  0
 16 21  1  0  0  0
 16 31  1  0  0  0
 17 18  1  0  0  0
 17106  1  0  0  0
 18 19  2  0  0  0
 18107  1  0  0  0
 19 20  1  0  0  0
 19 24  1  0  0  0
 20 21  2  0  0  0
 20108  1  0  0  0
 21 23  1  0  0  0
 22 28  1  0  0  0
 22 32  2  0  0  0
 26 27  1  0  0  0
 28109  1  0  0  0
 28110  1  0  0  0
 29111  1  0  0  0
 29112  1  0  0  0
 33 34  1  0  0  0
 33 66  1  0  0  0
 33 70  2  0  0  0
 34 36  1  0  0  0
 34 59  1  0  0  0
 34113  1  0  0  0
 35 44  2  0  0  0
 35 45  1  0  0  0
 35 68  1  0  0  0
 36 56  1  0  0  0
 36114  1  0  0  0
 37 39  1  0  0  0
 37 47  1  0  0  0
 37 66  1  0  0  0
 37115  1  0  0  0
 38 43  2  0  0  0
 38 46  1  0  0  0
 38 47  1  0  0  0
 39 64  1  0  0  0
 39 67  2  0  0  0
 40 52  1  0  0  0
 40 53  2  0  0  0
 40 58  1  0  0  0
 41116  1  0  0  0
 41117  1  0  0  0
 41118  1  0  0  0
 41 48  1  0  0  0
 42 43  1  0  0  0
 42 66  1  0  0  0
 42119  1  0  0  0
 42120  1  0  0  0
 43 44  1  0  0  0
 44121  1  0  0  0
 45 46  2  0  0  0
 45122  1  0  0  0
 46123  1  0  0  0
 47124  1  0  0  0
 47125  1  0  0  0
 48 56  1  0  0  0
 48 65  1  0  0  0
 48126  1  0  0  0
 49 50  1  0  0  0
 49 53  1  0  0  0
 49 64  1  0  0  0
 49127  1  0  0  0
 50 51  1  0  0  0
 50128  1  0  0  0
 50129  1  0  0  0
 51 52  1  0  0  0
 51130  1  0  0  0
 51131  1  0  0  0
 52132  1  0  0  0
 52133  1  0  0  0
 53 54  1  0  0  0
 54 55  2  0  0  0
 54134  1  0  0  0
 55 57  1  0  0  0
 55135  1  0  0  0
 56 69  2  0  0  0
 57 58  2  0  0  0
 57136  1  0  0  0
 58137  1  0  0  0
 59 60  1  0  0  0
 59 61  1  0  0  0
 59 62  1  0  0  0
 60138  1  0  0  0
 60139  1  0  0  0
 60140  1  0  0  0
 61141  1  0  0  0
 61142  1  0  0  0
 61143  1  0  0  0
 62144  1  0  0  0
 62145  1  0  0  0
 62146  1  0  0  0
 63 65  1  0  0  0
 63147  1  0  0  0
 63148  1  0  0  0
 63149  1  0  0  0
 64150  1  0  0  0
 65151  1  0  0  0
 68 86  1  0  0  0
 71 73  2  0  0  0
 71 76  1  0  0  0
 71152  1  0  0  0
 72 74  2  0  0  0
 72 75  1  0  0  0
 72153  1  0  0  0
 73 74  1  0  0  0
 73 85  1  0  0  0
 74 88  1  0  0  0
 75 76  2  0  0  0
 75 89  1  0  0  0
 76 92  1  0  0  0
 77 81  1  0  0  0
 77 87  1  0  0  0
 77 90  2  0  0  0
 78 79  2  0  0  0
 78 80  1  0  0  0
 78154  1  0  0  0
 79 86  1  0  0  0
 79155  1  0  0  0
 80 89  1  0  0  0
 80 91  2  0  0  0
 81 82  1  0  0  0
 81156  1  0  0  0
 81157  1  0  0  0
 82 83  1  0  0  0
 82158  1  0  0  0
 82159  1  0  0  0
 83 87  1  0  0  0
 83160  1  0  0  0
 83161  1  0  0  0
 84 89  1  0  0  0
 84162  1  0  0  0
 84163  1  0  0  0
 84164  1  0  0  0
 85 87  1  0  0  0
 85165  1  0  0  0
 85166  1  0  0  0
 86167  1  0  0  0
 86168  1  0  0  0
 88169  1  0  0  0
M  ISO  4   1 100  68 101  86 101  88 100
M  END
> <chiral flag>
0

> <version>
0

> <s_m_source_file>
/data/baiqing/PycharmProjects/Reinvent-master-3.2/result/LINK_invent/BTK/process_docking_weight1_custom_product_contain_oxygen_bond_distance_aromatic_linkinvent_7_9_3/rearranged_h_0016.sdf

> <i_m_source_file_index>
38

> <r_mmod_Potential_Energy-OPLS-2005>
107.68815612793

> <r_mmod_Stretch_Energy-OPLS-2005>
64.5806121826172

> <r_mmod_Bend_Energy-OPLS-2005>
138.209060668945

> <r_mmod_Torsional_Energy-OPLS-2005>
363.815093994141

> <r_mmod_Improper_Torsional_Energy-OPLS-2005>
9.68157291412354

> <r_mmod_Van_der_Waal_Energy-OPLS-2005>
160.86474609375

> <r_mmod_Electrostatic_Energy-OPLS-2005>
-414.184906005859

> <r_mmod_Solvation_Energy-OPLS-2005>
-244.234710693359

> <b_mmod_Minimization_Converged-OPLS-2005>
0

> <r_mmod_RMS_Derivative-OPLS-2005>
5.84648990631104

$$$$
38
                    3D
 Structure written by MMmdl.
168176  0  0  1  0            999 V2000
  -30.7380  -14.4689   20.6032 C   0  0  0  0  0  0
  -30.4174  -12.3276   19.4093 C   0  0  0  0  0  0
  -29.4924  -12.5350   18.1962 C   0  0  0  0  0  0
  -28.0155  -12.3886   18.6083 C   0  0  0  0  0  0
  -27.6593  -13.2195   19.8717 C   0  0  2  0  0  0
  -28.7016  -13.0104   20.9900 C   0  0  0  0  0  0
  -25.2573  -13.8189   20.5644 C   0  0  0  0  0  0
  -24.1826  -13.0446   20.9153 C   0  0  0  0  0  0
  -24.6390  -11.6922   20.8730 C   0  0  0  0  0  0
  -23.9066  -10.4299   21.0413 C   0  0  0  0  0  0
  -24.3633   -9.4224   21.9197 C   0  0  0  0  0  0
  -23.6321   -8.2252   22.0754 C   0  0  0  0  0  0
  -22.4300   -8.0276   21.3548 C   0  0  0  0  0  0
  -21.9933   -9.0236   20.4645 C   0  0  0  0  0  0
  -22.7237  -10.2134   20.3063 C   0  0  0  0  0  0
  -21.6855   -6.0740   22.5285 C   0  0  0  0  0  0
  -21.4013   -6.5658   23.8215 C   0  0  0  0  0  0
  -21.3655   -5.6802   24.9182 C   0  0  0  0  0  0
  -21.6036   -4.3062   24.7218 C   0  0  0  0  0  0
  -21.8827   -3.8159   23.4329 C   0  0  0  0  0  0
  -21.9202   -4.6969   22.3394 C   0  0  0  0  0  0
  -22.7855  -13.5227   21.1804 C   0  0  0  0  0  0
  -22.1658   -4.2185   21.0959 F   0  0  0  0  0  0
  -21.5645   -3.4535   25.7713 F   0  0  0  0  0  0
  -30.0345  -13.3105   20.4378 N   0  0  0  0  0  0
  -26.3023  -12.9380   20.3348 N   0  0  0  0  0  0
  -25.9338  -11.6530   20.5790 N   0  0  0  0  0  0
  -22.0455  -12.8244   22.0350 N   0  0  0  0  0  0
  -25.4313  -15.1911   20.4029 N   0  0  0  0  0  0
  -31.8212  -14.6659   20.0407 O   0  0  0  0  0  0
  -21.6654   -6.8878   21.4243 O   0  0  0  0  0  0
  -22.3532  -14.5510   20.6611 O   0  0  0  0  0  0
  -24.6162  -31.8670   23.2087 C   0  0  0  0  0  0
  -25.9050  -32.4827   23.8393 C   0  0  1  0  0  0
  -27.2339  -27.4123   20.0921 C   0  0  0  0  0  0
  -25.5896  -33.8625   24.2328 N   0  0  0  0  0  0
  -23.4047  -30.4889   21.5513 C   0  0  2  0  0  0
  -24.8480  -28.9488   20.1154 C   0  0  0  0  0  0
  -22.7422  -29.4653   22.5004 C   0  0  0  0  0  0
  -18.0271  -28.1382   22.8503 C   0  0  0  0  0  0
  -24.1472  -36.7307   23.2644 C   0  0  0  0  0  0
  -25.9347  -30.8226   21.3657 C   0  0  0  0  0  0
  -26.0080  -29.4549   20.7119 C   0  0  0  0  0  0
  -27.1990  -28.6930   20.6980 C   0  0  0  0  0  0
  -26.0501  -26.9191   19.4968 C   0  0  0  0  0  0
  -24.8638  -27.6808   19.5082 C   0  0  0  0  0  0
  -23.6127  -29.8204   20.1660 C   0  0  0  0  0  0
  -25.4101  -36.3121   24.0344 C   0  0  1  0  0  0
  -20.5866  -28.3672   23.1326 C   0  0  2  0  0  0
  -20.6767  -26.9408   22.5436 C   0  0  0  0  0  0
  -19.5743  -26.6387   21.5233 C   0  0  0  0  0  0
  -18.1912  -26.7934   22.1630 C   0  0  0  0  0  0
  -19.1524  -28.8842   23.2911 C   0  0  0  0  0  0
  -18.9448  -30.1446   23.8926 C   0  0  0  0  0  0
  -17.6451  -30.6593   24.0569 C   0  0  0  0  0  0
  -25.9034  -34.9483   23.5145 C   0  0  0  0  0  0
  -16.5342  -29.9096   23.6324 C   0  0  0  0  0  0
  -16.7259  -28.6506   23.0359 C   0  0  0  0  0  0
  -26.4475  -31.6618   25.0733 C   0  0  0  0  0  0
  -25.3736  -31.3727   26.1484 C   0  0  0  0  0  0
  -27.0319  -30.3064   24.6122 C   0  0  0  0  0  0
  -27.6051  -32.4353   25.7481 C   0  0  0  0  0  0
  -27.5579  -37.1810   24.8470 C   0  0  0  0  0  0
  -21.4150  -29.3035   22.3738 N   0  0  0  0  0  0
  -26.4292  -37.3805   23.9410 N   0  0  0  0  0  0
  -24.6702  -31.0748   22.1000 N   0  0  0  0  0  0
  -23.4188  -28.8212   23.3065 O   0  0  0  0  0  0
  -28.4231  -26.7053   20.1171 O   0  0  0  0  0  0
  -26.5597  -34.8937   22.4703 O   0  0  0  0  0  0
  -23.5347  -32.1430   23.7470 O   0  0  0  0  0  0
  -30.1889  -19.2352   21.1728 C   0  0  0  0  0  0
  -30.2629  -17.9210   21.6909 C   0  0  0  0  0  0
  -29.5063  -17.0335   19.5722 C   0  0  0  0  0  0
  -29.8168  -19.4680   19.8316 C   0  0  0  0  0  0
  -29.9789  -16.7827   20.8878 C   0  0  0  0  0  0
  -29.4381  -18.3477   19.0510 C   0  0  0  0  0  0
  -28.0103  -21.3525   16.9047 C   0  0  0  0  0  0
  -29.8910  -23.0569   17.1309 C   0  0  0  0  0  0
  -30.4751  -15.2535   22.8192 C   0  0  0  0  0  0
  -30.0597  -20.8469   19.1865 C   0  0  0  0  0  0
  -28.2061  -24.1809   20.2955 C   0  0  0  0  0  0
  -29.1910  -22.9536   20.2174 C   0  0  0  0  0  0
  -28.5763  -25.4384   19.4462 C   0  0  0  0  0  0
  -28.6634  -22.4075   17.8161 C   0  0  0  0  0  0
  -30.1918  -15.4328   21.3893 N   0  0  0  0  0  0
  -28.9565  -21.8752   19.1883 N   0  3  1  0  0  0
  -29.0691  -18.5148   17.7608 F   0  0  0  0  0  0
  -31.4630  -12.4216   19.1046 H   0  0  0  0  0  0
  -30.3145  -11.3135   19.7979 H   0  0  0  0  0  0
  -29.7367  -11.8288   17.4003 H   0  0  0  0  0  0
  -29.6552  -13.5281   17.7775 H   0  0  0  0  0  0
  -27.8255  -11.3307   18.7887 H   0  0  0  0  0  0
  -27.3688  -12.6789   17.7779 H   0  0  0  0  0  0
  -27.6947  -14.2702   19.5829 H   0  0  0  0  0  0
  -28.6787  -11.9781   21.3418 H   0  0  0  0  0  0
  -28.4487  -13.6191   21.8582 H   0  0  0  0  0  0
  -25.2775   -9.5747   22.4765 H   0  0  0  0  0  0
  -24.0051   -7.4661   22.7474 H   0  0  0  0  0  0
  -21.0857   -8.8734   19.8947 H   0  0  0  0  0  0
  -22.3670  -10.9671   19.6179 H   0  0  0  0  0  0
  -21.1993   -7.6174   23.9729 H   0  0  0  0  0  0
  -21.1480   -6.0530   25.9088 H   0  0  0  0  0  0
  -22.0614   -2.7625   23.2810 H   0  0  0  0  0  0
  -22.4034  -11.9940   22.4849 H   0  0  0  0  0  0
  -21.1053  -13.1322   22.2425 H   0  0  0  0  0  0
  -24.6750  -15.8591   20.5078 H   0  0  0  0  0  0
  -26.3012  -15.6210   20.1164 H   0  0  0  0  0  0
  -26.7125  -32.5521   23.1159 H   0  0  0  0  0  0
  -25.0065  -33.9791   25.0489 H   0  0  0  0  0  0
  -22.6951  -31.3064   21.4123 H   0  0  0  0  0  0
  -23.3749  -35.9626   23.3323 H   0  0  0  0  0  0
  -24.3564  -36.8903   22.2055 H   0  0  0  0  0  0
  -23.7205  -37.6510   23.6643 H   0  0  0  0  0  0
  -26.0524  -31.5875   20.5967 H   0  0  0  0  0  0
  -26.8214  -30.8744   21.9856 H   0  0  0  0  0  0
  -28.0970  -29.0835   21.1572 H   0  0  0  0  0  0
  -26.0178  -25.9476   19.0273 H   0  0  0  0  0  0
  -23.9688  -27.2824   19.0516 H   0  0  0  0  0  0
  -23.7258  -30.5960   19.4073 H   0  0  0  0  0  0
  -22.7340  -29.2457   19.8681 H   0  0  0  0  0  0
  -25.1278  -36.2001   25.0841 H   0  0  0  0  0  0
  -20.9946  -28.3240   24.1448 H   0  0  0  0  0  0
  -20.5679  -26.2283   23.3627 H   0  0  0  0  0  0
  -21.6631  -26.7458   22.1214 H   0  0  0  0  0  0
  -19.6902  -25.6299   21.1253 H   0  0  0  0  0  0
  -19.6682  -27.3211   20.6769 H   0  0  0  0  0  0
  -17.4196  -26.6706   21.4011 H   0  0  0  0  0  0
  -18.0283  -26.0060   22.9003 H   0  0  0  0  0  0
  -19.7925  -30.7249   24.2314 H   0  0  0  0  0  0
  -17.5009  -31.6275   24.5166 H   0  0  0  0  0  0
  -15.5346  -30.3016   23.7622 H   0  0  0  0  0  0
  -15.8655  -28.0830   22.7078 H   0  0  0  0  0  0
  -24.5896  -30.7095   25.7817 H   0  0  0  0  0  0
  -24.8939  -32.2880   26.4956 H   0  0  0  0  0  0
  -25.8077  -30.8873   27.0233 H   0  0  0  0  0  0
  -26.2867  -29.6816   24.1183 H   0  0  0  0  0  0
  -27.4106  -29.7319   25.4586 H   0  0  0  0  0  0
  -27.8694  -30.4401   23.9269 H   0  0  0  0  0  0
  -27.2675  -33.3649   26.2077 H   0  0  0  0  0  0
  -28.3832  -32.6930   25.0283 H   0  0  0  0  0  0
  -28.0757  -31.8477   26.5375 H   0  0  0  0  0  0
  -28.2624  -38.0086   24.7516 H   0  0  0  0  0  0
  -28.1053  -36.2622   24.6302 H   0  0  0  0  0  0
  -27.2300  -37.1470   25.8878 H   0  0  0  0  0  0
  -20.9325  -29.8751   21.6947 H   0  0  0  0  0  0
  -26.0193  -38.2890   24.1411 H   0  0  0  0  0  0
  -30.5022  -20.0621   21.7942 H   0  0  0  0  0  0
  -30.6203  -17.8111   22.7045 H   0  0  0  0  0  0
  -29.2380  -16.2177   18.9186 H   0  0  0  0  0  0
  -27.6917  -21.7998   15.9623 H   0  0  0  0  0  0
  -27.1238  -20.9112   17.3636 H   0  0  0  0  0  0
  -28.6946  -20.5483   16.6451 H   0  0  0  0  0  0
  -29.5870  -23.6146   16.2442 H   0  0  0  0  0  0
  -30.6269  -22.3255   16.7984 H   0  0  0  0  0  0
  -30.4086  -23.7581   17.7809 H   0  0  0  0  0  0
  -29.8092  -15.8470   23.4445 H   0  0  0  0  0  0
  -31.5038  -15.5468   23.0324 H   0  0  0  0  0  0
  -30.3655  -14.2148   23.1363 H   0  0  0  0  0  0
  -30.3842  -20.6281   18.1718 H   0  0  0  0  0  0
  -30.9499  -21.2751   19.6453 H   0  0  0  0  0  0
  -28.2319  -24.5135   21.3340 H   0  0  0  0  0  0
  -27.1714  -23.8805   20.1296 H   0  0  0  0  0  0
  -29.1613  -22.4456   21.1828 H   0  0  0  0  0  0
  -30.2083  -23.3368   20.1316 H   0  0  0  0  0  0
  -28.0847  -25.4328   18.4743 H   0  0  0  0  0  0
  -29.6397  -25.3952   19.2168 H   0  0  0  0  0  0
  -27.9033  -23.1797   17.9191 H   0  0  0  0  0  0
  -28.1209  -21.3871   19.4798 H   0  0  0  0  0  0
  1 25  1  0  0  0
  1 30  2  0  0  0
  1 85  1  0  0  0
  2  3  1  0  0  0
  2 25  1  0  0  0
  2 88  1  0  0  0
  2 89  1  0  0  0
  3  4  1  0  0  0
  3 90  1  0  0  0
  3 91  1  0  0  0
  4  5  1  0  0  0
  4 92  1  0  0  0
  4 93  1  0  0  0
  5  6  1  0  0  0
  5 26  1  0  0  0
  5 94  1  0  0  0
  6 25  1  0  0  0
  6 95  1  0  0  0
  6 96  1  0  0  0
  7  8  2  0  0  0
  7 26  1  0  0  0
  7 29  1  0  0  0
  8  9  1  0  0  0
  8 22  1  0  0  0
  9 10  1  0  0  0
  9 27  2  0  0  0
 10 11  2  0  0  0
 10 15  1  0  0  0
 11 12  1  0  0  0
 11 97  1  0  0  0
 12 13  2  0  0  0
 12 98  1  0  0  0
 13 14  1  0  0  0
 13 31  1  0  0  0
 14 15  2  0  0  0
 14 99  1  0  0  0
 15100  1  0  0  0
 16 17  2  0  0  0
 16 21  1  0  0  0
 16 31  1  0  0  0
 17 18  1  0  0  0
 17101  1  0  0  0
 18 19  2  0  0  0
 18102  1  0  0  0
 19 20  1  0  0  0
 19 24  1  0  0  0
 20 21  2  0  0  0
 20103  1  0  0  0
 21 23  1  0  0  0
 22 28  1  0  0  0
 22 32  2  0  0  0
 26 27  1  0  0  0
 28104  1  0  0  0
 28105  1  0  0  0
 29106  1  0  0  0
 29107  1  0  0  0
 33 34  1  0  0  0
 33 66  1  0  0  0
 33 70  2  0  0  0
 34 36  1  0  0  0
 34 59  1  0  0  0
 34108  1  0  0  0
 35 44  2  0  0  0
 35 45  1  0  0  0
 35 68  1  0  0  0
 36 56  1  0  0  0
 36109  1  0  0  0
 37 39  1  0  0  0
 37 47  1  0  0  0
 37 66  1  0  0  0
 37110  1  0  0  0
 38 43  2  0  0  0
 38 46  1  0  0  0
 38 47  1  0  0  0
 39 64  1  0  0  0
 39 67  2  0  0  0
 40 52  1  0  0  0
 40 53  2  0  0  0
 40 58  1  0  0  0
 41111  1  0  0  0
 41112  1  0  0  0
 41113  1  0  0  0
 41 48  1  0  0  0
 42 43  1  0  0  0
 42 66  1  0  0  0
 42114  1  0  0  0
 42115  1  0  0  0
 43 44  1  0  0  0
 44116  1  0  0  0
 45 46  2  0  0  0
 45117  1  0  0  0
 46118  1  0  0  0
 47119  1  0  0  0
 47120  1  0  0  0
 48 56  1  0  0  0
 48 65  1  0  0  0
 48121  1  0  0  0
 49 50  1  0  0  0
 49 53  1  0  0  0
 49 64  1  0  0  0
 49122  1  0  0  0
 50 51  1  0  0  0
 50123  1  0  0  0
 50124  1  0  0  0
 51 52  1  0  0  0
 51125  1  0  0  0
 51126  1  0  0  0
 52127  1  0  0  0
 52128  1  0  0  0
 53 54  1  0  0  0
 54 55  2  0  0  0
 54129  1  0  0  0
 55 57  1  0  0  0
 55130  1  0  0  0
 56 69  2  0  0  0
 57 58  2  0  0  0
 57131  1  0  0  0
 58132  1  0  0  0
 59 60  1  0  0  0
 59 61  1  0  0  0
 59 62  1  0  0  0
 60133  1  0  0  0
 60134  1  0  0  0
 60135  1  0  0  0
 61136  1  0  0  0
 61137  1  0  0  0
 61138  1  0  0  0
 62139  1  0  0  0
 62140  1  0  0  0
 62141  1  0  0  0
 63 65  1  0  0  0
 63142  1  0  0  0
 63143  1  0  0  0
 63144  1  0  0  0
 64145  1  0  0  0
 65146  1  0  0  0
 68 83  1  0  0  0
 71 72  2  0  0  0
 71 74  1  0  0  0
 71147  1  0  0  0
 72 75  1  0  0  0
 72148  1  0  0  0
 73 75  2  0  0  0
 73 76  1  0  0  0
 73149  1  0  0  0
 74 76  2  0  0  0
 74 80  1  0  0  0
 75 85  1  0  0  0
 76 87  1  0  0  0
 77150  1  0  0  0
 77151  1  0  0  0
 77152  1  0  0  0
 77 84  1  0  0  0
 78 84  1  0  0  0
 78153  1  0  0  0
 78154  1  0  0  0
 78155  1  0  0  0
 79 85  1  0  0  0
 79156  1  0  0  0
 79157  1  0  0  0
 79158  1  0  0  0
 80159  1  0  0  0
 80160  1  0  0  0
 80 86  1  0  0  0
 81 82  1  0  0  0
 81 83  1  0  0  0
 81161  1  0  0  0
 81162  1  0  0  0
 82 86  1  0  0  0
 82163  1  0  0  0
 82164  1  0  0  0
 83165  1  0  0  0
 83166  1  0  0  0
 84 86  1  0  0  0
 84167  1  0  0  0
 86168  1  0  0  0
M  CHG  1  86   1
M  ISO  4   1 100  68 101  83 101  85 100
M  END
> <chiral flag>
0

> <version>
0

> <s_m_source_file>
/data/baiqing/PycharmProjects/Reinvent-master-3.2/result/LINK_invent/BTK/process_docking_weight1_custom_product_contain_oxygen_bond_distance_aromatic_linkinvent_7_9_3/rearranged_h_0016.sdf

> <i_m_source_file_index>
39

> <r_mmod_Potential_Energy-OPLS-2005>
67.1157379150391

> <r_mmod_Stretch_Energy-OPLS-2005>
53.0094184875488

> <r_mmod_Bend_Energy-OPLS-2005>
137.037155151367

> <r_mmod_Torsional_Energy-OPLS-2005>
303.255493164062

> <r_mmod_Improper_Torsional_Energy-OPLS-2005>
5.17693471908569

> <r_mmod_Van_der_Waal_Energy-OPLS-2005>
158.303558349609

> <r_mmod_Electrostatic_Energy-OPLS-2005>
-183.041168212891

> <r_mmod_Solvation_Energy-OPLS-2005>
-420.074859619141

> <b_mmod_Minimization_Converged-OPLS-2005>
0

> <r_mmod_RMS_Derivative-OPLS-2005>
3.32747912406921

$$$$
39
                    3D
 Structure written by MMmdl.
159167  0  0  1  0            999 V2000
  -30.7238  -14.4715   20.5782 C   0  0  0  0  0  0
  -30.4188  -12.3130   19.4181 C   0  0  0  0  0  0
  -29.4908  -12.5049   18.2013 C   0  0  0  0  0  0
  -28.0146  -12.3637   18.6187 C   0  0  0  0  0  0
  -27.6590  -13.2104   19.8693 C   0  0  2  0  0  0
  -28.7035  -13.0121   20.9925 C   0  0  0  0  0  0
  -25.2571  -13.8158   20.5652 C   0  0  0  0  0  0
  -24.1835  -13.0434   20.9180 C   0  0  0  0  0  0
  -24.6396  -11.6905   20.8737 C   0  0  0  0  0  0
  -23.9053  -10.4303   21.0409 C   0  0  0  0  0  0
  -24.3612   -9.4214   21.9174 C   0  0  0  0  0  0
  -23.6299   -8.2244   22.0749 C   0  0  0  0  0  0
  -22.4279   -8.0272   21.3548 C   0  0  0  0  0  0
  -21.9902   -9.0243   20.4652 C   0  0  0  0  0  0
  -22.7223  -10.2129   20.3058 C   0  0  0  0  0  0
  -21.6852   -6.0732   22.5277 C   0  0  0  0  0  0
  -21.4018   -6.5639   23.8209 C   0  0  0  0  0  0
  -21.3663   -5.6796   24.9174 C   0  0  0  0  0  0
  -21.6046   -4.3056   24.7228 C   0  0  0  0  0  0
  -21.8822   -3.8143   23.4353 C   0  0  0  0  0  0
  -21.9201   -4.6964   22.3404 C   0  0  0  0  0  0
  -22.7862  -13.5222   21.1862 C   0  0  0  0  0  0
  -22.1666   -4.2139   21.0989 F   0  0  0  0  0  0
  -21.5626   -3.4542   25.7749 F   0  0  0  0  0  0
  -30.0318  -13.3092   20.4308 N   0  0  0  0  0  0
  -26.3020  -12.9339   20.3352 N   0  0  0  0  0  0
  -25.9327  -11.6498   20.5762 N   0  0  0  0  0  0
  -22.0527  -12.8205   22.0428 N   0  0  0  0  0  0
  -25.4278  -15.1871   20.4030 N   0  0  0  0  0  0
  -31.8625  -14.6269   20.1257 O   0  0  0  0  0  0
  -21.6641   -6.8868   21.4240 O   0  0  0  0  0  0
  -22.3541  -14.5527   20.6725 O   0  0  0  0  0  0
  -24.6177  -31.8671   23.2093 C   0  0  0  0  0  0
  -25.9055  -32.4817   23.8397 C   0  0  1  0  0  0
  -27.2226  -27.3989   20.0848 C   0  0  0  0  0  0
  -25.5913  -33.8620   24.2325 N   0  0  0  0  0  0
  -23.4058  -30.4931   21.5523 C   0  0  2  0  0  0
  -24.8481  -28.9634   20.1110 C   0  0  0  0  0  0
  -22.7418  -29.4661   22.4982 C   0  0  0  0  0  0
  -18.0275  -28.1364   22.8498 C   0  0  0  0  0  0
  -24.1492  -36.7315   23.2640 C   0  0  0  0  0  0
  -25.9409  -30.8190   21.3706 C   0  0  0  0  0  0
  -26.0128  -29.4528   20.7131 C   0  0  0  0  0  0
  -27.1994  -28.6765   20.7017 C   0  0  0  0  0  0
  -26.0368  -26.9533   19.4476 C   0  0  0  0  0  0
  -24.8569  -27.7138   19.4746 C   0  0  0  0  0  0
  -23.6130  -29.8321   20.1664 C   0  0  0  0  0  0
  -25.4113  -36.3110   24.0338 C   0  0  1  0  0  0
  -20.5868  -28.3660   23.1305 C   0  0  2  0  0  0
  -20.6767  -26.9396   22.5402 C   0  0  0  0  0  0
  -19.5743  -26.6379   21.5199 C   0  0  0  0  0  0
  -18.1922  -26.7915   22.1618 C   0  0  0  0  0  0
  -19.1527  -28.8828   23.2902 C   0  0  0  0  0  0
  -18.9451  -30.1437   23.8910 C   0  0  0  0  0  0
  -17.6457  -30.6579   24.0559 C   0  0  0  0  0  0
  -25.9042  -34.9475   23.5118 C   0  0  0  0  0  0
  -16.5347  -29.9073   23.6331 C   0  0  0  0  0  0
  -16.7266  -28.6485   23.0363 C   0  0  0  0  0  0
  -26.4480  -31.6605   25.0729 C   0  0  0  0  0  0
  -25.3750  -31.3721   26.1480 C   0  0  0  0  0  0
  -27.0314  -30.3045   24.6129 C   0  0  0  0  0  0
  -27.6065  -32.4335   25.7475 C   0  0  0  0  0  0
  -27.5585  -37.1806   24.8467 C   0  0  0  0  0  0
  -21.4144  -29.3031   22.3710 N   0  0  0  0  0  0
  -26.4301  -37.3785   23.9402 N   0  0  0  0  0  0
  -24.6736  -31.0744   22.1014 N   0  0  0  0  0  0
  -23.4183  -28.8189   23.3023 O   0  0  0  0  0  0
  -28.3782  -26.6259   20.1288 O   0  0  0  0  0  0
  -26.5599  -34.8919   22.4681 O   0  0  0  0  0  0
  -23.5365  -32.1450   23.7457 O   0  0  0  0  0  0
  -29.9670  -17.9584   20.6845 C   0  0  0  0  0  0
  -31.6358  -19.4170   21.7032 C   0  0  0  0  0  0
  -31.6544  -17.0205   22.1755 C   0  0  0  0  0  0
  -30.5127  -19.2607   20.8601 C   0  0  0  0  0  0
  -30.5545  -16.8271   21.3104 C   0  0  0  0  0  0
  -32.1874  -18.3087   22.3745 C   0  0  0  0  0  0
  -28.9670  -21.4839   22.1350 C   0  0  0  0  0  0
  -29.9457  -20.4682   20.0882 C   0  0  0  0  0  0
  -29.2506  -24.2647   20.4894 C   0  0  0  0  0  0
  -29.0433  -22.7830   20.0315 C   0  0  0  0  0  0
  -28.2801  -25.2283   19.7564 C   0  0  0  0  0  0
  -30.0360  -15.5121   21.0942 N   0  0  0  0  0  0
  -29.7038  -21.7272   20.8678 N   0  3  1  0  0  0
  -33.5283  -18.5317   23.4371 Cl  0  0  0  0  0  0
  -31.4635  -12.4034   19.1145 H   0  0  0  0  0  0
  -30.3164  -11.3053   19.8234 H   0  0  0  0  0  0
  -29.7310  -11.7800   17.4232 H   0  0  0  0  0  0
  -29.6546  -13.4892   17.7601 H   0  0  0  0  0  0
  -27.8277  -11.3097   18.8222 H   0  0  0  0  0  0
  -27.3638  -12.6309   17.7861 H   0  0  0  0  0  0
  -27.6972  -14.2552   19.5608 H   0  0  0  0  0  0
  -28.6799  -11.9848   21.3585 H   0  0  0  0  0  0
  -28.4680  -13.6327   21.8580 H   0  0  0  0  0  0
  -25.2770   -9.5676   22.4729 H   0  0  0  0  0  0
  -24.0021   -7.4627   22.7458 H   0  0  0  0  0  0
  -21.0830   -8.8755   19.8953 H   0  0  0  0  0  0
  -22.3684  -10.9661   19.6156 H   0  0  0  0  0  0
  -21.2010   -7.6150   23.9702 H   0  0  0  0  0  0
  -21.1476   -6.0534   25.9072 H   0  0  0  0  0  0
  -22.0602   -2.7608   23.2860 H   0  0  0  0  0  0
  -22.4190  -11.9872   22.4784 H   0  0  0  0  0  0
  -21.1138  -13.1187   22.2661 H   0  0  0  0  0  0
  -24.6541  -15.8365   20.4914 H   0  0  0  0  0  0
  -26.2722  -15.6221   20.0523 H   0  0  0  0  0  0
  -26.7114  -32.5515   23.1151 H   0  0  0  0  0  0
  -25.0083  -33.9796   25.0480 H   0  0  0  0  0  0
  -22.6960  -31.3113   21.4140 H   0  0  0  0  0  0
  -23.3749  -35.9653   23.3326 H   0  0  0  0  0  0
  -24.3588  -36.8914   22.2052 H   0  0  0  0  0  0
  -23.7257  -37.6530   23.6640 H   0  0  0  0  0  0
  -26.0601  -31.5840   20.6025 H   0  0  0  0  0  0
  -26.8274  -30.8696   21.9910 H   0  0  0  0  0  0
  -28.0956  -29.0463   21.1802 H   0  0  0  0  0  0
  -25.9868  -26.0193   18.9101 H   0  0  0  0  0  0
  -23.9643  -27.3382   18.9926 H   0  0  0  0  0  0
  -23.7200  -30.6087   19.4084 H   0  0  0  0  0  0
  -22.7355  -29.2531   19.8733 H   0  0  0  0  0  0
  -25.1290  -36.1976   25.0830 H   0  0  0  0  0  0
  -20.9965  -28.3217   24.1423 H   0  0  0  0  0  0
  -20.5667  -26.2265   23.3585 H   0  0  0  0  0  0
  -21.6634  -26.7426   22.1192 H   0  0  0  0  0  0
  -19.6910  -25.6285   21.1234 H   0  0  0  0  0  0
  -19.6690  -27.3182   20.6719 H   0  0  0  0  0  0
  -17.4188  -26.6664   21.4023 H   0  0  0  0  0  0
  -18.0334  -26.0049   22.9007 H   0  0  0  0  0  0
  -19.7927  -30.7250   24.2291 H   0  0  0  0  0  0
  -17.5007  -31.6269   24.5138 H   0  0  0  0  0  0
  -15.5345  -30.2978   23.7646 H   0  0  0  0  0  0
  -15.8665  -28.0800   22.7085 H   0  0  0  0  0  0
  -24.5876  -30.7131   25.7798 H   0  0  0  0  0  0
  -24.8998  -32.2887   26.4989 H   0  0  0  0  0  0
  -25.8100  -30.8820   27.0201 H   0  0  0  0  0  0
  -26.2855  -29.6789   24.1210 H   0  0  0  0  0  0
  -27.4108  -29.7303   25.4593 H   0  0  0  0  0  0
  -27.8680  -30.4365   23.9265 H   0  0  0  0  0  0
  -27.2695  -33.3628   26.2086 H   0  0  0  0  0  0
  -28.3840  -32.6924   25.0271 H   0  0  0  0  0  0
  -28.0772  -31.8447   26.5363 H   0  0  0  0  0  0
  -28.2606  -38.0097   24.7500 H   0  0  0  0  0  0
  -28.1082  -36.2631   24.6311 H   0  0  0  0  0  0
  -27.2312  -37.1478   25.8874 H   0  0  0  0  0  0
  -20.9289  -29.8778   21.6962 H   0  0  0  0  0  0
  -26.0205  -38.2868   24.1385 H   0  0  0  0  0  0
  -29.1199  -17.8205   20.0258 H   0  0  0  0  0  0
  -32.0875  -20.3877   21.8473 H   0  0  0  0  0  0
  -32.1048  -16.1806   22.6864 H   0  0  0  0  0  0
  -29.5285  -20.8412   22.8129 H   0  0  0  0  0  0
  -28.0053  -21.0065   21.9422 H   0  0  0  0  0  0
  -28.7744  -22.4085   22.6781 H   0  0  0  0  0  0
  -29.0103  -20.1688   19.6127 H   0  0  0  0  0  0
  -30.6392  -20.6888   19.2745 H   0  0  0  0  0  0
  -30.2794  -24.5767   20.3092 H   0  0  0  0  0  0
  -29.0834  -24.3593   21.5618 H   0  0  0  0  0  0
  -29.3950  -22.7015   19.0022 H   0  0  0  0  0  0
  -27.9774  -22.5535   19.9864 H   0  0  0  0  0  0
  -27.2932  -24.8301   19.9870 H   0  0  0  0  0  0
  -28.4178  -25.1458   18.6770 H   0  0  0  0  0  0
  -29.0537  -15.3603   21.2692 H   0  0  0  0  0  0
  -30.6166  -22.0787   21.1139 H   0  0  0  0  0  0
  1 25  1  0  0  0
  1 30  2  0  0  0
  1 82  1  0  0  0
  2  3  1  0  0  0
  2 25  1  0  0  0
  2 85  1  0  0  0
  2 86  1  0  0  0
  3  4  1  0  0  0
  3 87  1  0  0  0
  3 88  1  0  0  0
  4  5  1  0  0  0
  4 89  1  0  0  0
  4 90  1  0  0  0
  5  6  1  0  0  0
  5 26  1  0  0  0
  5 91  1  0  0  0
  6 25  1  0  0  0
  6 92  1  0  0  0
  6 93  1  0  0  0
  7  8  2  0  0  0
  7 26  1  0  0  0
  7 29  1  0  0  0
  8  9  1  0  0  0
  8 22  1  0  0  0
  9 10  1  0  0  0
  9 27  2  0  0  0
 10 11  2  0  0  0
 10 15  1  0  0  0
 11 12  1  0  0  0
 11 94  1  0  0  0
 12 13  2  0  0  0
 12 95  1  0  0  0
 13 14  1  0  0  0
 13 31  1  0  0  0
 14 15  2  0  0  0
 14 96  1  0  0  0
 15 97  1  0  0  0
 16 17  2  0  0  0
 16 21  1  0  0  0
 16 31  1  0  0  0
 17 18  1  0  0  0
 17 98  1  0  0  0
 18 19  2  0  0  0
 18 99  1  0  0  0
 19 20  1  0  0  0
 19 24  1  0  0  0
 20 21  2  0  0  0
 20100  1  0  0  0
 21 23  1  0  0  0
 22 28  1  0  0  0
 22 32  2  0  0  0
 26 27  1  0  0  0
 28101  1  0  0  0
 28102  1  0  0  0
 29103  1  0  0  0
 29104  1  0  0  0
 33 34  1  0  0  0
 33 66  1  0  0  0
 33 70  2  0  0  0
 34 36  1  0  0  0
 34 59  1  0  0  0
 34105  1  0  0  0
 35 44  2  0  0  0
 35 45  1  0  0  0
 35 68  1  0  0  0
 36 56  1  0  0  0
 36106  1  0  0  0
 37 39  1  0  0  0
 37 47  1  0  0  0
 37 66  1  0  0  0
 37107  1  0  0  0
 38 43  2  0  0  0
 38 46  1  0  0  0
 38 47  1  0  0  0
 39 64  1  0  0  0
 39 67  2  0  0  0
 40 52  1  0  0  0
 40 53  2  0  0  0
 40 58  1  0  0  0
 41108  1  0  0  0
 41109  1  0  0  0
 41110  1  0  0  0
 41 48  1  0  0  0
 42 43  1  0  0  0
 42 66  1  0  0  0
 42111  1  0  0  0
 42112  1  0  0  0
 43 44  1  0  0  0
 44113  1  0  0  0
 45 46  2  0  0  0
 45114  1  0  0  0
 46115  1  0  0  0
 47116  1  0  0  0
 47117  1  0  0  0
 48 56  1  0  0  0
 48 65  1  0  0  0
 48118  1  0  0  0
 49 50  1  0  0  0
 49 53  1  0  0  0
 49 64  1  0  0  0
 49119  1  0  0  0
 50 51  1  0  0  0
 50120  1  0  0  0
 50121  1  0  0  0
 51 52  1  0  0  0
 51122  1  0  0  0
 51123  1  0  0  0
 52124  1  0  0  0
 52125  1  0  0  0
 53 54  1  0  0  0
 54 55  2  0  0  0
 54126  1  0  0  0
 55 57  1  0  0  0
 55127  1  0  0  0
 56 69  2  0  0  0
 57 58  2  0  0  0
 57128  1  0  0  0
 58129  1  0  0  0
 59 60  1  0  0  0
 59 61  1  0  0  0
 59 62  1  0  0  0
 60130  1  0  0  0
 60131  1  0  0  0
 60132  1  0  0  0
 61133  1  0  0  0
 61134  1  0  0  0
 61135  1  0  0  0
 62136  1  0  0  0
 62137  1  0  0  0
 62138  1  0  0  0
 63 65  1  0  0  0
 63139  1  0  0  0
 63140  1  0  0  0
 63141  1  0  0  0
 64142  1  0  0  0
 65143  1  0  0  0
 68 81  1  0  0  0
 71 74  2  0  0  0
 71 75  1  0  0  0
 71144  1  0  0  0
 72 74  1  0  0  0
 72 76  2  0  0  0
 72145  1  0  0  0
 73 75  2  0  0  0
 73 76  1  0  0  0
 73146  1  0  0  0
 74 78  1  0  0  0
 75 82  1  0  0  0
 76 84  1  0  0  0
 77147  1  0  0  0
 77148  1  0  0  0
 77149  1  0  0  0
 77 83  1  0  0  0
 78 83  1  0  0  0
 78150  1  0  0  0
 78151  1  0  0  0
 79 80  1  0  0  0
 79 81  1  0  0  0
 79152  1  0  0  0
 79153  1  0  0  0
 80 83  1  0  0  0
 80154  1  0  0  0
 80155  1  0  0  0
 81156  1  0  0  0
 81157  1  0  0  0
 82158  1  0  0  0
 83159  1  0  0  0
M  CHG  1  83   1
M  ISO  4   1 100  68 101  81 101  82 100
M  END
> <chiral flag>
0

> <version>
0

> <s_m_source_file>
/data/baiqing/PycharmProjects/Reinvent-master-3.2/result/LINK_invent/BTK/process_docking_weight1_custom_product_contain_oxygen_bond_distance_aromatic_linkinvent_7_9_3/rearranged_h_0016.sdf

> <i_m_source_file_index>
40

> <r_mmod_Potential_Energy-OPLS-2005>
-172.776473999023

> <r_mmod_Stretch_Energy-OPLS-2005>
43.9385604858398

> <r_mmod_Bend_Energy-OPLS-2005>
101.368408203125

> <r_mmod_Torsional_Energy-OPLS-2005>
223.259201049805

> <r_mmod_Improper_Torsional_Energy-OPLS-2005>
3.88139033317566

> <r_mmod_Van_der_Waal_Energy-OPLS-2005>
158.6669921875

> <r_mmod_Electrostatic_Energy-OPLS-2005>
-249.018966674805

> <r_mmod_Solvation_Energy-OPLS-2005>
-472.818511962891

> <b_mmod_Minimization_Converged-OPLS-2005>
0

> <r_mmod_RMS_Derivative-OPLS-2005>
1.98401153087616

$$$$
40
                    3D
 Structure written by MMmdl.
161169  0  0  1  0            999 V2000
  -30.8063  -14.4409   20.6560 C   0  0  0  0  0  0
  -30.3939  -12.3157   19.4563 C   0  0  0  0  0  0
  -29.4933  -12.5400   18.2247 C   0  0  0  0  0  0
  -28.0154  -12.3705   18.6153 C   0  0  0  0  0  0
  -27.6528  -13.2080   19.8680 C   0  0  2  0  0  0
  -28.6824  -12.9983   20.9982 C   0  0  0  0  0  0
  -25.2537  -13.8155   20.5658 C   0  0  0  0  0  0
  -24.1800  -13.0431   20.9135 C   0  0  0  0  0  0
  -24.6351  -11.6898   20.8676 C   0  0  0  0  0  0
  -23.9036  -10.4290   21.0364 C   0  0  0  0  0  0
  -24.3592   -9.4234   21.9160 C   0  0  0  0  0  0
  -23.6271   -8.2277   22.0762 C   0  0  0  0  0  0
  -22.4257   -8.0298   21.3546 C   0  0  0  0  0  0
  -21.9875   -9.0265   20.4650 C   0  0  0  0  0  0
  -22.7198  -10.2139   20.3039 C   0  0  0  0  0  0
  -21.6846   -6.0739   22.5280 C   0  0  0  0  0  0
  -21.4028   -6.5644   23.8216 C   0  0  0  0  0  0
  -21.3672   -5.6792   24.9171 C   0  0  0  0  0  0
  -21.6052   -4.3057   24.7216 C   0  0  0  0  0  0
  -21.8813   -3.8150   23.4334 C   0  0  0  0  0  0
  -21.9194   -4.6970   22.3396 C   0  0  0  0  0  0
  -22.7838  -13.5260   21.1830 C   0  0  0  0  0  0
  -22.1656   -4.2157   21.0972 F   0  0  0  0  0  0
  -21.5629   -3.4545   25.7730 F   0  0  0  0  0  0
  -30.0290  -13.3198   20.4819 N   0  0  0  0  0  0
  -26.2947  -12.9320   20.3270 N   0  0  0  0  0  0
  -25.9268  -11.6474   20.5675 N   0  0  0  0  0  0
  -22.0473  -12.8271   22.0393 N   0  0  0  0  0  0
  -25.4241  -15.1880   20.4165 N   0  0  0  0  0  0
  -31.8838  -14.5311   20.0528 O   0  0  0  0  0  0
  -21.6637   -6.8881   21.4240 O   0  0  0  0  0  0
  -22.3546  -14.5583   20.6694 O   0  0  0  0  0  0
  -24.6126  -31.8701   23.2104 C   0  0  0  0  0  0
  -25.9051  -32.4813   23.8400 C   0  0  1  0  0  0
  -27.2510  -27.4492   20.0950 C   0  0  0  0  0  0
  -25.5966  -33.8616   24.2346 N   0  0  0  0  0  0
  -23.3981  -30.4900   21.5485 C   0  0  2  0  0  0
  -24.8493  -28.9559   20.1187 C   0  0  0  0  0  0
  -22.7391  -29.4638   22.4989 C   0  0  0  0  0  0
  -18.0254  -28.1399   22.8496 C   0  0  0  0  0  0
  -24.1485  -36.7215   23.2643 C   0  0  0  0  0  0
  -25.9275  -30.8410   21.3604 C   0  0  0  0  0  0
  -26.0074  -29.4754   20.7070 C   0  0  0  0  0  0
  -27.2061  -28.7321   20.6879 C   0  0  0  0  0  0
  -26.0669  -26.9324   19.5180 C   0  0  0  0  0  0
  -24.8731  -27.6830   19.5241 C   0  0  0  0  0  0
  -23.6091  -29.8191   20.1631 C   0  0  0  0  0  0
  -25.4132  -36.3090   24.0339 C   0  0  1  0  0  0
  -20.5842  -28.3640   23.1346 C   0  0  2  0  0  0
  -20.6739  -26.9386   22.5414 C   0  0  0  0  0  0
  -19.5737  -26.6398   21.5204 C   0  0  0  0  0  0
  -18.1915  -26.7954   22.1614 C   0  0  0  0  0  0
  -19.1503  -28.8839   23.2909 C   0  0  0  0  0  0
  -18.9453  -30.1460   23.8895 C   0  0  0  0  0  0
  -17.6464  -30.6609   24.0580 C   0  0  0  0  0  0
  -25.9088  -34.9466   23.5126 C   0  0  0  0  0  0
  -16.5342  -29.9141   23.6332 C   0  0  0  0  0  0
  -16.7239  -28.6550   23.0345 C   0  0  0  0  0  0
  -26.4499  -31.6559   25.0715 C   0  0  0  0  0  0
  -25.3781  -31.3609   26.1463 C   0  0  0  0  0  0
  -27.0306  -30.3018   24.6058 C   0  0  0  0  0  0
  -27.6088  -32.4228   25.7512 C   0  0  0  0  0  0
  -27.5579  -37.1772   24.8505 C   0  0  0  0  0  0
  -21.4117  -29.2995   22.3747 N   0  0  0  0  0  0
  -26.4307  -37.3791   23.9435 N   0  0  0  0  0  0
  -24.6629  -31.0854   22.0965 N   0  0  0  0  0  0
  -23.4166  -28.8173   23.3023 O   0  0  0  0  0  0
  -28.4706  -26.7992   20.0946 O   0  0  0  0  0  0
  -26.5622  -34.8928   22.4668 O   0  0  0  0  0  0
  -23.5319  -32.1398   23.7535 O   0  0  0  0  0  0
  -30.3551  -18.7805   22.6159 C   0  0  0  0  0  0
  -29.9595  -18.8911   20.2265 C   0  0  0  0  0  0
  -29.8311  -20.0814   22.7618 C   0  0  0  0  0  0
  -29.4581  -20.2037   20.3721 C   0  0  0  0  0  0
  -30.4165  -18.1624   21.3494 C   0  0  0  0  0  0
  -29.3796  -20.8229   21.6444 C   0  0  0  0  0  0
  -27.8668  -22.2685   22.8739 C   0  0  0  0  0  0
  -29.6876  -15.4497   22.6520 C   0  0  0  0  0  0
  -31.1228  -16.8134   21.1668 C   0  0  0  0  0  0
  -28.6103  -24.5288   21.0262 C   0  0  0  0  0  0
  -28.8306  -23.0368   20.6670 C   0  0  0  0  0  0
  -28.5950  -25.4140   19.7657 C   0  0  0  0  0  0
  -28.8804  -22.1354   21.8249 N   0  0  0  0  0  0
  -30.3634  -15.5365   21.3509 N   0  0  0  0  0  0
  -31.4424  -12.3557   19.1590 H   0  0  0  0  0  0
  -30.2572  -11.3061   19.8494 H   0  0  0  0  0  0
  -29.7605  -11.8459   17.4269 H   0  0  0  0  0  0
  -29.6513  -13.5433   17.8228 H   0  0  0  0  0  0
  -27.8399  -11.3109   18.8084 H   0  0  0  0  0  0
  -27.3697  -12.6390   17.7778 H   0  0  0  0  0  0
  -27.6930  -14.2565   19.5726 H   0  0  0  0  0  0
  -28.6581  -11.9598   21.3338 H   0  0  0  0  0  0
  -28.3640  -13.5543   21.8690 H   0  0  0  0  0  0
  -25.2735   -9.5730   22.4723 H   0  0  0  0  0  0
  -23.9989   -7.4674   22.7481 H   0  0  0  0  0  0
  -21.0814   -8.8765   19.8956 H   0  0  0  0  0  0
  -22.3637  -10.9672   19.6147 H   0  0  0  0  0  0
  -21.2030   -7.6150   23.9720 H   0  0  0  0  0  0
  -21.1500   -6.0519   25.9072 H   0  0  0  0  0  0
  -22.0579   -2.7617   23.2825 H   0  0  0  0  0  0
  -22.4045  -11.9916   22.4769 H   0  0  0  0  0  0
  -21.1107  -13.1343   22.2595 H   0  0  0  0  0  0
  -24.6580  -15.8404   20.5457 H   0  0  0  0  0  0
  -26.2936  -15.6425   20.1644 H   0  0  0  0  0  0
  -26.7126  -32.5500   23.1163 H   0  0  0  0  0  0
  -25.0205  -33.9799   25.0558 H   0  0  0  0  0  0
  -22.6835  -31.3017   21.4047 H   0  0  0  0  0  0
  -23.3809  -35.9486   23.3377 H   0  0  0  0  0  0
  -24.3574  -36.8749   22.2045 H   0  0  0  0  0  0
  -23.7186  -37.6419   23.6595 H   0  0  0  0  0  0
  -26.0608  -31.6109   20.5985 H   0  0  0  0  0  0
  -26.8091  -30.8833   21.9857 H   0  0  0  0  0  0
  -28.1011  -29.1419   21.1325 H   0  0  0  0  0  0
  -26.0271  -25.9608   19.0518 H   0  0  0  0  0  0
  -23.9777  -27.2737   19.0767 H   0  0  0  0  0  0
  -23.7156  -30.5876   19.3975 H   0  0  0  0  0  0
  -22.7354  -29.2365   19.8651 H   0  0  0  0  0  0
  -25.1324  -36.1941   25.0833 H   0  0  0  0  0  0
  -20.9929  -28.3199   24.1469 H   0  0  0  0  0  0
  -20.5683  -26.2223   23.3574 H   0  0  0  0  0  0
  -21.6618  -26.7467   22.1208 H   0  0  0  0  0  0
  -19.6907  -25.6327   21.1213 H   0  0  0  0  0  0
  -19.6721  -27.3236   20.6760 H   0  0  0  0  0  0
  -17.4182  -26.6664   21.4016 H   0  0  0  0  0  0
  -18.0325  -26.0094   22.9013 H   0  0  0  0  0  0
  -19.7923  -30.7272   24.2255 H   0  0  0  0  0  0
  -17.5030  -31.6302   24.5183 H   0  0  0  0  0  0
  -15.5356  -30.3077   23.7672 H   0  0  0  0  0  0
  -15.8599  -28.0912   22.7064 H   0  0  0  0  0  0
  -24.5991  -30.6939   25.7787 H   0  0  0  0  0  0
  -24.8931  -32.2713   26.4962 H   0  0  0  0  0  0
  -25.8175  -30.8730   27.0170 H   0  0  0  0  0  0
  -26.2792  -29.6810   24.1166 H   0  0  0  0  0  0
  -27.4159  -29.7247   25.4476 H   0  0  0  0  0  0
  -27.8631  -30.4378   23.9156 H   0  0  0  0  0  0
  -27.2763  -33.3526   26.2145 H   0  0  0  0  0  0
  -28.3935  -32.6789   25.0379 H   0  0  0  0  0  0
  -28.0734  -31.8285   26.5410 H   0  0  0  0  0  0
  -28.2662  -38.0017   24.7568 H   0  0  0  0  0  0
  -28.1012  -36.2560   24.6325 H   0  0  0  0  0  0
  -27.2279  -37.1422   25.8907 H   0  0  0  0  0  0
  -20.9265  -29.8620   21.6898 H   0  0  0  0  0  0
  -26.0186  -38.2857   24.1474 H   0  0  0  0  0  0
  -30.7436  -18.2769   23.4888 H   0  0  0  0  0  0
  -30.0321  -18.4728   19.2321 H   0  0  0  0  0  0
  -29.8052  -20.5196   23.7487 H   0  0  0  0  0  0
  -29.1396  -20.7236   19.4822 H   0  0  0  0  0  0
  -27.4389  -21.3103   23.1725 H   0  0  0  0  0  0
  -27.0316  -22.8851   22.5437 H   0  0  0  0  0  0
  -28.2963  -22.7425   23.7559 H   0  0  0  0  0  0
  -29.8628  -14.4913   23.1442 H   0  0  0  0  0  0
  -28.6157  -15.6159   22.5369 H   0  0  0  0  0  0
  -30.0415  -16.1980   23.3540 H   0  0  0  0  0  0
  -31.9780  -16.7963   21.8453 H   0  0  0  0  0  0
  -31.5529  -16.8680   20.1636 H   0  0  0  0  0  0
  -29.4025  -24.8670   21.6973 H   0  0  0  0  0  0
  -27.6734  -24.6751   21.5629 H   0  0  0  0  0  0
  -29.7715  -22.9527   20.1178 H   0  0  0  0  0  0
  -28.0473  -22.7043   19.9844 H   0  0  0  0  0  0
  -27.8687  -25.0565   19.0387 H   0  0  0  0  0  0
  -29.5583  -25.3080   19.2670 H   0  0  0  0  0  0
  1 25  1  0  0  0
  1 30  2  0  0  0
  1 84  1  0  0  0
  2  3  1  0  0  0
  2 25  1  0  0  0
  2 85  1  0  0  0
  2 86  1  0  0  0
  3  4  1  0  0  0
  3 87  1  0  0  0
  3 88  1  0  0  0
  4  5  1  0  0  0
  4 89  1  0  0  0
  4 90  1  0  0  0
  5  6  1  0  0  0
  5 26  1  0  0  0
  5 91  1  0  0  0
  6 25  1  0  0  0
  6 92  1  0  0  0
  6 93  1  0  0  0
  7  8  2  0  0  0
  7 26  1  0  0  0
  7 29  1  0  0  0
  8  9  1  0  0  0
  8 22  1  0  0  0
  9 10  1  0  0  0
  9 27  2  0  0  0
 10 11  2  0  0  0
 10 15  1  0  0  0
 11 12  1  0  0  0
 11 94  1  0  0  0
 12 13  2  0  0  0
 12 95  1  0  0  0
 13 14  1  0  0  0
 13 31  1  0  0  0
 14 15  2  0  0  0
 14 96  1  0  0  0
 15 97  1  0  0  0
 16 17  2  0  0  0
 16 21  1  0  0  0
 16 31  1  0  0  0
 17 18  1  0  0  0
 17 98  1  0  0  0
 18 19  2  0  0  0
 18 99  1  0  0  0
 19 20  1  0  0  0
 19 24  1  0  0  0
 20 21  2  0  0  0
 20100  1  0  0  0
 21 23  1  0  0  0
 22 28  1  0  0  0
 22 32  2  0  0  0
 26 27  1  0  0  0
 28101  1  0  0  0
 28102  1  0  0  0
 29103  1  0  0  0
 29104  1  0  0  0
 33 34  1  0  0  0
 33 66  1  0  0  0
 33 70  2  0  0  0
 34 36  1  0  0  0
 34 59  1  0  0  0
 34105  1  0  0  0
 35 44  2  0  0  0
 35 45  1  0  0  0
 35 68  1  0  0  0
 36 56  1  0  0  0
 36106  1  0  0  0
 37 39  1  0  0  0
 37 47  1  0  0  0
 37 66  1  0  0  0
 37107  1  0  0  0
 38 43  2  0  0  0
 38 46  1  0  0  0
 38 47  1  0  0  0
 39 64  1  0  0  0
 39 67  2  0  0  0
 40 52  1  0  0  0
 40 53  2  0  0  0
 40 58  1  0  0  0
 41108  1  0  0  0
 41109  1  0  0  0
 41110  1  0  0  0
 41 48  1  0  0  0
 42 43  1  0  0  0
 42 66  1  0  0  0
 42111  1  0  0  0
 42112  1  0  0  0
 43 44  1  0  0  0
 44113  1  0  0  0
 45 46  2  0  0  0
 45114  1  0  0  0
 46115  1  0  0  0
 47116  1  0  0  0
 47117  1  0  0  0
 48 56  1  0  0  0
 48 65  1  0  0  0
 48118  1  0  0  0
 49 50  1  0  0  0
 49 53  1  0  0  0
 49 64  1  0  0  0
 49119  1  0  0  0
 50 51  1  0  0  0
 50120  1  0  0  0
 50121  1  0  0  0
 51 52  1  0  0  0
 51122  1  0  0  0
 51123  1  0  0  0
 52124  1  0  0  0
 52125  1  0  0  0
 53 54  1  0  0  0
 54 55  2  0  0  0
 54126  1  0  0  0
 55 57  1  0  0  0
 55127  1  0  0  0
 56 69  2  0  0  0
 57 58  2  0  0  0
 57128  1  0  0  0
 58129  1  0  0  0
 59 60  1  0  0  0
 59 61  1  0  0  0
 59 62  1  0  0  0
 60130  1  0  0  0
 60131  1  0  0  0
 60132  1  0  0  0
 61133  1  0  0  0
 61134  1  0  0  0
 61135  1  0  0  0
 62136  1  0  0  0
 62137  1  0  0  0
 62138  1  0  0  0
 63 65  1  0  0  0
 63139  1  0  0  0
 63140  1  0  0  0
 63141  1  0  0  0
 64142  1  0  0  0
 65143  1  0  0  0
 68 82  1  0  0  0
 71 73  2  0  0  0
 71 75  1  0  0  0
 71144  1  0  0  0
 72 74  1  0  0  0
 72 75  2  0  0  0
 72145  1  0  0  0
 73 76  1  0  0  0
 73146  1  0  0  0
 74 76  2  0  0  0
 74147  1  0  0  0
 75 79  1  0  0  0
 76 83  1  0  0  0
 77 83  1  0  0  0
 77148  1  0  0  0
 77149  1  0  0  0
 77150  1  0  0  0
 78 84  1  0  0  0
 78151  1  0  0  0
 78152  1  0  0  0
 78153  1  0  0  0
 79 84  1  0  0  0
 79154  1  0  0  0
 79155  1  0  0  0
 80 81  1  0  0  0
 80 82  1  0  0  0
 80156  1  0  0  0
 80157  1  0  0  0
 81 83  1  0  0  0
 81158  1  0  0  0
 81159  1  0  0  0
 82160  1  0  0  0
 82161  1  0  0  0
M  ISO  4   1 100  68 101  82 101  84 100
M  END
> <chiral flag>
0

> <version>
0

> <s_m_source_file>
/data/baiqing/PycharmProjects/Reinvent-master-3.2/result/LINK_invent/BTK/process_docking_weight1_custom_product_contain_oxygen_bond_distance_aromatic_linkinvent_7_9_3/rearranged_h_0016.sdf

> <i_m_source_file_index>
41

> <r_mmod_Potential_Energy-OPLS-2005>
100.385414123535

> <r_mmod_Stretch_Energy-OPLS-2005>
46.212100982666

> <r_mmod_Bend_Energy-OPLS-2005>
142.126251220703

> <r_mmod_Torsional_Energy-OPLS-2005>
238.704498291016

> <r_mmod_Improper_Torsional_Energy-OPLS-2005>
7.92415904998779

> <r_mmod_Van_der_Waal_Energy-OPLS-2005>
180.791030883789

> <r_mmod_Electrostatic_Energy-OPLS-2005>
-317.921661376953

> <r_mmod_Solvation_Energy-OPLS-2005>
-212.284820556641

> <b_mmod_Minimization_Converged-OPLS-2005>
0

> <r_mmod_RMS_Derivative-OPLS-2005>
4.60344171524048

$$$$
41
                    3D
 Structure written by MMmdl.
163172  0  0  1  0            999 V2000
  -30.7324  -14.4067   20.6268 C   0  0  0  0  0  0
  -30.4213  -12.2932   19.3926 C   0  0  0  0  0  0
  -29.4851  -12.5144   18.1886 C   0  0  0  0  0  0
  -28.0081  -12.3733   18.6072 C   0  0  0  0  0  0
  -27.6632  -13.1968   19.8760 C   0  0  2  0  0  0
  -28.7056  -12.9469   20.9878 C   0  0  0  0  0  0
  -25.2609  -13.8141   20.5667 C   0  0  0  0  0  0
  -24.1851  -13.0432   20.9181 C   0  0  0  0  0  0
  -24.6383  -11.6893   20.8738 C   0  0  0  0  0  0
  -23.9047  -10.4288   21.0411 C   0  0  0  0  0  0
  -24.3606   -9.4202   21.9185 C   0  0  0  0  0  0
  -23.6280   -8.2239   22.0751 C   0  0  0  0  0  0
  -22.4265   -8.0280   21.3545 C   0  0  0  0  0  0
  -21.9905   -9.0255   20.4645 C   0  0  0  0  0  0
  -22.7223  -10.2132   20.3055 C   0  0  0  0  0  0
  -21.6846   -6.0734   22.5274 C   0  0  0  0  0  0
  -21.4010   -6.5638   23.8210 C   0  0  0  0  0  0
  -21.3659   -5.6790   24.9173 C   0  0  0  0  0  0
  -21.6042   -4.3052   24.7222 C   0  0  0  0  0  0
  -21.8822   -3.8148   23.4343 C   0  0  0  0  0  0
  -21.9192   -4.6963   22.3397 C   0  0  0  0  0  0
  -22.7879  -13.5245   21.1848 C   0  0  0  0  0  0
  -22.1660   -4.2146   21.0977 F   0  0  0  0  0  0
  -21.5633   -3.4536   25.7735 F   0  0  0  0  0  0
  -30.0401  -13.2515   20.4388 N   0  0  0  0  0  0
  -26.3030  -12.9287   20.3369 N   0  0  0  0  0  0
  -25.9304  -11.6457   20.5761 N   0  0  0  0  0  0
  -22.0511  -12.8236   22.0393 N   0  0  0  0  0  0
  -25.4328  -15.1854   20.4044 N   0  0  0  0  0  0
  -31.8339  -14.6273   20.1143 O   0  0  0  0  0  0
  -21.6632   -6.8876   21.4238 O   0  0  0  0  0  0
  -22.3570  -14.5549   20.6690 O   0  0  0  0  0  0
  -24.6150  -31.8693   23.2130 C   0  0  0  0  0  0
  -25.9042  -32.4829   23.8422 C   0  0  1  0  0  0
  -27.2274  -27.4359   20.0790 C   0  0  0  0  0  0
  -25.5894  -33.8630   24.2331 N   0  0  0  0  0  0
  -23.4023  -30.4979   21.5551 C   0  0  2  0  0  0
  -24.8444  -28.9702   20.1179 C   0  0  0  0  0  0
  -22.7406  -29.4689   22.4997 C   0  0  0  0  0  0
  -18.0266  -28.1402   22.8509 C   0  0  0  0  0  0
  -24.1484  -36.7332   23.2644 C   0  0  0  0  0  0
  -25.9352  -30.8346   21.3688 C   0  0  0  0  0  0
  -26.0104  -29.4728   20.7087 C   0  0  0  0  0  0
  -27.2059  -28.7161   20.6822 C   0  0  0  0  0  0
  -26.0362  -26.9573   19.4799 C   0  0  0  0  0  0
  -24.8524  -27.7107   19.5036 C   0  0  0  0  0  0
  -23.6080  -29.8362   20.1699 C   0  0  0  0  0  0
  -25.4111  -36.3122   24.0335 C   0  0  1  0  0  0
  -20.5860  -28.3693   23.1330 C   0  0  2  0  0  0
  -20.6748  -26.9426   22.5444 C   0  0  0  0  0  0
  -19.5731  -26.6402   21.5240 C   0  0  0  0  0  0
  -18.1903  -26.7958   22.1631 C   0  0  0  0  0  0
  -19.1517  -28.8860   23.2913 C   0  0  0  0  0  0
  -18.9445  -30.1467   23.8927 C   0  0  0  0  0  0
  -17.6450  -30.6607   24.0593 C   0  0  0  0  0  0
  -25.9033  -34.9482   23.5125 C   0  0  0  0  0  0
  -16.5337  -29.9117   23.6336 C   0  0  0  0  0  0
  -16.7252  -28.6533   23.0357 C   0  0  0  0  0  0
  -26.4473  -31.6616   25.0756 C   0  0  0  0  0  0
  -25.3737  -31.3714   26.1501 C   0  0  0  0  0  0
  -27.0336  -30.3051   24.6178 C   0  0  0  0  0  0
  -27.6036  -32.4378   25.7508 C   0  0  0  0  0  0
  -27.5591  -37.1814   24.8461 C   0  0  0  0  0  0
  -21.4130  -29.3054   22.3721 N   0  0  0  0  0  0
  -26.4302  -37.3801   23.9400 N   0  0  0  0  0  0
  -24.6695  -31.0802   22.1031 N   0  0  0  0  0  0
  -23.4178  -28.8211   23.3024 O   0  0  0  0  0  0
  -28.3971  -26.6953   20.0713 O   0  0  0  0  0  0
  -26.5592  -34.8937   22.4687 O   0  0  0  0  0  0
  -23.5334  -32.1454   23.7509 O   0  0  0  0  0  0
  -29.4679  -19.9463   22.1387 C   0  0  0  0  0  0
  -29.0682  -18.6203   21.8840 C   0  0  0  0  0  0
  -31.2796  -19.7102   20.5288 C   0  0  0  0  0  0
  -30.5828  -20.5015   21.4709 C   0  0  0  0  0  0
  -29.7709  -17.8278   20.9529 C   0  0  0  0  0  0
  -30.8723  -18.3846   20.2654 C   0  0  0  0  0  0
  -30.5789  -24.3163   21.1573 C   0  0  0  0  0  0
  -29.3892  -22.9414   20.1976 C   0  0  0  0  0  0
  -29.5149  -24.4631   20.0651 C   0  0  1  0  0  0
  -30.5947  -15.6343   22.7157 C   0  0  0  0  0  0
  -29.3214  -16.3912   20.6964 C   0  0  0  0  0  0
  -31.0371  -21.9273   21.7992 C   0  0  0  0  0  0
  -28.2375  -25.2797   20.2557 C   0  0  0  0  0  0
  -30.1038  -15.3394   21.3696 N   0  0  0  0  0  0
  -30.7471  -22.9193   20.7322 N   0  3  2  0  0  0
  -31.5433  -17.6499   19.3484 F   0  0  0  0  0  0
  -31.4625  -12.4020   19.0835 H   0  0  0  0  0  0
  -30.3275  -11.2736   19.7692 H   0  0  0  0  0  0
  -29.7163  -11.8023   17.3950 H   0  0  0  0  0  0
  -29.6530  -13.5074   17.7677 H   0  0  0  0  0  0
  -27.8137  -11.3158   18.7888 H   0  0  0  0  0  0
  -27.3541  -12.6636   17.7836 H   0  0  0  0  0  0
  -27.7141  -14.2477   19.5943 H   0  0  0  0  0  0
  -28.6766  -11.9039   21.3065 H   0  0  0  0  0  0
  -28.4645  -13.5270   21.8796 H   0  0  0  0  0  0
  -25.2753   -9.5680   22.4758 H   0  0  0  0  0  0
  -23.9992   -7.4632   22.7466 H   0  0  0  0  0  0
  -21.0838   -8.8773   19.8949 H   0  0  0  0  0  0
  -22.3684  -10.9678   19.6168 H   0  0  0  0  0  0
  -21.1997   -7.6146   23.9710 H   0  0  0  0  0  0
  -21.1479   -6.0520   25.9074 H   0  0  0  0  0  0
  -22.0601   -2.7609   23.2840 H   0  0  0  0  0  0
  -22.4118  -11.9893   22.4778 H   0  0  0  0  0  0
  -21.1127  -13.1268   22.2593 H   0  0  0  0  0  0
  -24.6649  -15.8404   20.5039 H   0  0  0  0  0  0
  -26.2807  -15.6196   20.0643 H   0  0  0  0  0  0
  -26.7109  -32.5549   23.1187 H   0  0  0  0  0  0
  -25.0017  -33.9812   25.0450 H   0  0  0  0  0  0
  -22.6914  -31.3153   21.4180 H   0  0  0  0  0  0
  -23.3755  -35.9658   23.3312 H   0  0  0  0  0  0
  -24.3555  -36.8957   22.2057 H   0  0  0  0  0  0
  -23.7242  -37.6528   23.6683 H   0  0  0  0  0  0
  -26.0522  -31.6046   20.6056 H   0  0  0  0  0  0
  -26.8206  -30.8810   21.9909 H   0  0  0  0  0  0
  -28.1092  -29.1036   21.1334 H   0  0  0  0  0  0
  -25.9825  -26.0128   18.9634 H   0  0  0  0  0  0
  -23.9578  -27.3202   19.0388 H   0  0  0  0  0  0
  -23.7129  -30.6138   19.4123 H   0  0  0  0  0  0
  -22.7320  -29.2558   19.8747 H   0  0  0  0  0  0
  -25.1278  -36.1986   25.0827 H   0  0  0  0  0  0
  -20.9943  -28.3285   24.1458 H   0  0  0  0  0  0
  -20.5677  -26.2305   23.3633 H   0  0  0  0  0  0
  -21.6617  -26.7495   22.1232 H   0  0  0  0  0  0
  -19.6892  -25.6320   21.1259 H   0  0  0  0  0  0
  -19.6672  -27.3223   20.6780 H   0  0  0  0  0  0
  -17.4183  -26.6756   21.4015 H   0  0  0  0  0  0
  -18.0260  -26.0099   22.9014 H   0  0  0  0  0  0
  -19.7916  -30.7287   24.2300 H   0  0  0  0  0  0
  -17.5003  -31.6276   24.5215 H   0  0  0  0  0  0
  -15.5334  -30.3022   23.7658 H   0  0  0  0  0  0
  -15.8652  -28.0860   22.7045 H   0  0  0  0  0  0
  -24.5946  -30.7005   25.7856 H   0  0  0  0  0  0
  -24.8866  -32.2854   26.4909 H   0  0  0  0  0  0
  -25.8093  -30.8943   27.0289 H   0  0  0  0  0  0
  -26.2904  -29.6765   24.1261 H   0  0  0  0  0  0
  -27.4108  -29.7331   25.4663 H   0  0  0  0  0  0
  -27.8729  -30.4342   23.9344 H   0  0  0  0  0  0
  -27.2632  -33.3677   26.2077 H   0  0  0  0  0  0
  -28.3831  -32.6952   25.0326 H   0  0  0  0  0  0
  -28.0741  -31.8539   26.5425 H   0  0  0  0  0  0
  -28.2607  -38.0113   24.7503 H   0  0  0  0  0  0
  -28.1091  -36.2639   24.6301 H   0  0  0  0  0  0
  -27.2307  -37.1476   25.8865 H   0  0  0  0  0  0
  -20.9275  -29.8763   21.6937 H   0  0  0  0  0  0
  -26.0199  -38.2880   24.1402 H   0  0  0  0  0  0
  -28.9167  -20.5286   22.8650 H   0  0  0  0  0  0
  -28.2201  -18.2094   22.4143 H   0  0  0  0  0  0
  -32.1350  -20.1076   20.0020 H   0  0  0  0  0  0
  -30.1753  -24.4264   22.1649 H   0  0  0  0  0  0
  -31.4695  -24.9302   21.0126 H   0  0  0  0  0  0
  -29.2738  -22.4047   19.2557 H   0  0  0  0  0  0
  -28.6360  -22.6367   20.9286 H   0  0  0  0  0  0
  -29.9924  -24.7008   19.1120 H   0  0  0  0  0  0
  -29.8123  -16.0994   23.3170 H   0  0  0  0  0  0
  -31.4521  -16.3080   22.6778 H   0  0  0  0  0  0
  -30.9027  -14.7214   23.2298 H   0  0  0  0  0  0
  -29.3077  -16.2316   19.6155 H   0  0  0  0  0  0
  -28.2845  -16.2811   21.0155 H   0  0  0  0  0  0
  -32.1072  -21.9323   22.0061 H   0  0  0  0  0  0
  -30.5543  -22.2364   22.7265 H   0  0  0  0  0  0
  -27.8204  -25.1039   21.2485 H   0  0  0  0  0  0
  -27.5251  -24.8584   19.5525 H   0  0  0  0  0  0
  -31.4148  -22.8517   19.9794 H   0  0  0  0  0  0
  1 25  1  0  0  0
  1 30  2  0  0  0
  1 84  1  0  0  0
  2  3  1  0  0  0
  2 25  1  0  0  0
  2 87  1  0  0  0
  2 88  1  0  0  0
  3  4  1  0  0  0
  3 89  1  0  0  0
  3 90  1  0  0  0
  4  5  1  0  0  0
  4 91  1  0  0  0
  4 92  1  0  0  0
  5  6  1  0  0  0
  5 26  1  0  0  0
  5 93  1  0  0  0
  6 25  1  0  0  0
  6 94  1  0  0  0
  6 95  1  0  0  0
  7  8  2  0  0  0
  7 26  1  0  0  0
  7 29  1  0  0  0
  8  9  1  0  0  0
  8 22  1  0  0  0
  9 10  1  0  0  0
  9 27  2  0  0  0
 10 11  2  0  0  0
 10 15  1  0  0  0
 11 12  1  0  0  0
 11 96  1  0  0  0
 12 13  2  0  0  0
 12 97  1  0  0  0
 13 14  1  0  0  0
 13 31  1  0  0  0
 14 15  2  0  0  0
 14 98  1  0  0  0
 15 99  1  0  0  0
 16 17  2  0  0  0
 16 21  1  0  0  0
 16 31  1  0  0  0
 17 18  1  0  0  0
 17100  1  0  0  0
 18 19  2  0  0  0
 18101  1  0  0  0
 19 20  1  0  0  0
 19 24  1  0  0  0
 20 21  2  0  0  0
 20102  1  0  0  0
 21 23  1  0  0  0
 22 28  1  0  0  0
 22 32  2  0  0  0
 26 27  1  0  0  0
 28103  1  0  0  0
 28104  1  0  0  0
 29105  1  0  0  0
 29106  1  0  0  0
 33 34  1  0  0  0
 33 66  1  0  0  0
 33 70  2  0  0  0
 34 36  1  0  0  0
 34 59  1  0  0  0
 34107  1  0  0  0
 35 44  2  0  0  0
 35 45  1  0  0  0
 35 68  1  0  0  0
 36 56  1  0  0  0
 36108  1  0  0  0
 37 39  1  0  0  0
 37 47  1  0  0  0
 37 66  1  0  0  0
 37109  1  0  0  0
 38 43  2  0  0  0
 38 46  1  0  0  0
 38 47  1  0  0  0
 39 64  1  0  0  0
 39 67  2  0  0  0
 40 52  1  0  0  0
 40 53  2  0  0  0
 40 58  1  0  0  0
 41110  1  0  0  0
 41111  1  0  0  0
 41112  1  0  0  0
 41 48  1  0  0  0
 42 43  1  0  0  0
 42 66  1  0  0  0
 42113  1  0  0  0
 42114  1  0  0  0
 43 44  1  0  0  0
 44115  1  0  0  0
 45 46  2  0  0  0
 45116  1  0  0  0
 46117  1  0  0  0
 47118  1  0  0  0
 47119  1  0  0  0
 48 56  1  0  0  0
 48 65  1  0  0  0
 48120  1  0  0  0
 49 50  1  0  0  0
 49 53  1  0  0  0
 49 64  1  0  0  0
 49121  1  0  0  0
 50 51  1  0  0  0
 50122  1  0  0  0
 50123  1  0  0  0
 51 52  1  0  0  0
 51124  1  0  0  0
 51125  1  0  0  0
 52126  1  0  0  0
 52127  1  0  0  0
 53 54  1  0  0  0
 54 55  2  0  0  0
 54128  1  0  0  0
 55 57  1  0  0  0
 55129  1  0  0  0
 56 69  2  0  0  0
 57 58  2  0  0  0
 57130  1  0  0  0
 58131  1  0  0  0
 59 60  1  0  0  0
 59 61  1  0  0  0
 59 62  1  0  0  0
 60132  1  0  0  0
 60133  1  0  0  0
 60134  1  0  0  0
 61135  1  0  0  0
 61136  1  0  0  0
 61137  1  0  0  0
 62138  1  0  0  0
 62139  1  0  0  0
 62140  1  0  0  0
 63 65  1  0  0  0
 63141  1  0  0  0
 63142  1  0  0  0
 63143  1  0  0  0
 64144  1  0  0  0
 65145  1  0  0  0
 68 83  1  0  0  0
 71 72  2  0  0  0
 71 74  1  0  0  0
 71146  1  0  0  0
 72 75  1  0  0  0
 72147  1  0  0  0
 73 74  2  0  0  0
 73 76  1  0  0  0
 73148  1  0  0  0
 74 82  1  0  0  0
 75 76  2  0  0  0
 75 81  1  0  0  0
 76 86  1  0  0  0
 77 79  1  0  0  0
 77 85  1  0  0  0
 77149  1  0  0  0
 77150  1  0  0  0
 78 79  1  0  0  0
 78 85  1  0  0  0
 78151  1  0  0  0
 78152  1  0  0  0
 79 83  1  0  0  0
 79153  1  0  0  0
 80 84  1  0  0  0
 80154  1  0  0  0
 80155  1  0  0  0
 80156  1  0  0  0
 81 84  1  0  0  0
 81157  1  0  0  0
 81158  1  0  0  0
 82159  1  0  0  0
 82160  1  0  0  0
 82 85  1  0  0  0
 83161  1  0  0  0
 83162  1  0  0  0
 85163  1  0  0  0
M  CHG  1  85   1
M  ISO  4   1 100  68 101  83 101  84 100
M  END
> <chiral flag>
0

> <version>
0

> <s_m_source_file>
/data/baiqing/PycharmProjects/Reinvent-master-3.2/result/LINK_invent/BTK/process_docking_weight1_custom_product_contain_oxygen_bond_distance_aromatic_linkinvent_7_9_3/rearranged_h_0016.sdf

> <i_m_source_file_index>
42

> <r_mmod_Potential_Energy-OPLS-2005>
-67.4599533081055

> <r_mmod_Stretch_Energy-OPLS-2005>
36.0814170837402

> <r_mmod_Bend_Energy-OPLS-2005>
105.667022705078

> <r_mmod_Torsional_Energy-OPLS-2005>
303.668609619141

> <r_mmod_Improper_Torsional_Energy-OPLS-2005>
3.45858120918274

> <r_mmod_Van_der_Waal_Energy-OPLS-2005>
152.651885986328

> <r_mmod_Electrostatic_Energy-OPLS-2005>
-220.974487304688

> <r_mmod_Solvation_Energy-OPLS-2005>
-457.978271484375

> <b_mmod_Minimization_Converged-OPLS-2005>
0

> <r_mmod_RMS_Derivative-OPLS-2005>
1.5703889131546

$$$$
42
                    3D
 Structure written by MMmdl.
169178  0  0  1  0            999 V2000
  -30.6163  -14.7399   20.3445 C   0  0  0  0  0  0
  -30.4505  -12.4066   19.4809 C   0  0  0  0  0  0
  -29.5212  -12.3039   18.2498 C   0  0  0  0  0  0
  -28.0229  -12.2839   18.6443 C   0  0  0  0  0  0
  -27.6335  -13.2038   19.8430 C   0  0  2  0  0  0
  -28.6959  -13.1894   20.9598 C   0  0  0  0  0  0
  -25.2537  -13.8100   20.5747 C   0  0  0  0  0  0
  -24.1783  -13.0412   20.9238 C   0  0  0  0  0  0
  -24.6322  -11.6878   20.8827 C   0  0  0  0  0  0
  -23.8993  -10.4273   21.0446 C   0  0  0  0  0  0
  -24.3569   -9.4192   21.9208 C   0  0  0  0  0  0
  -23.6272   -8.2216   22.0753 C   0  0  0  0  0  0
  -22.4256   -8.0245   21.3530 C   0  0  0  0  0  0
  -21.9880   -9.0219   20.4641 C   0  0  0  0  0  0
  -22.7180  -10.2116   20.3071 C   0  0  0  0  0  0
  -21.6841   -6.0732   22.5279 C   0  0  0  0  0  0
  -21.4009   -6.5647   23.8209 C   0  0  0  0  0  0
  -21.3668   -5.6794   24.9172 C   0  0  0  0  0  0
  -21.6056   -4.3058   24.7219 C   0  0  0  0  0  0
  -21.8831   -3.8149   23.4340 C   0  0  0  0  0  0
  -21.9189   -4.6968   22.3397 C   0  0  0  0  0  0
  -22.7812  -13.5255   21.1860 C   0  0  0  0  0  0
  -22.1638   -4.2149   21.0975 F   0  0  0  0  0  0
  -21.5644   -3.4544   25.7733 F   0  0  0  0  0  0
  -29.9845  -13.5164   20.3348 N   0  0  0  0  0  0
  -26.2922  -12.9237   20.3388 N   0  0  0  0  0  0
  -25.9255  -11.6432   20.5911 N   0  0  0  0  0  0
  -22.0439  -12.8255   22.0412 N   0  0  0  0  0  0
  -25.4298  -15.1824   20.4136 N   0  0  0  0  0  0
  -31.8461  -14.7953   20.2473 O   0  0  0  0  0  0
  -21.6634   -6.8843   21.4214 O   0  0  0  0  0  0
  -22.3514  -14.5562   20.6679 O   0  0  0  0  0  0
  -24.6244  -31.8621   23.1993 C   0  0  0  0  0  0
  -25.9106  -32.4773   23.8319 C   0  0  1  0  0  0
  -27.2336  -27.3338   20.1418 C   0  0  0  0  0  0
  -25.5932  -33.8577   24.2252 N   0  0  0  0  0  0
  -23.4163  -30.4824   21.5429 C   0  0  2  0  0  0
  -24.8639  -28.9352   20.1109 C   0  0  0  0  0  0
  -22.7471  -29.4642   22.4956 C   0  0  0  0  0  0
  -18.0300  -28.1403   22.8495 C   0  0  0  0  0  0
  -24.1502  -36.7303   23.2636 C   0  0  0  0  0  0
  -25.9522  -30.7984   21.3659 C   0  0  0  0  0  0
  -26.0294  -29.4247   20.7151 C   0  0  0  0  0  0
  -27.2153  -28.6365   20.7186 C   0  0  0  0  0  0
  -26.0494  -26.8950   19.5024 C   0  0  0  0  0  0
  -24.8753  -27.6735   19.4948 C   0  0  0  0  0  0
  -23.6281  -29.8098   20.1601 C   0  0  0  0  0  0
  -25.4125  -36.3088   24.0326 C   0  0  1  0  0  0
  -20.5903  -28.3704   23.1291 C   0  0  2  0  0  0
  -20.6793  -26.9429   22.5424 C   0  0  0  0  0  0
  -19.5761  -26.6385   21.5237 C   0  0  0  0  0  0
  -18.1941  -26.7948   22.1637 C   0  0  0  0  0  0
  -19.1554  -28.8872   23.2891 C   0  0  0  0  0  0
  -18.9469  -30.1484   23.8886 C   0  0  0  0  0  0
  -17.6466  -30.6596   24.0573 C   0  0  0  0  0  0
  -25.9063  -34.9456   23.5084 C   0  0  0  0  0  0
  -16.5356  -29.9096   23.6339 C   0  0  0  0  0  0
  -16.7286  -28.6529   23.0330 C   0  0  0  0  0  0
  -26.4479  -31.6578   25.0691 C   0  0  0  0  0  0
  -25.3701  -31.3755   26.1420 C   0  0  0  0  0  0
  -27.0307  -30.2991   24.6139 C   0  0  0  0  0  0
  -27.6026  -32.4325   25.7481 C   0  0  0  0  0  0
  -27.5595  -37.1803   24.8458 C   0  0  0  0  0  0
  -21.4195  -29.3047   22.3679 N   0  0  0  0  0  0
  -26.4294  -37.3783   23.9415 N   0  0  0  0  0  0
  -24.6829  -31.0647   22.0935 N   0  0  0  0  0  0
  -23.4196  -28.8198   23.3051 O   0  0  0  0  0  0
  -28.3570  -26.5016   20.2358 O   0  0  0  0  0  0
  -26.5647  -34.8925   22.4660 O   0  0  0  0  0  0
  -23.5414  -32.1405   23.7333 O   0  0  0  0  0  0
  -29.8693  -19.6799   19.7785 C   0  0  0  0  0  0
  -29.9948  -18.3127   19.4358 C   0  0  0  0  0  0
  -29.7317  -19.0569   22.0840 C   0  0  0  0  0  0
  -29.6959  -20.1117   21.1103 C   0  0  0  0  0  0
  -29.9477  -17.2410   20.3818 C   0  0  0  0  0  0
  -29.8633  -17.6607   21.7420 C   0  0  0  0  0  0
  -28.9963  -22.5098   20.6135 C   0  0  0  0  0  0
  -30.4754  -23.4182   22.9263 C   0  0  0  0  0  0
  -29.4689  -24.3943   22.3135 C   0  0  0  0  0  0
  -29.9831  -21.9629   22.8039 C   0  0  0  0  0  0
  -29.2265  -24.0684   20.8312 C   0  0  2  0  0  0
  -29.4581  -15.7675   18.4864 C   0  0  0  0  0  0
  -28.6055  -16.3961   23.3574 C   0  0  0  0  0  0
  -31.0382  -16.8394   23.6565 C   0  0  0  0  0  0
  -28.1389  -25.0404   20.1945 C   0  0  0  0  0  0
  -29.5774  -21.5543   21.4420 N   0  0  0  0  0  0
  -29.8747  -15.8349   19.9040 N   0  0  0  0  0  0
  -29.9025  -16.6877   22.7540 N   0  0  0  0  0  0
  -28.2830  -22.1798   19.6620 O   0  0  0  0  0  0
  -31.4830  -12.5406   19.1556 H   0  0  0  0  0  0
  -30.4297  -11.4757   20.0471 H   0  0  0  0  0  0
  -29.7502  -11.3735   17.7290 H   0  0  0  0  0  0
  -29.7567  -13.0599   17.5078 H   0  0  0  0  0  0
  -27.7971  -11.2511   18.9123 H   0  0  0  0  0  0
  -27.4017  -12.5089   17.7744 H   0  0  0  0  0  0
  -27.5729  -14.2160   19.4623 H   0  0  0  0  0  0
  -28.7361  -12.2245   21.4680 H   0  0  0  0  0  0
  -28.4510  -13.9339   21.7169 H   0  0  0  0  0  0
  -25.2692   -9.5702   22.4807 H   0  0  0  0  0  0
  -23.9994   -7.4611   22.7476 H   0  0  0  0  0  0
  -21.0809   -8.8704   19.8957 H   0  0  0  0  0  0
  -22.3583  -10.9656   19.6204 H   0  0  0  0  0  0
  -21.1972   -7.6149   23.9715 H   0  0  0  0  0  0
  -21.1490   -6.0518   25.9077 H   0  0  0  0  0  0
  -22.0600   -2.7611   23.2835 H   0  0  0  0  0  0
  -22.4000  -11.9864   22.4734 H   0  0  0  0  0  0
  -21.1074  -13.1306   22.2680 H   0  0  0  0  0  0
  -24.6718  -15.8474   20.5233 H   0  0  0  0  0  0
  -26.3023  -15.6110   20.1303 H   0  0  0  0  0  0
  -26.7187  -32.5450   23.1088 H   0  0  0  0  0  0
  -25.0061  -33.9735   25.0381 H   0  0  0  0  0  0
  -22.7073  -31.3009   21.3989 H   0  0  0  0  0  0
  -23.3765  -35.9632   23.3270 H   0  0  0  0  0  0
  -24.3587  -36.8949   22.2052 H   0  0  0  0  0  0
  -23.7240  -37.6488   23.6671 H   0  0  0  0  0  0
  -26.0744  -31.5547   20.5897 H   0  0  0  0  0  0
  -26.8378  -30.8535   21.9876 H   0  0  0  0  0  0
  -28.1060  -29.0037   21.2080 H   0  0  0  0  0  0
  -26.0049  -25.9294   19.0193 H   0  0  0  0  0  0
  -23.9831  -27.2878   19.0197 H   0  0  0  0  0  0
  -23.7385  -30.5815   19.3983 H   0  0  0  0  0  0
  -22.7492  -29.2329   19.8660 H   0  0  0  0  0  0
  -25.1304  -36.1918   25.0811 H   0  0  0  0  0  0
  -21.0008  -28.3284   24.1405 H   0  0  0  0  0  0
  -20.5717  -26.2317   23.3631 H   0  0  0  0  0  0
  -21.6649  -26.7486   22.1176 H   0  0  0  0  0  0
  -19.6915  -25.6292   21.1264 H   0  0  0  0  0  0
  -19.6692  -27.3193   20.6763 H   0  0  0  0  0  0
  -17.4223  -26.6735   21.4021 H   0  0  0  0  0  0
  -18.0314  -26.0086   22.9018 H   0  0  0  0  0  0
  -19.7942  -30.7333   24.2200 H   0  0  0  0  0  0
  -17.5012  -31.6260   24.5192 H   0  0  0  0  0  0
  -15.5348  -30.2982   23.7674 H   0  0  0  0  0  0
  -15.8695  -28.0856   22.7000 H   0  0  0  0  0  0
  -24.5826  -30.7176   25.7727 H   0  0  0  0  0  0
  -24.8967  -32.2956   26.4853 H   0  0  0  0  0  0
  -25.7993  -30.8880   27.0183 H   0  0  0  0  0  0
  -26.2873  -29.6759   24.1154 H   0  0  0  0  0  0
  -27.3986  -29.7225   25.4633 H   0  0  0  0  0  0
  -27.8747  -30.4254   23.9359 H   0  0  0  0  0  0
  -27.2603  -33.3612   26.2064 H   0  0  0  0  0  0
  -28.3840  -32.6918   25.0324 H   0  0  0  0  0  0
  -28.0693  -31.8454   26.5401 H   0  0  0  0  0  0
  -28.2580  -38.0136   24.7544 H   0  0  0  0  0  0
  -28.1136  -36.2667   24.6230 H   0  0  0  0  0  0
  -27.2338  -37.1375   25.8868 H   0  0  0  0  0  0
  -20.9371  -29.8751   21.6884 H   0  0  0  0  0  0
  -26.0180  -38.2854   24.1413 H   0  0  0  0  0  0
  -29.9152  -20.4023   18.9762 H   0  0  0  0  0  0
  -30.1154  -18.1308   18.3797 H   0  0  0  0  0  0
  -29.6386  -19.3066   23.1288 H   0  0  0  0  0  0
  -30.6482  -23.6728   23.9737 H   0  0  0  0  0  0
  -31.4409  -23.5225   22.4270 H   0  0  0  0  0  0
  -29.8473  -25.4136   22.4014 H   0  0  0  0  0  0
  -28.5270  -24.3671   22.8648 H   0  0  0  0  0  0
  -29.1318  -21.8128   23.4734 H   0  0  0  0  0  0
  -30.7789  -21.3147   23.1712 H   0  0  0  0  0  0
  -30.1609  -24.2716   20.3064 H   0  0  0  0  0  0
  -28.6380  -16.4566   18.2787 H   0  0  0  0  0  0
  -29.0629  -14.8273   18.1575 H   0  0  0  0  0  0
  -30.2918  -16.0039   17.8221 H   0  0  0  0  0  0
  -28.4410  -16.9682   24.2731 H   0  0  0  0  0  0
  -28.5490  -15.3404   23.6187 H   0  0  0  0  0  0
  -27.7799  -16.6122   22.6742 H   0  0  0  0  0  0
  -31.9201  -17.2197   23.1341 H   0  0  0  0  0  0
  -31.3133  -15.8803   24.0958 H   0  0  0  0  0  0
  -30.8069  -17.5298   24.4694 H   0  0  0  0  0  0
  -27.1906  -24.8075   20.6787 H   0  0  0  0  0  0
  -28.0164  -24.7679   19.1450 H   0  0  0  0  0  0
  1 25  1  0  0  0
  1 30  2  0  0  0
  1 87  1  0  0  0
  2  3  1  0  0  0
  2 25  1  0  0  0
  2 90  1  0  0  0
  2 91  1  0  0  0
  3  4  1  0  0  0
  3 92  1  0  0  0
  3 93  1  0  0  0
  4  5  1  0  0  0
  4 94  1  0  0  0
  4 95  1  0  0  0
  5  6  1  0  0  0
  5 26  1  0  0  0
  5 96  1  0  0  0
  6 25  1  0  0  0
  6 97  1  0  0  0
  6 98  1  0  0  0
  7  8  2  0  0  0
  7 26  1  0  0  0
  7 29  1  0  0  0
  8  9  1  0  0  0
  8 22  1  0  0  0
  9 10  1  0  0  0
  9 27  2  0  0  0
 10 11  2  0  0  0
 10 15  1  0  0  0
 11 12  1  0  0  0
 11 99  1  0  0  0
 12 13  2  0  0  0
 12100  1  0  0  0
 13 14  1  0  0  0
 13 31  1  0  0  0
 14 15  2  0  0  0
 14101  1  0  0  0
 15102  1  0  0  0
 16 17  2  0  0  0
 16 21  1  0  0  0
 16 31  1  0  0  0
 17 18  1  0  0  0
 17103  1  0  0  0
 18 19  2  0  0  0
 18104  1  0  0  0
 19 20  1  0  0  0
 19 24  1  0  0  0
 20 21  2  0  0  0
 20105  1  0  0  0
 21 23  1  0  0  0
 22 28  1  0  0  0
 22 32  2  0  0  0
 26 27  1  0  0  0
 28106  1  0  0  0
 28107  1  0  0  0
 29108  1  0  0  0
 29109  1  0  0  0
 33 34  1  0  0  0
 33 66  1  0  0  0
 33 70  2  0  0  0
 34 36  1  0  0  0
 34 59  1  0  0  0
 34110  1  0  0  0
 35 44  2  0  0  0
 35 45  1  0  0  0
 35 68  1  0  0  0
 36 56  1  0  0  0
 36111  1  0  0  0
 37 39  1  0  0  0
 37 47  1  0  0  0
 37 66  1  0  0  0
 37112  1  0  0  0
 38 43  2  0  0  0
 38 46  1  0  0  0
 38 47  1  0  0  0
 39 64  1  0  0  0
 39 67  2  0  0  0
 40 52  1  0  0  0
 40 53  2  0  0  0
 40 58  1  0  0  0
 41113  1  0  0  0
 41114  1  0  0  0
 41115  1  0  0  0
 41 48  1  0  0  0
 42 43  1  0  0  0
 42 66  1  0  0  0
 42116  1  0  0  0
 42117  1  0  0  0
 43 44  1  0  0  0
 44118  1  0  0  0
 45 46  2  0  0  0
 45119  1  0  0  0
 46120  1  0  0  0
 47121  1  0  0  0
 47122  1  0  0  0
 48 56  1  0  0  0
 48 65  1  0  0  0
 48123  1  0  0  0
 49 50  1  0  0  0
 49 53  1  0  0  0
 49 64  1  0  0  0
 49124  1  0  0  0
 50 51  1  0  0  0
 50125  1  0  0  0
 50126  1  0  0  0
 51 52  1  0  0  0
 51127  1  0  0  0
 51128  1  0  0  0
 52129  1  0  0  0
 52130  1  0  0  0
 53 54  1  0  0  0
 54 55  2  0  0  0
 54131  1  0  0  0
 55 57  1  0  0  0
 55132  1  0  0  0
 56 69  2  0  0  0
 57 58  2  0  0  0
 57133  1  0  0  0
 58134  1  0  0  0
 59 60  1  0  0  0
 59 61  1  0  0  0
 59 62  1  0  0  0
 60135  1  0  0  0
 60136  1  0  0  0
 60137  1  0  0  0
 61138  1  0  0  0
 61139  1  0  0  0
 61140  1  0  0  0
 62141  1  0  0  0
 62142  1  0  0  0
 62143  1  0  0  0
 63 65  1  0  0  0
 63144  1  0  0  0
 63145  1  0  0  0
 63146  1  0  0  0
 64147  1  0  0  0
 65148  1  0  0  0
 68 85  1  0  0  0
 71 72  2  0  0  0
 71 74  1  0  0  0
 71149  1  0  0  0
 72 75  1  0  0  0
 72150  1  0  0  0
 73 74  2  0  0  0
 73 76  1  0  0  0
 73151  1  0  0  0
 74 86  1  0  0  0
 75 76  2  0  0  0
 75 87  1  0  0  0
 76 88  1  0  0  0
 77 81  1  0  0  0
 77 86  1  0  0  0
 77 89  2  0  0  0
 78 79  1  0  0  0
 78 80  1  0  0  0
 78152  1  0  0  0
 78153  1  0  0  0
 79 81  1  0  0  0
 79154  1  0  0  0
 79155  1  0  0  0
 80 86  1  0  0  0
 80156  1  0  0  0
 80157  1  0  0  0
 81 85  1  0  0  0
 81158  1  0  0  0
 82 87  1  0  0  0
 82159  1  0  0  0
 82160  1  0  0  0
 82161  1  0  0  0
 83 88  1  0  0  0
 83162  1  0  0  0
 83163  1  0  0  0
 83164  1  0  0  0
 84 88  1  0  0  0
 84165  1  0  0  0
 84166  1  0  0  0
 84167  1  0  0  0
 85168  1  0  0  0
 85169  1  0  0  0
M  ISO  4   1 100  68 101  85 101  87 100
M  END
> <chiral flag>
0

> <version>
0

> <s_m_source_file>
/data/baiqing/PycharmProjects/Reinvent-master-3.2/result/LINK_invent/BTK/process_docking_weight1_custom_product_contain_oxygen_bond_distance_aromatic_linkinvent_7_9_3/rearranged_h_0016.sdf

> <i_m_source_file_index>
43

> <r_mmod_Potential_Energy-OPLS-2005>
428.986938476562

> <r_mmod_Stretch_Energy-OPLS-2005>
102.132385253906

> <r_mmod_Bend_Energy-OPLS-2005>
153.039962768555

> <r_mmod_Torsional_Energy-OPLS-2005>
381.546539306641

> <r_mmod_Improper_Torsional_Energy-OPLS-2005>
24.7364692687988

> <r_mmod_Van_der_Waal_Energy-OPLS-2005>
180.06330871582

> <r_mmod_Electrostatic_Energy-OPLS-2005>
-287.413513183594

> <r_mmod_Solvation_Energy-OPLS-2005>
-209.961196899414

> <b_mmod_Minimization_Converged-OPLS-2005>
0

> <r_mmod_RMS_Derivative-OPLS-2005>
4.10041904449463

$$$$
43
                    3D
 Structure written by MMmdl.
174182  0  0  1  0            999 V2000
  -30.6970  -14.5043   20.4380 C   0  0  0  0  0  0
  -30.4195  -12.2976   19.4151 C   0  0  0  0  0  0
  -29.4859  -12.4660   18.1996 C   0  0  0  0  0  0
  -28.0049  -12.3353   18.6238 C   0  0  0  0  0  0
  -27.6531  -13.1809   19.8806 C   0  0  2  0  0  0
  -28.7185  -13.0121   20.9863 C   0  0  0  0  0  0
  -25.2589  -13.8096   20.5787 C   0  0  0  0  0  0
  -24.1791  -13.0395   20.9231 C   0  0  0  0  0  0
  -24.6329  -11.6868   20.8800 C   0  0  0  0  0  0
  -23.9016  -10.4261   21.0445 C   0  0  0  0  0  0
  -24.3582   -9.4175   21.9205 C   0  0  0  0  0  0
  -23.6255   -8.2208   22.0759 C   0  0  0  0  0  0
  -22.4233   -8.0263   21.3555 C   0  0  0  0  0  0
  -21.9874   -9.0248   20.4659 C   0  0  0  0  0  0
  -22.7212  -10.2122   20.3071 C   0  0  0  0  0  0
  -21.6818   -6.0734   22.5304 C   0  0  0  0  0  0
  -21.3988   -6.5644   23.8241 C   0  0  0  0  0  0
  -21.3652   -5.6807   24.9205 C   0  0  0  0  0  0
  -21.6040   -4.3071   24.7243 C   0  0  0  0  0  0
  -21.8812   -3.8155   23.4374 C   0  0  0  0  0  0
  -21.9156   -4.6963   22.3424 C   0  0  0  0  0  0
  -22.7814  -13.5229   21.1878 C   0  0  0  0  0  0
  -22.1608   -4.2151   21.0989 F   0  0  0  0  0  0
  -21.5664   -3.4541   25.7753 F   0  0  0  0  0  0
  -30.0222  -13.3232   20.3872 N   0  0  0  0  0  0
  -26.2988  -12.9199   20.3509 N   0  0  0  0  0  0
  -25.9251  -11.6387   20.5879 N   0  0  0  0  0  0
  -22.0429  -12.8225   22.0421 N   0  0  0  0  0  0
  -25.4328  -15.1801   20.4246 N   0  0  0  0  0  0
  -31.9130  -14.5507   20.2427 O   0  0  0  0  0  0
  -21.6611   -6.8861   21.4248 O   0  0  0  0  0  0
  -22.3524  -14.5547   20.6739 O   0  0  0  0  0  0
  -24.6112  -31.8691   23.2126 C   0  0  0  0  0  0
  -25.9019  -32.4825   23.8399 C   0  0  1  0  0  0
  -27.2501  -27.4731   20.0626 C   0  0  0  0  0  0
  -25.5895  -33.8631   24.2331 N   0  0  0  0  0  0
  -23.3986  -30.4920   21.5510 C   0  0  2  0  0  0
  -24.8460  -28.9585   20.1139 C   0  0  0  0  0  0
  -22.7389  -29.4668   22.5002 C   0  0  0  0  0  0
  -18.0266  -28.1378   22.8493 C   0  0  0  0  0  0
  -24.1486  -36.7319   23.2638 C   0  0  0  0  0  0
  -25.9243  -30.8373   21.3665 C   0  0  0  0  0  0
  -26.0003  -29.4734   20.7143 C   0  0  0  0  0  0
  -27.1974  -28.7292   20.7018 C   0  0  0  0  0  0
  -26.0750  -26.9572   19.4686 C   0  0  0  0  0  0
  -24.8741  -27.6944   19.4984 C   0  0  0  0  0  0
  -23.6059  -29.8219   20.1651 C   0  0  0  0  0  0
  -25.4106  -36.3119   24.0337 C   0  0  1  0  0  0
  -20.5853  -28.3661   23.1327 C   0  0  2  0  0  0
  -20.6757  -26.9401   22.5423 C   0  0  0  0  0  0
  -19.5741  -26.6386   21.5217 C   0  0  0  0  0  0
  -18.1918  -26.7929   22.1618 C   0  0  0  0  0  0
  -19.1513  -28.8833   23.2909 C   0  0  0  0  0  0
  -18.9447  -30.1441   23.8917 C   0  0  0  0  0  0
  -17.6453  -30.6589   24.0568 C   0  0  0  0  0  0
  -25.9032  -34.9482   23.5130 C   0  0  0  0  0  0
  -16.5341  -29.9096   23.6325 C   0  0  0  0  0  0
  -16.7256  -28.6510   23.0347 C   0  0  0  0  0  0
  -26.4465  -31.6610   25.0725 C   0  0  0  0  0  0
  -25.3747  -31.3715   26.1483 C   0  0  0  0  0  0
  -27.0297  -30.3053   24.6105 C   0  0  0  0  0  0
  -27.6040  -32.4333   25.7483 C   0  0  0  0  0  0
  -27.5583  -37.1810   24.8459 C   0  0  0  0  0  0
  -21.4118  -29.3033   22.3736 N   0  0  0  0  0  0
  -26.4294  -37.3799   23.9408 N   0  0  0  0  0  0
  -24.6618  -31.0808   22.1012 N   0  0  0  0  0  0
  -23.4171  -28.8213   23.3040 O   0  0  0  0  0  0
  -28.4463  -26.7941   20.0688 O   0  0  0  0  0  0
  -26.5592  -34.8929   22.4693 O   0  0  0  0  0  0
  -23.5306  -32.1447   23.7528 O   0  0  0  0  0  0
  -30.4150  -22.0170   18.9112 C   0  0  0  0  0  0
  -30.1945  -20.7010   19.3468 C   0  0  0  0  0  0
  -32.7906  -21.7559   19.3196 C   0  0  0  0  0  0
  -31.7207  -22.5644   18.8552 C   0  0  0  0  0  0
  -31.2756  -19.8880   19.7347 C   0  0  0  0  0  0
  -32.5748  -20.4370   19.7704 C   0  0  0  0  0  0
  -31.4537  -17.5099   19.3229 C   0  0  0  0  0  0
  -28.0055  -16.2389   17.9200 C   0  0  0  0  0  0
  -29.7980  -17.4501   16.6660 C   0  0  0  0  0  0
  -33.2670  -24.4785   18.4807 C   0  0  0  0  0  0
  -29.1807  -16.2825   21.1459 C   0  0  0  0  0  0
  -30.1975  -25.4467   19.1762 C   0  0  0  0  0  0
  -30.8143  -24.7270   17.9629 C   0  0  0  0  0  0
  -28.7974  -26.0258   18.9205 C   0  0  0  0  0  0
  -30.4308  -16.4078   18.9352 C   0  0  2  0  0  0
  -29.2871  -17.0677   18.0734 C   0  0  0  0  0  0
  -30.9944  -18.5383   20.0535 N   0  0  0  0  0  0
  -31.9424  -23.8721   18.3502 N   0  0  0  0  0  0
  -29.9525  -15.5966   20.1009 N   0  0  0  0  0  0
  -32.6236  -17.4186   18.9481 O   0  0  0  0  0  0
  -33.6189  -19.7117   20.2414 F   0  0  0  0  0  0
  -31.4637  -12.3870   19.1077 H   0  0  0  0  0  0
  -30.3174  -11.3025   19.8525 H   0  0  0  0  0  0
  -29.7223  -11.7225   17.4363 H   0  0  0  0  0  0
  -29.6573  -13.4393   17.7389 H   0  0  0  0  0  0
  -27.8177  -11.2808   18.8318 H   0  0  0  0  0  0
  -27.3446  -12.6011   17.7975 H   0  0  0  0  0  0
  -27.6710  -14.2167   19.5748 H   0  0  0  0  0  0
  -28.7180  -11.9883   21.3627 H   0  0  0  0  0  0
  -28.5141  -13.6362   21.8551 H   0  0  0  0  0  0
  -25.2737   -9.5660   22.4770 H   0  0  0  0  0  0
  -23.9969   -7.4568   22.7450 H   0  0  0  0  0  0
  -21.0823   -8.8769   19.8945 H   0  0  0  0  0  0
  -22.3688  -10.9651   19.6167 H   0  0  0  0  0  0
  -21.1969   -7.6152   23.9755 H   0  0  0  0  0  0
  -21.1493   -6.0541   25.9116 H   0  0  0  0  0  0
  -22.0595   -2.7621   23.2875 H   0  0  0  0  0  0
  -22.4003  -11.9882   22.4825 H   0  0  0  0  0  0
  -21.1066  -13.1268   22.2690 H   0  0  0  0  0  0
  -24.6774  -15.8436   20.5534 H   0  0  0  0  0  0
  -26.3079  -15.6158   20.1635 H   0  0  0  0  0  0
  -26.7093  -32.5543   23.1164 H   0  0  0  0  0  0
  -25.0057  -33.9799   25.0481 H   0  0  0  0  0  0
  -22.6868  -31.3082   21.4111 H   0  0  0  0  0  0
  -23.3745  -35.9655   23.3314 H   0  0  0  0  0  0
  -24.3579  -36.8919   22.2051 H   0  0  0  0  0  0
  -23.7241  -37.6529   23.6643 H   0  0  0  0  0  0
  -26.0385  -31.6053   20.6006 H   0  0  0  0  0  0
  -26.8109  -30.8869   21.9867 H   0  0  0  0  0  0
  -28.0910  -29.1253   21.1637 H   0  0  0  0  0  0
  -26.0660  -25.9901   18.9892 H   0  0  0  0  0  0
  -23.9832  -27.2892   19.0388 H   0  0  0  0  0  0
  -23.7109  -30.5963   19.4041 H   0  0  0  0  0  0
  -22.7317  -29.2380   19.8717 H   0  0  0  0  0  0
  -25.1287  -36.1985   25.0830 H   0  0  0  0  0  0
  -20.9942  -28.3228   24.1451 H   0  0  0  0  0  0
  -20.5666  -26.2274   23.3609 H   0  0  0  0  0  0
  -21.6627  -26.7456   22.1213 H   0  0  0  0  0  0
  -19.6906  -25.6300   21.1243 H   0  0  0  0  0  0
  -19.6695  -27.3201   20.6755 H   0  0  0  0  0  0
  -17.4199  -26.6689   21.4011 H   0  0  0  0  0  0
  -18.0308  -26.0059   22.9002 H   0  0  0  0  0  0
  -19.7927  -30.7248   24.2297 H   0  0  0  0  0  0
  -17.5013  -31.6275   24.5159 H   0  0  0  0  0  0
  -15.5343  -30.3009   23.7633 H   0  0  0  0  0  0
  -15.8655  -28.0841   22.7046 H   0  0  0  0  0  0
  -24.5901  -30.7082   25.7825 H   0  0  0  0  0  0
  -24.8963  -32.2874   26.4962 H   0  0  0  0  0  0
  -25.8107  -30.8861   27.0223 H   0  0  0  0  0  0
  -26.2842  -29.6814   24.1160 H   0  0  0  0  0  0
  -27.4068  -29.7288   25.4562 H   0  0  0  0  0  0
  -27.8676  -30.4368   23.9254 H   0  0  0  0  0  0
  -27.2650  -33.3607   26.2109 H   0  0  0  0  0  0
  -28.3822  -32.6940   25.0299 H   0  0  0  0  0  0
  -28.0744  -31.8439   26.5361 H   0  0  0  0  0  0
  -28.2599  -38.0110   24.7520 H   0  0  0  0  0  0
  -28.1082  -36.2646   24.6268 H   0  0  0  0  0  0
  -27.2308  -37.1440   25.8863 H   0  0  0  0  0  0
  -20.9275  -29.8762   21.6965 H   0  0  0  0  0  0
  -26.0187  -38.2878   24.1418 H   0  0  0  0  0  0
  -29.5442  -22.5766   18.6102 H   0  0  0  0  0  0
  -29.1849  -20.3156   19.3422 H   0  0  0  0  0  0
  -33.8065  -22.1179   19.3339 H   0  0  0  0  0  0
  -27.3389  -16.6735   17.1745 H   0  0  0  0  0  0
  -27.4467  -16.2258   18.8511 H   0  0  0  0  0  0
  -28.2154  -15.2164   17.6095 H   0  0  0  0  0  0
  -29.0237  -17.9481   16.0813 H   0  0  0  0  0  0
  -30.1066  -16.5660   16.1069 H   0  0  0  0  0  0
  -30.6482  -18.1334   16.7018 H   0  0  0  0  0  0
  -33.6307  -24.4302   19.5087 H   0  0  0  0  0  0
  -33.2473  -25.5300   18.1918 H   0  0  0  0  0  0
  -33.9901  -23.9768   17.8347 H   0  0  0  0  0  0
  -28.2927  -15.7242   21.4328 H   0  0  0  0  0  0
  -28.8205  -17.2569   20.8208 H   0  0  0  0  0  0
  -29.7871  -16.4380   22.0391 H   0  0  0  0  0  0
  -30.8692  -26.2458   19.4899 H   0  0  0  0  0  0
  -30.1234  -24.7596   20.0192 H   0  0  0  0  0  0
  -31.1646  -25.4776   17.2520 H   0  0  0  0  0  0
  -30.0667  -24.1635   17.4041 H   0  0  0  0  0  0
  -28.1008  -25.2043   18.7538 H   0  0  0  0  0  0
  -28.8007  -26.6590   18.0310 H   0  0  0  0  0  0
  -30.9512  -15.7316   18.2517 H   0  0  0  0  0  0
  -28.9580  -17.9989   18.5354 H   0  0  0  0  0  0
  -30.0603  -18.3755   20.3969 H   0  0  0  0  0  0
  1 25  1  0  0  0
  1 30  2  0  0  0
  1 89  1  0  0  0
  2  3  1  0  0  0
  2 25  1  0  0  0
  2 92  1  0  0  0
  2 93  1  0  0  0
  3  4  1  0  0  0
  3 94  1  0  0  0
  3 95  1  0  0  0
  4  5  1  0  0  0
  4 96  1  0  0  0
  4 97  1  0  0  0
  5  6  1  0  0  0
  5 26  1  0  0  0
  5 98  1  0  0  0
  6 25  1  0  0  0
  6 99  1  0  0  0
  6100  1  0  0  0
  7  8  2  0  0  0
  7 26  1  0  0  0
  7 29  1  0  0  0
  8  9  1  0  0  0
  8 22  1  0  0  0
  9 10  1  0  0  0
  9 27  2  0  0  0
 10 11  2  0  0  0
 10 15  1  0  0  0
 11 12  1  0  0  0
 11101  1  0  0  0
 12 13  2  0  0  0
 12102  1  0  0  0
 13 14  1  0  0  0
 13 31  1  0  0  0
 14 15  2  0  0  0
 14103  1  0  0  0
 15104  1  0  0  0
 16 17  2  0  0  0
 16 21  1  0  0  0
 16 31  1  0  0  0
 17 18  1  0  0  0
 17105  1  0  0  0
 18 19  2  0  0  0
 18106  1  0  0  0
 19 20  1  0  0  0
 19 24  1  0  0  0
 20 21  2  0  0  0
 20107  1  0  0  0
 21 23  1  0  0  0
 22 28  1  0  0  0
 22 32  2  0  0  0
 26 27  1  0  0  0
 28108  1  0  0  0
 28109  1  0  0  0
 29110  1  0  0  0
 29111  1  0  0  0
 33 34  1  0  0  0
 33 66  1  0  0  0
 33 70  2  0  0  0
 34 36  1  0  0  0
 34 59  1  0  0  0
 34112  1  0  0  0
 35 44  2  0  0  0
 35 45  1  0  0  0
 35 68  1  0  0  0
 36 56  1  0  0  0
 36113  1  0  0  0
 37 39  1  0  0  0
 37 47  1  0  0  0
 37 66  1  0  0  0
 37114  1  0  0  0
 38 43  2  0  0  0
 38 46  1  0  0  0
 38 47  1  0  0  0
 39 64  1  0  0  0
 39 67  2  0  0  0
 40 52  1  0  0  0
 40 53  2  0  0  0
 40 58  1  0  0  0
 41115  1  0  0  0
 41116  1  0  0  0
 41117  1  0  0  0
 41 48  1  0  0  0
 42 43  1  0  0  0
 42 66  1  0  0  0
 42118  1  0  0  0
 42119  1  0  0  0
 43 44  1  0  0  0
 44120  1  0  0  0
 45 46  2  0  0  0
 45121  1  0  0  0
 46122  1  0  0  0
 47123  1  0  0  0
 47124  1  0  0  0
 48 56  1  0  0  0
 48 65  1  0  0  0
 48125  1  0  0  0
 49 50  1  0  0  0
 49 53  1  0  0  0
 49 64  1  0  0  0
 49126  1  0  0  0
 50 51  1  0  0  0
 50127  1  0  0  0
 50128  1  0  0  0
 51 52  1  0  0  0
 51129  1  0  0  0
 51130  1  0  0  0
 52131  1  0  0  0
 52132  1  0  0  0
 53 54  1  0  0  0
 54 55  2  0  0  0
 54133  1  0  0  0
 55 57  1  0  0  0
 55134  1  0  0  0
 56 69  2  0  0  0
 57 58  2  0  0  0
 57135  1  0  0  0
 58136  1  0  0  0
 59 60  1  0  0  0
 59 61  1  0  0  0
 59 62  1  0  0  0
 60137  1  0  0  0
 60138  1  0  0  0
 60139  1  0  0  0
 61140  1  0  0  0
 61141  1  0  0  0
 61142  1  0  0  0
 62143  1  0  0  0
 62144  1  0  0  0
 62145  1  0  0  0
 63 65  1  0  0  0
 63146  1  0  0  0
 63147  1  0  0  0
 63148  1  0  0  0
 64149  1  0  0  0
 65150  1  0  0  0
 68 84  1  0  0  0
 71 72  2  0  0  0
 71 74  1  0  0  0
 71151  1  0  0  0
 72 75  1  0  0  0
 72152  1  0  0  0
 73 74  2  0  0  0
 73 76  1  0  0  0
 73153  1  0  0  0
 74 88  1  0  0  0
 75 76  2  0  0  0
 75 87  1  0  0  0
 76 91  1  0  0  0
 77 85  1  0  0  0
 77 87  1  0  0  0
 77 90  2  0  0  0
 78154  1  0  0  0
 78155  1  0  0  0
 78156  1  0  0  0
 78 86  1  0  0  0
 79 86  1  0  0  0
 79157  1  0  0  0
 79158  1  0  0  0
 79159  1  0  0  0
 80 88  1  0  0  0
 80160  1  0  0  0
 80161  1  0  0  0
 80162  1  0  0  0
 81 89  1  0  0  0
 81163  1  0  0  0
 81164  1  0  0  0
 81165  1  0  0  0
 82 83  1  0  0  0
 82 84  1  0  0  0
 82166  1  0  0  0
 82167  1  0  0  0
 83 88  1  0  0  0
 83168  1  0  0  0
 83169  1  0  0  0
 84170  1  0  0  0
 84171  1  0  0  0
 85 86  1  0  0  0
 85 89  1  0  0  0
 85172  1  0  0  0
 86173  1  0  0  0
 87174  1  0  0  0
M  ISO  4   1 100  68 101  84 101  89 100
M  END
> <chiral flag>
0

> <version>
0

> <s_m_source_file>
/data/baiqing/PycharmProjects/Reinvent-master-3.2/result/LINK_invent/BTK/process_docking_weight1_custom_product_contain_oxygen_bond_distance_aromatic_linkinvent_7_9_3/rearranged_h_0016.sdf

> <i_m_source_file_index>
44

> <r_mmod_Potential_Energy-OPLS-2005>
119.398330688477

> <r_mmod_Stretch_Energy-OPLS-2005>
43.4066123962402

> <r_mmod_Bend_Energy-OPLS-2005>
127.766693115234

> <r_mmod_Torsional_Energy-OPLS-2005>
354.009735107422

> <r_mmod_Improper_Torsional_Energy-OPLS-2005>
26.2362155914307

> <r_mmod_Van_der_Waal_Energy-OPLS-2005>
168.064270019531

> <r_mmod_Electrostatic_Energy-OPLS-2005>
-373.145233154297

> <r_mmod_Solvation_Energy-OPLS-2005>
-252.426742553711

> <b_mmod_Minimization_Converged-OPLS-2005>
0

> <r_mmod_RMS_Derivative-OPLS-2005>
3.06800723075867

$$$$
44
                    3D
 Structure written by MMmdl.
154162  0  0  1  0            999 V2000
  -30.6434  -14.5659   20.5779 C   0  0  0  0  0  0
  -30.4398  -12.3670   19.4358 C   0  0  0  0  0  0
  -29.5051  -12.5099   18.2122 C   0  0  0  0  0  0
  -28.0242  -12.3540   18.6222 C   0  0  0  0  0  0
  -27.6553  -13.2029   19.8687 C   0  0  2  0  0  0
  -28.6987  -13.0057   20.9922 C   0  0  0  0  0  0
  -25.2552  -13.8110   20.5719 C   0  0  0  0  0  0
  -24.1800  -13.0384   20.9187 C   0  0  0  0  0  0
  -24.6346  -11.6850   20.8700 C   0  0  0  0  0  0
  -23.9029  -10.4235   21.0385 C   0  0  0  0  0  0
  -24.3581   -9.4140   21.9171 C   0  0  0  0  0  0
  -23.6239   -8.2193   22.0730 C   0  0  0  0  0  0
  -22.4213   -8.0254   21.3538 C   0  0  0  0  0  0
  -21.9863   -9.0211   20.4622 C   0  0  0  0  0  0
  -22.7196  -10.2092   20.3033 C   0  0  0  0  0  0
  -21.6828   -6.0718   22.5263 C   0  0  0  0  0  0
  -21.4000   -6.5606   23.8205 C   0  0  0  0  0  0
  -21.3672   -5.6748   24.9160 C   0  0  0  0  0  0
  -21.6061   -4.3016   24.7200 C   0  0  0  0  0  0
  -21.8815   -3.8120   23.4315 C   0  0  0  0  0  0
  -21.9164   -4.6945   22.3374 C   0  0  0  0  0  0
  -22.7827  -13.5207   21.1839 C   0  0  0  0  0  0
  -22.1638   -4.2136   21.0955 F   0  0  0  0  0  0
  -21.5647   -3.4505   25.7724 F   0  0  0  0  0  0
  -30.0191  -13.3577   20.4435 N   0  0  0  0  0  0
  -26.2972  -12.9270   20.3319 N   0  0  0  0  0  0
  -25.9265  -11.6423   20.5702 N   0  0  0  0  0  0
  -22.0460  -12.8243   22.0421 N   0  0  0  0  0  0
  -25.4290  -15.1846   20.4194 N   0  0  0  0  0  0
  -31.7881  -14.7620   20.1549 O   0  0  0  0  0  0
  -21.6569   -6.8869   21.4241 O   0  0  0  0  0  0
  -22.3528  -14.5505   20.6653 O   0  0  0  0  0  0
  -24.6174  -31.8648   23.2029 C   0  0  0  0  0  0
  -25.9037  -32.4800   23.8362 C   0  0  1  0  0  0
  -27.2391  -27.3824   20.1210 C   0  0  0  0  0  0
  -25.5889  -33.8594   24.2294 N   0  0  0  0  0  0
  -23.4081  -30.4824   21.5457 C   0  0  2  0  0  0
  -24.8603  -28.9375   20.1187 C   0  0  0  0  0  0
  -22.7420  -29.4618   22.4974 C   0  0  0  0  0  0
  -18.0268  -28.1382   22.8485 C   0  0  0  0  0  0
  -24.1490  -36.7299   23.2640 C   0  0  0  0  0  0
  -25.9417  -30.8166   21.3643 C   0  0  0  0  0  0
  -26.0240  -29.4460   20.7114 C   0  0  0  0  0  0
  -27.2196  -28.6816   20.6952 C   0  0  0  0  0  0
  -26.0591  -26.8973   19.5218 C   0  0  0  0  0  0
  -24.8774  -27.6665   19.5157 C   0  0  0  0  0  0
  -23.6225  -29.8083   20.1644 C   0  0  0  0  0  0
  -25.4113  -36.3101   24.0348 C   0  0  1  0  0  0
  -20.5858  -28.3653   23.1325 C   0  0  2  0  0  0
  -20.6748  -26.9394   22.5426 C   0  0  0  0  0  0
  -19.5739  -26.6384   21.5203 C   0  0  0  0  0  0
  -18.1908  -26.7946   22.1586 C   0  0  0  0  0  0
  -19.1519  -28.8836   23.2907 C   0  0  0  0  0  0
  -18.9443  -30.1425   23.8935 C   0  0  0  0  0  0
  -17.6439  -30.6574   24.0581 C   0  0  0  0  0  0
  -25.9044  -34.9459   23.5124 C   0  0  0  0  0  0
  -16.5333  -29.9074   23.6329 C   0  0  0  0  0  0
  -16.7259  -28.6496   23.0350 C   0  0  0  0  0  0
  -26.4463  -31.6600   25.0705 C   0  0  0  0  0  0
  -25.3720  -31.3721   26.1458 C   0  0  0  0  0  0
  -27.0296  -30.3035   24.6105 C   0  0  0  0  0  0
  -27.6044  -32.4317   25.7466 C   0  0  0  0  0  0
  -27.5588  -37.1811   24.8471 C   0  0  0  0  0  0
  -21.4146  -29.3014   22.3734 N   0  0  0  0  0  0
  -26.4296  -37.3783   23.9407 N   0  0  0  0  0  0
  -24.6729  -31.0697   22.0956 N   0  0  0  0  0  0
  -23.4175  -28.8186   23.3051 O   0  0  0  0  0  0
  -28.3928  -26.6129   20.1026 O   0  0  0  0  0  0
  -26.5601  -34.8914   22.4682 O   0  0  0  0  0  0
  -23.5348  -32.1428   23.7391 O   0  0  0  0  0  0
  -29.6446  -17.9681   20.2881 C   0  0  0  0  0  0
  -31.2743  -18.7863   22.3922 C   0  0  0  0  0  0
  -29.9284  -19.3678   20.4224 C   0  0  0  0  0  0
  -30.1878  -16.9772   21.1592 C   0  0  0  0  0  0
  -30.7694  -19.7543   21.4938 C   0  0  0  0  0  0
  -30.9958  -17.4132   22.2309 C   0  0  0  0  0  0
  -29.4731  -20.3113   19.3051 C   0  0  0  0  0  0
  -28.5663  -24.0621   19.7690 C   0  0  0  0  0  0
  -29.0307  -22.6960   20.4182 C   0  0  0  0  0  0
  -28.3525  -25.2909   20.7222 C   0  0  0  0  0  0
  -29.8573  -15.5805   21.0244 N   0  0  0  0  0  0
  -29.0726  -21.6106   19.4087 N   0  0  0  0  0  0
  -29.4012  -19.8192   18.1780 O   0  0  0  0  0  0
  -31.1479  -21.0419   21.6652 F   0  0  0  0  0  0
  -31.4988  -16.5145   23.1129 F   0  0  0  0  0  0
  -31.4823  -12.4974   19.1396 H   0  0  0  0  0  0
  -30.3750  -11.3620   19.8534 H   0  0  0  0  0  0
  -29.7631  -11.7704   17.4520 H   0  0  0  0  0  0
  -29.6562  -13.4859   17.7474 H   0  0  0  0  0  0
  -27.8439  -11.2978   18.8261 H   0  0  0  0  0  0
  -27.3720  -12.6170   17.7879 H   0  0  0  0  0  0
  -27.6886  -14.2460   19.5534 H   0  0  0  0  0  0
  -28.7013  -11.9662   21.3213 H   0  0  0  0  0  0
  -28.4444  -13.5892   21.8780 H   0  0  0  0  0  0
  -25.2746   -9.5560   22.4725 H   0  0  0  0  0  0
  -23.9928   -7.4548   22.7418 H   0  0  0  0  0  0
  -21.0814   -8.8714   19.8902 H   0  0  0  0  0  0
  -22.3678  -10.9614   19.6114 H   0  0  0  0  0  0
  -21.2001   -7.6104   23.9722 H   0  0  0  0  0  0
  -21.1529   -6.0463   25.9079 H   0  0  0  0  0  0
  -22.0601   -2.7589   23.2793 H   0  0  0  0  0  0
  -22.4076  -11.9930   22.4869 H   0  0  0  0  0  0
  -21.1068  -13.1291   22.2585 H   0  0  0  0  0  0
  -24.6642  -15.8385   20.5376 H   0  0  0  0  0  0
  -26.2715  -15.6229   20.0670 H   0  0  0  0  0  0
  -26.7129  -32.5520   23.1149 H   0  0  0  0  0  0
  -25.0078  -33.9758   25.0469 H   0  0  0  0  0  0
  -22.6955  -31.2973   21.4029 H   0  0  0  0  0  0
  -23.3753  -35.9630   23.3306 H   0  0  0  0  0  0
  -24.3588  -36.8885   22.2048 H   0  0  0  0  0  0
  -23.7215  -37.6498   23.6649 H   0  0  0  0  0  0
  -26.0596  -31.5828   20.5974 H   0  0  0  0  0  0
  -26.8238  -30.8671   21.9900 H   0  0  0  0  0  0
  -28.1201  -29.0774   21.1440 H   0  0  0  0  0  0
  -26.0536  -25.9227   19.0533 H   0  0  0  0  0  0
  -23.9857  -27.2697   19.0490 H   0  0  0  0  0  0
  -23.7316  -30.5807   19.4034 H   0  0  0  0  0  0
  -22.7466  -29.2298   19.8665 H   0  0  0  0  0  0
  -25.1276  -36.1990   25.0844 H   0  0  0  0  0  0
  -20.9947  -28.3213   24.1453 H   0  0  0  0  0  0
  -20.5631  -26.2258   23.3612 H   0  0  0  0  0  0
  -21.6629  -26.7426   22.1242 H   0  0  0  0  0  0
  -19.6886  -25.6295   21.1211 H   0  0  0  0  0  0
  -19.6698  -27.3223   20.6762 H   0  0  0  0  0  0
  -17.4201  -26.6801   21.3944 H   0  0  0  0  0  0
  -18.0214  -26.0039   22.8909 H   0  0  0  0  0  0
  -19.7915  -30.7220   24.2345 H   0  0  0  0  0  0
  -17.4986  -31.6254   24.5169 H   0  0  0  0  0  0
  -15.5330  -30.2979   23.7604 H   0  0  0  0  0  0
  -15.8673  -28.0807   22.7060 H   0  0  0  0  0  0
  -24.5904  -30.7046   25.7803 H   0  0  0  0  0  0
  -24.8901  -32.2881   26.4901 H   0  0  0  0  0  0
  -25.8062  -30.8907   27.0233 H   0  0  0  0  0  0
  -26.2848  -29.6799   24.1131 H   0  0  0  0  0  0
  -27.4030  -29.7263   25.4578 H   0  0  0  0  0  0
  -27.8710  -30.4331   23.9276 H   0  0  0  0  0  0
  -27.2679  -33.3617   26.2068 H   0  0  0  0  0  0
  -28.3845  -32.6874   25.0277 H   0  0  0  0  0  0
  -28.0739  -31.8423   26.5362 H   0  0  0  0  0  0
  -28.2626  -38.0099   24.7513 H   0  0  0  0  0  0
  -28.1068  -36.2623   24.6312 H   0  0  0  0  0  0
  -27.2308  -37.1458   25.8877 H   0  0  0  0  0  0
  -20.9312  -29.8710   21.6938 H   0  0  0  0  0  0
  -26.0199  -38.2868   24.1394 H   0  0  0  0  0  0
  -29.0228  -17.6423   19.4671 H   0  0  0  0  0  0
  -31.9075  -19.1010   23.2080 H   0  0  0  0  0  0
  -27.6401  -23.9016   19.2185 H   0  0  0  0  0  0
  -29.3101  -24.3443   19.0220 H   0  0  0  0  0  0
  -28.3795  -22.4094   21.2443 H   0  0  0  0  0  0
  -30.0260  -22.8547   20.8283 H   0  0  0  0  0  0
  -29.1552  -25.2870   21.4604 H   0  0  0  0  0  0
  -27.4353  -25.1507   21.2990 H   0  0  0  0  0  0
  -28.9167  -15.3216   21.2782 H   0  0  0  0  0  0
  -28.7320  -21.9274   18.5108 H   0  0  0  0  0  0
  1 25  1  0  0  0
  1 30  2  0  0  0
  1 81  1  0  0  0
  2  3  1  0  0  0
  2 25  1  0  0  0
  2 86  1  0  0  0
  2 87  1  0  0  0
  3  4  1  0  0  0
  3 88  1  0  0  0
  3 89  1  0  0  0
  4  5  1  0  0  0
  4 90  1  0  0  0
  4 91  1  0  0  0
  5  6  1  0  0  0
  5 26  1  0  0  0
  5 92  1  0  0  0
  6 25  1  0  0  0
  6 93  1  0  0  0
  6 94  1  0  0  0
  7  8  2  0  0  0
  7 26  1  0  0  0
  7 29  1  0  0  0
  8  9  1  0  0  0
  8 22  1  0  0  0
  9 10  1  0  0  0
  9 27  2  0  0  0
 10 11  2  0  0  0
 10 15  1  0  0  0
 11 12  1  0  0  0
 11 95  1  0  0  0
 12 13  2  0  0  0
 12 96  1  0  0  0
 13 14  1  0  0  0
 13 31  1  0  0  0
 14 15  2  0  0  0
 14 97  1  0  0  0
 15 98  1  0  0  0
 16 17  2  0  0  0
 16 21  1  0  0  0
 16 31  1  0  0  0
 17 18  1  0  0  0
 17 99  1  0  0  0
 18 19  2  0  0  0
 18100  1  0  0  0
 19 20  1  0  0  0
 19 24  1  0  0  0
 20 21  2  0  0  0
 20101  1  0  0  0
 21 23  1  0  0  0
 22 28  1  0  0  0
 22 32  2  0  0  0
 26 27  1  0  0  0
 28102  1  0  0  0
 28103  1  0  0  0
 29104  1  0  0  0
 29105  1  0  0  0
 33 34  1  0  0  0
 33 66  1  0  0  0
 33 70  2  0  0  0
 34 36  1  0  0  0
 34 59  1  0  0  0
 34106  1  0  0  0
 35 44  2  0  0  0
 35 45  1  0  0  0
 35 68  1  0  0  0
 36 56  1  0  0  0
 36107  1  0  0  0
 37 39  1  0  0  0
 37 47  1  0  0  0
 37 66  1  0  0  0
 37108  1  0  0  0
 38 43  2  0  0  0
 38 46  1  0  0  0
 38 47  1  0  0  0
 39 64  1  0  0  0
 39 67  2  0  0  0
 40 52  1  0  0  0
 40 53  2  0  0  0
 40 58  1  0  0  0
 41109  1  0  0  0
 41110  1  0  0  0
 41111  1  0  0  0
 41 48  1  0  0  0
 42 43  1  0  0  0
 42 66  1  0  0  0
 42112  1  0  0  0
 42113  1  0  0  0
 43 44  1  0  0  0
 44114  1  0  0  0
 45 46  2  0  0  0
 45115  1  0  0  0
 46116  1  0  0  0
 47117  1  0  0  0
 47118  1  0  0  0
 48 56  1  0  0  0
 48 65  1  0  0  0
 48119  1  0  0  0
 49 50  1  0  0  0
 49 53  1  0  0  0
 49 64  1  0  0  0
 49120  1  0  0  0
 50 51  1  0  0  0
 50121  1  0  0  0
 50122  1  0  0  0
 51 52  1  0  0  0
 51123  1  0  0  0
 51124  1  0  0  0
 52125  1  0  0  0
 52126  1  0  0  0
 53 54  1  0  0  0
 54 55  2  0  0  0
 54127  1  0  0  0
 55 57  1  0  0  0
 55128  1  0  0  0
 56 69  2  0  0  0
 57 58  2  0  0  0
 57129  1  0  0  0
 58130  1  0  0  0
 59 60  1  0  0  0
 59 61  1  0  0  0
 59 62  1  0  0  0
 60131  1  0  0  0
 60132  1  0  0  0
 60133  1  0  0  0
 61134  1  0  0  0
 61135  1  0  0  0
 61136  1  0  0  0
 62137  1  0  0  0
 62138  1  0  0  0
 62139  1  0  0  0
 63 65  1  0  0  0
 63140  1  0  0  0
 63141  1  0  0  0
 63142  1  0  0  0
 64143  1  0  0  0
 65144  1  0  0  0
 68 80  1  0  0  0
 71 73  2  0  0  0
 71 74  1  0  0  0
 71145  1  0  0  0
 72 75  2  0  0  0
 72 76  1  0  0  0
 72146  1  0  0  0
 73 75  1  0  0  0
 73 77  1  0  0  0
 74 76  2  0  0  0
 74 81  1  0  0  0
 75 84  1  0  0  0
 76 85  1  0  0  0
 77 82  1  0  0  0
 77 83  2  0  0  0
 78 79  1  0  0  0
 78 80  1  0  0  0
 78147  1  0  0  0
 78148  1  0  0  0
 79 82  1  0  0  0
 79149  1  0  0  0
 79150  1  0  0  0
 80151  1  0  0  0
 80152  1  0  0  0
 81153  1  0  0  0
 82154  1  0  0  0
M  ISO  4   1 100  68 101  80 101  81 100
M  END
> <chiral flag>
0

> <version>
0

> <s_m_source_file>
/data/baiqing/PycharmProjects/Reinvent-master-3.2/result/LINK_invent/BTK/process_docking_weight1_custom_product_contain_oxygen_bond_distance_aromatic_linkinvent_7_9_3/rearranged_h_0016.sdf

> <i_m_source_file_index>
45

> <r_mmod_Potential_Energy-OPLS-2005>
-30.6106376647949

> <r_mmod_Stretch_Energy-OPLS-2005>
55.7901306152344

> <r_mmod_Bend_Energy-OPLS-2005>
154.588012695312

> <r_mmod_Torsional_Energy-OPLS-2005>
277.981872558594

> <r_mmod_Improper_Torsional_Energy-OPLS-2005>
5.68706321716309

> <r_mmod_Van_der_Waal_Energy-OPLS-2005>
139.812133789062

> <r_mmod_Electrostatic_Energy-OPLS-2005>
-462.955261230469

> <r_mmod_Solvation_Energy-OPLS-2005>
-226.705139160156

> <b_mmod_Minimization_Converged-OPLS-2005>
0

> <r_mmod_RMS_Derivative-OPLS-2005>
3.69033765792847

$$$$
45
                    3D
 Structure written by MMmdl.
183191  0  0  1  0            999 V2000
  -30.7682  -14.4835   20.5271 C   0  0  0  0  0  0
  -30.4117  -12.3045   19.4438 C   0  0  0  0  0  0
  -29.4986  -12.4888   18.2197 C   0  0  0  0  0  0
  -28.0245  -12.3446   18.6363 C   0  0  0  0  0  0
  -27.6567  -13.2053   19.8721 C   0  0  2  0  0  0
  -28.7093  -13.0845   21.0017 C   0  0  0  0  0  0
  -25.2627  -13.8159   20.5709 C   0  0  0  0  0  0
  -24.1856  -13.0422   20.9219 C   0  0  0  0  0  0
  -24.6438  -11.6916   20.8818 C   0  0  0  0  0  0
  -23.9099  -10.4300   21.0462 C   0  0  0  0  0  0
  -24.3647   -9.4218   21.9226 C   0  0  0  0  0  0
  -23.6308   -8.2254   22.0781 C   0  0  0  0  0  0
  -22.4275   -8.0326   21.3569 C   0  0  0  0  0  0
  -21.9935   -9.0308   20.4662 C   0  0  0  0  0  0
  -22.7286  -10.2177   20.3095 C   0  0  0  0  0  0
  -21.6861   -6.0777   22.5297 C   0  0  0  0  0  0
  -21.4007   -6.5682   23.8232 C   0  0  0  0  0  0
  -21.3651   -5.6826   24.9193 C   0  0  0  0  0  0
  -21.6040   -4.3088   24.7232 C   0  0  0  0  0  0
  -21.8800   -3.8192   23.4350 C   0  0  0  0  0  0
  -21.9186   -4.7009   22.3415 C   0  0  0  0  0  0
  -22.7892  -13.5299   21.1854 C   0  0  0  0  0  0
  -22.1653   -4.2212   21.0986 F   0  0  0  0  0  0
  -21.5613   -3.4560   25.7735 F   0  0  0  0  0  0
  -30.0415  -13.3337   20.4266 N   0  0  0  0  0  0
  -26.3037  -12.9290   20.3411 N   0  0  0  0  0  0
  -25.9375  -11.6469   20.5878 N   0  0  0  0  0  0
  -22.0485  -12.8313   22.0406 N   0  0  0  0  0  0
  -25.4324  -15.1844   20.4074 N   0  0  0  0  0  0
  -31.8910  -14.5949   20.0297 O   0  0  0  0  0  0
  -21.6638   -6.8923   21.4261 O   0  0  0  0  0  0
  -22.3617  -14.5596   20.6706 O   0  0  0  0  0  0
  -24.6139  -31.8700   23.2230 C   0  0  0  0  0  0
  -25.9042  -32.4837   23.8458 C   0  0  1  0  0  0
  -27.2078  -27.4568   20.0707 C   0  0  0  0  0  0
  -25.5919  -33.8625   24.2406 N   0  0  0  0  0  0
  -23.3963  -30.5028   21.5665 C   0  0  2  0  0  0
  -24.8268  -28.9834   20.1150 C   0  0  0  0  0  0
  -22.7380  -29.4666   22.5068 C   0  0  0  0  0  0
  -18.0235  -28.1364   22.8510 C   0  0  0  0  0  0
  -24.1495  -36.7309   23.2638 C   0  0  0  0  0  0
  -25.9251  -30.8422   21.3713 C   0  0  0  0  0  0
  -25.9918  -29.4833   20.7087 C   0  0  0  0  0  0
  -27.1868  -28.7291   20.6836 C   0  0  0  0  0  0
  -26.0193  -26.9725   19.4692 C   0  0  0  0  0  0
  -24.8351  -27.7249   19.4947 C   0  0  0  0  0  0
  -23.5944  -29.8544   20.1731 C   0  0  0  0  0  0
  -25.4100  -36.3114   24.0372 C   0  0  1  0  0  0
  -20.5816  -28.3643   23.1340 C   0  0  2  0  0  0
  -20.6727  -26.9376   22.5442 C   0  0  0  0  0  0
  -19.5711  -26.6380   21.5234 C   0  0  0  0  0  0
  -18.1873  -26.7907   22.1642 C   0  0  0  0  0  0
  -19.1482  -28.8829   23.2907 C   0  0  0  0  0  0
  -18.9415  -30.1461   23.8866 C   0  0  0  0  0  0
  -17.6411  -30.6593   24.0499 C   0  0  0  0  0  0
  -25.9038  -34.9480   23.5188 C   0  0  0  0  0  0
  -16.5304  -29.9062   23.6306 C   0  0  0  0  0  0
  -16.7217  -28.6474   23.0341 C   0  0  0  0  0  0
  -26.4482  -31.6585   25.0753 C   0  0  0  0  0  0
  -25.3810  -31.3635   26.1546 C   0  0  0  0  0  0
  -27.0277  -30.3052   24.6032 C   0  0  0  0  0  0
  -27.6070  -32.4290   25.7492 C   0  0  0  0  0  0
  -27.5591  -37.1812   24.8469 C   0  0  0  0  0  0
  -21.4109  -29.3012   22.3766 N   0  0  0  0  0  0
  -26.4301  -37.3796   23.9410 N   0  0  0  0  0  0
  -24.6642  -31.0842   22.1114 N   0  0  0  0  0  0
  -23.4161  -28.8175   23.3080 O   0  0  0  0  0  0
  -28.3829  -26.7348   20.0804 O   0  0  0  0  0  0
  -26.5583  -34.8932   22.4741 O   0  0  0  0  0  0
  -23.5371  -32.1439   23.7690 O   0  0  0  0  0  0
  -32.5567  -16.8876   23.6531 C   0  0  0  0  0  0
  -31.9734  -16.0502   22.6871 C   0  0  0  0  0  0
  -31.8899  -18.0361   24.0966 C   0  0  0  0  0  0
  -30.0683  -17.5518   22.5598 C   0  0  0  0  0  0
  -30.7289  -16.3818   22.0899 C   0  0  0  0  0  0
  -30.6230  -18.3622   23.5771 C   0  0  0  0  0  0
  -29.3236  -21.1368   22.4467 C   0  0  0  0  0  0
  -26.7815  -19.8771   25.8567 C   0  0  0  0  0  0
  -27.0769  -18.3342   23.8514 C   0  0  0  0  0  0
  -29.7478  -21.8179   24.8441 C   0  0  0  0  0  0
  -31.6514  -21.1170   23.5038 C   0  0  0  0  0  0
  -29.2276  -16.2755   20.1148 C   0  0  0  0  0  0
  -29.3846  -23.0841   19.9217 C   0  0  0  0  0  0
  -29.4768  -24.5714   20.2973 C   0  0  0  0  0  0
  -30.4749  -22.2135   20.5839 C   0  0  0  0  0  0
  -29.1482  -18.9868   25.3603 C   0  0  0  0  0  0
  -28.2946  -25.3566   19.7268 C   0  0  0  0  0  0
  -27.6119  -18.7460   25.2346 C   0  0  0  0  0  0
  -30.1454  -20.8204   23.7283 C   0  0  0  0  0  0
  -29.8841  -21.0472   21.2302 N   0  0  0  0  0  0
  -30.1514  -15.5859   21.0297 N   0  0  0  0  0  0
  -29.8936  -19.4165   24.1580 N   0  0  0  0  0  0
  -28.1210  -21.3773   22.5399 O   0  0  0  0  0  0
  -31.4591  -12.3608   19.1416 H   0  0  0  0  0  0
  -30.2843  -11.3137   19.8820 H   0  0  0  0  0  0
  -29.7496  -11.7513   17.4567 H   0  0  0  0  0  0
  -29.6637  -13.4661   17.7641 H   0  0  0  0  0  0
  -27.8487  -11.2909   18.8516 H   0  0  0  0  0  0
  -27.3732  -12.6002   17.8000 H   0  0  0  0  0  0
  -27.6569  -14.2331   19.5257 H   0  0  0  0  0  0
  -28.6891  -12.0988   21.4657 H   0  0  0  0  0  0
  -28.4809  -13.7935   21.7999 H   0  0  0  0  0  0
  -25.2784   -9.5699   22.4817 H   0  0  0  0  0  0
  -24.0022   -7.4656   22.7513 H   0  0  0  0  0  0
  -21.0863   -8.8868   19.8977 H   0  0  0  0  0  0
  -22.3767  -10.9752   19.6237 H   0  0  0  0  0  0
  -21.1995   -7.6187   23.9757 H   0  0  0  0  0  0
  -21.1485   -6.0554   25.9097 H   0  0  0  0  0  0
  -22.0575   -2.7660   23.2836 H   0  0  0  0  0  0
  -22.4033  -11.9946   22.4763 H   0  0  0  0  0  0
  -21.1142  -13.1423   22.2584 H   0  0  0  0  0  0
  -24.6644  -15.8375   20.5152 H   0  0  0  0  0  0
  -26.2873  -15.6280   20.0965 H   0  0  0  0  0  0
  -26.7078  -32.5568   23.1192 H   0  0  0  0  0  0
  -25.0022  -33.9779   25.0518 H   0  0  0  0  0  0
  -22.6871  -31.3227   21.4444 H   0  0  0  0  0  0
  -23.3765  -35.9634   23.3314 H   0  0  0  0  0  0
  -24.3594  -36.8919   22.2048 H   0  0  0  0  0  0
  -23.7258  -37.6529   23.6632 H   0  0  0  0  0  0
  -26.0402  -31.6141   20.6110 H   0  0  0  0  0  0
  -26.8163  -30.8828   21.9871 H   0  0  0  0  0  0
  -28.0898  -29.1152   21.1371 H   0  0  0  0  0  0
  -25.9713  -26.0171   18.9676 H   0  0  0  0  0  0
  -23.9406  -27.3353   19.0286 H   0  0  0  0  0  0
  -23.7044  -30.6397   19.4223 H   0  0  0  0  0  0
  -22.7115  -29.2836   19.8827 H   0  0  0  0  0  0
  -25.1279  -36.1990   25.0877 H   0  0  0  0  0  0
  -20.9898  -28.3222   24.1467 H   0  0  0  0  0  0
  -20.5596  -26.2249   23.3619 H   0  0  0  0  0  0
  -21.6607  -26.7418   22.1253 H   0  0  0  0  0  0
  -19.6861  -25.6299   21.1257 H   0  0  0  0  0  0
  -19.6623  -27.3207   20.6780 H   0  0  0  0  0  0
  -17.4140  -26.6669   21.4035 H   0  0  0  0  0  0
  -18.0227  -26.0060   22.9046 H   0  0  0  0  0  0
  -19.7877  -30.7314   24.2192 H   0  0  0  0  0  0
  -17.4935  -31.6293   24.5032 H   0  0  0  0  0  0
  -15.5286  -30.2943   23.7630 H   0  0  0  0  0  0
  -15.8615  -28.0782   22.7068 H   0  0  0  0  0  0
  -24.6029  -30.6920   25.7910 H   0  0  0  0  0  0
  -24.8970  -32.2770   26.5023 H   0  0  0  0  0  0
  -25.8241  -30.8835   27.0281 H   0  0  0  0  0  0
  -26.2793  -29.6890   24.1024 H   0  0  0  0  0  0
  -27.4053  -29.7217   25.4424 H   0  0  0  0  0  0
  -27.8673  -30.4408   23.9218 H   0  0  0  0  0  0
  -27.2664  -33.3562   26.2105 H   0  0  0  0  0  0
  -28.3802  -32.6924   25.0270 H   0  0  0  0  0  0
  -28.0789  -31.8401   26.5371 H   0  0  0  0  0  0
  -28.2622  -38.0095   24.7523 H   0  0  0  0  0  0
  -28.1095  -36.2645   24.6311 H   0  0  0  0  0  0
  -27.2311  -37.1480   25.8873 H   0  0  0  0  0  0
  -20.9299  -29.8615   21.6871 H   0  0  0  0  0  0
  -26.0213  -38.2894   24.1405 H   0  0  0  0  0  0
  -33.5206  -16.6401   24.0677 H   0  0  0  0  0  0
  -32.5360  -15.1766   22.3939 H   0  0  0  0  0  0
  -32.3444  -18.6657   24.8489 H   0  0  0  0  0  0
  -29.1143  -17.8389   22.1517 H   0  0  0  0  0  0
  -25.7354  -19.5816   25.9667 H   0  0  0  0  0  0
  -26.8082  -20.7856   25.2586 H   0  0  0  0  0  0
  -27.1520  -20.1118   26.8545 H   0  0  0  0  0  0
  -25.9950  -18.2069   23.8788 H   0  0  0  0  0  0
  -27.4936  -17.3803   23.5334 H   0  0  0  0  0  0
  -27.2938  -19.0705   23.0804 H   0  0  0  0  0  0
  -30.2547  -21.5860   25.7838 H   0  0  0  0  0  0
  -28.6737  -21.8375   24.9975 H   0  0  0  0  0  0
  -30.0264  -22.8436   24.6088 H   0  0  0  0  0  0
  -31.8050  -22.1647   23.2493 H   0  0  0  0  0  0
  -32.1124  -20.5249   22.7102 H   0  0  0  0  0  0
  -32.2210  -20.9783   24.4198 H   0  0  0  0  0  0
  -28.2394  -16.3414   20.5682 H   0  0  0  0  0  0
  -29.1250  -15.7765   19.1506 H   0  0  0  0  0  0
  -29.5630  -17.2875   19.8778 H   0  0  0  0  0  0
  -29.4575  -22.9890   18.8380 H   0  0  0  0  0  0
  -28.3857  -22.7179   20.1740 H   0  0  0  0  0  0
  -30.4178  -24.9879   19.9367 H   0  0  0  0  0  0
  -29.4711  -24.6726   21.3859 H   0  0  0  0  0  0
  -31.0730  -22.7968   21.2829 H   0  0  0  0  0  0
  -31.1785  -21.8663   19.8282 H   0  0  0  0  0  0
  -29.5844  -18.0562   25.7251 H   0  0  0  0  0  0
  -29.3567  -19.6656   26.1837 H   0  0  0  0  0  0
  -27.3944  -24.9147   20.1527 H   0  0  0  0  0  0
  -28.2496  -25.2489   18.6395 H   0  0  0  0  0  0
  -27.4021  -17.8877   25.8801 H   0  0  0  0  0  0
  -29.2556  -20.6073   20.5742 H   0  0  0  0  0  0
  1 25  1  0  0  0
  1 30  2  0  0  0
  1 91  1  0  0  0
  2  3  1  0  0  0
  2 25  1  0  0  0
  2 94  1  0  0  0
  2 95  1  0  0  0
  3  4  1  0  0  0
  3 96  1  0  0  0
  3 97  1  0  0  0
  4  5  1  0  0  0
  4 98  1  0  0  0
  4 99  1  0  0  0
  5  6  1  0  0  0
  5 26  1  0  0  0
  5100  1  0  0  0
  6 25  1  0  0  0
  6101  1  0  0  0
  6102  1  0  0  0
  7  8  2  0  0  0
  7 26  1  0  0  0
  7 29  1  0  0  0
  8  9  1  0  0  0
  8 22  1  0  0  0
  9 10  1  0  0  0
  9 27  2  0  0  0
 10 11  2  0  0  0
 10 15  1  0  0  0
 11 12  1  0  0  0
 11103  1  0  0  0
 12 13  2  0  0  0
 12104  1  0  0  0
 13 14  1  0  0  0
 13 31  1  0  0  0
 14 15  2  0  0  0
 14105  1  0  0  0
 15106  1  0  0  0
 16 17  2  0  0  0
 16 21  1  0  0  0
 16 31  1  0  0  0
 17 18  1  0  0  0
 17107  1  0  0  0
 18 19  2  0  0  0
 18108  1  0  0  0
 19 20  1  0  0  0
 19 24  1  0  0  0
 20 21  2  0  0  0
 20109  1  0  0  0
 21 23  1  0  0  0
 22 28  1  0  0  0
 22 32  2  0  0  0
 26 27  1  0  0  0
 28110  1  0  0  0
 28111  1  0  0  0
 29112  1  0  0  0
 29113  1  0  0  0
 33 34  1  0  0  0
 33 66  1  0  0  0
 33 70  2  0  0  0
 34 36  1  0  0  0
 34 59  1  0  0  0
 34114  1  0  0  0
 35 44  2  0  0  0
 35 45  1  0  0  0
 35 68  1  0  0  0
 36 56  1  0  0  0
 36115  1  0  0  0
 37 39  1  0  0  0
 37 47  1  0  0  0
 37 66  1  0  0  0
 37116  1  0  0  0
 38 43  2  0  0  0
 38 46  1  0  0  0
 38 47  1  0  0  0
 39 64  1  0  0  0
 39 67  2  0  0  0
 40 52  1  0  0  0
 40 53  2  0  0  0
 40 58  1  0  0  0
 41117  1  0  0  0
 41118  1  0  0  0
 41119  1  0  0  0
 41 48  1  0  0  0
 42 43  1  0  0  0
 42 66  1  0  0  0
 42120  1  0  0  0
 42121  1  0  0  0
 43 44  1  0  0  0
 44122  1  0  0  0
 45 46  2  0  0  0
 45123  1  0  0  0
 46124  1  0  0  0
 47125  1  0  0  0
 47126  1  0  0  0
 48 56  1  0  0  0
 48 65  1  0  0  0
 48127  1  0  0  0
 49 50  1  0  0  0
 49 53  1  0  0  0
 49 64  1  0  0  0
 49128  1  0  0  0
 50 51  1  0  0  0
 50129  1  0  0  0
 50130  1  0  0  0
 51 52  1  0  0  0
 51131  1  0  0  0
 51132  1  0  0  0
 52133  1  0  0  0
 52134  1  0  0  0
 53 54  1  0  0  0
 54 55  2  0  0  0
 54135  1  0  0  0
 55 57  1  0  0  0
 55136  1  0  0  0
 56 69  2  0  0  0
 57 58  2  0  0  0
 57137  1  0  0  0
 58138  1  0  0  0
 59 60  1  0  0  0
 59 61  1  0  0  0
 59 62  1  0  0  0
 60139  1  0  0  0
 60140  1  0  0  0
 60141  1  0  0  0
 61142  1  0  0  0
 61143  1  0  0  0
 61144  1  0  0  0
 62145  1  0  0  0
 62146  1  0  0  0
 62147  1  0  0  0
 63 65  1  0  0  0
 63148  1  0  0  0
 63149  1  0  0  0
 63150  1  0  0  0
 64151  1  0  0  0
 65152  1  0  0  0
 68 87  1  0  0  0
 71 72  2  0  0  0
 71 73  1  0  0  0
 71153  1  0  0  0
 72 75  1  0  0  0
 72154  1  0  0  0
 73 76  2  0  0  0
 73155  1  0  0  0
 74 75  2  0  0  0
 74 76  1  0  0  0
 74156  1  0  0  0
 75 91  1  0  0  0
 76 92  1  0  0  0
 77 89  1  0  0  0
 77 90  1  0  0  0
 77 93  2  0  0  0
 78157  1  0  0  0
 78158  1  0  0  0
 78159  1  0  0  0
 78 88  1  0  0  0
 79 88  1  0  0  0
 79160  1  0  0  0
 79161  1  0  0  0
 79162  1  0  0  0
 80163  1  0  0  0
 80164  1  0  0  0
 80165  1  0  0  0
 80 89  1  0  0  0
 81 89  1  0  0  0
 81166  1  0  0  0
 81167  1  0  0  0
 81168  1  0  0  0
 82 91  1  0  0  0
 82169  1  0  0  0
 82170  1  0  0  0
 82171  1  0  0  0
 83 84  1  0  0  0
 83 85  1  0  0  0
 83172  1  0  0  0
 83173  1  0  0  0
 84 87  1  0  0  0
 84174  1  0  0  0
 84175  1  0  0  0
 85 90  1  0  0  0
 85176  1  0  0  0
 85177  1  0  0  0
 86 88  1  0  0  0
 86 92  1  0  0  0
 86178  1  0  0  0
 86179  1  0  0  0
 87180  1  0  0  0
 87181  1  0  0  0
 88182  1  0  0  0
 89 92  1  0  0  0
 90183  1  0  0  0
M  ISO  4   1 100  68 101  87 101  91 100
M  END
> <chiral flag>
0

> <version>
0

> <s_m_source_file>
/data/baiqing/PycharmProjects/Reinvent-master-3.2/result/LINK_invent/BTK/process_docking_weight1_custom_product_contain_oxygen_bond_distance_aromatic_linkinvent_7_9_3/rearranged_h_0016.sdf

> <i_m_source_file_index>
46

> <r_mmod_Potential_Energy-OPLS-2005>
245.054779052734

> <r_mmod_Stretch_Energy-OPLS-2005>
45.1016540527344

> <r_mmod_Bend_Energy-OPLS-2005>
147.863815307617

> <r_mmod_Torsional_Energy-OPLS-2005>
433.570678710938

> <r_mmod_Improper_Torsional_Energy-OPLS-2005>
12.0608777999878

> <r_mmod_Van_der_Waal_Energy-OPLS-2005>
183.967086791992

> <r_mmod_Electrostatic_Energy-OPLS-2005>
-391.188049316406

> <r_mmod_Solvation_Energy-OPLS-2005>
-204.809265136719

> <b_mmod_Minimization_Converged-OPLS-2005>
0

> <r_mmod_RMS_Derivative-OPLS-2005>
6.97652339935303

$$$$
46
                    3D
 Structure written by MMmdl.
156165  0  0  1  0            999 V2000
  -30.6061  -14.6392   20.5158 C   0  0  0  0  0  0
  -30.4417  -12.3940   19.4521 C   0  0  0  0  0  0
  -29.5103  -12.5162   18.2241 C   0  0  0  0  0  0
  -28.0319  -12.3513   18.6321 C   0  0  0  0  0  0
  -27.6559  -13.2119   19.8671 C   0  0  2  0  0  0
  -28.6985  -13.0522   20.9974 C   0  0  0  0  0  0
  -25.2576  -13.8149   20.5670 C   0  0  0  0  0  0
  -24.1832  -13.0429   20.9180 C   0  0  0  0  0  0
  -24.6389  -11.6896   20.8733 C   0  0  0  0  0  0
  -23.9042  -10.4287   21.0402 C   0  0  0  0  0  0
  -24.3604   -9.4203   21.9177 C   0  0  0  0  0  0
  -23.6288   -8.2230   22.0744 C   0  0  0  0  0  0
  -22.4276   -8.0268   21.3529 C   0  0  0  0  0  0
  -21.9902   -9.0240   20.4634 C   0  0  0  0  0  0
  -22.7218  -10.2126   20.3048 C   0  0  0  0  0  0
  -21.6851   -6.0728   22.5275 C   0  0  0  0  0  0
  -21.4011   -6.5636   23.8208 C   0  0  0  0  0  0
  -21.3663   -5.6788   24.9173 C   0  0  0  0  0  0
  -21.6047   -4.3046   24.7223 C   0  0  0  0  0  0
  -21.8819   -3.8139   23.4343 C   0  0  0  0  0  0
  -21.9193   -4.6954   22.3404 C   0  0  0  0  0  0
  -22.7862  -13.5237   21.1855 C   0  0  0  0  0  0
  -22.1657   -4.2139   21.0981 F   0  0  0  0  0  0
  -21.5643   -3.4525   25.7737 F   0  0  0  0  0  0
  -30.0149  -13.4037   20.4406 N   0  0  0  0  0  0
  -26.3005  -12.9320   20.3315 N   0  0  0  0  0  0
  -25.9319  -11.6479   20.5741 N   0  0  0  0  0  0
  -22.0493  -12.8236   22.0406 N   0  0  0  0  0  0
  -25.4301  -15.1867   20.4070 N   0  0  0  0  0  0
  -31.7620  -14.8218   20.1204 O   0  0  0  0  0  0
  -21.6643   -6.8866   21.4238 O   0  0  0  0  0  0
  -22.3549  -14.5550   20.6714 O   0  0  0  0  0  0
  -24.6252  -31.8617   23.2048 C   0  0  0  0  0  0
  -25.9111  -32.4776   23.8367 C   0  0  1  0  0  0
  -27.2234  -27.3267   20.1265 C   0  0  0  0  0  0
  -25.5947  -33.8575   24.2304 N   0  0  0  0  0  0
  -23.4166  -30.4868   21.5465 C   0  0  2  0  0  0
  -24.8659  -28.9389   20.1136 C   0  0  0  0  0  0
  -22.7457  -29.4653   22.4948 C   0  0  0  0  0  0
  -18.0276  -28.1385   22.8500 C   0  0  0  0  0  0
  -24.1489  -36.7293   23.2631 C   0  0  0  0  0  0
  -25.9572  -30.7943   21.3746 C   0  0  0  0  0  0
  -26.0338  -29.4213   20.7199 C   0  0  0  0  0  0
  -27.2176  -28.6263   20.7168 C   0  0  0  0  0  0
  -26.0397  -26.8985   19.4862 C   0  0  0  0  0  0
  -24.8705  -27.6825   19.4869 C   0  0  0  0  0  0
  -23.6322  -29.8185   20.1628 C   0  0  0  0  0  0
  -25.4114  -36.3078   24.0330 C   0  0  1  0  0  0
  -20.5877  -28.3708   23.1282 C   0  0  2  0  0  0
  -20.6778  -26.9435   22.5402 C   0  0  0  0  0  0
  -19.5756  -26.6396   21.5203 C   0  0  0  0  0  0
  -18.1936  -26.7937   22.1619 C   0  0  0  0  0  0
  -19.1528  -28.8857   23.2889 C   0  0  0  0  0  0
  -18.9456  -30.1462   23.8906 C   0  0  0  0  0  0
  -17.6458  -30.6596   24.0558 C   0  0  0  0  0  0
  -25.9065  -34.9446   23.5121 C   0  0  0  0  0  0
  -16.5343  -29.9098   23.6320 C   0  0  0  0  0  0
  -16.7263  -28.6498   23.0364 C   0  0  0  0  0  0
  -26.4506  -31.6570   25.0723 C   0  0  0  0  0  0
  -25.3742  -31.3692   26.1451 C   0  0  0  0  0  0
  -27.0341  -30.2988   24.6180 C   0  0  0  0  0  0
  -27.6092  -32.4288   25.7473 C   0  0  0  0  0  0
  -27.5588  -37.1798   24.8461 C   0  0  0  0  0  0
  -21.4172  -29.3058   22.3670 N   0  0  0  0  0  0
  -26.4289  -37.3780   23.9417 N   0  0  0  0  0  0
  -24.6848  -31.0642   22.0989 N   0  0  0  0  0  0
  -23.4184  -28.8203   23.3023 O   0  0  0  0  0  0
  -28.3315  -26.4710   20.1521 O   0  0  0  0  0  0
  -26.5619  -34.8908   22.4677 O   0  0  0  0  0  0
  -23.5428  -32.1420   23.7389 O   0  0  0  0  0  0
  -28.5931  -19.2957   20.8522 C   0  0  0  0  0  0
  -28.6412  -17.8747   20.9801 C   0  0  0  0  0  0
  -30.9638  -17.8822   20.3823 C   0  0  0  0  0  0
  -29.7259  -20.0679   20.4830 C   0  0  0  0  0  0
  -29.8227  -17.1205   20.7439 C   0  0  0  0  0  0
  -30.9198  -19.3042   20.2522 C   0  0  0  0  0  0
  -30.4004  -23.8149   20.3722 C   0  0  0  0  0  0
  -30.8358  -22.3492   20.1390 C   0  0  0  0  0  0
  -28.4810  -22.4028   20.5142 C   0  0  0  0  0  0
  -28.8999  -23.8592   20.0564 C   0  0  1  0  0  0
  -28.1084  -25.1008   20.6701 C   0  0  0  0  0  0
  -29.6588  -21.5112   20.3576 N   0  0  0  0  0  0
  -29.7780  -15.6626   20.9011 N   0  0  0  0  0  0
  -32.0714  -19.9223   19.8912 F   0  0  0  0  0  0
  -31.4822  -12.5307   19.1529 H   0  0  0  0  0  0
  -30.3833  -11.3930   19.8832 H   0  0  0  0  0  0
  -29.7762  -11.7720   17.4725 H   0  0  0  0  0  0
  -29.6512  -13.4908   17.7540 H   0  0  0  0  0  0
  -27.8681  -11.2971   18.8564 H   0  0  0  0  0  0
  -27.3784  -12.5903   17.7916 H   0  0  0  0  0  0
  -27.6779  -14.2508   19.5374 H   0  0  0  0  0  0
  -28.7102  -12.0270   21.3704 H   0  0  0  0  0  0
  -28.4405  -13.6732   21.8570 H   0  0  0  0  0  0
  -25.2747   -9.5689   22.4757 H   0  0  0  0  0  0
  -23.9997   -7.4625   22.7471 H   0  0  0  0  0  0
  -21.0824   -8.8759   19.8953 H   0  0  0  0  0  0
  -22.3663  -10.9667   19.6166 H   0  0  0  0  0  0
  -21.1992   -7.6141   23.9701 H   0  0  0  0  0  0
  -21.1495   -6.0521   25.9078 H   0  0  0  0  0  0
  -22.0598   -2.7599   23.2838 H   0  0  0  0  0  0
  -22.4110  -11.9900   22.4797 H   0  0  0  0  0  0
  -21.1115  -13.1272   22.2622 H   0  0  0  0  0  0
  -24.6566  -15.8369   20.4959 H   0  0  0  0  0  0
  -26.2675  -15.6153   20.0347 H   0  0  0  0  0  0
  -26.7175  -32.5465   23.1113 H   0  0  0  0  0  0
  -25.0107  -33.9719   25.0457 H   0  0  0  0  0  0
  -22.7094  -31.3073   21.4034 H   0  0  0  0  0  0
  -23.3756  -35.9618   23.3272 H   0  0  0  0  0  0
  -24.3585  -36.8927   22.2047 H   0  0  0  0  0  0
  -23.7237  -37.6492   23.6661 H   0  0  0  0  0  0
  -26.0862  -31.5567   20.6047 H   0  0  0  0  0  0
  -26.8375  -30.8451   22.0043 H   0  0  0  0  0  0
  -28.1133  -28.9901   21.2022 H   0  0  0  0  0  0
  -26.0125  -25.9400   18.9875 H   0  0  0  0  0  0
  -23.9776  -27.3112   19.0023 H   0  0  0  0  0  0
  -23.7473  -30.5939   19.4046 H   0  0  0  0  0  0
  -22.7531  -29.2460   19.8621 H   0  0  0  0  0  0
  -25.1286  -36.1925   25.0823 H   0  0  0  0  0  0
  -20.9972  -28.3280   24.1401 H   0  0  0  0  0  0
  -20.5681  -26.2325   23.3604 H   0  0  0  0  0  0
  -21.6652  -26.7486   22.1188 H   0  0  0  0  0  0
  -19.6927  -25.6296   21.1258 H   0  0  0  0  0  0
  -19.6700  -27.3192   20.6718 H   0  0  0  0  0  0
  -17.4217  -26.6667   21.4010 H   0  0  0  0  0  0
  -18.0364  -26.0061   22.9006 H   0  0  0  0  0  0
  -19.7927  -30.7271   24.2290 H   0  0  0  0  0  0
  -17.5012  -31.6275   24.5165 H   0  0  0  0  0  0
  -15.5347  -30.3008   23.7647 H   0  0  0  0  0  0
  -15.8658  -28.0816   22.7103 H   0  0  0  0  0  0
  -24.5930  -30.7029   25.7764 H   0  0  0  0  0  0
  -24.8909  -32.2842   26.4884 H   0  0  0  0  0  0
  -25.8068  -30.8861   27.0221 H   0  0  0  0  0  0
  -26.2905  -29.6731   24.1229 H   0  0  0  0  0  0
  -27.4050  -29.7259   25.4690 H   0  0  0  0  0  0
  -27.8776  -30.4238   23.9385 H   0  0  0  0  0  0
  -27.2734  -33.3593   26.2056 H   0  0  0  0  0  0
  -28.3895  -32.6829   25.0285 H   0  0  0  0  0  0
  -28.0769  -31.8399   26.5373 H   0  0  0  0  0  0
  -28.2587  -38.0119   24.7563 H   0  0  0  0  0  0
  -28.1110  -36.2659   24.6216 H   0  0  0  0  0  0
  -27.2328  -37.1362   25.8869 H   0  0  0  0  0  0
  -20.9363  -29.8733   21.6835 H   0  0  0  0  0  0
  -26.0172  -38.2855   24.1425 H   0  0  0  0  0  0
  -27.6550  -19.7924   21.0515 H   0  0  0  0  0  0
  -27.7340  -17.3612   21.2681 H   0  0  0  0  0  0
  -31.9073  -17.3894   20.2017 H   0  0  0  0  0  0
  -30.9762  -24.5203   19.7713 H   0  0  0  0  0  0
  -30.5631  -24.0747   21.4193 H   0  0  0  0  0  0
  -31.6542  -22.0833   20.8101 H   0  0  0  0  0  0
  -31.1821  -22.2164   19.1126 H   0  0  0  0  0  0
  -27.6313  -22.0430   19.9319 H   0  0  0  0  0  0
  -28.1750  -22.4070   21.5620 H   0  0  0  0  0  0
  -28.7876  -23.8996   18.9719 H   0  0  0  0  0  0
  -28.3341  -25.1416   21.7361 H   0  0  0  0  0  0
  -27.0506  -24.8428   20.6366 H   0  0  0  0  0  0
  -28.8893  -15.3116   21.2260 H   0  0  0  0  0  0
  1 25  1  0  0  0
  1 30  2  0  0  0
  1 83  1  0  0  0
  2  3  1  0  0  0
  2 25  1  0  0  0
  2 85  1  0  0  0
  2 86  1  0  0  0
  3  4  1  0  0  0
  3 87  1  0  0  0
  3 88  1  0  0  0
  4  5  1  0  0  0
  4 89  1  0  0  0
  4 90  1  0  0  0
  5  6  1  0  0  0
  5 26  1  0  0  0
  5 91  1  0  0  0
  6 25  1  0  0  0
  6 92  1  0  0  0
  6 93  1  0  0  0
  7  8  2  0  0  0
  7 26  1  0  0  0
  7 29  1  0  0  0
  8  9  1  0  0  0
  8 22  1  0  0  0
  9 10  1  0  0  0
  9 27  2  0  0  0
 10 11  2  0  0  0
 10 15  1  0  0  0
 11 12  1  0  0  0
 11 94  1  0  0  0
 12 13  2  0  0  0
 12 95  1  0  0  0
 13 14  1  0  0  0
 13 31  1  0  0  0
 14 15  2  0  0  0
 14 96  1  0  0  0
 15 97  1  0  0  0
 16 17  2  0  0  0
 16 21  1  0  0  0
 16 31  1  0  0  0
 17 18  1  0  0  0
 17 98  1  0  0  0
 18 19  2  0  0  0
 18 99  1  0  0  0
 19 20  1  0  0  0
 19 24  1  0  0  0
 20 21  2  0  0  0
 20100  1  0  0  0
 21 23  1  0  0  0
 22 28  1  0  0  0
 22 32  2  0  0  0
 26 27  1  0  0  0
 28101  1  0  0  0
 28102  1  0  0  0
 29103  1  0  0  0
 29104  1  0  0  0
 33 34  1  0  0  0
 33 66  1  0  0  0
 33 70  2  0  0  0
 34 36  1  0  0  0
 34 59  1  0  0  0
 34105  1  0  0  0
 35 44  2  0  0  0
 35 45  1  0  0  0
 35 68  1  0  0  0
 36 56  1  0  0  0
 36106  1  0  0  0
 37 39  1  0  0  0
 37 47  1  0  0  0
 37 66  1  0  0  0
 37107  1  0  0  0
 38 43  2  0  0  0
 38 46  1  0  0  0
 38 47  1  0  0  0
 39 64  1  0  0  0
 39 67  2  0  0  0
 40 52  1  0  0  0
 40 53  2  0  0  0
 40 58  1  0  0  0
 41108  1  0  0  0
 41109  1  0  0  0
 41110  1  0  0  0
 41 48  1  0  0  0
 42 43  1  0  0  0
 42 66  1  0  0  0
 42111  1  0  0  0
 42112  1  0  0  0
 43 44  1  0  0  0
 44113  1  0  0  0
 45 46  2  0  0  0
 45114  1  0  0  0
 46115  1  0  0  0
 47116  1  0  0  0
 47117  1  0  0  0
 48 56  1  0  0  0
 48 65  1  0  0  0
 48118  1  0  0  0
 49 50  1  0  0  0
 49 53  1  0  0  0
 49 64  1  0  0  0
 49119  1  0  0  0
 50 51  1  0  0  0
 50120  1  0  0  0
 50121  1  0  0  0
 51 52  1  0  0  0
 51122  1  0  0  0
 51123  1  0  0  0
 52124  1  0  0  0
 52125  1  0  0  0
 53 54  1  0  0  0
 54 55  2  0  0  0
 54126  1  0  0  0
 55 57  1  0  0  0
 55127  1  0  0  0
 56 69  2  0  0  0
 57 58  2  0  0  0
 57128  1  0  0  0
 58129  1  0  0  0
 59 60  1  0  0  0
 59 61  1  0  0  0
 59 62  1  0  0  0
 60130  1  0  0  0
 60131  1  0  0  0
 60132  1  0  0  0
 61133  1  0  0  0
 61134  1  0  0  0
 61135  1  0  0  0
 62136  1  0  0  0
 62137  1  0  0  0
 62138  1  0  0  0
 63 65  1  0  0  0
 63139  1  0  0  0
 63140  1  0  0  0
 63141  1  0  0  0
 64142  1  0  0  0
 65143  1  0  0  0
 68 81  1  0  0  0
 71 72  2  0  0  0
 71 74  1  0  0  0
 71144  1  0  0  0
 72 75  1  0  0  0
 72145  1  0  0  0
 73 75  2  0  0  0
 73 76  1  0  0  0
 73146  1  0  0  0
 74 76  2  0  0  0
 74 82  1  0  0  0
 75 83  1  0  0  0
 76 84  1  0  0  0
 77 78  1  0  0  0
 77 80  1  0  0  0
 77147  1  0  0  0
 77148  1  0  0  0
 78 82  1  0  0  0
 78149  1  0  0  0
 78150  1  0  0  0
 79 80  1  0  0  0
 79 82  1  0  0  0
 79151  1  0  0  0
 79152  1  0  0  0
 80 81  1  0  0  0
 80153  1  0  0  0
 81154  1  0  0  0
 81155  1  0  0  0
 83156  1  0  0  0
M  ISO  4   1 100  68 101  81 101  83 100
M  END
> <chiral flag>
0

> <version>
0

> <s_m_source_file>
/data/baiqing/PycharmProjects/Reinvent-master-3.2/result/LINK_invent/BTK/process_docking_weight1_custom_product_contain_oxygen_bond_distance_aromatic_linkinvent_7_9_3/rearranged_h_0016.sdf

> <i_m_source_file_index>
47

> <r_mmod_Potential_Energy-OPLS-2005>
174.036407470703

> <r_mmod_Stretch_Energy-OPLS-2005>
77.9916610717773

> <r_mmod_Bend_Energy-OPLS-2005>
181.72412109375

> <r_mmod_Torsional_Energy-OPLS-2005>
273.582580566406

> <r_mmod_Improper_Torsional_Energy-OPLS-2005>
4.25436925888062

> <r_mmod_Van_der_Waal_Energy-OPLS-2005>
143.523300170898

> <r_mmod_Electrostatic_Energy-OPLS-2005>
-328.852081298828

> <r_mmod_Solvation_Energy-OPLS-2005>
-225.19221496582

> <b_mmod_Minimization_Converged-OPLS-2005>
0

> <r_mmod_RMS_Derivative-OPLS-2005>
1.95960474014282

$$$$
47
                    3D
 Structure written by MMmdl.
166174  0  0  1  0            999 V2000
  -30.6559  -14.6437   20.5849 C   0  0  0  0  0  0
  -30.4377  -12.4232   19.4508 C   0  0  0  0  0  0
  -29.5074  -12.5321   18.2227 C   0  0  0  0  0  0
  -28.0295  -12.3637   18.6273 C   0  0  0  0  0  0
  -27.6531  -13.2214   19.8627 C   0  0  2  0  0  0
  -28.6922  -13.0509   20.9861 C   0  0  0  0  0  0
  -25.2562  -13.8181   20.5690 C   0  0  0  0  0  0
  -24.1828  -13.0438   20.9176 C   0  0  0  0  0  0
  -24.6401  -11.6908   20.8719 C   0  0  0  0  0  0
  -23.9072  -10.4290   21.0394 C   0  0  0  0  0  0
  -24.3620   -9.4210   21.9179 C   0  0  0  0  0  0
  -23.6292   -8.2248   22.0753 C   0  0  0  0  0  0
  -22.4276   -8.0281   21.3543 C   0  0  0  0  0  0
  -21.9911   -9.0256   20.4649 C   0  0  0  0  0  0
  -22.7239  -10.2135   20.3051 C   0  0  0  0  0  0
  -21.6854   -6.0731   22.5276 C   0  0  0  0  0  0
  -21.4019   -6.5636   23.8209 C   0  0  0  0  0  0
  -21.3661   -5.6789   24.9172 C   0  0  0  0  0  0
  -21.6043   -4.3050   24.7221 C   0  0  0  0  0  0
  -21.8821   -3.8142   23.4343 C   0  0  0  0  0  0
  -21.9197   -4.6959   22.3402 C   0  0  0  0  0  0
  -22.7856  -13.5234   21.1848 C   0  0  0  0  0  0
  -22.1663   -4.2141   21.0978 F   0  0  0  0  0  0
  -21.5628   -3.4538   25.7738 F   0  0  0  0  0  0
  -30.0079  -13.4337   20.4454 N   0  0  0  0  0  0
  -26.2988  -12.9367   20.3301 N   0  0  0  0  0  0
  -25.9330  -11.6514   20.5725 N   0  0  0  0  0  0
  -22.0510  -12.8227   22.0414 N   0  0  0  0  0  0
  -25.4267  -15.1904   20.4145 N   0  0  0  0  0  0
  -31.7672  -14.8096   20.0692 O   0  0  0  0  0  0
  -21.6641   -6.8875   21.4237 O   0  0  0  0  0  0
  -22.3535  -14.5534   20.6694 O   0  0  0  0  0  0
  -24.6249  -31.8598   23.2020 C   0  0  0  0  0  0
  -25.9102  -32.4782   23.8352 C   0  0  1  0  0  0
  -27.2274  -27.3238   20.1299 C   0  0  0  0  0  0
  -25.5917  -33.8580   24.2280 N   0  0  0  0  0  0
  -23.4195  -30.4804   21.5439 C   0  0  2  0  0  0
  -24.8681  -28.9301   20.1141 C   0  0  0  0  0  0
  -22.7464  -29.4618   22.4938 C   0  0  0  0  0  0
  -18.0278  -28.1378   22.8482 C   0  0  0  0  0  0
  -24.1482  -36.7287   23.2643 C   0  0  0  0  0  0
  -25.9590  -30.7920   21.3728 C   0  0  0  0  0  0
  -26.0350  -29.4188   20.7165 C   0  0  0  0  0  0
  -27.2212  -28.6290   20.7075 C   0  0  0  0  0  0
  -26.0419  -26.8773   19.5117 C   0  0  0  0  0  0
  -24.8736  -27.6659   19.4999 C   0  0  0  0  0  0
  -23.6348  -29.8099   20.1612 C   0  0  0  0  0  0
  -25.4111  -36.3085   24.0329 C   0  0  1  0  0  0
  -20.5878  -28.3687   23.1278 C   0  0  2  0  0  0
  -20.6770  -26.9409   22.5407 C   0  0  0  0  0  0
  -19.5747  -26.6373   21.5209 C   0  0  0  0  0  0
  -18.1925  -26.7922   22.1614 C   0  0  0  0  0  0
  -19.1533  -28.8844   23.2871 C   0  0  0  0  0  0
  -18.9459  -30.1447   23.8884 C   0  0  0  0  0  0
  -17.6465  -30.6587   24.0556 C   0  0  0  0  0  0
  -25.9047  -34.9455   23.5106 C   0  0  0  0  0  0
  -16.5351  -29.9087   23.6335 C   0  0  0  0  0  0
  -16.7268  -28.6499   23.0359 C   0  0  0  0  0  0
  -26.4493  -31.6594   25.0721 C   0  0  0  0  0  0
  -25.3723  -31.3713   26.1442 C   0  0  0  0  0  0
  -27.0370  -30.3027   24.6185 C   0  0  0  0  0  0
  -27.6039  -32.4353   25.7487 C   0  0  0  0  0  0
  -27.5582  -37.1791   24.8468 C   0  0  0  0  0  0
  -21.4179  -29.3042   22.3670 N   0  0  0  0  0  0
  -26.4295  -37.3781   23.9415 N   0  0  0  0  0  0
  -24.6863  -31.0611   22.0968 N   0  0  0  0  0  0
  -23.4180  -28.8164   23.3025 O   0  0  0  0  0  0
  -28.3527  -26.4946   20.1324 O   0  0  0  0  0  0
  -26.5620  -34.8926   22.4674 O   0  0  0  0  0  0
  -23.5413  -32.1389   23.7350 O   0  0  0  0  0  0
  -30.4823  -17.6892   19.7205 C   0  0  0  0  0  0
  -30.2808  -19.0621   19.3772 C   0  0  0  0  0  0
  -28.9170  -17.9488   21.5073 C   0  0  0  0  0  0
  -29.8122  -17.0759   20.8123 C   0  0  0  0  0  0
  -29.3782  -19.9317   20.0685 C   0  0  0  0  0  0
  -28.6937  -19.3158   21.1526 C   0  0  0  0  0  0
  -28.9498  -22.4556   20.3624 C   0  0  0  0  0  0
  -26.4454  -21.0916   18.0994 C   0  0  0  0  0  0
  -27.7857  -20.7450   15.9863 C   0  0  0  0  0  0
  -29.8797  -15.4724   22.7168 C   0  0  0  0  0  0
  -28.6000  -23.8808   19.7286 C   0  0  0  0  0  0
  -28.9917  -21.4342   18.1078 C   0  0  0  0  0  0
  -28.2238  -25.1155   20.6635 C   0  0  0  0  0  0
  -27.7978  -20.6445   17.5185 C   0  0  0  0  0  0
  -29.0944  -21.3091   19.5813 N   0  0  0  0  0  0
  -30.0252  -15.6765   21.2654 N   0  0  0  0  0  0
  -29.1371  -22.4202   21.5815 O   0  0  0  0  0  0
  -27.7582  -20.0096   21.8445 F   0  0  0  0  0  0
  -31.4761  -12.5567   19.1435 H   0  0  0  0  0  0
  -30.3897  -11.4234   19.8841 H   0  0  0  0  0  0
  -29.7777  -11.7831   17.4771 H   0  0  0  0  0  0
  -29.6460  -13.5029   17.7433 H   0  0  0  0  0  0
  -27.8627  -11.3085   18.8450 H   0  0  0  0  0  0
  -27.3774  -12.6072   17.7876 H   0  0  0  0  0  0
  -27.6796  -14.2639   19.5446 H   0  0  0  0  0  0
  -28.7188  -12.0150   21.3278 H   0  0  0  0  0  0
  -28.3893  -13.6273   21.8543 H   0  0  0  0  0  0
  -25.2765   -9.5687   22.4756 H   0  0  0  0  0  0
  -23.9998   -7.4641   22.7476 H   0  0  0  0  0  0
  -21.0840   -8.8778   19.8960 H   0  0  0  0  0  0
  -22.3695  -10.9672   19.6159 H   0  0  0  0  0  0
  -21.2011   -7.6145   23.9709 H   0  0  0  0  0  0
  -21.1482   -6.0519   25.9072 H   0  0  0  0  0  0
  -22.0600   -2.7603   23.2846 H   0  0  0  0  0  0
  -22.4136  -11.9896   22.4806 H   0  0  0  0  0  0
  -21.1132  -13.1256   22.2630 H   0  0  0  0  0  0
  -24.6638  -15.8472   20.5353 H   0  0  0  0  0  0
  -26.2901  -15.6335   20.1261 H   0  0  0  0  0  0
  -26.7165  -32.5457   23.1100 H   0  0  0  0  0  0
  -25.0074  -33.9720   25.0435 H   0  0  0  0  0  0
  -22.7138  -31.3008   21.3991 H   0  0  0  0  0  0
  -23.3760  -35.9608   23.3307 H   0  0  0  0  0  0
  -24.3560  -36.8914   22.2056 H   0  0  0  0  0  0
  -23.7219  -37.6476   23.6675 H   0  0  0  0  0  0
  -26.0930  -31.5555   20.6056 H   0  0  0  0  0  0
  -26.8370  -30.8391   22.0051 H   0  0  0  0  0  0
  -28.1214  -29.0027   21.1749 H   0  0  0  0  0  0
  -26.0192  -25.9057   19.0398 H   0  0  0  0  0  0
  -23.9804  -27.2880   19.0224 H   0  0  0  0  0  0
  -23.7526  -30.5840   19.4020 H   0  0  0  0  0  0
  -22.7548  -29.2376   19.8630 H   0  0  0  0  0  0
  -25.1294  -36.1937   25.0823 H   0  0  0  0  0  0
  -20.9962  -28.3272   24.1403 H   0  0  0  0  0  0
  -20.5671  -26.2297   23.3612 H   0  0  0  0  0  0
  -21.6639  -26.7443   22.1204 H   0  0  0  0  0  0
  -19.6910  -25.6280   21.1247 H   0  0  0  0  0  0
  -19.6686  -27.3168   20.6729 H   0  0  0  0  0  0
  -17.4197  -26.6671   21.4012 H   0  0  0  0  0  0
  -18.0314  -26.0061   22.9002 H   0  0  0  0  0  0
  -19.7943  -30.7257   24.2248 H   0  0  0  0  0  0
  -17.5034  -31.6273   24.5154 H   0  0  0  0  0  0
  -15.5351  -30.2994   23.7676 H   0  0  0  0  0  0
  -15.8662  -28.0821   22.7093 H   0  0  0  0  0  0
  -24.5937  -30.7015   25.7777 H   0  0  0  0  0  0
  -24.8857  -32.2859   26.4834 H   0  0  0  0  0  0
  -25.8055  -30.8933   27.0236 H   0  0  0  0  0  0
  -26.2960  -29.6729   24.1248 H   0  0  0  0  0  0
  -27.4123  -29.7325   25.4692 H   0  0  0  0  0  0
  -27.8801  -30.4333   23.9397 H   0  0  0  0  0  0
  -27.2649  -33.3673   26.2023 H   0  0  0  0  0  0
  -28.3863  -32.6878   25.0320 H   0  0  0  0  0  0
  -28.0701  -31.8512   26.5431 H   0  0  0  0  0  0
  -28.2592  -38.0099   24.7551 H   0  0  0  0  0  0
  -28.1086  -36.2627   24.6271 H   0  0  0  0  0  0
  -27.2288  -37.1412   25.8867 H   0  0  0  0  0  0
  -20.9355  -29.8766   21.6884 H   0  0  0  0  0  0
  -26.0175  -38.2854   24.1435 H   0  0  0  0  0  0
  -31.1904  -17.1221   19.1332 H   0  0  0  0  0  0
  -30.8525  -19.4330   18.5410 H   0  0  0  0  0  0
  -28.3452  -17.5728   22.3413 H   0  0  0  0  0  0
  -25.6224  -20.5364   17.6473 H   0  0  0  0  0  0
  -26.2617  -22.1510   17.9201 H   0  0  0  0  0  0
  -26.3923  -20.9191   19.1746 H   0  0  0  0  0  0
  -26.9808  -20.1475   15.5571 H   0  0  0  0  0  0
  -28.7220  -20.3836   15.5588 H   0  0  0  0  0  0
  -27.6459  -21.7741   15.6538 H   0  0  0  0  0  0
  -30.3878  -16.2655   23.2668 H   0  0  0  0  0  0
  -30.3051  -14.5298   23.0699 H   0  0  0  0  0  0
  -28.8302  -15.4856   23.0107 H   0  0  0  0  0  0
  -27.7733  -23.7570   19.0304 H   0  0  0  0  0  0
  -29.4677  -24.1775   19.1398 H   0  0  0  0  0  0
  -28.9354  -22.4562   17.7450 H   0  0  0  0  0  0
  -29.9182  -21.0906   17.6535 H   0  0  0  0  0  0
  -28.8679  -25.0842   21.5424 H   0  0  0  0  0  0
  -27.2191  -24.9558   21.0578 H   0  0  0  0  0  0
  -27.9245  -19.5890   17.7638 H   0  0  0  0  0  0
  1 25  1  0  0  0
  1 30  2  0  0  0
  1 86  1  0  0  0
  2  3  1  0  0  0
  2 25  1  0  0  0
  2 89  1  0  0  0
  2 90  1  0  0  0
  3  4  1  0  0  0
  3 91  1  0  0  0
  3 92  1  0  0  0
  4  5  1  0  0  0
  4 93  1  0  0  0
  4 94  1  0  0  0
  5  6  1  0  0  0
  5 26  1  0  0  0
  5 95  1  0  0  0
  6 25  1  0  0  0
  6 96  1  0  0  0
  6 97  1  0  0  0
  7  8  2  0  0  0
  7 26  1  0  0  0
  7 29  1  0  0  0
  8  9  1  0  0  0
  8 22  1  0  0  0
  9 10  1  0  0  0
  9 27  2  0  0  0
 10 11  2  0  0  0
 10 15  1  0  0  0
 11 12  1  0  0  0
 11 98  1  0  0  0
 12 13  2  0  0  0
 12 99  1  0  0  0
 13 14  1  0  0  0
 13 31  1  0  0  0
 14 15  2  0  0  0
 14100  1  0  0  0
 15101  1  0  0  0
 16 17  2  0  0  0
 16 21  1  0  0  0
 16 31  1  0  0  0
 17 18  1  0  0  0
 17102  1  0  0  0
 18 19  2  0  0  0
 18103  1  0  0  0
 19 20  1  0  0  0
 19 24  1  0  0  0
 20 21  2  0  0  0
 20104  1  0  0  0
 21 23  1  0  0  0
 22 28  1  0  0  0
 22 32  2  0  0  0
 26 27  1  0  0  0
 28105  1  0  0  0
 28106  1  0  0  0
 29107  1  0  0  0
 29108  1  0  0  0
 33 34  1  0  0  0
 33 66  1  0  0  0
 33 70  2  0  0  0
 34 36  1  0  0  0
 34 59  1  0  0  0
 34109  1  0  0  0
 35 44  2  0  0  0
 35 45  1  0  0  0
 35 68  1  0  0  0
 36 56  1  0  0  0
 36110  1  0  0  0
 37 39  1  0  0  0
 37 47  1  0  0  0
 37 66  1  0  0  0
 37111  1  0  0  0
 38 43  2  0  0  0
 38 46  1  0  0  0
 38 47  1  0  0  0
 39 64  1  0  0  0
 39 67  2  0  0  0
 40 52  1  0  0  0
 40 53  2  0  0  0
 40 58  1  0  0  0
 41112  1  0  0  0
 41113  1  0  0  0
 41114  1  0  0  0
 41 48  1  0  0  0
 42 43  1  0  0  0
 42 66  1  0  0  0
 42115  1  0  0  0
 42116  1  0  0  0
 43 44  1  0  0  0
 44117  1  0  0  0
 45 46  2  0  0  0
 45118  1  0  0  0
 46119  1  0  0  0
 47120  1  0  0  0
 47121  1  0  0  0
 48 56  1  0  0  0
 48 65  1  0  0  0
 48122  1  0  0  0
 49 50  1  0  0  0
 49 53  1  0  0  0
 49 64  1  0  0  0
 49123  1  0  0  0
 50 51  1  0  0  0
 50124  1  0  0  0
 50125  1  0  0  0
 51 52  1  0  0  0
 51126  1  0  0  0
 51127  1  0  0  0
 52128  1  0  0  0
 52129  1  0  0  0
 53 54  1  0  0  0
 54 55  2  0  0  0
 54130  1  0  0  0
 55 57  1  0  0  0
 55131  1  0  0  0
 56 69  2  0  0  0
 57 58  2  0  0  0
 57132  1  0  0  0
 58133  1  0  0  0
 59 60  1  0  0  0
 59 61  1  0  0  0
 59 62  1  0  0  0
 60134  1  0  0  0
 60135  1  0  0  0
 60136  1  0  0  0
 61137  1  0  0  0
 61138  1  0  0  0
 61139  1  0  0  0
 62140  1  0  0  0
 62141  1  0  0  0
 62142  1  0  0  0
 63 65  1  0  0  0
 63143  1  0  0  0
 63144  1  0  0  0
 63145  1  0  0  0
 64146  1  0  0  0
 65147  1  0  0  0
 68 83  1  0  0  0
 71 72  2  0  0  0
 71 74  1  0  0  0
 71148  1  0  0  0
 72 75  1  0  0  0
 72149  1  0  0  0
 73 74  2  0  0  0
 73 76  1  0  0  0
 73150  1  0  0  0
 74 86  1  0  0  0
 75 76  2  0  0  0
 75 85  1  0  0  0
 76 88  1  0  0  0
 77 81  1  0  0  0
 77 85  1  0  0  0
 77 87  2  0  0  0
 78151  1  0  0  0
 78152  1  0  0  0
 78153  1  0  0  0
 78 84  1  0  0  0
 79 84  1  0  0  0
 79154  1  0  0  0
 79155  1  0  0  0
 79156  1  0  0  0
 80 86  1  0  0  0
 80157  1  0  0  0
 80158  1  0  0  0
 80159  1  0  0  0
 81 83  1  0  0  0
 81160  1  0  0  0
 81161  1  0  0  0
 82 84  1  0  0  0
 82 85  1  0  0  0
 82162  1  0  0  0
 82163  1  0  0  0
 83164  1  0  0  0
 83165  1  0  0  0
 84166  1  0  0  0
M  ISO  4   1 100  68 101  83 101  86 100
M  END
> <chiral flag>
0

> <version>
0

> <s_m_source_file>
/data/baiqing/PycharmProjects/Reinvent-master-3.2/result/LINK_invent/BTK/process_docking_weight1_custom_product_contain_oxygen_bond_distance_aromatic_linkinvent_7_9_3/rearranged_h_0016.sdf

> <i_m_source_file_index>
48

> <r_mmod_Potential_Energy-OPLS-2005>
312.458892822266

> <r_mmod_Stretch_Energy-OPLS-2005>
103.724479675293

> <r_mmod_Bend_Energy-OPLS-2005>
154.207763671875

> <r_mmod_Torsional_Energy-OPLS-2005>
346.076721191406

> <r_mmod_Improper_Torsional_Energy-OPLS-2005>
3.3528311252594

> <r_mmod_Van_der_Waal_Energy-OPLS-2005>
159.079986572266

> <r_mmod_Electrostatic_Energy-OPLS-2005>
-299.599151611328

> <r_mmod_Solvation_Energy-OPLS-2005>
-198.614242553711

> <b_mmod_Minimization_Converged-OPLS-2005>
0

> <r_mmod_RMS_Derivative-OPLS-2005>
1.25656867027283

$$$$
48
                    3D
 Structure written by MMmdl.
158166  0  0  1  0            999 V2000
  -30.6555  -14.6523   20.5448 C   0  0  0  0  0  0
  -30.4299  -12.4115   19.4705 C   0  0  0  0  0  0
  -29.5101  -12.5105   18.2328 C   0  0  0  0  0  0
  -28.0338  -12.3390   18.6383 C   0  0  0  0  0  0
  -27.6484  -13.2196   19.8550 C   0  0  2  0  0  0
  -28.6818  -13.0910   20.9904 C   0  0  0  0  0  0
  -25.2562  -13.8187   20.5680 C   0  0  0  0  0  0
  -24.1825  -13.0446   20.9168 C   0  0  0  0  0  0
  -24.6391  -11.6920   20.8710 C   0  0  0  0  0  0
  -23.9057  -10.4301   21.0392 C   0  0  0  0  0  0
  -24.3613   -9.4226   21.9170 C   0  0  0  0  0  0
  -23.6292   -8.2261   22.0759 C   0  0  0  0  0  0
  -22.4271   -8.0297   21.3554 C   0  0  0  0  0  0
  -21.9898   -9.0268   20.4649 C   0  0  0  0  0  0
  -22.7227  -10.2141   20.3050 C   0  0  0  0  0  0
  -21.6857   -6.0746   22.5286 C   0  0  0  0  0  0
  -21.4015   -6.5652   23.8222 C   0  0  0  0  0  0
  -21.3655   -5.6798   24.9175 C   0  0  0  0  0  0
  -21.6035   -4.3057   24.7216 C   0  0  0  0  0  0
  -21.8817   -3.8151   23.4340 C   0  0  0  0  0  0
  -21.9198   -4.6972   22.3402 C   0  0  0  0  0  0
  -22.7844  -13.5241   21.1833 C   0  0  0  0  0  0
  -22.1655   -4.2156   21.0976 F   0  0  0  0  0  0
  -21.5641   -3.4547   25.7733 F   0  0  0  0  0  0
  -30.0008  -13.4454   20.4414 N   0  0  0  0  0  0
  -26.2960  -12.9364   20.3250 N   0  0  0  0  0  0
  -25.9316  -11.6513   20.5697 N   0  0  0  0  0  0
  -22.0502  -12.8238   22.0394 N   0  0  0  0  0  0
  -25.4284  -15.1912   20.4145 N   0  0  0  0  0  0
  -31.7861  -14.7815   20.0633 O   0  0  0  0  0  0
  -21.6639   -6.8893   21.4252 O   0  0  0  0  0  0
  -22.3515  -14.5542   20.6684 O   0  0  0  0  0  0
  -24.6248  -31.8597   23.2002 C   0  0  0  0  0  0
  -25.9101  -32.4775   23.8338 C   0  0  1  0  0  0
  -27.2327  -27.3214   20.1164 C   0  0  0  0  0  0
  -25.5924  -33.8577   24.2277 N   0  0  0  0  0  0
  -23.4179  -30.4796   21.5425 C   0  0  2  0  0  0
  -24.8671  -28.9281   20.1092 C   0  0  0  0  0  0
  -22.7465  -29.4609   22.4937 C   0  0  0  0  0  0
  -18.0276  -28.1393   22.8487 C   0  0  0  0  0  0
  -24.1479  -36.7286   23.2636 C   0  0  0  0  0  0
  -25.9560  -30.7891   21.3682 C   0  0  0  0  0  0
  -26.0302  -29.4142   20.7164 C   0  0  0  0  0  0
  -27.2107  -28.6182   20.7142 C   0  0  0  0  0  0
  -26.0451  -26.8766   19.4954 C   0  0  0  0  0  0
  -24.8752  -27.6650   19.4921 C   0  0  0  0  0  0
  -23.6331  -29.8084   20.1586 C   0  0  0  0  0  0
  -25.4107  -36.3077   24.0326 C   0  0  1  0  0  0
  -20.5870  -28.3695   23.1294 C   0  0  2  0  0  0
  -20.6773  -26.9419   22.5419 C   0  0  0  0  0  0
  -19.5747  -26.6385   21.5221 C   0  0  0  0  0  0
  -18.1921  -26.7937   22.1626 C   0  0  0  0  0  0
  -19.1523  -28.8863   23.2893 C   0  0  0  0  0  0
  -18.9459  -30.1468   23.8915 C   0  0  0  0  0  0
  -17.6462  -30.6603   24.0568 C   0  0  0  0  0  0
  -25.9050  -34.9448   23.5103 C   0  0  0  0  0  0
  -16.5352  -29.9105   23.6324 C   0  0  0  0  0  0
  -16.7268  -28.6512   23.0354 C   0  0  0  0  0  0
  -26.4502  -31.6590   25.0707 C   0  0  0  0  0  0
  -25.3745  -31.3742   26.1445 C   0  0  0  0  0  0
  -27.0351  -30.3021   24.6147 C   0  0  0  0  0  0
  -27.6064  -32.4332   25.7485 C   0  0  0  0  0  0
  -27.5568  -37.1796   24.8468 C   0  0  0  0  0  0
  -21.4174  -29.3051   22.3689 N   0  0  0  0  0  0
  -26.4281  -37.3775   23.9410 N   0  0  0  0  0  0
  -24.6852  -31.0593   22.0954 N   0  0  0  0  0  0
  -23.4184  -28.8161   23.3031 O   0  0  0  0  0  0
  -28.3804  -26.5216   20.1951 O   0  0  0  0  0  0
  -26.5608  -34.8915   22.4662 O   0  0  0  0  0  0
  -23.5422  -32.1411   23.7331 O   0  0  0  0  0  0
  -29.4571  -19.4598   19.2591 C   0  0  0  0  0  0
  -29.4697  -19.2233   21.6400 C   0  0  0  0  0  0
  -29.2242  -20.8656   19.3840 C   0  0  0  0  0  0
  -29.2588  -20.6319   21.7648 C   0  0  0  0  0  0
  -29.6099  -18.5867   20.3739 C   0  0  0  0  0  0
  -29.1523  -21.5117   20.6448 C   0  0  0  0  0  0
  -29.7087  -23.4915   21.9926 C   0  0  0  0  0  0
  -29.6444  -15.9274   22.3749 C   0  0  0  0  0  0
  -29.9694  -17.0567   20.1127 C   0  0  0  0  0  0
  -28.0533  -23.8331   20.1476 C   0  0  0  0  0  0
  -28.5258  -25.2222   19.5097 C   0  0  0  0  0  0
  -29.0859  -22.9514   20.7852 N   0  0  0  0  0  0
  -29.9440  -15.7744   20.9408 N   0  0  0  0  0  0
  -31.4718  -12.5275   19.1689 H   0  0  0  0  0  0
  -30.3656  -11.4206   19.9232 H   0  0  0  0  0  0
  -29.7855  -11.7541   17.4973 H   0  0  0  0  0  0
  -29.6483  -13.4758   17.7426 H   0  0  0  0  0  0
  -27.8774  -11.2872   18.8792 H   0  0  0  0  0  0
  -27.3812  -12.5555   17.7928 H   0  0  0  0  0  0
  -27.6637  -14.2536   19.5091 H   0  0  0  0  0  0
  -28.7009  -12.0736   21.3840 H   0  0  0  0  0  0
  -28.3812  -13.7210   21.8241 H   0  0  0  0  0  0
  -25.2764   -9.5716   22.4730 H   0  0  0  0  0  0
  -24.0020   -7.4654   22.7475 H   0  0  0  0  0  0
  -21.0835   -8.8774   19.8951 H   0  0  0  0  0  0
  -22.3678  -10.9680   19.6152 H   0  0  0  0  0  0
  -21.2001   -7.6156   23.9725 H   0  0  0  0  0  0
  -21.1472   -6.0522   25.9075 H   0  0  0  0  0  0
  -22.0592   -2.7617   23.2834 H   0  0  0  0  0  0
  -22.4138  -11.9907   22.4780 H   0  0  0  0  0  0
  -21.1128  -13.1286   22.2620 H   0  0  0  0  0  0
  -24.6705  -15.8514   20.5514 H   0  0  0  0  0  0
  -26.2932  -15.6338   20.1293 H   0  0  0  0  0  0
  -26.7160  -32.5458   23.1078 H   0  0  0  0  0  0
  -25.0091  -33.9739   25.0431 H   0  0  0  0  0  0
  -22.7122  -31.2999   21.3973 H   0  0  0  0  0  0
  -23.3735  -35.9622   23.3310 H   0  0  0  0  0  0
  -24.3564  -36.8904   22.2049 H   0  0  0  0  0  0
  -23.7237  -37.6492   23.6656 H   0  0  0  0  0  0
  -26.0786  -31.5473   20.5932 H   0  0  0  0  0  0
  -26.8396  -30.8496   21.9909 H   0  0  0  0  0  0
  -28.1028  -28.9858   21.2009 H   0  0  0  0  0  0
  -25.9911  -25.9021   19.0327 H   0  0  0  0  0  0
  -23.9792  -27.2851   19.0208 H   0  0  0  0  0  0
  -23.7519  -30.5846   19.4018 H   0  0  0  0  0  0
  -22.7529  -29.2381   19.8562 H   0  0  0  0  0  0
  -25.1280  -36.1922   25.0819 H   0  0  0  0  0  0
  -20.9976  -28.3273   24.1406 H   0  0  0  0  0  0
  -20.5690  -26.2302   23.3616 H   0  0  0  0  0  0
  -21.6643  -26.7466   22.1201 H   0  0  0  0  0  0
  -19.6914  -25.6292   21.1262 H   0  0  0  0  0  0
  -19.6690  -27.3183   20.6743 H   0  0  0  0  0  0
  -17.4195  -26.6680   21.4024 H   0  0  0  0  0  0
  -18.0324  -26.0090   22.9039 H   0  0  0  0  0  0
  -19.7941  -30.7271   24.2295 H   0  0  0  0  0  0
  -17.5022  -31.6284   24.5173 H   0  0  0  0  0  0
  -15.5355  -30.3019   23.7657 H   0  0  0  0  0  0
  -15.8655  -28.0848   22.7068 H   0  0  0  0  0  0
  -24.5902  -30.7103   25.7783 H   0  0  0  0  0  0
  -24.8950  -32.2929   26.4858 H   0  0  0  0  0  0
  -25.8080  -30.8934   27.0227 H   0  0  0  0  0  0
  -26.2928  -29.6768   24.1173 H   0  0  0  0  0  0
  -27.4074  -29.7278   25.4639 H   0  0  0  0  0  0
  -27.8779  -30.4317   23.9347 H   0  0  0  0  0  0
  -27.2664  -33.3626   26.2071 H   0  0  0  0  0  0
  -28.3877  -32.6915   25.0319 H   0  0  0  0  0  0
  -28.0729  -31.8454   26.5407 H   0  0  0  0  0  0
  -28.2599  -38.0083   24.7501 H   0  0  0  0  0  0
  -28.1056  -36.2614   24.6306 H   0  0  0  0  0  0
  -27.2293  -37.1467   25.8878 H   0  0  0  0  0  0
  -20.9347  -29.8771   21.6894 H   0  0  0  0  0  0
  -26.0157  -38.2845   24.1428 H   0  0  0  0  0  0
  -29.5511  -19.0471   18.2641 H   0  0  0  0  0  0
  -29.5537  -18.6506   22.5498 H   0  0  0  0  0  0
  -29.1616  -21.4600   18.4822 H   0  0  0  0  0  0
  -29.1960  -21.0336   22.7664 H   0  0  0  0  0  0
  -29.0495  -23.3765   22.8537 H   0  0  0  0  0  0
  -29.9256  -24.5555   21.8861 H   0  0  0  0  0  0
  -30.6523  -22.9901   22.2156 H   0  0  0  0  0  0
  -30.3331  -16.6315   22.8387 H   0  0  0  0  0  0
  -29.7546  -14.9984   22.9381 H   0  0  0  0  0  0
  -28.6251  -16.2848   22.5213 H   0  0  0  0  0  0
  -28.8954  -17.0039   20.2983 H   0  0  0  0  0  0
  -30.8284  -17.3312   20.7282 H   0  0  0  0  0  0
  -27.5868  -23.2505   19.3526 H   0  0  0  0  0  0
  -27.2522  -24.0236   20.8630 H   0  0  0  0  0  0
  -28.0650  -25.3150   18.5260 H   0  0  0  0  0  0
  -29.5872  -25.1290   19.2758 H   0  0  0  0  0  0
  1 25  1  0  0  0
  1 30  2  0  0  0
  1 83  1  0  0  0
  2  3  1  0  0  0
  2 25  1  0  0  0
  2 84  1  0  0  0
  2 85  1  0  0  0
  3  4  1  0  0  0
  3 86  1  0  0  0
  3 87  1  0  0  0
  4  5  1  0  0  0
  4 88  1  0  0  0
  4 89  1  0  0  0
  5  6  1  0  0  0
  5 26  1  0  0  0
  5 90  1  0  0  0
  6 25  1  0  0  0
  6 91  1  0  0  0
  6 92  1  0  0  0
  7  8  2  0  0  0
  7 26  1  0  0  0
  7 29  1  0  0  0
  8  9  1  0  0  0
  8 22  1  0  0  0
  9 10  1  0  0  0
  9 27  2  0  0  0
 10 11  2  0  0  0
 10 15  1  0  0  0
 11 12  1  0  0  0
 11 93  1  0  0  0
 12 13  2  0  0  0
 12 94  1  0  0  0
 13 14  1  0  0  0
 13 31  1  0  0  0
 14 15  2  0  0  0
 14 95  1  0  0  0
 15 96  1  0  0  0
 16 17  2  0  0  0
 16 21  1  0  0  0
 16 31  1  0  0  0
 17 18  1  0  0  0
 17 97  1  0  0  0
 18 19  2  0  0  0
 18 98  1  0  0  0
 19 20  1  0  0  0
 19 24  1  0  0  0
 20 21  2  0  0  0
 20 99  1  0  0  0
 21 23  1  0  0  0
 22 28  1  0  0  0
 22 32  2  0  0  0
 26 27  1  0  0  0
 28100  1  0  0  0
 28101  1  0  0  0
 29102  1  0  0  0
 29103  1  0  0  0
 33 34  1  0  0  0
 33 66  1  0  0  0
 33 70  2  0  0  0
 34 36  1  0  0  0
 34 59  1  0  0  0
 34104  1  0  0  0
 35 44  2  0  0  0
 35 45  1  0  0  0
 35 68  1  0  0  0
 36 56  1  0  0  0
 36105  1  0  0  0
 37 39  1  0  0  0
 37 47  1  0  0  0
 37 66  1  0  0  0
 37106  1  0  0  0
 38 43  2  0  0  0
 38 46  1  0  0  0
 38 47  1  0  0  0
 39 64  1  0  0  0
 39 67  2  0  0  0
 40 52  1  0  0  0
 40 53  2  0  0  0
 40 58  1  0  0  0
 41107  1  0  0  0
 41108  1  0  0  0
 41109  1  0  0  0
 41 48  1  0  0  0
 42 43  1  0  0  0
 42 66  1  0  0  0
 42110  1  0  0  0
 42111  1  0  0  0
 43 44  1  0  0  0
 44112  1  0  0  0
 45 46  2  0  0  0
 45113  1  0  0  0
 46114  1  0  0  0
 47115  1  0  0  0
 47116  1  0  0  0
 48 56  1  0  0  0
 48 65  1  0  0  0
 48117  1  0  0  0
 49 50  1  0  0  0
 49 53  1  0  0  0
 49 64  1  0  0  0
 49118  1  0  0  0
 50 51  1  0  0  0
 50119  1  0  0  0
 50120  1  0  0  0
 51 52  1  0  0  0
 51121  1  0  0  0
 51122  1  0  0  0
 52123  1  0  0  0
 52124  1  0  0  0
 53 54  1  0  0  0
 54 55  2  0  0  0
 54125  1  0  0  0
 55 57  1  0  0  0
 55126  1  0  0  0
 56 69  2  0  0  0
 57 58  2  0  0  0
 57127  1  0  0  0
 58128  1  0  0  0
 59 60  1  0  0  0
 59 61  1  0  0  0
 59 62  1  0  0  0
 60129  1  0  0  0
 60130  1  0  0  0
 60131  1  0  0  0
 61132  1  0  0  0
 61133  1  0  0  0
 61134  1  0  0  0
 62135  1  0  0  0
 62136  1  0  0  0
 62137  1  0  0  0
 63 65  1  0  0  0
 63138  1  0  0  0
 63139  1  0  0  0
 63140  1  0  0  0
 64141  1  0  0  0
 65142  1  0  0  0
 68 81  1  0  0  0
 71 73  2  0  0  0
 71 75  1  0  0  0
 71143  1  0  0  0
 72 74  1  0  0  0
 72 75  2  0  0  0
 72144  1  0  0  0
 73 76  1  0  0  0
 73145  1  0  0  0
 74 76  2  0  0  0
 74146  1  0  0  0
 75 79  1  0  0  0
 76 82  1  0  0  0
 77 82  1  0  0  0
 77147  1  0  0  0
 77148  1  0  0  0
 77149  1  0  0  0
 78 83  1  0  0  0
 78150  1  0  0  0
 78151  1  0  0  0
 78152  1  0  0  0
 79 83  1  0  0  0
 79153  1  0  0  0
 79154  1  0  0  0
 80 81  1  0  0  0
 80 82  1  0  0  0
 80155  1  0  0  0
 80156  1  0  0  0
 81157  1  0  0  0
 81158  1  0  0  0
M  ISO  4   1 100  68 101  81 101  83 100
M  END
> <chiral flag>
0

> <version>
0

> <s_m_source_file>
/data/baiqing/PycharmProjects/Reinvent-master-3.2/result/LINK_invent/BTK/process_docking_weight1_custom_product_contain_oxygen_bond_distance_aromatic_linkinvent_7_9_3/rearranged_h_0016.sdf

> <i_m_source_file_index>
49

> <r_mmod_Potential_Energy-OPLS-2005>
439.037231445312

> <r_mmod_Stretch_Energy-OPLS-2005>
92.5135726928711

> <r_mmod_Bend_Energy-OPLS-2005>
379.099792480469

> <r_mmod_Torsional_Energy-OPLS-2005>
270.232360839844

> <r_mmod_Improper_Torsional_Energy-OPLS-2005>
9.45748710632324

> <r_mmod_Van_der_Waal_Energy-OPLS-2005>
151.953414916992

> <r_mmod_Electrostatic_Energy-OPLS-2005>
-298.704345703125

> <r_mmod_Solvation_Energy-OPLS-2005>
-213.23828125

> <b_mmod_Minimization_Converged-OPLS-2005>
0

> <r_mmod_RMS_Derivative-OPLS-2005>
2.17701935768127

$$$$
49
                    3D
 Structure written by MMmdl.
168177  0  0  1  0            999 V2000
  -30.6909  -14.5971   20.4891 C   0  0  0  0  0  0
  -30.4171  -12.3632   19.4604 C   0  0  0  0  0  0
  -29.5021  -12.4836   18.2249 C   0  0  0  0  0  0
  -28.0272  -12.3263   18.6413 C   0  0  0  0  0  0
  -27.6465  -13.2152   19.8559 C   0  0  2  0  0  0
  -28.6911  -13.1216   20.9896 C   0  0  0  0  0  0
  -25.2544  -13.8171   20.5702 C   0  0  0  0  0  0
  -24.1806  -13.0440   20.9185 C   0  0  0  0  0  0
  -24.6375  -11.6909   20.8745 C   0  0  0  0  0  0
  -23.9048  -10.4289   21.0413 C   0  0  0  0  0  0
  -24.3603   -9.4198   21.9189 C   0  0  0  0  0  0
  -23.6271   -8.2236   22.0763 C   0  0  0  0  0  0
  -22.4251   -8.0282   21.3560 C   0  0  0  0  0  0
  -21.9882   -9.0264   20.4669 C   0  0  0  0  0  0
  -22.7217  -10.2138   20.3071 C   0  0  0  0  0  0
  -21.6850   -6.0720   22.5278 C   0  0  0  0  0  0
  -21.4022   -6.5627   23.8209 C   0  0  0  0  0  0
  -21.3662   -5.6784   24.9176 C   0  0  0  0  0  0
  -21.6038   -4.3044   24.7230 C   0  0  0  0  0  0
  -21.8817   -3.8136   23.4350 C   0  0  0  0  0  0
  -21.9190   -4.6952   22.3407 C   0  0  0  0  0  0
  -22.7825  -13.5240   21.1833 C   0  0  0  0  0  0
  -22.1655   -4.2136   21.0982 F   0  0  0  0  0  0
  -21.5631   -3.4533   25.7745 F   0  0  0  0  0  0
  -30.0059  -13.4154   20.4085 N   0  0  0  0  0  0
  -26.2958  -12.9341   20.3312 N   0  0  0  0  0  0
  -25.9301  -11.6498   20.5767 N   0  0  0  0  0  0
  -22.0450  -12.8275   22.0413 N   0  0  0  0  0  0
  -25.4281  -15.1890   20.4163 N   0  0  0  0  0  0
  -31.8759  -14.6699   20.1538 O   0  0  0  0  0  0
  -21.6627   -6.8867   21.4244 O   0  0  0  0  0  0
  -22.3517  -14.5535   20.6655 O   0  0  0  0  0  0
  -24.6228  -31.8629   23.2052 C   0  0  0  0  0  0
  -25.9095  -32.4797   23.8368 C   0  0  1  0  0  0
  -27.2212  -27.3627   20.1165 C   0  0  0  0  0  0
  -25.5927  -33.8594   24.2309 N   0  0  0  0  0  0
  -23.4145  -30.4869   21.5466 C   0  0  2  0  0  0
  -24.8634  -28.9506   20.1067 C   0  0  0  0  0  0
  -22.7465  -29.4631   22.4949 C   0  0  0  0  0  0
  -18.0288  -28.1370   22.8483 C   0  0  0  0  0  0
  -24.1495  -36.7295   23.2637 C   0  0  0  0  0  0
  -25.9524  -30.8080   21.3712 C   0  0  0  0  0  0
  -26.0292  -29.4398   20.7119 C   0  0  0  0  0  0
  -27.2162  -28.6555   20.7106 C   0  0  0  0  0  0
  -26.0443  -26.9179   19.4803 C   0  0  0  0  0  0
  -24.8703  -27.6928   19.4819 C   0  0  0  0  0  0
  -23.6270  -29.8232   20.1606 C   0  0  0  0  0  0
  -25.4114  -36.3093   24.0337 C   0  0  1  0  0  0
  -20.5889  -28.3665   23.1293 C   0  0  2  0  0  0
  -20.6776  -26.9386   22.5426 C   0  0  0  0  0  0
  -19.5763  -26.6371   21.5208 C   0  0  0  0  0  0
  -18.1930  -26.7922   22.1599 C   0  0  0  0  0  0
  -19.1543  -28.8833   23.2884 C   0  0  0  0  0  0
  -18.9462  -30.1442   23.8893 C   0  0  0  0  0  0
  -17.6462  -30.6568   24.0561 C   0  0  0  0  0  0
  -25.9045  -34.9460   23.5117 C   0  0  0  0  0  0
  -16.5353  -29.9066   23.6328 C   0  0  0  0  0  0
  -16.7278  -28.6486   23.0344 C   0  0  0  0  0  0
  -26.4503  -31.6586   25.0715 C   0  0  0  0  0  0
  -25.3765  -31.3734   26.1464 C   0  0  0  0  0  0
  -27.0314  -30.3008   24.6138 C   0  0  0  0  0  0
  -27.6096  -32.4301   25.7447 C   0  0  0  0  0  0
  -27.5594  -37.1786   24.8460 C   0  0  0  0  0  0
  -21.4182  -29.3022   22.3687 N   0  0  0  0  0  0
  -26.4300  -37.3782   23.9415 N   0  0  0  0  0  0
  -24.6815  -31.0687   22.0981 N   0  0  0  0  0  0
  -23.4211  -28.8172   23.3012 O   0  0  0  0  0  0
  -28.2974  -26.4830   20.1794 O   0  0  0  0  0  0
  -26.5598  -34.8921   22.4677 O   0  0  0  0  0  0
  -23.5402  -32.1404   23.7407 O   0  0  0  0  0  0
  -29.1740  -23.2176   21.9431 C   0  0  0  0  0  0
  -29.7249  -21.9159   21.8071 C   0  0  0  0  0  0
  -28.7628  -23.3127   19.5689 C   0  0  0  0  0  0
  -28.7088  -23.9610   20.8274 C   0  0  0  0  0  0
  -29.8348  -21.2874   20.5443 C   0  0  0  0  0  0
  -29.3244  -22.0091   19.4265 C   0  0  0  0  0  0
  -29.4181  -18.0757   19.5467 C   0  0  0  0  0  0
  -30.1365  -18.1165   21.8717 C   0  0  0  0  0  0
  -29.6176  -16.5264   19.4531 C   0  0  0  0  0  0
  -30.3213  -16.5596   21.9069 C   0  0  0  0  0  0
  -30.4442  -18.6977   20.4879 C   0  0  0  0  0  0
  -32.7470  -20.1906   18.9456 C   0  0  0  0  0  0
  -32.9433  -20.1896   21.4910 C   0  0  0  0  0  0
  -28.0278  -25.3437   21.0615 C   0  0  0  0  0  0
  -32.1043  -20.6165   20.2752 C   0  0  0  0  0  0
  -29.9796  -15.7601   20.6900 N   0  0  0  0  0  0
  -30.7073  -20.1677   20.3745 N   0  0  0  0  0  0
  -29.4262  -21.4746   18.1846 F   0  0  0  0  0  0
  -31.4657  -12.4431   19.1675 H   0  0  0  0  0  0
  -30.3136  -11.3804   19.9225 H   0  0  0  0  0  0
  -29.7652  -11.7252   17.4858 H   0  0  0  0  0  0
  -29.6519  -13.4500   17.7404 H   0  0  0  0  0  0
  -27.8716  -11.2762   18.8928 H   0  0  0  0  0  0
  -27.3700  -12.5364   17.7968 H   0  0  0  0  0  0
  -27.6468  -14.2386   19.4894 H   0  0  0  0  0  0
  -28.6901  -12.1291   21.4413 H   0  0  0  0  0  0
  -28.4488  -13.8229   21.7902 H   0  0  0  0  0  0
  -25.2761   -9.5669   22.4747 H   0  0  0  0  0  0
  -23.9998   -7.4618   22.7471 H   0  0  0  0  0  0
  -21.0812   -8.8788   19.8972 H   0  0  0  0  0  0
  -22.3690  -10.9679   19.6170 H   0  0  0  0  0  0
  -21.2024   -7.6136   23.9710 H   0  0  0  0  0  0
  -21.1483   -6.0516   25.9077 H   0  0  0  0  0  0
  -22.0593   -2.7601   23.2850 H   0  0  0  0  0  0
  -22.4061  -11.9981   22.4878 H   0  0  0  0  0  0
  -21.1078  -13.1344   22.2597 H   0  0  0  0  0  0
  -24.6690  -15.8493   20.5454 H   0  0  0  0  0  0
  -26.2968  -15.6316   20.1438 H   0  0  0  0  0  0
  -26.7155  -32.5480   23.1111 H   0  0  0  0  0  0
  -25.0130  -33.9754   25.0492 H   0  0  0  0  0  0
  -22.7050  -31.3053   21.4066 H   0  0  0  0  0  0
  -23.3765  -35.9616   23.3298 H   0  0  0  0  0  0
  -24.3598  -36.8915   22.2053 H   0  0  0  0  0  0
  -23.7237  -37.6494   23.6656 H   0  0  0  0  0  0
  -26.0822  -31.5759   20.6070 H   0  0  0  0  0  0
  -26.8328  -30.8534   22.0007 H   0  0  0  0  0  0
  -28.1091  -29.0200   21.1986 H   0  0  0  0  0  0
  -26.0264  -25.9443   19.0101 H   0  0  0  0  0  0
  -23.9765  -27.3125   19.0067 H   0  0  0  0  0  0
  -23.7376  -30.6001   19.4033 H   0  0  0  0  0  0
  -22.7498  -29.2462   19.8618 H   0  0  0  0  0  0
  -25.1294  -36.1950   25.0828 H   0  0  0  0  0  0
  -20.9983  -28.3242   24.1414 H   0  0  0  0  0  0
  -20.5649  -26.2276   23.3627 H   0  0  0  0  0  0
  -21.6654  -26.7398   22.1246 H   0  0  0  0  0  0
  -19.6924  -25.6279   21.1243 H   0  0  0  0  0  0
  -19.6722  -27.3183   20.6742 H   0  0  0  0  0  0
  -17.4224  -26.6704   21.3969 H   0  0  0  0  0  0
  -18.0292  -26.0045   22.8966 H   0  0  0  0  0  0
  -19.7940  -30.7260   24.2252 H   0  0  0  0  0  0
  -17.5012  -31.6251   24.5157 H   0  0  0  0  0  0
  -15.5348  -30.2953   23.7652 H   0  0  0  0  0  0
  -15.8686  -28.0794   22.7054 H   0  0  0  0  0  0
  -24.5961  -30.7033   25.7842 H   0  0  0  0  0  0
  -24.8918  -32.2892   26.4852 H   0  0  0  0  0  0
  -25.8120  -30.8978   27.0261 H   0  0  0  0  0  0
  -26.2848  -29.6759   24.1221 H   0  0  0  0  0  0
  -27.4081  -29.7266   25.4616 H   0  0  0  0  0  0
  -27.8700  -30.4293   23.9293 H   0  0  0  0  0  0
  -27.2744  -33.3593   26.2065 H   0  0  0  0  0  0
  -28.3861  -32.6872   25.0231 H   0  0  0  0  0  0
  -28.0817  -31.8401   26.5315 H   0  0  0  0  0  0
  -28.2624  -38.0074   24.7510 H   0  0  0  0  0  0
  -28.1077  -36.2612   24.6266 H   0  0  0  0  0  0
  -27.2328  -37.1429   25.8868 H   0  0  0  0  0  0
  -20.9347  -29.8735   21.6897 H   0  0  0  0  0  0
  -26.0192  -38.2859   24.1422 H   0  0  0  0  0  0
  -29.1223  -23.6542   22.9311 H   0  0  0  0  0  0
  -30.1302  -21.4268   22.6814 H   0  0  0  0  0  0
  -28.3816  -23.8202   18.6951 H   0  0  0  0  0  0
  -28.4074  -18.3109   19.8830 H   0  0  0  0  0  0
  -29.5114  -18.5090   18.5500 H   0  0  0  0  0  0
  -30.7806  -18.5659   22.6278 H   0  0  0  0  0  0
  -29.1166  -18.3761   22.1607 H   0  0  0  0  0  0
  -30.3981  -16.3636   18.7059 H   0  0  0  0  0  0
  -28.7217  -16.0907   19.0152 H   0  0  0  0  0  0
  -29.7579  -16.1518   22.7474 H   0  0  0  0  0  0
  -31.3704  -16.3798   22.1549 H   0  0  0  0  0  0
  -31.3905  -18.2378   20.2036 H   0  0  0  0  0  0
  -33.7459  -20.6160   18.8490 H   0  0  0  0  0  0
  -32.1632  -20.5462   18.0958 H   0  0  0  0  0  0
  -32.8479  -19.1098   18.8504 H   0  0  0  0  0  0
  -33.9496  -20.6051   21.4288 H   0  0  0  0  0  0
  -33.0449  -19.1065   21.5652 H   0  0  0  0  0  0
  -32.5042  -20.5502   22.4220 H   0  0  0  0  0  0
  -28.2996  -25.6785   22.0636 H   0  0  0  0  0  0
  -26.9596  -25.1291   21.1231 H   0  0  0  0  0  0
  -32.1243  -21.7090   20.2703 H   0  0  0  0  0  0
  1 25  1  0  0  0
  1 30  2  0  0  0
  1 86  1  0  0  0
  2  3  1  0  0  0
  2 25  1  0  0  0
  2 89  1  0  0  0
  2 90  1  0  0  0
  3  4  1  0  0  0
  3 91  1  0  0  0
  3 92  1  0  0  0
  4  5  1  0  0  0
  4 93  1  0  0  0
  4 94  1  0  0  0
  5  6  1  0  0  0
  5 26  1  0  0  0
  5 95  1  0  0  0
  6 25  1  0  0  0
  6 96  1  0  0  0
  6 97  1  0  0  0
  7  8  2  0  0  0
  7 26  1  0  0  0
  7 29  1  0  0  0
  8  9  1  0  0  0
  8 22  1  0  0  0
  9 10  1  0  0  0
  9 27  2  0  0  0
 10 11  2  0  0  0
 10 15  1  0  0  0
 11 12  1  0  0  0
 11 98  1  0  0  0
 12 13  2  0  0  0
 12 99  1  0  0  0
 13 14  1  0  0  0
 13 31  1  0  0  0
 14 15  2  0  0  0
 14100  1  0  0  0
 15101  1  0  0  0
 16 17  2  0  0  0
 16 21  1  0  0  0
 16 31  1  0  0  0
 17 18  1  0  0  0
 17102  1  0  0  0
 18 19  2  0  0  0
 18103  1  0  0  0
 19 20  1  0  0  0
 19 24  1  0  0  0
 20 21  2  0  0  0
 20104  1  0  0  0
 21 23  1  0  0  0
 22 28  1  0  0  0
 22 32  2  0  0  0
 26 27  1  0  0  0
 28105  1  0  0  0
 28106  1  0  0  0
 29107  1  0  0  0
 29108  1  0  0  0
 33 34  1  0  0  0
 33 66  1  0  0  0
 33 70  2  0  0  0
 34 36  1  0  0  0
 34 59  1  0  0  0
 34109  1  0  0  0
 35 44  2  0  0  0
 35 45  1  0  0  0
 35 68  1  0  0  0
 36 56  1  0  0  0
 36110  1  0  0  0
 37 39  1  0  0  0
 37 47  1  0  0  0
 37 66  1  0  0  0
 37111  1  0  0  0
 38 43  2  0  0  0
 38 46  1  0  0  0
 38 47  1  0  0  0
 39 64  1  0  0  0
 39 67  2  0  0  0
 40 52  1  0  0  0
 40 53  2  0  0  0
 40 58  1  0  0  0
 41112  1  0  0  0
 41113  1  0  0  0
 41114  1  0  0  0
 41 48  1  0  0  0
 42 43  1  0  0  0
 42 66  1  0  0  0
 42115  1  0  0  0
 42116  1  0  0  0
 43 44  1  0  0  0
 44117  1  0  0  0
 45 46  2  0  0  0
 45118  1  0  0  0
 46119  1  0  0  0
 47120  1  0  0  0
 47121  1  0  0  0
 48 56  1  0  0  0
 48 65  1  0  0  0
 48122  1  0  0  0
 49 50  1  0  0  0
 49 53  1  0  0  0
 49 64  1  0  0  0
 49123  1  0  0  0
 50 51  1  0  0  0
 50124  1  0  0  0
 50125  1  0  0  0
 51 52  1  0  0  0
 51126  1  0  0  0
 51127  1  0  0  0
 52128  1  0  0  0
 52129  1  0  0  0
 53 54  1  0  0  0
 54 55  2  0  0  0
 54130  1  0  0  0
 55 57  1  0  0  0
 55131  1  0  0  0
 56 69  2  0  0  0
 57 58  2  0  0  0
 57132  1  0  0  0
 58133  1  0  0  0
 59 60  1  0  0  0
 59 61  1  0  0  0
 59 62  1  0  0  0
 60134  1  0  0  0
 60135  1  0  0  0
 60136  1  0  0  0
 61137  1  0  0  0
 61138  1  0  0  0
 61139  1  0  0  0
 62140  1  0  0  0
 62141  1  0  0  0
 62142  1  0  0  0
 63 65  1  0  0  0
 63143  1  0  0  0
 63144  1  0  0  0
 63145  1  0  0  0
 64146  1  0  0  0
 65147  1  0  0  0
 68 84  1  0  0  0
 71 72  2  0  0  0
 71 74  1  0  0  0
 71148  1  0  0  0
 72 75  1  0  0  0
 72149  1  0  0  0
 73 74  2  0  0  0
 73 76  1  0  0  0
 73150  1  0  0  0
 74 84  1  0  0  0
 75 76  2  0  0  0
 75 87  1  0  0  0
 76 88  1  0  0  0
 77 79  1  0  0  0
 77 81  1  0  0  0
 77151  1  0  0  0
 77152  1  0  0  0
 78 80  1  0  0  0
 78 81  1  0  0  0
 78153  1  0  0  0
 78154  1  0  0  0
 79 86  1  0  0  0
 79155  1  0  0  0
 79156  1  0  0  0
 80 86  1  0  0  0
 80157  1  0  0  0
 80158  1  0  0  0
 81 87  1  0  0  0
 81159  1  0  0  0
 82160  1  0  0  0
 82161  1  0  0  0
 82162  1  0  0  0
 82 85  1  0  0  0
 83 85  1  0  0  0
 83163  1  0  0  0
 83164  1  0  0  0
 83165  1  0  0  0
 84166  1  0  0  0
 84167  1  0  0  0
 85 87  1  0  0  0
 85168  1  0  0  0
M  ISO  4   1 100  68 101  84 101  86 100
M  END
> <chiral flag>
0

> <version>
0

> <s_m_source_file>
/data/baiqing/PycharmProjects/Reinvent-master-3.2/result/LINK_invent/BTK/process_docking_weight1_custom_product_contain_oxygen_bond_distance_aromatic_linkinvent_7_9_3/rearranged_h_0016.sdf

> <i_m_source_file_index>
50

> <r_mmod_Potential_Energy-OPLS-2005>
371.118194580078

> <r_mmod_Stretch_Energy-OPLS-2005>
66.9267425537109

> <r_mmod_Bend_Energy-OPLS-2005>
170.978881835938

> <r_mmod_Torsional_Energy-OPLS-2005>
423.919097900391

> <r_mmod_Improper_Torsional_Energy-OPLS-2005>
12.3397779464722

> <r_mmod_Van_der_Waal_Energy-OPLS-2005>
141.917953491211

> <r_mmod_Electrostatic_Energy-OPLS-2005>
-303.585418701172

> <r_mmod_Solvation_Energy-OPLS-2005>
-184.707153320312

> <b_mmod_Minimization_Converged-OPLS-2005>
0

> <r_mmod_RMS_Derivative-OPLS-2005>
1.6038943529129

$$$$
50
                    3D
 Structure written by MMmdl.
168176  0  0  1  0            999 V2000
  -30.7731  -14.3756   20.6877 C   0  0  0  0  0  0
  -30.4131  -12.2947   19.4019 C   0  0  0  0  0  0
  -29.4861  -12.5283   18.1959 C   0  0  0  0  0  0
  -28.0118  -12.3740   18.6126 C   0  0  0  0  0  0
  -27.6658  -13.2031   19.8768 C   0  0  2  0  0  0
  -28.7043  -12.9736   20.9982 C   0  0  0  0  0  0
  -25.2607  -13.8158   20.5659 C   0  0  0  0  0  0
  -24.1854  -13.0454   20.9150 C   0  0  0  0  0  0
  -24.6395  -11.6909   20.8732 C   0  0  0  0  0  0
  -23.9054  -10.4304   21.0407 C   0  0  0  0  0  0
  -24.3614   -9.4218   21.9189 C   0  0  0  0  0  0
  -23.6291   -8.2254   22.0762 C   0  0  0  0  0  0
  -22.4278   -8.0285   21.3547 C   0  0  0  0  0  0
  -21.9908   -9.0259   20.4651 C   0  0  0  0  0  0
  -22.7236  -10.2138   20.3058 C   0  0  0  0  0  0
  -21.6847   -6.0736   22.5280 C   0  0  0  0  0  0
  -21.4020   -6.5642   23.8215 C   0  0  0  0  0  0
  -21.3664   -5.6795   24.9176 C   0  0  0  0  0  0
  -21.6042   -4.3052   24.7226 C   0  0  0  0  0  0
  -21.8814   -3.8151   23.4345 C   0  0  0  0  0  0
  -21.9193   -4.6970   22.3407 C   0  0  0  0  0  0
  -22.7875  -13.5261   21.1819 C   0  0  0  0  0  0
  -22.1650   -4.2153   21.0987 F   0  0  0  0  0  0
  -21.5631   -3.4537   25.7743 F   0  0  0  0  0  0
  -30.0440  -13.2525   20.4559 N   0  0  0  0  0  0
  -26.3043  -12.9323   20.3352 N   0  0  0  0  0  0
  -25.9326  -11.6487   20.5752 N   0  0  0  0  0  0
  -22.0501  -12.8267   22.0366 N   0  0  0  0  0  0
  -25.4357  -15.1878   20.4070 N   0  0  0  0  0  0
  -31.8059  -14.6173   20.0551 O   0  0  0  0  0  0
  -21.6642   -6.8883   21.4246 O   0  0  0  0  0  0
  -22.3573  -14.5575   20.6665 O   0  0  0  0  0  0
  -24.6096  -31.8719   23.2118 C   0  0  0  0  0  0
  -25.8998  -32.4860   23.8424 C   0  0  1  0  0  0
  -27.2568  -27.4722   20.1051 C   0  0  0  0  0  0
  -25.5861  -33.8655   24.2355 N   0  0  0  0  0  0
  -23.3998  -30.4893   21.5524 C   0  0  2  0  0  0
  -24.8528  -28.9596   20.1151 C   0  0  0  0  0  0
  -22.7397  -29.4658   22.5031 C   0  0  0  0  0  0
  -18.0261  -28.1378   22.8494 C   0  0  0  0  0  0
  -24.1487  -36.7315   23.2641 C   0  0  0  0  0  0
  -25.9208  -30.8513   21.3585 C   0  0  0  0  0  0
  -26.0053  -29.4881   20.7088 C   0  0  0  0  0  0
  -27.2084  -28.7551   20.7010 C   0  0  0  0  0  0
  -26.0963  -26.9628   19.4888 C   0  0  0  0  0  0
  -24.8920  -27.6951   19.4976 C   0  0  0  0  0  0
  -23.6064  -29.8135   20.1684 C   0  0  0  0  0  0
  -25.4112  -36.3144   24.0348 C   0  0  1  0  0  0
  -20.5846  -28.3666   23.1336 C   0  0  2  0  0  0
  -20.6752  -26.9413   22.5427 C   0  0  0  0  0  0
  -19.5736  -26.6381   21.5221 C   0  0  0  0  0  0
  -18.1909  -26.7928   22.1617 C   0  0  0  0  0  0
  -19.1512  -28.8836   23.2914 C   0  0  0  0  0  0
  -18.9451  -30.1434   23.8946 C   0  0  0  0  0  0
  -17.6468  -30.6608   24.0555 C   0  0  0  0  0  0
  -25.9022  -34.9504   23.5158 C   0  0  0  0  0  0
  -16.5355  -29.9111   23.6320 C   0  0  0  0  0  0
  -16.7253  -28.6503   23.0372 C   0  0  0  0  0  0
  -26.4456  -31.6627   25.0733 C   0  0  0  0  0  0
  -25.3740  -31.3683   26.1493 C   0  0  0  0  0  0
  -27.0274  -30.3090   24.6027 C   0  0  0  0  0  0
  -27.6043  -32.4357   25.7476 C   0  0  0  0  0  0
  -27.5609  -37.1805   24.8463 C   0  0  0  0  0  0
  -21.4131  -29.3038   22.3761 N   0  0  0  0  0  0
  -26.4314  -37.3813   23.9412 N   0  0  0  0  0  0
  -24.6612  -31.0839   22.1007 N   0  0  0  0  0  0
  -23.4180  -28.8213   23.3076 O   0  0  0  0  0  0
  -28.3887  -26.6856   20.1135 O   0  0  0  0  0  0
  -26.5583  -34.8948   22.4725 O   0  0  0  0  0  0
  -23.5294  -32.1442   23.7535 O   0  0  0  0  0  0
  -29.1367  -20.6396   22.9913 C   0  0  0  0  0  0
  -31.3771  -20.9390   22.0832 C   0  0  0  0  0  0
  -29.1517  -21.9715   23.4594 C   0  0  0  0  0  0
  -31.3939  -22.2644   22.5601 C   0  0  0  0  0  0
  -30.2596  -20.1066   22.3201 C   0  0  0  0  0  0
  -30.2904  -22.7845   23.2633 C   0  0  0  0  0  0
  -30.3904  -24.0092   25.2814 C   0  0  0  0  0  0
  -31.9001  -18.2245   23.7200 C   0  0  0  0  0  0
  -30.2787  -18.6515   21.8432 C   0  0  0  0  0  0
  -30.3112  -15.3990   21.7477 C   0  0  0  0  0  0
  -29.6719  -25.3307   21.7327 C   0  0  0  0  0  0
  -29.5507  -25.1224   23.2580 C   0  0  0  0  0  0
  -31.3977  -16.4487   22.1002 C   0  0  0  0  0  0
  -29.1544  -26.7253   21.3216 C   0  0  0  0  0  0
  -30.3953  -24.0684   23.8221 N   0  0  0  0  0  0
  -30.8789  -17.6629   22.7956 N   0  3  1  0  0  0
  -31.4586  -12.3817   19.0969 H   0  0  0  0  0  0
  -30.2995  -11.2745   19.7742 H   0  0  0  0  0  0
  -29.7240  -11.8279   17.3937 H   0  0  0  0  0  0
  -29.6521  -13.5278   17.7915 H   0  0  0  0  0  0
  -27.8257  -11.3156   18.7967 H   0  0  0  0  0  0
  -27.3573  -12.6550   17.7871 H   0  0  0  0  0  0
  -27.7179  -14.2533   19.5905 H   0  0  0  0  0  0
  -28.6646  -11.9419   21.3480 H   0  0  0  0  0  0
  -28.4496  -13.5839   21.8631 H   0  0  0  0  0  0
  -25.2763   -9.5693   22.4769 H   0  0  0  0  0  0
  -23.9997   -7.4650   22.7494 H   0  0  0  0  0  0
  -21.0836   -8.8779   19.8968 H   0  0  0  0  0  0
  -22.3693  -10.9675   19.6171 H   0  0  0  0  0  0
  -21.2010   -7.6152   23.9722 H   0  0  0  0  0  0
  -21.1487   -6.0524   25.9079 H   0  0  0  0  0  0
  -22.0588   -2.7612   23.2850 H   0  0  0  0  0  0
  -22.4080  -11.9911   22.4756 H   0  0  0  0  0  0
  -21.1136  -13.1344   22.2596 H   0  0  0  0  0  0
  -24.6722  -15.8474   20.5106 H   0  0  0  0  0  0
  -26.2956  -15.6228   20.0966 H   0  0  0  0  0  0
  -26.7083  -32.5603   23.1210 H   0  0  0  0  0  0
  -25.0059  -33.9828   25.0530 H   0  0  0  0  0  0
  -22.6888  -31.3063   21.4110 H   0  0  0  0  0  0
  -23.3785  -35.9619   23.3297 H   0  0  0  0  0  0
  -24.3595  -36.8919   22.2058 H   0  0  0  0  0  0
  -23.7193  -37.6498   23.6658 H   0  0  0  0  0  0
  -26.0204  -31.6194   20.5910 H   0  0  0  0  0  0
  -26.8101  -30.9147   21.9716 H   0  0  0  0  0  0
  -28.0938  -29.1764   21.1566 H   0  0  0  0  0  0
  -26.1231  -25.9916   19.0157 H   0  0  0  0  0  0
  -24.0098  -27.2813   19.0273 H   0  0  0  0  0  0
  -23.7049  -30.5841   19.4046 H   0  0  0  0  0  0
  -22.7354  -29.2209   19.8806 H   0  0  0  0  0  0
  -25.1287  -36.2043   25.0843 H   0  0  0  0  0  0
  -20.9934  -28.3242   24.1455 H   0  0  0  0  0  0
  -20.5653  -26.2287   23.3615 H   0  0  0  0  0  0
  -21.6625  -26.7459   22.1231 H   0  0  0  0  0  0
  -19.6897  -25.6284   21.1262 H   0  0  0  0  0  0
  -19.6683  -27.3171   20.6738 H   0  0  0  0  0  0
  -17.4183  -26.6696   21.4009 H   0  0  0  0  0  0
  -18.0291  -26.0067   22.8999 H   0  0  0  0  0  0
  -19.7936  -30.7204   24.2373 H   0  0  0  0  0  0
  -17.5038  -31.6299   24.5135 H   0  0  0  0  0  0
  -15.5358  -30.3043   23.7611 H   0  0  0  0  0  0
  -15.8639  -28.0822   22.7114 H   0  0  0  0  0  0
  -24.5914  -30.7037   25.7805 H   0  0  0  0  0  0
  -24.8938  -32.2814   26.5021 H   0  0  0  0  0  0
  -25.8116  -30.8796   27.0206 H   0  0  0  0  0  0
  -26.2761  -29.6871   24.1145 H   0  0  0  0  0  0
  -27.4127  -29.7317   25.4440 H   0  0  0  0  0  0
  -27.8573  -30.4430   23.9087 H   0  0  0  0  0  0
  -27.2656  -33.3637   26.2102 H   0  0  0  0  0  0
  -28.3813  -32.6956   25.0271 H   0  0  0  0  0  0
  -28.0768  -31.8466   26.5342 H   0  0  0  0  0  0
  -28.2606  -38.0127   24.7601 H   0  0  0  0  0  0
  -28.1135  -36.2673   24.6211 H   0  0  0  0  0  0
  -27.2340  -37.1348   25.8864 H   0  0  0  0  0  0
  -20.9303  -29.8801   21.7003 H   0  0  0  0  0  0
  -26.0234  -38.2897   24.1441 H   0  0  0  0  0  0
  -28.2621  -20.0271   23.1652 H   0  0  0  0  0  0
  -32.2440  -20.5560   21.5625 H   0  0  0  0  0  0
  -28.2959  -22.3551   23.9966 H   0  0  0  0  0  0
  -32.2751  -22.8732   22.4086 H   0  0  0  0  0  0
  -29.3737  -23.9155   25.6682 H   0  0  0  0  0  0
  -30.8222  -24.9177   25.7037 H   0  0  0  0  0  0
  -30.9701  -23.1629   25.6542 H   0  0  0  0  0  0
  -31.4812  -18.9989   24.3632 H   0  0  0  0  0  0
  -32.7446  -18.6460   23.1739 H   0  0  0  0  0  0
  -32.2891  -17.4589   24.3920 H   0  0  0  0  0  0
  -30.8228  -18.6402   20.8975 H   0  0  0  0  0  0
  -29.2622  -18.3370   21.6000 H   0  0  0  0  0  0
  -29.4154  -15.8825   21.3605 H   0  0  0  0  0  0
  -30.0320  -14.8752   22.6627 H   0  0  0  0  0  0
  -29.1117  -24.5493   21.2177 H   0  0  0  0  0  0
  -30.7076  -25.2323   21.4080 H   0  0  0  0  0  0
  -28.5078  -24.9443   23.5256 H   0  0  0  0  0  0
  -29.8309  -26.0542   23.7546 H   0  0  0  0  0  0
  -31.9606  -16.7710   21.2232 H   0  0  0  0  0  0
  -32.1322  -15.9446   22.7299 H   0  0  0  0  0  0
  -29.9922  -27.4126   21.1959 H   0  0  0  0  0  0
  -28.5593  -27.1181   22.1476 H   0  0  0  0  0  0
  -30.1303  -17.3619   23.4020 H   0  0  0  0  0  0
  1 25  1  0  0  0
  1 30  2  0  0  0
  1 80  1  0  0  0
  2  3  1  0  0  0
  2 25  1  0  0  0
  2 87  1  0  0  0
  2 88  1  0  0  0
  3  4  1  0  0  0
  3 89  1  0  0  0
  3 90  1  0  0  0
  4  5  1  0  0  0
  4 91  1  0  0  0
  4 92  1  0  0  0
  5  6  1  0  0  0
  5 26  1  0  0  0
  5 93  1  0  0  0
  6 25  1  0  0  0
  6 94  1  0  0  0
  6 95  1  0  0  0
  7  8  2  0  0  0
  7 26  1  0  0  0
  7 29  1  0  0  0
  8  9  1  0  0  0
  8 22  1  0  0  0
  9 10  1  0  0  0
  9 27  2  0  0  0
 10 11  2  0  0  0
 10 15  1  0  0  0
 11 12  1  0  0  0
 11 96  1  0  0  0
 12 13  2  0  0  0
 12 97  1  0  0  0
 13 14  1  0  0  0
 13 31  1  0  0  0
 14 15  2  0  0  0
 14 98  1  0  0  0
 15 99  1  0  0  0
 16 17  2  0  0  0
 16 21  1  0  0  0
 16 31  1  0  0  0
 17 18  1  0  0  0
 17100  1  0  0  0
 18 19  2  0  0  0
 18101  1  0  0  0
 19 20  1  0  0  0
 19 24  1  0  0  0
 20 21  2  0  0  0
 20102  1  0  0  0
 21 23  1  0  0  0
 22 28  1  0  0  0
 22 32  2  0  0  0
 26 27  1  0  0  0
 28103  1  0  0  0
 28104  1  0  0  0
 29105  1  0  0  0
 29106  1  0  0  0
 33 34  1  0  0  0
 33 66  1  0  0  0
 33 70  2  0  0  0
 34 36  1  0  0  0
 34 59  1  0  0  0
 34107  1  0  0  0
 35 44  2  0  0  0
 35 45  1  0  0  0
 35 68  1  0  0  0
 36 56  1  0  0  0
 36108  1  0  0  0
 37 39  1  0  0  0
 37 47  1  0  0  0
 37 66  1  0  0  0
 37109  1  0  0  0
 38 43  2  0  0  0
 38 46  1  0  0  0
 38 47  1  0  0  0
 39 64  1  0  0  0
 39 67  2  0  0  0
 40 52  1  0  0  0
 40 53  2  0  0  0
 40 58  1  0  0  0
 41110  1  0  0  0
 41111  1  0  0  0
 41112  1  0  0  0
 41 48  1  0  0  0
 42 43  1  0  0  0
 42 66  1  0  0  0
 42113  1  0  0  0
 42114  1  0  0  0
 43 44  1  0  0  0
 44115  1  0  0  0
 45 46  2  0  0  0
 45116  1  0  0  0
 46117  1  0  0  0
 47118  1  0  0  0
 47119  1  0  0  0
 48 56  1  0  0  0
 48 65  1  0  0  0
 48120  1  0  0  0
 49 50  1  0  0  0
 49 53  1  0  0  0
 49 64  1  0  0  0
 49121  1  0  0  0
 50 51  1  0  0  0
 50122  1  0  0  0
 50123  1  0  0  0
 51 52  1  0  0  0
 51124  1  0  0  0
 51125  1  0  0  0
 52126  1  0  0  0
 52127  1  0  0  0
 53 54  1  0  0  0
 54 55  2  0  0  0
 54128  1  0  0  0
 55 57  1  0  0  0
 55129  1  0  0  0
 56 69  2  0  0  0
 57 58  2  0  0  0
 57130  1  0  0  0
 58131  1  0  0  0
 59 60  1  0  0  0
 59 61  1  0  0  0
 59 62  1  0  0  0
 60132  1  0  0  0
 60133  1  0  0  0
 60134  1  0  0  0
 61135  1  0  0  0
 61136  1  0  0  0
 61137  1  0  0  0
 62138  1  0  0  0
 62139  1  0  0  0
 62140  1  0  0  0
 63 65  1  0  0  0
 63141  1  0  0  0
 63142  1  0  0  0
 63143  1  0  0  0
 64144  1  0  0  0
 65145  1  0  0  0
 68 84  1  0  0  0
 71 73  2  0  0  0
 71 75  1  0  0  0
 71146  1  0  0  0
 72 74  1  0  0  0
 72 75  2  0  0  0
 72147  1  0  0  0
 73 76  1  0  0  0
 73148  1  0  0  0
 74 76  2  0  0  0
 74149  1  0  0  0
 75 79  1  0  0  0
 76 85  1  0  0  0
 77 85  1  0  0  0
 77150  1  0  0  0
 77151  1  0  0  0
 77152  1  0  0  0
 78153  1  0  0  0
 78154  1  0  0  0
 78155  1  0  0  0
 78 86  1  0  0  0
 79 86  1  0  0  0
 79156  1  0  0  0
 79157  1  0  0  0
 80 83  1  0  0  0
 80158  1  0  0  0
 80159  1  0  0  0
 81 82  1  0  0  0
 81 84  1  0  0  0
 81160  1  0  0  0
 81161  1  0  0  0
 82 85  1  0  0  0
 82162  1  0  0  0
 82163  1  0  0  0
 83 86  1  0  0  0
 83164  1  0  0  0
 83165  1  0  0  0
 84166  1  0  0  0
 84167  1  0  0  0
 86168  1  0  0  0
M  CHG  1  86   1
M  ISO  4   1 100  68 101  80 100  84 101
M  END
> <chiral flag>
0

> <version>
0

> <s_m_source_file>
/data/baiqing/PycharmProjects/Reinvent-master-3.2/result/LINK_invent/BTK/process_docking_weight1_custom_product_contain_oxygen_bond_distance_aromatic_linkinvent_7_9_3/rearranged_h_0016.sdf

> <i_m_source_file_index>
51

> <r_mmod_Potential_Energy-OPLS-2005>
-188.028366088867

> <r_mmod_Stretch_Energy-OPLS-2005>
36.4108009338379

> <r_mmod_Bend_Energy-OPLS-2005>
97.2848052978516

> <r_mmod_Torsional_Energy-OPLS-2005>
205.748458862305

> <r_mmod_Improper_Torsional_Energy-OPLS-2005>
6.03675651550293

> <r_mmod_Van_der_Waal_Energy-OPLS-2005>
165.537017822266

> <r_mmod_Electrostatic_Energy-OPLS-2005>
-253.205535888672

> <r_mmod_Solvation_Energy-OPLS-2005>
-453.465698242188

> <b_mmod_Minimization_Converged-OPLS-2005>
0

> <r_mmod_RMS_Derivative-OPLS-2005>
2.25956058502197

$$$$
51
                    3D
 Structure written by MMmdl.
158166  0  0  1  0            999 V2000
  -30.6507  -14.6011   20.5177 C   0  0  0  0  0  0
  -30.4209  -12.3651   19.4583 C   0  0  0  0  0  0
  -29.5006  -12.5064   18.2278 C   0  0  0  0  0  0
  -28.0273  -12.3305   18.6462 C   0  0  0  0  0  0
  -27.6499  -13.2128   19.8658 C   0  0  2  0  0  0
  -28.6893  -13.0671   20.9971 C   0  0  0  0  0  0
  -25.2517  -13.8160   20.5624 C   0  0  0  0  0  0
  -24.1796  -13.0415   20.9180 C   0  0  0  0  0  0
  -24.6382  -11.6885   20.8781 C   0  0  0  0  0  0
  -23.9040  -10.4274   21.0450 C   0  0  0  0  0  0
  -24.3597   -9.4181   21.9215 C   0  0  0  0  0  0
  -23.6278   -8.2206   22.0759 C   0  0  0  0  0  0
  -22.4274   -8.0257   21.3522 C   0  0  0  0  0  0
  -21.9892   -9.0230   20.4624 C   0  0  0  0  0  0
  -22.7215  -10.2126   20.3063 C   0  0  0  0  0  0
  -21.6853   -6.0719   22.5270 C   0  0  0  0  0  0
  -21.4013   -6.5627   23.8206 C   0  0  0  0  0  0
  -21.3662   -5.6788   24.9169 C   0  0  0  0  0  0
  -21.6052   -4.3052   24.7233 C   0  0  0  0  0  0
  -21.8817   -3.8130   23.4354 C   0  0  0  0  0  0
  -21.9186   -4.6938   22.3406 C   0  0  0  0  0  0
  -22.7810  -13.5198   21.1830 C   0  0  0  0  0  0
  -22.1653   -4.2113   21.0988 F   0  0  0  0  0  0
  -21.5645   -3.4546   25.7753 F   0  0  0  0  0  0
  -30.0055  -13.3956   20.4327 N   0  0  0  0  0  0
  -26.2952  -12.9318   20.3308 N   0  0  0  0  0  0
  -25.9311  -11.6481   20.5794 N   0  0  0  0  0  0
  -22.0476  -12.8187   22.0416 N   0  0  0  0  0  0
  -25.4210  -15.1865   20.3903 N   0  0  0  0  0  0
  -31.8133  -14.7336   20.1314 O   0  0  0  0  0  0
  -21.6627   -6.8855   21.4233 O   0  0  0  0  0  0
  -22.3472  -14.5480   20.6664 O   0  0  0  0  0  0
  -24.6323  -31.8593   23.1977 C   0  0  0  0  0  0
  -25.9175  -32.4752   23.8284 C   0  0  1  0  0  0
  -27.2079  -27.2846   20.1041 C   0  0  0  0  0  0
  -25.5982  -33.8550   24.2222 N   0  0  0  0  0  0
  -23.4225  -30.4846   21.5445 C   0  0  2  0  0  0
  -24.8627  -28.9374   20.1037 C   0  0  0  0  0  0
  -22.7481  -29.4643   22.4933 C   0  0  0  0  0  0
  -18.0307  -28.1319   22.8449 C   0  0  0  0  0  0
  -24.1513  -36.7277   23.2634 C   0  0  0  0  0  0
  -25.9685  -30.7723   21.3782 C   0  0  0  0  0  0
  -26.0344  -29.4009   20.7147 C   0  0  0  0  0  0
  -27.2076  -28.5841   20.7069 C   0  0  0  0  0  0
  -26.0003  -26.8730   19.4944 C   0  0  0  0  0  0
  -24.8503  -27.6812   19.4860 C   0  0  0  0  0  0
  -23.6343  -29.8245   20.1579 C   0  0  0  0  0  0
  -25.4143  -36.3051   24.0304 C   0  0  1  0  0  0
  -20.5897  -28.3682   23.1291 C   0  0  2  0  0  0
  -20.6888  -26.9462   22.5257 C   0  0  0  0  0  0
  -19.5830  -26.6366   21.5133 C   0  0  0  0  0  0
  -18.1970  -26.7888   22.1524 C   0  0  0  0  0  0
  -19.1548  -28.8800   23.2879 C   0  0  0  0  0  0
  -18.9458  -30.1423   23.8872 C   0  0  0  0  0  0
  -17.6460  -30.6558   24.0496 C   0  0  0  0  0  0
  -25.9091  -34.9432   23.5055 C   0  0  0  0  0  0
  -16.5368  -29.9042   23.6259 C   0  0  0  0  0  0
  -16.7288  -28.6438   23.0305 C   0  0  0  0  0  0
  -26.4536  -31.6569   25.0667 C   0  0  0  0  0  0
  -25.3722  -31.3745   26.1348 C   0  0  0  0  0  0
  -27.0394  -30.2974   24.6189 C   0  0  0  0  0  0
  -27.6075  -32.4306   25.7456 C   0  0  0  0  0  0
  -27.5579  -37.1803   24.8463 C   0  0  0  0  0  0
  -21.4182  -29.3153   22.3784 N   0  0  0  0  0  0
  -26.4310  -37.3753   23.9386 N   0  0  0  0  0  0
  -24.6924  -31.0580   22.0942 N   0  0  0  0  0  0
  -23.4226  -28.8103   23.2936 O   0  0  0  0  0  0
  -28.3188  -26.4184   20.1787 O   0  0  0  0  0  0
  -26.5647  -34.8921   22.4620 O   0  0  0  0  0  0
  -23.5489  -32.1412   23.7320 O   0  0  0  0  0  0
  -28.0317  -23.1097   20.9457 C   0  0  0  0  0  0
  -28.3051  -21.7502   21.3196 C   0  0  0  0  0  0
  -29.6239  -22.9108   19.1692 C   0  0  0  0  0  0
  -28.7169  -23.7484   19.8754 C   0  0  0  0  0  0
  -29.2674  -20.9361   20.6478 C   0  0  0  0  0  0
  -29.8949  -21.5593   19.5353 C   0  0  0  0  0  0
  -28.8059  -18.2567   19.2518 C   0  0  0  0  0  0
  -30.1022  -19.7533   22.5685 C   0  0  0  0  0  0
  -28.4328  -25.2084   19.3230 C   0  0  0  0  0  0
  -30.3681  -17.1255   20.9254 C   0  0  0  0  0  0
  -29.2841  -18.2842   20.7086 C   0  0  2  0  0  0
  -29.9083  -15.6927   20.8744 N   0  0  0  0  0  0
  -29.7171  -19.6544   21.1578 N   0  0  0  0  0  0
  -30.8092  -20.8723   18.8132 F   0  0  0  0  0  0
  -31.4685  -12.4552   19.1671 H   0  0  0  0  0  0
  -30.3119  -11.3696   19.8935 H   0  0  0  0  0  0
  -29.7651  -11.7804   17.4563 H   0  0  0  0  0  0
  -29.6314  -13.4928   17.7826 H   0  0  0  0  0  0
  -27.8868  -11.2798   18.9016 H   0  0  0  0  0  0
  -27.3600  -12.5331   17.8086 H   0  0  0  0  0  0
  -27.6711  -14.2458   19.5205 H   0  0  0  0  0  0
  -28.6851  -12.0433   21.3786 H   0  0  0  0  0  0
  -28.4433  -13.7119   21.8423 H   0  0  0  0  0  0
  -25.2768   -9.5638   22.4757 H   0  0  0  0  0  0
  -23.9996   -7.4602   22.7490 H   0  0  0  0  0  0
  -21.0808   -8.8730   19.8932 H   0  0  0  0  0  0
  -22.3691  -10.9648   19.6141 H   0  0  0  0  0  0
  -21.1996   -7.6135   23.9698 H   0  0  0  0  0  0
  -21.1501   -6.0523   25.9080 H   0  0  0  0  0  0
  -22.0605   -2.7592   23.2865 H   0  0  0  0  0  0
  -22.4116  -11.9856   22.4790 H   0  0  0  0  0  0
  -21.1110  -13.1212   22.2695 H   0  0  0  0  0  0
  -24.6364  -15.8306   20.4215 H   0  0  0  0  0  0
  -26.2572  -15.6065   20.0068 H   0  0  0  0  0  0
  -26.7226  -32.5402   23.1006 H   0  0  0  0  0  0
  -25.0098  -33.9671   25.0339 H   0  0  0  0  0  0
  -22.7166  -31.3058   21.4057 H   0  0  0  0  0  0
  -23.3761  -35.9624   23.3325 H   0  0  0  0  0  0
  -24.3603  -36.8889   22.2047 H   0  0  0  0  0  0
  -23.7303  -37.6499   23.6654 H   0  0  0  0  0  0
  -26.1147  -31.5374   20.6149 H   0  0  0  0  0  0
  -26.8464  -30.8093   22.0130 H   0  0  0  0  0  0
  -28.1063  -28.9358   21.1947 H   0  0  0  0  0  0
  -25.8727  -25.8969   19.0572 H   0  0  0  0  0  0
  -23.9480  -27.3097   19.0196 H   0  0  0  0  0  0
  -23.7507  -30.5999   19.3993 H   0  0  0  0  0  0
  -22.7529  -29.2531   19.8624 H   0  0  0  0  0  0
  -25.1346  -36.1870   25.0795 H   0  0  0  0  0  0
  -20.9954  -28.3169   24.1411 H   0  0  0  0  0  0
  -21.6708  -26.7671   22.0874 H   0  0  0  0  0  0
  -20.6086  -26.2242   23.3409 H   0  0  0  0  0  0
  -19.7045  -25.6262   21.1168 H   0  0  0  0  0  0
  -19.6775  -27.3136   20.6625 H   0  0  0  0  0  0
  -17.4331  -26.6845   21.3811 H   0  0  0  0  0  0
  -18.0294  -25.9931   22.8817 H   0  0  0  0  0  0
  -19.7915  -30.7260   24.2242 H   0  0  0  0  0  0
  -17.4987  -31.6265   24.5064 H   0  0  0  0  0  0
  -15.5377  -30.2935   23.7572 H   0  0  0  0  0  0
  -15.8690  -28.0765   22.6998 H   0  0  0  0  0  0
  -24.5860  -30.7168   25.7624 H   0  0  0  0  0  0
  -24.8954  -32.2941   26.4749 H   0  0  0  0  0  0
  -25.7968  -30.8870   27.0131 H   0  0  0  0  0  0
  -26.2990  -29.6676   24.1239 H   0  0  0  0  0  0
  -27.4100  -29.7282   25.4734 H   0  0  0  0  0  0
  -27.8857  -30.4237   23.9425 H   0  0  0  0  0  0
  -27.2663  -33.3586   26.2061 H   0  0  0  0  0  0
  -28.3876  -32.6918   25.0283 H   0  0  0  0  0  0
  -28.0761  -31.8413   26.5356 H   0  0  0  0  0  0
  -28.2611  -38.0083   24.7486 H   0  0  0  0  0  0
  -28.1066  -36.2617   24.6335 H   0  0  0  0  0  0
  -27.2288  -37.1500   25.8864 H   0  0  0  0  0  0
  -20.9347  -29.9047   21.7145 H   0  0  0  0  0  0
  -26.0181  -38.2826   24.1362 H   0  0  0  0  0  0
  -27.2876  -23.6682   21.4952 H   0  0  0  0  0  0
  -27.7688  -21.3318   22.1609 H   0  0  0  0  0  0
  -30.1445  -23.3038   18.3059 H   0  0  0  0  0  0
  -27.9665  -18.9308   19.0865 H   0  0  0  0  0  0
  -28.4632  -17.2588   18.9761 H   0  0  0  0  0  0
  -29.6114  -18.5409   18.5704 H   0  0  0  0  0  0
  -30.2287  -20.7854   22.8947 H   0  0  0  0  0  0
  -31.0565  -19.2555   22.7554 H   0  0  0  0  0  0
  -29.3447  -19.3047   23.2126 H   0  0  0  0  0  0
  -27.6497  -25.1089   18.5806 H   0  0  0  0  0  0
  -29.2996  -25.4403   18.7060 H   0  0  0  0  0  0
  -31.1739  -17.2743   20.2040 H   0  0  0  0  0  0
  -30.8410  -17.2189   21.9024 H   0  0  0  0  0  0
  -28.4256  -18.0372   21.3383 H   0  0  0  0  0  0
  -28.9658  -15.5111   21.1811 H   0  0  0  0  0  0
  1 25  1  0  0  0
  1 30  2  0  0  0
  1 82  1  0  0  0
  2  3  1  0  0  0
  2 25  1  0  0  0
  2 85  1  0  0  0
  2 86  1  0  0  0
  3  4  1  0  0  0
  3 87  1  0  0  0
  3 88  1  0  0  0
  4  5  1  0  0  0
  4 89  1  0  0  0
  4 90  1  0  0  0
  5  6  1  0  0  0
  5 26  1  0  0  0
  5 91  1  0  0  0
  6 25  1  0  0  0
  6 92  1  0  0  0
  6 93  1  0  0  0
  7  8  2  0  0  0
  7 26  1  0  0  0
  7 29  1  0  0  0
  8  9  1  0  0  0
  8 22  1  0  0  0
  9 10  1  0  0  0
  9 27  2  0  0  0
 10 11  2  0  0  0
 10 15  1  0  0  0
 11 12  1  0  0  0
 11 94  1  0  0  0
 12 13  2  0  0  0
 12 95  1  0  0  0
 13 14  1  0  0  0
 13 31  1  0  0  0
 14 15  2  0  0  0
 14 96  1  0  0  0
 15 97  1  0  0  0
 16 17  2  0  0  0
 16 21  1  0  0  0
 16 31  1  0  0  0
 17 18  1  0  0  0
 17 98  1  0  0  0
 18 19  2  0  0  0
 18 99  1  0  0  0
 19 20  1  0  0  0
 19 24  1  0  0  0
 20 21  2  0  0  0
 20100  1  0  0  0
 21 23  1  0  0  0
 22 28  1  0  0  0
 22 32  2  0  0  0
 26 27  1  0  0  0
 28101  1  0  0  0
 28102  1  0  0  0
 29103  1  0  0  0
 29104  1  0  0  0
 33 34  1  0  0  0
 33 66  1  0  0  0
 33 70  2  0  0  0
 34 36  1  0  0  0
 34 59  1  0  0  0
 34105  1  0  0  0
 35 44  2  0  0  0
 35 45  1  0  0  0
 35 68  1  0  0  0
 36 56  1  0  0  0
 36106  1  0  0  0
 37 39  1  0  0  0
 37 47  1  0  0  0
 37 66  1  0  0  0
 37107  1  0  0  0
 38 43  2  0  0  0
 38 46  1  0  0  0
 38 47  1  0  0  0
 39 64  1  0  0  0
 39 67  2  0  0  0
 40 52  1  0  0  0
 40 53  2  0  0  0
 40 58  1  0  0  0
 41108  1  0  0  0
 41109  1  0  0  0
 41110  1  0  0  0
 41 48  1  0  0  0
 42 43  1  0  0  0
 42 66  1  0  0  0
 42111  1  0  0  0
 42112  1  0  0  0
 43 44  1  0  0  0
 44113  1  0  0  0
 45 46  2  0  0  0
 45114  1  0  0  0
 46115  1  0  0  0
 47116  1  0  0  0
 47117  1  0  0  0
 48 56  1  0  0  0
 48 65  1  0  0  0
 48118  1  0  0  0
 49 50  1  0  0  0
 49 53  1  0  0  0
 49 64  1  0  0  0
 49119  1  0  0  0
 50 51  1  0  0  0
 50120  1  0  0  0
 50121  1  0  0  0
 51 52  1  0  0  0
 51122  1  0  0  0
 51123  1  0  0  0
 52124  1  0  0  0
 52125  1  0  0  0
 53 54  1  0  0  0
 54 55  2  0  0  0
 54126  1  0  0  0
 55 57  1  0  0  0
 55127  1  0  0  0
 56 69  2  0  0  0
 57 58  2  0  0  0
 57128  1  0  0  0
 58129  1  0  0  0
 59 60  1  0  0  0
 59 61  1  0  0  0
 59 62  1  0  0  0
 60130  1  0  0  0
 60131  1  0  0  0
 60132  1  0  0  0
 61133  1  0  0  0
 61134  1  0  0  0
 61135  1  0  0  0
 62136  1  0  0  0
 62137  1  0  0  0
 62138  1  0  0  0
 63 65  1  0  0  0
 63139  1  0  0  0
 63140  1  0  0  0
 63141  1  0  0  0
 64142  1  0  0  0
 65143  1  0  0  0
 68 79  1  0  0  0
 71 72  2  0  0  0
 71 74  1  0  0  0
 71144  1  0  0  0
 72 75  1  0  0  0
 72145  1  0  0  0
 73 74  2  0  0  0
 73 76  1  0  0  0
 73146  1  0  0  0
 74 79  1  0  0  0
 75 76  2  0  0  0
 75 83  1  0  0  0
 76 84  1  0  0  0
 77147  1  0  0  0
 77148  1  0  0  0
 77149  1  0  0  0
 77 81  1  0  0  0
 78 83  1  0  0  0
 78150  1  0  0  0
 78151  1  0  0  0
 78152  1  0  0  0
 79153  1  0  0  0
 79154  1  0  0  0
 80 81  1  0  0  0
 80 82  1  0  0  0
 80155  1  0  0  0
 80156  1  0  0  0
 81 83  1  0  0  0
 81157  1  0  0  0
 82158  1  0  0  0
M  ISO  4   1 100  68 101  79 101  82 100
M  END
> <chiral flag>
0

> <version>
0

> <s_m_source_file>
/data/baiqing/PycharmProjects/Reinvent-master-3.2/result/LINK_invent/BTK/process_docking_weight1_custom_product_contain_oxygen_bond_distance_aromatic_linkinvent_7_9_3/rearranged_h_0016.sdf

> <i_m_source_file_index>
52

> <r_mmod_Potential_Energy-OPLS-2005>
79.9201202392578

> <r_mmod_Stretch_Energy-OPLS-2005>
88.2399368286133

> <r_mmod_Bend_Energy-OPLS-2005>
165.072967529297

> <r_mmod_Torsional_Energy-OPLS-2005>
237.89599609375

> <r_mmod_Improper_Torsional_Energy-OPLS-2005>
8.06941413879395

> <r_mmod_Van_der_Waal_Energy-OPLS-2005>
147.93327331543

> <r_mmod_Electrostatic_Energy-OPLS-2005>
-404.129974365234

> <r_mmod_Solvation_Energy-OPLS-2005>
-214.978454589844

> <b_mmod_Minimization_Converged-OPLS-2005>
0

> <r_mmod_RMS_Derivative-OPLS-2005>
4.76217794418335

$$$$
52
                    3D
 Structure written by MMmdl.
157165  0  0  1  0            999 V2000
  -30.6754  -14.6343   20.6132 C   0  0  0  0  0  0
  -30.4403  -12.4256   19.4516 C   0  0  0  0  0  0
  -29.5135  -12.5627   18.2239 C   0  0  0  0  0  0
  -28.0299  -12.4011   18.6172 C   0  0  0  0  0  0
  -27.6569  -13.2360   19.8693 C   0  0  2  0  0  0
  -28.7015  -13.0425   20.9863 C   0  0  0  0  0  0
  -25.2539  -13.8212   20.5688 C   0  0  0  0  0  0
  -24.1834  -13.0433   20.9193 C   0  0  0  0  0  0
  -24.6451  -11.6924   20.8738 C   0  0  0  0  0  0
  -23.9116  -10.4300   21.0413 C   0  0  0  0  0  0
  -24.3661   -9.4205   21.9193 C   0  0  0  0  0  0
  -23.6325   -8.2241   22.0757 C   0  0  0  0  0  0
  -22.4301   -8.0291   21.3550 C   0  0  0  0  0  0
  -21.9938   -9.0273   20.4653 C   0  0  0  0  0  0
  -22.7274  -10.2154   20.3064 C   0  0  0  0  0  0
  -21.6848   -6.0765   22.5287 C   0  0  0  0  0  0
  -21.4026   -6.5669   23.8229 C   0  0  0  0  0  0
  -21.3655   -5.6807   24.9182 C   0  0  0  0  0  0
  -21.6035   -4.3065   24.7210 C   0  0  0  0  0  0
  -21.8818   -3.8168   23.4327 C   0  0  0  0  0  0
  -21.9195   -4.6999   22.3398 C   0  0  0  0  0  0
  -22.7845  -13.5213   21.1844 C   0  0  0  0  0  0
  -22.1651   -4.2206   21.0972 F   0  0  0  0  0  0
  -21.5619   -3.4534   25.7710 F   0  0  0  0  0  0
  -30.0171  -13.4300   20.4536 N   0  0  0  0  0  0
  -26.3024  -12.9440   20.3344 N   0  0  0  0  0  0
  -25.9388  -11.6568   20.5765 N   0  0  0  0  0  0
  -22.0476  -12.8224   22.0426 N   0  0  0  0  0  0
  -25.4125  -15.1932   20.4107 N   0  0  0  0  0  0
  -31.7780  -14.8064   20.0808 O   0  0  0  0  0  0
  -21.6633   -6.8907   21.4251 O   0  0  0  0  0  0
  -22.3504  -14.5477   20.6653 O   0  0  0  0  0  0
  -24.6296  -31.8575   23.1997 C   0  0  0  0  0  0
  -25.9138  -32.4760   23.8345 C   0  0  1  0  0  0
  -27.2195  -27.2999   20.1443 C   0  0  0  0  0  0
  -25.5939  -33.8555   24.2275 N   0  0  0  0  0  0
  -23.4241  -30.4836   21.5374 C   0  0  2  0  0  0
  -24.8735  -28.9365   20.1031 C   0  0  0  0  0  0
  -22.7488  -29.4628   22.4859 C   0  0  0  0  0  0
  -18.0293  -28.1409   22.8469 C   0  0  0  0  0  0
  -24.1479  -36.7293   23.2647 C   0  0  0  0  0  0
  -25.9634  -30.7867   21.3710 C   0  0  0  0  0  0
  -26.0382  -29.4096   20.7205 C   0  0  0  0  0  0
  -27.2161  -28.6038   20.7324 C   0  0  0  0  0  0
  -26.0407  -26.8853   19.4894 C   0  0  0  0  0  0
  -24.8795  -27.6828   19.4705 C   0  0  0  0  0  0
  -23.6436  -29.8218   20.1500 C   0  0  0  0  0  0
  -25.4097  -36.3067   24.0339 C   0  0  1  0  0  0
  -20.5894  -28.3710   23.1253 C   0  0  2  0  0  0
  -20.6777  -26.9418   22.5408 C   0  0  0  0  0  0
  -19.5757  -26.6387   21.5207 C   0  0  0  0  0  0
  -18.1937  -26.7951   22.1617 C   0  0  0  0  0  0
  -19.1546  -28.8870   23.2870 C   0  0  0  0  0  0
  -18.9473  -30.1467   23.8894 C   0  0  0  0  0  0
  -17.6475  -30.6597   24.0570 C   0  0  0  0  0  0
  -25.9039  -34.9440   23.5099 C   0  0  0  0  0  0
  -16.5363  -29.9103   23.6331 C   0  0  0  0  0  0
  -16.7281  -28.6535   23.0318 C   0  0  0  0  0  0
  -26.4535  -31.6568   25.0707 C   0  0  0  0  0  0
  -25.3789  -31.3672   26.1442 C   0  0  0  0  0  0
  -27.0404  -30.3008   24.6153 C   0  0  0  0  0  0
  -27.6100  -32.4301   25.7466 C   0  0  0  0  0  0
  -27.5579  -37.1778   24.8460 C   0  0  0  0  0  0
  -21.4191  -29.3067   22.3632 N   0  0  0  0  0  0
  -26.4264  -37.3774   23.9442 N   0  0  0  0  0  0
  -24.6908  -31.0602   22.0935 N   0  0  0  0  0  0
  -23.4208  -28.8144   23.2925 O   0  0  0  0  0  0
  -28.3223  -26.4328   20.1797 O   0  0  0  0  0  0
  -26.5599  -34.8918   22.4658 O   0  0  0  0  0  0
  -23.5461  -32.1365   23.7326 O   0  0  0  0  0  0
  -29.8717  -18.1329   21.9316 C   0  0  0  0  0  0
  -29.6519  -19.5031   21.5944 C   0  0  0  0  0  0
  -29.7796  -18.9072   19.2860 C   0  0  0  0  0  0
  -29.9799  -17.0722   20.9735 C   0  0  0  0  0  0
  -29.6097  -19.9415   20.2517 C   0  0  0  0  0  0
  -29.9262  -17.5222   19.6193 C   0  0  0  0  0  0
  -28.7936  -15.6085   23.6022 C   0  0  0  0  0  0
  -28.9366  -23.8326   20.0019 C   0  0  0  0  0  0
  -30.1219  -15.3497   22.8431 C   0  0  0  0  0  0
  -28.1039  -25.0344   20.6527 C   0  0  0  0  0  0
  -28.8364  -22.3522   20.6208 C   0  0  0  0  0  0
  -30.1057  -15.6394   21.3845 N   0  0  0  0  0  0
  -29.4804  -21.2884   19.8296 O   0  0  0  0  0  0
  -30.0048  -16.6270   18.6038 F   0  0  0  0  0  0
  -31.4815  -12.5523   19.1502 H   0  0  0  0  0  0
  -30.3774  -11.4190   19.8697 H   0  0  0  0  0  0
  -29.7912  -11.8394   17.4586 H   0  0  0  0  0  0
  -29.6569  -13.5455   17.7721 H   0  0  0  0  0  0
  -27.8416  -11.3434   18.8055 H   0  0  0  0  0  0
  -27.3901  -12.6808   17.7803 H   0  0  0  0  0  0
  -27.6849  -14.2878   19.5778 H   0  0  0  0  0  0
  -28.7193  -11.9998   21.3076 H   0  0  0  0  0  0
  -28.4204  -13.6012   21.8686 H   0  0  0  0  0  0
  -25.2825   -9.5670   22.4751 H   0  0  0  0  0  0
  -24.0048   -7.4637   22.7467 H   0  0  0  0  0  0
  -21.0857   -8.8786   19.8963 H   0  0  0  0  0  0
  -22.3735  -10.9694   19.6161 H   0  0  0  0  0  0
  -21.2036   -7.6178   23.9754 H   0  0  0  0  0  0
  -21.1469   -6.0531   25.9098 H   0  0  0  0  0  0
  -22.0609   -2.7630   23.2798 H   0  0  0  0  0  0
  -22.4092  -11.9934   22.4911 H   0  0  0  0  0  0
  -21.1098  -13.1264   22.2594 H   0  0  0  0  0  0
  -24.6350  -15.8349   20.5273 H   0  0  0  0  0  0
  -26.2673  -15.6486   20.1162 H   0  0  0  0  0  0
  -26.7195  -32.5440   23.1091 H   0  0  0  0  0  0
  -25.0105  -33.9683   25.0434 H   0  0  0  0  0  0
  -22.7208  -31.3058   21.3922 H   0  0  0  0  0  0
  -23.3738  -35.9623   23.3257 H   0  0  0  0  0  0
  -24.3604  -36.8962   22.2075 H   0  0  0  0  0  0
  -23.7206  -37.6472   23.6693 H   0  0  0  0  0  0
  -26.0891  -31.5445   20.5971 H   0  0  0  0  0  0
  -26.8475  -30.8453   21.9934 H   0  0  0  0  0  0
  -28.1054  -28.9602   21.2329 H   0  0  0  0  0  0
  -26.0103  -25.9262   18.9910 H   0  0  0  0  0  0
  -23.9950  -27.3245   18.9628 H   0  0  0  0  0  0
  -23.7706  -30.6024   19.3988 H   0  0  0  0  0  0
  -22.7641  -29.2571   19.8372 H   0  0  0  0  0  0
  -25.1263  -36.1910   25.0826 H   0  0  0  0  0  0
  -21.0001  -28.3300   24.1368 H   0  0  0  0  0  0
  -20.5652  -26.2323   23.3621 H   0  0  0  0  0  0
  -21.6647  -26.7428   22.1214 H   0  0  0  0  0  0
  -19.6908  -25.6288   21.1255 H   0  0  0  0  0  0
  -19.6710  -27.3176   20.6718 H   0  0  0  0  0  0
  -17.4202  -26.6673   21.4029 H   0  0  0  0  0  0
  -18.0355  -26.0115   22.9036 H   0  0  0  0  0  0
  -19.7943  -30.7282   24.2269 H   0  0  0  0  0  0
  -17.5025  -31.6276   24.5172 H   0  0  0  0  0  0
  -15.5359  -30.3002   23.7663 H   0  0  0  0  0  0
  -15.8683  -28.0871   22.6991 H   0  0  0  0  0  0
  -24.5949  -30.7048   25.7757 H   0  0  0  0  0  0
  -24.9012  -32.2819   26.4955 H   0  0  0  0  0  0
  -25.8155  -30.8782   27.0158 H   0  0  0  0  0  0
  -26.2976  -29.6696   24.1262 H   0  0  0  0  0  0
  -27.4208  -29.7339   25.4661 H   0  0  0  0  0  0
  -27.8794  -30.4316   23.9314 H   0  0  0  0  0  0
  -27.2726  -33.3593   26.2066 H   0  0  0  0  0  0
  -28.3902  -32.6863   25.0282 H   0  0  0  0  0  0
  -28.0778  -31.8402   26.5356 H   0  0  0  0  0  0
  -28.2545  -38.0128   24.7569 H   0  0  0  0  0  0
  -28.1120  -36.2657   24.6176 H   0  0  0  0  0  0
  -27.2334  -37.1305   25.8873 H   0  0  0  0  0  0
  -20.9354  -29.8846   21.6899 H   0  0  0  0  0  0
  -26.0136  -38.2835   24.1493 H   0  0  0  0  0  0
  -29.9656  -17.9336   22.9851 H   0  0  0  0  0  0
  -29.5571  -20.2202   22.3961 H   0  0  0  0  0  0
  -29.7795  -19.1762   18.2393 H   0  0  0  0  0  0
  -28.8391  -15.1431   24.5874 H   0  0  0  0  0  0
  -27.9183  -15.2055   23.0982 H   0  0  0  0  0  0
  -28.5724  -16.6568   23.7875 H   0  0  0  0  0  0
  -29.9877  -24.1217   19.9967 H   0  0  0  0  0  0
  -28.6453  -23.7680   18.9532 H   0  0  0  0  0  0
  -30.3926  -14.3077   23.0288 H   0  0  0  0  0  0
  -30.9335  -15.9137   23.3051 H   0  0  0  0  0  0
  -28.3170  -25.0383   21.7234 H   0  0  0  0  0  0
  -27.0495  -24.7643   20.5926 H   0  0  0  0  0  0
  -27.7833  -22.0827   20.7027 H   0  0  0  0  0  0
  -29.2304  -22.3614   21.6377 H   0  0  0  0  0  0
  1 25  1  0  0  0
  1 30  2  0  0  0
  1 82  1  0  0  0
  2  3  1  0  0  0
  2 25  1  0  0  0
  2 85  1  0  0  0
  2 86  1  0  0  0
  3  4  1  0  0  0
  3 87  1  0  0  0
  3 88  1  0  0  0
  4  5  1  0  0  0
  4 89  1  0  0  0
  4 90  1  0  0  0
  5  6  1  0  0  0
  5 26  1  0  0  0
  5 91  1  0  0  0
  6 25  1  0  0  0
  6 92  1  0  0  0
  6 93  1  0  0  0
  7  8  2  0  0  0
  7 26  1  0  0  0
  7 29  1  0  0  0
  8  9  1  0  0  0
  8 22  1  0  0  0
  9 10  1  0  0  0
  9 27  2  0  0  0
 10 11  2  0  0  0
 10 15  1  0  0  0
 11 12  1  0  0  0
 11 94  1  0  0  0
 12 13  2  0  0  0
 12 95  1  0  0  0
 13 14  1  0  0  0
 13 31  1  0  0  0
 14 15  2  0  0  0
 14 96  1  0  0  0
 15 97  1  0  0  0
 16 17  2  0  0  0
 16 21  1  0  0  0
 16 31  1  0  0  0
 17 18  1  0  0  0
 17 98  1  0  0  0
 18 19  2  0  0  0
 18 99  1  0  0  0
 19 20  1  0  0  0
 19 24  1  0  0  0
 20 21  2  0  0  0
 20100  1  0  0  0
 21 23  1  0  0  0
 22 28  1  0  0  0
 22 32  2  0  0  0
 26 27  1  0  0  0
 28101  1  0  0  0
 28102  1  0  0  0
 29103  1  0  0  0
 29104  1  0  0  0
 33 34  1  0  0  0
 33 66  1  0  0  0
 33 70  2  0  0  0
 34 36  1  0  0  0
 34 59  1  0  0  0
 34105  1  0  0  0
 35 44  2  0  0  0
 35 45  1  0  0  0
 35 68  1  0  0  0
 36 56  1  0  0  0
 36106  1  0  0  0
 37 39  1  0  0  0
 37 47  1  0  0  0
 37 66  1  0  0  0
 37107  1  0  0  0
 38 43  2  0  0  0
 38 46  1  0  0  0
 38 47  1  0  0  0
 39 64  1  0  0  0
 39 67  2  0  0  0
 40 52  1  0  0  0
 40 53  2  0  0  0
 40 58  1  0  0  0
 41108  1  0  0  0
 41109  1  0  0  0
 41110  1  0  0  0
 41 48  1  0  0  0
 42 43  1  0  0  0
 42 66  1  0  0  0
 42111  1  0  0  0
 42112  1  0  0  0
 43 44  1  0  0  0
 44113  1  0  0  0
 45 46  2  0  0  0
 45114  1  0  0  0
 46115  1  0  0  0
 47116  1  0  0  0
 47117  1  0  0  0
 48 56  1  0  0  0
 48 65  1  0  0  0
 48118  1  0  0  0
 49 50  1  0  0  0
 49 53  1  0  0  0
 49 64  1  0  0  0
 49119  1  0  0  0
 50 51  1  0  0  0
 50120  1  0  0  0
 50121  1  0  0  0
 51 52  1  0  0  0
 51122  1  0  0  0
 51123  1  0  0  0
 52124  1  0  0  0
 52125  1  0  0  0
 53 54  1  0  0  0
 54 55  2  0  0  0
 54126  1  0  0  0
 55 57  1  0  0  0
 55127  1  0  0  0
 56 69  2  0  0  0
 57 58  2  0  0  0
 57128  1  0  0  0
 58129  1  0  0  0
 59 60  1  0  0  0
 59 61  1  0  0  0
 59 62  1  0  0  0
 60130  1  0  0  0
 60131  1  0  0  0
 60132  1  0  0  0
 61133  1  0  0  0
 61134  1  0  0  0
 61135  1  0  0  0
 62136  1  0  0  0
 62137  1  0  0  0
 62138  1  0  0  0
 63 65  1  0  0  0
 63139  1  0  0  0
 63140  1  0  0  0
 63141  1  0  0  0
 64142  1  0  0  0
 65143  1  0  0  0
 68 80  1  0  0  0
 71 72  2  0  0  0
 71 74  1  0  0  0
 71144  1  0  0  0
 72 75  1  0  0  0
 72145  1  0  0  0
 73 75  2  0  0  0
 73 76  1  0  0  0
 73146  1  0  0  0
 74 76  2  0  0  0
 74 82  1  0  0  0
 75 83  1  0  0  0
 76 84  1  0  0  0
 77 79  1  0  0  0
 77147  1  0  0  0
 77148  1  0  0  0
 77149  1  0  0  0
 78 80  1  0  0  0
 78 81  1  0  0  0
 78150  1  0  0  0
 78151  1  0  0  0
 79 82  1  0  0  0
 79152  1  0  0  0
 79153  1  0  0  0
 80154  1  0  0  0
 80155  1  0  0  0
 81 83  1  0  0  0
 81156  1  0  0  0
 81157  1  0  0  0
M  ISO  4   1 100  68 101  80 101  82 100
M  END
> <chiral flag>
0

> <version>
0

> <s_m_source_file>
/data/baiqing/PycharmProjects/Reinvent-master-3.2/result/LINK_invent/BTK/process_docking_weight1_custom_product_contain_oxygen_bond_distance_aromatic_linkinvent_7_9_3/rearranged_h_0016.sdf

> <i_m_source_file_index>
53

> <r_mmod_Potential_Energy-OPLS-2005>
257.429046630859

> <r_mmod_Stretch_Energy-OPLS-2005>
102.890197753906

> <r_mmod_Bend_Energy-OPLS-2005>
160.616561889648

> <r_mmod_Torsional_Energy-OPLS-2005>
293.514923095703

> <r_mmod_Improper_Torsional_Energy-OPLS-2005>
3.0955286026001

> <r_mmod_Van_der_Waal_Energy-OPLS-2005>
154.493408203125

> <r_mmod_Electrostatic_Energy-OPLS-2005>
-315.515960693359

> <r_mmod_Solvation_Energy-OPLS-2005>
-191.920852661133

> <b_mmod_Minimization_Converged-OPLS-2005>
0

> <r_mmod_RMS_Derivative-OPLS-2005>
3.76268100738525

$$$$
53
                    3D
 Structure written by MMmdl.
167176  0  0  1  0            999 V2000
  -30.6064  -14.6554   20.5150 C   0  0  0  0  0  0
  -30.4428  -12.4061   19.4495 C   0  0  0  0  0  0
  -29.5096  -12.4957   18.2202 C   0  0  0  0  0  0
  -28.0307  -12.3357   18.6304 C   0  0  0  0  0  0
  -27.6528  -13.2042   19.8611 C   0  0  2  0  0  0
  -28.6966  -13.0211   20.9810 C   0  0  0  0  0  0
  -25.2601  -13.8134   20.5667 C   0  0  0  0  0  0
  -24.1847  -13.0438   20.9167 C   0  0  0  0  0  0
  -24.6390  -11.6895   20.8745 C   0  0  0  0  0  0
  -23.9055  -10.4289   21.0427 C   0  0  0  0  0  0
  -24.3606   -9.4203   21.9208 C   0  0  0  0  0  0
  -23.6277   -8.2239   22.0771 C   0  0  0  0  0  0
  -22.4269   -8.0278   21.3542 C   0  0  0  0  0  0
  -21.9900   -9.0260   20.4658 C   0  0  0  0  0  0
  -22.7226  -10.2140   20.3075 C   0  0  0  0  0  0
  -21.6847   -6.0732   22.5272 C   0  0  0  0  0  0
  -21.4007   -6.5643   23.8198 C   0  0  0  0  0  0
  -21.3650   -5.6802   24.9158 C   0  0  0  0  0  0
  -21.6037   -4.3062   24.7220 C   0  0  0  0  0  0
  -21.8830   -3.8152   23.4344 C   0  0  0  0  0  0
  -21.9196   -4.6963   22.3396 C   0  0  0  0  0  0
  -22.7878  -13.5246   21.1841 C   0  0  0  0  0  0
  -22.1667   -4.2153   21.0970 F   0  0  0  0  0  0
  -21.5629   -3.4546   25.7727 F   0  0  0  0  0  0
  -29.9972  -13.4238   20.4297 N   0  0  0  0  0  0
  -26.2992  -12.9274   20.3277 N   0  0  0  0  0  0
  -25.9307  -11.6452   20.5735 N   0  0  0  0  0  0
  -22.0527  -12.8239   22.0394 N   0  0  0  0  0  0
  -25.4432  -15.1848   20.4102 N   0  0  0  0  0  0
  -31.7553  -14.7997   20.0822 O   0  0  0  0  0  0
  -21.6634   -6.8878   21.4234 O   0  0  0  0  0  0
  -22.3571  -14.5565   20.6706 O   0  0  0  0  0  0
  -24.6240  -31.8614   23.2018 C   0  0  0  0  0  0
  -25.9079  -32.4793   23.8353 C   0  0  1  0  0  0
  -27.1954  -27.3138   20.1416 C   0  0  0  0  0  0
  -25.5917  -33.8597   24.2285 N   0  0  0  0  0  0
  -23.4177  -30.4852   21.5405 C   0  0  2  0  0  0
  -24.8567  -28.9375   20.1046 C   0  0  0  0  0  0
  -22.7493  -29.4622   22.4884 C   0  0  0  0  0  0
  -18.0335  -28.1381   22.8462 C   0  0  0  0  0  0
  -24.1471  -36.7280   23.2637 C   0  0  0  0  0  0
  -25.9562  -30.7891   21.3711 C   0  0  0  0  0  0
  -26.0234  -29.4146   20.7185 C   0  0  0  0  0  0
  -27.1993  -28.6141   20.7235 C   0  0  0  0  0  0
  -26.0175  -26.8834   19.4974 C   0  0  0  0  0  0
  -24.8566  -27.6793   19.4811 C   0  0  0  0  0  0
  -23.6295  -29.8244   20.1538 C   0  0  0  0  0  0
  -25.4108  -36.3104   24.0333 C   0  0  1  0  0  0
  -20.5930  -28.3698   23.1256 C   0  0  2  0  0  0
  -20.6827  -26.9417   22.5397 C   0  0  0  0  0  0
  -19.5800  -26.6363   21.5202 C   0  0  0  0  0  0
  -18.1976  -26.7907   22.1611 C   0  0  0  0  0  0
  -19.1583  -28.8844   23.2850 C   0  0  0  0  0  0
  -18.9512  -30.1433   23.8879 C   0  0  0  0  0  0
  -17.6512  -30.6568   24.0567 C   0  0  0  0  0  0
  -25.9041  -34.9466   23.5108 C   0  0  0  0  0  0
  -16.5405  -29.9091   23.6299 C   0  0  0  0  0  0
  -16.7318  -28.6513   23.0317 C   0  0  0  0  0  0
  -26.4462  -31.6619   25.0728 C   0  0  0  0  0  0
  -25.3686  -31.3769   26.1454 C   0  0  0  0  0  0
  -27.0319  -30.3064   24.6155 C   0  0  0  0  0  0
  -27.6007  -32.4380   25.7494 C   0  0  0  0  0  0
  -27.5577  -37.1784   24.8473 C   0  0  0  0  0  0
  -21.4215  -29.3049   22.3640 N   0  0  0  0  0  0
  -26.4296  -37.3782   23.9407 N   0  0  0  0  0  0
  -24.6850  -31.0640   22.0951 N   0  0  0  0  0  0
  -23.4220  -28.8153   23.2953 O   0  0  0  0  0  0
  -28.3072  -26.4770   20.1958 O   0  0  0  0  0  0
  -26.5606  -34.8924   22.4668 O   0  0  0  0  0  0
  -23.5396  -32.1439   23.7322 O   0  0  0  0  0  0
  -30.2501  -20.5414   20.9199 C   0  0  0  0  0  0
  -28.5645  -20.6082   19.2125 C   0  0  0  0  0  0
  -30.2674  -19.1142   20.8740 C   0  0  0  0  0  0
  -28.5762  -19.1788   19.1754 C   0  0  0  0  0  0
  -29.4311  -21.3422   20.0635 C   0  0  0  0  0  0
  -29.4501  -18.3866   19.9745 C   0  0  0  0  0  0
  -30.8953  -23.3200   20.1060 C   0  0  0  0  0  0
  -29.6353  -22.8624   19.9303 C   0  0  0  0  0  0
  -31.3307  -24.7507   19.8243 C   0  0  0  0  0  0
  -30.5737  -25.4140   18.6470 C   0  0  0  0  0  0
  -29.2563  -24.7066   18.2569 C   0  0  0  0  0  0
  -28.6138  -23.9561   19.4404 C   0  0  2  0  0  0
  -30.4592  -16.0534   23.2118 C   0  0  0  0  0  0
  -29.5648  -16.8275   19.7215 C   0  0  0  0  0  0
  -28.1212  -25.0379   20.5003 C   0  0  0  0  0  0
  -29.3576  -16.1245   22.1391 C   0  0  0  0  0  0
  -29.8199  -15.7741   20.7783 N   0  0  0  0  0  0
  -31.4821  -12.5466   19.1429 H   0  0  0  0  0  0
  -30.4021  -11.4067   19.8873 H   0  0  0  0  0  0
  -29.7748  -11.7286   17.4898 H   0  0  0  0  0  0
  -29.6493  -13.4553   17.7215 H   0  0  0  0  0  0
  -27.8767  -11.2826   18.8706 H   0  0  0  0  0  0
  -27.3716  -12.5542   17.7879 H   0  0  0  0  0  0
  -27.6795  -14.2429   19.5341 H   0  0  0  0  0  0
  -28.7295  -11.9754   21.2914 H   0  0  0  0  0  0
  -28.4252  -13.5528   21.8854 H   0  0  0  0  0  0
  -25.2759   -9.5674   22.4770 H   0  0  0  0  0  0
  -23.9990   -7.4639   22.7494 H   0  0  0  0  0  0
  -21.0832   -8.8776   19.8971 H   0  0  0  0  0  0
  -22.3690  -10.9678   19.6186 H   0  0  0  0  0  0
  -21.1989   -7.6154   23.9691 H   0  0  0  0  0  0
  -21.1459   -6.0534   25.9057 H   0  0  0  0  0  0
  -22.0620   -2.7619   23.2833 H   0  0  0  0  0  0
  -22.4110  -11.9835   22.4685 H   0  0  0  0  0  0
  -21.1179  -13.1315   22.2652 H   0  0  0  0  0  0
  -24.7038  -15.8620   20.5549 H   0  0  0  0  0  0
  -26.3091  -15.6090   20.1046 H   0  0  0  0  0  0
  -26.7129  -32.5439   23.1072 H   0  0  0  0  0  0
  -25.0081  -33.9746   25.0446 H   0  0  0  0  0  0
  -22.7111  -31.3059   21.4006 H   0  0  0  0  0  0
  -23.3765  -35.9578   23.3338 H   0  0  0  0  0  0
  -24.3552  -36.8874   22.2045 H   0  0  0  0  0  0
  -23.7179  -37.6469   23.6645 H   0  0  0  0  0  0
  -26.0831  -31.5423   20.5943 H   0  0  0  0  0  0
  -26.8389  -30.8427   21.9949 H   0  0  0  0  0  0
  -28.0953  -28.9628   21.2163 H   0  0  0  0  0  0
  -25.9860  -25.9140   19.0187 H   0  0  0  0  0  0
  -23.9673  -27.3118   18.9861 H   0  0  0  0  0  0
  -23.7550  -30.6070   19.4048 H   0  0  0  0  0  0
  -22.7441  -29.2647   19.8434 H   0  0  0  0  0  0
  -25.1273  -36.1977   25.0825 H   0  0  0  0  0  0
  -21.0025  -28.3292   24.1382 H   0  0  0  0  0  0
  -20.5759  -26.2325   23.3620 H   0  0  0  0  0  0
  -21.6692  -26.7447   22.1176 H   0  0  0  0  0  0
  -19.6985  -25.6268   21.1257 H   0  0  0  0  0  0
  -19.6740  -27.3143   20.6702 H   0  0  0  0  0  0
  -17.4247  -26.6640   21.4016 H   0  0  0  0  0  0
  -18.0405  -26.0042   22.9001 H   0  0  0  0  0  0
  -19.7993  -30.7243   24.2255 H   0  0  0  0  0  0
  -17.5087  -31.6238   24.5198 H   0  0  0  0  0  0
  -15.5412  -30.3009   23.7603 H   0  0  0  0  0  0
  -15.8722  -28.0835   22.7013 H   0  0  0  0  0  0
  -24.5828  -30.7156   25.7784 H   0  0  0  0  0  0
  -24.8894  -32.2952   26.4861 H   0  0  0  0  0  0
  -25.7961  -30.8945   27.0246 H   0  0  0  0  0  0
  -26.2871  -29.6818   24.1209 H   0  0  0  0  0  0
  -27.4101  -29.7322   25.4620 H   0  0  0  0  0  0
  -27.8703  -30.4409   23.9316 H   0  0  0  0  0  0
  -27.2594  -33.3678   26.2053 H   0  0  0  0  0  0
  -28.3801  -32.6959   25.0314 H   0  0  0  0  0  0
  -28.0704  -31.8553   26.5430 H   0  0  0  0  0  0
  -28.2590  -38.0082   24.7524 H   0  0  0  0  0  0
  -28.1074  -36.2606   24.6308 H   0  0  0  0  0  0
  -27.2299  -37.1444   25.8878 H   0  0  0  0  0  0
  -20.9402  -29.8788   21.6859 H   0  0  0  0  0  0
  -26.0212  -38.2854   24.1451 H   0  0  0  0  0  0
  -30.9338  -21.0186   21.6067 H   0  0  0  0  0  0
  -27.9266  -21.1404   18.5216 H   0  0  0  0  0  0
  -30.9583  -18.5801   21.5106 H   0  0  0  0  0  0
  -27.9236  -18.6866   18.4668 H   0  0  0  0  0  0
  -31.6953  -22.6550   20.3994 H   0  0  0  0  0  0
  -32.4008  -24.7627   19.6262 H   0  0  0  0  0  0
  -31.1808  -25.3263   20.7395 H   0  0  0  0  0  0
  -31.2126  -25.4598   17.7636 H   0  0  0  0  0  0
  -30.3847  -26.4600   18.8999 H   0  0  0  0  0  0
  -29.4644  -23.9942   17.4588 H   0  0  0  0  0  0
  -28.5573  -25.4307   17.8353 H   0  0  0  0  0  0
  -27.7340  -23.4396   19.0565 H   0  0  0  0  0  0
  -31.2751  -16.7430   22.9967 H   0  0  0  0  0  0
  -30.8805  -15.0509   23.3020 H   0  0  0  0  0  0
  -30.0556  -16.3188   24.1907 H   0  0  0  0  0  0
  -30.3180  -16.7149   18.9386 H   0  0  0  0  0  0
  -28.6324  -16.5228   19.2423 H   0  0  0  0  0  0
  -27.0795  -24.8229   20.7465 H   0  0  0  0  0  0
  -28.6472  -24.8509   21.4360 H   0  0  0  0  0  0
  -28.9269  -17.1247   22.1552 H   0  0  0  0  0  0
  -28.5188  -15.5049   22.4413 H   0  0  0  0  0  0
  1 25  1  0  0  0
  1 30  2  0  0  0
  1 87  1  0  0  0
  2  3  1  0  0  0
  2 25  1  0  0  0
  2 88  1  0  0  0
  2 89  1  0  0  0
  3  4  1  0  0  0
  3 90  1  0  0  0
  3 91  1  0  0  0
  4  5  1  0  0  0
  4 92  1  0  0  0
  4 93  1  0  0  0
  5  6  1  0  0  0
  5 26  1  0  0  0
  5 94  1  0  0  0
  6 25  1  0  0  0
  6 95  1  0  0  0
  6 96  1  0  0  0
  7  8  2  0  0  0
  7 26  1  0  0  0
  7 29  1  0  0  0
  8  9  1  0  0  0
  8 22  1  0  0  0
  9 10  1  0  0  0
  9 27  2  0  0  0
 10 11  2  0  0  0
 10 15  1  0  0  0
 11 12  1  0  0  0
 11 97  1  0  0  0
 12 13  2  0  0  0
 12 98  1  0  0  0
 13 14  1  0  0  0
 13 31  1  0  0  0
 14 15  2  0  0  0
 14 99  1  0  0  0
 15100  1  0  0  0
 16 17  2  0  0  0
 16 21  1  0  0  0
 16 31  1  0  0  0
 17 18  1  0  0  0
 17101  1  0  0  0
 18 19  2  0  0  0
 18102  1  0  0  0
 19 20  1  0  0  0
 19 24  1  0  0  0
 20 21  2  0  0  0
 20103  1  0  0  0
 21 23  1  0  0  0
 22 28  1  0  0  0
 22 32  2  0  0  0
 26 27  1  0  0  0
 28104  1  0  0  0
 28105  1  0  0  0
 29106  1  0  0  0
 29107  1  0  0  0
 33 34  1  0  0  0
 33 66  1  0  0  0
 33 70  2  0  0  0
 34 36  1  0  0  0
 34 59  1  0  0  0
 34108  1  0  0  0
 35 44  2  0  0  0
 35 45  1  0  0  0
 35 68  1  0  0  0
 36 56  1  0  0  0
 36109  1  0  0  0
 37 39  1  0  0  0
 37 47  1  0  0  0
 37 66  1  0  0  0
 37110  1  0  0  0
 38 43  2  0  0  0
 38 46  1  0  0  0
 38 47  1  0  0  0
 39 64  1  0  0  0
 39 67  2  0  0  0
 40 52  1  0  0  0
 40 53  2  0  0  0
 40 58  1  0  0  0
 41111  1  0  0  0
 41112  1  0  0  0
 41113  1  0  0  0
 41 48  1  0  0  0
 42 43  1  0  0  0
 42 66  1  0  0  0
 42114  1  0  0  0
 42115  1  0  0  0
 43 44  1  0  0  0
 44116  1  0  0  0
 45 46  2  0  0  0
 45117  1  0  0  0
 46118  1  0  0  0
 47119  1  0  0  0
 47120  1  0  0  0
 48 56  1  0  0  0
 48 65  1  0  0  0
 48121  1  0  0  0
 49 50  1  0  0  0
 49 53  1  0  0  0
 49 64  1  0  0  0
 49122  1  0  0  0
 50 51  1  0  0  0
 50123  1  0  0  0
 50124  1  0  0  0
 51 52  1  0  0  0
 51125  1  0  0  0
 51126  1  0  0  0
 52127  1  0  0  0
 52128  1  0  0  0
 53 54  1  0  0  0
 54 55  2  0  0  0
 54129  1  0  0  0
 55 57  1  0  0  0
 55130  1  0  0  0
 56 69  2  0  0  0
 57 58  2  0  0  0
 57131  1  0  0  0
 58132  1  0  0  0
 59 60  1  0  0  0
 59 61  1  0  0  0
 59 62  1  0  0  0
 60133  1  0  0  0
 60134  1  0  0  0
 60135  1  0  0  0
 61136  1  0  0  0
 61137  1  0  0  0
 61138  1  0  0  0
 62139  1  0  0  0
 62140  1  0  0  0
 62141  1  0  0  0
 63 65  1  0  0  0
 63142  1  0  0  0
 63143  1  0  0  0
 63144  1  0  0  0
 64145  1  0  0  0
 65146  1  0  0  0
 68 85  1  0  0  0
 71 73  2  0  0  0
 71 75  1  0  0  0
 71147  1  0  0  0
 72 74  1  0  0  0
 72 75  2  0  0  0
 72148  1  0  0  0
 73 76  1  0  0  0
 73149  1  0  0  0
 74 76  2  0  0  0
 74150  1  0  0  0
 75 78  1  0  0  0
 76 84  1  0  0  0
 77 78  2  0  0  0
 77 79  1  0  0  0
 77151  1  0  0  0
 78 82  1  0  0  0
 79 80  1  0  0  0
 79152  1  0  0  0
 79153  1  0  0  0
 80 81  1  0  0  0
 80154  1  0  0  0
 80155  1  0  0  0
 81 82  1  0  0  0
 81156  1  0  0  0
 81157  1  0  0  0
 82 85  1  0  0  0
 82158  1  0  0  0
 83 86  1  0  0  0
 83159  1  0  0  0
 83160  1  0  0  0
 83161  1  0  0  0
 84 87  1  0  0  0
 84162  1  0  0  0
 84163  1  0  0  0
 85164  1  0  0  0
 85165  1  0  0  0
 86 87  1  0  0  0
 86166  1  0  0  0
 86167  1  0  0  0
M  ISO  4   1 100  68 101  85 101  87 100
M  END
> <chiral flag>
0

> <version>
0

> <s_m_source_file>
/data/baiqing/PycharmProjects/Reinvent-master-3.2/result/LINK_invent/BTK/process_docking_weight1_custom_product_contain_oxygen_bond_distance_aromatic_linkinvent_7_9_3/rearranged_h_0016.sdf

> <i_m_source_file_index>
54

> <r_mmod_Potential_Energy-OPLS-2005>
361.397705078125

> <r_mmod_Stretch_Energy-OPLS-2005>
91.7980117797852

> <r_mmod_Bend_Energy-OPLS-2005>
161.459991455078

> <r_mmod_Torsional_Energy-OPLS-2005>
342.603210449219

> <r_mmod_Improper_Torsional_Energy-OPLS-2005>
10.0482997894287

> <r_mmod_Van_der_Waal_Energy-OPLS-2005>
158.548934936523

> <r_mmod_Electrostatic_Energy-OPLS-2005>
-272.593780517578

> <r_mmod_Solvation_Energy-OPLS-2005>
-182.43505859375

> <b_mmod_Minimization_Converged-OPLS-2005>
0

> <r_mmod_RMS_Derivative-OPLS-2005>
3.64441442489624

$$$$
54
                    3D
 Structure written by MMmdl.
155163  0  0  1  0            999 V2000
  -30.6184  -14.6662   20.5025 C   0  0  0  0  0  0
  -30.4535  -12.4068   19.4528 C   0  0  0  0  0  0
  -29.5159  -12.5043   18.2276 C   0  0  0  0  0  0
  -28.0362  -12.3526   18.6384 C   0  0  0  0  0  0
  -27.6615  -13.2169   19.8701 C   0  0  2  0  0  0
  -28.7132  -13.0606   20.9936 C   0  0  0  0  0  0
  -25.2602  -13.8177   20.5674 C   0  0  0  0  0  0
  -24.1862  -13.0451   20.9180 C   0  0  0  0  0  0
  -24.6426  -11.6913   20.8752 C   0  0  0  0  0  0
  -23.9088  -10.4301   21.0421 C   0  0  0  0  0  0
  -24.3634   -9.4208   21.9199 C   0  0  0  0  0  0
  -23.6306   -8.2244   22.0758 C   0  0  0  0  0  0
  -22.4287   -8.0288   21.3549 C   0  0  0  0  0  0
  -21.9930   -9.0264   20.4645 C   0  0  0  0  0  0
  -22.7259  -10.2149   20.3064 C   0  0  0  0  0  0
  -21.6850   -6.0749   22.5278 C   0  0  0  0  0  0
  -21.4001   -6.5644   23.8208 C   0  0  0  0  0  0
  -21.3655   -5.6799   24.9164 C   0  0  0  0  0  0
  -21.6044   -4.3061   24.7217 C   0  0  0  0  0  0
  -21.8826   -3.8158   23.4334 C   0  0  0  0  0  0
  -21.9190   -4.6979   22.3391 C   0  0  0  0  0  0
  -22.7871  -13.5245   21.1839 C   0  0  0  0  0  0
  -22.1662   -4.2173   21.0969 F   0  0  0  0  0  0
  -21.5637   -3.4536   25.7726 F   0  0  0  0  0  0
  -30.0269  -13.4263   20.4337 N   0  0  0  0  0  0
  -26.3051  -12.9361   20.3358 N   0  0  0  0  0  0
  -25.9366  -11.6515   20.5774 N   0  0  0  0  0  0
  -22.0513  -12.8250   22.0394 N   0  0  0  0  0  0
  -25.4375  -15.1871   20.4045 N   0  0  0  0  0  0
  -31.7550  -14.8613   20.0646 O   0  0  0  0  0  0
  -21.6633   -6.8902   21.4247 O   0  0  0  0  0  0
  -22.3558  -14.5567   20.6704 O   0  0  0  0  0  0
  -24.6258  -31.8617   23.2016 C   0  0  0  0  0  0
  -25.9121  -32.4788   23.8360 C   0  0  1  0  0  0
  -27.2392  -27.3215   20.1313 C   0  0  0  0  0  0
  -25.5949  -33.8578   24.2283 N   0  0  0  0  0  0
  -23.4214  -30.4777   21.5463 C   0  0  2  0  0  0
  -24.8708  -28.9264   20.1171 C   0  0  0  0  0  0
  -22.7495  -29.4588   22.4965 C   0  0  0  0  0  0
  -18.0291  -28.1345   22.8468 C   0  0  0  0  0  0
  -24.1492  -36.7270   23.2644 C   0  0  0  0  0  0
  -25.9573  -30.7923   21.3718 C   0  0  0  0  0  0
  -26.0379  -29.4187   20.7154 C   0  0  0  0  0  0
  -27.2265  -28.6303   20.7042 C   0  0  0  0  0  0
  -26.0475  -26.8678   19.5256 C   0  0  0  0  0  0
  -24.8775  -27.6579   19.5098 C   0  0  0  0  0  0
  -23.6376  -29.8081   20.1633 C   0  0  0  0  0  0
  -25.4122  -36.3066   24.0309 C   0  0  1  0  0  0
  -20.5889  -28.3654   23.1280 C   0  0  2  0  0  0
  -20.6794  -26.9373   22.5405 C   0  0  0  0  0  0
  -19.5770  -26.6366   21.5183 C   0  0  0  0  0  0
  -18.1931  -26.7890   22.1587 C   0  0  0  0  0  0
  -19.1540  -28.8817   23.2872 C   0  0  0  0  0  0
  -18.9484  -30.1429   23.8874 C   0  0  0  0  0  0
  -17.6488  -30.6572   24.0521 C   0  0  0  0  0  0
  -25.9061  -34.9443   23.5104 C   0  0  0  0  0  0
  -16.5368  -29.9052   23.6322 C   0  0  0  0  0  0
  -16.7281  -28.6464   23.0337 C   0  0  0  0  0  0
  -26.4515  -31.6582   25.0724 C   0  0  0  0  0  0
  -25.3743  -31.3711   26.1456 C   0  0  0  0  0  0
  -27.0350  -30.3015   24.6136 C   0  0  0  0  0  0
  -27.6096  -32.4307   25.7482 C   0  0  0  0  0  0
  -27.5576  -37.1792   24.8461 C   0  0  0  0  0  0
  -21.4194  -29.3008   22.3683 N   0  0  0  0  0  0
  -26.4296  -37.3761   23.9394 N   0  0  0  0  0  0
  -24.6858  -31.0617   22.0982 N   0  0  0  0  0  0
  -23.4191  -28.8122   23.3053 O   0  0  0  0  0  0
  -28.3806  -26.5108   20.1087 O   0  0  0  0  0  0
  -26.5619  -34.8911   22.4657 O   0  0  0  0  0  0
  -23.5427  -32.1432   23.7344 O   0  0  0  0  0  0
  -30.1903  -19.4550   20.0712 C   0  0  0  0  0  0
  -30.4406  -18.0331   20.0542 C   0  0  0  0  0  0
  -28.7072  -19.1559   21.9163 C   0  0  0  0  0  0
  -29.2844  -20.0757   20.9909 C   0  0  0  0  0  0
  -29.8015  -17.1389   20.9665 C   0  0  0  0  0  0
  -28.9466  -17.7577   21.9090 C   0  0  0  0  0  0
  -28.1281  -21.8966   22.1920 C   0  0  0  0  0  0
  -28.6109  -23.8662   19.7854 C   0  0  0  0  0  0
  -29.5284  -22.6203   20.2484 C   0  0  0  0  0  0
  -28.3357  -25.1495   20.6984 C   0  0  0  0  0  0
  -29.8237  -15.6673   20.9897 N   0  0  0  0  0  0
  -28.9170  -21.4898   21.0279 N   0  0  0  0  0  0
  -28.1332  -16.7875   23.0887 Cl  0  0  0  0  0  0
  -31.4916  -12.5462   19.1442 H   0  0  0  0  0  0
  -30.4060  -11.4113   19.8968 H   0  0  0  0  0  0
  -29.7741  -11.7369   17.4964 H   0  0  0  0  0  0
  -29.6665  -13.4635   17.7276 H   0  0  0  0  0  0
  -27.8662  -11.3002   18.8673 H   0  0  0  0  0  0
  -27.3850  -12.5908   17.7967 H   0  0  0  0  0  0
  -27.6822  -14.2541   19.5374 H   0  0  0  0  0  0
  -28.7328  -12.0287   21.3471 H   0  0  0  0  0  0
  -28.4540  -13.6630   21.8645 H   0  0  0  0  0  0
  -25.2771   -9.5682   22.4780 H   0  0  0  0  0  0
  -24.0007   -7.4634   22.7485 H   0  0  0  0  0  0
  -21.0860   -8.8793   19.8954 H   0  0  0  0  0  0
  -22.3717  -10.9698   19.6180 H   0  0  0  0  0  0
  -21.1987   -7.6153   23.9714 H   0  0  0  0  0  0
  -21.1466   -6.0522   25.9071 H   0  0  0  0  0  0
  -22.0613   -2.7625   23.2813 H   0  0  0  0  0  0
  -22.4091  -11.9865   22.4745 H   0  0  0  0  0  0
  -21.1146  -13.1317   22.2636 H   0  0  0  0  0  0
  -24.6833  -15.8558   20.5136 H   0  0  0  0  0  0
  -26.2991  -15.6123   20.0905 H   0  0  0  0  0  0
  -26.7179  -32.5475   23.1093 H   0  0  0  0  0  0
  -25.0079  -33.9707   25.0415 H   0  0  0  0  0  0
  -22.7153  -31.2957   21.4031 H   0  0  0  0  0  0
  -23.3757  -35.9614   23.3300 H   0  0  0  0  0  0
  -24.3582  -36.8907   22.2070 H   0  0  0  0  0  0
  -23.7220  -37.6445   23.6683 H   0  0  0  0  0  0
  -26.0841  -31.5609   20.6083 H   0  0  0  0  0  0
  -26.8356  -30.8442   22.0018 H   0  0  0  0  0  0
  -28.1322  -29.0117   21.1581 H   0  0  0  0  0  0
  -26.0212  -25.8932   19.0584 H   0  0  0  0  0  0
  -23.9826  -27.2743   19.0363 H   0  0  0  0  0  0
  -23.7513  -30.5859   19.4057 H   0  0  0  0  0  0
  -22.7586  -29.2354   19.8634 H   0  0  0  0  0  0
  -25.1291  -36.1936   25.0799 H   0  0  0  0  0  0
  -20.9963  -28.3255   24.1409 H   0  0  0  0  0  0
  -20.5687  -26.2261   23.3609 H   0  0  0  0  0  0
  -21.6670  -26.7427   22.1191 H   0  0  0  0  0  0
  -19.6932  -25.6271   21.1213 H   0  0  0  0  0  0
  -19.6709  -27.3197   20.6722 H   0  0  0  0  0  0
  -17.4207  -26.6650   21.3971 H   0  0  0  0  0  0
  -18.0316  -26.0029   22.8990 H   0  0  0  0  0  0
  -19.7981  -30.7209   24.2262 H   0  0  0  0  0  0
  -17.5056  -31.6252   24.5125 H   0  0  0  0  0  0
  -15.5360  -30.2930   23.7683 H   0  0  0  0  0  0
  -15.8681  -28.0769   22.7061 H   0  0  0  0  0  0
  -24.5912  -30.7068   25.7757 H   0  0  0  0  0  0
  -24.8948  -32.2886   26.4903 H   0  0  0  0  0  0
  -25.8086  -30.8863   27.0210 H   0  0  0  0  0  0
  -26.2902  -29.6755   24.1219 H   0  0  0  0  0  0
  -27.4105  -29.7289   25.4614 H   0  0  0  0  0  0
  -27.8750  -30.4270   23.9298 H   0  0  0  0  0  0
  -27.2739  -33.3654   26.1981 H   0  0  0  0  0  0
  -28.3963  -32.6783   25.0334 H   0  0  0  0  0  0
  -28.0678  -31.8455   26.5455 H   0  0  0  0  0  0
  -28.2588  -38.0102   24.7523 H   0  0  0  0  0  0
  -28.1077  -36.2620   24.6286 H   0  0  0  0  0  0
  -27.2287  -37.1440   25.8867 H   0  0  0  0  0  0
  -20.9391  -29.8738   21.6876 H   0  0  0  0  0  0
  -26.0177  -38.2825   24.1442 H   0  0  0  0  0  0
  -30.6999  -20.0653   19.3388 H   0  0  0  0  0  0
  -31.1065  -17.6327   19.3030 H   0  0  0  0  0  0
  -28.0227  -19.4865   22.6786 H   0  0  0  0  0  0
  -28.5966  -21.5564   23.1177 H   0  0  0  0  0  0
  -27.1281  -21.4624   22.1280 H   0  0  0  0  0  0
  -28.0081  -22.9758   22.2798 H   0  0  0  0  0  0
  -27.6613  -23.4856   19.4134 H   0  0  0  0  0  0
  -29.1014  -24.2656   18.8973 H   0  0  0  0  0  0
  -30.4040  -22.9988   20.7788 H   0  0  0  0  0  0
  -29.9269  -22.1826   19.3324 H   0  0  0  0  0  0
  -29.0831  -25.1545   21.4918 H   0  0  0  0  0  0
  -27.3827  -25.0073   21.2129 H   0  0  0  0  0  0
  -29.0110  -15.2900   21.4532 H   0  0  0  0  0  0
  1 25  1  0  0  0
  1 30  2  0  0  0
  1 81  1  0  0  0
  2  3  1  0  0  0
  2 25  1  0  0  0
  2 84  1  0  0  0
  2 85  1  0  0  0
  3  4  1  0  0  0
  3 86  1  0  0  0
  3 87  1  0  0  0
  4  5  1  0  0  0
  4 88  1  0  0  0
  4 89  1  0  0  0
  5  6  1  0  0  0
  5 26  1  0  0  0
  5 90  1  0  0  0
  6 25  1  0  0  0
  6 91  1  0  0  0
  6 92  1  0  0  0
  7  8  2  0  0  0
  7 26  1  0  0  0
  7 29  1  0  0  0
  8  9  1  0  0  0
  8 22  1  0  0  0
  9 10  1  0  0  0
  9 27  2  0  0  0
 10 11  2  0  0  0
 10 15  1  0  0  0
 11 12  1  0  0  0
 11 93  1  0  0  0
 12 13  2  0  0  0
 12 94  1  0  0  0
 13 14  1  0  0  0
 13 31  1  0  0  0
 14 15  2  0  0  0
 14 95  1  0  0  0
 15 96  1  0  0  0
 16 17  2  0  0  0
 16 21  1  0  0  0
 16 31  1  0  0  0
 17 18  1  0  0  0
 17 97  1  0  0  0
 18 19  2  0  0  0
 18 98  1  0  0  0
 19 20  1  0  0  0
 19 24  1  0  0  0
 20 21  2  0  0  0
 20 99  1  0  0  0
 21 23  1  0  0  0
 22 28  1  0  0  0
 22 32  2  0  0  0
 26 27  1  0  0  0
 28100  1  0  0  0
 28101  1  0  0  0
 29102  1  0  0  0
 29103  1  0  0  0
 33 34  1  0  0  0
 33 66  1  0  0  0
 33 70  2  0  0  0
 34 36  1  0  0  0
 34 59  1  0  0  0
 34104  1  0  0  0
 35 44  2  0  0  0
 35 45  1  0  0  0
 35 68  1  0  0  0
 36 56  1  0  0  0
 36105  1  0  0  0
 37 39  1  0  0  0
 37 47  1  0  0  0
 37 66  1  0  0  0
 37106  1  0  0  0
 38 43  2  0  0  0
 38 46  1  0  0  0
 38 47  1  0  0  0
 39 64  1  0  0  0
 39 67  2  0  0  0
 40 52  1  0  0  0
 40 53  2  0  0  0
 40 58  1  0  0  0
 41107  1  0  0  0
 41108  1  0  0  0
 41109  1  0  0  0
 41 48  1  0  0  0
 42 43  1  0  0  0
 42 66  1  0  0  0
 42110  1  0  0  0
 42111  1  0  0  0
 43 44  1  0  0  0
 44112  1  0  0  0
 45 46  2  0  0  0
 45113  1  0  0  0
 46114  1  0  0  0
 47115  1  0  0  0
 47116  1  0  0  0
 48 56  1  0  0  0
 48 65  1  0  0  0
 48117  1  0  0  0
 49 50  1  0  0  0
 49 53  1  0  0  0
 49 64  1  0  0  0
 49118  1  0  0  0
 50 51  1  0  0  0
 50119  1  0  0  0
 50120  1  0  0  0
 51 52  1  0  0  0
 51121  1  0  0  0
 51122  1  0  0  0
 52123  1  0  0  0
 52124  1  0  0  0
 53 54  1  0  0  0
 54 55  2  0  0  0
 54125  1  0  0  0
 55 57  1  0  0  0
 55126  1  0  0  0
 56 69  2  0  0  0
 57 58  2  0  0  0
 57127  1  0  0  0
 58128  1  0  0  0
 59 60  1  0  0  0
 59 61  1  0  0  0
 59 62  1  0  0  0
 60129  1  0  0  0
 60130  1  0  0  0
 60131  1  0  0  0
 61132  1  0  0  0
 61133  1  0  0  0
 61134  1  0  0  0
 62135  1  0  0  0
 62136  1  0  0  0
 62137  1  0  0  0
 63 65  1  0  0  0
 63138  1  0  0  0
 63139  1  0  0  0
 63140  1  0  0  0
 64141  1  0  0  0
 65142  1  0  0  0
 68 80  1  0  0  0
 71 72  2  0  0  0
 71 74  1  0  0  0
 71143  1  0  0  0
 72 75  1  0  0  0
 72144  1  0  0  0
 73 74  2  0  0  0
 73 76  1  0  0  0
 73145  1  0  0  0
 74 82  1  0  0  0
 75 76  2  0  0  0
 75 81  1  0  0  0
 76 83  1  0  0  0
 77 82  1  0  0  0
 77146  1  0  0  0
 77147  1  0  0  0
 77148  1  0  0  0
 78 79  1  0  0  0
 78 80  1  0  0  0
 78149  1  0  0  0
 78150  1  0  0  0
 79 82  1  0  0  0
 79151  1  0  0  0
 79152  1  0  0  0
 80153  1  0  0  0
 80154  1  0  0  0
 81155  1  0  0  0
M  ISO  4   1 100  68 101  80 101  81 100
M  END
> <chiral flag>
0

> <version>
0

> <s_m_source_file>
/data/baiqing/PycharmProjects/Reinvent-master-3.2/result/LINK_invent/BTK/process_docking_weight1_custom_product_contain_oxygen_bond_distance_aromatic_linkinvent_7_9_3/rearranged_h_0016.sdf

> <i_m_source_file_index>
55

> <r_mmod_Potential_Energy-OPLS-2005>
91.6146392822266

> <r_mmod_Stretch_Energy-OPLS-2005>
93.1937866210938

> <r_mmod_Bend_Energy-OPLS-2005>
190.853744506836

> <r_mmod_Torsional_Energy-OPLS-2005>
236.786819458008

> <r_mmod_Improper_Torsional_Energy-OPLS-2005>
3.87467765808105

> <r_mmod_Van_der_Waal_Energy-OPLS-2005>
144.844985961914

> <r_mmod_Electrostatic_Energy-OPLS-2005>
-405.496704101562

> <r_mmod_Solvation_Energy-OPLS-2005>
-221.277328491211

> <b_mmod_Minimization_Converged-OPLS-2005>
0

> <r_mmod_RMS_Derivative-OPLS-2005>
4.09179830551147

$$$$
55
                    3D
 Structure written by MMmdl.
161169  0  0  1  0            999 V2000
  -30.6574  -14.7172   20.3540 C   0  0  0  0  0  0
  -30.4439  -12.4235   19.4343 C   0  0  0  0  0  0
  -29.4988  -12.3805   18.2103 C   0  0  0  0  0  0
  -28.0250  -12.2707   18.6472 C   0  0  0  0  0  0
  -27.6434  -13.2073   19.8267 C   0  0  2  0  0  0
  -28.7061  -13.2014   20.9438 C   0  0  0  0  0  0
  -25.2598  -13.8158   20.5628 C   0  0  0  0  0  0
  -24.1853  -13.0429   20.9168 C   0  0  0  0  0  0
  -24.6427  -11.6923   20.8747 C   0  0  0  0  0  0
  -23.9069  -10.4336   21.0405 C   0  0  0  0  0  0
  -24.3657   -9.4280   21.9164 C   0  0  0  0  0  0
  -23.6378   -8.2286   22.0730 C   0  0  0  0  0  0
  -22.4351   -8.0314   21.3542 C   0  0  0  0  0  0
  -21.9968   -9.0265   20.4628 C   0  0  0  0  0  0
  -22.7249  -10.2172   20.3058 C   0  0  0  0  0  0
  -21.6903   -6.0775   22.5271 C   0  0  0  0  0  0
  -21.4008   -6.5681   23.8187 C   0  0  0  0  0  0
  -21.3655   -5.6832   24.9147 C   0  0  0  0  0  0
  -21.6067   -4.3096   24.7208 C   0  0  0  0  0  0
  -21.8836   -3.8185   23.4340 C   0  0  0  0  0  0
  -21.9219   -4.6993   22.3391 C   0  0  0  0  0  0
  -22.7873  -13.5216   21.1819 C   0  0  0  0  0  0
  -22.1682   -4.2169   21.0971 F   0  0  0  0  0  0
  -21.5665   -3.4590   25.7729 F   0  0  0  0  0  0
  -29.9981  -13.5120   20.3209 N   0  0  0  0  0  0
  -26.2998  -12.9294   20.3250 N   0  0  0  0  0  0
  -25.9353  -11.6491   20.5794 N   0  0  0  0  0  0
  -22.0554  -12.8196   22.0413 N   0  0  0  0  0  0
  -25.4369  -15.1855   20.4043 N   0  0  0  0  0  0
  -31.8902  -14.7545   20.3122 O   0  0  0  0  0  0
  -21.6722   -6.8906   21.4232 O   0  0  0  0  0  0
  -22.3546  -14.5500   20.6653 O   0  0  0  0  0  0
  -24.6229  -31.8628   23.2030 C   0  0  0  0  0  0
  -25.9107  -32.4779   23.8315 C   0  0  1  0  0  0
  -27.2322  -27.3435   20.0937 C   0  0  0  0  0  0
  -25.5951  -33.8563   24.2260 N   0  0  0  0  0  0
  -23.4147  -30.4863   21.5465 C   0  0  2  0  0  0
  -24.8604  -28.9413   20.1135 C   0  0  0  0  0  0
  -22.7499  -29.4691   22.4992 C   0  0  0  0  0  0
  -18.0394  -28.1401   22.8474 C   0  0  0  0  0  0
  -24.1520  -36.7302   23.2642 C   0  0  0  0  0  0
  -25.9530  -30.7958   21.3733 C   0  0  0  0  0  0
  -26.0274  -29.4251   20.7186 C   0  0  0  0  0  0
  -27.2133  -28.6308   20.7082 C   0  0  0  0  0  0
  -26.0443  -26.9279   19.4478 C   0  0  0  0  0  0
  -24.8698  -27.6985   19.4702 C   0  0  0  0  0  0
  -23.6197  -29.8058   20.1682 C   0  0  0  0  0  0
  -25.4145  -36.3064   24.0312 C   0  0  1  0  0  0
  -20.5957  -28.3780   23.1388 C   0  0  2  0  0  0
  -20.6915  -26.9522   22.5502 C   0  0  0  0  0  0
  -19.5942  -26.6498   21.5259 C   0  0  0  0  0  0
  -18.2100  -26.7936   22.1629 C   0  0  0  0  0  0
  -19.1602  -28.8917   23.2911 C   0  0  0  0  0  0
  -18.9473  -30.1524   23.8889 C   0  0  0  0  0  0
  -17.6444  -30.6593   24.0549 C   0  0  0  0  0  0
  -25.9066  -34.9437   23.5094 C   0  0  0  0  0  0
  -16.5373  -29.9030   23.6304 C   0  0  0  0  0  0
  -16.7352  -28.6428   23.0330 C   0  0  0  0  0  0
  -26.4508  -31.6560   25.0662 C   0  0  0  0  0  0
  -25.3740  -31.3664   26.1388 C   0  0  0  0  0  0
  -27.0369  -30.2991   24.6103 C   0  0  0  0  0  0
  -27.6075  -32.4283   25.7411 C   0  0  0  0  0  0
  -27.5596  -37.1797   24.8454 C   0  0  0  0  0  0
  -21.4224  -29.3144   22.3767 N   0  0  0  0  0  0
  -26.4324  -37.3757   23.9371 N   0  0  0  0  0  0
  -24.6819  -31.0652   22.0968 N   0  0  0  0  0  0
  -23.4233  -28.8224   23.3047 O   0  0  0  0  0  0
  -28.3560  -26.5029   20.1388 O   0  0  0  0  0  0
  -26.5642  -34.8917   22.4661 O   0  0  0  0  0  0
  -23.5416  -32.1380   23.7454 O   0  0  0  0  0  0
  -29.0678  -17.6165   21.3024 C   0  0  0  0  0  0
  -28.8661  -19.0030   21.5713 C   0  0  0  0  0  0
  -30.6417  -18.2281   19.5987 C   0  0  0  0  0  0
  -30.4271  -19.6197   19.8482 C   0  0  0  0  0  0
  -29.9558  -17.1847   20.2931 C   0  0  0  0  0  0
  -29.5122  -20.0572   20.8485 C   0  0  0  0  0  0
  -31.2301  -20.6112   19.0199 C   0  0  0  0  0  0
  -29.8282  -15.7277   18.3482 C   0  0  0  0  0  0
  -28.8457  -21.6541   22.5516 C   0  0  0  0  0  0
  -29.1771  -23.9850   20.3896 C   0  0  0  0  0  0
  -28.7596  -22.4498   20.2076 C   0  0  0  0  0  0
  -28.1401  -25.0654   19.8747 C   0  0  0  0  0  0
  -29.9679  -15.7948   19.8144 N   0  0  0  0  0  0
  -29.3184  -21.4543   21.1789 N   0  0  0  0  0  0
  -31.4728  -12.5765   19.1028 H   0  0  0  0  0  0
  -30.4230  -11.4716   19.9658 H   0  0  0  0  0  0
  -29.7525  -11.5234   17.5886 H   0  0  0  0  0  0
  -29.6417  -13.2272   17.5467 H   0  0  0  0  0  0
  -27.8718  -11.2294   18.9383 H   0  0  0  0  0  0
  -27.3593  -12.4444   17.8011 H   0  0  0  0  0  0
  -27.6108  -14.2128   19.4188 H   0  0  0  0  0  0
  -28.7392  -12.2391   21.4537 H   0  0  0  0  0  0
  -28.4586  -13.9508   21.6963 H   0  0  0  0  0  0
  -25.2797   -9.5847   22.4728 H   0  0  0  0  0  0
  -24.0151   -7.4702   22.7452 H   0  0  0  0  0  0
  -21.0897   -8.8790   19.8927 H   0  0  0  0  0  0
  -22.3664  -10.9735   19.6216 H   0  0  0  0  0  0
  -21.1973   -7.6183   23.9688 H   0  0  0  0  0  0
  -21.1442   -6.0558   25.9040 H   0  0  0  0  0  0
  -22.0609   -2.7649   23.2821 H   0  0  0  0  0  0
  -22.4235  -11.9860   22.4717 H   0  0  0  0  0  0
  -21.1124  -13.1113   22.2541 H   0  0  0  0  0  0
  -24.6786  -15.8505   20.5133 H   0  0  0  0  0  0
  -26.3163  -15.6259   20.1624 H   0  0  0  0  0  0
  -26.7153  -32.5455   23.1042 H   0  0  0  0  0  0
  -25.0008  -33.9656   25.0350 H   0  0  0  0  0  0
  -22.7021  -31.3016   21.3985 H   0  0  0  0  0  0
  -23.3773  -35.9655   23.3304 H   0  0  0  0  0  0
  -24.3617  -36.8919   22.2058 H   0  0  0  0  0  0
  -23.7287  -37.6512   23.6667 H   0  0  0  0  0  0
  -26.0873  -31.5564   20.6032 H   0  0  0  0  0  0
  -26.8328  -30.8432   22.0000 H   0  0  0  0  0  0
  -28.1055  -28.9930   21.2017 H   0  0  0  0  0  0
  -25.9960  -25.9958   18.9082 H   0  0  0  0  0  0
  -23.9805  -27.3280   18.9828 H   0  0  0  0  0  0
  -23.7090  -30.5619   19.3883 H   0  0  0  0  0  0
  -22.7451  -29.2048   19.9006 H   0  0  0  0  0  0
  -25.1345  -36.1921   25.0806 H   0  0  0  0  0  0
  -21.0068  -28.3403   24.1518 H   0  0  0  0  0  0
  -20.5799  -26.2411   23.3711 H   0  0  0  0  0  0
  -21.6830  -26.7582   22.1379 H   0  0  0  0  0  0
  -19.6886  -27.3445   20.6901 H   0  0  0  0  0  0
  -19.7229  -25.6462   21.1177 H   0  0  0  0  0  0
  -17.4433  -26.6599   21.3974 H   0  0  0  0  0  0
  -18.0564  -26.0064   22.9053 H   0  0  0  0  0  0
  -19.7935  -30.7406   24.2199 H   0  0  0  0  0  0
  -17.4967  -31.6284   24.5145 H   0  0  0  0  0  0
  -15.5342  -30.2879   23.7613 H   0  0  0  0  0  0
  -15.8803  -28.0646   22.7093 H   0  0  0  0  0  0
  -24.5927  -30.7012   25.7671 H   0  0  0  0  0  0
  -24.8925  -32.2816   26.4830 H   0  0  0  0  0  0
  -25.8061  -30.8786   27.0137 H   0  0  0  0  0  0
  -26.2928  -29.6688   24.1218 H   0  0  0  0  0  0
  -27.4171  -29.7288   25.4587 H   0  0  0  0  0  0
  -27.8748  -30.4275   23.9255 H   0  0  0  0  0  0
  -27.2707  -33.3591   26.2007 H   0  0  0  0  0  0
  -28.3875  -32.6842   25.0208 H   0  0  0  0  0  0
  -28.0790  -31.8394   26.5295 H   0  0  0  0  0  0
  -28.2631  -38.0080   24.7524 H   0  0  0  0  0  0
  -28.1076  -36.2617   24.6281 H   0  0  0  0  0  0
  -27.2307  -37.1451   25.8854 H   0  0  0  0  0  0
  -20.9386  -29.8874   21.6982 H   0  0  0  0  0  0
  -26.0223  -38.2856   24.1291 H   0  0  0  0  0  0
  -28.4790  -16.8951   21.8499 H   0  0  0  0  0  0
  -28.1654  -19.2293   22.3605 H   0  0  0  0  0  0
  -31.3348  -17.9686   18.8134 H   0  0  0  0  0  0
  -32.1893  -20.1713   18.7397 H   0  0  0  0  0  0
  -31.4442  -21.5252   19.5758 H   0  0  0  0  0  0
  -30.7059  -20.8768   18.1000 H   0  0  0  0  0  0
  -29.6768  -16.6943   17.8729 H   0  0  0  0  0  0
  -28.9441  -15.1630   18.0736 H   0  0  0  0  0  0
  -30.6990  -15.2829   17.8608 H   0  0  0  0  0  0
  -29.0282  -22.6623   22.9229 H   0  0  0  0  0  0
  -29.3383  -20.9735   23.2472 H   0  0  0  0  0  0
  -27.7704  -21.4658   22.6027 H   0  0  0  0  0  0
  -29.3438  -24.1956   21.4419 H   0  0  0  0  0  0
  -30.1398  -24.1551   19.9065 H   0  0  0  0  0  0
  -28.9535  -22.1412   19.1791 H   0  0  0  0  0  0
  -27.6755  -22.3820   20.3125 H   0  0  0  0  0  0
  -27.1959  -24.7789   20.3366 H   0  0  0  0  0  0
  -28.0029  -24.9444   18.7985 H   0  0  0  0  0  0
  1 25  1  0  0  0
  1 30  2  0  0  0
  1 83  1  0  0  0
  2  3  1  0  0  0
  2 25  1  0  0  0
  2 85  1  0  0  0
  2 86  1  0  0  0
  3  4  1  0  0  0
  3 87  1  0  0  0
  3 88  1  0  0  0
  4  5  1  0  0  0
  4 89  1  0  0  0
  4 90  1  0  0  0
  5  6  1  0  0  0
  5 26  1  0  0  0
  5 91  1  0  0  0
  6 25  1  0  0  0
  6 92  1  0  0  0
  6 93  1  0  0  0
  7  8  2  0  0  0
  7 26  1  0  0  0
  7 29  1  0  0  0
  8  9  1  0  0  0
  8 22  1  0  0  0
  9 10  1  0  0  0
  9 27  2  0  0  0
 10 11  2  0  0  0
 10 15  1  0  0  0
 11 12  1  0  0  0
 11 94  1  0  0  0
 12 13  2  0  0  0
 12 95  1  0  0  0
 13 14  1  0  0  0
 13 31  1  0  0  0
 14 15  2  0  0  0
 14 96  1  0  0  0
 15 97  1  0  0  0
 16 17  2  0  0  0
 16 21  1  0  0  0
 16 31  1  0  0  0
 17 18  1  0  0  0
 17 98  1  0  0  0
 18 19  2  0  0  0
 18 99  1  0  0  0
 19 20  1  0  0  0
 19 24  1  0  0  0
 20 21  2  0  0  0
 20100  1  0  0  0
 21 23  1  0  0  0
 22 28  1  0  0  0
 22 32  2  0  0  0
 26 27  1  0  0  0
 28101  1  0  0  0
 28102  1  0  0  0
 29103  1  0  0  0
 29104  1  0  0  0
 33 34  1  0  0  0
 33 66  1  0  0  0
 33 70  2  0  0  0
 34 36  1  0  0  0
 34 59  1  0  0  0
 34105  1  0  0  0
 35 44  2  0  0  0
 35 45  1  0  0  0
 35 68  1  0  0  0
 36 56  1  0  0  0
 36106  1  0  0  0
 37 39  1  0  0  0
 37 47  1  0  0  0
 37 66  1  0  0  0
 37107  1  0  0  0
 38 43  2  0  0  0
 38 46  1  0  0  0
 38 47  1  0  0  0
 39 64  1  0  0  0
 39 67  2  0  0  0
 40 52  1  0  0  0
 40 53  2  0  0  0
 40 58  1  0  0  0
 41108  1  0  0  0
 41109  1  0  0  0
 41110  1  0  0  0
 41 48  1  0  0  0
 42 43  1  0  0  0
 42 66  1  0  0  0
 42111  1  0  0  0
 42112  1  0  0  0
 43 44  1  0  0  0
 44113  1  0  0  0
 45 46  2  0  0  0
 45114  1  0  0  0
 46115  1  0  0  0
 47116  1  0  0  0
 47117  1  0  0  0
 48 56  1  0  0  0
 48 65  1  0  0  0
 48118  1  0  0  0
 49 50  1  0  0  0
 49 53  1  0  0  0
 49 64  1  0  0  0
 49119  1  0  0  0
 50 51  1  0  0  0
 50120  1  0  0  0
 50121  1  0  0  0
 51 52  1  0  0  0
 51122  1  0  0  0
 51123  1  0  0  0
 52124  1  0  0  0
 52125  1  0  0  0
 53 54  1  0  0  0
 54 55  2  0  0  0
 54126  1  0  0  0
 55 57  1  0  0  0
 55127  1  0  0  0
 56 69  2  0  0  0
 57 58  2  0  0  0
 57128  1  0  0  0
 58129  1  0  0  0
 59 60  1  0  0  0
 59 61  1  0  0  0
 59 62  1  0  0  0
 60130  1  0  0  0
 60131  1  0  0  0
 60132  1  0  0  0
 61133  1  0  0  0
 61134  1  0  0  0
 61135  1  0  0  0
 62136  1  0  0  0
 62137  1  0  0  0
 62138  1  0  0  0
 63 65  1  0  0  0
 63139  1  0  0  0
 63140  1  0  0  0
 63141  1  0  0  0
 64142  1  0  0  0
 65143  1  0  0  0
 68 82  1  0  0  0
 71 72  2  0  0  0
 71 75  1  0  0  0
 71144  1  0  0  0
 72 76  1  0  0  0
 72145  1  0  0  0
 73 74  1  0  0  0
 73 75  2  0  0  0
 73146  1  0  0  0
 74 76  2  0  0  0
 74 77  1  0  0  0
 75 83  1  0  0  0
 76 84  1  0  0  0
 77147  1  0  0  0
 77148  1  0  0  0
 77149  1  0  0  0
 78 83  1  0  0  0
 78150  1  0  0  0
 78151  1  0  0  0
 78152  1  0  0  0
 79 84  1  0  0  0
 79153  1  0  0  0
 79154  1  0  0  0
 79155  1  0  0  0
 80 81  1  0  0  0
 80 82  1  0  0  0
 80156  1  0  0  0
 80157  1  0  0  0
 81 84  1  0  0  0
 81158  1  0  0  0
 81159  1  0  0  0
 82160  1  0  0  0
 82161  1  0  0  0
M  ISO  4   1 100  68 101  82 101  83 100
M  END
> <chiral flag>
0

> <version>
0

> <s_m_source_file>
/data/baiqing/PycharmProjects/Reinvent-master-3.2/result/LINK_invent/BTK/process_docking_weight1_custom_product_contain_oxygen_bond_distance_aromatic_linkinvent_7_9_3/rearranged_h_0016.sdf

> <i_m_source_file_index>
56

> <r_mmod_Potential_Energy-OPLS-2005>
312.195617675781

> <r_mmod_Stretch_Energy-OPLS-2005>
84.0883026123047

> <r_mmod_Bend_Energy-OPLS-2005>
147.148315429688

> <r_mmod_Torsional_Energy-OPLS-2005>
334.561645507812

> <r_mmod_Improper_Torsional_Energy-OPLS-2005>
28.9302291870117

> <r_mmod_Van_der_Waal_Energy-OPLS-2005>
169.171173095703

> <r_mmod_Electrostatic_Energy-OPLS-2005>
-322.769195556641

> <r_mmod_Solvation_Energy-OPLS-2005>
-207.505722045898

> <b_mmod_Minimization_Converged-OPLS-2005>
0

> <r_mmod_RMS_Derivative-OPLS-2005>
6.19636726379395

$$$$
56
                    3D
 Structure written by MMmdl.
152160  0  0  1  0            999 V2000
  -30.6514  -14.7055   20.4424 C   0  0  0  0  0  0
  -30.4240  -12.4189   19.4910 C   0  0  0  0  0  0
  -29.5136  -12.4851   18.2455 C   0  0  0  0  0  0
  -28.0398  -12.3094   18.6557 C   0  0  0  0  0  0
  -27.6408  -13.2284   19.8428 C   0  0  2  0  0  0
  -28.6794  -13.1786   20.9835 C   0  0  0  0  0  0
  -25.2521  -13.8204   20.5686 C   0  0  0  0  0  0
  -24.1797  -13.0458   20.9193 C   0  0  0  0  0  0
  -24.6375  -11.6932   20.8741 C   0  0  0  0  0  0
  -23.9047  -10.4299   21.0411 C   0  0  0  0  0  0
  -24.3596   -9.4212   21.9195 C   0  0  0  0  0  0
  -23.6268   -8.2250   22.0766 C   0  0  0  0  0  0
  -22.4252   -8.0280   21.3556 C   0  0  0  0  0  0
  -21.9882   -9.0255   20.4664 C   0  0  0  0  0  0
  -22.7211  -10.2136   20.3071 C   0  0  0  0  0  0
  -21.6859   -6.0715   22.5271 C   0  0  0  0  0  0
  -21.4018   -6.5620   23.8201 C   0  0  0  0  0  0
  -21.3667   -5.6781   24.9171 C   0  0  0  0  0  0
  -21.6050   -4.3043   24.7223 C   0  0  0  0  0  0
  -21.8829   -3.8130   23.4350 C   0  0  0  0  0  0
  -21.9189   -4.6941   22.3404 C   0  0  0  0  0  0
  -22.7809  -13.5247   21.1839 C   0  0  0  0  0  0
  -22.1677   -4.2130   21.0983 F   0  0  0  0  0  0
  -21.5621   -3.4522   25.7738 F   0  0  0  0  0  0
  -29.9912  -13.4979   20.4105 N   0  0  0  0  0  0
  -26.2925  -12.9397   20.3233 N   0  0  0  0  0  0
  -25.9302  -11.6548   20.5737 N   0  0  0  0  0  0
  -22.0435  -12.8257   22.0399 N   0  0  0  0  0  0
  -25.4269  -15.1916   20.4155 N   0  0  0  0  0  0
  -31.8410  -14.7524   20.1201 O   0  0  0  0  0  0
  -21.6653   -6.8859   21.4234 O   0  0  0  0  0  0
  -22.3497  -14.5543   20.6661 O   0  0  0  0  0  0
  -24.6330  -31.8550   23.1989 C   0  0  0  0  0  0
  -25.9170  -32.4744   23.8320 C   0  0  1  0  0  0
  -27.2151  -27.2639   20.1190 C   0  0  0  0  0  0
  -25.5981  -33.8543   24.2269 N   0  0  0  0  0  0
  -23.4263  -30.4804   21.5412 C   0  0  2  0  0  0
  -24.8701  -28.9276   20.1097 C   0  0  0  0  0  0
  -22.7492  -29.4624   22.4905 C   0  0  0  0  0  0
  -18.0299  -28.1379   22.8479 C   0  0  0  0  0  0
  -24.1494  -36.7264   23.2633 C   0  0  0  0  0  0
  -25.9720  -30.7705   21.3744 C   0  0  0  0  0  0
  -26.0418  -29.3935   20.7155 C   0  0  0  0  0  0
  -27.2141  -28.5737   20.7098 C   0  0  0  0  0  0
  -26.0100  -26.8564   19.5031 C   0  0  0  0  0  0
  -24.8591  -27.6668   19.4964 C   0  0  0  0  0  0
  -23.6419  -29.8133   20.1582 C   0  0  0  0  0  0
  -25.4119  -36.3061   24.0340 C   0  0  1  0  0  0
  -20.5896  -28.3706   23.1249 C   0  0  2  0  0  0
  -20.6790  -26.9419   22.5407 C   0  0  0  0  0  0
  -19.5783  -26.6383   21.5190 C   0  0  0  0  0  0
  -18.1952  -26.7929   22.1590 C   0  0  0  0  0  0
  -19.1549  -28.8856   23.2864 C   0  0  0  0  0  0
  -18.9470  -30.1446   23.8906 C   0  0  0  0  0  0
  -17.6473  -30.6590   24.0547 C   0  0  0  0  0  0
  -25.9075  -34.9434   23.5099 C   0  0  0  0  0  0
  -16.5364  -29.9080   23.6328 C   0  0  0  0  0  0
  -16.7280  -28.6481   23.0372 C   0  0  0  0  0  0
  -26.4542  -31.6567   25.0707 C   0  0  0  0  0  0
  -25.3777  -31.3720   26.1447 C   0  0  0  0  0  0
  -27.0400  -30.2979   24.6198 C   0  0  0  0  0  0
  -27.6108  -32.4295   25.7475 C   0  0  0  0  0  0
  -27.5598  -37.1775   24.8464 C   0  0  0  0  0  0
  -21.4209  -29.3046   22.3631 N   0  0  0  0  0  0
  -26.4303  -37.3755   23.9419 N   0  0  0  0  0  0
  -24.6958  -31.0535   22.0942 N   0  0  0  0  0  0
  -23.4184  -28.8187   23.3028 O   0  0  0  0  0  0
  -28.3392  -26.4102   20.1873 O   0  0  0  0  0  0
  -26.5613  -34.8908   22.4648 O   0  0  0  0  0  0
  -23.5493  -32.1380   23.7307 O   0  0  0  0  0  0
  -29.9605  -16.0388   20.6381 C   0  0  0  0  0  0
  -29.6196  -17.2303   20.7647 C   0  0  0  0  0  0
  -28.8210  -22.4152   19.9343 C   0  0  0  0  0  0
  -28.2232  -23.8153   21.8359 C   0  0  0  0  0  0
  -28.6324  -21.4030   22.1211 C   0  0  0  0  0  0
  -28.4940  -23.7331   20.4584 C   0  0  0  0  0  0
  -28.8902  -21.2048   20.7421 C   0  0  0  0  0  0
  -28.3002  -22.6688   22.6523 C   0  0  0  0  0  0
  -29.1377  -19.6656   18.8079 C   0  0  0  0  0  0
  -29.2414  -18.6578   21.1886 C   0  0  0  0  0  0
  -28.4025  -25.0435   19.5709 C   0  0  0  0  0  0
  -29.1892  -19.8578   20.2575 N   0  0  0  0  0  0
  -27.9770  -22.8116   24.3421 Cl  0  0  0  0  0  0
  -31.4703  -12.5077   19.1961 H   0  0  0  0  0  0
  -30.3401  -11.4467   19.9793 H   0  0  0  0  0  0
  -29.8010  -11.7145   17.5288 H   0  0  0  0  0  0
  -29.6444  -13.4435   17.7408 H   0  0  0  0  0  0
  -27.9029  -11.2633   18.9366 H   0  0  0  0  0  0
  -27.3844  -12.4825   17.8026 H   0  0  0  0  0  0
  -27.6362  -14.2443   19.4492 H   0  0  0  0  0  0
  -28.6996  -12.1927   21.4490 H   0  0  0  0  0  0
  -28.4179  -13.8860   21.7723 H   0  0  0  0  0  0
  -25.2740   -9.5681   22.4765 H   0  0  0  0  0  0
  -23.9977   -7.4643   22.7482 H   0  0  0  0  0  0
  -21.0811   -8.8769   19.8969 H   0  0  0  0  0  0
  -22.3665  -10.9672   19.6183 H   0  0  0  0  0  0
  -21.2022   -7.6130   23.9695 H   0  0  0  0  0  0
  -21.1491   -6.0517   25.9073 H   0  0  0  0  0  0
  -22.0601   -2.7583   23.2858 H   0  0  0  0  0  0
  -22.4043  -11.9930   22.4824 H   0  0  0  0  0  0
  -21.1058  -13.1312   22.2618 H   0  0  0  0  0  0
  -24.6647  -15.8505   20.5298 H   0  0  0  0  0  0
  -26.2875  -15.6263   20.1047 H   0  0  0  0  0  0
  -26.7228  -32.5381   23.1051 H   0  0  0  0  0  0
  -25.0176  -33.9656   25.0455 H   0  0  0  0  0  0
  -22.7224  -31.3026   21.3952 H   0  0  0  0  0  0
  -23.3775  -35.9574   23.3279 H   0  0  0  0  0  0
  -24.3597  -36.8895   22.2051 H   0  0  0  0  0  0
  -23.7235  -37.6456   23.6660 H   0  0  0  0  0  0
  -26.1119  -31.5337   20.6070 H   0  0  0  0  0  0
  -26.8500  -30.8134   22.0083 H   0  0  0  0  0  0
  -28.1143  -28.9312   21.1897 H   0  0  0  0  0  0
  -25.9019  -25.8894   19.0418 H   0  0  0  0  0  0
  -23.9573  -27.2994   19.0279 H   0  0  0  0  0  0
  -23.7568  -30.5863   19.3973 H   0  0  0  0  0  0
  -22.7631  -29.2380   19.8612 H   0  0  0  0  0  0
  -25.1279  -36.1901   25.0833 H   0  0  0  0  0  0
  -20.9974  -28.3296   24.1371 H   0  0  0  0  0  0
  -20.5671  -26.2301   23.3605 H   0  0  0  0  0  0
  -21.6660  -26.7454   22.1201 H   0  0  0  0  0  0
  -19.6956  -25.6281   21.1237 H   0  0  0  0  0  0
  -19.6746  -27.3175   20.6701 H   0  0  0  0  0  0
  -17.4223  -26.6674   21.3989 H   0  0  0  0  0  0
  -18.0375  -26.0060   22.8973 H   0  0  0  0  0  0
  -19.7947  -30.7243   24.2307 H   0  0  0  0  0  0
  -17.5029  -31.6283   24.5126 H   0  0  0  0  0  0
  -15.5365  -30.2982   23.7658 H   0  0  0  0  0  0
  -15.8670  -28.0787   22.7134 H   0  0  0  0  0  0
  -24.5956  -30.7059   25.7778 H   0  0  0  0  0  0
  -24.8986  -32.2895   26.4866 H   0  0  0  0  0  0
  -25.8116  -30.8908   27.0227 H   0  0  0  0  0  0
  -26.2988  -29.6680   24.1267 H   0  0  0  0  0  0
  -27.4129  -29.7282   25.4721 H   0  0  0  0  0  0
  -27.8833  -30.4231   23.9405 H   0  0  0  0  0  0
  -27.2737  -33.3593   26.2061 H   0  0  0  0  0  0
  -28.3917  -32.6851   25.0300 H   0  0  0  0  0  0
  -28.0780  -31.8420   26.5391 H   0  0  0  0  0  0
  -28.2567  -38.0112   24.7544 H   0  0  0  0  0  0
  -28.1140  -36.2648   24.6231 H   0  0  0  0  0  0
  -27.2329  -37.1344   25.8866 H   0  0  0  0  0  0
  -20.9421  -29.8717   21.6779 H   0  0  0  0  0  0
  -26.0187  -38.2821   24.1441 H   0  0  0  0  0  0
  -29.0302  -22.3474   18.8766 H   0  0  0  0  0  0
  -27.9604  -24.7665   22.2766 H   0  0  0  0  0  0
  -28.6750  -20.5792   22.8169 H   0  0  0  0  0  0
  -29.0040  -18.6176   18.5330 H   0  0  0  0  0  0
  -30.0603  -20.0146   18.3418 H   0  0  0  0  0  0
  -28.3049  -20.2153   18.3663 H   0  0  0  0  0  0
  -29.9528  -18.9000   21.9801 H   0  0  0  0  0  0
  -28.2678  -18.5670   21.6735 H   0  0  0  0  0  0
  -27.6414  -24.8760   18.8155 H   0  0  0  0  0  0
  -29.3239  -25.0535   18.9885 H   0  0  0  0  0  0
  1 25  1  0  0  0
  1 30  2  0  0  0
  1 71  1  0  0  0
  2  3  1  0  0  0
  2 25  1  0  0  0
  2 84  1  0  0  0
  2 85  1  0  0  0
  3  4  1  0  0  0
  3 86  1  0  0  0
  3 87  1  0  0  0
  4  5  1  0  0  0
  4 88  1  0  0  0
  4 89  1  0  0  0
  5  6  1  0  0  0
  5 26  1  0  0  0
  5 90  1  0  0  0
  6 25  1  0  0  0
  6 91  1  0  0  0
  6 92  1  0  0  0
  7  8  2  0  0  0
  7 26  1  0  0  0
  7 29  1  0  0  0
  8  9  1  0  0  0
  8 22  1  0  0  0
  9 10  1  0  0  0
  9 27  2  0  0  0
 10 11  2  0  0  0
 10 15  1  0  0  0
 11 12  1  0  0  0
 11 93  1  0  0  0
 12 13  2  0  0  0
 12 94  1  0  0  0
 13 14  1  0  0  0
 13 31  1  0  0  0
 14 15  2  0  0  0
 14 95  1  0  0  0
 15 96  1  0  0  0
 16 17  2  0  0  0
 16 21  1  0  0  0
 16 31  1  0  0  0
 17 18  1  0  0  0
 17 97  1  0  0  0
 18 19  2  0  0  0
 18 98  1  0  0  0
 19 20  1  0  0  0
 19 24  1  0  0  0
 20 21  2  0  0  0
 20 99  1  0  0  0
 21 23  1  0  0  0
 22 28  1  0  0  0
 22 32  2  0  0  0
 26 27  1  0  0  0
 28100  1  0  0  0
 28101  1  0  0  0
 29102  1  0  0  0
 29103  1  0  0  0
 33 34  1  0  0  0
 33 66  1  0  0  0
 33 70  2  0  0  0
 34 36  1  0  0  0
 34 59  1  0  0  0
 34104  1  0  0  0
 35 44  2  0  0  0
 35 45  1  0  0  0
 35 68  1  0  0  0
 36 56  1  0  0  0
 36105  1  0  0  0
 37 39  1  0  0  0
 37 47  1  0  0  0
 37 66  1  0  0  0
 37106  1  0  0  0
 38 43  2  0  0  0
 38 46  1  0  0  0
 38 47  1  0  0  0
 39 64  1  0  0  0
 39 67  2  0  0  0
 40 52  1  0  0  0
 40 53  2  0  0  0
 40 58  1  0  0  0
 41107  1  0  0  0
 41108  1  0  0  0
 41109  1  0  0  0
 41 48  1  0  0  0
 42 43  1  0  0  0
 42 66  1  0  0  0
 42110  1  0  0  0
 42111  1  0  0  0
 43 44  1  0  0  0
 44112  1  0  0  0
 45 46  2  0  0  0
 45113  1  0  0  0
 46114  1  0  0  0
 47115  1  0  0  0
 47116  1  0  0  0
 48 56  1  0  0  0
 48 65  1  0  0  0
 48117  1  0  0  0
 49 50  1  0  0  0
 49 53  1  0  0  0
 49 64  1  0  0  0
 49118  1  0  0  0
 50 51  1  0  0  0
 50119  1  0  0  0
 50120  1  0  0  0
 51 52  1  0  0  0
 51121  1  0  0  0
 51122  1  0  0  0
 52123  1  0  0  0
 52124  1  0  0  0
 53 54  1  0  0  0
 54 55  2  0  0  0
 54125  1  0  0  0
 55 57  1  0  0  0
 55126  1  0  0  0
 56 69  2  0  0  0
 57 58  2  0  0  0
 57127  1  0  0  0
 58128  1  0  0  0
 59 60  1  0  0  0
 59 61  1  0  0  0
 59 62  1  0  0  0
 60129  1  0  0  0
 60130  1  0  0  0
 60131  1  0  0  0
 61132  1  0  0  0
 61133  1  0  0  0
 61134  1  0  0  0
 62135  1  0  0  0
 62136  1  0  0  0
 62137  1  0  0  0
 63 65  1  0  0  0
 63138  1  0  0  0
 63139  1  0  0  0
 63140  1  0  0  0
 64141  1  0  0  0
 65142  1  0  0  0
 68 81  1  0  0  0
 71 72  3  0  0  0
 72 80  1  0  0  0
 73 76  2  0  0  0
 73 77  1  0  0  0
 73143  1  0  0  0
 74 76  1  0  0  0
 74 78  2  0  0  0
 74144  1  0  0  0
 75 77  2  0  0  0
 75 78  1  0  0  0
 75145  1  0  0  0
 76 81  1  0  0  0
 77 82  1  0  0  0
 78 83  1  0  0  0
 79 82  1  0  0  0
 79146  1  0  0  0
 79147  1  0  0  0
 79148  1  0  0  0
 80 82  1  0  0  0
 80149  1  0  0  0
 80150  1  0  0  0
 81151  1  0  0  0
 81152  1  0  0  0
M  ISO  4   1 100  68 101  71 100  81 101
M  END
> <chiral flag>
0

> <version>
0

> <s_m_source_file>
/data/baiqing/PycharmProjects/Reinvent-master-3.2/result/LINK_invent/BTK/process_docking_weight1_custom_product_contain_oxygen_bond_distance_aromatic_linkinvent_7_9_3/rearranged_h_0016.sdf

> <i_m_source_file_index>
57

> <r_mmod_Potential_Energy-OPLS-2005>
152.325073242188

> <r_mmod_Stretch_Energy-OPLS-2005>
110.129661560059

> <r_mmod_Bend_Energy-OPLS-2005>
181.691909790039

> <r_mmod_Torsional_Energy-OPLS-2005>
164.138214111328

> <r_mmod_Improper_Torsional_Energy-OPLS-2005>
4.80884981155396

> <r_mmod_Van_der_Waal_Energy-OPLS-2005>
142.849960327148

> <r_mmod_Electrostatic_Energy-OPLS-2005>
-310.126434326172

> <r_mmod_Solvation_Energy-OPLS-2005>
-216.815902709961

> <b_mmod_Minimization_Converged-OPLS-2005>
0

> <r_mmod_RMS_Derivative-OPLS-2005>
2.70329213142395

$$$$
57
                    3D
 Structure written by MMmdl.
167175  0  0  1  0            999 V2000
  -30.6791  -14.5879   20.4361 C   0  0  0  0  0  0
  -30.4210  -12.3260   19.4853 C   0  0  0  0  0  0
  -29.5099  -12.3823   18.2416 C   0  0  0  0  0  0
  -28.0205  -12.3178   18.6375 C   0  0  0  0  0  0
  -27.6451  -13.2183   19.8484 C   0  0  2  0  0  0
  -28.6858  -13.1347   20.9805 C   0  0  0  0  0  0
  -25.2552  -13.8191   20.5701 C   0  0  0  0  0  0
  -24.1812  -13.0458   20.9199 C   0  0  0  0  0  0
  -24.6374  -11.6927   20.8763 C   0  0  0  0  0  0
  -23.9050  -10.4300   21.0414 C   0  0  0  0  0  0
  -24.3613   -9.4213   21.9187 C   0  0  0  0  0  0
  -23.6292   -8.2244   22.0752 C   0  0  0  0  0  0
  -22.4271   -8.0282   21.3545 C   0  0  0  0  0  0
  -21.9901   -9.0251   20.4647 C   0  0  0  0  0  0
  -22.7223  -10.2135   20.3059 C   0  0  0  0  0  0
  -21.6853   -6.0733   22.5274 C   0  0  0  0  0  0
  -21.4012   -6.5638   23.8205 C   0  0  0  0  0  0
  -21.3664   -5.6794   24.9170 C   0  0  0  0  0  0
  -21.6039   -4.3054   24.7224 C   0  0  0  0  0  0
  -21.8821   -3.8148   23.4346 C   0  0  0  0  0  0
  -21.9194   -4.6963   22.3402 C   0  0  0  0  0  0
  -22.7838  -13.5257   21.1858 C   0  0  0  0  0  0
  -22.1667   -4.2149   21.0980 F   0  0  0  0  0  0
  -21.5627   -3.4540   25.7740 F   0  0  0  0  0  0
  -30.0050  -13.4014   20.4036 N   0  0  0  0  0  0
  -26.2956  -12.9364   20.3298 N   0  0  0  0  0  0
  -25.9298  -11.6526   20.5788 N   0  0  0  0  0  0
  -22.0474  -12.8249   22.0410 N   0  0  0  0  0  0
  -25.4324  -15.1905   20.4129 N   0  0  0  0  0  0
  -31.8815  -14.6374   20.1739 O   0  0  0  0  0  0
  -21.6641   -6.8876   21.4234 O   0  0  0  0  0  0
  -22.3536  -14.5569   20.6708 O   0  0  0  0  0  0
  -24.6184  -31.8650   23.2060 C   0  0  0  0  0  0
  -25.9064  -32.4803   23.8361 C   0  0  1  0  0  0
  -27.2304  -27.3775   20.1145 C   0  0  0  0  0  0
  -25.5915  -33.8598   24.2299 N   0  0  0  0  0  0
  -23.4080  -30.4877   21.5472 C   0  0  2  0  0  0
  -24.8538  -28.9443   20.1147 C   0  0  0  0  0  0
  -22.7423  -29.4652   22.4965 C   0  0  0  0  0  0
  -18.0275  -28.1388   22.8493 C   0  0  0  0  0  0
  -24.1488  -36.7306   23.2637 C   0  0  0  0  0  0
  -25.9396  -30.8127   21.3666 C   0  0  0  0  0  0
  -26.0151  -29.4420   20.7150 C   0  0  0  0  0  0
  -27.2044  -28.6692   20.7055 C   0  0  0  0  0  0
  -26.0470  -26.9075   19.5014 C   0  0  0  0  0  0
  -24.8688  -27.6798   19.5007 C   0  0  0  0  0  0
  -23.6201  -29.8197   20.1618 C   0  0  0  0  0  0
  -25.4107  -36.3094   24.0330 C   0  0  1  0  0  0
  -20.5867  -28.3684   23.1307 C   0  0  2  0  0  0
  -20.6769  -26.9416   22.5419 C   0  0  0  0  0  0
  -19.5744  -26.6395   21.5215 C   0  0  0  0  0  0
  -18.1925  -26.7932   22.1628 C   0  0  0  0  0  0
  -19.1526  -28.8849   23.2896 C   0  0  0  0  0  0
  -18.9452  -30.1457   23.8909 C   0  0  0  0  0  0
  -17.6455  -30.6592   24.0573 C   0  0  0  0  0  0
  -25.9039  -34.9464   23.5101 C   0  0  0  0  0  0
  -16.5345  -29.9100   23.6329 C   0  0  0  0  0  0
  -16.7265  -28.6518   23.0343 C   0  0  0  0  0  0
  -26.4477  -31.6586   25.0702 C   0  0  0  0  0  0
  -25.3741  -31.3705   26.1449 C   0  0  0  0  0  0
  -27.0301  -30.3020   24.6091 C   0  0  0  0  0  0
  -27.6049  -32.4312   25.7481 C   0  0  0  0  0  0
  -27.5572  -37.1812   24.8461 C   0  0  0  0  0  0
  -21.4151  -29.3041   22.3696 N   0  0  0  0  0  0
  -26.4288  -37.3783   23.9404 N   0  0  0  0  0  0
  -24.6736  -31.0708   22.0983 N   0  0  0  0  0  0
  -23.4180  -28.8198   23.3025 O   0  0  0  0  0  0
  -28.4112  -26.6438   20.1383 O   0  0  0  0  0  0
  -26.5596  -34.8926   22.4664 O   0  0  0  0  0  0
  -23.5370  -32.1427   23.7435 O   0  0  0  0  0  0
  -29.9031  -16.9657   21.3535 C   0  0  0  0  0  0
  -29.2170  -17.8311   19.4226 C   0  0  0  0  0  0
  -29.4813  -18.1921   20.7119 C   0  0  0  0  0  0
  -29.9684  -15.9349   20.4313 C   0  0  0  0  0  0
  -29.3697  -25.1942   22.3869 C   0  0  0  0  0  0
  -27.0073  -24.4862   22.0382 C   0  0  0  0  0  0
  -29.5293  -15.8985   17.9004 C   0  0  0  0  0  0
  -26.9789  -19.6553   20.8241 C   0  0  0  0  0  0
  -29.4603  -19.6489   21.2560 C   0  0  0  0  0  0
  -28.9436  -22.9246   21.4170 C   0  0  0  0  0  0
  -28.2044  -21.8081   20.5981 C   0  0  0  0  0  0
  -28.4396  -25.1846   20.0512 C   0  0  0  0  0  0
  -28.4237  -24.4293   21.4324 C   0  0  0  0  0  0
  -29.5525  -16.5034   19.2213 N   0  0  0  0  0  0
  -28.1724  -20.4343   21.2380 N   0  3  1  0  0  0
  -31.4679  -12.4044   19.1883 H   0  0  0  0  0  0
  -30.3278  -11.3585   19.9806 H   0  0  0  0  0  0
  -29.7423  -11.5396   17.5881 H   0  0  0  0  0  0
  -29.7221  -13.2644   17.6481 H   0  0  0  0  0  0
  -27.8102  -11.2758   18.8802 H   0  0  0  0  0  0
  -27.3909  -12.5569   17.7798 H   0  0  0  0  0  0
  -27.6462  -14.2448   19.4902 H   0  0  0  0  0  0
  -28.6737  -12.1499   21.4493 H   0  0  0  0  0  0
  -28.4579  -13.8557   21.7673 H   0  0  0  0  0  0
  -25.2754   -9.5698   22.4769 H   0  0  0  0  0  0
  -24.0000   -7.4637   22.7471 H   0  0  0  0  0  0
  -21.0830   -8.8768   19.8956 H   0  0  0  0  0  0
  -22.3671  -10.9678   19.6180 H   0  0  0  0  0  0
  -21.2002   -7.6145   23.9712 H   0  0  0  0  0  0
  -21.1486   -6.0523   25.9075 H   0  0  0  0  0  0
  -22.0600   -2.7608   23.2844 H   0  0  0  0  0  0
  -22.4068  -11.9896   22.4784 H   0  0  0  0  0  0
  -21.1097  -13.1291   22.2623 H   0  0  0  0  0  0
  -24.6771  -15.8555   20.5329 H   0  0  0  0  0  0
  -26.3044  -15.6234   20.1339 H   0  0  0  0  0  0
  -26.7128  -32.5508   23.1115 H   0  0  0  0  0  0
  -25.0066  -33.9749   25.0444 H   0  0  0  0  0  0
  -22.6988  -31.3058   21.4069 H   0  0  0  0  0  0
  -23.3743  -35.9651   23.3319 H   0  0  0  0  0  0
  -24.3564  -36.8903   22.2047 H   0  0  0  0  0  0
  -23.7268  -37.6522   23.6646 H   0  0  0  0  0  0
  -26.0547  -31.5738   20.5945 H   0  0  0  0  0  0
  -26.8253  -30.8682   21.9872 H   0  0  0  0  0  0
  -28.1015  -29.0531   21.1711 H   0  0  0  0  0  0
  -26.0087  -25.9497   19.0073 H   0  0  0  0  0  0
  -23.9788  -27.2936   19.0235 H   0  0  0  0  0  0
  -23.7405  -30.5949   19.4043 H   0  0  0  0  0  0
  -22.7418  -29.2475   19.8593 H   0  0  0  0  0  0
  -25.1301  -36.1944   25.0827 H   0  0  0  0  0  0
  -20.9966  -28.3255   24.1425 H   0  0  0  0  0  0
  -20.5672  -26.2290   23.3604 H   0  0  0  0  0  0
  -21.6640  -26.7458   22.1211 H   0  0  0  0  0  0
  -19.6898  -25.6308   21.1238 H   0  0  0  0  0  0
  -19.6679  -27.3208   20.6747 H   0  0  0  0  0  0
  -17.4194  -26.6679   21.4034 H   0  0  0  0  0  0
  -18.0333  -26.0072   22.9024 H   0  0  0  0  0  0
  -19.7926  -30.7273   24.2285 H   0  0  0  0  0  0
  -17.5009  -31.6274   24.5170 H   0  0  0  0  0  0
  -15.5348  -30.3008   23.7644 H   0  0  0  0  0  0
  -15.8665  -28.0852   22.7041 H   0  0  0  0  0  0
  -24.5930  -30.7030   25.7790 H   0  0  0  0  0  0
  -24.8919  -32.2861   26.4881 H   0  0  0  0  0  0
  -25.8101  -30.8897   27.0214 H   0  0  0  0  0  0
  -26.2836  -29.6795   24.1138 H   0  0  0  0  0  0
  -27.4042  -29.7251   25.4558 H   0  0  0  0  0  0
  -27.8695  -30.4317   23.9255 H   0  0  0  0  0  0
  -27.2655  -33.3605   26.2072 H   0  0  0  0  0  0
  -28.3861  -32.6875   25.0312 H   0  0  0  0  0  0
  -28.0707  -31.8420   26.5389 H   0  0  0  0  0  0
  -28.2606  -38.0093   24.7487 H   0  0  0  0  0  0
  -28.1056  -36.2625   24.6325 H   0  0  0  0  0  0
  -27.2279  -37.1507   25.8860 H   0  0  0  0  0  0
  -20.9311  -29.8770   21.6918 H   0  0  0  0  0  0
  -26.0173  -38.2862   24.1401 H   0  0  0  0  0  0
  -30.2517  -16.8749   22.3733 H   0  0  0  0  0  0
  -28.8967  -18.4391   18.5847 H   0  0  0  0  0  0
  -29.4167  -24.7284   23.3721 H   0  0  0  0  0  0
  -29.0465  -26.2239   22.5446 H   0  0  0  0  0  0
  -30.3871  -25.2327   21.9947 H   0  0  0  0  0  0
  -26.9736  -24.0195   23.0228 H   0  0  0  0  0  0
  -26.2709  -23.9871   21.4102 H   0  0  0  0  0  0
  -26.6727  -25.5164   22.1634 H   0  0  0  0  0  0
  -29.4361  -16.6696   17.1350 H   0  0  0  0  0  0
  -28.6734  -15.2338   17.8045 H   0  0  0  0  0  0
  -30.4576  -15.3613   17.7118 H   0  0  0  0  0  0
  -26.9101  -18.7091   21.3620 H   0  0  0  0  0  0
  -26.9904  -19.4473   19.7548 H   0  0  0  0  0  0
  -26.0637  -20.2060   21.0407 H   0  0  0  0  0  0
  -30.2272  -20.2061   20.7160 H   0  0  0  0  0  0
  -29.8029  -19.6187   22.2907 H   0  0  0  0  0  0
  -29.9916  -22.9164   21.1121 H   0  0  0  0  0  0
  -28.9609  -22.5922   22.4559 H   0  0  0  0  0  0
  -28.6211  -21.7361   19.5920 H   0  0  0  0  0  0
  -27.1748  -22.1322   20.4501 H   0  0  0  0  0  0
  -27.6889  -24.7769   19.3781 H   0  0  0  0  0  0
  -29.3869  -24.9525   19.5631 H   0  0  0  0  0  0
  -27.9983  -20.6152   22.2149 H   0  0  0  0  0  0
  1 25  1  0  0  0
  1 30  2  0  0  0
  1 74  1  0  0  0
  2  3  1  0  0  0
  2 25  1  0  0  0
  2 86  1  0  0  0
  2 87  1  0  0  0
  3  4  1  0  0  0
  3 88  1  0  0  0
  3 89  1  0  0  0
  4  5  1  0  0  0
  4 90  1  0  0  0
  4 91  1  0  0  0
  5  6  1  0  0  0
  5 26  1  0  0  0
  5 92  1  0  0  0
  6 25  1  0  0  0
  6 93  1  0  0  0
  6 94  1  0  0  0
  7  8  2  0  0  0
  7 26  1  0  0  0
  7 29  1  0  0  0
  8  9  1  0  0  0
  8 22  1  0  0  0
  9 10  1  0  0  0
  9 27  2  0  0  0
 10 11  2  0  0  0
 10 15  1  0  0  0
 11 12  1  0  0  0
 11 95  1  0  0  0
 12 13  2  0  0  0
 12 96  1  0  0  0
 13 14  1  0  0  0
 13 31  1  0  0  0
 14 15  2  0  0  0
 14 97  1  0  0  0
 15 98  1  0  0  0
 16 17  2  0  0  0
 16 21  1  0  0  0
 16 31  1  0  0  0
 17 18  1  0  0  0
 17 99  1  0  0  0
 18 19  2  0  0  0
 18100  1  0  0  0
 19 20  1  0  0  0
 19 24  1  0  0  0
 20 21  2  0  0  0
 20101  1  0  0  0
 21 23  1  0  0  0
 22 28  1  0  0  0
 22 32  2  0  0  0
 26 27  1  0  0  0
 28102  1  0  0  0
 28103  1  0  0  0
 29104  1  0  0  0
 29105  1  0  0  0
 33 34  1  0  0  0
 33 66  1  0  0  0
 33 70  2  0  0  0
 34 36  1  0  0  0
 34 59  1  0  0  0
 34106  1  0  0  0
 35 44  2  0  0  0
 35 45  1  0  0  0
 35 68  1  0  0  0
 36 56  1  0  0  0
 36107  1  0  0  0
 37 39  1  0  0  0
 37 47  1  0  0  0
 37 66  1  0  0  0
 37108  1  0  0  0
 38 43  2  0  0  0
 38 46  1  0  0  0
 38 47  1  0  0  0
 39 64  1  0  0  0
 39 67  2  0  0  0
 40 52  1  0  0  0
 40 53  2  0  0  0
 40 58  1  0  0  0
 41109  1  0  0  0
 41110  1  0  0  0
 41111  1  0  0  0
 41 48  1  0  0  0
 42 43  1  0  0  0
 42 66  1  0  0  0
 42112  1  0  0  0
 42113  1  0  0  0
 43 44  1  0  0  0
 44114  1  0  0  0
 45 46  2  0  0  0
 45115  1  0  0  0
 46116  1  0  0  0
 47117  1  0  0  0
 47118  1  0  0  0
 48 56  1  0  0  0
 48 65  1  0  0  0
 48119  1  0  0  0
 49 50  1  0  0  0
 49 53  1  0  0  0
 49 64  1  0  0  0
 49120  1  0  0  0
 50 51  1  0  0  0
 50121  1  0  0  0
 50122  1  0  0  0
 51 52  1  0  0  0
 51123  1  0  0  0
 51124  1  0  0  0
 52125  1  0  0  0
 52126  1  0  0  0
 53 54  1  0  0  0
 54 55  2  0  0  0
 54127  1  0  0  0
 55 57  1  0  0  0
 55128  1  0  0  0
 56 69  2  0  0  0
 57 58  2  0  0  0
 57129  1  0  0  0
 58130  1  0  0  0
 59 60  1  0  0  0
 59 61  1  0  0  0
 59 62  1  0  0  0
 60131  1  0  0  0
 60132  1  0  0  0
 60133  1  0  0  0
 61134  1  0  0  0
 61135  1  0  0  0
 61136  1  0  0  0
 62137  1  0  0  0
 62138  1  0  0  0
 62139  1  0  0  0
 63 65  1  0  0  0
 63140  1  0  0  0
 63141  1  0  0  0
 63142  1  0  0  0
 64143  1  0  0  0
 65144  1  0  0  0
 68 82  1  0  0  0
 71 73  1  0  0  0
 71 74  2  0  0  0
 71145  1  0  0  0
 72 73  2  0  0  0
 72 84  1  0  0  0
 72146  1  0  0  0
 73 79  1  0  0  0
 74 84  1  0  0  0
 75147  1  0  0  0
 75148  1  0  0  0
 75149  1  0  0  0
 75 83  1  0  0  0
 76 83  1  0  0  0
 76150  1  0  0  0
 76151  1  0  0  0
 76152  1  0  0  0
 77 84  1  0  0  0
 77153  1  0  0  0
 77154  1  0  0  0
 77155  1  0  0  0
 78156  1  0  0  0
 78157  1  0  0  0
 78158  1  0  0  0
 78 85  1  0  0  0
 79 85  1  0  0  0
 79159  1  0  0  0
 79160  1  0  0  0
 80 81  1  0  0  0
 80 83  1  0  0  0
 80161  1  0  0  0
 80162  1  0  0  0
 81 85  1  0  0  0
 81163  1  0  0  0
 81164  1  0  0  0
 82 83  1  0  0  0
 82165  1  0  0  0
 82166  1  0  0  0
 85167  1  0  0  0
M  CHG  1  85   1
M  ISO  4   1 100  68 101  74 100  82 101
M  END
> <chiral flag>
0

> <version>
0

> <s_m_source_file>
/data/baiqing/PycharmProjects/Reinvent-master-3.2/result/LINK_invent/BTK/process_docking_weight1_custom_product_contain_oxygen_bond_distance_aromatic_linkinvent_7_9_3/rearranged_h_0016.sdf

> <i_m_source_file_index>
58

> <r_mmod_Potential_Energy-OPLS-2005>
46.1024475097656

> <r_mmod_Stretch_Energy-OPLS-2005>
60.4823455810547

> <r_mmod_Bend_Energy-OPLS-2005>
150.735397338867

> <r_mmod_Torsional_Energy-OPLS-2005>
257.567138671875

> <r_mmod_Improper_Torsional_Energy-OPLS-2005>
11.1560525894165

> <r_mmod_Van_der_Waal_Energy-OPLS-2005>
117.742599487305

> <r_mmod_Electrostatic_Energy-OPLS-2005>
-167.51139831543

> <r_mmod_Solvation_Energy-OPLS-2005>
-422.751770019531

> <b_mmod_Minimization_Converged-OPLS-2005>
0

> <r_mmod_RMS_Derivative-OPLS-2005>
1.72140860557556

$$$$
58
                    3D
 Structure written by MMmdl.
164172  0  0  1  0            999 V2000
  -30.7460  -14.4585   20.6148 C   0  0  0  0  0  0
  -30.4176  -12.3205   19.4141 C   0  0  0  0  0  0
  -29.4854  -12.5097   18.2018 C   0  0  0  0  0  0
  -28.0114  -12.3552   18.6214 C   0  0  0  0  0  0
  -27.6572  -13.2027   19.8708 C   0  0  2  0  0  0
  -28.7026  -13.0067   20.9927 C   0  0  0  0  0  0
  -25.2580  -13.8152   20.5686 C   0  0  0  0  0  0
  -24.1829  -13.0436   20.9184 C   0  0  0  0  0  0
  -24.6380  -11.6900   20.8751 C   0  0  0  0  0  0
  -23.9043  -10.4290   21.0419 C   0  0  0  0  0  0
  -24.3600   -9.4207   21.9197 C   0  0  0  0  0  0
  -23.6282   -8.2240   22.0762 C   0  0  0  0  0  0
  -22.4267   -8.0274   21.3547 C   0  0  0  0  0  0
  -21.9898   -9.0248   20.4649 C   0  0  0  0  0  0
  -22.7222  -10.2128   20.3064 C   0  0  0  0  0  0
  -21.6847   -6.0733   22.5280 C   0  0  0  0  0  0
  -21.4011   -6.5639   23.8213 C   0  0  0  0  0  0
  -21.3657   -5.6792   24.9176 C   0  0  0  0  0  0
  -21.6043   -4.3056   24.7224 C   0  0  0  0  0  0
  -21.8818   -3.8148   23.4346 C   0  0  0  0  0  0
  -21.9190   -4.6962   22.3404 C   0  0  0  0  0  0
  -22.7855  -13.5245   21.1844 C   0  0  0  0  0  0
  -22.1659   -4.2151   21.0980 F   0  0  0  0  0  0
  -21.5627   -3.4539   25.7736 F   0  0  0  0  0  0
  -30.0347  -13.3071   20.4383 N   0  0  0  0  0  0
  -26.3007  -12.9309   20.3368 N   0  0  0  0  0  0
  -25.9303  -11.6477   20.5782 N   0  0  0  0  0  0
  -22.0484  -12.8240   22.0393 N   0  0  0  0  0  0
  -25.4307  -15.1868   20.4081 N   0  0  0  0  0  0
  -31.8433  -14.6471   20.0797 O   0  0  0  0  0  0
  -21.6633   -6.8872   21.4242 O   0  0  0  0  0  0
  -22.3554  -14.5560   20.6700 O   0  0  0  0  0  0
  -24.6171  -31.8672   23.2103 C   0  0  0  0  0  0
  -25.9056  -32.4822   23.8403 C   0  0  1  0  0  0
  -27.2284  -27.4179   20.0875 C   0  0  0  0  0  0
  -25.5897  -33.8620   24.2327 N   0  0  0  0  0  0
  -23.4040  -30.4935   21.5523 C   0  0  2  0  0  0
  -24.8475  -28.9621   20.1130 C   0  0  0  0  0  0
  -22.7419  -29.4657   22.4988 C   0  0  0  0  0  0
  -18.0267  -28.1368   22.8477 C   0  0  0  0  0  0
  -24.1488  -36.7315   23.2637 C   0  0  0  0  0  0
  -25.9366  -30.8274   21.3658 C   0  0  0  0  0  0
  -26.0117  -29.4626   20.7086 C   0  0  0  0  0  0
  -27.2049  -28.6995   20.6908 C   0  0  0  0  0  0
  -26.0404  -26.9428   19.4813 C   0  0  0  0  0  0
  -24.8576  -27.7016   19.4970 C   0  0  0  0  0  0
  -23.6111  -29.8304   20.1656 C   0  0  0  0  0  0
  -25.4110  -36.3114   24.0338 C   0  0  1  0  0  0
  -20.5863  -28.3658   23.1310 C   0  0  2  0  0  0
  -20.6762  -26.9390   22.5411 C   0  0  0  0  0  0
  -19.5745  -26.6373   21.5206 C   0  0  0  0  0  0
  -18.1920  -26.7912   22.1606 C   0  0  0  0  0  0
  -19.1520  -28.8826   23.2887 C   0  0  0  0  0  0
  -18.9455  -30.1432   23.8906 C   0  0  0  0  0  0
  -17.6460  -30.6575   24.0565 C   0  0  0  0  0  0
  -25.9035  -34.9477   23.5129 C   0  0  0  0  0  0
  -16.5347  -29.9081   23.6330 C   0  0  0  0  0  0
  -16.7259  -28.6500   23.0340 C   0  0  0  0  0  0
  -26.4468  -31.6602   25.0738 C   0  0  0  0  0  0
  -25.3717  -31.3698   26.1475 C   0  0  0  0  0  0
  -27.0312  -30.3051   24.6109 C   0  0  0  0  0  0
  -27.6049  -32.4312   25.7495 C   0  0  0  0  0  0
  -27.5582  -37.1812   24.8461 C   0  0  0  0  0  0
  -21.4144  -29.3034   22.3731 N   0  0  0  0  0  0
  -26.4293  -37.3800   23.9408 N   0  0  0  0  0  0
  -24.6714  -31.0766   22.1012 N   0  0  0  0  0  0
  -23.4192  -28.8190   23.3023 O   0  0  0  0  0  0
  -28.3904  -26.6606   20.1108 O   0  0  0  0  0  0
  -26.5607  -34.8927   22.4699 O   0  0  0  0  0  0
  -23.5358  -32.1423   23.7490 O   0  0  0  0  0  0
  -30.0155  -18.4479   19.8158 C   0  0  0  0  0  0
  -30.2544  -19.8407   19.7801 C   0  0  0  0  0  0
  -29.3653  -18.6299   22.1423 C   0  0  0  0  0  0
  -29.5611  -17.8267   20.9987 C   0  0  0  0  0  0
  -29.6070  -20.0256   22.1189 C   0  0  0  0  0  0
  -30.0579  -20.6522   20.9209 C   0  0  0  0  0  0
  -29.3587  -20.8062   23.4014 C   0  0  0  0  0  0
  -31.3484  -22.5314   21.7482 C   0  0  0  0  0  0
  -31.0618  -15.8144   22.5961 C   0  0  0  0  0  0
  -29.1998  -16.3314   21.0192 C   0  0  0  0  0  0
  -29.4711  -24.4125   20.3994 C   0  0  0  0  0  0
  -29.1750  -22.8848   20.4904 C   0  0  0  0  0  0
  -28.2326  -25.2329   19.9699 C   0  0  0  0  0  0
  -30.3342  -22.0378   20.8177 N   0  0  0  0  0  0
  -30.2347  -15.3744   21.4709 N   0  0  0  0  0  0
  -31.4601  -12.4155   19.1060 H   0  0  0  0  0  0
  -30.3212  -11.3111   19.8177 H   0  0  0  0  0  0
  -29.7287  -11.7856   17.4230 H   0  0  0  0  0  0
  -29.6426  -13.4968   17.7633 H   0  0  0  0  0  0
  -27.8336  -11.2991   18.8290 H   0  0  0  0  0  0
  -27.3537  -12.6166   17.7913 H   0  0  0  0  0  0
  -27.6872  -14.2424   19.5525 H   0  0  0  0  0  0
  -28.6843  -11.9775   21.3549 H   0  0  0  0  0  0
  -28.4550  -13.6223   21.8578 H   0  0  0  0  0  0
  -25.2743   -9.5684   22.4772 H   0  0  0  0  0  0
  -23.9988   -7.4635   22.7489 H   0  0  0  0  0  0
  -21.0827   -8.8766   19.8957 H   0  0  0  0  0  0
  -22.3686  -10.9668   19.6170 H   0  0  0  0  0  0
  -21.2007   -7.6146   23.9715 H   0  0  0  0  0  0
  -21.1477   -6.0524   25.9076 H   0  0  0  0  0  0
  -22.0599   -2.7609   23.2847 H   0  0  0  0  0  0
  -22.4074  -11.9875   22.4755 H   0  0  0  0  0  0
  -21.1117  -13.1297   22.2619 H   0  0  0  0  0  0
  -24.6626  -15.8405   20.5126 H   0  0  0  0  0  0
  -26.2785  -15.6256   20.0748 H   0  0  0  0  0  0
  -26.7130  -32.5520   23.1166 H   0  0  0  0  0  0
  -25.0060  -33.9791   25.0481 H   0  0  0  0  0  0
  -22.6930  -31.3110   21.4160 H   0  0  0  0  0  0
  -23.3752  -35.9644   23.3306 H   0  0  0  0  0  0
  -24.3582  -36.8923   22.2049 H   0  0  0  0  0  0
  -23.7237  -37.6520   23.6651 H   0  0  0  0  0  0
  -26.0525  -31.5942   20.5984 H   0  0  0  0  0  0
  -26.8244  -30.8775   21.9850 H   0  0  0  0  0  0
  -28.1027  -29.0815   21.1567 H   0  0  0  0  0  0
  -25.9999  -25.9831   18.9879 H   0  0  0  0  0  0
  -23.9639  -27.3119   19.0299 H   0  0  0  0  0  0
  -23.7189  -30.6083   19.4087 H   0  0  0  0  0  0
  -22.7334  -29.2528   19.8686 H   0  0  0  0  0  0
  -25.1288  -36.1983   25.0830 H   0  0  0  0  0  0
  -20.9945  -28.3215   24.1429 H   0  0  0  0  0  0
  -20.5649  -26.2266   23.3597 H   0  0  0  0  0  0
  -21.6639  -26.7420   22.1217 H   0  0  0  0  0  0
  -19.6922  -25.6289   21.1217 H   0  0  0  0  0  0
  -19.6697  -27.3198   20.6747 H   0  0  0  0  0  0
  -17.4195  -26.6654   21.3999 H   0  0  0  0  0  0
  -18.0320  -26.0038   22.8986 H   0  0  0  0  0  0
  -19.7935  -30.7236   24.2273 H   0  0  0  0  0  0
  -17.5021  -31.6254   24.5164 H   0  0  0  0  0  0
  -15.5351  -30.2994   23.7646 H   0  0  0  0  0  0
  -15.8649  -28.0833   22.7048 H   0  0  0  0  0  0
  -24.5926  -30.7005   25.7810 H   0  0  0  0  0  0
  -24.8863  -32.2844   26.4897 H   0  0  0  0  0  0
  -25.8058  -30.8897   27.0254 H   0  0  0  0  0  0
  -26.2871  -29.6810   24.1146 H   0  0  0  0  0  0
  -27.4087  -29.7286   25.4565 H   0  0  0  0  0  0
  -27.8696  -30.4399   23.9270 H   0  0  0  0  0  0
  -27.2698  -33.3622   26.2082 H   0  0  0  0  0  0
  -28.3856  -32.6848   25.0311 H   0  0  0  0  0  0
  -28.0720  -31.8422   26.5398 H   0  0  0  0  0  0
  -28.2598  -38.0111   24.7523 H   0  0  0  0  0  0
  -28.1078  -36.2645   24.6269 H   0  0  0  0  0  0
  -27.2301  -37.1446   25.8862 H   0  0  0  0  0  0
  -20.9303  -29.8781   21.6977 H   0  0  0  0  0  0
  -26.0181  -38.2878   24.1412 H   0  0  0  0  0  0
  -30.1639  -17.8630   18.9184 H   0  0  0  0  0  0
  -30.5974  -20.2890   18.8582 H   0  0  0  0  0  0
  -29.0086  -18.1679   23.0522 H   0  0  0  0  0  0
  -28.7560  -20.2331   24.1055 H   0  0  0  0  0  0
  -28.8295  -21.7380   23.2060 H   0  0  0  0  0  0
  -30.3036  -21.0392   23.8918 H   0  0  0  0  0  0
  -32.0029  -21.7325   22.1014 H   0  0  0  0  0  0
  -30.8925  -23.0065   22.6179 H   0  0  0  0  0  0
  -31.9786  -23.2745   21.2578 H   0  0  0  0  0  0
  -30.4452  -16.2300   23.3928 H   0  0  0  0  0  0
  -31.7805  -16.5715   22.2796 H   0  0  0  0  0  0
  -31.6195  -14.9794   23.0251 H   0  0  0  0  0  0
  -28.8635  -16.0723   20.0142 H   0  0  0  0  0  0
  -28.3255  -16.1965   21.6578 H   0  0  0  0  0  0
  -30.2867  -24.6006   19.7006 H   0  0  0  0  0  0
  -29.8007  -24.7782   21.3721 H   0  0  0  0  0  0
  -28.7792  -22.5499   19.5301 H   0  0  0  0  0  0
  -28.3790  -22.7105   21.2152 H   0  0  0  0  0  0
  -27.3902  -24.9013   20.5798 H   0  0  0  0  0  0
  -27.9961  -24.9918   18.9329 H   0  0  0  0  0  0
  1 25  1  0  0  0
  1 30  2  0  0  0
  1 85  1  0  0  0
  2  3  1  0  0  0
  2 25  1  0  0  0
  2 86  1  0  0  0
  2 87  1  0  0  0
  3  4  1  0  0  0
  3 88  1  0  0  0
  3 89  1  0  0  0
  4  5  1  0  0  0
  4 90  1  0  0  0
  4 91  1  0  0  0
  5  6  1  0  0  0
  5 26  1  0  0  0
  5 92  1  0  0  0
  6 25  1  0  0  0
  6 93  1  0  0  0
  6 94  1  0  0  0
  7  8  2  0  0  0
  7 26  1  0  0  0
  7 29  1  0  0  0
  8  9  1  0  0  0
  8 22  1  0  0  0
  9 10  1  0  0  0
  9 27  2  0  0  0
 10 11  2  0  0  0
 10 15  1  0  0  0
 11 12  1  0  0  0
 11 95  1  0  0  0
 12 13  2  0  0  0
 12 96  1  0  0  0
 13 14  1  0  0  0
 13 31  1  0  0  0
 14 15  2  0  0  0
 14 97  1  0  0  0
 15 98  1  0  0  0
 16 17  2  0  0  0
 16 21  1  0  0  0
 16 31  1  0  0  0
 17 18  1  0  0  0
 17 99  1  0  0  0
 18 19  2  0  0  0
 18100  1  0  0  0
 19 20  1  0  0  0
 19 24  1  0  0  0
 20 21  2  0  0  0
 20101  1  0  0  0
 21 23  1  0  0  0
 22 28  1  0  0  0
 22 32  2  0  0  0
 26 27  1  0  0  0
 28102  1  0  0  0
 28103  1  0  0  0
 29104  1  0  0  0
 29105  1  0  0  0
 33 34  1  0  0  0
 33 66  1  0  0  0
 33 70  2  0  0  0
 34 36  1  0  0  0
 34 59  1  0  0  0
 34106  1  0  0  0
 35 44  2  0  0  0
 35 45  1  0  0  0
 35 68  1  0  0  0
 36 56  1  0  0  0
 36107  1  0  0  0
 37 39  1  0  0  0
 37 47  1  0  0  0
 37 66  1  0  0  0
 37108  1  0  0  0
 38 43  2  0  0  0
 38 46  1  0  0  0
 38 47  1  0  0  0
 39 64  1  0  0  0
 39 67  2  0  0  0
 40 52  1  0  0  0
 40 53  2  0  0  0
 40 58  1  0  0  0
 41109  1  0  0  0
 41110  1  0  0  0
 41111  1  0  0  0
 41 48  1  0  0  0
 42 43  1  0  0  0
 42 66  1  0  0  0
 42112  1  0  0  0
 42113  1  0  0  0
 43 44  1  0  0  0
 44114  1  0  0  0
 45 46  2  0  0  0
 45115  1  0  0  0
 46116  1  0  0  0
 47117  1  0  0  0
 47118  1  0  0  0
 48 56  1  0  0  0
 48 65  1  0  0  0
 48119  1  0  0  0
 49 50  1  0  0  0
 49 53  1  0  0  0
 49 64  1  0  0  0
 49120  1  0  0  0
 50 51  1  0  0  0
 50121  1  0  0  0
 50122  1  0  0  0
 51 52  1  0  0  0
 51123  1  0  0  0
 51124  1  0  0  0
 52125  1  0  0  0
 52126  1  0  0  0
 53 54  1  0  0  0
 54 55  2  0  0  0
 54127  1  0  0  0
 55 57  1  0  0  0
 55128  1  0  0  0
 56 69  2  0  0  0
 57 58  2  0  0  0
 57129  1  0  0  0
 58130  1  0  0  0
 59 60  1  0  0  0
 59 61  1  0  0  0
 59 62  1  0  0  0
 60131  1  0  0  0
 60132  1  0  0  0
 60133  1  0  0  0
 61134  1  0  0  0
 61135  1  0  0  0
 61136  1  0  0  0
 62137  1  0  0  0
 62138  1  0  0  0
 62139  1  0  0  0
 63 65  1  0  0  0
 63140  1  0  0  0
 63141  1  0  0  0
 63142  1  0  0  0
 64143  1  0  0  0
 65144  1  0  0  0
 68 83  1  0  0  0
 71 72  2  0  0  0
 71 74  1  0  0  0
 71145  1  0  0  0
 72 76  1  0  0  0
 72146  1  0  0  0
 73 74  2  0  0  0
 73 75  1  0  0  0
 73147  1  0  0  0
 74 80  1  0  0  0
 75 76  2  0  0  0
 75 77  1  0  0  0
 76 84  1  0  0  0
 77148  1  0  0  0
 77149  1  0  0  0
 77150  1  0  0  0
 78 84  1  0  0  0
 78151  1  0  0  0
 78152  1  0  0  0
 78153  1  0  0  0
 79 85  1  0  0  0
 79154  1  0  0  0
 79155  1  0  0  0
 79156  1  0  0  0
 80 85  1  0  0  0
 80157  1  0  0  0
 80158  1  0  0  0
 81 82  1  0  0  0
 81 83  1  0  0  0
 81159  1  0  0  0
 81160  1  0  0  0
 82 84  1  0  0  0
 82161  1  0  0  0
 82162  1  0  0  0
 83163  1  0  0  0
 83164  1  0  0  0
M  ISO  4   1 100  68 101  83 101  85 100
M  END
> <chiral flag>
0

> <version>
0

> <s_m_source_file>
/data/baiqing/PycharmProjects/Reinvent-master-3.2/result/LINK_invent/BTK/process_docking_weight1_custom_product_contain_oxygen_bond_distance_aromatic_linkinvent_7_9_3/rearranged_h_0016.sdf

> <i_m_source_file_index>
59

> <r_mmod_Potential_Energy-OPLS-2005>
73.5698623657227

> <r_mmod_Stretch_Energy-OPLS-2005>
43.0171127319336

> <r_mmod_Bend_Energy-OPLS-2005>
101.42253112793

> <r_mmod_Torsional_Energy-OPLS-2005>
294.487213134766

> <r_mmod_Improper_Torsional_Energy-OPLS-2005>
6.62862205505371

> <r_mmod_Van_der_Waal_Energy-OPLS-2005>
156.981826782227

> <r_mmod_Electrostatic_Energy-OPLS-2005>
-332.183929443359

> <r_mmod_Solvation_Energy-OPLS-2005>
-210.311737060547

> <b_mmod_Minimization_Converged-OPLS-2005>
0

> <r_mmod_RMS_Derivative-OPLS-2005>
1.05309820175171

$$$$
59
                    3D
 Structure written by MMmdl.
161169  0  0  1  0            999 V2000
  -30.7335  -14.7973   20.4624 C   0  0  0  0  0  0
  -30.3737  -12.5051   19.5188 C   0  0  0  0  0  0
  -29.4851  -12.5236   18.2621 C   0  0  0  0  0  0
  -28.0214  -12.3368   18.6767 C   0  0  0  0  0  0
  -27.6198  -13.2660   19.8507 C   0  0  2  0  0  0
  -28.6599  -13.3247   20.9936 C   0  0  0  0  0  0
  -25.2408  -13.8276   20.5769 C   0  0  0  0  0  0
  -24.1737  -13.0471   20.9246 C   0  0  0  0  0  0
  -24.6379  -11.6968   20.8794 C   0  0  0  0  0  0
  -23.9077  -10.4322   21.0427 C   0  0  0  0  0  0
  -24.3626   -9.4213   21.9194 C   0  0  0  0  0  0
  -23.6303   -8.2245   22.0745 C   0  0  0  0  0  0
  -22.4294   -8.0289   21.3523 C   0  0  0  0  0  0
  -21.9932   -9.0263   20.4623 C   0  0  0  0  0  0
  -22.7253  -10.2155   20.3056 C   0  0  0  0  0  0
  -21.6869   -6.0738   22.5264 C   0  0  0  0  0  0
  -21.4034   -6.5648   23.8190 C   0  0  0  0  0  0
  -21.3669   -5.6804   24.9152 C   0  0  0  0  0  0
  -21.6053   -4.3063   24.7209 C   0  0  0  0  0  0
  -21.8828   -3.8151   23.4329 C   0  0  0  0  0  0
  -21.9212   -4.6968   22.3388 C   0  0  0  0  0  0
  -22.7753  -13.5206   21.1890 C   0  0  0  0  0  0
  -22.1674   -4.2156   21.0970 F   0  0  0  0  0  0
  -21.5615   -3.4549   25.7726 F   0  0  0  0  0  0
  -29.9543  -13.6485   20.3884 N   0  0  0  0  0  0
  -26.2836  -12.9542   20.3381 N   0  0  0  0  0  0
  -25.9320  -11.6644   20.5842 N   0  0  0  0  0  0
  -22.0455  -12.8130   22.0437 N   0  0  0  0  0  0
  -25.4103  -15.1995   20.4172 N   0  0  0  0  0  0
  -31.9051  -14.6521   20.1010 O   0  0  0  0  0  0
  -21.6659   -6.8886   21.4230 O   0  0  0  0  0  0
  -22.3417  -14.5500   20.6734 O   0  0  0  0  0  0
  -24.6324  -31.8554   23.2043 C   0  0  0  0  0  0
  -25.9163  -32.4754   23.8365 C   0  0  1  0  0  0
  -27.1916  -27.2274   20.1324 C   0  0  0  0  0  0
  -25.5965  -33.8567   24.2281 N   0  0  0  0  0  0
  -23.4292  -30.4806   21.5494 C   0  0  2  0  0  0
  -24.8722  -28.9363   20.1091 C   0  0  0  0  0  0
  -22.7505  -29.4578   22.4921 C   0  0  0  0  0  0
  -18.0278  -28.1382   22.8454 C   0  0  0  0  0  0
  -24.1516  -36.7273   23.2637 C   0  0  0  0  0  0
  -25.9809  -30.7516   21.3969 C   0  0  0  0  0  0
  -26.0483  -29.3773   20.7310 C   0  0  0  0  0  0
  -27.2090  -28.5346   20.7363 C   0  0  0  0  0  0
  -25.9957  -26.8781   19.4633 C   0  0  0  0  0  0
  -24.8547  -27.6971   19.4615 C   0  0  0  0  0  0
  -23.6486  -29.8295   20.1609 C   0  0  0  0  0  0
  -25.4135  -36.3067   24.0333 C   0  0  1  0  0  0
  -20.5879  -28.3689   23.1267 C   0  0  2  0  0  0
  -20.6808  -26.9421   22.5402 C   0  0  0  0  0  0
  -19.5781  -26.6381   21.5197 C   0  0  0  0  0  0
  -18.1936  -26.7924   22.1594 C   0  0  0  0  0  0
  -19.1538  -28.8841   23.2855 C   0  0  0  0  0  0
  -18.9472  -30.1431   23.8881 C   0  0  0  0  0  0
  -17.6485  -30.6589   24.0532 C   0  0  0  0  0  0
  -25.9078  -34.9430   23.5105 C   0  0  0  0  0  0
  -16.5359  -29.9086   23.6353 C   0  0  0  0  0  0
  -16.7271  -28.6505   23.0368 C   0  0  0  0  0  0
  -26.4534  -31.6588   25.0767 C   0  0  0  0  0  0
  -25.3750  -31.3703   26.1464 C   0  0  0  0  0  0
  -27.0427  -30.3010   24.6309 C   0  0  0  0  0  0
  -27.6103  -32.4330   25.7514 C   0  0  0  0  0  0
  -27.5584  -37.1782   24.8455 C   0  0  0  0  0  0
  -21.4222  -29.3029   22.3664 N   0  0  0  0  0  0
  -26.4308  -37.3769   23.9405 N   0  0  0  0  0  0
  -24.7000  -31.0472   22.1055 N   0  0  0  0  0  0
  -23.4199  -28.8111   23.3014 O   0  0  0  0  0  0
  -28.2437  -26.2735   20.2090 O   0  0  0  0  0  0
  -26.5635  -34.8884   22.4665 O   0  0  0  0  0  0
  -23.5478  -32.1419   23.7311 O   0  0  0  0  0  0
  -28.7393  -20.1435   18.2878 C   0  0  0  0  0  0
  -28.6124  -19.3560   17.1380 C   0  0  0  0  0  0
  -28.8646  -17.3845   18.4977 C   0  0  0  0  0  0
  -28.9865  -18.1247   19.6995 C   0  0  0  0  0  0
  -28.8653  -19.6202   19.6050 C   0  0  0  0  0  0
  -28.6554  -17.9678   17.2460 C   0  0  0  0  0  0
  -29.2530  -20.3813   21.9399 C   0  0  0  0  0  0
  -31.5225  -17.0122   21.0819 C   0  0  0  0  0  0
  -29.1482  -17.0562   20.8763 C   0  0  0  0  0  0
  -28.8102  -23.5067   20.3849 C   0  0  0  0  0  0
  -28.1004  -22.0354   20.3845 C   0  0  0  0  0  0
  -27.8655  -24.8053   20.1087 C   0  0  0  0  0  0
  -28.8687  -20.7108   20.5786 N   0  0  0  0  0  0
  -30.3642  -16.1147   20.8604 N   0  0  0  0  0  0
  -28.5045  -17.1908   16.1493 F   0  0  0  0  0  0
  -31.4198  -12.5413   19.2122 H   0  0  0  0  0  0
  -30.2659  -11.5631   20.0572 H   0  0  0  0  0  0
  -29.7766  -11.7297   17.5746 H   0  0  0  0  0  0
  -29.6051  -13.4676   17.7262 H   0  0  0  0  0  0
  -27.8947  -11.2954   18.9646 H   0  0  0  0  0  0
  -27.3596  -12.4953   17.8241 H   0  0  0  0  0  0
  -27.5804  -14.2637   19.4157 H   0  0  0  0  0  0
  -28.7072  -12.3811   21.5381 H   0  0  0  0  0  0
  -28.3768  -14.0896   21.7177 H   0  0  0  0  0  0
  -25.2771   -9.5687   22.4785 H   0  0  0  0  0  0
  -24.0025   -7.4633   22.7445 H   0  0  0  0  0  0
  -21.0883   -8.8765   19.8907 H   0  0  0  0  0  0
  -22.3704  -10.9697   19.6162 H   0  0  0  0  0  0
  -21.2029   -7.6159   23.9689 H   0  0  0  0  0  0
  -21.1482   -6.0538   25.9058 H   0  0  0  0  0  0
  -22.0607   -2.7616   23.2830 H   0  0  0  0  0  0
  -22.4175  -11.9792   22.4747 H   0  0  0  0  0  0
  -21.1059  -13.1054   22.2724 H   0  0  0  0  0  0
  -24.6389  -15.8511   20.5111 H   0  0  0  0  0  0
  -26.2541  -15.6333   20.0675 H   0  0  0  0  0  0
  -26.7184  -32.5382   23.1061 H   0  0  0  0  0  0
  -25.0173  -33.9739   25.0456 H   0  0  0  0  0  0
  -22.7263  -31.3052   21.4092 H   0  0  0  0  0  0
  -23.3818  -35.9572   23.3293 H   0  0  0  0  0  0
  -24.3589  -36.8925   22.2054 H   0  0  0  0  0  0
  -23.7240  -37.6458   23.6683 H   0  0  0  0  0  0
  -26.1405  -31.5128   20.6337 H   0  0  0  0  0  0
  -26.8519  -30.7857   22.0409 H   0  0  0  0  0  0
  -28.0994  -28.8572   21.2578 H   0  0  0  0  0  0
  -25.8878  -25.9418   18.9404 H   0  0  0  0  0  0
  -23.9615  -27.3623   18.9530 H   0  0  0  0  0  0
  -23.7772  -30.6179   19.4189 H   0  0  0  0  0  0
  -22.7659  -29.2722   19.8444 H   0  0  0  0  0  0
  -25.1314  -36.1918   25.0831 H   0  0  0  0  0  0
  -20.9919  -28.3278   24.1408 H   0  0  0  0  0  0
  -20.5767  -26.2281   23.3609 H   0  0  0  0  0  0
  -21.6674  -26.7502   22.1151 H   0  0  0  0  0  0
  -19.7008  -25.6299   21.1236 H   0  0  0  0  0  0
  -19.6768  -27.3188   20.6728 H   0  0  0  0  0  0
  -17.4243  -26.6633   21.3989 H   0  0  0  0  0  0
  -18.0354  -26.0063   22.8983 H   0  0  0  0  0  0
  -19.7947  -30.7206   24.2303 H   0  0  0  0  0  0
  -17.5048  -31.6284   24.5107 H   0  0  0  0  0  0
  -15.5368  -30.2980   23.7717 H   0  0  0  0  0  0
  -15.8649  -28.0805   22.7148 H   0  0  0  0  0  0
  -24.5935  -30.7068   25.7737 H   0  0  0  0  0  0
  -24.8934  -32.2860   26.4911 H   0  0  0  0  0  0
  -25.8031  -30.8835   27.0233 H   0  0  0  0  0  0
  -26.3047  -29.6704   24.1346 H   0  0  0  0  0  0
  -27.4121  -29.7313   25.4843 H   0  0  0  0  0  0
  -27.8917  -30.4311   23.9594 H   0  0  0  0  0  0
  -27.2763  -33.3650   26.2080 H   0  0  0  0  0  0
  -28.3907  -32.6851   25.0325 H   0  0  0  0  0  0
  -28.0796  -31.8471   26.5433 H   0  0  0  0  0  0
  -28.2567  -38.0106   24.7536 H   0  0  0  0  0  0
  -28.1114  -36.2637   24.6262 H   0  0  0  0  0  0
  -27.2286  -37.1385   25.8847 H   0  0  0  0  0  0
  -20.9427  -29.8723   21.6827 H   0  0  0  0  0  0
  -26.0201  -38.2852   24.1425 H   0  0  0  0  0  0
  -28.7454  -21.2062   18.0986 H   0  0  0  0  0  0
  -28.4802  -19.8208   16.1733 H   0  0  0  0  0  0
  -28.9018  -16.3054   18.5250 H   0  0  0  0  0  0
  -30.2550  -19.9558   21.9800 H   0  0  0  0  0  0
  -28.5415  -19.6835   22.3812 H   0  0  0  0  0  0
  -29.2509  -21.2796   22.5614 H   0  0  0  0  0  0
  -32.0095  -17.2358   20.1302 H   0  0  0  0  0  0
  -32.2672  -16.5660   21.7441 H   0  0  0  0  0  0
  -31.2676  -17.9709   21.5320 H   0  0  0  0  0  0
  -28.2569  -16.4272   20.8791 H   0  0  0  0  0  0
  -29.1072  -17.5689   21.8378 H   0  0  0  0  0  0
  -29.5974  -23.5079   19.6325 H   0  0  0  0  0  0
  -29.3072  -23.6542   21.3412 H   0  0  0  0  0  0
  -27.4579  -21.9706   19.5074 H   0  0  0  0  0  0
  -27.3761  -22.0717   21.2015 H   0  0  0  0  0  0
  -26.9977  -24.6744   20.7571 H   0  0  0  0  0  0
  -27.5095  -24.6466   19.0910 H   0  0  0  0  0  0
  1 25  1  0  0  0
  1 30  2  0  0  0
  1 84  1  0  0  0
  2  3  1  0  0  0
  2 25  1  0  0  0
  2 86  1  0  0  0
  2 87  1  0  0  0
  3  4  1  0  0  0
  3 88  1  0  0  0
  3 89  1  0  0  0
  4  5  1  0  0  0
  4 90  1  0  0  0
  4 91  1  0  0  0
  5  6  1  0  0  0
  5 26  1  0  0  0
  5 92  1  0  0  0
  6 25  1  0  0  0
  6 93  1  0  0  0
  6 94  1  0  0  0
  7  8  2  0  0  0
  7 26  1  0  0  0
  7 29  1  0  0  0
  8  9  1  0  0  0
  8 22  1  0  0  0
  9 10  1  0  0  0
  9 27  2  0  0  0
 10 11  2  0  0  0
 10 15  1  0  0  0
 11 12  1  0  0  0
 11 95  1  0  0  0
 12 13  2  0  0  0
 12 96  1  0  0  0
 13 14  1  0  0  0
 13 31  1  0  0  0
 14 15  2  0  0  0
 14 97  1  0  0  0
 15 98  1  0  0  0
 16 17  2  0  0  0
 16 21  1  0  0  0
 16 31  1  0  0  0
 17 18  1  0  0  0
 17 99  1  0  0  0
 18 19  2  0  0  0
 18100  1  0  0  0
 19 20  1  0  0  0
 19 24  1  0  0  0
 20 21  2  0  0  0
 20101  1  0  0  0
 21 23  1  0  0  0
 22 28  1  0  0  0
 22 32  2  0  0  0
 26 27  1  0  0  0
 28102  1  0  0  0
 28103  1  0  0  0
 29104  1  0  0  0
 29105  1  0  0  0
 33 34  1  0  0  0
 33 66  1  0  0  0
 33 70  2  0  0  0
 34 36  1  0  0  0
 34 59  1  0  0  0
 34106  1  0  0  0
 35 44  2  0  0  0
 35 45  1  0  0  0
 35 68  1  0  0  0
 36 56  1  0  0  0
 36107  1  0  0  0
 37 39  1  0  0  0
 37 47  1  0  0  0
 37 66  1  0  0  0
 37108  1  0  0  0
 38 43  2  0  0  0
 38 46  1  0  0  0
 38 47  1  0  0  0
 39 64  1  0  0  0
 39 67  2  0  0  0
 40 52  1  0  0  0
 40 53  2  0  0  0
 40 58  1  0  0  0
 41109  1  0  0  0
 41110  1  0  0  0
 41111  1  0  0  0
 41 48  1  0  0  0
 42 43  1  0  0  0
 42 66  1  0  0  0
 42112  1  0  0  0
 42113  1  0  0  0
 43 44  1  0  0  0
 44114  1  0  0  0
 45 46  2  0  0  0
 45115  1  0  0  0
 46116  1  0  0  0
 47117  1  0  0  0
 47118  1  0  0  0
 48 56  1  0  0  0
 48 65  1  0  0  0
 48119  1  0  0  0
 49 50  1  0  0  0
 49 53  1  0  0  0
 49 64  1  0  0  0
 49120  1  0  0  0
 50 51  1  0  0  0
 50121  1  0  0  0
 50122  1  0  0  0
 51 52  1  0  0  0
 51123  1  0  0  0
 51124  1  0  0  0
 52125  1  0  0  0
 52126  1  0  0  0
 53 54  1  0  0  0
 54 55  2  0  0  0
 54127  1  0  0  0
 55 57  1  0  0  0
 55128  1  0  0  0
 56 69  2  0  0  0
 57 58  2  0  0  0
 57129  1  0  0  0
 58130  1  0  0  0
 59 60  1  0  0  0
 59 61  1  0  0  0
 59 62  1  0  0  0
 60131  1  0  0  0
 60132  1  0  0  0
 60133  1  0  0  0
 61134  1  0  0  0
 61135  1  0  0  0
 61136  1  0  0  0
 62137  1  0  0  0
 62138  1  0  0  0
 62139  1  0  0  0
 63 65  1  0  0  0
 63140  1  0  0  0
 63141  1  0  0  0
 63142  1  0  0  0
 64143  1  0  0  0
 65144  1  0  0  0
 68 82  1  0  0  0
 71 72  2  0  0  0
 71 75  1  0  0  0
 71145  1  0  0  0
 72 76  1  0  0  0
 72146  1  0  0  0
 73 74  1  0  0  0
 73 76  2  0  0  0
 73147  1  0  0  0
 74 75  2  0  0  0
 74 79  1  0  0  0
 75 83  1  0  0  0
 76 85  1  0  0  0
 77 83  1  0  0  0
 77148  1  0  0  0
 77149  1  0  0  0
 77150  1  0  0  0
 78 84  1  0  0  0
 78151  1  0  0  0
 78152  1  0  0  0
 78153  1  0  0  0
 79 84  1  0  0  0
 79154  1  0  0  0
 79155  1  0  0  0
 80 81  1  0  0  0
 80 82  1  0  0  0
 80156  1  0  0  0
 80157  1  0  0  0
 81 83  1  0  0  0
 81158  1  0  0  0
 81159  1  0  0  0
 82160  1  0  0  0
 82161  1  0  0  0
M  ISO  4   1 100  68 101  82 101  84 100
M  END
> <chiral flag>
0

> <version>
0

> <s_m_source_file>
/data/baiqing/PycharmProjects/Reinvent-master-3.2/result/LINK_invent/BTK/process_docking_weight1_custom_product_contain_oxygen_bond_distance_aromatic_linkinvent_7_9_3/rearranged_h_0016.sdf

> <i_m_source_file_index>
60

> <r_mmod_Potential_Energy-OPLS-2005>
488.935272216797

> <r_mmod_Stretch_Energy-OPLS-2005>
174.558181762695

> <r_mmod_Bend_Energy-OPLS-2005>
325.215270996094

> <r_mmod_Torsional_Energy-OPLS-2005>
241.166839599609

> <r_mmod_Improper_Torsional_Energy-OPLS-2005>
3.40400290489197

> <r_mmod_Van_der_Waal_Energy-OPLS-2005>
163.425399780273

> <r_mmod_Electrostatic_Energy-OPLS-2005>
-326.079742431641

> <r_mmod_Solvation_Energy-OPLS-2005>
-218.295104980469

> <b_mmod_Minimization_Converged-OPLS-2005>
0

> <r_mmod_RMS_Derivative-OPLS-2005>
4.14008903503418

$$$$
60
                    3D
 Structure written by MMmdl.
154162  0  0  1  0            999 V2000
  -30.6591  -14.6868   20.3371 C   0  0  0  0  0  0
  -30.4466  -12.3829   19.4560 C   0  0  0  0  0  0
  -29.5061  -12.3539   18.2295 C   0  0  0  0  0  0
  -28.0281  -12.2716   18.6500 C   0  0  0  0  0  0
  -27.6459  -13.2182   19.8203 C   0  0  2  0  0  0
  -28.7038  -13.1924   20.9450 C   0  0  0  0  0  0
  -25.2615  -13.8212   20.5677 C   0  0  0  0  0  0
  -24.1864  -13.0451   20.9192 C   0  0  0  0  0  0
  -24.6432  -11.6938   20.8728 C   0  0  0  0  0  0
  -23.9116  -10.4286   21.0378 C   0  0  0  0  0  0
  -24.3628   -9.4193   21.9139 C   0  0  0  0  0  0
  -23.6296   -8.2234   22.0735 C   0  0  0  0  0  0
  -22.4273   -8.0293   21.3548 C   0  0  0  0  0  0
  -21.9903   -9.0265   20.4650 C   0  0  0  0  0  0
  -22.7263  -10.2141   20.3054 C   0  0  0  0  0  0
  -21.6885   -6.0723   22.5263 C   0  0  0  0  0  0
  -21.4009   -6.5612   23.8194 C   0  0  0  0  0  0
  -21.3650   -5.6766   24.9152 C   0  0  0  0  0  0
  -21.6059   -4.3035   24.7188 C   0  0  0  0  0  0
  -21.8836   -3.8136   23.4310 C   0  0  0  0  0  0
  -21.9198   -4.6949   22.3367 C   0  0  0  0  0  0
  -22.7883  -13.5238   21.1850 C   0  0  0  0  0  0
  -22.1679   -4.2149   21.0941 F   0  0  0  0  0  0
  -21.5625   -3.4504   25.7690 F   0  0  0  0  0  0
  -30.0020  -13.4834   20.3289 N   0  0  0  0  0  0
  -26.3000  -12.9376   20.3202 N   0  0  0  0  0  0
  -25.9360  -11.6546   20.5729 N   0  0  0  0  0  0
  -22.0520  -12.8203   22.0387 N   0  0  0  0  0  0
  -25.4391  -15.1884   20.4054 N   0  0  0  0  0  0
  -31.8898  -14.7260   20.3098 O   0  0  0  0  0  0
  -21.6658   -6.8883   21.4251 O   0  0  0  0  0  0
  -22.3566  -14.5545   20.6740 O   0  0  0  0  0  0
  -24.6259  -31.8652   23.2060 C   0  0  0  0  0  0
  -25.9106  -32.4815   23.8394 C   0  0  1  0  0  0
  -27.2127  -27.3374   20.0888 C   0  0  0  0  0  0
  -25.5941  -33.8612   24.2335 N   0  0  0  0  0  0
  -23.4188  -30.4909   21.5518 C   0  0  2  0  0  0
  -24.8581  -28.9555   20.1119 C   0  0  0  0  0  0
  -22.7491  -29.4644   22.4956 C   0  0  0  0  0  0
  -18.0298  -28.1362   22.8466 C   0  0  0  0  0  0
  -24.1493  -36.7296   23.2633 C   0  0  0  0  0  0
  -25.9606  -30.7978   21.3770 C   0  0  0  0  0  0
  -26.0316  -29.4284   20.7156 C   0  0  0  0  0  0
  -27.2145  -28.6301   20.6956 C   0  0  0  0  0  0
  -26.0109  -26.9193   19.4663 C   0  0  0  0  0  0
  -24.8474  -27.7033   19.4854 C   0  0  0  0  0  0
  -23.6298  -29.8353   20.1646 C   0  0  0  0  0  0
  -25.4113  -36.3099   24.0333 C   0  0  1  0  0  0
  -20.5896  -28.3690   23.1269 C   0  0  2  0  0  0
  -20.6788  -26.9413   22.5402 C   0  0  0  0  0  0
  -19.5768  -26.6374   21.5200 C   0  0  0  0  0  0
  -18.1946  -26.7912   22.1607 C   0  0  0  0  0  0
  -19.1540  -28.8841   23.2871 C   0  0  0  0  0  0
  -18.9460  -30.1428   23.8914 C   0  0  0  0  0  0
  -17.6461  -30.6567   24.0542 C   0  0  0  0  0  0
  -25.9046  -34.9467   23.5130 C   0  0  0  0  0  0
  -16.5357  -29.9056   23.6299 C   0  0  0  0  0  0
  -16.7290  -28.6461   23.0351 C   0  0  0  0  0  0
  -26.4502  -31.6599   25.0748 C   0  0  0  0  0  0
  -25.3757  -31.3724   26.1489 C   0  0  0  0  0  0
  -27.0325  -30.3027   24.6153 C   0  0  0  0  0  0
  -27.6078  -32.4318   25.7522 C   0  0  0  0  0  0
  -27.5578  -37.1806   24.8462 C   0  0  0  0  0  0
  -21.4196  -29.3063   22.3692 N   0  0  0  0  0  0
  -26.4284  -37.3775   23.9412 N   0  0  0  0  0  0
  -24.6876  -31.0659   22.1025 N   0  0  0  0  0  0
  -23.4218  -28.8155   23.3016 O   0  0  0  0  0  0
  -28.3253  -26.4821   20.1238 O   0  0  0  0  0  0
  -26.5590  -34.8933   22.4687 O   0  0  0  0  0  0
  -23.5419  -32.1447   23.7395 O   0  0  0  0  0  0
  -28.7695  -17.8509   19.3637 C   0  0  0  0  0  0
  -28.6543  -19.2617   19.4942 C   0  0  0  0  0  0
  -30.5191  -17.8067   21.0195 C   0  0  0  0  0  0
  -29.7378  -17.0844   20.0796 C   0  0  0  0  0  0
  -29.4967  -19.9977   20.3708 C   0  0  0  0  0  0
  -30.3977  -19.2239   21.1595 C   0  0  0  0  0  0
  -28.7897  -22.4554   19.9173 C   0  0  0  0  0  0
  -30.2348  -15.6558   18.2012 C   0  0  0  0  0  0
  -29.1952  -23.9609   20.1646 C   0  0  0  0  0  0
  -28.0640  -25.0409   19.9179 C   0  0  0  0  0  0
  -29.5380  -21.4576   20.4779 N   0  0  0  0  0  0
  -30.0018  -15.7004   19.6629 N   0  0  0  0  0  0
  -27.7973  -22.2137   19.2272 O   0  0  0  0  0  0
  -31.4283  -20.0216   22.2959 Cl  0  0  0  0  0  0
  -31.4812  -12.5079   19.1303 H   0  0  0  0  0  0
  -30.4176  -11.4381   20.0012 H   0  0  0  0  0  0
  -29.7534  -11.4908   17.6063 H   0  0  0  0  0  0
  -29.6518  -13.2121   17.5836 H   0  0  0  0  0  0
  -27.8585  -11.2376   18.9545 H   0  0  0  0  0  0
  -27.3845  -12.4464   17.7873 H   0  0  0  0  0  0
  -27.6312  -14.2226   19.3964 H   0  0  0  0  0  0
  -28.7303  -12.2216   21.4396 H   0  0  0  0  0  0
  -28.4674  -13.9360   21.7095 H   0  0  0  0  0  0
  -25.2762   -9.5635   22.4729 H   0  0  0  0  0  0
  -23.9979   -7.4623   22.7457 H   0  0  0  0  0  0
  -21.0805   -8.8824   19.8979 H   0  0  0  0  0  0
  -22.3719  -10.9678   19.6172 H   0  0  0  0  0  0
  -21.2029   -7.6117   23.9695 H   0  0  0  0  0  0
  -21.1456   -6.0474   25.9057 H   0  0  0  0  0  0
  -22.0639   -2.7604   23.2784 H   0  0  0  0  0  0
  -22.4089  -11.9797   22.4701 H   0  0  0  0  0  0
  -21.1165  -13.1282   22.2645 H   0  0  0  0  0  0
  -24.6919  -15.8659   20.5144 H   0  0  0  0  0  0
  -26.3094  -15.6106   20.1077 H   0  0  0  0  0  0
  -26.7175  -32.5502   23.1156 H   0  0  0  0  0  0
  -25.0165  -33.9792   25.0527 H   0  0  0  0  0  0
  -22.7117  -31.3105   21.4123 H   0  0  0  0  0  0
  -23.3759  -35.9624   23.3310 H   0  0  0  0  0  0
  -24.3586  -36.8901   22.2039 H   0  0  0  0  0  0
  -23.7240  -37.6502   23.6649 H   0  0  0  0  0  0
  -26.0940  -31.5640   20.6108 H   0  0  0  0  0  0
  -26.8423  -30.8446   22.0030 H   0  0  0  0  0  0
  -28.1176  -28.9844   21.1736 H   0  0  0  0  0  0
  -25.9247  -25.9726   18.9572 H   0  0  0  0  0  0
  -23.9491  -27.3362   19.0084 H   0  0  0  0  0  0
  -23.7532  -30.6157   19.4139 H   0  0  0  0  0  0
  -22.7491  -29.2686   19.8548 H   0  0  0  0  0  0
  -25.1286  -36.1962   25.0814 H   0  0  0  0  0  0
  -20.9984  -28.3265   24.1386 H   0  0  0  0  0  0
  -20.5684  -26.2308   23.3610 H   0  0  0  0  0  0
  -21.6662  -26.7443   22.1202 H   0  0  0  0  0  0
  -19.6956  -25.6287   21.1218 H   0  0  0  0  0  0
  -19.6700  -27.3187   20.6726 H   0  0  0  0  0  0
  -17.4224  -26.6648   21.3994 H   0  0  0  0  0  0
  -18.0348  -26.0043   22.8987 H   0  0  0  0  0  0
  -19.7939  -30.7205   24.2324 H   0  0  0  0  0  0
  -17.5023  -31.6254   24.5140 H   0  0  0  0  0  0
  -15.5356  -30.2974   23.7611 H   0  0  0  0  0  0
  -15.8680  -28.0769   22.7098 H   0  0  0  0  0  0
  -24.5942  -30.7051   25.7839 H   0  0  0  0  0  0
  -24.8932  -32.2871   26.4930 H   0  0  0  0  0  0
  -25.8095  -30.8908   27.0261 H   0  0  0  0  0  0
  -26.2868  -29.6811   24.1167 H   0  0  0  0  0  0
  -27.4038  -29.7242   25.4626 H   0  0  0  0  0  0
  -27.8754  -30.4350   23.9369 H   0  0  0  0  0  0
  -27.2711  -33.3625   26.2115 H   0  0  0  0  0  0
  -28.3889  -32.6859   25.0344 H   0  0  0  0  0  0
  -28.0755  -31.8429   26.5433 H   0  0  0  0  0  0
  -28.2594  -38.0101   24.7495 H   0  0  0  0  0  0
  -28.1077  -36.2624   24.6301 H   0  0  0  0  0  0
  -27.2310  -37.1481   25.8871 H   0  0  0  0  0  0
  -20.9390  -29.8796   21.6900 H   0  0  0  0  0  0
  -26.0183  -38.2864   24.1385 H   0  0  0  0  0  0
  -28.1398  -17.3655   18.6313 H   0  0  0  0  0  0
  -27.9342  -19.7654   18.8621 H   0  0  0  0  0  0
  -31.2837  -17.2980   21.5895 H   0  0  0  0  0  0
  -29.2958  -15.5024   17.6730 H   0  0  0  0  0  0
  -30.9466  -14.8935   17.8756 H   0  0  0  0  0  0
  -30.6669  -16.5933   17.8411 H   0  0  0  0  0  0
  -30.0337  -24.1913   19.5063 H   0  0  0  0  0  0
  -29.5765  -24.0561   21.1808 H   0  0  0  0  0  0
  -27.2185  -24.7584   20.5521 H   0  0  0  0  0  0
  -27.7456  -24.9089   18.8829 H   0  0  0  0  0  0
  -30.2970  -21.7951   21.0544 H   0  0  0  0  0  0
  1 25  1  0  0  0
  1 30  2  0  0  0
  1 82  1  0  0  0
  2  3  1  0  0  0
  2 25  1  0  0  0
  2 85  1  0  0  0
  2 86  1  0  0  0
  3  4  1  0  0  0
  3 87  1  0  0  0
  3 88  1  0  0  0
  4  5  1  0  0  0
  4 89  1  0  0  0
  4 90  1  0  0  0
  5  6  1  0  0  0
  5 26  1  0  0  0
  5 91  1  0  0  0
  6 25  1  0  0  0
  6 92  1  0  0  0
  6 93  1  0  0  0
  7  8  2  0  0  0
  7 26  1  0  0  0
  7 29  1  0  0  0
  8  9  1  0  0  0
  8 22  1  0  0  0
  9 10  1  0  0  0
  9 27  2  0  0  0
 10 11  2  0  0  0
 10 15  1  0  0  0
 11 12  1  0  0  0
 11 94  1  0  0  0
 12 13  2  0  0  0
 12 95  1  0  0  0
 13 14  1  0  0  0
 13 31  1  0  0  0
 14 15  2  0  0  0
 14 96  1  0  0  0
 15 97  1  0  0  0
 16 17  2  0  0  0
 16 21  1  0  0  0
 16 31  1  0  0  0
 17 18  1  0  0  0
 17 98  1  0  0  0
 18 19  2  0  0  0
 18 99  1  0  0  0
 19 20  1  0  0  0
 19 24  1  0  0  0
 20 21  2  0  0  0
 20100  1  0  0  0
 21 23  1  0  0  0
 22 28  1  0  0  0
 22 32  2  0  0  0
 26 27  1  0  0  0
 28101  1  0  0  0
 28102  1  0  0  0
 29103  1  0  0  0
 29104  1  0  0  0
 33 34  1  0  0  0
 33 66  1  0  0  0
 33 70  2  0  0  0
 34 36  1  0  0  0
 34 59  1  0  0  0
 34105  1  0  0  0
 35 44  2  0  0  0
 35 45  1  0  0  0
 35 68  1  0  0  0
 36 56  1  0  0  0
 36106  1  0  0  0
 37 39  1  0  0  0
 37 47  1  0  0  0
 37 66  1  0  0  0
 37107  1  0  0  0
 38 43  2  0  0  0
 38 46  1  0  0  0
 38 47  1  0  0  0
 39 64  1  0  0  0
 39 67  2  0  0  0
 40 52  1  0  0  0
 40 53  2  0  0  0
 40 58  1  0  0  0
 41108  1  0  0  0
 41109  1  0  0  0
 41110  1  0  0  0
 41 48  1  0  0  0
 42 43  1  0  0  0
 42 66  1  0  0  0
 42111  1  0  0  0
 42112  1  0  0  0
 43 44  1  0  0  0
 44113  1  0  0  0
 45 46  2  0  0  0
 45114  1  0  0  0
 46115  1  0  0  0
 47116  1  0  0  0
 47117  1  0  0  0
 48 56  1  0  0  0
 48 65  1  0  0  0
 48118  1  0  0  0
 49 50  1  0  0  0
 49 53  1  0  0  0
 49 64  1  0  0  0
 49119  1  0  0  0
 50 51  1  0  0  0
 50120  1  0  0  0
 50121  1  0  0  0
 51 52  1  0  0  0
 51122  1  0  0  0
 51123  1  0  0  0
 52124  1  0  0  0
 52125  1  0  0  0
 53 54  1  0  0  0
 54 55  2  0  0  0
 54126  1  0  0  0
 55 57  1  0  0  0
 55127  1  0  0  0
 56 69  2  0  0  0
 57 58  2  0  0  0
 57128  1  0  0  0
 58129  1  0  0  0
 59 60  1  0  0  0
 59 61  1  0  0  0
 59 62  1  0  0  0
 60130  1  0  0  0
 60131  1  0  0  0
 60132  1  0  0  0
 61133  1  0  0  0
 61134  1  0  0  0
 61135  1  0  0  0
 62136  1  0  0  0
 62137  1  0  0  0
 62138  1  0  0  0
 63 65  1  0  0  0
 63139  1  0  0  0
 63140  1  0  0  0
 63141  1  0  0  0
 64142  1  0  0  0
 65143  1  0  0  0
 68 80  1  0  0  0
 71 72  2  0  0  0
 71 74  1  0  0  0
 71144  1  0  0  0
 72 75  1  0  0  0
 72145  1  0  0  0
 73 74  2  0  0  0
 73 76  1  0  0  0
 73146  1  0  0  0
 74 82  1  0  0  0
 75 76  2  0  0  0
 75 81  1  0  0  0
 76 84  1  0  0  0
 77 79  1  0  0  0
 77 81  1  0  0  0
 77 83  2  0  0  0
 78 82  1  0  0  0
 78147  1  0  0  0
 78148  1  0  0  0
 78149  1  0  0  0
 79 80  1  0  0  0
 79150  1  0  0  0
 79151  1  0  0  0
 80152  1  0  0  0
 80153  1  0  0  0
 81154  1  0  0  0
M  ISO  4   1 100  68 101  80 101  82 100
M  END
> <chiral flag>
0

> <version>
0

> <s_m_source_file>
/data/baiqing/PycharmProjects/Reinvent-master-3.2/result/LINK_invent/BTK/process_docking_weight1_custom_product_contain_oxygen_bond_distance_aromatic_linkinvent_7_9_3/rearranged_h_0016.sdf

> <i_m_source_file_index>
61

> <r_mmod_Potential_Energy-OPLS-2005>
237.648223876953

> <r_mmod_Stretch_Energy-OPLS-2005>
77.6682434082031

> <r_mmod_Bend_Energy-OPLS-2005>
151.666122436523

> <r_mmod_Torsional_Energy-OPLS-2005>
319.187286376953

> <r_mmod_Improper_Torsional_Energy-OPLS-2005>
31.2896938323975

> <r_mmod_Van_der_Waal_Energy-OPLS-2005>
158.40690612793

> <r_mmod_Electrostatic_Energy-OPLS-2005>
-365.003265380859

> <r_mmod_Solvation_Energy-OPLS-2005>
-212.141845703125

> <b_mmod_Minimization_Converged-OPLS-2005>
0

> <r_mmod_RMS_Derivative-OPLS-2005>
4.83034324645996

$$$$
61
                    3D
 Structure written by MMmdl.
161169  0  0  1  0            999 V2000
  -30.6944  -14.5461   20.4106 C   0  0  0  0  0  0
  -30.4302  -12.2938   19.4568 C   0  0  0  0  0  0
  -29.5019  -12.3475   18.2263 C   0  0  0  0  0  0
  -28.0169  -12.2976   18.6424 C   0  0  0  0  0  0
  -27.6534  -13.2114   19.8475 C   0  0  2  0  0  0
  -28.7060  -13.1023   20.9743 C   0  0  0  0  0  0
  -25.2540  -13.8158   20.5597 C   0  0  0  0  0  0
  -24.1844  -13.0442   20.9211 C   0  0  0  0  0  0
  -24.6413  -11.6921   20.8772 C   0  0  0  0  0  0
  -23.9084  -10.4303   21.0410 C   0  0  0  0  0  0
  -24.3630   -9.4209   21.9184 C   0  0  0  0  0  0
  -23.6300   -8.2253   22.0746 C   0  0  0  0  0  0
  -22.4289   -8.0284   21.3537 C   0  0  0  0  0  0
  -21.9932   -9.0258   20.4636 C   0  0  0  0  0  0
  -22.7254  -10.2147   20.3037 C   0  0  0  0  0  0
  -21.6866   -6.0740   22.5257 C   0  0  0  0  0  0
  -21.4045   -6.5642   23.8192 C   0  0  0  0  0  0
  -21.3651   -5.6779   24.9144 C   0  0  0  0  0  0
  -21.6034   -4.3044   24.7199 C   0  0  0  0  0  0
  -21.8833   -3.8145   23.4317 C   0  0  0  0  0  0
  -21.9217   -4.6968   22.3377 C   0  0  0  0  0  0
  -22.7851  -13.5225   21.1846 C   0  0  0  0  0  0
  -22.1670   -4.2139   21.0964 F   0  0  0  0  0  0
  -21.5598   -3.4536   25.7721 F   0  0  0  0  0  0
  -30.0207  -13.3623   20.3778 N   0  0  0  0  0  0
  -26.3005  -12.9358   20.3287 N   0  0  0  0  0  0
  -25.9348  -11.6519   20.5829 N   0  0  0  0  0  0
  -22.0506  -12.8220   22.0418 N   0  0  0  0  0  0
  -25.4098  -15.1852   20.3759 N   0  0  0  0  0  0
  -31.9188  -14.6019   20.2774 O   0  0  0  0  0  0
  -21.6645   -6.8885   21.4221 O   0  0  0  0  0  0
  -22.3541  -14.5519   20.6655 O   0  0  0  0  0  0
  -24.6138  -31.8661   23.2072 C   0  0  0  0  0  0
  -25.9033  -32.4831   23.8388 C   0  0  1  0  0  0
  -27.2516  -27.4336   20.0933 C   0  0  0  0  0  0
  -25.5878  -33.8631   24.2314 N   0  0  0  0  0  0
  -23.4012  -30.4901   21.5490 C   0  0  2  0  0  0
  -24.8520  -28.9511   20.1169 C   0  0  0  0  0  0
  -22.7392  -29.4638   22.4974 C   0  0  0  0  0  0
  -18.0282  -28.1361   22.8473 C   0  0  0  0  0  0
  -24.1494  -36.7317   23.2638 C   0  0  0  0  0  0
  -25.9316  -30.8334   21.3600 C   0  0  0  0  0  0
  -26.0110  -29.4676   20.7077 C   0  0  0  0  0  0
  -27.2074  -28.7175   20.6871 C   0  0  0  0  0  0
  -26.0630  -26.9204   19.5193 C   0  0  0  0  0  0
  -24.8744  -27.6770   19.5231 C   0  0  0  0  0  0
  -23.6111  -29.8166   20.1662 C   0  0  0  0  0  0
  -25.4115  -36.3118   24.0338 C   0  0  1  0  0  0
  -20.5861  -28.3644   23.1290 C   0  0  2  0  0  0
  -20.6751  -26.9394   22.5382 C   0  0  0  0  0  0
  -19.5741  -26.6370   21.5148 C   0  0  0  0  0  0
  -18.1917  -26.7918   22.1569 C   0  0  0  0  0  0
  -19.1530  -28.8802   23.2900 C   0  0  0  0  0  0
  -18.9453  -30.1409   23.8915 C   0  0  0  0  0  0
  -17.6464  -30.6541   24.0597 C   0  0  0  0  0  0
  -25.9032  -34.9488   23.5123 C   0  0  0  0  0  0
  -16.5347  -29.9062   23.6354 C   0  0  0  0  0  0
  -16.7271  -28.6507   23.0332 C   0  0  0  0  0  0
  -26.4456  -31.6623   25.0730 C   0  0  0  0  0  0
  -25.3711  -31.3725   26.1467 C   0  0  0  0  0  0
  -27.0280  -30.3068   24.6105 C   0  0  0  0  0  0
  -27.6039  -32.4333   25.7485 C   0  0  0  0  0  0
  -27.5581  -37.1818   24.8462 C   0  0  0  0  0  0
  -21.4121  -29.3027   22.3702 N   0  0  0  0  0  0
  -26.4302  -37.3797   23.9397 N   0  0  0  0  0  0
  -24.6680  -31.0769   22.0983 N   0  0  0  0  0  0
  -23.4159  -28.8157   23.3003 O   0  0  0  0  0  0
  -28.4618  -26.7636   20.0947 O   0  0  0  0  0  0
  -26.5594  -34.8929   22.4690 O   0  0  0  0  0  0
  -23.5330  -32.1405   23.7470 O   0  0  0  0  0  0
  -28.3234  -16.9065   21.1853 C   0  0  0  0  0  0
  -30.4289  -17.9355   20.5564 C   0  0  0  0  0  0
  -27.7754  -18.1869   21.4088 C   0  0  0  0  0  0
  -29.8783  -19.2176   20.7849 C   0  0  0  0  0  0
  -29.6291  -16.7717   20.6762 C   0  0  0  0  0  0
  -28.5181  -19.3691   21.1535 C   0  0  0  0  0  0
  -30.1489  -15.8966   18.5010 C   0  0  0  0  0  0
  -26.4388  -20.7265   21.0747 C   0  0  0  0  0  0
  -28.6142  -22.9039   20.3116 C   0  0  0  0  0  0
  -28.4580  -24.3791   20.7621 C   0  0  0  0  0  0
  -28.6175  -21.8871   21.4885 C   0  0  0  0  0  0
  -28.5915  -25.4146   19.6198 C   0  0  0  0  0  0
  -29.9679  -15.5962   19.9351 N   0  0  0  0  0  0
  -27.8928  -20.6437   21.2029 N   0  0  0  0  0  0
  -31.4728  -12.3800   19.1445 H   0  0  0  0  0  0
  -30.3434  -11.3274   19.9544 H   0  0  0  0  0  0
  -29.7181  -11.4915   17.5838 H   0  0  0  0  0  0
  -29.7143  -13.2126   17.6091 H   0  0  0  0  0  0
  -27.8093  -11.2597   18.9057 H   0  0  0  0  0  0
  -27.3768  -12.5191   17.7874 H   0  0  0  0  0  0
  -27.6629  -14.2360   19.4757 H   0  0  0  0  0  0
  -28.6920  -12.1094   21.4264 H   0  0  0  0  0  0
  -28.4954  -13.8091   21.7782 H   0  0  0  0  0  0
  -25.2777   -9.5685   22.4771 H   0  0  0  0  0  0
  -23.9996   -7.4653   22.7467 H   0  0  0  0  0  0
  -21.0869   -8.8789   19.8949 H   0  0  0  0  0  0
  -22.3714  -10.9693   19.6136 H   0  0  0  0  0  0
  -21.2057   -7.6154   23.9702 H   0  0  0  0  0  0
  -21.1440   -6.0499   25.9045 H   0  0  0  0  0  0
  -22.0632   -2.7611   23.2815 H   0  0  0  0  0  0
  -22.4163  -11.9906   22.4836 H   0  0  0  0  0  0
  -21.1095  -13.1159   22.2602 H   0  0  0  0  0  0
  -24.6197  -15.8167   20.4444 H   0  0  0  0  0  0
  -26.2163  -15.6137   19.9422 H   0  0  0  0  0  0
  -26.7097  -32.5538   23.1144 H   0  0  0  0  0  0
  -25.0056  -33.9814   25.0475 H   0  0  0  0  0  0
  -22.6882  -31.3078   21.4051 H   0  0  0  0  0  0
  -23.3755  -35.9651   23.3320 H   0  0  0  0  0  0
  -24.3575  -36.8913   22.2045 H   0  0  0  0  0  0
  -23.7258  -37.6536   23.6632 H   0  0  0  0  0  0
  -26.0408  -31.6020   20.5950 H   0  0  0  0  0  0
  -26.8201  -30.8901   21.9777 H   0  0  0  0  0  0
  -28.1074  -29.1276   21.1240 H   0  0  0  0  0  0
  -26.0200  -25.9413   19.0689 H   0  0  0  0  0  0
  -23.9788  -27.2650   19.0761 H   0  0  0  0  0  0
  -23.7197  -30.5877   19.4028 H   0  0  0  0  0  0
  -22.7380  -29.2316   19.8676 H   0  0  0  0  0  0
  -25.1296  -36.1989   25.0832 H   0  0  0  0  0  0
  -20.9977  -28.3155   24.1402 H   0  0  0  0  0  0
  -20.5672  -26.2250   23.3563 H   0  0  0  0  0  0
  -21.6636  -26.7417   22.1231 H   0  0  0  0  0  0
  -19.6693  -27.3190   20.6705 H   0  0  0  0  0  0
  -19.6897  -25.6319   21.1107 H   0  0  0  0  0  0
  -17.4182  -26.6642   21.3987 H   0  0  0  0  0  0
  -18.0316  -26.0058   22.8963 H   0  0  0  0  0  0
  -19.7925  -30.7218   24.2289 H   0  0  0  0  0  0
  -17.5043  -31.6205   24.5224 H   0  0  0  0  0  0
  -15.5356  -30.2992   23.7707 H   0  0  0  0  0  0
  -15.8654  -28.0856   22.7020 H   0  0  0  0  0  0
  -24.5876  -30.7095   25.7766 H   0  0  0  0  0  0
  -24.8914  -32.2887   26.4920 H   0  0  0  0  0  0
  -25.8065  -30.8861   27.0208 H   0  0  0  0  0  0
  -26.2827  -29.6848   24.1137 H   0  0  0  0  0  0
  -27.4013  -29.7292   25.4566 H   0  0  0  0  0  0
  -27.8671  -30.4371   23.9273 H   0  0  0  0  0  0
  -27.2669  -33.3605   26.2114 H   0  0  0  0  0  0
  -28.3829  -32.6943   25.0313 H   0  0  0  0  0  0
  -28.0727  -31.8429   26.5358 H   0  0  0  0  0  0
  -28.2618  -38.0095   24.7487 H   0  0  0  0  0  0
  -28.1067  -36.2633   24.6329 H   0  0  0  0  0  0
  -27.2282  -37.1500   25.8860 H   0  0  0  0  0  0
  -20.9281  -29.8785   21.6948 H   0  0  0  0  0  0
  -26.0203  -38.2884   24.1382 H   0  0  0  0  0  0
  -27.6850  -16.0475   21.2948 H   0  0  0  0  0  0
  -31.4313  -17.8574   20.1556 H   0  0  0  0  0  0
  -26.7413  -18.2309   21.7155 H   0  0  0  0  0  0
  -30.4972  -20.0773   20.5708 H   0  0  0  0  0  0
  -29.5326  -15.2511   17.8820 H   0  0  0  0  0  0
  -31.1911  -15.8164   18.1821 H   0  0  0  0  0  0
  -29.8183  -16.9034   18.2384 H   0  0  0  0  0  0
  -26.0998  -21.7620   21.0110 H   0  0  0  0  0  0
  -25.9367  -20.2863   21.9363 H   0  0  0  0  0  0
  -26.0982  -20.2162   20.1713 H   0  0  0  0  0  0
  -29.5383  -22.7800   19.7446 H   0  0  0  0  0  0
  -27.8136  -22.6856   19.6068 H   0  0  0  0  0  0
  -29.1998  -24.6095   21.5266 H   0  0  0  0  0  0
  -27.4844  -24.5040   21.2383 H   0  0  0  0  0  0
  -28.1228  -22.3425   22.3487 H   0  0  0  0  0  0
  -29.6360  -21.6923   21.8234 H   0  0  0  0  0  0
  -27.9384  -25.1793   18.7833 H   0  0  0  0  0  0
  -29.5978  -25.3354   19.2062 H   0  0  0  0  0  0
  1 25  1  0  0  0
  1 30  2  0  0  0
  1 83  1  0  0  0
  2  3  1  0  0  0
  2 25  1  0  0  0
  2 85  1  0  0  0
  2 86  1  0  0  0
  3  4  1  0  0  0
  3 87  1  0  0  0
  3 88  1  0  0  0
  4  5  1  0  0  0
  4 89  1  0  0  0
  4 90  1  0  0  0
  5  6  1  0  0  0
  5 26  1  0  0  0
  5 91  1  0  0  0
  6 25  1  0  0  0
  6 92  1  0  0  0
  6 93  1  0  0  0
  7  8  2  0  0  0
  7 26  1  0  0  0
  7 29  1  0  0  0
  8  9  1  0  0  0
  8 22  1  0  0  0
  9 10  1  0  0  0
  9 27  2  0  0  0
 10 11  2  0  0  0
 10 15  1  0  0  0
 11 12  1  0  0  0
 11 94  1  0  0  0
 12 13  2  0  0  0
 12 95  1  0  0  0
 13 14  1  0  0  0
 13 31  1  0  0  0
 14 15  2  0  0  0
 14 96  1  0  0  0
 15 97  1  0  0  0
 16 17  2  0  0  0
 16 21  1  0  0  0
 16 31  1  0  0  0
 17 18  1  0  0  0
 17 98  1  0  0  0
 18 19  2  0  0  0
 18 99  1  0  0  0
 19 20  1  0  0  0
 19 24  1  0  0  0
 20 21  2  0  0  0
 20100  1  0  0  0
 21 23  1  0  0  0
 22 28  1  0  0  0
 22 32  2  0  0  0
 26 27  1  0  0  0
 28101  1  0  0  0
 28102  1  0  0  0
 29103  1  0  0  0
 29104  1  0  0  0
 33 34  1  0  0  0
 33 66  1  0  0  0
 33 70  2  0  0  0
 34 36  1  0  0  0
 34 59  1  0  0  0
 34105  1  0  0  0
 35 44  2  0  0  0
 35 45  1  0  0  0
 35 68  1  0  0  0
 36 56  1  0  0  0
 36106  1  0  0  0
 37 39  1  0  0  0
 37 47  1  0  0  0
 37 66  1  0  0  0
 37107  1  0  0  0
 38 43  2  0  0  0
 38 46  1  0  0  0
 38 47  1  0  0  0
 39 64  1  0  0  0
 39 67  2  0  0  0
 40 52  1  0  0  0
 40 53  2  0  0  0
 40 58  1  0  0  0
 41108  1  0  0  0
 41109  1  0  0  0
 41110  1  0  0  0
 41 48  1  0  0  0
 42 43  1  0  0  0
 42 66  1  0  0  0
 42111  1  0  0  0
 42112  1  0  0  0
 43 44  1  0  0  0
 44113  1  0  0  0
 45 46  2  0  0  0
 45114  1  0  0  0
 46115  1  0  0  0
 47116  1  0  0  0
 47117  1  0  0  0
 48 56  1  0  0  0
 48 65  1  0  0  0
 48118  1  0  0  0
 49 50  1  0  0  0
 49 53  1  0  0  0
 49 64  1  0  0  0
 49119  1  0  0  0
 50 51  1  0  0  0
 50120  1  0  0  0
 50121  1  0  0  0
 51 52  1  0  0  0
 51122  1  0  0  0
 51123  1  0  0  0
 52124  1  0  0  0
 52125  1  0  0  0
 53 54  1  0  0  0
 54 55  2  0  0  0
 54126  1  0  0  0
 55 57  1  0  0  0
 55127  1  0  0  0
 56 69  2  0  0  0
 57 58  2  0  0  0
 57128  1  0  0  0
 58129  1  0  0  0
 59 60  1  0  0  0
 59 61  1  0  0  0
 59 62  1  0  0  0
 60130  1  0  0  0
 60131  1  0  0  0
 60132  1  0  0  0
 61133  1  0  0  0
 61134  1  0  0  0
 61135  1  0  0  0
 62136  1  0  0  0
 62137  1  0  0  0
 62138  1  0  0  0
 63 65  1  0  0  0
 63139  1  0  0  0
 63140  1  0  0  0
 63141  1  0  0  0
 64142  1  0  0  0
 65143  1  0  0  0
 68 82  1  0  0  0
 71 73  2  0  0  0
 71 75  1  0  0  0
 71144  1  0  0  0
 72 74  1  0  0  0
 72 75  2  0  0  0
 72145  1  0  0  0
 73 76  1  0  0  0
 73146  1  0  0  0
 74 76  2  0  0  0
 74147  1  0  0  0
 75 83  1  0  0  0
 76 84  1  0  0  0
 77 83  1  0  0  0
 77148  1  0  0  0
 77149  1  0  0  0
 77150  1  0  0  0
 78 84  1  0  0  0
 78151  1  0  0  0
 78152  1  0  0  0
 78153  1  0  0  0
 79 80  1  0  0  0
 79 81  1  0  0  0
 79154  1  0  0  0
 79155  1  0  0  0
 80 82  1  0  0  0
 80156  1  0  0  0
 80157  1  0  0  0
 81 84  1  0  0  0
 81158  1  0  0  0
 81159  1  0  0  0
 82160  1  0  0  0
 82161  1  0  0  0
M  ISO  4   1 100  68 101  82 101  83 100
M  END
> <chiral flag>
0

> <version>
0

> <s_m_source_file>
/data/baiqing/PycharmProjects/Reinvent-master-3.2/result/LINK_invent/BTK/process_docking_weight1_custom_product_contain_oxygen_bond_distance_aromatic_linkinvent_7_9_3/rearranged_h_0016.sdf

> <i_m_source_file_index>
62

> <r_mmod_Potential_Energy-OPLS-2005>
197.685836791992

> <r_mmod_Stretch_Energy-OPLS-2005>
41.7722663879395

> <r_mmod_Bend_Energy-OPLS-2005>
132.170501708984

> <r_mmod_Torsional_Energy-OPLS-2005>
332.937438964844

> <r_mmod_Improper_Torsional_Energy-OPLS-2005>
30.6557636260986

> <r_mmod_Van_der_Waal_Energy-OPLS-2005>
154.718124389648

> <r_mmod_Electrostatic_Energy-OPLS-2005>
-328.431915283203

> <r_mmod_Solvation_Energy-OPLS-2005>
-203.135986328125

> <b_mmod_Minimization_Converged-OPLS-2005>
0

> <r_mmod_RMS_Derivative-OPLS-2005>
4.33782196044922

$$$$
62
                    3D
 Structure written by MMmdl.
168177  0  0  1  0            999 V2000
  -30.7658  -14.4331   20.6275 C   0  0  0  0  0  0
  -30.4140  -12.3111   19.4101 C   0  0  0  0  0  0
  -29.4853  -12.5139   18.1984 C   0  0  0  0  0  0
  -28.0116  -12.3572   18.6171 C   0  0  0  0  0  0
  -27.6580  -13.2022   19.8679 C   0  0  2  0  0  0
  -28.7025  -13.0043   20.9903 C   0  0  0  0  0  0
  -25.2595  -13.8149   20.5688 C   0  0  0  0  0  0
  -24.1843  -13.0435   20.9180 C   0  0  0  0  0  0
  -24.6387  -11.6899   20.8731 C   0  0  0  0  0  0
  -23.9052  -10.4291   21.0404 C   0  0  0  0  0  0
  -24.3609   -9.4207   21.9179 C   0  0  0  0  0  0
  -23.6292   -8.2242   22.0749 C   0  0  0  0  0  0
  -22.4273   -8.0279   21.3542 C   0  0  0  0  0  0
  -21.9901   -9.0250   20.4645 C   0  0  0  0  0  0
  -22.7224  -10.2132   20.3056 C   0  0  0  0  0  0
  -21.6853   -6.0740   22.5281 C   0  0  0  0  0  0
  -21.4011   -6.5643   23.8213 C   0  0  0  0  0  0
  -21.3654   -5.6794   24.9174 C   0  0  0  0  0  0
  -21.6043   -4.3056   24.7227 C   0  0  0  0  0  0
  -21.8820   -3.8150   23.4346 C   0  0  0  0  0  0
  -21.9194   -4.6967   22.3401 C   0  0  0  0  0  0
  -22.7868  -13.5240   21.1848 C   0  0  0  0  0  0
  -22.1664   -4.2156   21.0978 F   0  0  0  0  0  0
  -21.5626   -3.4539   25.7739 F   0  0  0  0  0  0
  -30.0389  -13.2946   20.4395 N   0  0  0  0  0  0
  -26.3012  -12.9304   20.3347 N   0  0  0  0  0  0
  -25.9310  -11.6467   20.5756 N   0  0  0  0  0  0
  -22.0506  -12.8237   22.0402 N   0  0  0  0  0  0
  -25.4332  -15.1870   20.4101 N   0  0  0  0  0  0
  -31.8601  -14.6177   20.0863 O   0  0  0  0  0  0
  -21.6635   -6.8880   21.4242 O   0  0  0  0  0  0
  -22.3556  -14.5553   20.6701 O   0  0  0  0  0  0
  -24.6160  -31.8683   23.2131 C   0  0  0  0  0  0
  -25.9059  -32.4823   23.8408 C   0  0  1  0  0  0
  -27.2269  -27.4379   20.0886 C   0  0  0  0  0  0
  -25.5932  -33.8624   24.2354 N   0  0  0  0  0  0
  -23.4027  -30.4960   21.5529 C   0  0  2  0  0  0
  -24.8474  -28.9718   20.1096 C   0  0  0  0  0  0
  -22.7412  -29.4669   22.4984 C   0  0  0  0  0  0
  -18.0275  -28.1370   22.8492 C   0  0  0  0  0  0
  -24.1489  -36.7303   23.2635 C   0  0  0  0  0  0
  -25.9335  -30.8364   21.3663 C   0  0  0  0  0  0
  -26.0112  -29.4760   20.7040 C   0  0  0  0  0  0
  -27.2071  -28.7190   20.6870 C   0  0  0  0  0  0
  -26.0442  -26.9581   19.4782 C   0  0  0  0  0  0
  -24.8591  -27.7120   19.4922 C   0  0  0  0  0  0
  -23.6095  -29.8367   20.1652 C   0  0  0  0  0  0
  -25.4105  -36.3113   24.0348 C   0  0  1  0  0  0
  -20.5866  -28.3659   23.1309 C   0  0  2  0  0  0
  -20.6763  -26.9391   22.5415 C   0  0  0  0  0  0
  -19.5749  -26.6380   21.5205 C   0  0  0  0  0  0
  -18.1925  -26.7922   22.1608 C   0  0  0  0  0  0
  -19.1523  -28.8830   23.2902 C   0  0  0  0  0  0
  -18.9456  -30.1435   23.8912 C   0  0  0  0  0  0
  -17.6457  -30.6576   24.0562 C   0  0  0  0  0  0
  -25.9037  -34.9479   23.5141 C   0  0  0  0  0  0
  -16.5349  -29.9078   23.6322 C   0  0  0  0  0  0
  -16.7266  -28.6490   23.0352 C   0  0  0  0  0  0
  -26.4490  -31.6588   25.0722 C   0  0  0  0  0  0
  -25.3777  -31.3702   26.1492 C   0  0  0  0  0  0
  -27.0291  -30.3020   24.6093 C   0  0  0  0  0  0
  -27.6091  -32.4285   25.7463 C   0  0  0  0  0  0
  -27.5602  -37.1787   24.8458 C   0  0  0  0  0  0
  -21.4139  -29.3031   22.3715 N   0  0  0  0  0  0
  -26.4290  -37.3803   23.9438 N   0  0  0  0  0  0
  -24.6690  -31.0795   22.1027 N   0  0  0  0  0  0
  -23.4186  -28.8204   23.3018 O   0  0  0  0  0  0
  -28.3614  -26.6474   20.1408 O   0  0  0  0  0  0
  -26.5579  -34.8926   22.4690 O   0  0  0  0  0  0
  -23.5354  -32.1430   23.7532 O   0  0  0  0  0  0
  -29.5398  -18.7194   21.9493 C   0  0  0  0  0  0
  -29.9221  -20.0684   21.7890 C   0  0  0  0  0  0
  -30.8316  -19.5518   19.6006 C   0  0  0  0  0  0
  -29.7827  -17.7754   20.9289 C   0  0  0  0  0  0
  -30.5613  -20.5114   20.6077 C   0  0  0  0  0  0
  -30.4398  -18.2036   19.7542 C   0  0  0  0  0  0
  -29.2661  -23.3823   19.3261 C   0  0  0  0  0  0
  -30.3084  -24.1075   21.4551 C   0  0  0  0  0  0
  -28.0048  -24.2262   19.5760 C   0  0  0  0  0  0
  -29.0935  -24.9768   21.8337 C   0  0  0  0  0  0
  -29.8523  -22.8772   20.6525 C   0  0  2  0  0  0
  -28.1275  -25.3237   20.6707 C   0  0  1  0  0  0
  -32.0769  -22.1936   19.6349 C   0  0  0  0  0  0
  -31.1397  -15.7638   22.6174 C   0  0  0  0  0  0
  -29.2857  -16.3312   21.0766 C   0  0  0  0  0  0
  -30.9121  -21.8763   20.4590 N   0  0  0  0  0  0
  -30.2795  -15.3307   21.5136 N   0  0  0  0  0  0
  -30.6727  -17.3218   18.7524 F   0  0  0  0  0  0
  -31.4579  -12.3973   19.1034 H   0  0  0  0  0  0
  -30.3076  -11.3003   19.8078 H   0  0  0  0  0  0
  -29.7284  -11.7981   17.4118 H   0  0  0  0  0  0
  -29.6431  -13.5056   17.7709 H   0  0  0  0  0  0
  -27.8343  -11.3006   18.8217 H   0  0  0  0  0  0
  -27.3542  -12.6195   17.7872 H   0  0  0  0  0  0
  -27.6903  -14.2423   19.5512 H   0  0  0  0  0  0
  -28.6777  -11.9769   21.3549 H   0  0  0  0  0  0
  -28.4550  -13.6238   21.8525 H   0  0  0  0  0  0
  -25.2759   -9.5688   22.4746 H   0  0  0  0  0  0
  -24.0009   -7.4632   22.7464 H   0  0  0  0  0  0
  -21.0833   -8.8766   19.8950 H   0  0  0  0  0  0
  -22.3683  -10.9672   19.6168 H   0  0  0  0  0  0
  -21.2004   -7.6153   23.9723 H   0  0  0  0  0  0
  -21.1471   -6.0521   25.9077 H   0  0  0  0  0  0
  -22.0604   -2.7614   23.2844 H   0  0  0  0  0  0
  -22.4116  -11.9896   22.4792 H   0  0  0  0  0  0
  -21.1128  -13.1273   22.2616 H   0  0  0  0  0  0
  -24.6676  -15.8431   20.5208 H   0  0  0  0  0  0
  -26.2855  -15.6249   20.0859 H   0  0  0  0  0  0
  -26.7126  -32.5532   23.1170 H   0  0  0  0  0  0
  -25.0145  -33.9789   25.0546 H   0  0  0  0  0  0
  -22.6911  -31.3135   21.4177 H   0  0  0  0  0  0
  -23.3774  -35.9611   23.3262 H   0  0  0  0  0  0
  -24.3607  -36.8941   22.2058 H   0  0  0  0  0  0
  -23.7194  -37.6484   23.6652 H   0  0  0  0  0  0
  -26.0504  -31.6083   20.6045 H   0  0  0  0  0  0
  -26.8199  -30.8818   21.9870 H   0  0  0  0  0  0
  -28.1019  -29.0995   21.1590 H   0  0  0  0  0  0
  -26.0144  -25.9909   19.0021 H   0  0  0  0  0  0
  -23.9646  -27.3177   19.0300 H   0  0  0  0  0  0
  -23.7183  -30.6162   19.4101 H   0  0  0  0  0  0
  -22.7324  -29.2600   19.8660 H   0  0  0  0  0  0
  -25.1269  -36.1980   25.0838 H   0  0  0  0  0  0
  -20.9962  -28.3225   24.1428 H   0  0  0  0  0  0
  -20.5648  -26.2271   23.3606 H   0  0  0  0  0  0
  -21.6636  -26.7419   22.1220 H   0  0  0  0  0  0
  -19.6912  -25.6293   21.1229 H   0  0  0  0  0  0
  -19.6698  -27.3193   20.6744 H   0  0  0  0  0  0
  -17.4198  -26.6688   21.4002 H   0  0  0  0  0  0
  -18.0313  -26.0047   22.8986 H   0  0  0  0  0  0
  -19.7930  -30.7248   24.2290 H   0  0  0  0  0  0
  -17.5009  -31.6258   24.5158 H   0  0  0  0  0  0
  -15.5350  -30.2986   23.7631 H   0  0  0  0  0  0
  -15.8668  -28.0810   22.7068 H   0  0  0  0  0  0
  -24.5960  -30.7024   25.7855 H   0  0  0  0  0  0
  -24.8965  -32.2857   26.4938 H   0  0  0  0  0  0
  -25.8163  -30.8890   27.0245 H   0  0  0  0  0  0
  -26.2806  -29.6786   24.1186 H   0  0  0  0  0  0
  -27.4088  -29.7252   25.4538 H   0  0  0  0  0  0
  -27.8641  -30.4316   23.9206 H   0  0  0  0  0  0
  -27.2740  -33.3576   26.2085 H   0  0  0  0  0  0
  -28.3873  -32.6856   25.0265 H   0  0  0  0  0  0
  -28.0788  -31.8376   26.5336 H   0  0  0  0  0  0
  -28.2580  -38.0127   24.7580 H   0  0  0  0  0  0
  -28.1136  -36.2666   24.6171 H   0  0  0  0  0  0
  -27.2342  -37.1303   25.8864 H   0  0  0  0  0  0
  -20.9291  -29.8761   21.6952 H   0  0  0  0  0  0
  -26.0181  -38.2870   24.1503 H   0  0  0  0  0  0
  -29.0426  -18.4164   22.8597 H   0  0  0  0  0  0
  -29.7210  -20.7638   22.5918 H   0  0  0  0  0  0
  -31.3157  -19.8386   18.6795 H   0  0  0  0  0  0
  -30.0026  -23.9781   18.7849 H   0  0  0  0  0  0
  -29.0109  -22.5433   18.6780 H   0  0  0  0  0  0
  -30.8223  -23.7970   22.3658 H   0  0  0  0  0  0
  -31.0214  -24.7022   20.8835 H   0  0  0  0  0  0
  -27.2104  -23.5410   19.8743 H   0  0  0  0  0  0
  -27.6795  -24.6562   18.6297 H   0  0  0  0  0  0
  -29.4182  -25.8873   22.3385 H   0  0  0  0  0  0
  -28.5280  -24.4219   22.5835 H   0  0  0  0  0  0
  -29.0369  -22.4080   21.2053 H   0  0  0  0  0  0
  -27.1552  -25.3407   21.1697 H   0  0  0  0  0  0
  -32.8928  -21.4918   19.8152 H   0  0  0  0  0  0
  -32.4537  -23.1925   19.8569 H   0  0  0  0  0  0
  -31.8262  -22.1612   18.5736 H   0  0  0  0  0  0
  -30.5567  -16.2498   23.3999 H   0  0  0  0  0  0
  -31.9006  -16.4643   22.2695 H   0  0  0  0  0  0
  -31.6513  -14.9138   23.0718 H   0  0  0  0  0  0
  -28.8573  -16.0469   20.1151 H   0  0  0  0  0  0
  -28.4522  -16.3090   21.7794 H   0  0  0  0  0  0
  1 25  1  0  0  0
  1 30  2  0  0  0
  1 87  1  0  0  0
  2  3  1  0  0  0
  2 25  1  0  0  0
  2 89  1  0  0  0
  2 90  1  0  0  0
  3  4  1  0  0  0
  3 91  1  0  0  0
  3 92  1  0  0  0
  4  5  1  0  0  0
  4 93  1  0  0  0
  4 94  1  0  0  0
  5  6  1  0  0  0
  5 26  1  0  0  0
  5 95  1  0  0  0
  6 25  1  0  0  0
  6 96  1  0  0  0
  6 97  1  0  0  0
  7  8  2  0  0  0
  7 26  1  0  0  0
  7 29  1  0  0  0
  8  9  1  0  0  0
  8 22  1  0  0  0
  9 10  1  0  0  0
  9 27  2  0  0  0
 10 11  2  0  0  0
 10 15  1  0  0  0
 11 12  1  0  0  0
 11 98  1  0  0  0
 12 13  2  0  0  0
 12 99  1  0  0  0
 13 14  1  0  0  0
 13 31  1  0  0  0
 14 15  2  0  0  0
 14100  1  0  0  0
 15101  1  0  0  0
 16 17  2  0  0  0
 16 21  1  0  0  0
 16 31  1  0  0  0
 17 18  1  0  0  0
 17102  1  0  0  0
 18 19  2  0  0  0
 18103  1  0  0  0
 19 20  1  0  0  0
 19 24  1  0  0  0
 20 21  2  0  0  0
 20104  1  0  0  0
 21 23  1  0  0  0
 22 28  1  0  0  0
 22 32  2  0  0  0
 26 27  1  0  0  0
 28105  1  0  0  0
 28106  1  0  0  0
 29107  1  0  0  0
 29108  1  0  0  0
 33 34  1  0  0  0
 33 66  1  0  0  0
 33 70  2  0  0  0
 34 36  1  0  0  0
 34 59  1  0  0  0
 34109  1  0  0  0
 35 44  2  0  0  0
 35 45  1  0  0  0
 35 68  1  0  0  0
 36 56  1  0  0  0
 36110  1  0  0  0
 37 39  1  0  0  0
 37 47  1  0  0  0
 37 66  1  0  0  0
 37111  1  0  0  0
 38 43  2  0  0  0
 38 46  1  0  0  0
 38 47  1  0  0  0
 39 64  1  0  0  0
 39 67  2  0  0  0
 40 52  1  0  0  0
 40 53  2  0  0  0
 40 58  1  0  0  0
 41112  1  0  0  0
 41113  1  0  0  0
 41114  1  0  0  0
 41 48  1  0  0  0
 42 43  1  0  0  0
 42 66  1  0  0  0
 42115  1  0  0  0
 42116  1  0  0  0
 43 44  1  0  0  0
 44117  1  0  0  0
 45 46  2  0  0  0
 45118  1  0  0  0
 46119  1  0  0  0
 47120  1  0  0  0
 47121  1  0  0  0
 48 56  1  0  0  0
 48 65  1  0  0  0
 48122  1  0  0  0
 49 50  1  0  0  0
 49 53  1  0  0  0
 49 64  1  0  0  0
 49123  1  0  0  0
 50 51  1  0  0  0
 50124  1  0  0  0
 50125  1  0  0  0
 51 52  1  0  0  0
 51126  1  0  0  0
 51127  1  0  0  0
 52128  1  0  0  0
 52129  1  0  0  0
 53 54  1  0  0  0
 54 55  2  0  0  0
 54130  1  0  0  0
 55 57  1  0  0  0
 55131  1  0  0  0
 56 69  2  0  0  0
 57 58  2  0  0  0
 57132  1  0  0  0
 58133  1  0  0  0
 59 60  1  0  0  0
 59 61  1  0  0  0
 59 62  1  0  0  0
 60134  1  0  0  0
 60135  1  0  0  0
 60136  1  0  0  0
 61137  1  0  0  0
 61138  1  0  0  0
 61139  1  0  0  0
 62140  1  0  0  0
 62141  1  0  0  0
 62142  1  0  0  0
 63 65  1  0  0  0
 63143  1  0  0  0
 63144  1  0  0  0
 63145  1  0  0  0
 64146  1  0  0  0
 65147  1  0  0  0
 68 82  1  0  0  0
 71 72  2  0  0  0
 71 74  1  0  0  0
 71148  1  0  0  0
 72 75  1  0  0  0
 72149  1  0  0  0
 73 75  2  0  0  0
 73 76  1  0  0  0
 73150  1  0  0  0
 74 76  2  0  0  0
 74 85  1  0  0  0
 75 86  1  0  0  0
 76 88  1  0  0  0
 77 79  1  0  0  0
 77 81  1  0  0  0
 77151  1  0  0  0
 77152  1  0  0  0
 78 80  1  0  0  0
 78 81  1  0  0  0
 78153  1  0  0  0
 78154  1  0  0  0
 79 82  1  0  0  0
 79155  1  0  0  0
 79156  1  0  0  0
 80 82  1  0  0  0
 80157  1  0  0  0
 80158  1  0  0  0
 81 86  1  0  0  0
 81159  1  0  0  0
 82160  1  0  0  0
 83 86  1  0  0  0
 83161  1  0  0  0
 83162  1  0  0  0
 83163  1  0  0  0
 84 87  1  0  0  0
 84164  1  0  0  0
 84165  1  0  0  0
 84166  1  0  0  0
 85 87  1  0  0  0
 85167  1  0  0  0
 85168  1  0  0  0
M  ISO  4   1 100  68 101  82 101  87 100
M  END
> <chiral flag>
0

> <version>
0

> <s_m_source_file>
/data/baiqing/PycharmProjects/Reinvent-master-3.2/result/LINK_invent/BTK/process_docking_weight1_custom_product_contain_oxygen_bond_distance_aromatic_linkinvent_7_9_3/rearranged_h_0016.sdf

> <i_m_source_file_index>
63

> <r_mmod_Potential_Energy-OPLS-2005>
119.403945922852

> <r_mmod_Stretch_Energy-OPLS-2005>
40.5932807922363

> <r_mmod_Bend_Energy-OPLS-2005>
110.953987121582

> <r_mmod_Torsional_Energy-OPLS-2005>
329.941192626953

> <r_mmod_Improper_Torsional_Energy-OPLS-2005>
5.79603958129883

> <r_mmod_Van_der_Waal_Energy-OPLS-2005>
161.478271484375

> <r_mmod_Electrostatic_Energy-OPLS-2005>
-339.665100097656

> <r_mmod_Solvation_Energy-OPLS-2005>
-203.10546875

> <b_mmod_Minimization_Converged-OPLS-2005>
0

> <r_mmod_RMS_Derivative-OPLS-2005>
0.987980127334595

$$$$
63
                    3D
 Structure written by MMmdl.
158167  0  0  1  0            999 V2000
  -30.6198  -14.7061   20.3620 C   0  0  0  0  0  0
  -30.4379  -12.3960   19.4641 C   0  0  0  0  0  0
  -29.5013  -12.3707   18.2337 C   0  0  0  0  0  0
  -28.0204  -12.2845   18.6524 C   0  0  0  0  0  0
  -27.6391  -13.2180   19.8347 C   0  0  2  0  0  0
  -28.6933  -13.1786   20.9604 C   0  0  0  0  0  0
  -25.2535  -13.8178   20.5723 C   0  0  0  0  0  0
  -24.1801  -13.0442   20.9207 C   0  0  0  0  0  0
  -24.6375  -11.6916   20.8771 C   0  0  0  0  0  0
  -23.9056  -10.4294   21.0422 C   0  0  0  0  0  0
  -24.3613   -9.4207   21.9192 C   0  0  0  0  0  0
  -23.6292   -8.2240   22.0754 C   0  0  0  0  0  0
  -22.4275   -8.0280   21.3544 C   0  0  0  0  0  0
  -21.9910   -9.0255   20.4647 C   0  0  0  0  0  0
  -22.7235  -10.2136   20.3065 C   0  0  0  0  0  0
  -21.6852   -6.0736   22.5280 C   0  0  0  0  0  0
  -21.4013   -6.5638   23.8214 C   0  0  0  0  0  0
  -21.3659   -5.6791   24.9176 C   0  0  0  0  0  0
  -21.6044   -4.3055   24.7227 C   0  0  0  0  0  0
  -21.8818   -3.8146   23.4348 C   0  0  0  0  0  0
  -21.9191   -4.6963   22.3403 C   0  0  0  0  0  0
  -22.7825  -13.5234   21.1860 C   0  0  0  0  0  0
  -22.1660   -4.2148   21.0982 F   0  0  0  0  0  0
  -21.5629   -3.4540   25.7741 F   0  0  0  0  0  0
  -29.9903  -13.4871   20.3498 N   0  0  0  0  0  0
  -26.2943  -12.9362   20.3292 N   0  0  0  0  0  0
  -25.9303  -11.6523   20.5812 N   0  0  0  0  0  0
  -22.0469  -12.8226   22.0416 N   0  0  0  0  0  0
  -25.4269  -15.1898   20.4196 N   0  0  0  0  0  0
  -31.8513  -14.7680   20.3023 O   0  0  0  0  0  0
  -21.6639   -6.8879   21.4241 O   0  0  0  0  0  0
  -22.3508  -14.5538   20.6705 O   0  0  0  0  0  0
  -24.6247  -31.8593   23.2007 C   0  0  0  0  0  0
  -25.9098  -32.4777   23.8340 C   0  0  1  0  0  0
  -27.2267  -27.3248   20.1350 C   0  0  0  0  0  0
  -25.5919  -33.8576   24.2276 N   0  0  0  0  0  0
  -23.4187  -30.4803   21.5425 C   0  0  2  0  0  0
  -24.8673  -28.9285   20.1159 C   0  0  0  0  0  0
  -22.7466  -29.4619   22.4935 C   0  0  0  0  0  0
  -18.0283  -28.1382   22.8484 C   0  0  0  0  0  0
  -24.1489  -36.7294   23.2639 C   0  0  0  0  0  0
  -25.9567  -30.7947   21.3677 C   0  0  0  0  0  0
  -26.0339  -29.4193   20.7169 C   0  0  0  0  0  0
  -27.2203  -28.6303   20.7112 C   0  0  0  0  0  0
  -26.0424  -26.8757   19.5175 C   0  0  0  0  0  0
  -24.8727  -27.6623   19.5059 C   0  0  0  0  0  0
  -23.6345  -29.8084   20.1597 C   0  0  0  0  0  0
  -25.4114  -36.3083   24.0329 C   0  0  1  0  0  0
  -20.5881  -28.3684   23.1287 C   0  0  2  0  0  0
  -20.6772  -26.9408   22.5410 C   0  0  0  0  0  0
  -19.5750  -26.6383   21.5210 C   0  0  0  0  0  0
  -18.1930  -26.7923   22.1622 C   0  0  0  0  0  0
  -19.1534  -28.8849   23.2882 C   0  0  0  0  0  0
  -18.9460  -30.1452   23.8896 C   0  0  0  0  0  0
  -17.6461  -30.6585   24.0562 C   0  0  0  0  0  0
  -25.9046  -34.9453   23.5102 C   0  0  0  0  0  0
  -16.5352  -29.9084   23.6327 C   0  0  0  0  0  0
  -16.7270  -28.6502   23.0346 C   0  0  0  0  0  0
  -26.4491  -31.6582   25.0705 C   0  0  0  0  0  0
  -25.3736  -31.3717   26.1439 C   0  0  0  0  0  0
  -27.0329  -30.3009   24.6139 C   0  0  0  0  0  0
  -27.6053  -32.4312   25.7479 C   0  0  0  0  0  0
  -27.5578  -37.1804   24.8464 C   0  0  0  0  0  0
  -21.4179  -29.3039   22.3682 N   0  0  0  0  0  0
  -26.4291  -37.3778   23.9406 N   0  0  0  0  0  0
  -24.6854  -31.0616   22.0946 N   0  0  0  0  0  0
  -23.4192  -28.8165   23.3018 O   0  0  0  0  0  0
  -28.3505  -26.4945   20.1361 O   0  0  0  0  0  0
  -26.5615  -34.8920   22.4668 O   0  0  0  0  0  0
  -23.5414  -32.1384   23.7343 O   0  0  0  0  0  0
  -30.0152  -19.4231   20.8251 C   0  0  0  0  0  0
  -27.9535  -18.9475   19.6997 C   0  0  0  0  0  0
  -30.3529  -18.0241   20.7957 C   0  0  0  0  0  0
  -28.2808  -17.5671   19.6771 C   0  0  0  0  0  0
  -28.8224  -19.9419   20.2305 C   0  0  0  0  0  0
  -29.5063  -17.0593   20.1773 C   0  0  0  0  0  0
  -29.0266  -22.5174   20.5944 C   0  0  0  0  0  0
  -27.3029  -23.3164   19.1510 C   0  0  0  0  0  0
  -27.4542  -21.7841   19.0920 C   0  0  0  0  0  0
  -28.5221  -23.8409   19.9069 C   0  0  1  0  0  0
  -30.0528  -15.7106   18.2652 C   0  0  0  0  0  0
  -28.2435  -25.1584   20.7672 C   0  0  0  0  0  0
  -28.4861  -21.3783   20.0549 N   0  0  0  0  0  0
  -29.9061  -15.7165   19.7336 N   0  0  0  0  0  0
  -29.8439  -22.5426   21.5197 O   0  0  0  0  0  0
  -31.4736  -12.5273   19.1445 H   0  0  0  0  0  0
  -30.4021  -11.4444   19.9965 H   0  0  0  0  0  0
  -29.7493  -11.5105   17.6103 H   0  0  0  0  0  0
  -29.6574  -13.2298   17.5904 H   0  0  0  0  0  0
  -27.8394  -11.2474   18.9357 H   0  0  0  0  0  0
  -27.3731  -12.4758   17.7959 H   0  0  0  0  0  0
  -27.6234  -14.2286   19.4288 H   0  0  0  0  0  0
  -28.7166  -12.2017   21.4450 H   0  0  0  0  0  0
  -28.4525  -13.9105   21.7336 H   0  0  0  0  0  0
  -25.2756   -9.5684   22.4770 H   0  0  0  0  0  0
  -24.0004   -7.4627   22.7468 H   0  0  0  0  0  0
  -21.0845   -8.8774   19.8949 H   0  0  0  0  0  0
  -22.3696  -10.9677   19.6177 H   0  0  0  0  0  0
  -21.2005   -7.6147   23.9718 H   0  0  0  0  0  0
  -21.1481   -6.0521   25.9079 H   0  0  0  0  0  0
  -22.0598   -2.7610   23.2849 H   0  0  0  0  0  0
  -22.4085  -11.9895   22.4817 H   0  0  0  0  0  0
  -21.1085  -13.1250   22.2617 H   0  0  0  0  0  0
  -24.6717  -15.8523   20.5578 H   0  0  0  0  0  0
  -26.3040  -15.6308   20.1780 H   0  0  0  0  0  0
  -26.7164  -32.5458   23.1092 H   0  0  0  0  0  0
  -25.0078  -33.9722   25.0428 H   0  0  0  0  0  0
  -22.7119  -31.2996   21.3959 H   0  0  0  0  0  0
  -23.3748  -35.9630   23.3304 H   0  0  0  0  0  0
  -24.3581  -36.8911   22.2053 H   0  0  0  0  0  0
  -23.7245  -37.6499   23.6655 H   0  0  0  0  0  0
  -26.0815  -31.5552   20.5956 H   0  0  0  0  0  0
  -26.8395  -30.8503   21.9932 H   0  0  0  0  0  0
  -28.1201  -29.0052   21.1789 H   0  0  0  0  0  0
  -26.0198  -25.9049   19.0447 H   0  0  0  0  0  0
  -23.9788  -27.2807   19.0320 H   0  0  0  0  0  0
  -23.7542  -30.5810   19.3993 H   0  0  0  0  0  0
  -22.7554  -29.2358   19.8588 H   0  0  0  0  0  0
  -25.1295  -36.1933   25.0821 H   0  0  0  0  0  0
  -20.9978  -28.3259   24.1407 H   0  0  0  0  0  0
  -20.5669  -26.2294   23.3607 H   0  0  0  0  0  0
  -21.6643  -26.7437   22.1210 H   0  0  0  0  0  0
  -19.6913  -25.6295   21.1238 H   0  0  0  0  0  0
  -19.6691  -27.3192   20.6740 H   0  0  0  0  0  0
  -17.4200  -26.6666   21.4024 H   0  0  0  0  0  0
  -18.0336  -26.0066   22.9021 H   0  0  0  0  0  0
  -19.7937  -30.7266   24.2267 H   0  0  0  0  0  0
  -17.5015  -31.6264   24.5163 H   0  0  0  0  0  0
  -15.5351  -30.2987   23.7650 H   0  0  0  0  0  0
  -15.8672  -28.0823   22.7059 H   0  0  0  0  0  0
  -24.5910  -30.7063   25.7776 H   0  0  0  0  0  0
  -24.8931  -32.2884   26.4867 H   0  0  0  0  0  0
  -25.8077  -30.8898   27.0209 H   0  0  0  0  0  0
  -26.2895  -29.6767   24.1166 H   0  0  0  0  0  0
  -27.4039  -29.7255   25.4631 H   0  0  0  0  0  0
  -27.8757  -30.4300   23.9345 H   0  0  0  0  0  0
  -27.2659  -33.3605   26.2067 H   0  0  0  0  0  0
  -28.3863  -32.6883   25.0311 H   0  0  0  0  0  0
  -28.0718  -31.8428   26.5391 H   0  0  0  0  0  0
  -28.2601  -38.0096   24.7505 H   0  0  0  0  0  0
  -28.1070  -36.2628   24.6299 H   0  0  0  0  0  0
  -27.2295  -37.1464   25.8868 H   0  0  0  0  0  0
  -20.9353  -29.8765   21.6898 H   0  0  0  0  0  0
  -26.0173  -38.2853   24.1404 H   0  0  0  0  0  0
  -30.7337  -20.1082   21.2520 H   0  0  0  0  0  0
  -27.0211  -19.2233   19.2315 H   0  0  0  0  0  0
  -31.3203  -17.7171   21.1676 H   0  0  0  0  0  0
  -27.6040  -16.8986   19.1646 H   0  0  0  0  0  0
  -26.3873  -23.5671   19.6885 H   0  0  0  0  0  0
  -27.2229  -23.7531   18.1547 H   0  0  0  0  0  0
  -27.7547  -21.4671   18.0922 H   0  0  0  0  0  0
  -26.4943  -21.3195   19.3177 H   0  0  0  0  0  0
  -29.3048  -24.0825   19.1876 H   0  0  0  0  0  0
  -30.2968  -16.7036   17.8832 H   0  0  0  0  0  0
  -29.1179  -15.4072   17.7947 H   0  0  0  0  0  0
  -30.8489  -15.0587   17.8994 H   0  0  0  0  0  0
  -28.9695  -25.1758   21.5803 H   0  0  0  0  0  0
  -27.2813  -25.0610   21.2723 H   0  0  0  0  0  0
  1 25  1  0  0  0
  1 30  2  0  0  0
  1 84  1  0  0  0
  2  3  1  0  0  0
  2 25  1  0  0  0
  2 86  1  0  0  0
  2 87  1  0  0  0
  3  4  1  0  0  0
  3 88  1  0  0  0
  3 89  1  0  0  0
  4  5  1  0  0  0
  4 90  1  0  0  0
  4 91  1  0  0  0
  5  6  1  0  0  0
  5 26  1  0  0  0
  5 92  1  0  0  0
  6 25  1  0  0  0
  6 93  1  0  0  0
  6 94  1  0  0  0
  7  8  2  0  0  0
  7 26  1  0  0  0
  7 29  1  0  0  0
  8  9  1  0  0  0
  8 22  1  0  0  0
  9 10  1  0  0  0
  9 27  2  0  0  0
 10 11  2  0  0  0
 10 15  1  0  0  0
 11 12  1  0  0  0
 11 95  1  0  0  0
 12 13  2  0  0  0
 12 96  1  0  0  0
 13 14  1  0  0  0
 13 31  1  0  0  0
 14 15  2  0  0  0
 14 97  1  0  0  0
 15 98  1  0  0  0
 16 17  2  0  0  0
 16 21  1  0  0  0
 16 31  1  0  0  0
 17 18  1  0  0  0
 17 99  1  0  0  0
 18 19  2  0  0  0
 18100  1  0  0  0
 19 20  1  0  0  0
 19 24  1  0  0  0
 20 21  2  0  0  0
 20101  1  0  0  0
 21 23  1  0  0  0
 22 28  1  0  0  0
 22 32  2  0  0  0
 26 27  1  0  0  0
 28102  1  0  0  0
 28103  1  0  0  0
 29104  1  0  0  0
 29105  1  0  0  0
 33 34  1  0  0  0
 33 66  1  0  0  0
 33 70  2  0  0  0
 34 36  1  0  0  0
 34 59  1  0  0  0
 34106  1  0  0  0
 35 44  2  0  0  0
 35 45  1  0  0  0
 35 68  1  0  0  0
 36 56  1  0  0  0
 36107  1  0  0  0
 37 39  1  0  0  0
 37 47  1  0  0  0
 37 66  1  0  0  0
 37108  1  0  0  0
 38 43  2  0  0  0
 38 46  1  0  0  0
 38 47  1  0  0  0
 39 64  1  0  0  0
 39 67  2  0  0  0
 40 52  1  0  0  0
 40 53  2  0  0  0
 40 58  1  0  0  0
 41109  1  0  0  0
 41110  1  0  0  0
 41111  1  0  0  0
 41 48  1  0  0  0
 42 43  1  0  0  0
 42 66  1  0  0  0
 42112  1  0  0  0
 42113  1  0  0  0
 43 44  1  0  0  0
 44114  1  0  0  0
 45 46  2  0  0  0
 45115  1  0  0  0
 46116  1  0  0  0
 47117  1  0  0  0
 47118  1  0  0  0
 48 56  1  0  0  0
 48 65  1  0  0  0
 48119  1  0  0  0
 49 50  1  0  0  0
 49 53  1  0  0  0
 49 64  1  0  0  0
 49120  1  0  0  0
 50 51  1  0  0  0
 50121  1  0  0  0
 50122  1  0  0  0
 51 52  1  0  0  0
 51123  1  0  0  0
 51124  1  0  0  0
 52125  1  0  0  0
 52126  1  0  0  0
 53 54  1  0  0  0
 54 55  2  0  0  0
 54127  1  0  0  0
 55 57  1  0  0  0
 55128  1  0  0  0
 56 69  2  0  0  0
 57 58  2  0  0  0
 57129  1  0  0  0
 58130  1  0  0  0
 59 60  1  0  0  0
 59 61  1  0  0  0
 59 62  1  0  0  0
 60131  1  0  0  0
 60132  1  0  0  0
 60133  1  0  0  0
 61134  1  0  0  0
 61135  1  0  0  0
 61136  1  0  0  0
 62137  1  0  0  0
 62138  1  0  0  0
 62139  1  0  0  0
 63 65  1  0  0  0
 63140  1  0  0  0
 63141  1  0  0  0
 63142  1  0  0  0
 64143  1  0  0  0
 65144  1  0  0  0
 68 82  1  0  0  0
 71 73  2  0  0  0
 71 75  1  0  0  0
 71145  1  0  0  0
 72 74  1  0  0  0
 72 75  2  0  0  0
 72146  1  0  0  0
 73 76  1  0  0  0
 73147  1  0  0  0
 74 76  2  0  0  0
 74148  1  0  0  0
 75 83  1  0  0  0
 76 84  1  0  0  0
 77 80  1  0  0  0
 77 83  1  0  0  0
 77 85  2  0  0  0
 78 79  1  0  0  0
 78 80  1  0  0  0
 78149  1  0  0  0
 78150  1  0  0  0
 79 83  1  0  0  0
 79151  1  0  0  0
 79152  1  0  0  0
 80 82  1  0  0  0
 80153  1  0  0  0
 81 84  1  0  0  0
 81154  1  0  0  0
 81155  1  0  0  0
 81156  1  0  0  0
 82157  1  0  0  0
 82158  1  0  0  0
M  ISO  4   1 100  68 101  82 101  84 100
M  END
> <chiral flag>
0

> <version>
0

> <s_m_source_file>
/data/baiqing/PycharmProjects/Reinvent-master-3.2/result/LINK_invent/BTK/process_docking_weight1_custom_product_contain_oxygen_bond_distance_aromatic_linkinvent_7_9_3/rearranged_h_0016.sdf

> <i_m_source_file_index>
64

> <r_mmod_Potential_Energy-OPLS-2005>
435.304718017578

> <r_mmod_Stretch_Energy-OPLS-2005>
86.6733856201172

> <r_mmod_Bend_Energy-OPLS-2005>
185.174057006836

> <r_mmod_Torsional_Energy-OPLS-2005>
399.541442871094

> <r_mmod_Improper_Torsional_Energy-OPLS-2005>
31.7825603485107

> <r_mmod_Van_der_Waal_Energy-OPLS-2005>
138.330413818359

> <r_mmod_Electrostatic_Energy-OPLS-2005>
-274.18603515625

> <r_mmod_Solvation_Energy-OPLS-2005>
-206.901107788086

> <b_mmod_Minimization_Converged-OPLS-2005>
0

> <r_mmod_RMS_Derivative-OPLS-2005>
0.592943966388702

$$$$
64
                    3D
 Structure written by MMmdl.
155163  0  0  1  0            999 V2000
  -30.5586  -14.9266   20.3690 C   0  0  0  0  0  0
  -30.4467  -12.5570   19.4817 C   0  0  0  0  0  0
  -29.5194  -12.4510   18.2481 C   0  0  0  0  0  0
  -28.0410  -12.3106   18.6630 C   0  0  0  0  0  0
  -27.6314  -13.2416   19.8373 C   0  0  2  0  0  0
  -28.6873  -13.2745   20.9589 C   0  0  0  0  0  0
  -25.2511  -13.8221   20.5752 C   0  0  0  0  0  0
  -24.1795  -13.0448   20.9219 C   0  0  0  0  0  0
  -24.6390  -11.6936   20.8742 C   0  0  0  0  0  0
  -23.9064  -10.4306   21.0387 C   0  0  0  0  0  0
  -24.3622   -9.4233   21.9179 C   0  0  0  0  0  0
  -23.6314   -8.2256   22.0758 C   0  0  0  0  0  0
  -22.4304   -8.0272   21.3542 C   0  0  0  0  0  0
  -21.9916   -9.0239   20.4657 C   0  0  0  0  0  0
  -22.7219  -10.2131   20.3064 C   0  0  0  0  0  0
  -21.6870   -6.0732   22.5250 C   0  0  0  0  0  0
  -21.4014   -6.5641   23.8170 C   0  0  0  0  0  0
  -21.3670   -5.6803   24.9135 C   0  0  0  0  0  0
  -21.6048   -4.3061   24.7197 C   0  0  0  0  0  0
  -21.8830   -3.8152   23.4320 C   0  0  0  0  0  0
  -21.9209   -4.6966   22.3379 C   0  0  0  0  0  0
  -22.7812  -13.5215   21.1873 C   0  0  0  0  0  0
  -22.1681   -4.2148   21.0957 F   0  0  0  0  0  0
  -21.5635   -3.4554   25.7716 F   0  0  0  0  0  0
  -29.9520  -13.6737   20.3287 N   0  0  0  0  0  0
  -26.2924  -12.9435   20.3322 N   0  0  0  0  0  0
  -25.9327  -11.6568   20.5787 N   0  0  0  0  0  0
  -22.0481  -12.8174   22.0418 N   0  0  0  0  0  0
  -25.4230  -15.1947   20.4202 N   0  0  0  0  0  0
  -31.7925  -14.9564   20.2953 O   0  0  0  0  0  0
  -21.6676   -6.8865   21.4213 O   0  0  0  0  0  0
  -22.3483  -14.5513   20.6722 O   0  0  0  0  0  0
  -24.6409  -31.8460   23.1908 C   0  0  0  0  0  0
  -25.9207  -32.4684   23.8278 C   0  0  1  0  0  0
  -27.2139  -27.1611   20.1487 C   0  0  0  0  0  0
  -25.5955  -33.8489   24.2191 N   0  0  0  0  0  0
  -23.4415  -30.4698   21.5357 C   0  0  2  0  0  0
  -24.8906  -28.9046   20.1058 C   0  0  0  0  0  0
  -22.7536  -29.4579   22.4863 C   0  0  0  0  0  0
  -18.0292  -28.1394   22.8479 C   0  0  0  0  0  0
  -24.1505  -36.7262   23.2650 C   0  0  0  0  0  0
  -25.9966  -30.7316   21.3849 C   0  0  0  0  0  0
  -26.0684  -29.3470   20.7227 C   0  0  0  0  0  0
  -27.2308  -28.4924   20.7257 C   0  0  0  0  0  0
  -26.0118  -26.8187   19.4889 C   0  0  0  0  0  0
  -24.8765  -27.6540   19.4725 C   0  0  0  0  0  0
  -23.6650  -29.8025   20.1531 C   0  0  0  0  0  0
  -25.4133  -36.3024   24.0317 C   0  0  1  0  0  0
  -20.5898  -28.3732   23.1224 C   0  0  2  0  0  0
  -20.6779  -26.9430   22.5412 C   0  0  0  0  0  0
  -19.5763  -26.6385   21.5208 C   0  0  0  0  0  0
  -18.1941  -26.7938   22.1609 C   0  0  0  0  0  0
  -19.1547  -28.8876   23.2847 C   0  0  0  0  0  0
  -18.9473  -30.1465   23.8888 C   0  0  0  0  0  0
  -17.6471  -30.6592   24.0557 C   0  0  0  0  0  0
  -25.9078  -34.9395   23.5063 C   0  0  0  0  0  0
  -16.5363  -29.9093   23.6328 C   0  0  0  0  0  0
  -16.7274  -28.6498   23.0368 C   0  0  0  0  0  0
  -26.4539  -31.6538   25.0717 C   0  0  0  0  0  0
  -25.3720  -31.3699   26.1404 C   0  0  0  0  0  0
  -27.0413  -30.2933   24.6305 C   0  0  0  0  0  0
  -27.6078  -32.4306   25.7487 C   0  0  0  0  0  0
  -27.5577  -37.1786   24.8460 C   0  0  0  0  0  0
  -21.4231  -29.3066   22.3595 N   0  0  0  0  0  0
  -26.4288  -37.3741   23.9402 N   0  0  0  0  0  0
  -24.7131  -31.0361   22.0926 N   0  0  0  0  0  0
  -23.4190  -28.8136   23.3016 O   0  0  0  0  0  0
  -28.2663  -26.1826   20.2304 O   0  0  0  0  0  0
  -26.5655  -34.8888   22.4637 O   0  0  0  0  0  0
  -23.5544  -32.1325   23.7154 O   0  0  0  0  0  0
  -28.2886  -18.0600   19.8674 C   0  0  0  0  0  0
  -30.4304  -18.5169   20.7323 C   0  0  0  0  0  0
  -27.9540  -19.4582   19.9386 C   0  0  0  0  0  0
  -30.0832  -19.9422   20.8103 C   0  0  0  0  0  0
  -29.5421  -17.4880   20.2459 C   0  0  0  0  0  0
  -28.8148  -20.5032   20.4102 C   0  0  0  0  0  0
  -29.7443  -15.9310   18.3749 C   0  0  0  0  0  0
  -26.9733  -21.9058   21.1459 C   0  0  0  0  0  0
  -28.9153  -23.3304   20.4737 C   0  0  0  0  0  0
  -27.9537  -24.6691   20.1105 C   0  0  0  0  0  0
  -29.8316  -16.0377   19.8451 N   0  0  0  0  0  0
  -28.2987  -21.9006   20.5167 N   0  0  0  0  0  0
  -31.4757  -12.7194   19.1579 H   0  0  0  0  0  0
  -30.4543  -11.6236   20.0459 H   0  0  0  0  0  0
  -29.8067  -11.5888   17.6454 H   0  0  0  0  0  0
  -29.6468  -13.3136   17.5973 H   0  0  0  0  0  0
  -27.8915  -11.2703   18.9510 H   0  0  0  0  0  0
  -27.3907  -12.4827   17.8050 H   0  0  0  0  0  0
  -27.5833  -14.2447   19.4195 H   0  0  0  0  0  0
  -28.7758  -12.3027   21.4464 H   0  0  0  0  0  0
  -28.4082  -13.9938   21.7302 H   0  0  0  0  0  0
  -25.2748   -9.5741   22.4774 H   0  0  0  0  0  0
  -24.0036   -7.4664   22.7487 H   0  0  0  0  0  0
  -21.0848   -8.8731   19.8963 H   0  0  0  0  0  0
  -22.3633  -10.9677   19.6202 H   0  0  0  0  0  0
  -21.1984   -7.6151   23.9655 H   0  0  0  0  0  0
  -21.1496   -6.0543   25.9032 H   0  0  0  0  0  0
  -22.0607   -2.7622   23.2809 H   0  0  0  0  0  0
  -22.4123  -11.9825   22.4786 H   0  0  0  0  0  0
  -21.1105  -13.1178   22.2648 H   0  0  0  0  0  0
  -24.6690  -15.8606   20.5469 H   0  0  0  0  0  0
  -26.2927  -15.6302   20.1434 H   0  0  0  0  0  0
  -26.7274  -32.5307   23.1008 H   0  0  0  0  0  0
  -25.0053  -33.9593   25.0308 H   0  0  0  0  0  0
  -22.7434  -31.2959   21.3840 H   0  0  0  0  0  0
  -23.3752  -35.9607   23.3293 H   0  0  0  0  0  0
  -24.3596  -36.8924   22.2071 H   0  0  0  0  0  0
  -23.7281  -37.6461   23.6702 H   0  0  0  0  0  0
  -26.1469  -31.4941   20.6188 H   0  0  0  0  0  0
  -26.8669  -30.7774   22.0273 H   0  0  0  0  0  0
  -28.1259  -28.8270   21.2293 H   0  0  0  0  0  0
  -25.9107  -25.8634   18.9968 H   0  0  0  0  0  0
  -23.9794  -27.3115   18.9757 H   0  0  0  0  0  0
  -23.7928  -30.5802   19.3988 H   0  0  0  0  0  0
  -22.7802  -29.2433   19.8451 H   0  0  0  0  0  0
  -25.1329  -36.1843   25.0809 H   0  0  0  0  0  0
  -20.9976  -28.3340   24.1345 H   0  0  0  0  0  0
  -20.5668  -26.2353   23.3648 H   0  0  0  0  0  0
  -21.6653  -26.7451   22.1214 H   0  0  0  0  0  0
  -19.6943  -25.6289   21.1264 H   0  0  0  0  0  0
  -19.6698  -27.3177   20.6722 H   0  0  0  0  0  0
  -17.4212  -26.6670   21.4012 H   0  0  0  0  0  0
  -18.0334  -26.0085   22.9007 H   0  0  0  0  0  0
  -19.7950  -30.7276   24.2271 H   0  0  0  0  0  0
  -17.5031  -31.6273   24.5158 H   0  0  0  0  0  0
  -15.5368  -30.3001   23.7668 H   0  0  0  0  0  0
  -15.8663  -28.0816   22.7120 H   0  0  0  0  0  0
  -24.5948  -30.6992   25.7715 H   0  0  0  0  0  0
  -24.8846  -32.2860   26.4754 H   0  0  0  0  0  0
  -25.8018  -30.8933   27.0225 H   0  0  0  0  0  0
  -26.3040  -29.6622   24.1335 H   0  0  0  0  0  0
  -27.4039  -29.7271   25.4896 H   0  0  0  0  0  0
  -27.8935  -30.4158   23.9613 H   0  0  0  0  0  0
  -27.2690  -33.3643   26.1981 H   0  0  0  0  0  0
  -28.3919  -32.6799   25.0322 H   0  0  0  0  0  0
  -28.0703  -31.8475   26.5463 H   0  0  0  0  0  0
  -28.2570  -38.0103   24.7503 H   0  0  0  0  0  0
  -28.1089  -36.2625   24.6280 H   0  0  0  0  0  0
  -27.2283  -37.1428   25.8860 H   0  0  0  0  0  0
  -20.9437  -29.8747   21.6749 H   0  0  0  0  0  0
  -26.0144  -38.2811   24.1390 H   0  0  0  0  0  0
  -27.5410  -17.4034   19.4471 H   0  0  0  0  0  0
  -31.4326  -18.2273   21.0157 H   0  0  0  0  0  0
  -26.9660  -19.7250   19.5934 H   0  0  0  0  0  0
  -30.8259  -20.6168   21.2109 H   0  0  0  0  0  0
  -28.8063  -15.4755   18.0650 H   0  0  0  0  0  0
  -30.5616  -15.3570   17.9322 H   0  0  0  0  0  0
  -29.7980  -16.9062   17.8891 H   0  0  0  0  0  0
  -26.6700  -20.9394   21.5543 H   0  0  0  0  0  0
  -26.2147  -22.2142   20.4253 H   0  0  0  0  0  0
  -26.9416  -22.6039   21.9843 H   0  0  0  0  0  0
  -29.3637  -23.5007   21.4540 H   0  0  0  0  0  0
  -29.7548  -23.3118   19.7790 H   0  0  0  0  0  0
  -27.0419  -24.5488   20.6948 H   0  0  0  0  0  0
  -27.6514  -24.5190   19.0737 H   0  0  0  0  0  0
  1 25  1  0  0  0
  1 30  2  0  0  0
  1 81  1  0  0  0
  2  3  1  0  0  0
  2 25  1  0  0  0
  2 83  1  0  0  0
  2 84  1  0  0  0
  3  4  1  0  0  0
  3 85  1  0  0  0
  3 86  1  0  0  0
  4  5  1  0  0  0
  4 87  1  0  0  0
  4 88  1  0  0  0
  5  6  1  0  0  0
  5 26  1  0  0  0
  5 89  1  0  0  0
  6 25  1  0  0  0
  6 90  1  0  0  0
  6 91  1  0  0  0
  7  8  2  0  0  0
  7 26  1  0  0  0
  7 29  1  0  0  0
  8  9  1  0  0  0
  8 22  1  0  0  0
  9 10  1  0  0  0
  9 27  2  0  0  0
 10 11  2  0  0  0
 10 15  1  0  0  0
 11 12  1  0  0  0
 11 92  1  0  0  0
 12 13  2  0  0  0
 12 93  1  0  0  0
 13 14  1  0  0  0
 13 31  1  0  0  0
 14 15  2  0  0  0
 14 94  1  0  0  0
 15 95  1  0  0  0
 16 17  2  0  0  0
 16 21  1  0  0  0
 16 31  1  0  0  0
 17 18  1  0  0  0
 17 96  1  0  0  0
 18 19  2  0  0  0
 18 97  1  0  0  0
 19 20  1  0  0  0
 19 24  1  0  0  0
 20 21  2  0  0  0
 20 98  1  0  0  0
 21 23  1  0  0  0
 22 28  1  0  0  0
 22 32  2  0  0  0
 26 27  1  0  0  0
 28 99  1  0  0  0
 28100  1  0  0  0
 29101  1  0  0  0
 29102  1  0  0  0
 33 34  1  0  0  0
 33 66  1  0  0  0
 33 70  2  0  0  0
 34 36  1  0  0  0
 34 59  1  0  0  0
 34103  1  0  0  0
 35 44  2  0  0  0
 35 45  1  0  0  0
 35 68  1  0  0  0
 36 56  1  0  0  0
 36104  1  0  0  0
 37 39  1  0  0  0
 37 47  1  0  0  0
 37 66  1  0  0  0
 37105  1  0  0  0
 38 43  2  0  0  0
 38 46  1  0  0  0
 38 47  1  0  0  0
 39 64  1  0  0  0
 39 67  2  0  0  0
 40 52  1  0  0  0
 40 53  2  0  0  0
 40 58  1  0  0  0
 41106  1  0  0  0
 41107  1  0  0  0
 41108  1  0  0  0
 41 48  1  0  0  0
 42 43  1  0  0  0
 42 66  1  0  0  0
 42109  1  0  0  0
 42110  1  0  0  0
 43 44  1  0  0  0
 44111  1  0  0  0
 45 46  2  0  0  0
 45112  1  0  0  0
 46113  1  0  0  0
 47114  1  0  0  0
 47115  1  0  0  0
 48 56  1  0  0  0
 48 65  1  0  0  0
 48116  1  0  0  0
 49 50  1  0  0  0
 49 53  1  0  0  0
 49 64  1  0  0  0
 49117  1  0  0  0
 50 51  1  0  0  0
 50118  1  0  0  0
 50119  1  0  0  0
 51 52  1  0  0  0
 51120  1  0  0  0
 51121  1  0  0  0
 52122  1  0  0  0
 52123  1  0  0  0
 53 54  1  0  0  0
 54 55  2  0  0  0
 54124  1  0  0  0
 55 57  1  0  0  0
 55125  1  0  0  0
 56 69  2  0  0  0
 57 58  2  0  0  0
 57126  1  0  0  0
 58127  1  0  0  0
 59 60  1  0  0  0
 59 61  1  0  0  0
 59 62  1  0  0  0
 60128  1  0  0  0
 60129  1  0  0  0
 60130  1  0  0  0
 61131  1  0  0  0
 61132  1  0  0  0
 61133  1  0  0  0
 62134  1  0  0  0
 62135  1  0  0  0
 62136  1  0  0  0
 63 65  1  0  0  0
 63137  1  0  0  0
 63138  1  0  0  0
 63139  1  0  0  0
 64140  1  0  0  0
 65141  1  0  0  0
 68 80  1  0  0  0
 71 73  2  0  0  0
 71 75  1  0  0  0
 71142  1  0  0  0
 72 74  1  0  0  0
 72 75  2  0  0  0
 72143  1  0  0  0
 73 76  1  0  0  0
 73144  1  0  0  0
 74 76  2  0  0  0
 74145  1  0  0  0
 75 81  1  0  0  0
 76 82  1  0  0  0
 77 81  1  0  0  0
 77146  1  0  0  0
 77147  1  0  0  0
 77148  1  0  0  0
 78 82  1  0  0  0
 78149  1  0  0  0
 78150  1  0  0  0
 78151  1  0  0  0
 79 80  1  0  0  0
 79 82  1  0  0  0
 79152  1  0  0  0
 79153  1  0  0  0
 80154  1  0  0  0
 80155  1  0  0  0
M  ISO  4   1 100  68 101  80 101  81 100
M  END
> <chiral flag>
0

> <version>
0

> <s_m_source_file>
/data/baiqing/PycharmProjects/Reinvent-master-3.2/result/LINK_invent/BTK/process_docking_weight1_custom_product_contain_oxygen_bond_distance_aromatic_linkinvent_7_9_3/rearranged_h_0016.sdf

> <i_m_source_file_index>
65

> <r_mmod_Potential_Energy-OPLS-2005>
683.878845214844

> <r_mmod_Stretch_Energy-OPLS-2005>
219.790084838867

> <r_mmod_Bend_Energy-OPLS-2005>
288.205352783203

> <r_mmod_Torsional_Energy-OPLS-2005>
327.888244628906

> <r_mmod_Improper_Torsional_Energy-OPLS-2005>
28.8177642822266

> <r_mmod_Van_der_Waal_Energy-OPLS-2005>
147.120971679688

> <r_mmod_Electrostatic_Energy-OPLS-2005>
-296.586944580078

> <r_mmod_Solvation_Energy-OPLS-2005>
-213.265380859375

> <b_mmod_Minimization_Converged-OPLS-2005>
0

> <r_mmod_RMS_Derivative-OPLS-2005>
2.22342562675476

$$$$
65
                    3D
 Structure written by MMmdl.
160168  0  0  1  0            999 V2000
  -30.7098  -14.6543   20.5169 C   0  0  0  0  0  0
  -30.4060  -12.3999   19.4551 C   0  0  0  0  0  0
  -29.5051  -12.5524   18.2165 C   0  0  0  0  0  0
  -28.0344  -12.3580   18.6230 C   0  0  0  0  0  0
  -27.6515  -13.2338   19.8481 C   0  0  2  0  0  0
  -28.6974  -13.1265   20.9804 C   0  0  0  0  0  0
  -25.2559  -13.8206   20.5600 C   0  0  0  0  0  0
  -24.1810  -13.0387   20.9039 C   0  0  0  0  0  0
  -24.6386  -11.6903   20.8610 C   0  0  0  0  0  0
  -23.9046  -10.4279   21.0292 C   0  0  0  0  0  0
  -24.3566   -9.4219   21.9140 C   0  0  0  0  0  0
  -23.6230   -8.2279   22.0776 C   0  0  0  0  0  0
  -22.4243   -8.0269   21.3549 C   0  0  0  0  0  0
  -21.9849   -9.0223   20.4648 C   0  0  0  0  0  0
  -22.7174  -10.2086   20.2996 C   0  0  0  0  0  0
  -21.6845   -6.0675   22.5243 C   0  0  0  0  0  0
  -21.3976   -6.5575   23.8163 C   0  0  0  0  0  0
  -21.3698   -5.6767   24.9150 C   0  0  0  0  0  0
  -21.6083   -4.3024   24.7246 C   0  0  0  0  0  0
  -21.8798   -3.8090   23.4370 C   0  0  0  0  0  0
  -21.9160   -4.6885   22.3396 C   0  0  0  0  0  0
  -22.7882  -13.5235   21.1704 C   0  0  0  0  0  0
  -22.1645   -4.2060   21.0987 F   0  0  0  0  0  0
  -21.5700   -3.4542   25.7787 F   0  0  0  0  0  0
  -30.0204  -13.4558   20.4224 N   0  0  0  0  0  0
  -26.2989  -12.9408   20.3194 N   0  0  0  0  0  0
  -25.9326  -11.6548   20.5647 N   0  0  0  0  0  0
  -22.0524  -12.8214   22.0285 N   0  0  0  0  0  0
  -25.4150  -15.1927   20.4178 N   0  0  0  0  0  0
  -31.8221  -14.7641   19.9973 O   0  0  0  0  0  0
  -21.6640   -6.8831   21.4214 O   0  0  0  0  0  0
  -22.3549  -14.5466   20.6540 O   0  0  0  0  0  0
  -24.6269  -31.8670   23.2227 C   0  0  0  0  0  0
  -25.9086  -32.4804   23.8537 C   0  0  1  0  0  0
  -27.1694  -27.3001   20.1141 C   0  0  0  0  0  0
  -25.5902  -33.8643   24.2416 N   0  0  0  0  0  0
  -23.4137  -30.5075   21.5687 C   0  0  2  0  0  0
  -24.8451  -28.9795   20.0964 C   0  0  0  0  0  0
  -22.7447  -29.4696   22.5020 C   0  0  0  0  0  0
  -18.0271  -28.1454   22.8538 C   0  0  0  0  0  0
  -24.1485  -36.7276   23.2671 C   0  0  0  0  0  0
  -25.9595  -30.7894   21.3992 C   0  0  0  0  0  0
  -26.0083  -29.4205   20.7284 C   0  0  0  0  0  0
  -27.1668  -28.5899   20.7377 C   0  0  0  0  0  0
  -25.9802  -26.9067   19.4536 C   0  0  0  0  0  0
  -24.8362  -27.7394   19.4339 C   0  0  0  0  0  0
  -23.6194  -29.8719   20.1696 C   0  0  0  0  0  0
  -25.4117  -36.3137   24.0371 C   0  0  1  0  0  0
  -20.5858  -28.3737   23.1354 C   0  0  2  0  0  0
  -20.6781  -26.9479   22.5444 C   0  0  0  0  0  0
  -19.5743  -26.6460   21.5277 C   0  0  0  0  0  0
  -18.1903  -26.8001   22.1666 C   0  0  0  0  0  0
  -19.1506  -28.8906   23.2923 C   0  0  0  0  0  0
  -18.9430  -30.1511   23.8954 C   0  0  0  0  0  0
  -17.6426  -30.6639   24.0612 C   0  0  0  0  0  0
  -25.9061  -34.9481   23.5204 C   0  0  0  0  0  0
  -16.5334  -29.9145   23.6373 C   0  0  0  0  0  0
  -16.7254  -28.6554   23.0417 C   0  0  0  0  0  0
  -26.4494  -31.6624   25.0924 C   0  0  0  0  0  0
  -25.3687  -31.3544   26.1574 C   0  0  0  0  0  0
  -27.0419  -30.3111   24.6361 C   0  0  0  0  0  0
  -27.6139  -32.4359   25.7581 C   0  0  0  0  0  0
  -27.5569  -37.1790   24.8465 C   0  0  0  0  0  0
  -21.4167  -29.3059   22.3698 N   0  0  0  0  0  0
  -26.4281  -37.3820   23.9423 N   0  0  0  0  0  0
  -24.6866  -31.0673   22.1200 N   0  0  0  0  0  0
  -23.4156  -28.8252   23.3139 O   0  0  0  0  0  0
  -28.3120  -26.4876   20.2127 O   0  0  0  0  0  0
  -26.5634  -34.8868   22.4781 O   0  0  0  0  0  0
  -23.5462  -32.1508   23.7525 O   0  0  0  0  0  0
  -29.7914  -19.0851   19.2460 C   0  0  0  0  0  0
  -29.8814  -18.1971   21.8250 C   0  0  0  0  0  0
  -29.6951  -20.1263   20.2296 C   0  0  0  0  0  0
  -30.0330  -17.1671   20.8358 C   0  0  0  0  0  0
  -29.7121  -19.5973   21.5611 C   0  0  0  0  0  0
  -29.9609  -17.6832   19.5076 C   0  0  0  0  0  0
  -29.4814  -22.7026   20.6007 C   0  0  0  0  0  0
  -29.1884  -22.6164   17.4805 C   0  0  0  0  0  0
  -30.2570  -15.4726   22.6838 C   0  0  0  0  0  0
  -28.2910  -23.7635   20.5043 C   0  0  0  0  0  0
  -30.1368  -21.9467   18.4931 C   0  0  0  0  0  0
  -28.4381  -25.1290   19.6346 C   0  0  0  0  0  0
  -29.5429  -21.5679   19.8085 N   0  0  0  0  0  0
  -30.1755  -15.7185   21.2351 N   0  0  0  0  0  0
  -30.4461  -23.0000   21.3166 O   0  0  0  0  0  0
  -29.5076  -20.5898   22.9653 Cl  0  0  0  0  0  0
  -30.0032  -16.6482   18.1283 Cl  0  0  0  0  0  0
  -31.4623  -12.4339   19.1834 H   0  0  0  0  0  0
  -30.2573  -11.4118   19.8899 H   0  0  0  0  0  0
  -29.7764  -11.8358   17.4424 H   0  0  0  0  0  0
  -29.6489  -13.5440   17.7822 H   0  0  0  0  0  0
  -27.8932  -11.3043   18.8608 H   0  0  0  0  0  0
  -27.3773  -12.5633   17.7781 H   0  0  0  0  0  0
  -27.6601  -14.2635   19.4959 H   0  0  0  0  0  0
  -28.7090  -12.1143   21.3882 H   0  0  0  0  0  0
  -28.4246  -13.7814   21.8073 H   0  0  0  0  0  0
  -25.2708   -9.5707   22.4721 H   0  0  0  0  0  0
  -23.9906   -7.4706   22.7540 H   0  0  0  0  0  0
  -21.0764   -8.8649   19.9017 H   0  0  0  0  0  0
  -22.3547  -10.9569   19.6065 H   0  0  0  0  0  0
  -21.1885   -7.6075   23.9594 H   0  0  0  0  0  0
  -21.1614   -6.0563   25.9053 H   0  0  0  0  0  0
  -22.0533   -2.7543   23.2933 H   0  0  0  0  0  0
  -22.4192  -11.9910   22.4633 H   0  0  0  0  0  0
  -21.1157  -13.1223   22.2486 H   0  0  0  0  0  0
  -24.6332  -15.8351   20.5223 H   0  0  0  0  0  0
  -26.2751  -15.6530   20.1384 H   0  0  0  0  0  0
  -26.7166  -32.5419   23.1306 H   0  0  0  0  0  0
  -24.9966  -33.9857   25.0498 H   0  0  0  0  0  0
  -22.7066  -31.3337   21.4518 H   0  0  0  0  0  0
  -23.3801  -35.9533   23.3324 H   0  0  0  0  0  0
  -24.3608  -36.8943   22.2083 H   0  0  0  0  0  0
  -23.7137  -37.6430   23.6714 H   0  0  0  0  0  0
  -26.0992  -31.5659   20.6429 H   0  0  0  0  0  0
  -26.8369  -30.8277   22.0353 H   0  0  0  0  0  0
  -28.0509  -28.9039   21.2664 H   0  0  0  0  0  0
  -25.8853  -25.9498   18.9529 H   0  0  0  0  0  0
  -23.9348  -27.4455   18.9124 H   0  0  0  0  0  0
  -23.7190  -30.6704   19.4308 H   0  0  0  0  0  0
  -22.7256  -29.3182   19.8776 H   0  0  0  0  0  0
  -25.1292  -36.2047   25.0857 H   0  0  0  0  0  0
  -20.9986  -28.3361   24.1476 H   0  0  0  0  0  0
  -20.5890  -26.2341   23.3634 H   0  0  0  0  0  0
  -21.6638  -26.7644   22.1155 H   0  0  0  0  0  0
  -19.6938  -25.6395   21.1291 H   0  0  0  0  0  0
  -19.6698  -27.3306   20.6844 H   0  0  0  0  0  0
  -17.4223  -26.6880   21.3987 H   0  0  0  0  0  0
  -18.0191  -26.0094   22.9000 H   0  0  0  0  0  0
  -19.7872  -30.7332   24.2396 H   0  0  0  0  0  0
  -17.4945  -31.6337   24.5188 H   0  0  0  0  0  0
  -15.5326  -30.3070   23.7644 H   0  0  0  0  0  0
  -15.8644  -28.0881   22.7180 H   0  0  0  0  0  0
  -24.6193  -30.6582   25.7800 H   0  0  0  0  0  0
  -24.8444  -32.2520   26.4870 H   0  0  0  0  0  0
  -25.8025  -30.8891   27.0436 H   0  0  0  0  0  0
  -26.3074  -29.6778   24.1419 H   0  0  0  0  0  0
  -27.4216  -29.7454   25.4873 H   0  0  0  0  0  0
  -27.8841  -30.4558   23.9607 H   0  0  0  0  0  0
  -27.3024  -33.3844   26.1970 H   0  0  0  0  0  0
  -28.3931  -32.6620   25.0280 H   0  0  0  0  0  0
  -28.0788  -31.8565   26.5564 H   0  0  0  0  0  0
  -28.2587  -38.0100   24.7628 H   0  0  0  0  0  0
  -28.1119  -36.2660   24.6246 H   0  0  0  0  0  0
  -27.2283  -37.1342   25.8867 H   0  0  0  0  0  0
  -20.9377  -29.8626   21.6742 H   0  0  0  0  0  0
  -26.0201  -38.2897   24.1505 H   0  0  0  0  0  0
  -29.6984  -19.3296   18.2029 H   0  0  0  0  0  0
  -29.8844  -17.9444   22.8721 H   0  0  0  0  0  0
  -29.7750  -23.1633   16.7406 H   0  0  0  0  0  0
  -28.5218  -23.3431   17.9077 H   0  0  0  0  0  0
  -28.5743  -21.8980   16.9480 H   0  0  0  0  0  0
  -31.0040  -16.1279   23.1389 H   0  0  0  0  0  0
  -30.5721  -14.4573   22.9440 H   0  0  0  0  0  0
  -29.2878  -15.6443   23.1604 H   0  0  0  0  0  0
  -28.0823  -24.0590   21.5303 H   0  0  0  0  0  0
  -27.3903  -23.2061   20.2336 H   0  0  0  0  0  0
  -30.9778  -22.6287   18.6509 H   0  0  0  0  0  0
  -30.6288  -21.1189   17.9952 H   0  0  0  0  0  0
  -27.8601  -25.0816   18.7019 H   0  0  0  0  0  0
  -29.4741  -25.1246   19.2822 H   0  0  0  0  0  0
  1 25  1  0  0  0
  1 30  2  0  0  0
  1 84  1  0  0  0
  2  3  1  0  0  0
  2 25  1  0  0  0
  2 88  1  0  0  0
  2 89  1  0  0  0
  3  4  1  0  0  0
  3 90  1  0  0  0
  3 91  1  0  0  0
  4  5  1  0  0  0
  4 92  1  0  0  0
  4 93  1  0  0  0
  5  6  1  0  0  0
  5 26  1  0  0  0
  5 94  1  0  0  0
  6 25  1  0  0  0
  6 95  1  0  0  0
  6 96  1  0  0  0
  7  8  2  0  0  0
  7 26  1  0  0  0
  7 29  1  0  0  0
  8  9  1  0  0  0
  8 22  1  0  0  0
  9 10  1  0  0  0
  9 27  2  0  0  0
 10 11  2  0  0  0
 10 15  1  0  0  0
 11 12  1  0  0  0
 11 97  1  0  0  0
 12 13  2  0  0  0
 12 98  1  0  0  0
 13 14  1  0  0  0
 13 31  1  0  0  0
 14 15  2  0  0  0
 14 99  1  0  0  0
 15100  1  0  0  0
 16 17  2  0  0  0
 16 21  1  0  0  0
 16 31  1  0  0  0
 17 18  1  0  0  0
 17101  1  0  0  0
 18 19  2  0  0  0
 18102  1  0  0  0
 19 20  1  0  0  0
 19 24  1  0  0  0
 20 21  2  0  0  0
 20103  1  0  0  0
 21 23  1  0  0  0
 22 28  1  0  0  0
 22 32  2  0  0  0
 26 27  1  0  0  0
 28104  1  0  0  0
 28105  1  0  0  0
 29106  1  0  0  0
 29107  1  0  0  0
 33 34  1  0  0  0
 33 66  1  0  0  0
 33 70  2  0  0  0
 34 36  1  0  0  0
 34 59  1  0  0  0
 34108  1  0  0  0
 35 44  2  0  0  0
 35 45  1  0  0  0
 35 68  1  0  0  0
 36 56  1  0  0  0
 36109  1  0  0  0
 37 39  1  0  0  0
 37 47  1  0  0  0
 37 66  1  0  0  0
 37110  1  0  0  0
 38 43  2  0  0  0
 38 46  1  0  0  0
 38 47  1  0  0  0
 39 64  1  0  0  0
 39 67  2  0  0  0
 40 52  1  0  0  0
 40 53  2  0  0  0
 40 58  1  0  0  0
 41111  1  0  0  0
 41112  1  0  0  0
 41113  1  0  0  0
 41 48  1  0  0  0
 42 43  1  0  0  0
 42 66  1  0  0  0
 42114  1  0  0  0
 42115  1  0  0  0
 43 44  1  0  0  0
 44116  1  0  0  0
 45 46  2  0  0  0
 45117  1  0  0  0
 46118  1  0  0  0
 47119  1  0  0  0
 47120  1  0  0  0
 48 56  1  0  0  0
 48 65  1  0  0  0
 48121  1  0  0  0
 49 50  1  0  0  0
 49 53  1  0  0  0
 49 64  1  0  0  0
 49122  1  0  0  0
 50 51  1  0  0  0
 50123  1  0  0  0
 50124  1  0  0  0
 51 52  1  0  0  0
 51125  1  0  0  0
 51126  1  0  0  0
 52127  1  0  0  0
 52128  1  0  0  0
 53 54  1  0  0  0
 54 55  2  0  0  0
 54129  1  0  0  0
 55 57  1  0  0  0
 55130  1  0  0  0
 56 69  2  0  0  0
 57 58  2  0  0  0
 57131  1  0  0  0
 58132  1  0  0  0
 59 60  1  0  0  0
 59 61  1  0  0  0
 59 62  1  0  0  0
 60133  1  0  0  0
 60134  1  0  0  0
 60135  1  0  0  0
 61136  1  0  0  0
 61137  1  0  0  0
 61138  1  0  0  0
 62139  1  0  0  0
 62140  1  0  0  0
 62141  1  0  0  0
 63 65  1  0  0  0
 63142  1  0  0  0
 63143  1  0  0  0
 63144  1  0  0  0
 64145  1  0  0  0
 65146  1  0  0  0
 68 82  1  0  0  0
 71 73  2  0  0  0
 71 76  1  0  0  0
 71147  1  0  0  0
 72 74  1  0  0  0
 72 75  2  0  0  0
 72148  1  0  0  0
 73 75  1  0  0  0
 73 83  1  0  0  0
 74 76  2  0  0  0
 74 84  1  0  0  0
 75 86  1  0  0  0
 76 87  1  0  0  0
 77 80  1  0  0  0
 77 83  1  0  0  0
 77 85  2  0  0  0
 78 81  1  0  0  0
 78149  1  0  0  0
 78150  1  0  0  0
 78151  1  0  0  0
 79 84  1  0  0  0
 79152  1  0  0  0
 79153  1  0  0  0
 79154  1  0  0  0
 80 82  1  0  0  0
 80155  1  0  0  0
 80156  1  0  0  0
 81 83  1  0  0  0
 81157  1  0  0  0
 81158  1  0  0  0
 82159  1  0  0  0
 82160  1  0  0  0
M  ISO  4   1 100  68 101  82 101  84 100
M  END
> <chiral flag>
0

> <version>
0

> <s_m_source_file>
/data/baiqing/PycharmProjects/Reinvent-master-3.2/result/LINK_invent/BTK/process_docking_weight1_custom_product_contain_oxygen_bond_distance_aromatic_linkinvent_7_9_3/rearranged_h_0016.sdf

> <i_m_source_file_index>
66

> <r_mmod_Potential_Energy-OPLS-2005>
430.675476074219

> <r_mmod_Stretch_Energy-OPLS-2005>
128.835113525391

> <r_mmod_Bend_Energy-OPLS-2005>
225.186477661133

> <r_mmod_Torsional_Energy-OPLS-2005>
362.863464355469

> <r_mmod_Improper_Torsional_Energy-OPLS-2005>
7.18897581100464

> <r_mmod_Van_der_Waal_Energy-OPLS-2005>
177.362258911133

> <r_mmod_Electrostatic_Energy-OPLS-2005>
-316.797302246094

> <r_mmod_Solvation_Energy-OPLS-2005>
-210.919784545898

> <b_mmod_Minimization_Converged-OPLS-2005>
0

> <r_mmod_RMS_Derivative-OPLS-2005>
12.467960357666

$$$$
66
                    3D
 Structure written by MMmdl.
167175  0  0  1  0            999 V2000
  -30.7556  -14.3874   20.6871 C   0  0  0  0  0  0
  -30.4187  -12.2991   19.4004 C   0  0  0  0  0  0
  -29.4866  -12.5263   18.1961 C   0  0  0  0  0  0
  -28.0108  -12.3800   18.6133 C   0  0  0  0  0  0
  -27.6674  -13.2049   19.8818 C   0  0  2  0  0  0
  -28.7075  -12.9611   20.9978 C   0  0  0  0  0  0
  -25.2612  -13.8162   20.5688 C   0  0  0  0  0  0
  -24.1853  -13.0440   20.9167 C   0  0  0  0  0  0
  -24.6401  -11.6905   20.8727 C   0  0  0  0  0  0
  -23.9061  -10.4292   21.0399 C   0  0  0  0  0  0
  -24.3610   -9.4211   21.9184 C   0  0  0  0  0  0
  -23.6285   -8.2248   22.0756 C   0  0  0  0  0  0
  -22.4271   -8.0280   21.3545 C   0  0  0  0  0  0
  -21.9909   -9.0252   20.4644 C   0  0  0  0  0  0
  -22.7233  -10.2133   20.3051 C   0  0  0  0  0  0
  -21.6853   -6.0734   22.5281 C   0  0  0  0  0  0
  -21.4012   -6.5640   23.8213 C   0  0  0  0  0  0
  -21.3660   -5.6794   24.9177 C   0  0  0  0  0  0
  -21.6046   -4.3055   24.7230 C   0  0  0  0  0  0
  -21.8819   -3.8146   23.4350 C   0  0  0  0  0  0
  -21.9192   -4.6961   22.3407 C   0  0  0  0  0  0
  -22.7874  -13.5238   21.1833 C   0  0  0  0  0  0
  -22.1661   -4.2144   21.0984 F   0  0  0  0  0  0
  -21.5633   -3.4539   25.7743 F   0  0  0  0  0  0
  -30.0443  -13.2526   20.4551 N   0  0  0  0  0  0
  -26.3056  -12.9329   20.3405 N   0  0  0  0  0  0
  -25.9332  -11.6488   20.5770 N   0  0  0  0  0  0
  -22.0509  -12.8224   22.0383 N   0  0  0  0  0  0
  -25.4346  -15.1876   20.4090 N   0  0  0  0  0  0
  -31.7964  -14.6407   20.0704 O   0  0  0  0  0  0
  -21.6636   -6.8876   21.4240 O   0  0  0  0  0  0
  -22.3562  -14.5548   20.6693 O   0  0  0  0  0  0
  -24.6121  -31.8716   23.2157 C   0  0  0  0  0  0
  -25.9029  -32.4843   23.8437 C   0  0  1  0  0  0
  -27.2263  -27.4454   20.0919 C   0  0  0  0  0  0
  -25.5894  -33.8643   24.2361 N   0  0  0  0  0  0
  -23.3975  -30.4971   21.5576 C   0  0  2  0  0  0
  -24.8403  -28.9673   20.1218 C   0  0  0  0  0  0
  -22.7392  -29.4669   22.5030 C   0  0  0  0  0  0
  -18.0263  -28.1363   22.8495 C   0  0  0  0  0  0
  -24.1479  -36.7330   23.2634 C   0  0  0  0  0  0
  -25.9261  -30.8378   21.3694 C   0  0  0  0  0  0
  -26.0007  -29.4714   20.7221 C   0  0  0  0  0  0
  -27.1951  -28.7163   20.7091 C   0  0  0  0  0  0
  -26.0556  -26.9757   19.4560 C   0  0  0  0  0  0
  -24.8618  -27.7160   19.4875 C   0  0  0  0  0  0
  -23.6037  -29.8339   20.1709 C   0  0  0  0  0  0
  -25.4100  -36.3126   24.0336 C   0  0  1  0  0  0
  -20.5848  -28.3643   23.1335 C   0  0  2  0  0  0
  -20.6751  -26.9388   22.5420 C   0  0  0  0  0  0
  -19.5733  -26.6380   21.5208 C   0  0  0  0  0  0
  -18.1909  -26.7919   22.1615 C   0  0  0  0  0  0
  -19.1510  -28.8822   23.2911 C   0  0  0  0  0  0
  -18.9435  -30.1430   23.8915 C   0  0  0  0  0  0
  -17.6442  -30.6578   24.0557 C   0  0  0  0  0  0
  -25.9030  -34.9487   23.5145 C   0  0  0  0  0  0
  -16.5332  -29.9078   23.6319 C   0  0  0  0  0  0
  -16.7253  -28.6487   23.0351 C   0  0  0  0  0  0
  -26.4465  -31.6608   25.0752 C   0  0  0  0  0  0
  -25.3737  -31.3670   26.1495 C   0  0  0  0  0  0
  -27.0313  -30.3064   24.6110 C   0  0  0  0  0  0
  -27.6044  -32.4324   25.7518 C   0  0  0  0  0  0
  -27.5586  -37.1816   24.8456 C   0  0  0  0  0  0
  -21.4125  -29.3025   22.3759 N   0  0  0  0  0  0
  -26.4287  -37.3813   23.9419 N   0  0  0  0  0  0
  -24.6635  -31.0827   22.1058 N   0  0  0  0  0  0
  -23.4176  -28.8208   23.3059 O   0  0  0  0  0  0
  -28.4080  -26.7358   20.0470 O   0  0  0  0  0  0
  -26.5595  -34.8928   22.4707 O   0  0  0  0  0  0
  -23.5319  -32.1468   23.7557 O   0  0  0  0  0  0
  -30.2871  -19.2978   21.2383 C   0  0  0  0  0  0
  -29.2743  -19.4997   23.4189 C   0  0  0  0  0  0
  -29.6448  -20.4844   20.8312 C   0  0  0  0  0  0
  -28.6265  -20.6817   23.0079 C   0  0  0  0  0  0
  -30.1032  -18.7654   22.5363 C   0  0  0  0  0  0
  -28.7673  -21.1875   21.6931 C   0  0  0  0  0  0
  -27.4650  -21.9895   18.8799 C   0  0  0  0  0  0
  -30.6836  -17.1853   24.3658 C   0  0  0  0  0  0
  -26.7181  -22.4765   21.9151 C   0  0  0  0  0  0
  -30.2535  -15.4039   21.7355 C   0  0  0  0  0  0
  -27.7712  -24.3311   19.7245 C   0  0  0  0  0  0
  -31.2426  -16.5658   21.9984 C   0  0  0  0  0  0
  -28.4321  -25.4110   20.6084 C   0  0  0  0  0  0
  -28.2169  -22.8581   19.9106 C   0  0  1  0  0  0
  -30.7311  -17.5620   22.9532 N   0  0  0  0  0  0
  -28.0319  -22.3333   21.2769 N   0  0  0  0  0  0
  -31.4619  -12.3973   19.0954 H   0  0  0  0  0  0
  -30.3167  -11.2794   19.7750 H   0  0  0  0  0  0
  -29.7214  -11.8206   17.3985 H   0  0  0  0  0  0
  -29.6562  -13.5222   17.7842 H   0  0  0  0  0  0
  -27.8188  -11.3219   18.7958 H   0  0  0  0  0  0
  -27.3570  -12.6693   17.7895 H   0  0  0  0  0  0
  -27.7223  -14.2576   19.6034 H   0  0  0  0  0  0
  -28.6730  -11.9220   21.3289 H   0  0  0  0  0  0
  -28.4577  -13.5535   21.8766 H   0  0  0  0  0  0
  -25.2755   -9.5691   22.4756 H   0  0  0  0  0  0
  -23.9997   -7.4643   22.7482 H   0  0  0  0  0  0
  -21.0847   -8.8768   19.8945 H   0  0  0  0  0  0
  -22.3694  -10.9668   19.6158 H   0  0  0  0  0  0
  -21.1999   -7.6148   23.9712 H   0  0  0  0  0  0
  -21.1487   -6.0527   25.9081 H   0  0  0  0  0  0
  -22.0598   -2.7608   23.2852 H   0  0  0  0  0  0
  -22.4117  -11.9869   22.4748 H   0  0  0  0  0  0
  -21.1128  -13.1252   22.2584 H   0  0  0  0  0  0
  -24.6740  -15.8492   20.5206 H   0  0  0  0  0  0
  -26.2980  -15.6241   20.1092 H   0  0  0  0  0  0
  -26.7103  -32.5558   23.1208 H   0  0  0  0  0  0
  -25.0045  -33.9817   25.0502 H   0  0  0  0  0  0
  -22.6839  -31.3125   21.4241 H   0  0  0  0  0  0
  -23.3747  -35.9657   23.3278 H   0  0  0  0  0  0
  -24.3574  -36.8965   22.2052 H   0  0  0  0  0  0
  -23.7213  -37.6519   23.6667 H   0  0  0  0  0  0
  -26.0342  -31.6013   20.5972 H   0  0  0  0  0  0
  -26.8162  -30.8941   21.9836 H   0  0  0  0  0  0
  -28.0922  -29.1075   21.1686 H   0  0  0  0  0  0
  -26.0490  -26.0667   18.8800 H   0  0  0  0  0  0
  -23.9785  -27.3355   18.9933 H   0  0  0  0  0  0
  -23.7125  -30.6100   19.4122 H   0  0  0  0  0  0
  -22.7273  -29.2542   19.8757 H   0  0  0  0  0  0
  -25.1266  -36.1998   25.0827 H   0  0  0  0  0  0
  -20.9932  -28.3196   24.1459 H   0  0  0  0  0  0
  -20.5640  -26.2252   23.3597 H   0  0  0  0  0  0
  -21.6627  -26.7425   22.1230 H   0  0  0  0  0  0
  -19.6886  -25.6292   21.1225 H   0  0  0  0  0  0
  -19.6674  -27.3195   20.6738 H   0  0  0  0  0  0
  -17.4190  -26.6673   21.4005 H   0  0  0  0  0  0
  -18.0295  -26.0048   22.8993 H   0  0  0  0  0  0
  -19.7914  -30.7228   24.2300 H   0  0  0  0  0  0
  -17.5000  -31.6261   24.5159 H   0  0  0  0  0  0
  -15.5331  -30.2980   23.7628 H   0  0  0  0  0  0
  -15.8653  -28.0799   22.7068 H   0  0  0  0  0  0
  -24.5964  -30.6952   25.7832 H   0  0  0  0  0  0
  -24.8860  -32.2798   26.4931 H   0  0  0  0  0  0
  -25.8119  -30.8877   27.0257 H   0  0  0  0  0  0
  -26.2862  -29.6822   24.1164 H   0  0  0  0  0  0
  -27.4095  -29.7301   25.4560 H   0  0  0  0  0  0
  -27.8689  -30.4407   23.9260 H   0  0  0  0  0  0
  -27.2676  -33.3622   26.2115 H   0  0  0  0  0  0
  -28.3852  -32.6874   25.0341 H   0  0  0  0  0  0
  -28.0717  -31.8430   26.5418 H   0  0  0  0  0  0
  -28.2575  -38.0146   24.7563 H   0  0  0  0  0  0
  -28.1111  -36.2681   24.6208 H   0  0  0  0  0  0
  -27.2313  -37.1371   25.8858 H   0  0  0  0  0  0
  -20.9274  -29.8771   21.7008 H   0  0  0  0  0  0
  -26.0174  -38.2880   24.1459 H   0  0  0  0  0  0
  -30.9262  -18.8266   20.5102 H   0  0  0  0  0  0
  -29.0964  -19.1720   24.4317 H   0  0  0  0  0  0
  -29.8338  -20.8107   19.8209 H   0  0  0  0  0  0
  -28.0044  -21.1844   23.7336 H   0  0  0  0  0  0
  -27.6906  -22.3117   17.8630 H   0  0  0  0  0  0
  -26.3840  -22.0612   19.0069 H   0  0  0  0  0  0
  -27.7250  -20.9336   18.9420 H   0  0  0  0  0  0
  -29.6764  -16.8816   24.6553 H   0  0  0  0  0  0
  -30.9958  -18.0116   25.0067 H   0  0  0  0  0  0
  -31.3519  -16.3489   24.5752 H   0  0  0  0  0  0
  -26.2670  -21.5069   22.1332 H   0  0  0  0  0  0
  -25.9992  -23.0076   21.2942 H   0  0  0  0  0  0
  -26.8092  -23.0280   22.8517 H   0  0  0  0  0  0
  -29.2995  -15.8029   21.3895 H   0  0  0  0  0  0
  -30.0678  -14.8775   22.6722 H   0  0  0  0  0  0
  -27.9655  -24.5994   18.6846 H   0  0  0  0  0  0
  -26.6931  -24.3777   19.8495 H   0  0  0  0  0  0
  -31.5522  -17.0102   21.0559 H   0  0  0  0  0  0
  -32.1631  -16.1492   22.4113 H   0  0  0  0  0  0
  -29.4829  -25.1553   20.7462 H   0  0  0  0  0  0
  -27.9898  -25.4136   21.6058 H   0  0  0  0  0  0
  -29.2822  -22.8416   19.6774 H   0  0  0  0  0  0
  1 25  1  0  0  0
  1 30  2  0  0  0
  1 80  1  0  0  0
  2  3  1  0  0  0
  2 25  1  0  0  0
  2 87  1  0  0  0
  2 88  1  0  0  0
  3  4  1  0  0  0
  3 89  1  0  0  0
  3 90  1  0  0  0
  4  5  1  0  0  0
  4 91  1  0  0  0
  4 92  1  0  0  0
  5  6  1  0  0  0
  5 26  1  0  0  0
  5 93  1  0  0  0
  6 25  1  0  0  0
  6 94  1  0  0  0
  6 95  1  0  0  0
  7  8  2  0  0  0
  7 26  1  0  0  0
  7 29  1  0  0  0
  8  9  1  0  0  0
  8 22  1  0  0  0
  9 10  1  0  0  0
  9 27  2  0  0  0
 10 11  2  0  0  0
 10 15  1  0  0  0
 11 12  1  0  0  0
 11 96  1  0  0  0
 12 13  2  0  0  0
 12 97  1  0  0  0
 13 14  1  0  0  0
 13 31  1  0  0  0
 14 15  2  0  0  0
 14 98  1  0  0  0
 15 99  1  0  0  0
 16 17  2  0  0  0
 16 21  1  0  0  0
 16 31  1  0  0  0
 17 18  1  0  0  0
 17100  1  0  0  0
 18 19  2  0  0  0
 18101  1  0  0  0
 19 20  1  0  0  0
 19 24  1  0  0  0
 20 21  2  0  0  0
 20102  1  0  0  0
 21 23  1  0  0  0
 22 28  1  0  0  0
 22 32  2  0  0  0
 26 27  1  0  0  0
 28103  1  0  0  0
 28104  1  0  0  0
 29105  1  0  0  0
 29106  1  0  0  0
 33 34  1  0  0  0
 33 66  1  0  0  0
 33 70  2  0  0  0
 34 36  1  0  0  0
 34 59  1  0  0  0
 34107  1  0  0  0
 35 44  2  0  0  0
 35 45  1  0  0  0
 35 68  1  0  0  0
 36 56  1  0  0  0
 36108  1  0  0  0
 37 39  1  0  0  0
 37 47  1  0  0  0
 37 66  1  0  0  0
 37109  1  0  0  0
 38 43  2  0  0  0
 38 46  1  0  0  0
 38 47  1  0  0  0
 39 64  1  0  0  0
 39 67  2  0  0  0
 40 52  1  0  0  0
 40 53  2  0  0  0
 40 58  1  0  0  0
 41110  1  0  0  0
 41111  1  0  0  0
 41112  1  0  0  0
 41 48  1  0  0  0
 42 43  1  0  0  0
 42 66  1  0  0  0
 42113  1  0  0  0
 42114  1  0  0  0
 43 44  1  0  0  0
 44115  1  0  0  0
 45 46  2  0  0  0
 45116  1  0  0  0
 46117  1  0  0  0
 47118  1  0  0  0
 47119  1  0  0  0
 48 56  1  0  0  0
 48 65  1  0  0  0
 48120  1  0  0  0
 49 50  1  0  0  0
 49 53  1  0  0  0
 49 64  1  0  0  0
 49121  1  0  0  0
 50 51  1  0  0  0
 50122  1  0  0  0
 50123  1  0  0  0
 51 52  1  0  0  0
 51124  1  0  0  0
 51125  1  0  0  0
 52126  1  0  0  0
 52127  1  0  0  0
 53 54  1  0  0  0
 54 55  2  0  0  0
 54128  1  0  0  0
 55 57  1  0  0  0
 55129  1  0  0  0
 56 69  2  0  0  0
 57 58  2  0  0  0
 57130  1  0  0  0
 58131  1  0  0  0
 59 60  1  0  0  0
 59 61  1  0  0  0
 59 62  1  0  0  0
 60132  1  0  0  0
 60133  1  0  0  0
 60134  1  0  0  0
 61135  1  0  0  0
 61136  1  0  0  0
 61137  1  0  0  0
 62138  1  0  0  0
 62139  1  0  0  0
 62140  1  0  0  0
 63 65  1  0  0  0
 63141  1  0  0  0
 63142  1  0  0  0
 63143  1  0  0  0
 64144  1  0  0  0
 65145  1  0  0  0
 68 83  1  0  0  0
 71 73  2  0  0  0
 71 75  1  0  0  0
 71146  1  0  0  0
 72 74  1  0  0  0
 72 75  2  0  0  0
 72147  1  0  0  0
 73 76  1  0  0  0
 73148  1  0  0  0
 74 76  2  0  0  0
 74149  1  0  0  0
 75 85  1  0  0  0
 76 86  1  0  0  0
 77150  1  0  0  0
 77151  1  0  0  0
 77152  1  0  0  0
 77 84  1  0  0  0
 78 85  1  0  0  0
 78153  1  0  0  0
 78154  1  0  0  0
 78155  1  0  0  0
 79 86  1  0  0  0
 79156  1  0  0  0
 79157  1  0  0  0
 79158  1  0  0  0
 80 82  1  0  0  0
 80159  1  0  0  0
 80160  1  0  0  0
 81 83  1  0  0  0
 81 84  1  0  0  0
 81161  1  0  0  0
 81162  1  0  0  0
 82 85  1  0  0  0
 82163  1  0  0  0
 82164  1  0  0  0
 83165  1  0  0  0
 83166  1  0  0  0
 84 86  1  0  0  0
 84167  1  0  0  0
M  ISO  4   1 100  68 101  80 100  83 101
M  END
> <chiral flag>
0

> <version>
0

> <s_m_source_file>
/data/baiqing/PycharmProjects/Reinvent-master-3.2/result/LINK_invent/BTK/process_docking_weight1_custom_product_contain_oxygen_bond_distance_aromatic_linkinvent_7_9_3/rearranged_h_0016.sdf

> <i_m_source_file_index>
67

> <r_mmod_Potential_Energy-OPLS-2005>
-37.3430328369141

> <r_mmod_Stretch_Energy-OPLS-2005>
40.7286376953125

> <r_mmod_Bend_Energy-OPLS-2005>
124.700889587402

> <r_mmod_Torsional_Energy-OPLS-2005>
177.251403808594

> <r_mmod_Improper_Torsional_Energy-OPLS-2005>
4.22589635848999

> <r_mmod_Van_der_Waal_Energy-OPLS-2005>
181.253234863281

> <r_mmod_Electrostatic_Energy-OPLS-2005>
-357.0888671875

> <r_mmod_Solvation_Energy-OPLS-2005>
-216.291412353516

> <b_mmod_Minimization_Converged-OPLS-2005>
0

> <r_mmod_RMS_Derivative-OPLS-2005>
0.926763474941254

$$$$
67
                    3D
 Structure written by MMmdl.
163171  0  0  1  0            999 V2000
  -30.7501  -14.4268   20.6509 C   0  0  0  0  0  0
  -30.4146  -12.3145   19.4058 C   0  0  0  0  0  0
  -29.4817  -12.5166   18.1963 C   0  0  0  0  0  0
  -28.0083  -12.3557   18.6139 C   0  0  0  0  0  0
  -27.6591  -13.1907   19.8707 C   0  0  2  0  0  0
  -28.7025  -12.9603   20.9908 C   0  0  0  0  0  0
  -25.2595  -13.8122   20.5663 C   0  0  0  0  0  0
  -24.1843  -13.0419   20.9190 C   0  0  0  0  0  0
  -24.6379  -11.6878   20.8755 C   0  0  0  0  0  0
  -23.9044  -10.4274   21.0425 C   0  0  0  0  0  0
  -24.3593   -9.4188   21.9200 C   0  0  0  0  0  0
  -23.6273   -8.2227   22.0764 C   0  0  0  0  0  0
  -22.4264   -8.0273   21.3542 C   0  0  0  0  0  0
  -21.9899   -9.0247   20.4647 C   0  0  0  0  0  0
  -22.7221  -10.2130   20.3067 C   0  0  0  0  0  0
  -21.6838   -6.0735   22.5277 C   0  0  0  0  0  0
  -21.4008   -6.5640   23.8209 C   0  0  0  0  0  0
  -21.3656   -5.6798   24.9175 C   0  0  0  0  0  0
  -21.6048   -4.3062   24.7230 C   0  0  0  0  0  0
  -21.8817   -3.8151   23.4351 C   0  0  0  0  0  0
  -21.9183   -4.6965   22.3403 C   0  0  0  0  0  0
  -22.7872  -13.5232   21.1855 C   0  0  0  0  0  0
  -22.1653   -4.2150   21.0982 F   0  0  0  0  0  0
  -21.5633   -3.4549   25.7748 F   0  0  0  0  0  0
  -30.0341  -13.2817   20.4517 N   0  0  0  0  0  0
  -26.3003  -12.9257   20.3340 N   0  0  0  0  0  0
  -25.9293  -11.6435   20.5764 N   0  0  0  0  0  0
  -22.0502  -12.8228   22.0402 N   0  0  0  0  0  0
  -25.4330  -15.1838   20.4044 N   0  0  0  0  0  0
  -31.8128  -14.6392   20.0558 O   0  0  0  0  0  0
  -21.6617   -6.8879   21.4238 O   0  0  0  0  0  0
  -22.3566  -14.5542   20.6702 O   0  0  0  0  0  0
  -24.6133  -31.8680   23.2105 C   0  0  0  0  0  0
  -25.9028  -32.4823   23.8403 C   0  0  1  0  0  0
  -27.2356  -27.4512   20.0953 C   0  0  0  0  0  0
  -25.5888  -33.8621   24.2331 N   0  0  0  0  0  0
  -23.4014  -30.4908   21.5508 C   0  0  2  0  0  0
  -24.8492  -28.9581   20.1135 C   0  0  0  0  0  0
  -22.7406  -29.4661   22.5001 C   0  0  0  0  0  0
  -18.0269  -28.1383   22.8510 C   0  0  0  0  0  0
  -24.1481  -36.7316   23.2637 C   0  0  0  0  0  0
  -25.9283  -30.8393   21.3605 C   0  0  0  0  0  0
  -26.0086  -29.4759   20.7055 C   0  0  0  0  0  0
  -27.2086  -28.7308   20.6912 C   0  0  0  0  0  0
  -26.0642  -26.9425   19.4965 C   0  0  0  0  0  0
  -24.8707  -27.6900   19.5052 C   0  0  0  0  0  0
  -23.6079  -29.8203   20.1665 C   0  0  0  0  0  0
  -25.4107  -36.3114   24.0333 C   0  0  1  0  0  0
  -20.5857  -28.3668   23.1332 C   0  0  2  0  0  0
  -20.6758  -26.9407   22.5431 C   0  0  0  0  0  0
  -19.5735  -26.6390   21.5231 C   0  0  0  0  0  0
  -18.1907  -26.7938   22.1630 C   0  0  0  0  0  0
  -19.1518  -28.8844   23.2916 C   0  0  0  0  0  0
  -18.9446  -30.1457   23.8918 C   0  0  0  0  0  0
  -17.6448  -30.6596   24.0577 C   0  0  0  0  0  0
  -25.9034  -34.9475   23.5132 C   0  0  0  0  0  0
  -16.5342  -29.9093   23.6337 C   0  0  0  0  0  0
  -16.7260  -28.6509   23.0358 C   0  0  0  0  0  0
  -26.4457  -31.6610   25.0734 C   0  0  0  0  0  0
  -25.3720  -31.3706   26.1478 C   0  0  0  0  0  0
  -27.0309  -30.3066   24.6104 C   0  0  0  0  0  0
  -27.6024  -32.4340   25.7499 C   0  0  0  0  0  0
  -27.5582  -37.1808   24.8459 C   0  0  0  0  0  0
  -21.4133  -29.3031   22.3738 N   0  0  0  0  0  0
  -26.4292  -37.3798   23.9410 N   0  0  0  0  0  0
  -24.6658  -31.0797   22.0993 N   0  0  0  0  0  0
  -23.4187  -28.8200   23.3041 O   0  0  0  0  0  0
  -28.3810  -26.6911   20.1177 O   0  0  0  0  0  0
  -26.5603  -34.8924   22.4694 O   0  0  0  0  0  0
  -23.5332  -32.1414   23.7519 O   0  0  0  0  0  0
  -28.9145  -18.6301   21.7153 C   0  0  0  0  0  0
  -28.9910  -19.9144   21.1363 C   0  0  0  0  0  0
  -29.8490  -17.6639   19.6929 C   0  0  0  0  0  0
  -29.3338  -17.4912   20.9951 C   0  0  0  0  0  0
  -29.4811  -20.0873   19.8231 C   0  0  0  0  0  0
  -29.9252  -18.9450   19.1068 C   0  0  0  0  0  0
  -30.0452  -23.7383   20.1951 C   0  0  0  0  0  0
  -31.7826  -22.0465   19.9392 C   0  0  0  0  0  0
  -31.3947  -15.8197   22.5312 C   0  0  0  0  0  0
  -29.1556  -16.0954   21.5966 C   0  0  0  0  0  0
  -29.4795  -21.4896   19.1975 C   0  0  0  0  0  0
  -28.5712  -24.1912   20.1660 C   0  0  0  0  0  0
  -28.2660  -25.5073   20.9253 C   0  0  0  0  0  0
  -30.3797  -22.4692   19.8374 N   0  0  0  0  0  0
  -30.3633  -15.2499   21.6585 N   0  0  0  0  0  0
  -30.9054  -24.5430   20.5706 O   0  0  0  0  0  0
  -30.5583  -19.0653   17.5028 Cl  0  0  0  0  0  0
  -31.4567  -12.4135   19.0960 H   0  0  0  0  0  0
  -30.3224  -11.2971   19.7893 H   0  0  0  0  0  0
  -29.7245  -11.8034   17.4071 H   0  0  0  0  0  0
  -29.6375  -13.5091   17.7710 H   0  0  0  0  0  0
  -27.8271  -11.2977   18.8080 H   0  0  0  0  0  0
  -27.3518  -12.6295   17.7868 H   0  0  0  0  0  0
  -27.7000  -14.2294   19.5508 H   0  0  0  0  0  0
  -28.6854  -11.9152   21.3048 H   0  0  0  0  0  0
  -28.4552  -13.5236   21.8902 H   0  0  0  0  0  0
  -25.2731   -9.5666   22.4780 H   0  0  0  0  0  0
  -23.9978   -7.4616   22.7484 H   0  0  0  0  0  0
  -21.0837   -8.8764   19.8945 H   0  0  0  0  0  0
  -22.3680  -10.9676   19.6185 H   0  0  0  0  0  0
  -21.1996   -7.6146   23.9714 H   0  0  0  0  0  0
  -21.1486   -6.0533   25.9081 H   0  0  0  0  0  0
  -22.0601   -2.7615   23.2853 H   0  0  0  0  0  0
  -22.4100  -11.9870   22.4769 H   0  0  0  0  0  0
  -21.1130  -13.1266   22.2613 H   0  0  0  0  0  0
  -24.6639  -15.8369   20.5078 H   0  0  0  0  0  0
  -26.2751  -15.6202   20.0524 H   0  0  0  0  0  0
  -26.7108  -32.5550   23.1178 H   0  0  0  0  0  0
  -25.0047  -33.9794   25.0482 H   0  0  0  0  0  0
  -22.6902  -31.3077   21.4112 H   0  0  0  0  0  0
  -23.3745  -35.9646   23.3300 H   0  0  0  0  0  0
  -24.3564  -36.8941   22.2053 H   0  0  0  0  0  0
  -23.7230  -37.6512   23.6662 H   0  0  0  0  0  0
  -26.0374  -31.6063   20.5929 H   0  0  0  0  0  0
  -26.8174  -30.8941   21.9776 H   0  0  0  0  0  0
  -28.1047  -29.1221   21.1523 H   0  0  0  0  0  0
  -26.0737  -25.9662   19.0329 H   0  0  0  0  0  0
  -23.9788  -27.2850   19.0478 H   0  0  0  0  0  0
  -23.7098  -30.5932   19.4040 H   0  0  0  0  0  0
  -22.7339  -29.2340   19.8767 H   0  0  0  0  0  0
  -25.1283  -36.1978   25.0825 H   0  0  0  0  0  0
  -20.9955  -28.3229   24.1451 H   0  0  0  0  0  0
  -20.5686  -26.2269   23.3614 H   0  0  0  0  0  0
  -21.6622  -26.7445   22.1219 H   0  0  0  0  0  0
  -19.6891  -25.6303   21.1251 H   0  0  0  0  0  0
  -19.6683  -27.3211   20.6772 H   0  0  0  0  0  0
  -17.4190  -26.6726   21.4012 H   0  0  0  0  0  0
  -18.0275  -26.0070   22.9010 H   0  0  0  0  0  0
  -19.7916  -30.7285   24.2282 H   0  0  0  0  0  0
  -17.4995  -31.6273   24.5185 H   0  0  0  0  0  0
  -15.5343  -30.3005   23.7647 H   0  0  0  0  0  0
  -15.8661  -28.0849   22.7044 H   0  0  0  0  0  0
  -24.5903  -30.7041   25.7810 H   0  0  0  0  0  0
  -24.8892  -32.2857   26.4918 H   0  0  0  0  0  0
  -25.8074  -30.8885   27.0240 H   0  0  0  0  0  0
  -26.2866  -29.6826   24.1141 H   0  0  0  0  0  0
  -27.4078  -29.7304   25.4564 H   0  0  0  0  0  0
  -27.8690  -30.4413   23.9262 H   0  0  0  0  0  0
  -27.2627  -33.3624   26.2103 H   0  0  0  0  0  0
  -28.3810  -32.6932   25.0313 H   0  0  0  0  0  0
  -28.0714  -31.8452   26.5392 H   0  0  0  0  0  0
  -28.2589  -38.0116   24.7530 H   0  0  0  0  0  0
  -28.1094  -36.2649   24.6260 H   0  0  0  0  0  0
  -27.2302  -37.1432   25.8862 H   0  0  0  0  0  0
  -20.9291  -29.8761   21.6965 H   0  0  0  0  0  0
  -26.0183  -38.2871   24.1429 H   0  0  0  0  0  0
  -28.5097  -18.5245   22.7128 H   0  0  0  0  0  0
  -28.6448  -20.7699   21.6991 H   0  0  0  0  0  0
  -30.1683  -16.8098   19.1147 H   0  0  0  0  0  0
  -32.4220  -22.6929   19.3367 H   0  0  0  0  0  0
  -31.9479  -21.0264   19.5946 H   0  0  0  0  0  0
  -32.1247  -22.1019   20.9737 H   0  0  0  0  0  0
  -30.9644  -16.2199   23.4500 H   0  0  0  0  0  0
  -31.9240  -16.6281   22.0250 H   0  0  0  0  0  0
  -32.1293  -15.0658   22.8187 H   0  0  0  0  0  0
  -28.3662  -15.6233   21.0231 H   0  0  0  0  0  0
  -28.7478  -16.1801   22.6055 H   0  0  0  0  0  0
  -28.4421  -21.8189   19.1829 H   0  0  0  0  0  0
  -29.7548  -21.4521   18.1453 H   0  0  0  0  0  0
  -27.9908  -23.4076   20.6529 H   0  0  0  0  0  0
  -28.2157  -24.2538   19.1375 H   0  0  0  0  0  0
  -28.9291  -25.6220   21.7834 H   0  0  0  0  0  0
  -27.2733  -25.4177   21.3712 H   0  0  0  0  0  0
  1 25  1  0  0  0
  1 30  2  0  0  0
  1 85  1  0  0  0
  2  3  1  0  0  0
  2 25  1  0  0  0
  2 88  1  0  0  0
  2 89  1  0  0  0
  3  4  1  0  0  0
  3 90  1  0  0  0
  3 91  1  0  0  0
  4  5  1  0  0  0
  4 92  1  0  0  0
  4 93  1  0  0  0
  5  6  1  0  0  0
  5 26  1  0  0  0
  5 94  1  0  0  0
  6 25  1  0  0  0
  6 95  1  0  0  0
  6 96  1  0  0  0
  7  8  2  0  0  0
  7 26  1  0  0  0
  7 29  1  0  0  0
  8  9  1  0  0  0
  8 22  1  0  0  0
  9 10  1  0  0  0
  9 27  2  0  0  0
 10 11  2  0  0  0
 10 15  1  0  0  0
 11 12  1  0  0  0
 11 97  1  0  0  0
 12 13  2  0  0  0
 12 98  1  0  0  0
 13 14  1  0  0  0
 13 31  1  0  0  0
 14 15  2  0  0  0
 14 99  1  0  0  0
 15100  1  0  0  0
 16 17  2  0  0  0
 16 21  1  0  0  0
 16 31  1  0  0  0
 17 18  1  0  0  0
 17101  1  0  0  0
 18 19  2  0  0  0
 18102  1  0  0  0
 19 20  1  0  0  0
 19 24  1  0  0  0
 20 21  2  0  0  0
 20103  1  0  0  0
 21 23  1  0  0  0
 22 28  1  0  0  0
 22 32  2  0  0  0
 26 27  1  0  0  0
 28104  1  0  0  0
 28105  1  0  0  0
 29106  1  0  0  0
 29107  1  0  0  0
 33 34  1  0  0  0
 33 66  1  0  0  0
 33 70  2  0  0  0
 34 36  1  0  0  0
 34 59  1  0  0  0
 34108  1  0  0  0
 35 44  2  0  0  0
 35 45  1  0  0  0
 35 68  1  0  0  0
 36 56  1  0  0  0
 36109  1  0  0  0
 37 39  1  0  0  0
 37 47  1  0  0  0
 37 66  1  0  0  0
 37110  1  0  0  0
 38 43  2  0  0  0
 38 46  1  0  0  0
 38 47  1  0  0  0
 39 64  1  0  0  0
 39 67  2  0  0  0
 40 52  1  0  0  0
 40 53  2  0  0  0
 40 58  1  0  0  0
 41111  1  0  0  0
 41112  1  0  0  0
 41113  1  0  0  0
 41 48  1  0  0  0
 42 43  1  0  0  0
 42 66  1  0  0  0
 42114  1  0  0  0
 42115  1  0  0  0
 43 44  1  0  0  0
 44116  1  0  0  0
 45 46  2  0  0  0
 45117  1  0  0  0
 46118  1  0  0  0
 47119  1  0  0  0
 47120  1  0  0  0
 48 56  1  0  0  0
 48 65  1  0  0  0
 48121  1  0  0  0
 49 50  1  0  0  0
 49 53  1  0  0  0
 49 64  1  0  0  0
 49122  1  0  0  0
 50 51  1  0  0  0
 50123  1  0  0  0
 50124  1  0  0  0
 51 52  1  0  0  0
 51125  1  0  0  0
 51126  1  0  0  0
 52127  1  0  0  0
 52128  1  0  0  0
 53 54  1  0  0  0
 54 55  2  0  0  0
 54129  1  0  0  0
 55 57  1  0  0  0
 55130  1  0  0  0
 56 69  2  0  0  0
 57 58  2  0  0  0
 57131  1  0  0  0
 58132  1  0  0  0
 59 60  1  0  0  0
 59 61  1  0  0  0
 59 62  1  0  0  0
 60133  1  0  0  0
 60134  1  0  0  0
 60135  1  0  0  0
 61136  1  0  0  0
 61137  1  0  0  0
 61138  1  0  0  0
 62139  1  0  0  0
 62140  1  0  0  0
 62141  1  0  0  0
 63 65  1  0  0  0
 63142  1  0  0  0
 63143  1  0  0  0
 63144  1  0  0  0
 64145  1  0  0  0
 65146  1  0  0  0
 68 83  1  0  0  0
 71 72  2  0  0  0
 71 74  1  0  0  0
 71147  1  0  0  0
 72 75  1  0  0  0
 72148  1  0  0  0
 73 74  2  0  0  0
 73 76  1  0  0  0
 73149  1  0  0  0
 74 80  1  0  0  0
 75 76  2  0  0  0
 75 81  1  0  0  0
 76 87  1  0  0  0
 77 82  1  0  0  0
 77 84  1  0  0  0
 77 86  2  0  0  0
 78 84  1  0  0  0
 78150  1  0  0  0
 78151  1  0  0  0
 78152  1  0  0  0
 79 85  1  0  0  0
 79153  1  0  0  0
 79154  1  0  0  0
 79155  1  0  0  0
 80 85  1  0  0  0
 80156  1  0  0  0
 80157  1  0  0  0
 81 84  1  0  0  0
 81158  1  0  0  0
 81159  1  0  0  0
 82 83  1  0  0  0
 82160  1  0  0  0
 82161  1  0  0  0
 83162  1  0  0  0
 83163  1  0  0  0
M  ISO  4   1 100  68 101  83 101  85 100
M  END
> <chiral flag>
0

> <version>
0

> <s_m_source_file>
/data/baiqing/PycharmProjects/Reinvent-master-3.2/result/LINK_invent/BTK/process_docking_weight1_custom_product_contain_oxygen_bond_distance_aromatic_linkinvent_7_9_3/rearranged_h_0016.sdf

> <i_m_source_file_index>
68

> <r_mmod_Potential_Energy-OPLS-2005>
61.9337043762207

> <r_mmod_Stretch_Energy-OPLS-2005>
40.3864326477051

> <r_mmod_Bend_Energy-OPLS-2005>
102.91584777832

> <r_mmod_Torsional_Energy-OPLS-2005>
287.393646240234

> <r_mmod_Improper_Torsional_Energy-OPLS-2005>
6.16630840301514

> <r_mmod_Van_der_Waal_Energy-OPLS-2005>
162.262252807617

> <r_mmod_Electrostatic_Energy-OPLS-2005>
-323.124237060547

> <r_mmod_Solvation_Energy-OPLS-2005>
-223.8447265625

> <b_mmod_Minimization_Converged-OPLS-2005>
0

> <r_mmod_RMS_Derivative-OPLS-2005>
1.21939015388489

$$$$
68
                    3D
 Structure written by MMmdl.
165174  0  0  1  0            999 V2000
  -30.7385  -14.4321   20.6790 C   0  0  0  0  0  0
  -30.4220  -12.3073   19.4522 C   0  0  0  0  0  0
  -29.5075  -12.5007   18.2265 C   0  0  0  0  0  0
  -28.0244  -12.3703   18.6219 C   0  0  0  0  0  0
  -27.6589  -13.2043   19.8758 C   0  0  2  0  0  0
  -28.6882  -12.9913   21.0094 C   0  0  0  0  0  0
  -25.2543  -13.8152   20.5621 C   0  0  0  0  0  0
  -24.1801  -13.0425   20.9154 C   0  0  0  0  0  0
  -24.6345  -11.6884   20.8701 C   0  0  0  0  0  0
  -23.9003  -10.4282   21.0416 C   0  0  0  0  0  0
  -24.3586   -9.4185   21.9185 C   0  0  0  0  0  0
  -23.6268   -8.2215   22.0741 C   0  0  0  0  0  0
  -22.4232   -8.0266   21.3525 C   0  0  0  0  0  0
  -21.9852   -9.0236   20.4645 C   0  0  0  0  0  0
  -22.7180  -10.2122   20.3080 C   0  0  0  0  0  0
  -21.6834   -6.0709   22.5273 C   0  0  0  0  0  0
  -21.3999   -6.5632   23.8186 C   0  0  0  0  0  0
  -21.3679   -5.6800   24.9161 C   0  0  0  0  0  0
  -21.6032   -4.3066   24.7234 C   0  0  0  0  0  0
  -21.8822   -3.8130   23.4368 C   0  0  0  0  0  0
  -21.9170   -4.6920   22.3405 C   0  0  0  0  0  0
  -22.7823  -13.5221   21.1831 C   0  0  0  0  0  0
  -22.1652   -4.2106   21.0978 F   0  0  0  0  0  0
  -21.5638   -3.4556   25.7754 F   0  0  0  0  0  0
  -30.0315  -13.2857   20.4801 N   0  0  0  0  0  0
  -26.2977  -12.9313   20.3285 N   0  0  0  0  0  0
  -25.9269  -11.6469   20.5694 N   0  0  0  0  0  0
  -22.0495  -12.8217   22.0419 N   0  0  0  0  0  0
  -25.4261  -15.1884   20.4111 N   0  0  0  0  0  0
  -31.8373  -14.6388   20.1547 O   0  0  0  0  0  0
  -21.6620   -6.8848   21.4227 O   0  0  0  0  0  0
  -22.3473  -14.5507   20.6673 O   0  0  0  0  0  0
  -24.6110  -31.8709   23.2208 C   0  0  0  0  0  0
  -25.9037  -32.4824   23.8459 C   0  0  1  0  0  0
  -27.2136  -27.4668   20.0832 C   0  0  0  0  0  0
  -25.5886  -33.8626   24.2359 N   0  0  0  0  0  0
  -23.3940  -30.5026   21.5576 C   0  0  2  0  0  0
  -24.8361  -28.9789   20.1169 C   0  0  0  0  0  0
  -22.7372  -29.4696   22.5007 C   0  0  0  0  0  0
  -18.0275  -28.1368   22.8499 C   0  0  0  0  0  0
  -24.1486  -36.7341   23.2626 C   0  0  0  0  0  0
  -25.9236  -30.8436   21.3736 C   0  0  0  0  0  0
  -25.9966  -29.4839   20.7160 C   0  0  0  0  0  0
  -27.1920  -28.7332   20.7018 C   0  0  0  0  0  0
  -26.0400  -26.9801   19.4724 C   0  0  0  0  0  0
  -24.8499  -27.7212   19.4963 C   0  0  0  0  0  0
  -23.6002  -29.8444   20.1686 C   0  0  0  0  0  0
  -25.4098  -36.3110   24.0334 C   0  0  1  0  0  0
  -20.5848  -28.3647   23.1328 C   0  0  2  0  0  0
  -20.6754  -26.9392   22.5407 C   0  0  0  0  0  0
  -19.5730  -26.6395   21.5189 C   0  0  0  0  0  0
  -18.1918  -26.7927   22.1610 C   0  0  0  0  0  0
  -19.1530  -28.8830   23.2910 C   0  0  0  0  0  0
  -18.9445  -30.1438   23.8917 C   0  0  0  0  0  0
  -17.6454  -30.6569   24.0583 C   0  0  0  0  0  0
  -25.9016  -34.9466   23.5136 C   0  0  0  0  0  0
  -16.5338  -29.9068   23.6334 C   0  0  0  0  0  0
  -16.7274  -28.6492   23.0350 C   0  0  0  0  0  0
  -26.4510  -31.6584   25.0754 C   0  0  0  0  0  0
  -25.3825  -31.3671   26.1536 C   0  0  0  0  0  0
  -27.0299  -30.3006   24.6098 C   0  0  0  0  0  0
  -27.6083  -32.4298   25.7517 C   0  0  0  0  0  0
  -27.5593  -37.1814   24.8461 C   0  0  0  0  0  0
  -21.4113  -29.3032   22.3738 N   0  0  0  0  0  0
  -26.4302  -37.3782   23.9402 N   0  0  0  0  0  0
  -24.6601  -31.0862   22.1083 N   0  0  0  0  0  0
  -23.4197  -28.8224   23.3013 O   0  0  0  0  0  0
  -28.3649  -26.7237   20.0674 O   0  0  0  0  0  0
  -26.5568  -34.8913   22.4693 O   0  0  0  0  0  0
  -23.5311  -32.1455   23.7627 O   0  0  0  0  0  0
  -29.2090  -18.7341   21.5605 C   0  0  0  0  0  0
  -29.0630  -20.1106   21.2805 C   0  0  0  0  0  0
  -28.6784  -18.2138   19.2408 C   0  0  0  0  0  0
  -29.0297  -17.7702   20.5308 C   0  0  0  0  0  0
  -28.7006  -20.5468   19.9848 C   0  0  0  0  0  0
  -28.5216  -19.5801   18.9653 C   0  0  0  0  0  0
  -26.9518  -23.7072   19.3293 C   0  0  0  0  0  0
  -27.1557  -22.2074   19.1254 C   0  0  0  0  0  0
  -28.9172  -23.0093   20.5048 C   0  0  0  0  0  0
  -28.3129  -24.2454   19.8244 C   0  0  1  0  0  0
  -31.9440  -16.5085   22.7877 C   0  0  0  0  0  0
  -29.1533  -16.2574   20.7086 C   0  0  0  0  0  0
  -28.2795  -25.4752   20.7608 C   0  0  0  0  0  0
  -30.5820  -15.7929   22.7715 C   0  0  0  0  0  0
  -28.4687  -21.9026   19.6742 N   0  0  0  0  0  0
  -30.1248  -15.3986   21.4195 N   0  0  0  0  0  0
  -28.2016  -19.9541   17.7025 F   0  0  0  0  0  0
  -31.4718  -12.4008   19.1664 H   0  0  0  0  0  0
  -30.3216  -11.2964   19.8530 H   0  0  0  0  0  0
  -29.7609  -11.7716   17.4561 H   0  0  0  0  0  0
  -29.6865  -13.4827   17.7840 H   0  0  0  0  0  0
  -27.8182  -11.3154   18.8012 H   0  0  0  0  0  0
  -27.3911  -12.6650   17.7862 H   0  0  0  0  0  0
  -27.7002  -14.2493   19.5706 H   0  0  0  0  0  0
  -28.6485  -11.9619   21.3691 H   0  0  0  0  0  0
  -28.4273  -13.6084   21.8725 H   0  0  0  0  0  0
  -25.2765   -9.5629   22.4718 H   0  0  0  0  0  0
  -23.9965   -7.4591   22.7475 H   0  0  0  0  0  0
  -21.0759   -8.8781   19.8981 H   0  0  0  0  0  0
  -22.3662  -10.9655   19.6184 H   0  0  0  0  0  0
  -21.2017   -7.6147   23.9671 H   0  0  0  0  0  0
  -21.1497   -6.0553   25.9054 H   0  0  0  0  0  0
  -22.0582   -2.7588   23.2895 H   0  0  0  0  0  0
  -22.4106  -11.9883   22.4810 H   0  0  0  0  0  0
  -21.1097  -13.1202   22.2620 H   0  0  0  0  0  0
  -24.6623  -15.8425   20.5399 H   0  0  0  0  0  0
  -26.2829  -15.6340   20.1121 H   0  0  0  0  0  0
  -26.7093  -32.5549   23.1210 H   0  0  0  0  0  0
  -25.0075  -33.9786   25.0530 H   0  0  0  0  0  0
  -22.6806  -31.3190   21.4271 H   0  0  0  0  0  0
  -23.3713  -35.9710   23.3287 H   0  0  0  0  0  0
  -24.3612  -36.8954   22.2045 H   0  0  0  0  0  0
  -23.7282  -37.6564   23.6648 H   0  0  0  0  0  0
  -26.0386  -31.6192   20.6163 H   0  0  0  0  0  0
  -26.8110  -30.8878   21.9928 H   0  0  0  0  0  0
  -28.0888  -29.1140   21.1705 H   0  0  0  0  0  0
  -26.0302  -26.0432   18.9541 H   0  0  0  0  0  0
  -23.9601  -27.3335   19.0171 H   0  0  0  0  0  0
  -23.7053  -30.6243   19.4131 H   0  0  0  0  0  0
  -22.7238  -29.2649   19.8709 H   0  0  0  0  0  0
  -25.1270  -36.1993   25.0829 H   0  0  0  0  0  0
  -20.9962  -28.3207   24.1432 H   0  0  0  0  0  0
  -20.5641  -26.2245   23.3569 H   0  0  0  0  0  0
  -21.6631  -26.7434   22.1195 H   0  0  0  0  0  0
  -19.6891  -25.6319   21.1172 H   0  0  0  0  0  0
  -19.6672  -27.3242   20.6736 H   0  0  0  0  0  0
  -17.4183  -26.6689   21.4014 H   0  0  0  0  0  0
  -18.0349  -26.0049   22.8984 H   0  0  0  0  0  0
  -19.7929  -30.7259   24.2275 H   0  0  0  0  0  0
  -17.5001  -31.6254   24.5177 H   0  0  0  0  0  0
  -15.5343  -30.2967   23.7644 H   0  0  0  0  0  0
  -15.8673  -28.0816   22.7032 H   0  0  0  0  0  0
  -24.5988  -30.7016   25.7921 H   0  0  0  0  0  0
  -24.9056  -32.2806   26.5079 H   0  0  0  0  0  0
  -25.8248  -30.8812   27.0238 H   0  0  0  0  0  0
  -26.2804  -29.6771   24.1199 H   0  0  0  0  0  0
  -27.4085  -29.7261   25.4565 H   0  0  0  0  0  0
  -27.8656  -30.4274   23.9212 H   0  0  0  0  0  0
  -27.2679  -33.3543   26.2193 H   0  0  0  0  0  0
  -28.3858  -32.6932   25.0340 H   0  0  0  0  0  0
  -28.0781  -31.8364   26.5365 H   0  0  0  0  0  0
  -28.2599  -38.0118   24.7495 H   0  0  0  0  0  0
  -28.1090  -36.2645   24.6285 H   0  0  0  0  0  0
  -27.2315  -37.1480   25.8866 H   0  0  0  0  0  0
  -20.9253  -29.8762   21.6966 H   0  0  0  0  0  0
  -26.0185  -38.2861   24.1399 H   0  0  0  0  0  0
  -29.4485  -18.4442   22.5727 H   0  0  0  0  0  0
  -29.1961  -20.8129   22.0904 H   0  0  0  0  0  0
  -28.5252  -17.5036   18.4406 H   0  0  0  0  0  0
  -26.1667  -23.8718   20.0698 H   0  0  0  0  0  0
  -26.6356  -24.1495   18.3846 H   0  0  0  0  0  0
  -27.1323  -21.9668   18.0604 H   0  0  0  0  0  0
  -26.3739  -21.6238   19.6152 H   0  0  0  0  0  0
  -28.5458  -22.9083   21.5259 H   0  0  0  0  0  0
  -30.0053  -23.0717   20.5437 H   0  0  0  0  0  0
  -28.9238  -24.4823   18.9526 H   0  0  0  0  0  0
  -32.7553  -15.8168   22.5679 H   0  0  0  0  0  0
  -32.1473  -16.9456   23.7685 H   0  0  0  0  0  0
  -31.9797  -17.3189   22.0603 H   0  0  0  0  0  0
  -28.4796  -16.3166   21.5639 H   0  0  0  0  0  0
  -30.1252  -16.7368   20.5461 H   0  0  0  0  0  0
  -29.1527  -25.4423   21.4145 H   0  0  0  0  0  0
  -27.4199  -25.4234   21.4335 H   0  0  0  0  0  0
  -30.6173  -14.9088   23.4120 H   0  0  0  0  0  0
  -29.8442  -16.4347   23.2496 H   0  0  0  0  0  0
  1 25  1  0  0  0
  1 30  2  0  0  0
  1 86  1  0  0  0
  2  3  1  0  0  0
  2 25  1  0  0  0
  2 88  1  0  0  0
  2 89  1  0  0  0
  3  4  1  0  0  0
  3 90  1  0  0  0
  3 91  1  0  0  0
  4  5  1  0  0  0
  4 92  1  0  0  0
  4 93  1  0  0  0
  5  6  1  0  0  0
  5 26  1  0  0  0
  5 94  1  0  0  0
  6 25  1  0  0  0
  6 95  1  0  0  0
  6 96  1  0  0  0
  7  8  2  0  0  0
  7 26  1  0  0  0
  7 29  1  0  0  0
  8  9  1  0  0  0
  8 22  1  0  0  0
  9 10  1  0  0  0
  9 27  2  0  0  0
 10 11  2  0  0  0
 10 15  1  0  0  0
 11 12  1  0  0  0
 11 97  1  0  0  0
 12 13  2  0  0  0
 12 98  1  0  0  0
 13 14  1  0  0  0
 13 31  1  0  0  0
 14 15  2  0  0  0
 14 99  1  0  0  0
 15100  1  0  0  0
 16 17  2  0  0  0
 16 21  1  0  0  0
 16 31  1  0  0  0
 17 18  1  0  0  0
 17101  1  0  0  0
 18 19  2  0  0  0
 18102  1  0  0  0
 19 20  1  0  0  0
 19 24  1  0  0  0
 20 21  2  0  0  0
 20103  1  0  0  0
 21 23  1  0  0  0
 22 28  1  0  0  0
 22 32  2  0  0  0
 26 27  1  0  0  0
 28104  1  0  0  0
 28105  1  0  0  0
 29106  1  0  0  0
 29107  1  0  0  0
 33 34  1  0  0  0
 33 66  1  0  0  0
 33 70  2  0  0  0
 34 36  1  0  0  0
 34 59  1  0  0  0
 34108  1  0  0  0
 35 44  2  0  0  0
 35 45  1  0  0  0
 35 68  1  0  0  0
 36 56  1  0  0  0
 36109  1  0  0  0
 37 39  1  0  0  0
 37 47  1  0  0  0
 37 66  1  0  0  0
 37110  1  0  0  0
 38 43  2  0  0  0
 38 46  1  0  0  0
 38 47  1  0  0  0
 39 64  1  0  0  0
 39 67  2  0  0  0
 40 52  1  0  0  0
 40 53  2  0  0  0
 40 58  1  0  0  0
 41111  1  0  0  0
 41112  1  0  0  0
 41113  1  0  0  0
 41 48  1  0  0  0
 42 43  1  0  0  0
 42 66  1  0  0  0
 42114  1  0  0  0
 42115  1  0  0  0
 43 44  1  0  0  0
 44116  1  0  0  0
 45 46  2  0  0  0
 45117  1  0  0  0
 46118  1  0  0  0
 47119  1  0  0  0
 47120  1  0  0  0
 48 56  1  0  0  0
 48 65  1  0  0  0
 48121  1  0  0  0
 49 50  1  0  0  0
 49 53  1  0  0  0
 49 64  1  0  0  0
 49122  1  0  0  0
 50 51  1  0  0  0
 50123  1  0  0  0
 50124  1  0  0  0
 51 52  1  0  0  0
 51125  1  0  0  0
 51126  1  0  0  0
 52127  1  0  0  0
 52128  1  0  0  0
 53 54  1  0  0  0
 54 55  2  0  0  0
 54129  1  0  0  0
 55 57  1  0  0  0
 55130  1  0  0  0
 56 69  2  0  0  0
 57 58  2  0  0  0
 57131  1  0  0  0
 58132  1  0  0  0
 59 60  1  0  0  0
 59 61  1  0  0  0
 59 62  1  0  0  0
 60133  1  0  0  0
 60134  1  0  0  0
 60135  1  0  0  0
 61136  1  0  0  0
 61137  1  0  0  0
 61138  1  0  0  0
 62139  1  0  0  0
 62140  1  0  0  0
 62141  1  0  0  0
 63 65  1  0  0  0
 63142  1  0  0  0
 63143  1  0  0  0
 63144  1  0  0  0
 64145  1  0  0  0
 65146  1  0  0  0
 68 83  1  0  0  0
 71 72  2  0  0  0
 71 74  1  0  0  0
 71147  1  0  0  0
 72 75  1  0  0  0
 72148  1  0  0  0
 73 74  2  0  0  0
 73 76  1  0  0  0
 73149  1  0  0  0
 74 82  1  0  0  0
 75 76  2  0  0  0
 75 85  1  0  0  0
 76 87  1  0  0  0
 77 78  1  0  0  0
 77 80  1  0  0  0
 77150  1  0  0  0
 77151  1  0  0  0
 78 85  1  0  0  0
 78152  1  0  0  0
 78153  1  0  0  0
 79 80  1  0  0  0
 79 85  1  0  0  0
 79154  1  0  0  0
 79155  1  0  0  0
 80 83  1  0  0  0
 80156  1  0  0  0
 81 84  1  0  0  0
 81157  1  0  0  0
 81158  1  0  0  0
 81159  1  0  0  0
 82 86  1  0  0  0
 82160  1  0  0  0
 82161  1  0  0  0
 83162  1  0  0  0
 83163  1  0  0  0
 84 86  1  0  0  0
 84164  1  0  0  0
 84165  1  0  0  0
M  ISO  4   1 100  68 101  83 101  86 100
M  END
> <chiral flag>
0

> <version>
0

> <s_m_source_file>
/data/baiqing/PycharmProjects/Reinvent-master-3.2/result/LINK_invent/BTK/process_docking_weight1_custom_product_contain_oxygen_bond_distance_aromatic_linkinvent_7_9_3/rearranged_h_0016.sdf

> <i_m_source_file_index>
69

> <r_mmod_Potential_Energy-OPLS-2005>
510.15234375

> <r_mmod_Stretch_Energy-OPLS-2005>
37.760498046875

> <r_mmod_Bend_Energy-OPLS-2005>
355.189880371094

> <r_mmod_Torsional_Energy-OPLS-2005>
375.83447265625

> <r_mmod_Improper_Torsional_Energy-OPLS-2005>
6.10656595230103

> <r_mmod_Van_der_Waal_Energy-OPLS-2005>
165.125595092773

> <r_mmod_Electrostatic_Energy-OPLS-2005>
-237.040939331055

> <r_mmod_Solvation_Energy-OPLS-2005>
-204.265975952148

> <b_mmod_Minimization_Converged-OPLS-2005>
0

> <r_mmod_RMS_Derivative-OPLS-2005>
4.87930679321289

$$$$
69
                    3D
 Structure written by MMmdl.
164172  0  0  1  0            999 V2000
  -30.6957  -14.6189   20.6068 C   0  0  0  0  0  0
  -30.4253  -12.4115   19.4500 C   0  0  0  0  0  0
  -29.5039  -12.5376   18.2207 C   0  0  0  0  0  0
  -28.0296  -12.3598   18.6317 C   0  0  0  0  0  0
  -27.6510  -13.2288   19.8614 C   0  0  2  0  0  0
  -28.6955  -13.1063   20.9918 C   0  0  0  0  0  0
  -25.2553  -13.8206   20.5636 C   0  0  0  0  0  0
  -24.1836  -13.0416   20.9170 C   0  0  0  0  0  0
  -24.6445  -11.6919   20.8740 C   0  0  0  0  0  0
  -23.9118  -10.4276   21.0385 C   0  0  0  0  0  0
  -24.3656   -9.4186   21.9158 C   0  0  0  0  0  0
  -23.6308   -8.2232   22.0754 C   0  0  0  0  0  0
  -22.4284   -8.0293   21.3545 C   0  0  0  0  0  0
  -21.9930   -9.0264   20.4636 C   0  0  0  0  0  0
  -22.7290  -10.2130   20.3028 C   0  0  0  0  0  0
  -21.6859   -6.0747   22.5278 C   0  0  0  0  0  0
  -21.4017   -6.5644   23.8212 C   0  0  0  0  0  0
  -21.3664   -5.6794   24.9171 C   0  0  0  0  0  0
  -21.6045   -4.3054   24.7215 C   0  0  0  0  0  0
  -21.8820   -3.8153   23.4331 C   0  0  0  0  0  0
  -21.9186   -4.6974   22.3392 C   0  0  0  0  0  0
  -22.7855  -13.5204   21.1816 C   0  0  0  0  0  0
  -22.1654   -4.2165   21.0965 F   0  0  0  0  0  0
  -21.5630   -3.4534   25.7722 F   0  0  0  0  0  0
  -30.0030  -13.4479   20.4216 N   0  0  0  0  0  0
  -26.2995  -12.9400   20.3297 N   0  0  0  0  0  0
  -25.9379  -11.6540   20.5759 N   0  0  0  0  0  0
  -22.0518  -12.8176   22.0393 N   0  0  0  0  0  0
  -25.4179  -15.1916   20.4001 N   0  0  0  0  0  0
  -31.8568  -14.7225   20.2020 O   0  0  0  0  0  0
  -21.6642   -6.8900   21.4246 O   0  0  0  0  0  0
  -22.3522  -14.5480   20.6670 O   0  0  0  0  0  0
  -24.6285  -31.8544   23.1954 C   0  0  0  0  0  0
  -25.9118  -32.4759   23.8320 C   0  0  1  0  0  0
  -27.2181  -27.2784   20.1769 C   0  0  0  0  0  0
  -25.5947  -33.8559   24.2263 N   0  0  0  0  0  0
  -23.4265  -30.4712   21.5387 C   0  0  2  0  0  0
  -24.8743  -28.9145   20.1092 C   0  0  0  0  0  0
  -22.7492  -29.4559   22.4915 C   0  0  0  0  0  0
  -18.0295  -28.1392   22.8461 C   0  0  0  0  0  0
  -24.1475  -36.7313   23.2630 C   0  0  0  0  0  0
  -25.9654  -30.7640   21.3754 C   0  0  0  0  0  0
  -26.0374  -29.3893   20.7314 C   0  0  0  0  0  0
  -27.2132  -28.5847   20.7522 C   0  0  0  0  0  0
  -26.0349  -26.8524   19.5306 C   0  0  0  0  0  0
  -24.8771  -27.6531   19.4963 C   0  0  0  0  0  0
  -23.6453  -29.7988   20.1545 C   0  0  0  0  0  0
  -25.4101  -36.3107   24.0319 C   0  0  1  0  0  0
  -20.5890  -28.3678   23.1308 C   0  0  2  0  0  0
  -20.6783  -26.9420   22.5423 C   0  0  0  0  0  0
  -19.5772  -26.6380   21.5226 C   0  0  0  0  0  0
  -18.1939  -26.7934   22.1610 C   0  0  0  0  0  0
  -19.1548  -28.8857   23.2866 C   0  0  0  0  0  0
  -18.9477  -30.1469   23.8866 C   0  0  0  0  0  0
  -17.6480  -30.6603   24.0534 C   0  0  0  0  0  0
  -25.9053  -34.9458   23.5105 C   0  0  0  0  0  0
  -16.5365  -29.9085   23.6329 C   0  0  0  0  0  0
  -16.7281  -28.6497   23.0346 C   0  0  0  0  0  0
  -26.4470  -31.6616   25.0735 C   0  0  0  0  0  0
  -25.3687  -31.3772   26.1462 C   0  0  0  0  0  0
  -27.0283  -30.3041   24.6190 C   0  0  0  0  0  0
  -27.6012  -32.4353   25.7533 C   0  0  0  0  0  0
  -27.5556  -37.1814   24.8457 C   0  0  0  0  0  0
  -21.4205  -29.3010   22.3686 N   0  0  0  0  0  0
  -26.4270  -37.3807   23.9409 N   0  0  0  0  0  0
  -24.6924  -31.0489   22.0946 N   0  0  0  0  0  0
  -23.4185  -28.8077   23.3000 O   0  0  0  0  0  0
  -28.3134  -26.4096   20.2833 O   0  0  0  0  0  0
  -26.5644  -34.8920   22.4694 O   0  0  0  0  0  0
  -23.5418  -32.1431   23.7192 O   0  0  0  0  0  0
  -31.4349  -16.1578   23.0152 C   0  0  0  0  0  0
  -31.9186  -16.8791   24.1196 C   0  0  0  0  0  0
  -30.6426  -18.7837   23.3870 C   0  0  0  0  0  0
  -30.1877  -18.1313   22.2101 C   0  0  0  0  0  0
  -30.5496  -16.7145   22.0456 C   0  0  0  0  0  0
  -31.5026  -18.1956   24.3147 C   0  0  0  0  0  0
  -29.3492  -19.1357   21.4242 C   0  0  0  0  0  0
  -29.8809  -20.3335   20.9691 C   0  0  0  0  0  0
  -29.1298  -21.5136   20.4316 C   0  0  0  0  0  0
  -27.8662  -18.8068   21.3937 C   0  0  0  0  0  0
  -31.3959  -20.5330   20.9000 C   0  0  0  0  0  0
  -28.5039  -22.3396   22.6897 C   0  0  0  0  0  0
  -29.2088  -24.0179   20.9507 C   0  0  0  0  0  0
  -28.0154  -24.9722   20.5177 C   0  0  0  0  0  0
  -30.0306  -15.7303   21.0898 N   0  0  0  0  0  0
  -28.9144  -22.5673   21.2954 N   0  0  0  0  0  0
  -28.9542  -21.6783   19.2229 O   0  0  0  0  0  0
  -32.0262  -19.0960   25.6900 Cl  0  0  0  0  0  0
  -31.4702  -12.5128   19.1511 H   0  0  0  0  0  0
  -30.3404  -11.4149   19.8871 H   0  0  0  0  0  0
  -29.7742  -11.8134   17.4511 H   0  0  0  0  0  0
  -29.6447  -13.5239   17.7746 H   0  0  0  0  0  0
  -27.8696  -11.3053   18.8569 H   0  0  0  0  0  0
  -27.3746  -12.5925   17.7916 H   0  0  0  0  0  0
  -27.6642  -14.2624   19.5168 H   0  0  0  0  0  0
  -28.7156  -12.0908   21.3907 H   0  0  0  0  0  0
  -28.4445  -13.7560   21.8303 H   0  0  0  0  0  0
  -25.2822   -9.5649   22.4706 H   0  0  0  0  0  0
  -24.0016   -7.4635   22.7478 H   0  0  0  0  0  0
  -21.0856   -8.8782   19.8952 H   0  0  0  0  0  0
  -22.3757  -10.9651   19.6117 H   0  0  0  0  0  0
  -21.2021   -7.6157   23.9721 H   0  0  0  0  0  0
  -21.1486   -6.0521   25.9077 H   0  0  0  0  0  0
  -22.0598   -2.7615   23.2817 H   0  0  0  0  0  0
  -22.4172  -11.9860   22.4765 H   0  0  0  0  0  0
  -21.1132  -13.1167   22.2587 H   0  0  0  0  0  0
  -24.6372  -15.8333   20.4882 H   0  0  0  0  0  0
  -26.2521  -15.6335   20.0342 H   0  0  0  0  0  0
  -26.7129  -32.5354   23.0995 H   0  0  0  0  0  0
  -25.0131  -33.9682   25.0435 H   0  0  0  0  0  0
  -22.7319  -31.2981   21.3851 H   0  0  0  0  0  0
  -23.3743  -35.9644   23.3327 H   0  0  0  0  0  0
  -24.3525  -36.8922   22.2036 H   0  0  0  0  0  0
  -23.7232  -37.6513   23.6644 H   0  0  0  0  0  0
  -26.0927  -31.4958   20.5791 H   0  0  0  0  0  0
  -26.8483  -30.8189   22.0010 H   0  0  0  0  0  0
  -28.0967  -28.9314   21.2704 H   0  0  0  0  0  0
  -25.9803  -25.8716   19.0845 H   0  0  0  0  0  0
  -23.9837  -27.2879   19.0107 H   0  0  0  0  0  0
  -23.7631  -30.5679   19.3915 H   0  0  0  0  0  0
  -22.7701  -29.2245   19.8478 H   0  0  0  0  0  0
  -25.1298  -36.1930   25.0807 H   0  0  0  0  0  0
  -20.9907  -28.3153   24.1454 H   0  0  0  0  0  0
  -20.5713  -26.2264   23.3581 H   0  0  0  0  0  0
  -21.6651  -26.7503   22.1217 H   0  0  0  0  0  0
  -19.6967  -25.6293   21.1265 H   0  0  0  0  0  0
  -19.6707  -27.3173   20.6747 H   0  0  0  0  0  0
  -17.4220  -26.6691   21.3988 H   0  0  0  0  0  0
  -18.0290  -26.0119   22.9041 H   0  0  0  0  0  0
  -19.7977  -30.7286   24.2174 H   0  0  0  0  0  0
  -17.5074  -31.6274   24.5171 H   0  0  0  0  0  0
  -15.5382  -30.2986   23.7729 H   0  0  0  0  0  0
  -15.8665  -28.0829   22.7081 H   0  0  0  0  0  0
  -24.5872  -30.7082   25.7848 H   0  0  0  0  0  0
  -24.8850  -32.2925   26.4884 H   0  0  0  0  0  0
  -25.8016  -30.9000   27.0265 H   0  0  0  0  0  0
  -26.2801  -29.6856   24.1207 H   0  0  0  0  0  0
  -27.3979  -29.7250   25.4674 H   0  0  0  0  0  0
  -27.8710  -30.4381   23.9396 H   0  0  0  0  0  0
  -27.2606  -33.3665   26.2069 H   0  0  0  0  0  0
  -28.3855  -32.6907   25.0397 H   0  0  0  0  0  0
  -28.0624  -31.8510   26.5501 H   0  0  0  0  0  0
  -28.2615  -38.0079   24.7522 H   0  0  0  0  0  0
  -28.1022  -36.2627   24.6298 H   0  0  0  0  0  0
  -27.2259  -37.1489   25.8850 H   0  0  0  0  0  0
  -20.9394  -29.8685   21.6850 H   0  0  0  0  0  0
  -26.0176  -38.2877   24.1446 H   0  0  0  0  0  0
  -31.7462  -15.1260   22.9662 H   0  0  0  0  0  0
  -32.5763  -16.4163   24.8415 H   0  0  0  0  0  0
  -30.3322  -19.7982   23.5960 H   0  0  0  0  0  0
  -27.7129  -17.7992   21.0108 H   0  0  0  0  0  0
  -27.2807  -19.4878   20.7773 H   0  0  0  0  0  0
  -27.4685  -18.8498   22.4094 H   0  0  0  0  0  0
  -31.8240  -19.8347   20.1804 H   0  0  0  0  0  0
  -31.8956  -20.3812   21.8540 H   0  0  0  0  0  0
  -31.6640  -21.5371   20.5640 H   0  0  0  0  0  0
  -29.3263  -22.5010   23.3890 H   0  0  0  0  0  0
  -28.1107  -21.3356   22.8640 H   0  0  0  0  0  0
  -27.6927  -23.0221   22.9465 H   0  0  0  0  0  0
  -29.6994  -24.4749   21.8166 H   0  0  0  0  0  0
  -29.9776  -24.0196   20.1723 H   0  0  0  0  0  0
  -27.2549  -24.9190   21.3018 H   0  0  0  0  0  0
  -27.5668  -24.5457   19.6202 H   0  0  0  0  0  0
  -29.0257  -15.6854   21.0291 H   0  0  0  0  0  0
  1 25  1  0  0  0
  1 30  2  0  0  0
  1 85  1  0  0  0
  2  3  1  0  0  0
  2 25  1  0  0  0
  2 89  1  0  0  0
  2 90  1  0  0  0
  3  4  1  0  0  0
  3 91  1  0  0  0
  3 92  1  0  0  0
  4  5  1  0  0  0
  4 93  1  0  0  0
  4 94  1  0  0  0
  5  6  1  0  0  0
  5 26  1  0  0  0
  5 95  1  0  0  0
  6 25  1  0  0  0
  6 96  1  0  0  0
  6 97  1  0  0  0
  7  8  2  0  0  0
  7 26  1  0  0  0
  7 29  1  0  0  0
  8  9  1  0  0  0
  8 22  1  0  0  0
  9 10  1  0  0  0
  9 27  2  0  0  0
 10 11  2  0  0  0
 10 15  1  0  0  0
 11 12  1  0  0  0
 11 98  1  0  0  0
 12 13  2  0  0  0
 12 99  1  0  0  0
 13 14  1  0  0  0
 13 31  1  0  0  0
 14 15  2  0  0  0
 14100  1  0  0  0
 15101  1  0  0  0
 16 17  2  0  0  0
 16 21  1  0  0  0
 16 31  1  0  0  0
 17 18  1  0  0  0
 17102  1  0  0  0
 18 19  2  0  0  0
 18103  1  0  0  0
 19 20  1  0  0  0
 19 24  1  0  0  0
 20 21  2  0  0  0
 20104  1  0  0  0
 21 23  1  0  0  0
 22 28  1  0  0  0
 22 32  2  0  0  0
 26 27  1  0  0  0
 28105  1  0  0  0
 28106  1  0  0  0
 29107  1  0  0  0
 29108  1  0  0  0
 33 34  1  0  0  0
 33 66  1  0  0  0
 33 70  2  0  0  0
 34 36  1  0  0  0
 34 59  1  0  0  0
 34109  1  0  0  0
 35 44  2  0  0  0
 35 45  1  0  0  0
 35 68  1  0  0  0
 36 56  1  0  0  0
 36110  1  0  0  0
 37 39  1  0  0  0
 37 47  1  0  0  0
 37 66  1  0  0  0
 37111  1  0  0  0
 38 43  2  0  0  0
 38 46  1  0  0  0
 38 47  1  0  0  0
 39 64  1  0  0  0
 39 67  2  0  0  0
 40 52  1  0  0  0
 40 53  2  0  0  0
 40 58  1  0  0  0
 41112  1  0  0  0
 41113  1  0  0  0
 41114  1  0  0  0
 41 48  1  0  0  0
 42 43  1  0  0  0
 42 66  1  0  0  0
 42115  1  0  0  0
 42116  1  0  0  0
 43 44  1  0  0  0
 44117  1  0  0  0
 45 46  2  0  0  0
 45118  1  0  0  0
 46119  1  0  0  0
 47120  1  0  0  0
 47121  1  0  0  0
 48 56  1  0  0  0
 48 65  1  0  0  0
 48122  1  0  0  0
 49 50  1  0  0  0
 49 53  1  0  0  0
 49 64  1  0  0  0
 49123  1  0  0  0
 50 51  1  0  0  0
 50124  1  0  0  0
 50125  1  0  0  0
 51 52  1  0  0  0
 51126  1  0  0  0
 51127  1  0  0  0
 52128  1  0  0  0
 52129  1  0  0  0
 53 54  1  0  0  0
 54 55  2  0  0  0
 54130  1  0  0  0
 55 57  1  0  0  0
 55131  1  0  0  0
 56 69  2  0  0  0
 57 58  2  0  0  0
 57132  1  0  0  0
 58133  1  0  0  0
 59 60  1  0  0  0
 59 61  1  0  0  0
 59 62  1  0  0  0
 60134  1  0  0  0
 60135  1  0  0  0
 60136  1  0  0  0
 61137  1  0  0  0
 61138  1  0  0  0
 61139  1  0  0  0
 62140  1  0  0  0
 62141  1  0  0  0
 62142  1  0  0  0
 63 65  1  0  0  0
 63143  1  0  0  0
 63144  1  0  0  0
 63145  1  0  0  0
 64146  1  0  0  0
 65147  1  0  0  0
 68 84  1  0  0  0
 71 72  2  0  0  0
 71 75  1  0  0  0
 71148  1  0  0  0
 72 76  1  0  0  0
 72149  1  0  0  0
 73 74  1  0  0  0
 73 76  2  0  0  0
 73150  1  0  0  0
 74 75  2  0  0  0
 74 77  1  0  0  0
 75 85  1  0  0  0
 76 88  1  0  0  0
 77 78  2  0  0  0
 77 80  1  0  0  0
 78 79  1  0  0  0
 78 81  1  0  0  0
 79 86  1  0  0  0
 79 87  2  0  0  0
 80151  1  0  0  0
 80152  1  0  0  0
 80153  1  0  0  0
 81154  1  0  0  0
 81155  1  0  0  0
 81156  1  0  0  0
 82 86  1  0  0  0
 82157  1  0  0  0
 82158  1  0  0  0
 82159  1  0  0  0
 83 84  1  0  0  0
 83 86  1  0  0  0
 83160  1  0  0  0
 83161  1  0  0  0
 84162  1  0  0  0
 84163  1  0  0  0
 85164  1  0  0  0
M  ISO  4   1 100  68 101  84 101  85 100
M  END
> <chiral flag>
0

> <version>
0

> <s_m_source_file>
/data/baiqing/PycharmProjects/Reinvent-master-3.2/result/LINK_invent/BTK/process_docking_weight1_custom_product_contain_oxygen_bond_distance_aromatic_linkinvent_7_9_3/rearranged_h_0016.sdf

> <i_m_source_file_index>
70

> <r_mmod_Potential_Energy-OPLS-2005>
251.652770996094

> <r_mmod_Stretch_Energy-OPLS-2005>
100.781127929688

> <r_mmod_Bend_Energy-OPLS-2005>
178.281097412109

> <r_mmod_Torsional_Energy-OPLS-2005>
343.223449707031

> <r_mmod_Improper_Torsional_Energy-OPLS-2005>
14.8676643371582

> <r_mmod_Van_der_Waal_Energy-OPLS-2005>
152.005905151367

> <r_mmod_Electrostatic_Energy-OPLS-2005>
-379.144439697266

> <r_mmod_Solvation_Energy-OPLS-2005>
-220.752044677734

> <b_mmod_Minimization_Converged-OPLS-2005>
0

> <r_mmod_RMS_Derivative-OPLS-2005>
6.59658050537109

$$$$
70
                    3D
 Structure written by MMmdl.
166174  0  0  1  0            999 V2000
  -30.7279  -14.4121   20.5989 C   0  0  0  0  0  0
  -30.4188  -12.2765   19.4069 C   0  0  0  0  0  0
  -29.4937  -12.5029   18.1962 C   0  0  0  0  0  0
  -28.0131  -12.3726   18.6097 C   0  0  0  0  0  0
  -27.6650  -13.1972   19.8790 C   0  0  2  0  0  0
  -28.7062  -12.9525   20.9933 C   0  0  0  0  0  0
  -25.2614  -13.8126   20.5684 C   0  0  0  0  0  0
  -24.1863  -13.0437   20.9182 C   0  0  0  0  0  0
  -24.6396  -11.6892   20.8745 C   0  0  0  0  0  0
  -23.9070  -10.4281   21.0411 C   0  0  0  0  0  0
  -24.3629   -9.4190   21.9188 C   0  0  0  0  0  0
  -23.6305   -8.2227   22.0757 C   0  0  0  0  0  0
  -22.4281   -8.0273   21.3564 C   0  0  0  0  0  0
  -21.9925   -9.0243   20.4662 C   0  0  0  0  0  0
  -22.7247  -10.2119   20.3058 C   0  0  0  0  0  0
  -21.6860   -6.0736   22.5285 C   0  0  0  0  0  0
  -21.4013   -6.5640   23.8218 C   0  0  0  0  0  0
  -21.3659   -5.6791   24.9182 C   0  0  0  0  0  0
  -21.6040   -4.3052   24.7230 C   0  0  0  0  0  0
  -21.8818   -3.8152   23.4348 C   0  0  0  0  0  0
  -21.9203   -4.6968   22.3406 C   0  0  0  0  0  0
  -22.7881  -13.5236   21.1831 C   0  0  0  0  0  0
  -22.1666   -4.2158   21.0978 F   0  0  0  0  0  0
  -21.5636   -3.4522   25.7735 F   0  0  0  0  0  0
  -30.0408  -13.2483   20.4433 N   0  0  0  0  0  0
  -26.3050  -12.9284   20.3393 N   0  0  0  0  0  0
  -25.9321  -11.6461   20.5789 N   0  0  0  0  0  0
  -22.0526  -12.8244   22.0388 N   0  0  0  0  0  0
  -25.4354  -15.1844   20.4048 N   0  0  0  0  0  0
  -31.8488  -14.6020   20.1121 O   0  0  0  0  0  0
  -21.6650   -6.8875   21.4247 O   0  0  0  0  0  0
  -22.3569  -14.5544   20.6659 O   0  0  0  0  0  0
  -24.6100  -31.8661   23.2071 C   0  0  0  0  0  0
  -25.9016  -32.4802   23.8350 C   0  0  1  0  0  0
  -27.2518  -27.4696   20.0868 C   0  0  0  0  0  0
  -25.5900  -33.8601   24.2305 N   0  0  0  0  0  0
  -23.3979  -30.4875   21.5430 C   0  0  2  0  0  0
  -24.8489  -28.9537   20.1058 C   0  0  0  0  0  0
  -22.7374  -29.4631   22.4935 C   0  0  0  0  0  0
  -18.0261  -28.1347   22.8482 C   0  0  0  0  0  0
  -24.1483  -36.7309   23.2633 C   0  0  0  0  0  0
  -25.9186  -30.8421   21.3548 C   0  0  0  0  0  0
  -25.9975  -29.4757   20.7093 C   0  0  0  0  0  0
  -27.1942  -28.7340   20.7107 C   0  0  0  0  0  0
  -26.0894  -26.9532   19.4728 C   0  0  0  0  0  0
  -24.8875  -27.6894   19.4861 C   0  0  0  0  0  0
  -23.6085  -29.8149   20.1560 C   0  0  0  0  0  0
  -25.4096  -36.3096   24.0339 C   0  0  1  0  0  0
  -20.5843  -28.3625   23.1306 C   0  0  2  0  0  0
  -20.6738  -26.9359   22.5409 C   0  0  0  0  0  0
  -19.5735  -26.6360   21.5191 C   0  0  0  0  0  0
  -18.1914  -26.7887   22.1610 C   0  0  0  0  0  0
  -19.1508  -28.8797   23.2896 C   0  0  0  0  0  0
  -18.9448  -30.1393   23.8927 C   0  0  0  0  0  0
  -17.6464  -30.6564   24.0546 C   0  0  0  0  0  0
  -25.9017  -34.9463   23.5119 C   0  0  0  0  0  0
  -16.5348  -29.9076   23.6302 C   0  0  0  0  0  0
  -16.7257  -28.6473   23.0352 C   0  0  0  0  0  0
  -26.4477  -31.6571   25.0667 C   0  0  0  0  0  0
  -25.3783  -31.3630   26.1435 C   0  0  0  0  0  0
  -27.0274  -30.3004   24.6011 C   0  0  0  0  0  0
  -27.6065  -32.4259   25.7445 C   0  0  0  0  0  0
  -27.5562  -37.1811   24.8467 C   0  0  0  0  0  0
  -21.4095  -29.3019   22.3714 N   0  0  0  0  0  0
  -26.4270  -37.3792   23.9412 N   0  0  0  0  0  0
  -24.6596  -31.0793   22.0941 N   0  0  0  0  0  0
  -23.4152  -28.8176   23.2969 O   0  0  0  0  0  0
  -28.4515  -26.8021   20.1438 O   0  0  0  0  0  0
  -26.5563  -34.8927   22.4666 O   0  0  0  0  0  0
  -23.5320  -32.1397   23.7493 O   0  0  0  0  0  0
  -30.4509  -18.8414   20.9181 C   0  0  0  0  0  0
  -28.0772  -18.2965   20.9384 C   0  0  0  0  0  0
  -30.1544  -20.1554   21.3235 C   0  0  0  0  0  0
  -27.7777  -19.6180   21.3298 C   0  0  0  0  0  0
  -29.4120  -17.9180   20.6923 C   0  0  0  0  0  0
  -28.8095  -20.5679   21.4951 C   0  0  0  0  0  0
  -29.2477  -22.9819   21.8569 C   0  0  0  0  0  0
  -30.1777  -23.7590   19.1219 C   0  0  0  0  0  0
  -27.6770  -23.5742   19.0662 C   0  0  0  0  0  0
  -29.9888  -15.7559   22.4859 C   0  0  0  0  0  0
  -29.7282  -16.5478   20.1064 C   0  0  0  0  0  0
  -28.7992  -24.3142   21.2380 C   0  0  0  0  0  0
  -28.8014  -25.8418   19.1554 C   0  0  0  0  0  0
  -28.8578  -24.3685   19.6706 C   0  0  0  0  0  0
  -28.4327  -21.9260   21.7022 N   0  0  0  0  0  0
  -29.9954  -15.4494   21.0532 N   0  0  0  0  0  0
  -30.3002  -22.9400   22.4991 O   0  0  0  0  0  0
  -31.4644  -12.3726   19.1078 H   0  0  0  0  0  0
  -30.3069  -11.2591   19.7850 H   0  0  0  0  0  0
  -29.7228  -11.7851   17.4056 H   0  0  0  0  0  0
  -29.6759  -13.4937   17.7779 H   0  0  0  0  0  0
  -27.8158  -11.3164   18.7948 H   0  0  0  0  0  0
  -27.3649  -12.6620   17.7823 H   0  0  0  0  0  0
  -27.7144  -14.2482   19.6037 H   0  0  0  0  0  0
  -28.6694  -11.9107   21.3164 H   0  0  0  0  0  0
  -28.4751  -13.5407   21.8822 H   0  0  0  0  0  0
  -25.2778   -9.5663   22.4763 H   0  0  0  0  0  0
  -24.0026   -7.4617   22.7463 H   0  0  0  0  0  0
  -21.0867   -8.8750   19.8971 H   0  0  0  0  0  0
  -22.3710  -10.9656   19.6162 H   0  0  0  0  0  0
  -21.1981   -7.6146   23.9723 H   0  0  0  0  0  0
  -21.1498   -6.0521   25.9087 H   0  0  0  0  0  0
  -22.0606   -2.7616   23.2844 H   0  0  0  0  0  0
  -22.4160  -11.9892   22.4752 H   0  0  0  0  0  0
  -21.1140  -13.1262   22.2595 H   0  0  0  0  0  0
  -24.6695  -15.8420   20.5039 H   0  0  0  0  0  0
  -26.2882  -15.6145   20.0743 H   0  0  0  0  0  0
  -26.7075  -32.5515   23.1106 H   0  0  0  0  0  0
  -25.0184  -33.9757   25.0541 H   0  0  0  0  0  0
  -22.6864  -31.3016   21.3962 H   0  0  0  0  0  0
  -23.3742  -35.9650   23.3321 H   0  0  0  0  0  0
  -24.3584  -36.8895   22.2043 H   0  0  0  0  0  0
  -23.7244  -37.6529   23.6624 H   0  0  0  0  0  0
  -26.0209  -31.6088   20.5855 H   0  0  0  0  0  0
  -26.8073  -30.8981   21.9718 H   0  0  0  0  0  0
  -28.0781  -29.1346   21.1871 H   0  0  0  0  0  0
  -26.0960  -25.9894   18.9859 H   0  0  0  0  0  0
  -24.0070  -27.2802   19.0098 H   0  0  0  0  0  0
  -23.7188  -30.5851   19.3921 H   0  0  0  0  0  0
  -22.7365  -29.2305   19.8587 H   0  0  0  0  0  0
  -25.1282  -36.1965   25.0838 H   0  0  0  0  0  0
  -20.9939  -28.3181   24.1427 H   0  0  0  0  0  0
  -20.5589  -26.2245   23.3598 H   0  0  0  0  0  0
  -21.6617  -26.7383   22.1238 H   0  0  0  0  0  0
  -19.6897  -25.6274   21.1200 H   0  0  0  0  0  0
  -19.6672  -27.3185   20.6736 H   0  0  0  0  0  0
  -17.4178  -26.6613   21.4014 H   0  0  0  0  0  0
  -18.0329  -26.0017   22.9002 H   0  0  0  0  0  0
  -19.7935  -30.7159   24.2345 H   0  0  0  0  0  0
  -17.5045  -31.6266   24.5106 H   0  0  0  0  0  0
  -15.5347  -30.3020   23.7595 H   0  0  0  0  0  0
  -15.8645  -28.0805   22.7100 H   0  0  0  0  0  0
  -24.6025  -30.6894   25.7779 H   0  0  0  0  0  0
  -24.8916  -32.2763   26.4867 H   0  0  0  0  0  0
  -25.8217  -30.8848   27.0184 H   0  0  0  0  0  0
  -26.2777  -29.6774   24.1123 H   0  0  0  0  0  0
  -27.4105  -29.7228   25.4436 H   0  0  0  0  0  0
  -27.8592  -30.4296   23.9081 H   0  0  0  0  0  0
  -27.2711  -33.3566   26.2036 H   0  0  0  0  0  0
  -28.3908  -32.6790   25.0297 H   0  0  0  0  0  0
  -28.0700  -31.8362   26.5371 H   0  0  0  0  0  0
  -28.2606  -38.0083   24.7504 H   0  0  0  0  0  0
  -28.1031  -36.2626   24.6312 H   0  0  0  0  0  0
  -27.2279  -37.1483   25.8866 H   0  0  0  0  0  0
  -20.9223  -29.8809   21.7008 H   0  0  0  0  0  0
  -26.0164  -38.2866   24.1436 H   0  0  0  0  0  0
  -31.4794  -18.5602   20.7333 H   0  0  0  0  0  0
  -27.2758  -17.5861   20.7829 H   0  0  0  0  0  0
  -30.9768  -20.8454   21.4381 H   0  0  0  0  0  0
  -26.7423  -19.9011   21.4613 H   0  0  0  0  0  0
  -30.2209  -23.8194   18.0330 H   0  0  0  0  0  0
  -30.3115  -22.7048   19.3699 H   0  0  0  0  0  0
  -31.0453  -24.2924   19.5126 H   0  0  0  0  0  0
  -26.7259  -23.8510   19.5233 H   0  0  0  0  0  0
  -27.7991  -22.4991   19.1939 H   0  0  0  0  0  0
  -27.5902  -23.7429   17.9924 H   0  0  0  0  0  0
  -29.0349  -16.1901   22.7855 H   0  0  0  0  0  0
  -30.7807  -16.4659   22.7293 H   0  0  0  0  0  0
  -30.1379  -14.8636   23.0948 H   0  0  0  0  0  0
  -28.8897  -16.2485   19.4761 H   0  0  0  0  0  0
  -30.5577  -16.6752   19.4074 H   0  0  0  0  0  0
  -29.4556  -25.0819   21.6506 H   0  0  0  0  0  0
  -27.7965  -24.5585   21.5949 H   0  0  0  0  0  0
  -28.2312  -25.9438   18.2323 H   0  0  0  0  0  0
  -29.8043  -26.1563   18.8639 H   0  0  0  0  0  0
  -27.4873  -22.1493   21.4250 H   0  0  0  0  0  0
  1 25  1  0  0  0
  1 30  2  0  0  0
  1 86  1  0  0  0
  2  3  1  0  0  0
  2 25  1  0  0  0
  2 88  1  0  0  0
  2 89  1  0  0  0
  3  4  1  0  0  0
  3 90  1  0  0  0
  3 91  1  0  0  0
  4  5  1  0  0  0
  4 92  1  0  0  0
  4 93  1  0  0  0
  5  6  1  0  0  0
  5 26  1  0  0  0
  5 94  1  0  0  0
  6 25  1  0  0  0
  6 95  1  0  0  0
  6 96  1  0  0  0
  7  8  2  0  0  0
  7 26  1  0  0  0
  7 29  1  0  0  0
  8  9  1  0  0  0
  8 22  1  0  0  0
  9 10  1  0  0  0
  9 27  2  0  0  0
 10 11  2  0  0  0
 10 15  1  0  0  0
 11 12  1  0  0  0
 11 97  1  0  0  0
 12 13  2  0  0  0
 12 98  1  0  0  0
 13 14  1  0  0  0
 13 31  1  0  0  0
 14 15  2  0  0  0
 14 99  1  0  0  0
 15100  1  0  0  0
 16 17  2  0  0  0
 16 21  1  0  0  0
 16 31  1  0  0  0
 17 18  1  0  0  0
 17101  1  0  0  0
 18 19  2  0  0  0
 18102  1  0  0  0
 19 20  1  0  0  0
 19 24  1  0  0  0
 20 21  2  0  0  0
 20103  1  0  0  0
 21 23  1  0  0  0
 22 28  1  0  0  0
 22 32  2  0  0  0
 26 27  1  0  0  0
 28104  1  0  0  0
 28105  1  0  0  0
 29106  1  0  0  0
 29107  1  0  0  0
 33 34  1  0  0  0
 33 66  1  0  0  0
 33 70  2  0  0  0
 34 36  1  0  0  0
 34 59  1  0  0  0
 34108  1  0  0  0
 35 44  2  0  0  0
 35 45  1  0  0  0
 35 68  1  0  0  0
 36 56  1  0  0  0
 36109  1  0  0  0
 37 39  1  0  0  0
 37 47  1  0  0  0
 37 66  1  0  0  0
 37110  1  0  0  0
 38 43  2  0  0  0
 38 46  1  0  0  0
 38 47  1  0  0  0
 39 64  1  0  0  0
 39 67  2  0  0  0
 40 52  1  0  0  0
 40 53  2  0  0  0
 40 58  1  0  0  0
 41111  1  0  0  0
 41112  1  0  0  0
 41113  1  0  0  0
 41 48  1  0  0  0
 42 43  1  0  0  0
 42 66  1  0  0  0
 42114  1  0  0  0
 42115  1  0  0  0
 43 44  1  0  0  0
 44116  1  0  0  0
 45 46  2  0  0  0
 45117  1  0  0  0
 46118  1  0  0  0
 47119  1  0  0  0
 47120  1  0  0  0
 48 56  1  0  0  0
 48 65  1  0  0  0
 48121  1  0  0  0
 49 50  1  0  0  0
 49 53  1  0  0  0
 49 64  1  0  0  0
 49122  1  0  0  0
 50 51  1  0  0  0
 50123  1  0  0  0
 50124  1  0  0  0
 51 52  1  0  0  0
 51125  1  0  0  0
 51126  1  0  0  0
 52127  1  0  0  0
 52128  1  0  0  0
 53 54  1  0  0  0
 54 55  2  0  0  0
 54129  1  0  0  0
 55 57  1  0  0  0
 55130  1  0  0  0
 56 69  2  0  0  0
 57 58  2  0  0  0
 57131  1  0  0  0
 58132  1  0  0  0
 59 60  1  0  0  0
 59 61  1  0  0  0
 59 62  1  0  0  0
 60133  1  0  0  0
 60134  1  0  0  0
 60135  1  0  0  0
 61136  1  0  0  0
 61137  1  0  0  0
 61138  1  0  0  0
 62139  1  0  0  0
 62140  1  0  0  0
 62141  1  0  0  0
 63 65  1  0  0  0
 63142  1  0  0  0
 63143  1  0  0  0
 63144  1  0  0  0
 64145  1  0  0  0
 65146  1  0  0  0
 68 83  1  0  0  0
 71 73  2  0  0  0
 71 75  1  0  0  0
 71147  1  0  0  0
 72 74  1  0  0  0
 72 75  2  0  0  0
 72148  1  0  0  0
 73 76  1  0  0  0
 73149  1  0  0  0
 74 76  2  0  0  0
 74150  1  0  0  0
 75 81  1  0  0  0
 76 85  1  0  0  0
 77 82  1  0  0  0
 77 85  1  0  0  0
 77 87  2  0  0  0
 78151  1  0  0  0
 78152  1  0  0  0
 78153  1  0  0  0
 78 84  1  0  0  0
 79 84  1  0  0  0
 79154  1  0  0  0
 79155  1  0  0  0
 79156  1  0  0  0
 80 86  1  0  0  0
 80157  1  0  0  0
 80158  1  0  0  0
 80159  1  0  0  0
 81 86  1  0  0  0
 81160  1  0  0  0
 81161  1  0  0  0
 82 84  1  0  0  0
 82162  1  0  0  0
 82163  1  0  0  0
 83 84  1  0  0  0
 83164  1  0  0  0
 83165  1  0  0  0
 85166  1  0  0  0
M  ISO  4   1 100  68 101  83 101  86 100
M  END
> <chiral flag>
0

> <version>
0

> <s_m_source_file>
/data/baiqing/PycharmProjects/Reinvent-master-3.2/result/LINK_invent/BTK/process_docking_weight1_custom_product_contain_oxygen_bond_distance_aromatic_linkinvent_7_9_3/rearranged_h_0016.sdf

> <i_m_source_file_index>
71

> <r_mmod_Potential_Energy-OPLS-2005>
107.538291931152

> <r_mmod_Stretch_Energy-OPLS-2005>
37.6780471801758

> <r_mmod_Bend_Energy-OPLS-2005>
115.183013916016

> <r_mmod_Torsional_Energy-OPLS-2005>
320.379028320312

> <r_mmod_Improper_Torsional_Energy-OPLS-2005>
10.451114654541

> <r_mmod_Van_der_Waal_Energy-OPLS-2005>
163.503295898438

> <r_mmod_Electrostatic_Energy-OPLS-2005>
-340.585479736328

> <r_mmod_Solvation_Energy-OPLS-2005>
-209.995346069336

> <b_mmod_Minimization_Converged-OPLS-2005>
0

> <r_mmod_RMS_Derivative-OPLS-2005>
3.11354351043701

$$$$
71
                    3D
 Structure written by MMmdl.
161169  0  0  1  0            999 V2000
  -30.8063  -14.4409   20.6560 C   0  0  0  0  0  0
  -30.3939  -12.3157   19.4563 C   0  0  0  0  0  0
  -29.4933  -12.5400   18.2247 C   0  0  0  0  0  0
  -28.0154  -12.3705   18.6153 C   0  0  0  0  0  0
  -27.6528  -13.2080   19.8680 C   0  0  2  0  0  0
  -28.6824  -12.9983   20.9982 C   0  0  0  0  0  0
  -25.2537  -13.8155   20.5658 C   0  0  0  0  0  0
  -24.1800  -13.0431   20.9135 C   0  0  0  0  0  0
  -24.6351  -11.6898   20.8676 C   0  0  0  0  0  0
  -23.9036  -10.4290   21.0364 C   0  0  0  0  0  0
  -24.3592   -9.4234   21.9160 C   0  0  0  0  0  0
  -23.6271   -8.2277   22.0762 C   0  0  0  0  0  0
  -22.4257   -8.0298   21.3546 C   0  0  0  0  0  0
  -21.9875   -9.0265   20.4650 C   0  0  0  0  0  0
  -22.7198  -10.2139   20.3039 C   0  0  0  0  0  0
  -21.6846   -6.0739   22.5280 C   0  0  0  0  0  0
  -21.4028   -6.5644   23.8216 C   0  0  0  0  0  0
  -21.3672   -5.6792   24.9171 C   0  0  0  0  0  0
  -21.6052   -4.3057   24.7216 C   0  0  0  0  0  0
  -21.8813   -3.8150   23.4334 C   0  0  0  0  0  0
  -21.9194   -4.6970   22.3396 C   0  0  0  0  0  0
  -22.7838  -13.5260   21.1830 C   0  0  0  0  0  0
  -22.1656   -4.2157   21.0972 F   0  0  0  0  0  0
  -21.5629   -3.4545   25.7730 F   0  0  0  0  0  0
  -30.0290  -13.3198   20.4819 N   0  0  0  0  0  0
  -26.2947  -12.9320   20.3270 N   0  0  0  0  0  0
  -25.9268  -11.6474   20.5675 N   0  0  0  0  0  0
  -22.0473  -12.8271   22.0393 N   0  0  0  0  0  0
  -25.4241  -15.1880   20.4165 N   0  0  0  0  0  0
  -31.8838  -14.5311   20.0528 O   0  0  0  0  0  0
  -21.6637   -6.8881   21.4240 O   0  0  0  0  0  0
  -22.3546  -14.5583   20.6694 O   0  0  0  0  0  0
  -24.6126  -31.8701   23.2104 C   0  0  0  0  0  0
  -25.9051  -32.4813   23.8400 C   0  0  1  0  0  0
  -27.2510  -27.4492   20.0950 C   0  0  0  0  0  0
  -25.5966  -33.8616   24.2346 N   0  0  0  0  0  0
  -23.3981  -30.4900   21.5485 C   0  0  2  0  0  0
  -24.8493  -28.9559   20.1187 C   0  0  0  0  0  0
  -22.7391  -29.4638   22.4989 C   0  0  0  0  0  0
  -18.0254  -28.1399   22.8496 C   0  0  0  0  0  0
  -24.1485  -36.7215   23.2643 C   0  0  0  0  0  0
  -25.9275  -30.8410   21.3604 C   0  0  0  0  0  0
  -26.0074  -29.4754   20.7070 C   0  0  0  0  0  0
  -27.2061  -28.7321   20.6879 C   0  0  0  0  0  0
  -26.0669  -26.9324   19.5180 C   0  0  0  0  0  0
  -24.8731  -27.6830   19.5241 C   0  0  0  0  0  0
  -23.6091  -29.8191   20.1631 C   0  0  0  0  0  0
  -25.4132  -36.3090   24.0339 C   0  0  1  0  0  0
  -20.5842  -28.3640   23.1346 C   0  0  2  0  0  0
  -20.6739  -26.9386   22.5414 C   0  0  0  0  0  0
  -19.5737  -26.6398   21.5204 C   0  0  0  0  0  0
  -18.1915  -26.7954   22.1614 C   0  0  0  0  0  0
  -19.1503  -28.8839   23.2909 C   0  0  0  0  0  0
  -18.9453  -30.1460   23.8895 C   0  0  0  0  0  0
  -17.6464  -30.6609   24.0580 C   0  0  0  0  0  0
  -25.9088  -34.9466   23.5126 C   0  0  0  0  0  0
  -16.5342  -29.9141   23.6332 C   0  0  0  0  0  0
  -16.7239  -28.6550   23.0345 C   0  0  0  0  0  0
  -26.4499  -31.6559   25.0715 C   0  0  0  0  0  0
  -25.3781  -31.3609   26.1463 C   0  0  0  0  0  0
  -27.0306  -30.3018   24.6058 C   0  0  0  0  0  0
  -27.6088  -32.4228   25.7512 C   0  0  0  0  0  0
  -27.5579  -37.1772   24.8505 C   0  0  0  0  0  0
  -21.4117  -29.2995   22.3747 N   0  0  0  0  0  0
  -26.4307  -37.3791   23.9435 N   0  0  0  0  0  0
  -24.6629  -31.0854   22.0965 N   0  0  0  0  0  0
  -23.4166  -28.8173   23.3023 O   0  0  0  0  0  0
  -28.4706  -26.7992   20.0946 O   0  0  0  0  0  0
  -26.5622  -34.8928   22.4668 O   0  0  0  0  0  0
  -23.5319  -32.1398   23.7535 O   0  0  0  0  0  0
  -30.3551  -18.7805   22.6159 C   0  0  0  0  0  0
  -29.9595  -18.8911   20.2265 C   0  0  0  0  0  0
  -29.8311  -20.0814   22.7618 C   0  0  0  0  0  0
  -29.4581  -20.2037   20.3721 C   0  0  0  0  0  0
  -30.4165  -18.1624   21.3494 C   0  0  0  0  0  0
  -29.3796  -20.8229   21.6444 C   0  0  0  0  0  0
  -27.8668  -22.2685   22.8739 C   0  0  0  0  0  0
  -29.6876  -15.4497   22.6520 C   0  0  0  0  0  0
  -31.1228  -16.8134   21.1668 C   0  0  0  0  0  0
  -28.6103  -24.5288   21.0262 C   0  0  0  0  0  0
  -28.8306  -23.0368   20.6670 C   0  0  0  0  0  0
  -28.5950  -25.4140   19.7657 C   0  0  0  0  0  0
  -28.8804  -22.1354   21.8249 N   0  0  0  0  0  0
  -30.3634  -15.5365   21.3509 N   0  0  0  0  0  0
  -31.4424  -12.3557   19.1590 H   0  0  0  0  0  0
  -30.2572  -11.3061   19.8494 H   0  0  0  0  0  0
  -29.7605  -11.8459   17.4269 H   0  0  0  0  0  0
  -29.6513  -13.5433   17.8228 H   0  0  0  0  0  0
  -27.8399  -11.3109   18.8084 H   0  0  0  0  0  0
  -27.3697  -12.6390   17.7778 H   0  0  0  0  0  0
  -27.6930  -14.2565   19.5726 H   0  0  0  0  0  0
  -28.6581  -11.9598   21.3338 H   0  0  0  0  0  0
  -28.3640  -13.5543   21.8690 H   0  0  0  0  0  0
  -25.2735   -9.5730   22.4723 H   0  0  0  0  0  0
  -23.9989   -7.4674   22.7481 H   0  0  0  0  0  0
  -21.0814   -8.8765   19.8956 H   0  0  0  0  0  0
  -22.3637  -10.9672   19.6147 H   0  0  0  0  0  0
  -21.2030   -7.6150   23.9720 H   0  0  0  0  0  0
  -21.1500   -6.0519   25.9072 H   0  0  0  0  0  0
  -22.0579   -2.7617   23.2825 H   0  0  0  0  0  0
  -22.4045  -11.9916   22.4769 H   0  0  0  0  0  0
  -21.1107  -13.1343   22.2595 H   0  0  0  0  0  0
  -24.6580  -15.8404   20.5457 H   0  0  0  0  0  0
  -26.2936  -15.6425   20.1644 H   0  0  0  0  0  0
  -26.7126  -32.5500   23.1163 H   0  0  0  0  0  0
  -25.0205  -33.9799   25.0558 H   0  0  0  0  0  0
  -22.6835  -31.3017   21.4047 H   0  0  0  0  0  0
  -23.3809  -35.9486   23.3377 H   0  0  0  0  0  0
  -24.3574  -36.8749   22.2045 H   0  0  0  0  0  0
  -23.7186  -37.6419   23.6595 H   0  0  0  0  0  0
  -26.0608  -31.6109   20.5985 H   0  0  0  0  0  0
  -26.8091  -30.8833   21.9857 H   0  0  0  0  0  0
  -28.1011  -29.1419   21.1325 H   0  0  0  0  0  0
  -26.0271  -25.9608   19.0518 H   0  0  0  0  0  0
  -23.9777  -27.2737   19.0767 H   0  0  0  0  0  0
  -23.7156  -30.5876   19.3975 H   0  0  0  0  0  0
  -22.7354  -29.2365   19.8651 H   0  0  0  0  0  0
  -25.1324  -36.1941   25.0833 H   0  0  0  0  0  0
  -20.9929  -28.3199   24.1469 H   0  0  0  0  0  0
  -20.5683  -26.2223   23.3574 H   0  0  0  0  0  0
  -21.6618  -26.7467   22.1208 H   0  0  0  0  0  0
  -19.6907  -25.6327   21.1213 H   0  0  0  0  0  0
  -19.6721  -27.3236   20.6760 H   0  0  0  0  0  0
  -17.4182  -26.6664   21.4016 H   0  0  0  0  0  0
  -18.0325  -26.0094   22.9013 H   0  0  0  0  0  0
  -19.7923  -30.7272   24.2255 H   0  0  0  0  0  0
  -17.5030  -31.6302   24.5183 H   0  0  0  0  0  0
  -15.5356  -30.3077   23.7672 H   0  0  0  0  0  0
  -15.8599  -28.0912   22.7064 H   0  0  0  0  0  0
  -24.5991  -30.6939   25.7787 H   0  0  0  0  0  0
  -24.8931  -32.2713   26.4962 H   0  0  0  0  0  0
  -25.8175  -30.8730   27.0170 H   0  0  0  0  0  0
  -26.2792  -29.6810   24.1166 H   0  0  0  0  0  0
  -27.4159  -29.7247   25.4476 H   0  0  0  0  0  0
  -27.8631  -30.4378   23.9156 H   0  0  0  0  0  0
  -27.2763  -33.3526   26.2145 H   0  0  0  0  0  0
  -28.3935  -32.6789   25.0379 H   0  0  0  0  0  0
  -28.0734  -31.8285   26.5410 H   0  0  0  0  0  0
  -28.2662  -38.0017   24.7568 H   0  0  0  0  0  0
  -28.1012  -36.2560   24.6325 H   0  0  0  0  0  0
  -27.2279  -37.1422   25.8907 H   0  0  0  0  0  0
  -20.9265  -29.8620   21.6898 H   0  0  0  0  0  0
  -26.0186  -38.2857   24.1474 H   0  0  0  0  0  0
  -30.7436  -18.2769   23.4888 H   0  0  0  0  0  0
  -30.0321  -18.4728   19.2321 H   0  0  0  0  0  0
  -29.8052  -20.5196   23.7487 H   0  0  0  0  0  0
  -29.1396  -20.7236   19.4822 H   0  0  0  0  0  0
  -27.4389  -21.3103   23.1725 H   0  0  0  0  0  0
  -27.0316  -22.8851   22.5437 H   0  0  0  0  0  0
  -28.2963  -22.7425   23.7559 H   0  0  0  0  0  0
  -29.8628  -14.4913   23.1442 H   0  0  0  0  0  0
  -28.6157  -15.6159   22.5369 H   0  0  0  0  0  0
  -30.0415  -16.1980   23.3540 H   0  0  0  0  0  0
  -31.9780  -16.7963   21.8453 H   0  0  0  0  0  0
  -31.5529  -16.8680   20.1636 H   0  0  0  0  0  0
  -29.4025  -24.8670   21.6973 H   0  0  0  0  0  0
  -27.6734  -24.6751   21.5629 H   0  0  0  0  0  0
  -29.7715  -22.9527   20.1178 H   0  0  0  0  0  0
  -28.0473  -22.7043   19.9844 H   0  0  0  0  0  0
  -27.8687  -25.0565   19.0387 H   0  0  0  0  0  0
  -29.5583  -25.3080   19.2670 H   0  0  0  0  0  0
  1 25  1  0  0  0
  1 30  2  0  0  0
  1 84  1  0  0  0
  2  3  1  0  0  0
  2 25  1  0  0  0
  2 85  1  0  0  0
  2 86  1  0  0  0
  3  4  1  0  0  0
  3 87  1  0  0  0
  3 88  1  0  0  0
  4  5  1  0  0  0
  4 89  1  0  0  0
  4 90  1  0  0  0
  5  6  1  0  0  0
  5 26  1  0  0  0
  5 91  1  0  0  0
  6 25  1  0  0  0
  6 92  1  0  0  0
  6 93  1  0  0  0
  7  8  2  0  0  0
  7 26  1  0  0  0
  7 29  1  0  0  0
  8  9  1  0  0  0
  8 22  1  0  0  0
  9 10  1  0  0  0
  9 27  2  0  0  0
 10 11  2  0  0  0
 10 15  1  0  0  0
 11 12  1  0  0  0
 11 94  1  0  0  0
 12 13  2  0  0  0
 12 95  1  0  0  0
 13 14  1  0  0  0
 13 31  1  0  0  0
 14 15  2  0  0  0
 14 96  1  0  0  0
 15 97  1  0  0  0
 16 17  2  0  0  0
 16 21  1  0  0  0
 16 31  1  0  0  0
 17 18  1  0  0  0
 17 98  1  0  0  0
 18 19  2  0  0  0
 18 99  1  0  0  0
 19 20  1  0  0  0
 19 24  1  0  0  0
 20 21  2  0  0  0
 20100  1  0  0  0
 21 23  1  0  0  0
 22 28  1  0  0  0
 22 32  2  0  0  0
 26 27  1  0  0  0
 28101  1  0  0  0
 28102  1  0  0  0
 29103  1  0  0  0
 29104  1  0  0  0
 33 34  1  0  0  0
 33 66  1  0  0  0
 33 70  2  0  0  0
 34 36  1  0  0  0
 34 59  1  0  0  0
 34105  1  0  0  0
 35 44  2  0  0  0
 35 45  1  0  0  0
 35 68  1  0  0  0
 36 56  1  0  0  0
 36106  1  0  0  0
 37 39  1  0  0  0
 37 47  1  0  0  0
 37 66  1  0  0  0
 37107  1  0  0  0
 38 43  2  0  0  0
 38 46  1  0  0  0
 38 47  1  0  0  0
 39 64  1  0  0  0
 39 67  2  0  0  0
 40 52  1  0  0  0
 40 53  2  0  0  0
 40 58  1  0  0  0
 41108  1  0  0  0
 41109  1  0  0  0
 41110  1  0  0  0
 41 48  1  0  0  0
 42 43  1  0  0  0
 42 66  1  0  0  0
 42111  1  0  0  0
 42112  1  0  0  0
 43 44  1  0  0  0
 44113  1  0  0  0
 45 46  2  0  0  0
 45114  1  0  0  0
 46115  1  0  0  0
 47116  1  0  0  0
 47117  1  0  0  0
 48 56  1  0  0  0
 48 65  1  0  0  0
 48118  1  0  0  0
 49 50  1  0  0  0
 49 53  1  0  0  0
 49 64  1  0  0  0
 49119  1  0  0  0
 50 51  1  0  0  0
 50120  1  0  0  0
 50121  1  0  0  0
 51 52  1  0  0  0
 51122  1  0  0  0
 51123  1  0  0  0
 52124  1  0  0  0
 52125  1  0  0  0
 53 54  1  0  0  0
 54 55  2  0  0  0
 54126  1  0  0  0
 55 57  1  0  0  0
 55127  1  0  0  0
 56 69  2  0  0  0
 57 58  2  0  0  0
 57128  1  0  0  0
 58129  1  0  0  0
 59 60  1  0  0  0
 59 61  1  0  0  0
 59 62  1  0  0  0
 60130  1  0  0  0
 60131  1  0  0  0
 60132  1  0  0  0
 61133  1  0  0  0
 61134  1  0  0  0
 61135  1  0  0  0
 62136  1  0  0  0
 62137  1  0  0  0
 62138  1  0  0  0
 63 65  1  0  0  0
 63139  1  0  0  0
 63140  1  0  0  0
 63141  1  0  0  0
 64142  1  0  0  0
 65143  1  0  0  0
 68 82  1  0  0  0
 71 73  2  0  0  0
 71 75  1  0  0  0
 71144  1  0  0  0
 72 74  1  0  0  0
 72 75  2  0  0  0
 72145  1  0  0  0
 73 76  1  0  0  0
 73146  1  0  0  0
 74 76  2  0  0  0
 74147  1  0  0  0
 75 79  1  0  0  0
 76 83  1  0  0  0
 77 83  1  0  0  0
 77148  1  0  0  0
 77149  1  0  0  0
 77150  1  0  0  0
 78 84  1  0  0  0
 78151  1  0  0  0
 78152  1  0  0  0
 78153  1  0  0  0
 79 84  1  0  0  0
 79154  1  0  0  0
 79155  1  0  0  0
 80 81  1  0  0  0
 80 82  1  0  0  0
 80156  1  0  0  0
 80157  1  0  0  0
 81 83  1  0  0  0
 81158  1  0  0  0
 81159  1  0  0  0
 82160  1  0  0  0
 82161  1  0  0  0
M  ISO  4   1 100  68 101  82 101  84 100
M  END
> <chiral flag>
0

> <version>
0

> <s_m_source_file>
/data/baiqing/PycharmProjects/Reinvent-master-3.2/result/LINK_invent/BTK/process_docking_weight1_custom_product_contain_oxygen_bond_distance_aromatic_linkinvent_7_9_3/rearranged_h_0016.sdf

> <i_m_source_file_index>
72

> <r_mmod_Potential_Energy-OPLS-2005>
100.385414123535

> <r_mmod_Stretch_Energy-OPLS-2005>
46.212100982666

> <r_mmod_Bend_Energy-OPLS-2005>
142.126251220703

> <r_mmod_Torsional_Energy-OPLS-2005>
238.704498291016

> <r_mmod_Improper_Torsional_Energy-OPLS-2005>
7.92415904998779

> <r_mmod_Van_der_Waal_Energy-OPLS-2005>
180.791030883789

> <r_mmod_Electrostatic_Energy-OPLS-2005>
-317.921661376953

> <r_mmod_Solvation_Energy-OPLS-2005>
-212.284820556641

> <b_mmod_Minimization_Converged-OPLS-2005>
0

> <r_mmod_RMS_Derivative-OPLS-2005>
4.60344171524048

$$$$
72
                    3D
 Structure written by MMmdl.
161170  0  0  1  0            999 V2000
  -30.6657  -14.6332   20.6122 C   0  0  0  0  0  0
  -30.4330  -12.4229   19.4525 C   0  0  0  0  0  0
  -29.5046  -12.5322   18.2244 C   0  0  0  0  0  0
  -28.0303  -12.3546   18.6340 C   0  0  0  0  0  0
  -27.6511  -13.2224   19.8613 C   0  0  2  0  0  0
  -28.6869  -13.0735   20.9927 C   0  0  0  0  0  0
  -25.2546  -13.8196   20.5683 C   0  0  0  0  0  0
  -24.1813  -13.0449   20.9178 C   0  0  0  0  0  0
  -24.6386  -11.6920   20.8723 C   0  0  0  0  0  0
  -23.9067  -10.4295   21.0401 C   0  0  0  0  0  0
  -24.3622   -9.4208   21.9178 C   0  0  0  0  0  0
  -23.6292   -8.2247   22.0754 C   0  0  0  0  0  0
  -22.4277   -8.0280   21.3542 C   0  0  0  0  0  0
  -21.9907   -9.0258   20.4650 C   0  0  0  0  0  0
  -22.7243  -10.2134   20.3053 C   0  0  0  0  0  0
  -21.6852   -6.0734   22.5280 C   0  0  0  0  0  0
  -21.4016   -6.5644   23.8211 C   0  0  0  0  0  0
  -21.3655   -5.6794   24.9174 C   0  0  0  0  0  0
  -21.6037   -4.3056   24.7227 C   0  0  0  0  0  0
  -21.8818   -3.8148   23.4349 C   0  0  0  0  0  0
  -21.9191   -4.6961   22.3402 C   0  0  0  0  0  0
  -22.7835  -13.5227   21.1864 C   0  0  0  0  0  0
  -22.1661   -4.2141   21.0981 F   0  0  0  0  0  0
  -21.5618   -3.4543   25.7743 F   0  0  0  0  0  0
  -30.0104  -13.4309   20.4525 N   0  0  0  0  0  0
  -26.2967  -12.9379   20.3289 N   0  0  0  0  0  0
  -25.9314  -11.6526   20.5728 N   0  0  0  0  0  0
  -22.0489  -12.8201   22.0422 N   0  0  0  0  0  0
  -25.4272  -15.1925   20.4149 N   0  0  0  0  0  0
  -31.7308  -14.8491   20.0237 O   0  0  0  0  0  0
  -21.6639   -6.8879   21.4243 O   0  0  0  0  0  0
  -22.3504  -14.5539   20.6729 O   0  0  0  0  0  0
  -24.6278  -31.8575   23.1996 C   0  0  0  0  0  0
  -25.9115  -32.4763   23.8334 C   0  0  1  0  0  0
  -27.2289  -27.2982   20.1156 C   0  0  0  0  0  0
  -25.5920  -33.8567   24.2263 N   0  0  0  0  0  0
  -23.4218  -30.4793   21.5435 C   0  0  2  0  0  0
  -24.8670  -28.9286   20.1117 C   0  0  0  0  0  0
  -22.7476  -29.4613   22.4938 C   0  0  0  0  0  0
  -18.0284  -28.1374   22.8478 C   0  0  0  0  0  0
  -24.1494  -36.7292   23.2639 C   0  0  0  0  0  0
  -25.9638  -30.7811   21.3719 C   0  0  0  0  0  0
  -26.0361  -29.4070   20.7142 C   0  0  0  0  0  0
  -27.2160  -28.6041   20.7040 C   0  0  0  0  0  0
  -26.0277  -26.8690   19.5047 C   0  0  0  0  0  0
  -24.8665  -27.6663   19.4995 C   0  0  0  0  0  0
  -23.6354  -29.8103   20.1599 C   0  0  0  0  0  0
  -25.4117  -36.3081   24.0330 C   0  0  1  0  0  0
  -20.5884  -28.3692   23.1278 C   0  0  2  0  0  0
  -20.6785  -26.9411   22.5413 C   0  0  0  0  0  0
  -19.5763  -26.6373   21.5216 C   0  0  0  0  0  0
  -18.1938  -26.7914   22.1622 C   0  0  0  0  0  0
  -19.1533  -28.8847   23.2875 C   0  0  0  0  0  0
  -18.9457  -30.1444   23.8897 C   0  0  0  0  0  0
  -17.6459  -30.6580   24.0558 C   0  0  0  0  0  0
  -25.9057  -34.9446   23.5102 C   0  0  0  0  0  0
  -16.5349  -29.9077   23.6324 C   0  0  0  0  0  0
  -16.7270  -28.6490   23.0349 C   0  0  0  0  0  0
  -26.4487  -31.6574   25.0712 C   0  0  0  0  0  0
  -25.3709  -31.3715   26.1429 C   0  0  0  0  0  0
  -27.0329  -30.2995   24.6174 C   0  0  0  0  0  0
  -27.6043  -32.4313   25.7486 C   0  0  0  0  0  0
  -27.5582  -37.1803   24.8463 C   0  0  0  0  0  0
  -21.4186  -29.3051   22.3678 N   0  0  0  0  0  0
  -26.4295  -37.3774   23.9403 N   0  0  0  0  0  0
  -24.6902  -31.0568   22.0953 N   0  0  0  0  0  0
  -23.4188  -28.8156   23.3031 O   0  0  0  0  0  0
  -28.3776  -26.4854   20.1733 O   0  0  0  0  0  0
  -26.5634  -34.8920   22.4677 O   0  0  0  0  0  0
  -23.5437  -32.1382   23.7319 O   0  0  0  0  0  0
  -29.4830  -19.1299   20.0313 C   0  0  0  0  0  0
  -29.8979  -17.7475   20.1184 C   0  0  0  0  0  0
  -29.2282  -17.7034   22.4097 C   0  0  0  0  0  0
  -28.8045  -19.0554   22.3206 C   0  0  0  0  0  0
  -28.8932  -19.8268   21.1308 C   0  0  0  0  0  0
  -29.7789  -16.9748   21.3181 C   0  0  0  0  0  0
  -27.1303  -21.3391   21.8502 C   0  0  0  0  0  0
  -28.1536  -19.7082   23.5155 C   0  0  0  0  0  0
  -26.8823  -20.4211   23.0550 C   0  0  0  0  0  0
  -30.3361  -15.1049   22.9165 C   0  0  0  0  0  0
  -28.5298  -23.8656   20.7065 C   0  0  0  0  0  0
  -28.6094  -22.3314   20.1621 C   0  0  0  0  0  0
  -28.4468  -25.0827   19.6732 C   0  0  0  0  0  0
  -28.2721  -21.1879   21.1132 N   0  0  0  0  0  0
  -30.1590  -15.5456   21.5178 N   0  0  0  0  0  0
  -26.2265  -22.1294   21.5580 O   0  0  0  0  0  0
  -31.4732  -12.5529   19.1479 H   0  0  0  0  0  0
  -30.3783  -11.4232   19.8852 H   0  0  0  0  0  0
  -29.7765  -11.7870   17.4760 H   0  0  0  0  0  0
  -29.6382  -13.5054   17.7486 H   0  0  0  0  0  0
  -27.8749  -11.3001   18.8645 H   0  0  0  0  0  0
  -27.3736  -12.5821   17.7935 H   0  0  0  0  0  0
  -27.6733  -14.2613   19.5302 H   0  0  0  0  0  0
  -28.7017  -12.0507   21.3723 H   0  0  0  0  0  0
  -28.3874  -13.6969   21.8324 H   0  0  0  0  0  0
  -25.2771   -9.5673   22.4748 H   0  0  0  0  0  0
  -23.9994   -7.4635   22.7470 H   0  0  0  0  0  0
  -21.0837   -8.8786   19.8955 H   0  0  0  0  0  0
  -22.3711  -10.9673   19.6156 H   0  0  0  0  0  0
  -21.2019   -7.6154   23.9715 H   0  0  0  0  0  0
  -21.1477   -6.0525   25.9072 H   0  0  0  0  0  0
  -22.0604   -2.7611   23.2856 H   0  0  0  0  0  0
  -22.4121  -11.9848   22.4772 H   0  0  0  0  0  0
  -21.1113  -13.1216   22.2676 H   0  0  0  0  0  0
  -24.6687  -15.8537   20.5443 H   0  0  0  0  0  0
  -26.2941  -15.6341   20.1345 H   0  0  0  0  0  0
  -26.7180  -32.5420   23.1076 H   0  0  0  0  0  0
  -25.0042  -33.9698   25.0391 H   0  0  0  0  0  0
  -22.7171  -31.3010   21.3992 H   0  0  0  0  0  0
  -23.3756  -35.9627   23.3306 H   0  0  0  0  0  0
  -24.3584  -36.8907   22.2053 H   0  0  0  0  0  0
  -23.7252  -37.6497   23.6658 H   0  0  0  0  0  0
  -26.0988  -31.5434   20.6035 H   0  0  0  0  0  0
  -26.8436  -30.8284   22.0022 H   0  0  0  0  0  0
  -28.1156  -28.9714   21.1774 H   0  0  0  0  0  0
  -25.9376  -25.9025   19.0382 H   0  0  0  0  0  0
  -23.9682  -27.2885   19.0307 H   0  0  0  0  0  0
  -23.7534  -30.5850   19.4017 H   0  0  0  0  0  0
  -22.7548  -29.2386   19.8608 H   0  0  0  0  0  0
  -25.1303  -36.1935   25.0824 H   0  0  0  0  0  0
  -20.9970  -28.3272   24.1403 H   0  0  0  0  0  0
  -20.5694  -26.2300   23.3613 H   0  0  0  0  0  0
  -21.6655  -26.7451   22.1205 H   0  0  0  0  0  0
  -19.6936  -25.6285   21.1250 H   0  0  0  0  0  0
  -19.6701  -27.3184   20.6745 H   0  0  0  0  0  0
  -17.4213  -26.6650   21.4023 H   0  0  0  0  0  0
  -18.0341  -26.0056   22.9019 H   0  0  0  0  0  0
  -19.7934  -30.7256   24.2276 H   0  0  0  0  0  0
  -17.5012  -31.6261   24.5162 H   0  0  0  0  0  0
  -15.5351  -30.2978   23.7647 H   0  0  0  0  0  0
  -15.8670  -28.0809   22.7068 H   0  0  0  0  0  0
  -24.5894  -30.7053   25.7752 H   0  0  0  0  0  0
  -24.8887  -32.2880   26.4836 H   0  0  0  0  0  0
  -25.8024  -30.8903   27.0213 H   0  0  0  0  0  0
  -26.2906  -29.6749   24.1186 H   0  0  0  0  0  0
  -27.4005  -29.7246   25.4683 H   0  0  0  0  0  0
  -27.8788  -30.4275   23.9416 H   0  0  0  0  0  0
  -27.2643  -33.3607   26.2066 H   0  0  0  0  0  0
  -28.3848  -32.6878   25.0312 H   0  0  0  0  0  0
  -28.0712  -31.8434   26.5393 H   0  0  0  0  0  0
  -28.2604  -38.0095   24.7505 H   0  0  0  0  0  0
  -28.1072  -36.2626   24.6301 H   0  0  0  0  0  0
  -27.2294  -37.1473   25.8863 H   0  0  0  0  0  0
  -20.9370  -29.8757   21.6871 H   0  0  0  0  0  0
  -26.0179  -38.2854   24.1386 H   0  0  0  0  0  0
  -29.5781  -19.6389   19.0828 H   0  0  0  0  0  0
  -30.3145  -17.2843   19.2350 H   0  0  0  0  0  0
  -29.0812  -17.2227   23.3644 H   0  0  0  0  0  0
  -28.8541  -20.4154   23.9620 H   0  0  0  0  0  0
  -27.9090  -18.9731   24.2834 H   0  0  0  0  0  0
  -26.1291  -19.6869   22.7690 H   0  0  0  0  0  0
  -26.4629  -20.9996   23.8787 H   0  0  0  0  0  0
  -30.9633  -15.8082   23.4650 H   0  0  0  0  0  0
  -30.8173  -14.1282   23.0179 H   0  0  0  0  0  0
  -29.3759  -15.0338   23.4280 H   0  0  0  0  0  0
  -29.3941  -24.0295   21.3512 H   0  0  0  0  0  0
  -27.6776  -24.0069   21.3645 H   0  0  0  0  0  0
  -29.6075  -22.1567   19.7602 H   0  0  0  0  0  0
  -27.9347  -22.2340   19.3107 H   0  0  0  0  0  0
  -29.3649  -25.0439   19.0865 H   0  0  0  0  0  0
  -27.6785  -24.8665   18.9369 H   0  0  0  0  0  0
  1 25  1  0  0  0
  1 30  2  0  0  0
  1 85  1  0  0  0
  2  3  1  0  0  0
  2 25  1  0  0  0
  2 87  1  0  0  0
  2 88  1  0  0  0
  3  4  1  0  0  0
  3 89  1  0  0  0
  3 90  1  0  0  0
  4  5  1  0  0  0
  4 91  1  0  0  0
  4 92  1  0  0  0
  5  6  1  0  0  0
  5 26  1  0  0  0
  5 93  1  0  0  0
  6 25  1  0  0  0
  6 94  1  0  0  0
  6 95  1  0  0  0
  7  8  2  0  0  0
  7 26  1  0  0  0
  7 29  1  0  0  0
  8  9  1  0  0  0
  8 22  1  0  0  0
  9 10  1  0  0  0
  9 27  2  0  0  0
 10 11  2  0  0  0
 10 15  1  0  0  0
 11 12  1  0  0  0
 11 96  1  0  0  0
 12 13  2  0  0  0
 12 97  1  0  0  0
 13 14  1  0  0  0
 13 31  1  0  0  0
 14 15  2  0  0  0
 14 98  1  0  0  0
 15 99  1  0  0  0
 16 17  2  0  0  0
 16 21  1  0  0  0
 16 31  1  0  0  0
 17 18  1  0  0  0
 17100  1  0  0  0
 18 19  2  0  0  0
 18101  1  0  0  0
 19 20  1  0  0  0
 19 24  1  0  0  0
 20 21  2  0  0  0
 20102  1  0  0  0
 21 23  1  0  0  0
 22 28  1  0  0  0
 22 32  2  0  0  0
 26 27  1  0  0  0
 28103  1  0  0  0
 28104  1  0  0  0
 29105  1  0  0  0
 29106  1  0  0  0
 33 34  1  0  0  0
 33 66  1  0  0  0
 33 70  2  0  0  0
 34 36  1  0  0  0
 34 59  1  0  0  0
 34107  1  0  0  0
 35 44  2  0  0  0
 35 45  1  0  0  0
 35 68  1  0  0  0
 36 56  1  0  0  0
 36108  1  0  0  0
 37 39  1  0  0  0
 37 47  1  0  0  0
 37 66  1  0  0  0
 37109  1  0  0  0
 38 43  2  0  0  0
 38 46  1  0  0  0
 38 47  1  0  0  0
 39 64  1  0  0  0
 39 67  2  0  0  0
 40 52  1  0  0  0
 40 53  2  0  0  0
 40 58  1  0  0  0
 41110  1  0  0  0
 41111  1  0  0  0
 41112  1  0  0  0
 41 48  1  0  0  0
 42 43  1  0  0  0
 42 66  1  0  0  0
 42113  1  0  0  0
 42114  1  0  0  0
 43 44  1  0  0  0
 44115  1  0  0  0
 45 46  2  0  0  0
 45116  1  0  0  0
 46117  1  0  0  0
 47118  1  0  0  0
 47119  1  0  0  0
 48 56  1  0  0  0
 48 65  1  0  0  0
 48120  1  0  0  0
 49 50  1  0  0  0
 49 53  1  0  0  0
 49 64  1  0  0  0
 49121  1  0  0  0
 50 51  1  0  0  0
 50122  1  0  0  0
 50123  1  0  0  0
 51 52  1  0  0  0
 51124  1  0  0  0
 51125  1  0  0  0
 52126  1  0  0  0
 52127  1  0  0  0
 53 54  1  0  0  0
 54 55  2  0  0  0
 54128  1  0  0  0
 55 57  1  0  0  0
 55129  1  0  0  0
 56 69  2  0  0  0
 57 58  2  0  0  0
 57130  1  0  0  0
 58131  1  0  0  0
 59 60  1  0  0  0
 59 61  1  0  0  0
 59 62  1  0  0  0
 60132  1  0  0  0
 60133  1  0  0  0
 60134  1  0  0  0
 61135  1  0  0  0
 61136  1  0  0  0
 61137  1  0  0  0
 62138  1  0  0  0
 62139  1  0  0  0
 62140  1  0  0  0
 63 65  1  0  0  0
 63141  1  0  0  0
 63142  1  0  0  0
 63143  1  0  0  0
 64144  1  0  0  0
 65145  1  0  0  0
 68 83  1  0  0  0
 71 72  2  0  0  0
 71 75  1  0  0  0
 71146  1  0  0  0
 72 76  1  0  0  0
 72147  1  0  0  0
 73 74  1  0  0  0
 73 76  2  0  0  0
 73148  1  0  0  0
 74 75  2  0  0  0
 74 78  1  0  0  0
 75 84  1  0  0  0
 76 85  1  0  0  0
 77 79  1  0  0  0
 77 84  1  0  0  0
 77 86  2  0  0  0
 78 79  1  0  0  0
 78149  1  0  0  0
 78150  1  0  0  0
 79151  1  0  0  0
 79152  1  0  0  0
 80 85  1  0  0  0
 80153  1  0  0  0
 80154  1  0  0  0
 80155  1  0  0  0
 81 82  1  0  0  0
 81 83  1  0  0  0
 81156  1  0  0  0
 81157  1  0  0  0
 82 84  1  0  0  0
 82158  1  0  0  0
 82159  1  0  0  0
 83160  1  0  0  0
 83161  1  0  0  0
M  ISO  4   1 100  68 101  83 101  85 100
M  END
> <chiral flag>
0

> <version>
0

> <s_m_source_file>
/data/baiqing/PycharmProjects/Reinvent-master-3.2/result/LINK_invent/BTK/process_docking_weight1_custom_product_contain_oxygen_bond_distance_aromatic_linkinvent_7_9_3/rearranged_h_0016.sdf

> <i_m_source_file_index>
73

> <r_mmod_Potential_Energy-OPLS-2005>
341.028045654297

> <r_mmod_Stretch_Energy-OPLS-2005>
117.470069885254

> <r_mmod_Bend_Energy-OPLS-2005>
177.723617553711

> <r_mmod_Torsional_Energy-OPLS-2005>
320.859344482422

> <r_mmod_Improper_Torsional_Energy-OPLS-2005>
4.22706699371338

> <r_mmod_Van_der_Waal_Energy-OPLS-2005>
173.949798583984

> <r_mmod_Electrostatic_Energy-OPLS-2005>
-300.14990234375

> <r_mmod_Solvation_Energy-OPLS-2005>
-202.37158203125

> <b_mmod_Minimization_Converged-OPLS-2005>
0

> <r_mmod_RMS_Derivative-OPLS-2005>
1.28549003601074

$$$$
73
                    3D
 Structure written by MMmdl.
163171  0  0  1  0            999 V2000
  -30.7572  -14.4542   20.6340 C   0  0  0  0  0  0
  -30.4157  -12.3236   19.4188 C   0  0  0  0  0  0
  -29.4856  -12.5100   18.2053 C   0  0  0  0  0  0
  -28.0127  -12.3482   18.6220 C   0  0  0  0  0  0
  -27.6557  -13.1974   19.8673 C   0  0  2  0  0  0
  -28.7000  -13.0075   20.9932 C   0  0  0  0  0  0
  -25.2576  -13.8133   20.5671 C   0  0  0  0  0  0
  -24.1830  -13.0419   20.9192 C   0  0  0  0  0  0
  -24.6379  -11.6885   20.8755 C   0  0  0  0  0  0
  -23.9045  -10.4277   21.0419 C   0  0  0  0  0  0
  -24.3603   -9.4192   21.9192 C   0  0  0  0  0  0
  -23.6281   -8.2227   22.0753 C   0  0  0  0  0  0
  -22.4263   -8.0274   21.3541 C   0  0  0  0  0  0
  -21.9901   -9.0247   20.4643 C   0  0  0  0  0  0
  -22.7224  -10.2125   20.3059 C   0  0  0  0  0  0
  -21.6844   -6.0736   22.5279 C   0  0  0  0  0  0
  -21.4012   -6.5642   23.8213 C   0  0  0  0  0  0
  -21.3660   -5.6796   24.9178 C   0  0  0  0  0  0
  -21.6044   -4.3056   24.7230 C   0  0  0  0  0  0
  -21.8819   -3.8149   23.4350 C   0  0  0  0  0  0
  -21.9188   -4.6964   22.3405 C   0  0  0  0  0  0
  -22.7855  -13.5223   21.1861 C   0  0  0  0  0  0
  -22.1657   -4.2151   21.0980 F   0  0  0  0  0  0
  -21.5628   -3.4539   25.7745 F   0  0  0  0  0  0
  -30.0348  -13.3099   20.4471 N   0  0  0  0  0  0
  -26.2993  -12.9280   20.3341 N   0  0  0  0  0  0
  -25.9300  -11.6452   20.5777 N   0  0  0  0  0  0
  -22.0502  -12.8212   22.0417 N   0  0  0  0  0  0
  -25.4285  -15.1855   20.4039 N   0  0  0  0  0  0
  -31.8393  -14.6420   20.0676 O   0  0  0  0  0  0
  -21.6624   -6.8877   21.4238 O   0  0  0  0  0  0
  -22.3541  -14.5534   20.6716 O   0  0  0  0  0  0
  -24.6159  -31.8684   23.2101 C   0  0  0  0  0  0
  -25.9051  -32.4819   23.8395 C   0  0  1  0  0  0
  -27.2302  -27.4233   20.0915 C   0  0  0  0  0  0
  -25.5916  -33.8620   24.2328 N   0  0  0  0  0  0
  -23.4030  -30.4930   21.5527 C   0  0  2  0  0  0
  -24.8475  -28.9628   20.1127 C   0  0  0  0  0  0
  -22.7414  -29.4658   22.4999 C   0  0  0  0  0  0
  -18.0273  -28.1368   22.8489 C   0  0  0  0  0  0
  -24.1488  -36.7319   23.2643 C   0  0  0  0  0  0
  -25.9348  -30.8292   21.3657 C   0  0  0  0  0  0
  -26.0109  -29.4655   20.7083 C   0  0  0  0  0  0
  -27.2054  -28.7052   20.6914 C   0  0  0  0  0  0
  -26.0453  -26.9460   19.4806 C   0  0  0  0  0  0
  -24.8608  -27.7028   19.4956 C   0  0  0  0  0  0
  -23.6092  -29.8291   20.1659 C   0  0  0  0  0  0
  -25.4109  -36.3111   24.0343 C   0  0  1  0  0  0
  -20.5862  -28.3661   23.1317 C   0  0  2  0  0  0
  -20.6763  -26.9391   22.5428 C   0  0  0  0  0  0
  -19.5748  -26.6376   21.5216 C   0  0  0  0  0  0
  -18.1913  -26.7927   22.1602 C   0  0  0  0  0  0
  -19.1521  -28.8832   23.2899 C   0  0  0  0  0  0
  -18.9458  -30.1439   23.8906 C   0  0  0  0  0  0
  -17.6458  -30.6578   24.0564 C   0  0  0  0  0  0
  -25.9035  -34.9476   23.5126 C   0  0  0  0  0  0
  -16.5352  -29.9083   23.6328 C   0  0  0  0  0  0
  -16.7265  -28.6498   23.0349 C   0  0  0  0  0  0
  -26.4470  -31.6607   25.0730 C   0  0  0  0  0  0
  -25.3739  -31.3739   26.1490 C   0  0  0  0  0  0
  -27.0297  -30.3045   24.6117 C   0  0  0  0  0  0
  -27.6037  -32.4350   25.7486 C   0  0  0  0  0  0
  -27.5585  -37.1809   24.8464 C   0  0  0  0  0  0
  -21.4143  -29.3037   22.3737 N   0  0  0  0  0  0
  -26.4292  -37.3796   23.9413 N   0  0  0  0  0  0
  -24.6698  -31.0775   22.1009 N   0  0  0  0  0  0
  -23.4183  -28.8199   23.3038 O   0  0  0  0  0  0
  -28.3892  -26.6631   20.1258 O   0  0  0  0  0  0
  -26.5586  -34.8930   22.4680 O   0  0  0  0  0  0
  -23.5352  -32.1455   23.7489 O   0  0  0  0  0  0
  -30.0326  -18.1690   19.9114 C   0  0  0  0  0  0
  -30.2206  -19.5483   19.6689 C   0  0  0  0  0  0
  -29.3351  -20.0577   21.8659 C   0  0  0  0  0  0
  -29.4758  -17.7192   21.1269 C   0  0  0  0  0  0
  -29.8587  -20.5251   20.6319 C   0  0  0  0  0  0
  -29.1401  -18.6795   22.1086 C   0  0  0  0  0  0
  -29.1334  -22.8906   20.6935 C   0  0  0  0  0  0
  -31.1692  -22.6216   18.2040 C   0  0  0  0  0  0
  -31.2882  -15.8533   22.5482 C   0  0  0  0  0  0
  -29.1727  -16.2272   21.3402 C   0  0  0  0  0  0
  -29.4291  -24.4151   20.5572 C   0  0  0  0  0  0
  -31.3339  -22.3040   19.7060 C   0  0  0  0  0  0
  -28.2131  -25.2324   20.0524 C   0  0  0  0  0  0
  -30.0677  -21.9381   20.3705 N   0  0  0  0  0  0
  -30.3237  -15.3299   21.5760 N   0  0  0  0  0  0
  -28.0143  -22.5768   21.1154 O   0  0  0  0  0  0
  -28.6178  -18.2834   23.2943 F   0  0  0  0  0  0
  -31.4575  -12.4175   19.1084 H   0  0  0  0  0  0
  -30.3223  -11.3130   19.8202 H   0  0  0  0  0  0
  -29.7329  -11.7888   17.4252 H   0  0  0  0  0  0
  -29.6399  -13.4984   17.7697 H   0  0  0  0  0  0
  -27.8385  -11.2916   18.8313 H   0  0  0  0  0  0
  -27.3552  -12.6049   17.7909 H   0  0  0  0  0  0
  -27.6818  -14.2311   19.5330 H   0  0  0  0  0  0
  -28.6816  -11.9784   21.3548 H   0  0  0  0  0  0
  -28.4476  -13.6197   21.8585 H   0  0  0  0  0  0
  -25.2750   -9.5666   22.4760 H   0  0  0  0  0  0
  -23.9994   -7.4617   22.7467 H   0  0  0  0  0  0
  -21.0834   -8.8766   19.8946 H   0  0  0  0  0  0
  -22.3690  -10.9668   19.6167 H   0  0  0  0  0  0
  -21.2006   -7.6151   23.9721 H   0  0  0  0  0  0
  -21.1484   -6.0526   25.9082 H   0  0  0  0  0  0
  -22.0599   -2.7610   23.2852 H   0  0  0  0  0  0
  -22.4124  -11.9868   22.4794 H   0  0  0  0  0  0
  -21.1124  -13.1237   22.2641 H   0  0  0  0  0  0
  -24.6551  -15.8351   20.4992 H   0  0  0  0  0  0
  -26.2698  -15.6230   20.0517 H   0  0  0  0  0  0
  -26.7119  -32.5524   23.1153 H   0  0  0  0  0  0
  -25.0110  -33.9791   25.0500 H   0  0  0  0  0  0
  -22.6924  -31.3104   21.4154 H   0  0  0  0  0  0
  -23.3753  -35.9646   23.3298 H   0  0  0  0  0  0
  -24.3584  -36.8950   22.2060 H   0  0  0  0  0  0
  -23.7240  -37.6519   23.6668 H   0  0  0  0  0  0
  -26.0500  -31.5959   20.5980 H   0  0  0  0  0  0
  -26.8223  -30.8798   21.9845 H   0  0  0  0  0  0
  -28.1017  -29.0896   21.1580 H   0  0  0  0  0  0
  -26.0100  -25.9859   18.9877 H   0  0  0  0  0  0
  -23.9673  -27.3102   19.0299 H   0  0  0  0  0  0
  -23.7149  -30.6076   19.4097 H   0  0  0  0  0  0
  -22.7324  -29.2508   19.8692 H   0  0  0  0  0  0
  -25.1280  -36.1981   25.0834 H   0  0  0  0  0  0
  -20.9940  -28.3231   24.1443 H   0  0  0  0  0  0
  -20.5664  -26.2268   23.3618 H   0  0  0  0  0  0
  -21.6638  -26.7423   22.1229 H   0  0  0  0  0  0
  -19.6910  -25.6288   21.1252 H   0  0  0  0  0  0
  -19.6703  -27.3189   20.6750 H   0  0  0  0  0  0
  -17.4200  -26.6709   21.3975 H   0  0  0  0  0  0
  -18.0270  -26.0043   22.8959 H   0  0  0  0  0  0
  -19.7933  -30.7252   24.2270 H   0  0  0  0  0  0
  -17.5022  -31.6261   24.5160 H   0  0  0  0  0  0
  -15.5359  -30.2994   23.7649 H   0  0  0  0  0  0
  -15.8659  -28.0840   22.7043 H   0  0  0  0  0  0
  -24.5936  -30.7033   25.7884 H   0  0  0  0  0  0
  -24.8885  -32.2896   26.4877 H   0  0  0  0  0  0
  -25.8110  -30.9001   27.0286 H   0  0  0  0  0  0
  -26.2840  -29.6811   24.1175 H   0  0  0  0  0  0
  -27.4074  -29.7279   25.4572 H   0  0  0  0  0  0
  -27.8669  -30.4360   23.9258 H   0  0  0  0  0  0
  -27.2650  -33.3675   26.2013 H   0  0  0  0  0  0
  -28.3854  -32.6884   25.0314 H   0  0  0  0  0  0
  -28.0684  -31.8515   26.5441 H   0  0  0  0  0  0
  -28.2606  -38.0097   24.7495 H   0  0  0  0  0  0
  -28.1075  -36.2634   24.6299 H   0  0  0  0  0  0
  -27.2308  -37.1479   25.8867 H   0  0  0  0  0  0
  -20.9311  -29.8784   21.6979 H   0  0  0  0  0  0
  -26.0190  -38.2882   24.1400 H   0  0  0  0  0  0
  -30.2974  -17.4552   19.1431 H   0  0  0  0  0  0
  -30.6353  -19.8422   18.7165 H   0  0  0  0  0  0
  -29.0683  -20.7558   22.6463 H   0  0  0  0  0  0
  -32.1369  -22.8485   17.7548 H   0  0  0  0  0  0
  -30.5217  -23.4789   18.0228 H   0  0  0  0  0  0
  -30.7475  -21.7826   17.6530 H   0  0  0  0  0  0
  -30.7838  -16.3589   23.3720 H   0  0  0  0  0  0
  -31.9694  -16.5639   22.0775 H   0  0  0  0  0  0
  -31.8857  -15.0478   22.9783 H   0  0  0  0  0  0
  -28.6250  -15.9103   20.4561 H   0  0  0  0  0  0
  -28.4747  -16.1086   22.1694 H   0  0  0  0  0  0
  -30.2738  -24.6387   19.9133 H   0  0  0  0  0  0
  -29.7111  -24.7707   21.5476 H   0  0  0  0  0  0
  -31.8121  -23.1349   20.2253 H   0  0  0  0  0  0
  -32.0522  -21.4903   19.8133 H   0  0  0  0  0  0
  -27.3384  -24.9573   20.6449 H   0  0  0  0  0  0
  -28.0073  -24.9495   19.0183 H   0  0  0  0  0  0
  1 25  1  0  0  0
  1 30  2  0  0  0
  1 85  1  0  0  0
  2  3  1  0  0  0
  2 25  1  0  0  0
  2 88  1  0  0  0
  2 89  1  0  0  0
  3  4  1  0  0  0
  3 90  1  0  0  0
  3 91  1  0  0  0
  4  5  1  0  0  0
  4 92  1  0  0  0
  4 93  1  0  0  0
  5  6  1  0  0  0
  5 26  1  0  0  0
  5 94  1  0  0  0
  6 25  1  0  0  0
  6 95  1  0  0  0
  6 96  1  0  0  0
  7  8  2  0  0  0
  7 26  1  0  0  0
  7 29  1  0  0  0
  8  9  1  0  0  0
  8 22  1  0  0  0
  9 10  1  0  0  0
  9 27  2  0  0  0
 10 11  2  0  0  0
 10 15  1  0  0  0
 11 12  1  0  0  0
 11 97  1  0  0  0
 12 13  2  0  0  0
 12 98  1  0  0  0
 13 14  1  0  0  0
 13 31  1  0  0  0
 14 15  2  0  0  0
 14 99  1  0  0  0
 15100  1  0  0  0
 16 17  2  0  0  0
 16 21  1  0  0  0
 16 31  1  0  0  0
 17 18  1  0  0  0
 17101  1  0  0  0
 18 19  2  0  0  0
 18102  1  0  0  0
 19 20  1  0  0  0
 19 24  1  0  0  0
 20 21  2  0  0  0
 20103  1  0  0  0
 21 23  1  0  0  0
 22 28  1  0  0  0
 22 32  2  0  0  0
 26 27  1  0  0  0
 28104  1  0  0  0
 28105  1  0  0  0
 29106  1  0  0  0
 29107  1  0  0  0
 33 34  1  0  0  0
 33 66  1  0  0  0
 33 70  2  0  0  0
 34 36  1  0  0  0
 34 59  1  0  0  0
 34108  1  0  0  0
 35 44  2  0  0  0
 35 45  1  0  0  0
 35 68  1  0  0  0
 36 56  1  0  0  0
 36109  1  0  0  0
 37 39  1  0  0  0
 37 47  1  0  0  0
 37 66  1  0  0  0
 37110  1  0  0  0
 38 43  2  0  0  0
 38 46  1  0  0  0
 38 47  1  0  0  0
 39 64  1  0  0  0
 39 67  2  0  0  0
 40 52  1  0  0  0
 40 53  2  0  0  0
 40 58  1  0  0  0
 41111  1  0  0  0
 41112  1  0  0  0
 41113  1  0  0  0
 41 48  1  0  0  0
 42 43  1  0  0  0
 42 66  1  0  0  0
 42114  1  0  0  0
 42115  1  0  0  0
 43 44  1  0  0  0
 44116  1  0  0  0
 45 46  2  0  0  0
 45117  1  0  0  0
 46118  1  0  0  0
 47119  1  0  0  0
 47120  1  0  0  0
 48 56  1  0  0  0
 48 65  1  0  0  0
 48121  1  0  0  0
 49 50  1  0  0  0
 49 53  1  0  0  0
 49 64  1  0  0  0
 49122  1  0  0  0
 50 51  1  0  0  0
 50123  1  0  0  0
 50124  1  0  0  0
 51 52  1  0  0  0
 51125  1  0  0  0
 51126  1  0  0  0
 52127  1  0  0  0
 52128  1  0  0  0
 53 54  1  0  0  0
 54 55  2  0  0  0
 54129  1  0  0  0
 55 57  1  0  0  0
 55130  1  0  0  0
 56 69  2  0  0  0
 57 58  2  0  0  0
 57131  1  0  0  0
 58132  1  0  0  0
 59 60  1  0  0  0
 59 61  1  0  0  0
 59 62  1  0  0  0
 60133  1  0  0  0
 60134  1  0  0  0
 60135  1  0  0  0
 61136  1  0  0  0
 61137  1  0  0  0
 61138  1  0  0  0
 62139  1  0  0  0
 62140  1  0  0  0
 62141  1  0  0  0
 63 65  1  0  0  0
 63142  1  0  0  0
 63143  1  0  0  0
 63144  1  0  0  0
 64145  1  0  0  0
 65146  1  0  0  0
 68 83  1  0  0  0
 71 72  2  0  0  0
 71 74  1  0  0  0
 71147  1  0  0  0
 72 75  1  0  0  0
 72148  1  0  0  0
 73 75  2  0  0  0
 73 76  1  0  0  0
 73149  1  0  0  0
 74 76  2  0  0  0
 74 80  1  0  0  0
 75 84  1  0  0  0
 76 87  1  0  0  0
 77 81  1  0  0  0
 77 84  1  0  0  0
 77 86  2  0  0  0
 78 82  1  0  0  0
 78150  1  0  0  0
 78151  1  0  0  0
 78152  1  0  0  0
 79 85  1  0  0  0
 79153  1  0  0  0
 79154  1  0  0  0
 79155  1  0  0  0
 80 85  1  0  0  0
 80156  1  0  0  0
 80157  1  0  0  0
 81 83  1  0  0  0
 81158  1  0  0  0
 81159  1  0  0  0
 82 84  1  0  0  0
 82160  1  0  0  0
 82161  1  0  0  0
 83162  1  0  0  0
 83163  1  0  0  0
M  ISO  4   1 100  68 101  83 101  85 100
M  END
> <chiral flag>
0

> <version>
0

> <s_m_source_file>
/data/baiqing/PycharmProjects/Reinvent-master-3.2/result/LINK_invent/BTK/process_docking_weight1_custom_product_contain_oxygen_bond_distance_aromatic_linkinvent_7_9_3/rearranged_h_0016.sdf

> <i_m_source_file_index>
74

> <r_mmod_Potential_Energy-OPLS-2005>
169.220596313477

> <r_mmod_Stretch_Energy-OPLS-2005>
49.0256690979004

> <r_mmod_Bend_Energy-OPLS-2005>
104.042449951172

> <r_mmod_Torsional_Energy-OPLS-2005>
308.324432373047

> <r_mmod_Improper_Torsional_Energy-OPLS-2005>
5.01333236694336

> <r_mmod_Van_der_Waal_Energy-OPLS-2005>
173.076461791992

> <r_mmod_Electrostatic_Energy-OPLS-2005>
-281.477081298828

> <r_mmod_Solvation_Energy-OPLS-2005>
-202.275390625

> <b_mmod_Minimization_Converged-OPLS-2005>
0

> <r_mmod_RMS_Derivative-OPLS-2005>
1.22265362739563

$$$$
74
                    3D
 Structure written by MMmdl.
166174  0  0  1  0            999 V2000
  -30.7627  -14.4034   20.6367 C   0  0  0  0  0  0
  -30.4124  -12.2900   19.4150 C   0  0  0  0  0  0
  -29.4896  -12.5114   18.2016 C   0  0  0  0  0  0
  -28.0122  -12.3657   18.6153 C   0  0  0  0  0  0
  -27.6597  -13.2058   19.8703 C   0  0  2  0  0  0
  -28.6974  -12.9841   20.9929 C   0  0  0  0  0  0
  -25.2543  -13.8154   20.5619 C   0  0  0  0  0  0
  -24.1819  -13.0438   20.9174 C   0  0  0  0  0  0
  -24.6374  -11.6911   20.8734 C   0  0  0  0  0  0
  -23.9044  -10.4294   21.0409 C   0  0  0  0  0  0
  -24.3600   -9.4211   21.9183 C   0  0  0  0  0  0
  -23.6280   -8.2243   22.0757 C   0  0  0  0  0  0
  -22.4256   -8.0276   21.3553 C   0  0  0  0  0  0
  -21.9888   -9.0252   20.4656 C   0  0  0  0  0  0
  -22.7221  -10.2130   20.3059 C   0  0  0  0  0  0
  -21.6848   -6.0730   22.5283 C   0  0  0  0  0  0
  -21.4016   -6.5636   23.8222 C   0  0  0  0  0  0
  -21.3657   -5.6779   24.9187 C   0  0  0  0  0  0
  -21.6046   -4.3044   24.7229 C   0  0  0  0  0  0
  -21.8819   -3.8139   23.4352 C   0  0  0  0  0  0
  -21.9193   -4.6957   22.3408 C   0  0  0  0  0  0
  -22.7837  -13.5248   21.1833 C   0  0  0  0  0  0
  -22.1661   -4.2150   21.0985 F   0  0  0  0  0  0
  -21.5627   -3.4521   25.7743 F   0  0  0  0  0  0
  -30.0375  -13.2671   20.4485 N   0  0  0  0  0  0
  -26.2995  -12.9334   20.3304 N   0  0  0  0  0  0
  -25.9293  -11.6499   20.5728 N   0  0  0  0  0  0
  -22.0473  -12.8260   22.0398 N   0  0  0  0  0  0
  -25.4193  -15.1859   20.3925 N   0  0  0  0  0  0
  -31.8509  -14.5986   20.0847 O   0  0  0  0  0  0
  -21.6632   -6.8865   21.4241 O   0  0  0  0  0  0
  -22.3530  -14.5555   20.6683 O   0  0  0  0  0  0
  -24.6094  -31.8702   23.2121 C   0  0  0  0  0  0
  -25.9006  -32.4837   23.8406 C   0  0  1  0  0  0
  -27.2488  -27.4773   20.0897 C   0  0  0  0  0  0
  -25.5873  -33.8639   24.2339 N   0  0  0  0  0  0
  -23.3958  -30.4929   21.5521 C   0  0  2  0  0  0
  -24.8453  -28.9622   20.1170 C   0  0  0  0  0  0
  -22.7382  -29.4665   22.5009 C   0  0  0  0  0  0
  -18.0261  -28.1373   22.8495 C   0  0  0  0  0  0
  -24.1485  -36.7330   23.2639 C   0  0  0  0  0  0
  -25.9185  -30.8517   21.3555 C   0  0  0  0  0  0
  -26.0014  -29.4879   20.7064 C   0  0  0  0  0  0
  -27.2057  -28.7557   20.6930 C   0  0  0  0  0  0
  -26.0726  -26.9498   19.5199 C   0  0  0  0  0  0
  -24.8727  -27.6882   19.5226 C   0  0  0  0  0  0
  -23.6030  -29.8223   20.1670 C   0  0  0  0  0  0
  -25.4102  -36.3128   24.0341 C   0  0  1  0  0  0
  -20.5848  -28.3654   23.1335 C   0  0  2  0  0  0
  -20.6753  -26.9394   22.5427 C   0  0  0  0  0  0
  -19.5737  -26.6387   21.5212 C   0  0  0  0  0  0
  -18.1911  -26.7920   22.1621 C   0  0  0  0  0  0
  -19.1510  -28.8829   23.2912 C   0  0  0  0  0  0
  -18.9443  -30.1436   23.8924 C   0  0  0  0  0  0
  -17.6447  -30.6583   24.0567 C   0  0  0  0  0  0
  -25.9024  -34.9486   23.5138 C   0  0  0  0  0  0
  -16.5338  -29.9089   23.6320 C   0  0  0  0  0  0
  -16.7253  -28.6503   23.0344 C   0  0  0  0  0  0
  -26.4456  -31.6605   25.0716 C   0  0  0  0  0  0
  -25.3738  -31.3705   26.1479 C   0  0  0  0  0  0
  -27.0278  -30.3055   24.6053 C   0  0  0  0  0  0
  -27.6043  -32.4318   25.7468 C   0  0  0  0  0  0
  -27.5580  -37.1816   24.8464 C   0  0  0  0  0  0
  -21.4113  -29.3025   22.3748 N   0  0  0  0  0  0
  -26.4296  -37.3800   23.9406 N   0  0  0  0  0  0
  -24.6597  -31.0845   22.0996 N   0  0  0  0  0  0
  -23.4175  -28.8204   23.3035 O   0  0  0  0  0  0
  -28.3768  -26.6913   20.0479 O   0  0  0  0  0  0
  -26.5585  -34.8932   22.4701 O   0  0  0  0  0  0
  -23.5298  -32.1433   23.7545 O   0  0  0  0  0  0
  -28.6481  -17.0696   20.5744 C   0  0  0  0  0  0
  -28.4112  -18.3226   19.9729 C   0  0  0  0  0  0
  -31.0404  -17.5206   20.5511 C   0  0  0  0  0  0
  -29.9652  -16.6500   20.8422 C   0  0  0  0  0  0
  -29.4867  -19.1803   19.6452 C   0  0  0  0  0  0
  -30.8125  -18.7703   19.9414 C   0  0  0  0  0  0
  -29.4530  -21.6136   19.5216 C   0  0  0  0  0  0
  -28.6484  -20.2863   17.6096 C   0  0  0  0  0  0
  -30.4383  -15.3177   22.8468 C   0  0  0  0  0  0
  -29.2827  -22.8865   18.6796 C   0  0  0  0  0  0
  -30.7377  -26.2871   19.8030 C   0  0  0  0  0  0
  -30.4587  -25.0896   18.8702 C   0  0  0  0  0  0
  -29.6226  -27.3444   19.8346 C   0  0  0  0  0  0
  -29.2184  -20.4013   18.9548 N   0  0  0  0  0  0
  -30.2016  -15.3639   21.4050 N   0  0  0  0  0  0
  -29.5795  -24.0787   19.5017 N   0  3  0  0  0  0
  -29.8091  -21.7480   20.6986 O   0  0  0  0  0  0
  -32.1831  -19.7308   19.5022 Cl  0  0  0  0  0  0
  -31.4600  -12.3691   19.1169 H   0  0  0  0  0  0
  -30.2963  -11.2784   19.8069 H   0  0  0  0  0  0
  -29.7277  -11.7982   17.4118 H   0  0  0  0  0  0
  -29.6611  -13.5044   17.7820 H   0  0  0  0  0  0
  -27.8278  -11.3093   18.8151 H   0  0  0  0  0  0
  -27.3591  -12.6391   17.7851 H   0  0  0  0  0  0
  -27.7091  -14.2538   19.5750 H   0  0  0  0  0  0
  -28.6619  -11.9533   21.3484 H   0  0  0  0  0  0
  -28.4464  -13.5982   21.8577 H   0  0  0  0  0  0
  -25.2753   -9.5686   22.4744 H   0  0  0  0  0  0
  -24.0009   -7.4625   22.7458 H   0  0  0  0  0  0
  -21.0827   -8.8761   19.8950 H   0  0  0  0  0  0
  -22.3684  -10.9661   19.6156 H   0  0  0  0  0  0
  -21.2009   -7.6138   23.9733 H   0  0  0  0  0  0
  -21.1471   -6.0502   25.9090 H   0  0  0  0  0  0
  -22.0595   -2.7596   23.2851 H   0  0  0  0  0  0
  -22.4084  -11.9947   22.4831 H   0  0  0  0  0  0
  -21.1090  -13.1304   22.2592 H   0  0  0  0  0  0
  -24.6380  -15.8268   20.4707 H   0  0  0  0  0  0
  -26.2391  -15.6097   19.9796 H   0  0  0  0  0  0
  -26.7085  -32.5580   23.1186 H   0  0  0  0  0  0
  -25.0003  -33.9802   25.0469 H   0  0  0  0  0  0
  -22.6821  -31.3077   21.4137 H   0  0  0  0  0  0
  -23.3733  -35.9679   23.3330 H   0  0  0  0  0  0
  -24.3577  -36.8916   22.2049 H   0  0  0  0  0  0
  -23.7256  -37.6554   23.6632 H   0  0  0  0  0  0
  -26.0179  -31.6171   20.5846 H   0  0  0  0  0  0
  -26.8101  -30.9136   21.9674 H   0  0  0  0  0  0
  -28.0823  -29.1776   21.1613 H   0  0  0  0  0  0
  -26.0878  -25.9699   19.0642 H   0  0  0  0  0  0
  -23.9814  -27.2728   19.0727 H   0  0  0  0  0  0
  -23.7048  -30.5954   19.4046 H   0  0  0  0  0  0
  -22.7301  -29.2359   19.8749 H   0  0  0  0  0  0
  -25.1276  -36.1995   25.0833 H   0  0  0  0  0  0
  -20.9936  -28.3216   24.1457 H   0  0  0  0  0  0
  -20.5647  -26.2256   23.3605 H   0  0  0  0  0  0
  -21.6627  -26.7437   22.1227 H   0  0  0  0  0  0
  -19.6899  -25.6301   21.1229 H   0  0  0  0  0  0
  -19.6679  -27.3214   20.6752 H   0  0  0  0  0  0
  -17.4179  -26.6666   21.4023 H   0  0  0  0  0  0
  -18.0319  -26.0055   22.9013 H   0  0  0  0  0  0
  -19.7919  -30.7239   24.2313 H   0  0  0  0  0  0
  -17.5005  -31.6265   24.5164 H   0  0  0  0  0  0
  -15.5342  -30.3004   23.7627 H   0  0  0  0  0  0
  -15.8648  -28.0832   22.7050 H   0  0  0  0  0  0
  -24.5895  -30.7067   25.7823 H   0  0  0  0  0  0
  -24.8943  -32.2861   26.4950 H   0  0  0  0  0  0
  -25.8102  -30.8857   27.0220 H   0  0  0  0  0  0
  -26.2803  -29.6826   24.1121 H   0  0  0  0  0  0
  -27.4085  -29.7276   25.4486 H   0  0  0  0  0  0
  -27.8623  -30.4392   23.9163 H   0  0  0  0  0  0
  -27.2664  -33.3597   26.2092 H   0  0  0  0  0  0
  -28.3818  -32.6912   25.0273 H   0  0  0  0  0  0
  -28.0749  -31.8415   26.5339 H   0  0  0  0  0  0
  -28.2615  -38.0095   24.7493 H   0  0  0  0  0  0
  -28.1055  -36.2627   24.6307 H   0  0  0  0  0  0
  -27.2296  -37.1498   25.8868 H   0  0  0  0  0  0
  -20.9261  -29.8757   21.6986 H   0  0  0  0  0  0
  -26.0192  -38.2886   24.1391 H   0  0  0  0  0  0
  -27.8164  -16.4278   20.8230 H   0  0  0  0  0  0
  -27.3954  -18.6212   19.7537 H   0  0  0  0  0  0
  -32.0551  -17.2130   20.7574 H   0  0  0  0  0  0
  -28.5183  -19.2428   17.3194 H   0  0  0  0  0  0
  -29.3012  -20.7413   16.8635 H   0  0  0  0  0  0
  -27.6679  -20.7606   17.5527 H   0  0  0  0  0  0
  -29.7245  -15.9541   23.3706 H   0  0  0  0  0  0
  -31.4430  -15.6737   23.0823 H   0  0  0  0  0  0
  -30.3323  -14.3056   23.2414 H   0  0  0  0  0  0
  -28.2651  -22.9634   18.2976 H   0  0  0  0  0  0
  -29.9592  -22.8311   17.8258 H   0  0  0  0  0  0
  -31.6529  -26.7804   19.4719 H   0  0  0  0  0  0
  -30.9468  -25.9344   20.8135 H   0  0  0  0  0  0
  -31.4053  -24.6099   18.6197 H   0  0  0  0  0  0
  -30.0225  -25.4343   17.9314 H   0  0  0  0  0  0
  -29.5921  -27.8927   18.8909 H   0  0  0  0  0  0
  -29.8475  -28.0603   20.6248 H   0  0  0  0  0  0
  -30.0195  -23.7000   20.3300 H   0  0  0  0  0  0
  -28.7168  -24.5106   19.7925 H   0  0  0  0  0  0
  1 25  1  0  0  0
  1 30  2  0  0  0
  1 85  1  0  0  0
  2  3  1  0  0  0
  2 25  1  0  0  0
  2 89  1  0  0  0
  2 90  1  0  0  0
  3  4  1  0  0  0
  3 91  1  0  0  0
  3 92  1  0  0  0
  4  5  1  0  0  0
  4 93  1  0  0  0
  4 94  1  0  0  0
  5  6  1  0  0  0
  5 26  1  0  0  0
  5 95  1  0  0  0
  6 25  1  0  0  0
  6 96  1  0  0  0
  6 97  1  0  0  0
  7  8  2  0  0  0
  7 26  1  0  0  0
  7 29  1  0  0  0
  8  9  1  0  0  0
  8 22  1  0  0  0
  9 10  1  0  0  0
  9 27  2  0  0  0
 10 11  2  0  0  0
 10 15  1  0  0  0
 11 12  1  0  0  0
 11 98  1  0  0  0
 12 13  2  0  0  0
 12 99  1  0  0  0
 13 14  1  0  0  0
 13 31  1  0  0  0
 14 15  2  0  0  0
 14100  1  0  0  0
 15101  1  0  0  0
 16 17  2  0  0  0
 16 21  1  0  0  0
 16 31  1  0  0  0
 17 18  1  0  0  0
 17102  1  0  0  0
 18 19  2  0  0  0
 18103  1  0  0  0
 19 20  1  0  0  0
 19 24  1  0  0  0
 20 21  2  0  0  0
 20104  1  0  0  0
 21 23  1  0  0  0
 22 28  1  0  0  0
 22 32  2  0  0  0
 26 27  1  0  0  0
 28105  1  0  0  0
 28106  1  0  0  0
 29107  1  0  0  0
 29108  1  0  0  0
 33 34  1  0  0  0
 33 66  1  0  0  0
 33 70  2  0  0  0
 34 36  1  0  0  0
 34 59  1  0  0  0
 34109  1  0  0  0
 35 44  2  0  0  0
 35 45  1  0  0  0
 35 68  1  0  0  0
 36 56  1  0  0  0
 36110  1  0  0  0
 37 39  1  0  0  0
 37 47  1  0  0  0
 37 66  1  0  0  0
 37111  1  0  0  0
 38 43  2  0  0  0
 38 46  1  0  0  0
 38 47  1  0  0  0
 39 64  1  0  0  0
 39 67  2  0  0  0
 40 52  1  0  0  0
 40 53  2  0  0  0
 40 58  1  0  0  0
 41112  1  0  0  0
 41113  1  0  0  0
 41114  1  0  0  0
 41 48  1  0  0  0
 42 43  1  0  0  0
 42 66  1  0  0  0
 42115  1  0  0  0
 42116  1  0  0  0
 43 44  1  0  0  0
 44117  1  0  0  0
 45 46  2  0  0  0
 45118  1  0  0  0
 46119  1  0  0  0
 47120  1  0  0  0
 47121  1  0  0  0
 48 56  1  0  0  0
 48 65  1  0  0  0
 48122  1  0  0  0
 49 50  1  0  0  0
 49 53  1  0  0  0
 49 64  1  0  0  0
 49123  1  0  0  0
 50 51  1  0  0  0
 50124  1  0  0  0
 50125  1  0  0  0
 51 52  1  0  0  0
 51126  1  0  0  0
 51127  1  0  0  0
 52128  1  0  0  0
 52129  1  0  0  0
 53 54  1  0  0  0
 54 55  2  0  0  0
 54130  1  0  0  0
 55 57  1  0  0  0
 55131  1  0  0  0
 56 69  2  0  0  0
 57 58  2  0  0  0
 57132  1  0  0  0
 58133  1  0  0  0
 59 60  1  0  0  0
 59 61  1  0  0  0
 59 62  1  0  0  0
 60134  1  0  0  0
 60135  1  0  0  0
 60136  1  0  0  0
 61137  1  0  0  0
 61138  1  0  0  0
 61139  1  0  0  0
 62140  1  0  0  0
 62141  1  0  0  0
 62142  1  0  0  0
 63 65  1  0  0  0
 63143  1  0  0  0
 63144  1  0  0  0
 63145  1  0  0  0
 64146  1  0  0  0
 65147  1  0  0  0
 68 83  1  0  0  0
 71 72  2  0  0  0
 71 74  1  0  0  0
 71148  1  0  0  0
 72 75  1  0  0  0
 72149  1  0  0  0
 73 74  2  0  0  0
 73 76  1  0  0  0
 73150  1  0  0  0
 74 85  1  0  0  0
 75 76  2  0  0  0
 75 84  1  0  0  0
 76 88  1  0  0  0
 77 80  1  0  0  0
 77 84  1  0  0  0
 77 87  2  0  0  0
 78 84  1  0  0  0
 78151  1  0  0  0
 78152  1  0  0  0
 78153  1  0  0  0
 79 85  1  0  0  0
 79154  1  0  0  0
 79155  1  0  0  0
 79156  1  0  0  0
 80 86  1  0  0  0
 80157  1  0  0  0
 80158  1  0  0  0
 81 82  1  0  0  0
 81 83  1  0  0  0
 81159  1  0  0  0
 81160  1  0  0  0
 82 86  1  0  0  0
 82161  1  0  0  0
 82162  1  0  0  0
 83163  1  0  0  0
 83164  1  0  0  0
 86165  1  0  0  0
 86166  1  0  0  0
M  CHG  1  86   1
M  ISO  4   1 100  68 101  83 101  85 100
M  END
> <chiral flag>
0

> <version>
0

> <s_m_source_file>
/data/baiqing/PycharmProjects/Reinvent-master-3.2/result/LINK_invent/BTK/process_docking_weight1_custom_product_contain_oxygen_bond_distance_aromatic_linkinvent_7_9_3/rearranged_h_0016.sdf

> <i_m_source_file_index>
75

> <r_mmod_Potential_Energy-OPLS-2005>
-117.452255249023

> <r_mmod_Stretch_Energy-OPLS-2005>
35.8137092590332

> <r_mmod_Bend_Energy-OPLS-2005>
97.1281433105469

> <r_mmod_Torsional_Energy-OPLS-2005>
390.307403564453

> <r_mmod_Improper_Torsional_Energy-OPLS-2005>
4.79844331741333

> <r_mmod_Van_der_Waal_Energy-OPLS-2005>
158.880172729492

> <r_mmod_Electrostatic_Energy-OPLS-2005>
-384.456878662109

> <r_mmod_Solvation_Energy-OPLS-2005>
-428.063201904297

> <b_mmod_Minimization_Converged-OPLS-2005>
0

> <r_mmod_RMS_Derivative-OPLS-2005>
1.83886992931366

$$$$
75
                    3D
 Structure written by MMmdl.
159167  0  0  1  0            999 V2000
  -30.7609  -14.4104   20.6041 C   0  0  0  0  0  0
  -30.4049  -12.2781   19.4321 C   0  0  0  0  0  0
  -29.4923  -12.5158   18.2138 C   0  0  0  0  0  0
  -28.0137  -12.3806   18.6214 C   0  0  0  0  0  0
  -27.6654  -13.2125   19.8844 C   0  0  2  0  0  0
  -28.7013  -12.9963   21.0121 C   0  0  0  0  0  0
  -25.2584  -13.8194   20.5692 C   0  0  0  0  0  0
  -24.1842  -13.0473   20.9199 C   0  0  0  0  0  0
  -24.6414  -11.6938   20.8774 C   0  0  0  0  0  0
  -23.9077  -10.4316   21.0428 C   0  0  0  0  0  0
  -24.3624   -9.4223   21.9197 C   0  0  0  0  0  0
  -23.6308   -8.2249   22.0749 C   0  0  0  0  0  0
  -22.4283   -8.0280   21.3545 C   0  0  0  0  0  0
  -21.9916   -9.0261   20.4644 C   0  0  0  0  0  0
  -22.7252  -10.2145   20.3070 C   0  0  0  0  0  0
  -21.6849   -6.0725   22.5286 C   0  0  0  0  0  0
  -21.4015   -6.5644   23.8215 C   0  0  0  0  0  0
  -21.3675   -5.6795   24.9183 C   0  0  0  0  0  0
  -21.6040   -4.3058   24.7231 C   0  0  0  0  0  0
  -21.8823   -3.8151   23.4365 C   0  0  0  0  0  0
  -21.9193   -4.6956   22.3411 C   0  0  0  0  0  0
  -22.7860  -13.5252   21.1853 C   0  0  0  0  0  0
  -22.1660   -4.2153   21.0982 F   0  0  0  0  0  0
  -21.5640   -3.4533   25.7745 F   0  0  0  0  0  0
  -30.0432  -13.2633   20.4666 N   0  0  0  0  0  0
  -26.3048  -12.9386   20.3412 N   0  0  0  0  0  0
  -25.9346  -11.6544   20.5799 N   0  0  0  0  0  0
  -22.0491  -12.8249   22.0409 N   0  0  0  0  0  0
  -25.4319  -15.1916   20.4060 N   0  0  0  0  0  0
  -31.8333  -14.5730   20.0155 O   0  0  0  0  0  0
  -21.6657   -6.8880   21.4244 O   0  0  0  0  0  0
  -22.3546  -14.5564   20.6701 O   0  0  0  0  0  0
  -24.6171  -31.8706   23.2127 C   0  0  0  0  0  0
  -25.9057  -32.4837   23.8428 C   0  0  1  0  0  0
  -27.1976  -27.3949   20.1052 C   0  0  0  0  0  0
  -25.5903  -33.8638   24.2359 N   0  0  0  0  0  0
  -23.4056  -30.5072   21.5502 C   0  0  2  0  0  0
  -24.8469  -28.9853   20.1016 C   0  0  0  0  0  0
  -22.7421  -29.4713   22.4894 C   0  0  0  0  0  0
  -18.0279  -28.1373   22.8508 C   0  0  0  0  0  0
  -24.1480  -36.7316   23.2634 C   0  0  0  0  0  0
  -25.9441  -30.8277   21.3731 C   0  0  0  0  0  0
  -26.0150  -29.4649   20.7111 C   0  0  0  0  0  0
  -27.1953  -28.6793   20.7103 C   0  0  0  0  0  0
  -26.0192  -26.9757   19.4401 C   0  0  0  0  0  0
  -24.8466  -27.7419   19.4593 C   0  0  0  0  0  0
  -23.6170  -29.8597   20.1581 C   0  0  0  0  0  0
  -25.4090  -36.3132   24.0360 C   0  0  1  0  0  0
  -20.5884  -28.3688   23.1244 C   0  0  2  0  0  0
  -20.6765  -26.9412   22.5378 C   0  0  0  0  0  0
  -19.5736  -26.6392   21.5181 C   0  0  0  0  0  0
  -18.1915  -26.7930   22.1615 C   0  0  0  0  0  0
  -19.1539  -28.8841   23.2896 C   0  0  0  0  0  0
  -18.9464  -30.1434   23.8925 C   0  0  0  0  0  0
  -17.6463  -30.6592   24.0576 C   0  0  0  0  0  0
  -25.9016  -34.9485   23.5158 C   0  0  0  0  0  0
  -16.5360  -29.9097   23.6319 C   0  0  0  0  0  0
  -16.7264  -28.6502   23.0363 C   0  0  0  0  0  0
  -26.4469  -31.6615   25.0770 C   0  0  0  0  0  0
  -25.3728  -31.3748   26.1517 C   0  0  0  0  0  0
  -27.0319  -30.3059   24.6169 C   0  0  0  0  0  0
  -27.6053  -32.4331   25.7530 C   0  0  0  0  0  0
  -27.5586  -37.1801   24.8455 C   0  0  0  0  0  0
  -21.4137  -29.3097   22.3655 N   0  0  0  0  0  0
  -26.4268  -37.3826   23.9444 N   0  0  0  0  0  0
  -24.6744  -31.0824   22.1021 N   0  0  0  0  0  0
  -23.4199  -28.8183   23.2883 O   0  0  0  0  0  0
  -28.2988  -26.5508   20.1930 O   0  0  0  0  0  0
  -26.5585  -34.8945   22.4721 O   0  0  0  0  0  0
  -23.5347  -32.1427   23.7510 O   0  0  0  0  0  0
  -31.9598  -17.1540   21.2482 C   0  0  0  0  0  0
  -32.3121  -18.4938   21.0244 C   0  0  0  0  0  0
  -29.6042  -17.7739   21.2772 C   0  0  0  0  0  0
  -29.9506  -19.1323   21.0389 C   0  0  0  0  0  0
  -30.6005  -16.7656   21.3127 C   0  0  0  0  0  0
  -31.3136  -19.4697   20.8840 C   0  0  0  0  0  0
  -29.4659  -21.6941   22.7224 C   0  0  0  0  0  0
  -28.8641  -20.2030   20.8465 C   0  0  0  0  0  0
  -28.8975  -24.1226   20.8111 C   0  0  0  0  0  0
  -28.3652  -22.6542   20.6912 C   0  0  0  0  0  0
  -28.0012  -25.1306   20.0517 C   0  0  0  0  0  0
  -30.2236  -15.3870   21.3664 N   0  0  0  0  0  0
  -29.2558  -21.5900   21.2567 N   0  3  1  0  0  0
  -31.6701  -20.7422   20.5884 F   0  0  0  0  0  0
  -31.4533  -12.3366   19.1324 H   0  0  0  0  0  0
  -30.2676  -11.2656   19.8152 H   0  0  0  0  0  0
  -29.7267  -11.8025   17.4215 H   0  0  0  0  0  0
  -29.6760  -13.5092   17.8009 H   0  0  0  0  0  0
  -27.8199  -11.3233   18.8064 H   0  0  0  0  0  0
  -27.3636  -12.6677   17.7942 H   0  0  0  0  0  0
  -27.7130  -14.2629   19.5972 H   0  0  0  0  0  0
  -28.6584  -11.9720   21.3854 H   0  0  0  0  0  0
  -28.4596  -13.6249   21.8706 H   0  0  0  0  0  0
  -25.2767   -9.5708   22.4762 H   0  0  0  0  0  0
  -24.0035   -7.4638   22.7464 H   0  0  0  0  0  0
  -21.0840   -8.8786   19.8949 H   0  0  0  0  0  0
  -22.3716  -10.9679   19.6181 H   0  0  0  0  0  0
  -21.2005   -7.6144   23.9727 H   0  0  0  0  0  0
  -21.1490   -6.0517   25.9083 H   0  0  0  0  0  0
  -22.0584   -2.7607   23.2856 H   0  0  0  0  0  0
  -22.4071  -11.9918   22.4827 H   0  0  0  0  0  0
  -21.1093  -13.1273   22.2573 H   0  0  0  0  0  0
  -24.6689  -15.8508   20.5097 H   0  0  0  0  0  0
  -26.2855  -15.6244   20.0725 H   0  0  0  0  0  0
  -26.7145  -32.5577   23.1203 H   0  0  0  0  0  0
  -25.0149  -33.9808   25.0567 H   0  0  0  0  0  0
  -22.6979  -31.3274   21.4160 H   0  0  0  0  0  0
  -23.3763  -35.9633   23.3285 H   0  0  0  0  0  0
  -24.3566  -36.8917   22.2046 H   0  0  0  0  0  0
  -23.7197  -37.6517   23.6623 H   0  0  0  0  0  0
  -26.0674  -31.5966   20.6093 H   0  0  0  0  0  0
  -26.8273  -30.8710   21.9987 H   0  0  0  0  0  0
  -28.0905  -29.0365   21.2015 H   0  0  0  0  0  0
  -25.9625  -26.0378   18.9087 H   0  0  0  0  0  0
  -23.9560  -27.3705   18.9678 H   0  0  0  0  0  0
  -23.7422  -30.6437   19.4110 H   0  0  0  0  0  0
  -22.7358  -29.2959   19.8442 H   0  0  0  0  0  0
  -25.1247  -36.2002   25.0854 H   0  0  0  0  0  0
  -21.0020  -28.3282   24.1338 H   0  0  0  0  0  0
  -20.5590  -26.2330   23.3591 H   0  0  0  0  0  0
  -21.6633  -26.7406   22.1197 H   0  0  0  0  0  0
  -19.6874  -25.6292   21.1210 H   0  0  0  0  0  0
  -19.6633  -27.3213   20.6713 H   0  0  0  0  0  0
  -17.4164  -26.6672   21.4036 H   0  0  0  0  0  0
  -18.0330  -26.0054   22.8989 H   0  0  0  0  0  0
  -19.7947  -30.7238   24.2314 H   0  0  0  0  0  0
  -17.5034  -31.6266   24.5181 H   0  0  0  0  0  0
  -15.5368  -30.3019   23.7614 H   0  0  0  0  0  0
  -15.8664  -28.0827   22.7076 H   0  0  0  0  0  0
  -24.5907  -30.7064   25.7889 H   0  0  0  0  0  0
  -24.8914  -32.2919   26.4939 H   0  0  0  0  0  0
  -25.8078  -30.8968   27.0303 H   0  0  0  0  0  0
  -26.2901  -29.6819   24.1170 H   0  0  0  0  0  0
  -27.4029  -29.7291   25.4651 H   0  0  0  0  0  0
  -27.8757  -30.4396   23.9393 H   0  0  0  0  0  0
  -27.2678  -33.3618   26.2147 H   0  0  0  0  0  0
  -28.3854  -32.6885   25.0345 H   0  0  0  0  0  0
  -28.0736  -31.8425   26.5414 H   0  0  0  0  0  0
  -28.2572  -38.0138   24.7600 H   0  0  0  0  0  0
  -28.1104  -36.2670   24.6143 H   0  0  0  0  0  0
  -27.2319  -37.1320   25.8860 H   0  0  0  0  0  0
  -20.9223  -29.8939   21.7019 H   0  0  0  0  0  0
  -26.0154  -38.2901   24.1498 H   0  0  0  0  0  0
  -32.7516  -16.4235   21.3163 H   0  0  0  0  0  0
  -33.3502  -18.7675   20.9208 H   0  0  0  0  0  0
  -28.5623  -17.4977   21.3650 H   0  0  0  0  0  0
  -29.7027  -22.7087   23.0410 H   0  0  0  0  0  0
  -30.3047  -21.0681   23.0260 H   0  0  0  0  0  0
  -28.5897  -21.3569   23.2782 H   0  0  0  0  0  0
  -27.9604  -19.9050   21.3793 H   0  0  0  0  0  0
  -28.6085  -20.1931   19.7863 H   0  0  0  0  0  0
  -29.9190  -24.1864   20.4419 H   0  0  0  0  0  0
  -28.9107  -24.4198   21.8578 H   0  0  0  0  0  0
  -28.2183  -22.4461   19.6286 H   0  0  0  0  0  0
  -27.3769  -22.5733   21.1518 H   0  0  0  0  0  0
  -27.0015  -24.9140   20.4354 H   0  0  0  0  0  0
  -28.0072  -24.8858   18.9870 H   0  0  0  0  0  0
  -29.3451  -15.1671   21.8139 H   0  0  0  0  0  0
  -30.1640  -21.7207   20.8257 H   0  0  0  0  0  0
  1 25  1  0  0  0
  1 30  2  0  0  0
  1 82  1  0  0  0
  2  3  1  0  0  0
  2 25  1  0  0  0
  2 85  1  0  0  0
  2 86  1  0  0  0
  3  4  1  0  0  0
  3 87  1  0  0  0
  3 88  1  0  0  0
  4  5  1  0  0  0
  4 89  1  0  0  0
  4 90  1  0  0  0
  5  6  1  0  0  0
  5 26  1  0  0  0
  5 91  1  0  0  0
  6 25  1  0  0  0
  6 92  1  0  0  0
  6 93  1  0  0  0
  7  8  2  0  0  0
  7 26  1  0  0  0
  7 29  1  0  0  0
  8  9  1  0  0  0
  8 22  1  0  0  0
  9 10  1  0  0  0
  9 27  2  0  0  0
 10 11  2  0  0  0
 10 15  1  0  0  0
 11 12  1  0  0  0
 11 94  1  0  0  0
 12 13  2  0  0  0
 12 95  1  0  0  0
 13 14  1  0  0  0
 13 31  1  0  0  0
 14 15  2  0  0  0
 14 96  1  0  0  0
 15 97  1  0  0  0
 16 17  2  0  0  0
 16 21  1  0  0  0
 16 31  1  0  0  0
 17 18  1  0  0  0
 17 98  1  0  0  0
 18 19  2  0  0  0
 18 99  1  0  0  0
 19 20  1  0  0  0
 19 24  1  0  0  0
 20 21  2  0  0  0
 20100  1  0  0  0
 21 23  1  0  0  0
 22 28  1  0  0  0
 22 32  2  0  0  0
 26 27  1  0  0  0
 28101  1  0  0  0
 28102  1  0  0  0
 29103  1  0  0  0
 29104  1  0  0  0
 33 34  1  0  0  0
 33 66  1  0  0  0
 33 70  2  0  0  0
 34 36  1  0  0  0
 34 59  1  0  0  0
 34105  1  0  0  0
 35 44  2  0  0  0
 35 45  1  0  0  0
 35 68  1  0  0  0
 36 56  1  0  0  0
 36106  1  0  0  0
 37 39  1  0  0  0
 37 47  1  0  0  0
 37 66  1  0  0  0
 37107  1  0  0  0
 38 43  2  0  0  0
 38 46  1  0  0  0
 38 47  1  0  0  0
 39 64  1  0  0  0
 39 67  2  0  0  0
 40 52  1  0  0  0
 40 53  2  0  0  0
 40 58  1  0  0  0
 41108  1  0  0  0
 41109  1  0  0  0
 41110  1  0  0  0
 41 48  1  0  0  0
 42 43  1  0  0  0
 42 66  1  0  0  0
 42111  1  0  0  0
 42112  1  0  0  0
 43 44  1  0  0  0
 44113  1  0  0  0
 45 46  2  0  0  0
 45114  1  0  0  0
 46115  1  0  0  0
 47116  1  0  0  0
 47117  1  0  0  0
 48 56  1  0  0  0
 48 65  1  0  0  0
 48118  1  0  0  0
 49 50  1  0  0  0
 49 53  1  0  0  0
 49 64  1  0  0  0
 49119  1  0  0  0
 50 51  1  0  0  0
 50120  1  0  0  0
 50121  1  0  0  0
 51 52  1  0  0  0
 51122  1  0  0  0
 51123  1  0  0  0
 52124  1  0  0  0
 52125  1  0  0  0
 53 54  1  0  0  0
 54 55  2  0  0  0
 54126  1  0  0  0
 55 57  1  0  0  0
 55127  1  0  0  0
 56 69  2  0  0  0
 57 58  2  0  0  0
 57128  1  0  0  0
 58129  1  0  0  0
 59 60  1  0  0  0
 59 61  1  0  0  0
 59 62  1  0  0  0
 60130  1  0  0  0
 60131  1  0  0  0
 60132  1  0  0  0
 61133  1  0  0  0
 61134  1  0  0  0
 61135  1  0  0  0
 62136  1  0  0  0
 62137  1  0  0  0
 62138  1  0  0  0
 63 65  1  0  0  0
 63139  1  0  0  0
 63140  1  0  0  0
 63141  1  0  0  0
 64142  1  0  0  0
 65143  1  0  0  0
 68 81  1  0  0  0
 71 72  2  0  0  0
 71 75  1  0  0  0
 71144  1  0  0  0
 72 76  1  0  0  0
 72145  1  0  0  0
 73 74  1  0  0  0
 73 75  2  0  0  0
 73146  1  0  0  0
 74 76  2  0  0  0
 74 78  1  0  0  0
 75 82  1  0  0  0
 76 84  1  0  0  0
 77147  1  0  0  0
 77148  1  0  0  0
 77149  1  0  0  0
 77 83  1  0  0  0
 78 83  1  0  0  0
 78150  1  0  0  0
 78151  1  0  0  0
 79 80  1  0  0  0
 79 81  1  0  0  0
 79152  1  0  0  0
 79153  1  0  0  0
 80 83  1  0  0  0
 80154  1  0  0  0
 80155  1  0  0  0
 81156  1  0  0  0
 81157  1  0  0  0
 82158  1  0  0  0
 83159  1  0  0  0
M  CHG  1  83   1
M  ISO  4   1 100  68 101  81 101  82 100
M  END
> <chiral flag>
0

> <version>
0

> <s_m_source_file>
/data/baiqing/PycharmProjects/Reinvent-master-3.2/result/LINK_invent/BTK/process_docking_weight1_custom_product_contain_oxygen_bond_distance_aromatic_linkinvent_7_9_3/rearranged_h_0016.sdf

> <i_m_source_file_index>
76

> <r_mmod_Potential_Energy-OPLS-2005>
-194.291473388672

> <r_mmod_Stretch_Energy-OPLS-2005>
44.4153060913086

> <r_mmod_Bend_Energy-OPLS-2005>
101.165687561035

> <r_mmod_Torsional_Energy-OPLS-2005>
219.167404174805

> <r_mmod_Improper_Torsional_Energy-OPLS-2005>
3.20983552932739

> <r_mmod_Van_der_Waal_Energy-OPLS-2005>
177.280731201172

> <r_mmod_Electrostatic_Energy-OPLS-2005>
-317.380889892578

> <r_mmod_Solvation_Energy-OPLS-2005>
-443.643005371094

> <b_mmod_Minimization_Converged-OPLS-2005>
0

> <r_mmod_RMS_Derivative-OPLS-2005>
4.31557846069336

$$$$
76
                    3D
 Structure written by MMmdl.
165173  0  0  1  0            999 V2000
  -30.7634  -14.4233   20.6341 C   0  0  0  0  0  0
  -30.4140  -12.3056   19.4101 C   0  0  0  0  0  0
  -29.4840  -12.5141   18.1992 C   0  0  0  0  0  0
  -28.0087  -12.3691   18.6185 C   0  0  0  0  0  0
  -27.6599  -13.2081   19.8756 C   0  0  2  0  0  0
  -28.7047  -12.9889   20.9944 C   0  0  0  0  0  0
  -25.2564  -13.8164   20.5687 C   0  0  0  0  0  0
  -24.1823  -13.0425   20.9199 C   0  0  0  0  0  0
  -24.6386  -11.6895   20.8751 C   0  0  0  0  0  0
  -23.9048  -10.4284   21.0410 C   0  0  0  0  0  0
  -24.3607   -9.4202   21.9191 C   0  0  0  0  0  0
  -23.6292   -8.2230   22.0750 C   0  0  0  0  0  0
  -22.4272   -8.0269   21.3532 C   0  0  0  0  0  0
  -21.9901   -9.0240   20.4630 C   0  0  0  0  0  0
  -22.7219  -10.2128   20.3061 C   0  0  0  0  0  0
  -21.6843   -6.0749   22.5282 C   0  0  0  0  0  0
  -21.4006   -6.5653   23.8219 C   0  0  0  0  0  0
  -21.3665   -5.6801   24.9179 C   0  0  0  0  0  0
  -21.6049   -4.3065   24.7224 C   0  0  0  0  0  0
  -21.8819   -3.8158   23.4340 C   0  0  0  0  0  0
  -21.9188   -4.6979   22.3402 C   0  0  0  0  0  0
  -22.7843  -13.5216   21.1861 C   0  0  0  0  0  0
  -22.1649   -4.2172   21.0973 F   0  0  0  0  0  0
  -21.5636   -3.4546   25.7735 F   0  0  0  0  0  0
  -30.0408  -13.2831   20.4459 N   0  0  0  0  0  0
  -26.3014  -12.9344   20.3394 N   0  0  0  0  0  0
  -25.9315  -11.6494   20.5786 N   0  0  0  0  0  0
  -22.0470  -12.8214   22.0423 N   0  0  0  0  0  0
  -25.4224  -15.1878   20.4044 N   0  0  0  0  0  0
  -31.8478  -14.6224   20.0744 O   0  0  0  0  0  0
  -21.6619   -6.8877   21.4237 O   0  0  0  0  0  0
  -22.3532  -14.5521   20.6708 O   0  0  0  0  0  0
  -24.6137  -31.8683   23.2110 C   0  0  0  0  0  0
  -25.9031  -32.4823   23.8403 C   0  0  1  0  0  0
  -27.2503  -27.4705   20.0645 C   0  0  0  0  0  0
  -25.5896  -33.8621   24.2337 N   0  0  0  0  0  0
  -23.4010  -30.4909   21.5509 C   0  0  2  0  0  0
  -24.8497  -28.9598   20.1122 C   0  0  0  0  0  0
  -22.7394  -29.4670   22.4997 C   0  0  0  0  0  0
  -18.0274  -28.1380   22.8500 C   0  0  0  0  0  0
  -24.1492  -36.7319   23.2643 C   0  0  0  0  0  0
  -25.9273  -30.8397   21.3603 C   0  0  0  0  0  0
  -26.0072  -29.4763   20.7080 C   0  0  0  0  0  0
  -27.2077  -28.7327   20.6931 C   0  0  0  0  0  0
  -26.0736  -26.9530   19.4844 C   0  0  0  0  0  0
  -24.8761  -27.6925   19.5022 C   0  0  0  0  0  0
  -23.6074  -29.8201   20.1667 C   0  0  0  0  0  0
  -25.4108  -36.3117   24.0350 C   0  0  1  0  0  0
  -20.5864  -28.3675   23.1324 C   0  0  2  0  0  0
  -20.6759  -26.9413   22.5426 C   0  0  0  0  0  0
  -19.5739  -26.6393   21.5219 C   0  0  0  0  0  0
  -18.1915  -26.7929   22.1625 C   0  0  0  0  0  0
  -19.1521  -28.8844   23.2921 C   0  0  0  0  0  0
  -18.9452  -30.1455   23.8925 C   0  0  0  0  0  0
  -17.6453  -30.6593   24.0577 C   0  0  0  0  0  0
  -25.9039  -34.9475   23.5140 C   0  0  0  0  0  0
  -16.5346  -29.9096   23.6333 C   0  0  0  0  0  0
  -16.7265  -28.6517   23.0352 C   0  0  0  0  0  0
  -26.4487  -31.6592   25.0713 C   0  0  0  0  0  0
  -25.3773  -31.3665   26.1473 C   0  0  0  0  0  0
  -27.0358  -30.3057   24.6063 C   0  0  0  0  0  0
  -27.6071  -32.4328   25.7454 C   0  0  0  0  0  0
  -27.5588  -37.1802   24.8473 C   0  0  0  0  0  0
  -21.4129  -29.3049   22.3724 N   0  0  0  0  0  0
  -26.4298  -37.3795   23.9429 N   0  0  0  0  0  0
  -24.6659  -31.0796   22.0997 N   0  0  0  0  0  0
  -23.4167  -28.8208   23.3039 O   0  0  0  0  0  0
  -28.4042  -26.7250   20.1006 O   0  0  0  0  0  0
  -26.5601  -34.8927   22.4700 O   0  0  0  0  0  0
  -23.5336  -32.1429   23.7504 O   0  0  0  0  0  0
  -28.8870  -19.3505   23.3266 C   0  0  0  0  0  0
  -29.3537  -20.3897   22.5015 C   0  0  0  0  0  0
  -28.8715  -18.0267   22.8527 C   0  0  0  0  0  0
  -29.8096  -18.7738   20.7283 C   0  0  0  0  0  0
  -29.8052  -20.1128   21.1935 C   0  0  0  0  0  0
  -29.3384  -17.7247   21.5560 C   0  0  0  0  0  0
  -31.1859  -15.7719   22.5900 C   0  0  0  0  0  0
  -30.2558  -21.2692   20.3030 C   0  0  0  0  0  0
  -29.2626  -16.2829   21.0441 C   0  0  0  0  0  0
  -28.6228  -25.4722   17.9466 C   0  0  0  0  0  0
  -29.0615  -22.0982   19.7863 C   0  0  0  0  0  0
  -28.2817  -24.1274   18.6274 C   0  0  0  0  0  0
  -29.1420  -26.5810   18.8872 C   0  0  0  0  0  0
  -30.2816  -15.3196   21.5237 N   0  0  0  0  0  0
  -29.4525  -23.3074   19.0218 N   0  3  0  0  0  0
  -31.4574  -12.3951   19.1015 H   0  0  0  0  0  0
  -30.3074  -11.2932   19.8015 H   0  0  0  0  0  0
  -29.7203  -11.7941   17.4153 H   0  0  0  0  0  0
  -29.6503  -13.5019   17.7672 H   0  0  0  0  0  0
  -27.8205  -11.3126   18.8142 H   0  0  0  0  0  0
  -27.3542  -12.6437   17.7906 H   0  0  0  0  0  0
  -27.7015  -14.2543   19.5756 H   0  0  0  0  0  0
  -28.6751  -11.9536   21.3373 H   0  0  0  0  0  0
  -28.4646  -13.5888   21.8723 H   0  0  0  0  0  0
  -25.2747   -9.5704   22.4766 H   0  0  0  0  0  0
  -24.0022   -7.4630   22.7470 H   0  0  0  0  0  0
  -21.0837   -8.8743   19.8931 H   0  0  0  0  0  0
  -22.3659  -10.9672   19.6185 H   0  0  0  0  0  0
  -21.1979   -7.6157   23.9738 H   0  0  0  0  0  0
  -21.1494   -6.0519   25.9089 H   0  0  0  0  0  0
  -22.0591   -2.7618   23.2827 H   0  0  0  0  0  0
  -22.4060  -11.9881   22.4847 H   0  0  0  0  0  0
  -21.1090  -13.1258   22.2603 H   0  0  0  0  0  0
  -24.6445  -15.8316   20.5033 H   0  0  0  0  0  0
  -26.2637  -15.6315   20.0591 H   0  0  0  0  0  0
  -26.7088  -32.5553   23.1164 H   0  0  0  0  0  0
  -25.0107  -33.9791   25.0514 H   0  0  0  0  0  0
  -22.6912  -31.3090   21.4105 H   0  0  0  0  0  0
  -23.3761  -35.9646   23.3316 H   0  0  0  0  0  0
  -24.3578  -36.8921   22.2057 H   0  0  0  0  0  0
  -23.7235  -37.6519   23.6650 H   0  0  0  0  0  0
  -26.0346  -31.6026   20.5871 H   0  0  0  0  0  0
  -26.8176  -30.8973   21.9746 H   0  0  0  0  0  0
  -28.1001  -29.1226   21.1622 H   0  0  0  0  0  0
  -26.0671  -25.9730   19.0339 H   0  0  0  0  0  0
  -23.9844  -27.2788   19.0520 H   0  0  0  0  0  0
  -23.7039  -30.5937   19.4046 H   0  0  0  0  0  0
  -22.7336  -29.2342   19.8768 H   0  0  0  0  0  0
  -25.1273  -36.1983   25.0842 H   0  0  0  0  0  0
  -20.9971  -28.3247   24.1434 H   0  0  0  0  0  0
  -20.5664  -26.2295   23.3619 H   0  0  0  0  0  0
  -21.6634  -26.7456   22.1216 H   0  0  0  0  0  0
  -19.6910  -25.6308   21.1240 H   0  0  0  0  0  0
  -19.6670  -27.3211   20.6753 H   0  0  0  0  0  0
  -17.4195  -26.6722   21.4013 H   0  0  0  0  0  0
  -18.0304  -26.0045   22.8990 H   0  0  0  0  0  0
  -19.7929  -30.7278   24.2285 H   0  0  0  0  0  0
  -17.5007  -31.6258   24.5195 H   0  0  0  0  0  0
  -15.5348  -30.3010   23.7633 H   0  0  0  0  0  0
  -15.8669  -28.0847   22.7042 H   0  0  0  0  0  0
  -24.5958  -30.6997   25.7814 H   0  0  0  0  0  0
  -24.8953  -32.2809   26.4946 H   0  0  0  0  0  0
  -25.8147  -30.8823   27.0216 H   0  0  0  0  0  0
  -26.2896  -29.6737   24.1236 H   0  0  0  0  0  0
  -27.4315  -29.7355   25.4480 H   0  0  0  0  0  0
  -27.8632  -30.4437   23.9100 H   0  0  0  0  0  0
  -27.2706  -33.3632   26.2046 H   0  0  0  0  0  0
  -28.3848  -32.6884   25.0241 H   0  0  0  0  0  0
  -28.0785  -31.8450   26.5342 H   0  0  0  0  0  0
  -28.2617  -38.0091   24.7520 H   0  0  0  0  0  0
  -28.1078  -36.2624   24.6297 H   0  0  0  0  0  0
  -27.2318  -37.1447   25.8880 H   0  0  0  0  0  0
  -20.9280  -29.8762   21.6944 H   0  0  0  0  0  0
  -26.0201  -38.2887   24.1393 H   0  0  0  0  0  0
  -28.5282  -19.5709   24.3224 H   0  0  0  0  0  0
  -29.3472  -21.4047   22.8765 H   0  0  0  0  0  0
  -28.4957  -17.2394   23.4913 H   0  0  0  0  0  0
  -30.1559  -18.5534   19.7274 H   0  0  0  0  0  0
  -30.6337  -15.9977   23.5020 H   0  0  0  0  0  0
  -31.7383  -16.6631   22.2887 H   0  0  0  0  0  0
  -31.9226  -15.0074   22.8483 H   0  0  0  0  0  0
  -30.8392  -20.8860   19.4649 H   0  0  0  0  0  0
  -30.9282  -21.9059   20.8812 H   0  0  0  0  0  0
  -29.2560  -16.3184   19.9517 H   0  0  0  0  0  0
  -28.2831  -15.8964   21.3245 H   0  0  0  0  0  0
  -27.7216  -25.8402   17.4577 H   0  0  0  0  0  0
  -29.3325  -25.3175   17.1330 H   0  0  0  0  0  0
  -28.4504  -22.4097   20.6336 H   0  0  0  0  0  0
  -28.4271  -21.4694   19.1606 H   0  0  0  0  0  0
  -27.6690  -23.5353   17.9458 H   0  0  0  0  0  0
  -27.6618  -24.3135   19.5047 H   0  0  0  0  0  0
  -29.1897  -27.5351   18.3586 H   0  0  0  0  0  0
  -30.1692  -26.3465   19.1707 H   0  0  0  0  0  0
  -29.9610  -23.0306   18.1968 H   0  0  0  0  0  0
  -30.0668  -23.8640   19.5942 H   0  0  0  0  0  0
  1 25  1  0  0  0
  1 30  2  0  0  0
  1 84  1  0  0  0
  2  3  1  0  0  0
  2 25  1  0  0  0
  2 86  1  0  0  0
  2 87  1  0  0  0
  3  4  1  0  0  0
  3 88  1  0  0  0
  3 89  1  0  0  0
  4  5  1  0  0  0
  4 90  1  0  0  0
  4 91  1  0  0  0
  5  6  1  0  0  0
  5 26  1  0  0  0
  5 92  1  0  0  0
  6 25  1  0  0  0
  6 93  1  0  0  0
  6 94  1  0  0  0
  7  8  2  0  0  0
  7 26  1  0  0  0
  7 29  1  0  0  0
  8  9  1  0  0  0
  8 22  1  0  0  0
  9 10  1  0  0  0
  9 27  2  0  0  0
 10 11  2  0  0  0
 10 15  1  0  0  0
 11 12  1  0  0  0
 11 95  1  0  0  0
 12 13  2  0  0  0
 12 96  1  0  0  0
 13 14  1  0  0  0
 13 31  1  0  0  0
 14 15  2  0  0  0
 14 97  1  0  0  0
 15 98  1  0  0  0
 16 17  2  0  0  0
 16 21  1  0  0  0
 16 31  1  0  0  0
 17 18  1  0  0  0
 17 99  1  0  0  0
 18 19  2  0  0  0
 18100  1  0  0  0
 19 20  1  0  0  0
 19 24  1  0  0  0
 20 21  2  0  0  0
 20101  1  0  0  0
 21 23  1  0  0  0
 22 28  1  0  0  0
 22 32  2  0  0  0
 26 27  1  0  0  0
 28102  1  0  0  0
 28103  1  0  0  0
 29104  1  0  0  0
 29105  1  0  0  0
 33 34  1  0  0  0
 33 66  1  0  0  0
 33 70  2  0  0  0
 34 36  1  0  0  0
 34 59  1  0  0  0
 34106  1  0  0  0
 35 44  2  0  0  0
 35 45  1  0  0  0
 35 68  1  0  0  0
 36 56  1  0  0  0
 36107  1  0  0  0
 37 39  1  0  0  0
 37 47  1  0  0  0
 37 66  1  0  0  0
 37108  1  0  0  0
 38 43  2  0  0  0
 38 46  1  0  0  0
 38 47  1  0  0  0
 39 64  1  0  0  0
 39 67  2  0  0  0
 40 52  1  0  0  0
 40 53  2  0  0  0
 40 58  1  0  0  0
 41109  1  0  0  0
 41110  1  0  0  0
 41111  1  0  0  0
 41 48  1  0  0  0
 42 43  1  0  0  0
 42 66  1  0  0  0
 42112  1  0  0  0
 42113  1  0  0  0
 43 44  1  0  0  0
 44114  1  0  0  0
 45 46  2  0  0  0
 45115  1  0  0  0
 46116  1  0  0  0
 47117  1  0  0  0
 47118  1  0  0  0
 48 56  1  0  0  0
 48 65  1  0  0  0
 48119  1  0  0  0
 49 50  1  0  0  0
 49 53  1  0  0  0
 49 64  1  0  0  0
 49120  1  0  0  0
 50 51  1  0  0  0
 50121  1  0  0  0
 50122  1  0  0  0
 51 52  1  0  0  0
 51123  1  0  0  0
 51124  1  0  0  0
 52125  1  0  0  0
 52126  1  0  0  0
 53 54  1  0  0  0
 54 55  2  0  0  0
 54127  1  0  0  0
 55 57  1  0  0  0
 55128  1  0  0  0
 56 69  2  0  0  0
 57 58  2  0  0  0
 57129  1  0  0  0
 58130  1  0  0  0
 59 60  1  0  0  0
 59 61  1  0  0  0
 59 62  1  0  0  0
 60131  1  0  0  0
 60132  1  0  0  0
 60133  1  0  0  0
 61134  1  0  0  0
 61135  1  0  0  0
 61136  1  0  0  0
 62137  1  0  0  0
 62138  1  0  0  0
 62139  1  0  0  0
 63 65  1  0  0  0
 63140  1  0  0  0
 63141  1  0  0  0
 63142  1  0  0  0
 64143  1  0  0  0
 65144  1  0  0  0
 68 83  1  0  0  0
 71 72  2  0  0  0
 71 73  1  0  0  0
 71145  1  0  0  0
 72 75  1  0  0  0
 72146  1  0  0  0
 73 76  2  0  0  0
 73147  1  0  0  0
 74 75  2  0  0  0
 74 76  1  0  0  0
 74148  1  0  0  0
 75 78  1  0  0  0
 76 79  1  0  0  0
 77 84  1  0  0  0
 77149  1  0  0  0
 77150  1  0  0  0
 77151  1  0  0  0
 78 81  1  0  0  0
 78152  1  0  0  0
 78153  1  0  0  0
 79 84  1  0  0  0
 79154  1  0  0  0
 79155  1  0  0  0
 80 82  1  0  0  0
 80 83  1  0  0  0
 80156  1  0  0  0
 80157  1  0  0  0
 81 85  1  0  0  0
 81158  1  0  0  0
 81159  1  0  0  0
 82 85  1  0  0  0
 82160  1  0  0  0
 82161  1  0  0  0
 83162  1  0  0  0
 83163  1  0  0  0
 85164  1  0  0  0
 85165  1  0  0  0
M  CHG  1  85   1
M  ISO  4   1 100  68 101  83 101  84 100
M  END
> <chiral flag>
0

> <version>
0

> <s_m_source_file>
/data/baiqing/PycharmProjects/Reinvent-master-3.2/result/LINK_invent/BTK/process_docking_weight1_custom_product_contain_oxygen_bond_distance_aromatic_linkinvent_7_9_3/rearranged_h_0016.sdf

> <i_m_source_file_index>
77

> <r_mmod_Potential_Energy-OPLS-2005>
-86.9127807617188

> <r_mmod_Stretch_Energy-OPLS-2005>
36.5622520446777

> <r_mmod_Bend_Energy-OPLS-2005>
98.5769882202148

> <r_mmod_Torsional_Energy-OPLS-2005>
300.373504638672

> <r_mmod_Improper_Torsional_Energy-OPLS-2005>
4.59291410446167

> <r_mmod_Van_der_Waal_Energy-OPLS-2005>
146.69645690918

> <r_mmod_Electrostatic_Energy-OPLS-2005>
-234.141937255859

> <r_mmod_Solvation_Energy-OPLS-2005>
-448.995697021484

> <b_mmod_Minimization_Converged-OPLS-2005>
0

> <r_mmod_RMS_Derivative-OPLS-2005>
2.04390168190002

$$$$
77
                    3D
 Structure written by MMmdl.
176185  0  0  1  0            999 V2000
  -30.8038  -14.3505   20.7367 C   0  0  0  0  0  0
  -30.4144  -12.3141   19.3928 C   0  0  0  0  0  0
  -29.4799  -12.5521   18.1920 C   0  0  0  0  0  0
  -28.0049  -12.3984   18.6059 C   0  0  0  0  0  0
  -27.6668  -13.2022   19.8876 C   0  0  2  0  0  0
  -28.7057  -12.9030   20.9891 C   0  0  0  0  0  0
  -25.2600  -13.8130   20.5689 C   0  0  0  0  0  0
  -24.1842  -13.0423   20.9180 C   0  0  0  0  0  0
  -24.6391  -11.6893   20.8735 C   0  0  0  0  0  0
  -23.9052  -10.4285   21.0406 C   0  0  0  0  0  0
  -24.3605   -9.4205   21.9188 C   0  0  0  0  0  0
  -23.6286   -8.2239   22.0754 C   0  0  0  0  0  0
  -22.4268   -8.0277   21.3544 C   0  0  0  0  0  0
  -21.9903   -9.0250   20.4648 C   0  0  0  0  0  0
  -22.7226  -10.2130   20.3056 C   0  0  0  0  0  0
  -21.6849   -6.0735   22.5277 C   0  0  0  0  0  0
  -21.4009   -6.5639   23.8211 C   0  0  0  0  0  0
  -21.3657   -5.6791   24.9174 C   0  0  0  0  0  0
  -21.6043   -4.3055   24.7223 C   0  0  0  0  0  0
  -21.8820   -3.8147   23.4344 C   0  0  0  0  0  0
  -21.9190   -4.6964   22.3401 C   0  0  0  0  0  0
  -22.7874  -13.5243   21.1849 C   0  0  0  0  0  0
  -22.1662   -4.2152   21.0978 F   0  0  0  0  0  0
  -21.5630   -3.4540   25.7738 F   0  0  0  0  0  0
  -30.0457  -13.2431   20.4781 N   0  0  0  0  0  0
  -26.3049  -12.9306   20.3426 N   0  0  0  0  0  0
  -25.9316  -11.6465   20.5762 N   0  0  0  0  0  0
  -22.0506  -12.8232   22.0402 N   0  0  0  0  0  0
  -25.4313  -15.1825   20.4076 N   0  0  0  0  0  0
  -31.7583  -14.6610   20.0128 O   0  0  0  0  0  0
  -21.6633   -6.8875   21.4238 O   0  0  0  0  0  0
  -22.3561  -14.5547   20.6702 O   0  0  0  0  0  0
  -24.6121  -31.8696   23.2126 C   0  0  0  0  0  0
  -25.9029  -32.4829   23.8408 C   0  0  1  0  0  0
  -27.2394  -27.4583   20.0789 C   0  0  0  0  0  0
  -25.5896  -33.8625   24.2349 N   0  0  0  0  0  0
  -23.3975  -30.4947   21.5518 C   0  0  2  0  0  0
  -24.8423  -28.9616   20.1158 C   0  0  0  0  0  0
  -22.7390  -29.4672   22.4997 C   0  0  0  0  0  0
  -18.0274  -28.1373   22.8504 C   0  0  0  0  0  0
  -24.1483  -36.7314   23.2639 C   0  0  0  0  0  0
  -25.9228  -30.8402   21.3621 C   0  0  0  0  0  0
  -25.9986  -29.4739   20.7142 C   0  0  0  0  0  0
  -27.1934  -28.7238   20.7033 C   0  0  0  0  0  0
  -26.0616  -26.9559   19.4758 C   0  0  0  0  0  0
  -24.8662  -27.6981   19.5012 C   0  0  0  0  0  0
  -23.6042  -29.8270   20.1658 C   0  0  0  0  0  0
  -25.4103  -36.3115   24.0343 C   0  0  1  0  0  0
  -20.5860  -28.3658   23.1326 C   0  0  2  0  0  0
  -20.6761  -26.9395   22.5419 C   0  0  0  0  0  0
  -19.5735  -26.6386   21.5217 C   0  0  0  0  0  0
  -18.1915  -26.7922   22.1631 C   0  0  0  0  0  0
  -19.1522  -28.8829   23.2916 C   0  0  0  0  0  0
  -18.9449  -30.1436   23.8926 C   0  0  0  0  0  0
  -17.6453  -30.6580   24.0567 C   0  0  0  0  0  0
  -25.9026  -34.9479   23.5142 C   0  0  0  0  0  0
  -16.5344  -29.9084   23.6321 C   0  0  0  0  0  0
  -16.7264  -28.6498   23.0354 C   0  0  0  0  0  0
  -26.4474  -31.6589   25.0716 C   0  0  0  0  0  0
  -25.3756  -31.3642   26.1469 C   0  0  0  0  0  0
  -27.0317  -30.3053   24.6045 C   0  0  0  0  0  0
  -27.6065  -32.4291   25.7481 C   0  0  0  0  0  0
  -27.5581  -37.1815   24.8471 C   0  0  0  0  0  0
  -21.4123  -29.3034   22.3737 N   0  0  0  0  0  0
  -26.4293  -37.3797   23.9416 N   0  0  0  0  0  0
  -24.6627  -31.0818   22.1014 N   0  0  0  0  0  0
  -23.4180  -28.8221   23.3032 O   0  0  0  0  0  0
  -28.4442  -26.7867   20.0880 O   0  0  0  0  0  0
  -26.5583  -34.8929   22.4700 O   0  0  0  0  0  0
  -23.5322  -32.1443   23.7535 O   0  0  0  0  0  0
  -27.7397  -15.7400   24.1552 C   0  0  0  0  0  0
  -28.9340  -15.2158   23.6330 C   0  0  0  0  0  0
  -27.5070  -17.1363   22.1820 C   0  0  0  0  0  0
  -27.0084  -16.6936   23.4248 C   0  0  0  0  0  0
  -28.7034  -16.6123   21.6276 C   0  0  0  0  0  0
  -29.4046  -15.6094   22.3590 C   0  0  0  0  0  0
  -28.9594  -19.6172   19.9505 C   0  0  0  0  0  0
  -26.7542  -19.6608   19.0351 C   0  0  0  0  0  0
  -27.3522  -18.2483   18.9807 C   0  0  0  0  0  0
  -27.9640  -20.5744   19.2834 C   0  0  1  0  0  0
  -31.8269  -15.4771   22.6122 C   0  0  0  0  0  0
  -27.5041  -21.7052   21.4974 C   0  0  0  0  0  0
  -29.2341  -17.1409   20.2860 C   0  0  0  0  0  0
  -28.0261  -24.3514   20.1862 C   0  0  0  0  0  0
  -28.4451  -22.9957   19.5739 C   0  0  0  0  0  0
  -28.5903  -25.5486   19.3936 C   0  0  0  0  0  0
  -25.7100  -17.2549   23.9915 C   0  0  0  0  0  0
  -28.5755  -18.3448   19.7675 N   0  0  0  0  0  0
  -30.6217  -15.0121   21.9136 N   0  0  0  0  0  0
  -27.6205  -21.8353   20.0182 N   0  3  1  0  0  0
  -29.9628  -19.9912   20.5639 O   0  0  0  0  0  0
  -25.0124  -16.2936   24.5980 F   0  0  0  0  0  0
  -25.9912  -18.2047   24.8827 F   0  0  0  0  0  0
  -24.9469  -17.7843   23.0339 F   0  0  0  0  0  0
  -31.4562  -12.4178   19.0829 H   0  0  0  0  0  0
  -30.3242  -11.2847   19.7429 H   0  0  0  0  0  0
  -29.7174  -11.8571   17.3853 H   0  0  0  0  0  0
  -29.6446  -13.5534   17.7911 H   0  0  0  0  0  0
  -27.8119  -11.3379   18.7717 H   0  0  0  0  0  0
  -27.3498  -12.7015   17.7882 H   0  0  0  0  0  0
  -27.7296  -14.2613   19.6388 H   0  0  0  0  0  0
  -28.6836  -11.8400   21.2338 H   0  0  0  0  0  0
  -28.4296  -13.3820   21.9184 H   0  0  0  0  0  0
  -25.2752   -9.5685   22.4762 H   0  0  0  0  0  0
  -23.9999   -7.4632   22.7471 H   0  0  0  0  0  0
  -21.0837   -8.8766   19.8954 H   0  0  0  0  0  0
  -22.3689  -10.9670   19.6166 H   0  0  0  0  0  0
  -21.1999   -7.6147   23.9715 H   0  0  0  0  0  0
  -21.1478   -6.0522   25.9077 H   0  0  0  0  0  0
  -22.0601   -2.7610   23.2841 H   0  0  0  0  0  0
  -22.4113  -11.9886   22.4778 H   0  0  0  0  0  0
  -21.1129  -13.1272   22.2604 H   0  0  0  0  0  0
  -24.6672  -15.8384   20.5191 H   0  0  0  0  0  0
  -26.2984  -15.6139   20.1232 H   0  0  0  0  0  0
  -26.7102  -32.5554   23.1178 H   0  0  0  0  0  0
  -25.0069  -33.9787   25.0510 H   0  0  0  0  0  0
  -22.6850  -31.3107   21.4143 H   0  0  0  0  0  0
  -23.3745  -35.9645   23.3300 H   0  0  0  0  0  0
  -24.3581  -36.8927   22.2054 H   0  0  0  0  0  0
  -23.7236  -37.6521   23.6651 H   0  0  0  0  0  0
  -26.0264  -31.6029   20.5892 H   0  0  0  0  0  0
  -26.8146  -30.8997   21.9738 H   0  0  0  0  0  0
  -28.0873  -29.1192   21.1659 H   0  0  0  0  0  0
  -26.0395  -26.0006   18.9748 H   0  0  0  0  0  0
  -23.9763  -27.2967   19.0367 H   0  0  0  0  0  0
  -23.7109  -30.6022   19.4057 H   0  0  0  0  0  0
  -22.7283  -29.2464   19.8716 H   0  0  0  0  0  0
  -25.1276  -36.1985   25.0834 H   0  0  0  0  0  0
  -20.9956  -28.3219   24.1444 H   0  0  0  0  0  0
  -20.5671  -26.2262   23.3603 H   0  0  0  0  0  0
  -21.6631  -26.7445   22.1206 H   0  0  0  0  0  0
  -19.6895  -25.6307   21.1224 H   0  0  0  0  0  0
  -19.6671  -27.3214   20.6760 H   0  0  0  0  0  0
  -17.4190  -26.6691   21.4027 H   0  0  0  0  0  0
  -18.0304  -26.0050   22.9010 H   0  0  0  0  0  0
  -19.7924  -30.7246   24.2309 H   0  0  0  0  0  0
  -17.5006  -31.6266   24.5157 H   0  0  0  0  0  0
  -15.5345  -30.2995   23.7616 H   0  0  0  0  0  0
  -15.8669  -28.0818   22.7058 H   0  0  0  0  0  0
  -24.5961  -30.6954   25.7798 H   0  0  0  0  0  0
  -24.8905  -32.2761   26.4952 H   0  0  0  0  0  0
  -25.8131  -30.8800   27.0207 H   0  0  0  0  0  0
  -26.2846  -29.6801   24.1137 H   0  0  0  0  0  0
  -27.4170  -29.7291   25.4469 H   0  0  0  0  0  0
  -27.8635  -30.4411   23.9130 H   0  0  0  0  0  0
  -27.2716  -33.3595   26.2076 H   0  0  0  0  0  0
  -28.3870  -32.6832   25.0296 H   0  0  0  0  0  0
  -28.0732  -31.8389   26.5378 H   0  0  0  0  0  0
  -28.2593  -38.0119   24.7530 H   0  0  0  0  0  0
  -28.1082  -36.2652   24.6278 H   0  0  0  0  0  0
  -27.2294  -37.1438   25.8872 H   0  0  0  0  0  0
  -20.9270  -29.8764   21.6975 H   0  0  0  0  0  0
  -26.0180  -38.2872   24.1422 H   0  0  0  0  0  0
  -27.3803  -15.4120   25.1198 H   0  0  0  0  0  0
  -29.4803  -14.4828   24.2107 H   0  0  0  0  0  0
  -26.9390  -17.8936   21.6670 H   0  0  0  0  0  0
  -26.0418  -19.7165   19.8595 H   0  0  0  0  0  0
  -26.2174  -19.9156   18.1207 H   0  0  0  0  0  0
  -27.6063  -17.9705   17.9562 H   0  0  0  0  0  0
  -26.6601  -17.5012   19.3667 H   0  0  0  0  0  0
  -28.3890  -20.8197   18.3087 H   0  0  0  0  0  0
  -32.2159  -16.3799   22.1390 H   0  0  0  0  0  0
  -32.6144  -14.7208   22.5981 H   0  0  0  0  0  0
  -31.6299  -15.7121   23.6587 H   0  0  0  0  0  0
  -26.9587  -20.8054   21.7829 H   0  0  0  0  0  0
  -26.9544  -22.5462   21.9203 H   0  0  0  0  0  0
  -28.4814  -21.6786   21.9809 H   0  0  0  0  0  0
  -29.1302  -16.3557   19.5368 H   0  0  0  0  0  0
  -30.3051  -17.3330   20.3767 H   0  0  0  0  0  0
  -28.3816  -24.4080   21.2151 H   0  0  0  0  0  0
  -26.9408  -24.4185   20.2345 H   0  0  0  0  0  0
  -29.4975  -22.8062   19.7909 H   0  0  0  0  0  0
  -28.3651  -23.0737   18.4883 H   0  0  0  0  0  0
  -28.1703  -25.6041   18.3884 H   0  0  0  0  0  0
  -29.6621  -25.4027   19.2520 H   0  0  0  0  0  0
  -26.6878  -22.0493   19.6975 H   0  0  0  0  0  0
  1 25  1  0  0  0
  1 30  2  0  0  0
  1 89  1  0  0  0
  2  3  1  0  0  0
  2 25  1  0  0  0
  2 95  1  0  0  0
  2 96  1  0  0  0
  3  4  1  0  0  0
  3 97  1  0  0  0
  3 98  1  0  0  0
  4  5  1  0  0  0
  4 99  1  0  0  0
  4100  1  0  0  0
  5  6  1  0  0  0
  5 26  1  0  0  0
  5101  1  0  0  0
  6 25  1  0  0  0
  6102  1  0  0  0
  6103  1  0  0  0
  7  8  2  0  0  0
  7 26  1  0  0  0
  7 29  1  0  0  0
  8  9  1  0  0  0
  8 22  1  0  0  0
  9 10  1  0  0  0
  9 27  2  0  0  0
 10 11  2  0  0  0
 10 15  1  0  0  0
 11 12  1  0  0  0
 11104  1  0  0  0
 12 13  2  0  0  0
 12105  1  0  0  0
 13 14  1  0  0  0
 13 31  1  0  0  0
 14 15  2  0  0  0
 14106  1  0  0  0
 15107  1  0  0  0
 16 17  2  0  0  0
 16 21  1  0  0  0
 16 31  1  0  0  0
 17 18  1  0  0  0
 17108  1  0  0  0
 18 19  2  0  0  0
 18109  1  0  0  0
 19 20  1  0  0  0
 19 24  1  0  0  0
 20 21  2  0  0  0
 20110  1  0  0  0
 21 23  1  0  0  0
 22 28  1  0  0  0
 22 32  2  0  0  0
 26 27  1  0  0  0
 28111  1  0  0  0
 28112  1  0  0  0
 29113  1  0  0  0
 29114  1  0  0  0
 33 34  1  0  0  0
 33 66  1  0  0  0
 33 70  2  0  0  0
 34 36  1  0  0  0
 34 59  1  0  0  0
 34115  1  0  0  0
 35 44  2  0  0  0
 35 45  1  0  0  0
 35 68  1  0  0  0
 36 56  1  0  0  0
 36116  1  0  0  0
 37 39  1  0  0  0
 37 47  1  0  0  0
 37 66  1  0  0  0
 37117  1  0  0  0
 38 43  2  0  0  0
 38 46  1  0  0  0
 38 47  1  0  0  0
 39 64  1  0  0  0
 39 67  2  0  0  0
 40 52  1  0  0  0
 40 53  2  0  0  0
 40 58  1  0  0  0
 41118  1  0  0  0
 41119  1  0  0  0
 41120  1  0  0  0
 41 48  1  0  0  0
 42 43  1  0  0  0
 42 66  1  0  0  0
 42121  1  0  0  0
 42122  1  0  0  0
 43 44  1  0  0  0
 44123  1  0  0  0
 45 46  2  0  0  0
 45124  1  0  0  0
 46125  1  0  0  0
 47126  1  0  0  0
 47127  1  0  0  0
 48 56  1  0  0  0
 48 65  1  0  0  0
 48128  1  0  0  0
 49 50  1  0  0  0
 49 53  1  0  0  0
 49 64  1  0  0  0
 49129  1  0  0  0
 50 51  1  0  0  0
 50130  1  0  0  0
 50131  1  0  0  0
 51 52  1  0  0  0
 51132  1  0  0  0
 51133  1  0  0  0
 52134  1  0  0  0
 52135  1  0  0  0
 53 54  1  0  0  0
 54 55  2  0  0  0
 54136  1  0  0  0
 55 57  1  0  0  0
 55137  1  0  0  0
 56 69  2  0  0  0
 57 58  2  0  0  0
 57138  1  0  0  0
 58139  1  0  0  0
 59 60  1  0  0  0
 59 61  1  0  0  0
 59 62  1  0  0  0
 60140  1  0  0  0
 60141  1  0  0  0
 60142  1  0  0  0
 61143  1  0  0  0
 61144  1  0  0  0
 61145  1  0  0  0
 62146  1  0  0  0
 62147  1  0  0  0
 62148  1  0  0  0
 63 65  1  0  0  0
 63149  1  0  0  0
 63150  1  0  0  0
 63151  1  0  0  0
 64152  1  0  0  0
 65153  1  0  0  0
 68 86  1  0  0  0
 71 72  2  0  0  0
 71 74  1  0  0  0
 71154  1  0  0  0
 72 76  1  0  0  0
 72155  1  0  0  0
 73 74  2  0  0  0
 73 75  1  0  0  0
 73156  1  0  0  0
 74 87  1  0  0  0
 75 76  2  0  0  0
 75 83  1  0  0  0
 76 89  1  0  0  0
 77 80  1  0  0  0
 77 88  1  0  0  0
 77 91  2  0  0  0
 78 79  1  0  0  0
 78157  1  0  0  0
 78158  1  0  0  0
 78 80  1  0  0  0
 79 88  1  0  0  0
 79159  1  0  0  0
 79160  1  0  0  0
 80 90  1  0  0  0
 80161  1  0  0  0
 81 89  1  0  0  0
 81162  1  0  0  0
 81163  1  0  0  0
 81164  1  0  0  0
 82165  1  0  0  0
 82166  1  0  0  0
 82167  1  0  0  0
 82 90  1  0  0  0
 83 88  1  0  0  0
 83168  1  0  0  0
 83169  1  0  0  0
 84 85  1  0  0  0
 84 86  1  0  0  0
 84170  1  0  0  0
 84171  1  0  0  0
 85 90  1  0  0  0
 85172  1  0  0  0
 85173  1  0  0  0
 86174  1  0  0  0
 86175  1  0  0  0
 87 92  1  0  0  0
 87 93  1  0  0  0
 87 94  1  0  0  0
 90176  1  0  0  0
M  CHG  1  90   1
M  ISO  4   1 100  68 101  86 101  89 100
M  END
> <chiral flag>
0

> <version>
0

> <s_m_source_file>
/data/baiqing/PycharmProjects/Reinvent-master-3.2/result/LINK_invent/BTK/process_docking_weight1_custom_product_contain_oxygen_bond_distance_aromatic_linkinvent_7_9_3/rearranged_h_0016.sdf

> <i_m_source_file_index>
78

> <r_mmod_Potential_Energy-OPLS-2005>
-3.37651205062866

> <r_mmod_Stretch_Energy-OPLS-2005>
41.0991706848145

> <r_mmod_Bend_Energy-OPLS-2005>
154.378219604492

> <r_mmod_Torsional_Energy-OPLS-2005>
297.820343017578

> <r_mmod_Improper_Torsional_Energy-OPLS-2005>
4.60998106002808

> <r_mmod_Van_der_Waal_Energy-OPLS-2005>
149.060836791992

> <r_mmod_Electrostatic_Energy-OPLS-2005>
-208.754608154297

> <r_mmod_Solvation_Energy-OPLS-2005>
-450.866729736328

> <b_mmod_Minimization_Converged-OPLS-2005>
0

> <r_mmod_RMS_Derivative-OPLS-2005>
0.864909470081329

$$$$
78
                    3D
 Structure written by MMmdl.
173182  0  0  1  0            999 V2000
  -30.6476  -14.6320   20.5349 C   0  0  0  0  0  0
  -30.4166  -12.3961   19.4417 C   0  0  0  0  0  0
  -29.4825  -12.5008   18.2178 C   0  0  0  0  0  0
  -28.0109  -12.3263   18.6370 C   0  0  0  0  0  0
  -27.6313  -13.2239   19.8381 C   0  0  2  0  0  0
  -28.6690  -13.1034   20.9678 C   0  0  0  0  0  0
  -25.2425  -13.8219   20.5653 C   0  0  0  0  0  0
  -24.1718  -13.0426   20.9211 C   0  0  0  0  0  0
  -24.6320  -11.6929   20.8731 C   0  0  0  0  0  0
  -23.9052  -10.4276   21.0353 C   0  0  0  0  0  0
  -24.3641   -9.4183   21.9075 C   0  0  0  0  0  0
  -23.6265   -8.2271   22.0731 C   0  0  0  0  0  0
  -22.4245   -8.0312   21.3519 C   0  0  0  0  0  0
  -21.9851   -9.0298   20.4660 C   0  0  0  0  0  0
  -22.7207  -10.2158   20.3052 C   0  0  0  0  0  0
  -21.6864   -6.0770   22.5290 C   0  0  0  0  0  0
  -21.4067   -6.5693   23.8233 C   0  0  0  0  0  0
  -21.3626   -5.6841   24.9193 C   0  0  0  0  0  0
  -21.6017   -4.3095   24.7245 C   0  0  0  0  0  0
  -21.8789   -3.8168   23.4387 C   0  0  0  0  0  0
  -21.9181   -4.6991   22.3430 C   0  0  0  0  0  0
  -22.7756  -13.5197   21.1854 C   0  0  0  0  0  0
  -22.1655   -4.2166   21.1004 F   0  0  0  0  0  0
  -21.5561   -3.4588   25.7750 F   0  0  0  0  0  0
  -29.9910  -13.4310   20.4130 N   0  0  0  0  0  0
  -26.2832  -12.9401   20.3160 N   0  0  0  0  0  0
  -25.9226  -11.6566   20.5662 N   0  0  0  0  0  0
  -22.0377  -12.8152   22.0388 N   0  0  0  0  0  0
  -25.4041  -15.1949   20.4184 N   0  0  0  0  0  0
  -31.7704  -14.7824   20.0432 O   0  0  0  0  0  0
  -21.6623   -6.8886   21.4235 O   0  0  0  0  0  0
  -22.3444  -14.5476   20.6677 O   0  0  0  0  0  0
  -24.6296  -31.8596   23.1932 C   0  0  0  0  0  0
  -25.9133  -32.4748   23.8281 C   0  0  1  0  0  0
  -27.1897  -27.2715   20.1196 C   0  0  0  0  0  0
  -25.5968  -33.8533   24.2256 N   0  0  0  0  0  0
  -23.4260  -30.4827   21.5349 C   0  0  2  0  0  0
  -24.8632  -28.9330   20.1019 C   0  0  0  0  0  0
  -22.7521  -29.4615   22.4847 C   0  0  0  0  0  0
  -18.0315  -28.1404   22.8459 C   0  0  0  0  0  0
  -24.1492  -36.7286   23.2640 C   0  0  0  0  0  0
  -25.9713  -30.7732   21.3671 C   0  0  0  0  0  0
  -26.0359  -29.3982   20.7128 C   0  0  0  0  0  0
  -27.2079  -28.5776   20.7082 C   0  0  0  0  0  0
  -26.0051  -26.8726   19.4758 C   0  0  0  0  0  0
  -24.8514  -27.6787   19.4723 C   0  0  0  0  0  0
  -23.6346  -29.8203   20.1489 C   0  0  0  0  0  0
  -25.4120  -36.3063   24.0329 C   0  0  1  0  0  0
  -20.5922  -28.3705   23.1276 C   0  0  2  0  0  0
  -20.6810  -26.9408   22.5428 C   0  0  0  0  0  0
  -19.5767  -26.6391   21.5242 C   0  0  0  0  0  0
  -18.1934  -26.7939   22.1605 C   0  0  0  0  0  0
  -19.1578  -28.8871   23.2858 C   0  0  0  0  0  0
  -18.9468  -30.1474   23.8862 C   0  0  0  0  0  0
  -17.6466  -30.6590   24.0552 C   0  0  0  0  0  0
  -25.9052  -34.9438   23.5093 C   0  0  0  0  0  0
  -16.5356  -29.9084   23.6324 C   0  0  0  0  0  0
  -16.7300  -28.6524   23.0302 C   0  0  0  0  0  0
  -26.4472  -31.6546   25.0680 C   0  0  0  0  0  0
  -25.3668  -31.3697   26.1386 C   0  0  0  0  0  0
  -27.0352  -30.2976   24.6162 C   0  0  0  0  0  0
  -27.6043  -32.4275   25.7445 C   0  0  0  0  0  0
  -27.5570  -37.1792   24.8469 C   0  0  0  0  0  0
  -21.4224  -29.3051   22.3659 N   0  0  0  0  0  0
  -26.4307  -37.3755   23.9413 N   0  0  0  0  0  0
  -24.6946  -31.0569   22.0883 N   0  0  0  0  0  0
  -23.4235  -28.8138   23.2913 O   0  0  0  0  0  0
  -28.2636  -26.3671   20.1401 O   0  0  0  0  0  0
  -26.5628  -34.8912   22.4664 O   0  0  0  0  0  0
  -23.5457  -32.1444   23.7246 O   0  0  0  0  0  0
  -29.8466  -19.1574   19.6464 C   0  0  0  0  0  0
  -30.2464  -17.7960   19.8685 C   0  0  0  0  0  0
  -28.4566  -17.5534   21.4400 C   0  0  0  0  0  0
  -28.0632  -18.9211   21.2577 C   0  0  0  0  0  0
  -28.7668  -19.7777   20.3443 C   0  0  0  0  0  0
  -29.5744  -16.9546   20.8001 C   0  0  0  0  0  0
  -28.8720  -22.3541   20.5226 C   0  0  0  0  0  0
  -27.2153  -23.0211   18.9278 C   0  0  0  0  0  0
  -27.3057  -21.4706   19.0707 C   0  0  0  0  0  0
  -28.3537  -23.6405   19.7705 C   0  0  1  0  0  0
  -29.6265  -14.9747   23.6872 C   0  0  0  0  0  0
  -28.3911  -19.8219   24.0602 C   0  0  0  0  0  0
  -25.9648  -19.7914   24.3655 C   0  0  0  0  0  0
  -26.8875  -19.4185   22.1056 C   0  0  0  0  0  0
  -27.9940  -24.9711   20.6208 C   0  0  0  0  0  0
  -30.5439  -15.6845   22.6752 C   0  0  0  0  0  0
  -28.3655  -21.1734   20.0411 N   0  0  0  0  0  0
  -30.0617  -15.6406   21.2785 N   0  0  0  0  0  0
  -27.1041  -19.2747   23.5735 N   0  3  0  0  0  0
  -29.6774  -22.4323   21.4548 O   0  0  0  0  0  0
  -31.4585  -12.5134   19.1360 H   0  0  0  0  0  0
  -30.3447  -11.4029   19.8890 H   0  0  0  0  0  0
  -29.7422  -11.7462   17.4764 H   0  0  0  0  0  0
  -29.6151  -13.4685   17.7327 H   0  0  0  0  0  0
  -27.8767  -11.2812   18.9118 H   0  0  0  0  0  0
  -27.3402  -12.4995   17.7945 H   0  0  0  0  0  0
  -27.6390  -14.2544   19.4813 H   0  0  0  0  0  0
  -28.6717  -12.0990   21.3928 H   0  0  0  0  0  0
  -28.3616  -13.7677   21.7644 H   0  0  0  0  0  0
  -25.2833   -9.5631   22.4584 H   0  0  0  0  0  0
  -23.9970   -7.4679   22.7462 H   0  0  0  0  0  0
  -21.0781   -8.8882   19.8977 H   0  0  0  0  0  0
  -22.3642  -10.9793   19.6269 H   0  0  0  0  0  0
  -21.2110   -7.6194   23.9778 H   0  0  0  0  0  0
  -21.1443   -6.0559   25.9103 H   0  0  0  0  0  0
  -22.0521   -2.7631   23.2914 H   0  0  0  0  0  0
  -22.3921  -11.9805   22.4770 H   0  0  0  0  0  0
  -21.1009  -13.1182   22.2554 H   0  0  0  0  0  0
  -24.6178  -15.8268   20.5208 H   0  0  0  0  0  0
  -26.2454  -15.6587   20.0999 H   0  0  0  0  0  0
  -26.7200  -32.5388   23.1013 H   0  0  0  0  0  0
  -25.0201  -33.9611   25.0454 H   0  0  0  0  0  0
  -22.7237  -31.3059   21.3925 H   0  0  0  0  0  0
  -23.3721  -35.9630   23.3312 H   0  0  0  0  0  0
  -24.3619  -36.8922   22.2055 H   0  0  0  0  0  0
  -23.7258  -37.6500   23.6682 H   0  0  0  0  0  0
  -26.1350  -31.5278   20.5970 H   0  0  0  0  0  0
  -26.8386  -30.8125   22.0132 H   0  0  0  0  0  0
  -28.1121  -28.9146   21.1998 H   0  0  0  0  0  0
  -25.9598  -25.9123   18.9791 H   0  0  0  0  0  0
  -23.9540  -27.3176   18.9910 H   0  0  0  0  0  0
  -23.7590  -30.5991   19.3973 H   0  0  0  0  0  0
  -22.7500  -29.2598   19.8432 H   0  0  0  0  0  0
  -25.1276  -36.1930   25.0818 H   0  0  0  0  0  0
  -21.0038  -28.3279   24.1384 H   0  0  0  0  0  0
  -20.5795  -26.2245   23.3617 H   0  0  0  0  0  0
  -21.6646  -26.7478   22.1137 H   0  0  0  0  0  0
  -19.6935  -25.6333   21.1247 H   0  0  0  0  0  0
  -19.6714  -27.3179   20.6803 H   0  0  0  0  0  0
  -17.4213  -26.6716   21.3998 H   0  0  0  0  0  0
  -18.0275  -26.0108   22.9039 H   0  0  0  0  0  0
  -19.7943  -30.7330   24.2154 H   0  0  0  0  0  0
  -17.5005  -31.6225   24.5208 H   0  0  0  0  0  0
  -15.5343  -30.2940   23.7706 H   0  0  0  0  0  0
  -15.8711  -28.0869   22.6978 H   0  0  0  0  0  0
  -24.5874  -30.7035   25.7692 H   0  0  0  0  0  0
  -24.8767  -32.2832   26.4769 H   0  0  0  0  0  0
  -25.7921  -30.8907   27.0205 H   0  0  0  0  0  0
  -26.2955  -29.6696   24.1198 H   0  0  0  0  0  0
  -27.4090  -29.7301   25.4690 H   0  0  0  0  0  0
  -27.8781  -30.4296   23.9377 H   0  0  0  0  0  0
  -27.2740  -33.3651   26.1920 H   0  0  0  0  0  0
  -28.3877  -32.6699   25.0265 H   0  0  0  0  0  0
  -28.0660  -31.8436   26.5423 H   0  0  0  0  0  0
  -28.2575  -38.0101   24.7532 H   0  0  0  0  0  0
  -28.1079  -36.2636   24.6271 H   0  0  0  0  0  0
  -27.2307  -37.1427   25.8878 H   0  0  0  0  0  0
  -20.9406  -29.8813   21.6880 H   0  0  0  0  0  0
  -26.0174  -38.2847   24.1358 H   0  0  0  0  0  0
  -30.3978  -19.7450   18.9230 H   0  0  0  0  0  0
  -31.1072  -17.4147   19.3388 H   0  0  0  0  0  0
  -27.9099  -16.9424   22.1441 H   0  0  0  0  0  0
  -26.2391  -23.3722   19.2599 H   0  0  0  0  0  0
  -27.3187  -23.3146   17.8796 H   0  0  0  0  0  0
  -27.5082  -20.9990   18.1049 H   0  0  0  0  0  0
  -26.3597  -21.0550   19.4276 H   0  0  0  0  0  0
  -29.1731  -23.8969   19.0965 H   0  0  0  0  0  0
  -29.9669  -15.1511   24.7082 H   0  0  0  0  0  0
  -29.6216  -13.8937   23.5445 H   0  0  0  0  0  0
  -28.5975  -15.3319   23.6363 H   0  0  0  0  0  0
  -28.4388  -19.7993   25.1523 H   0  0  0  0  0  0
  -28.5304  -20.8558   23.7436 H   0  0  0  0  0  0
  -29.2298  -19.2345   23.6872 H   0  0  0  0  0  0
  -26.0415  -19.4600   25.4047 H   0  0  0  0  0  0
  -25.0054  -19.4377   23.9834 H   0  0  0  0  0  0
  -25.9484  -20.8825   24.3617 H   0  0  0  0  0  0
  -26.0162  -18.8251   21.8277 H   0  0  0  0  0  0
  -26.6445  -20.4557   21.8780 H   0  0  0  0  0  0
  -28.5643  -24.9037   21.5461 H   0  0  0  0  0  0
  -26.9604  -24.8928   20.9659 H   0  0  0  0  0  0
  -31.5501  -15.2653   22.7481 H   0  0  0  0  0  0
  -30.6587  -16.7267   22.9821 H   0  0  0  0  0  0
  -27.1242  -18.2826   23.7612 H   0  0  0  0  0  0
  1 25  1  0  0  0
  1 30  2  0  0  0
  1 88  1  0  0  0
  2  3  1  0  0  0
  2 25  1  0  0  0
  2 91  1  0  0  0
  2 92  1  0  0  0
  3  4  1  0  0  0
  3 93  1  0  0  0
  3 94  1  0  0  0
  4  5  1  0  0  0
  4 95  1  0  0  0
  4 96  1  0  0  0
  5  6  1  0  0  0
  5 26  1  0  0  0
  5 97  1  0  0  0
  6 25  1  0  0  0
  6 98  1  0  0  0
  6 99  1  0  0  0
  7  8  2  0  0  0
  7 26  1  0  0  0
  7 29  1  0  0  0
  8  9  1  0  0  0
  8 22  1  0  0  0
  9 10  1  0  0  0
  9 27  2  0  0  0
 10 11  2  0  0  0
 10 15  1  0  0  0
 11 12  1  0  0  0
 11100  1  0  0  0
 12 13  2  0  0  0
 12101  1  0  0  0
 13 14  1  0  0  0
 13 31  1  0  0  0
 14 15  2  0  0  0
 14102  1  0  0  0
 15103  1  0  0  0
 16 17  2  0  0  0
 16 21  1  0  0  0
 16 31  1  0  0  0
 17 18  1  0  0  0
 17104  1  0  0  0
 18 19  2  0  0  0
 18105  1  0  0  0
 19 20  1  0  0  0
 19 24  1  0  0  0
 20 21  2  0  0  0
 20106  1  0  0  0
 21 23  1  0  0  0
 22 28  1  0  0  0
 22 32  2  0  0  0
 26 27  1  0  0  0
 28107  1  0  0  0
 28108  1  0  0  0
 29109  1  0  0  0
 29110  1  0  0  0
 33 34  1  0  0  0
 33 66  1  0  0  0
 33 70  2  0  0  0
 34 36  1  0  0  0
 34 59  1  0  0  0
 34111  1  0  0  0
 35 44  2  0  0  0
 35 45  1  0  0  0
 35 68  1  0  0  0
 36 56  1  0  0  0
 36112  1  0  0  0
 37 39  1  0  0  0
 37 47  1  0  0  0
 37 66  1  0  0  0
 37113  1  0  0  0
 38 43  2  0  0  0
 38 46  1  0  0  0
 38 47  1  0  0  0
 39 64  1  0  0  0
 39 67  2  0  0  0
 40 52  1  0  0  0
 40 53  2  0  0  0
 40 58  1  0  0  0
 41114  1  0  0  0
 41115  1  0  0  0
 41116  1  0  0  0
 41 48  1  0  0  0
 42 43  1  0  0  0
 42 66  1  0  0  0
 42117  1  0  0  0
 42118  1  0  0  0
 43 44  1  0  0  0
 44119  1  0  0  0
 45 46  2  0  0  0
 45120  1  0  0  0
 46121  1  0  0  0
 47122  1  0  0  0
 47123  1  0  0  0
 48 56  1  0  0  0
 48 65  1  0  0  0
 48124  1  0  0  0
 49 50  1  0  0  0
 49 53  1  0  0  0
 49 64  1  0  0  0
 49125  1  0  0  0
 50 51  1  0  0  0
 50126  1  0  0  0
 50127  1  0  0  0
 51 52  1  0  0  0
 51128  1  0  0  0
 51129  1  0  0  0
 52130  1  0  0  0
 52131  1  0  0  0
 53 54  1  0  0  0
 54 55  2  0  0  0
 54132  1  0  0  0
 55 57  1  0  0  0
 55133  1  0  0  0
 56 69  2  0  0  0
 57 58  2  0  0  0
 57134  1  0  0  0
 58135  1  0  0  0
 59 60  1  0  0  0
 59 61  1  0  0  0
 59 62  1  0  0  0
 60136  1  0  0  0
 60137  1  0  0  0
 60138  1  0  0  0
 61139  1  0  0  0
 61140  1  0  0  0
 61141  1  0  0  0
 62142  1  0  0  0
 62143  1  0  0  0
 62144  1  0  0  0
 63 65  1  0  0  0
 63145  1  0  0  0
 63146  1  0  0  0
 63147  1  0  0  0
 64148  1  0  0  0
 65149  1  0  0  0
 68 85  1  0  0  0
 71 72  2  0  0  0
 71 75  1  0  0  0
 71150  1  0  0  0
 72 76  1  0  0  0
 72151  1  0  0  0
 73 74  1  0  0  0
 73 76  2  0  0  0
 73152  1  0  0  0
 74 75  2  0  0  0
 74 84  1  0  0  0
 75 87  1  0  0  0
 76 88  1  0  0  0
 77 80  1  0  0  0
 77 87  1  0  0  0
 77 90  2  0  0  0
 78 79  1  0  0  0
 78 80  1  0  0  0
 78153  1  0  0  0
 78154  1  0  0  0
 79 87  1  0  0  0
 79155  1  0  0  0
 79156  1  0  0  0
 80 85  1  0  0  0
 80157  1  0  0  0
 81 86  1  0  0  0
 81158  1  0  0  0
 81159  1  0  0  0
 81160  1  0  0  0
 82161  1  0  0  0
 82162  1  0  0  0
 82163  1  0  0  0
 82 89  1  0  0  0
 83 89  1  0  0  0
 83164  1  0  0  0
 83165  1  0  0  0
 83166  1  0  0  0
 84 89  1  0  0  0
 84167  1  0  0  0
 84168  1  0  0  0
 85169  1  0  0  0
 85170  1  0  0  0
 86 88  1  0  0  0
 86171  1  0  0  0
 86172  1  0  0  0
 89173  1  0  0  0
M  CHG  1  89   1
M  ISO  4   1 100  68 101  85 101  88 100
M  END
> <chiral flag>
0

> <version>
0

> <s_m_source_file>
/data/baiqing/PycharmProjects/Reinvent-master-3.2/result/LINK_invent/BTK/process_docking_weight1_custom_product_contain_oxygen_bond_distance_aromatic_linkinvent_7_9_3/rearranged_h_0016.sdf

> <i_m_source_file_index>
79

> <r_mmod_Potential_Energy-OPLS-2005>
278.113220214844

> <r_mmod_Stretch_Energy-OPLS-2005>
105.443901062012

> <r_mmod_Bend_Energy-OPLS-2005>
181.619277954102

> <r_mmod_Torsional_Energy-OPLS-2005>
406.391235351562

> <r_mmod_Improper_Torsional_Energy-OPLS-2005>
5.59447383880615

> <r_mmod_Van_der_Waal_Energy-OPLS-2005>
125.642776489258

> <r_mmod_Electrostatic_Energy-OPLS-2005>
-162.975219726562

> <r_mmod_Solvation_Energy-OPLS-2005>
-445.562042236328

> <b_mmod_Minimization_Converged-OPLS-2005>
0

> <r_mmod_RMS_Derivative-OPLS-2005>
7.35580587387085

$$$$
79
                    3D
 Structure written by MMmdl.
159168  0  0  1  0            999 V2000
  -30.5899  -14.7503   20.3548 C   0  0  0  0  0  0
  -30.4388  -12.4238   19.4704 C   0  0  0  0  0  0
  -29.5037  -12.3826   18.2407 C   0  0  0  0  0  0
  -28.0237  -12.2775   18.6639 C   0  0  0  0  0  0
  -27.6305  -13.2030   19.8492 C   0  0  2  0  0  0
  -28.6926  -13.1821   20.9681 C   0  0  0  0  0  0
  -25.2486  -13.8065   20.5772 C   0  0  0  0  0  0
  -24.1743  -13.0349   20.9279 C   0  0  0  0  0  0
  -24.6313  -11.6836   20.8827 C   0  0  0  0  0  0
  -23.8990  -10.4230   21.0455 C   0  0  0  0  0  0
  -24.3554   -9.4158   21.9233 C   0  0  0  0  0  0
  -23.6229   -8.2197   22.0781 C   0  0  0  0  0  0
  -22.4235   -8.0231   21.3543 C   0  0  0  0  0  0
  -21.9860   -9.0214   20.4665 C   0  0  0  0  0  0
  -22.7179  -10.2089   20.3081 C   0  0  0  0  0  0
  -21.6822   -6.0696   22.5278 C   0  0  0  0  0  0
  -21.4008   -6.5624   23.8204 C   0  0  0  0  0  0
  -21.3635   -5.6794   24.9179 C   0  0  0  0  0  0
  -21.6026   -4.3058   24.7249 C   0  0  0  0  0  0
  -21.8807   -3.8126   23.4386 C   0  0  0  0  0  0
  -21.9185   -4.6929   22.3425 C   0  0  0  0  0  0
  -22.7790  -13.5193   21.1897 C   0  0  0  0  0  0
  -22.1660   -4.2106   21.1009 F   0  0  0  0  0  0
  -21.5622   -3.4550   25.7776 F   0  0  0  0  0  0
  -29.9793  -13.5174   20.3503 N   0  0  0  0  0  0
  -26.2890  -12.9215   20.3398 N   0  0  0  0  0  0
  -25.9247  -11.6396   20.5878 N   0  0  0  0  0  0
  -22.0413  -12.8176   22.0434 N   0  0  0  0  0  0
  -25.4183  -15.1754   20.4134 N   0  0  0  0  0  0
  -31.8171  -14.8218   20.2506 O   0  0  0  0  0  0
  -21.6602   -6.8835   21.4228 O   0  0  0  0  0  0
  -22.3521  -14.5531   20.6782 O   0  0  0  0  0  0
  -24.6245  -31.8587   23.1981 C   0  0  0  0  0  0
  -25.9085  -32.4783   23.8348 C   0  0  1  0  0  0
  -27.2430  -27.3385   20.1265 C   0  0  0  0  0  0
  -25.5888  -33.8576   24.2301 N   0  0  0  0  0  0
  -23.4171  -30.4699   21.5435 C   0  0  2  0  0  0
  -24.8673  -28.9179   20.1143 C   0  0  0  0  0  0
  -22.7462  -29.4564   22.5013 C   0  0  0  0  0  0
  -18.0279  -28.1349   22.8493 C   0  0  0  0  0  0
  -24.1459  -36.7288   23.2629 C   0  0  0  0  0  0
  -25.9513  -30.7968   21.3621 C   0  0  0  0  0  0
  -26.0294  -29.4223   20.7100 C   0  0  0  0  0  0
  -27.2160  -28.6399   20.7057 C   0  0  0  0  0  0
  -26.0604  -26.8679   19.5166 C   0  0  0  0  0  0
  -24.8810  -27.6471   19.5085 C   0  0  0  0  0  0
  -23.6275  -29.7840   20.1666 C   0  0  0  0  0  0
  -25.4080  -36.3083   24.0331 C   0  0  1  0  0  0
  -20.5865  -28.3614   23.1319 C   0  0  2  0  0  0
  -20.6749  -26.9352   22.5403 C   0  0  0  0  0  0
  -19.5737  -26.6341   21.5197 C   0  0  0  0  0  0
  -18.1904  -26.7902   22.1595 C   0  0  0  0  0  0
  -19.1532  -28.8814   23.2880 C   0  0  0  0  0  0
  -18.9456  -30.1423   23.8870 C   0  0  0  0  0  0
  -17.6458  -30.6558   24.0543 C   0  0  0  0  0  0
  -25.9001  -34.9459   23.5109 C   0  0  0  0  0  0
  -16.5345  -29.9039   23.6349 C   0  0  0  0  0  0
  -16.7267  -28.6453   23.0383 C   0  0  0  0  0  0
  -26.4476  -31.6624   25.0762 C   0  0  0  0  0  0
  -25.3712  -31.3752   26.1523 C   0  0  0  0  0  0
  -27.0343  -30.3061   24.6196 C   0  0  0  0  0  0
  -27.6014  -32.4407   25.7528 C   0  0  0  0  0  0
  -27.5580  -37.1765   24.8463 C   0  0  0  0  0  0
  -21.4176  -29.2976   22.3760 N   0  0  0  0  0  0
  -26.4286  -37.3771   23.9431 N   0  0  0  0  0  0
  -24.6816  -31.0602   22.0918 N   0  0  0  0  0  0
  -23.4207  -28.8096   23.3075 O   0  0  0  0  0  0
  -28.4122  -26.5774   20.2134 O   0  0  0  0  0  0
  -26.5557  -34.8926   22.4670 O   0  0  0  0  0  0
  -23.5415  -32.1401   23.7307 O   0  0  0  0  0  0
  -27.9578  -19.0249   20.6421 C   0  0  0  0  0  0
  -28.2777  -17.6428   20.5224 C   0  0  0  0  0  0
  -30.2791  -19.5791   20.4836 C   0  0  0  0  0  0
  -28.9377  -20.0559   20.5899 C   0  0  0  0  0  0
  -29.6051  -17.1665   20.3692 C   0  0  0  0  0  0
  -30.6086  -18.1820   20.3828 C   0  0  0  0  0  0
  -27.0428  -23.3555   20.6544 C   0  0  0  0  0  0
  -27.2275  -21.8879   21.0946 C   0  0  0  0  0  0
  -29.3041  -22.6611   20.2065 C   0  0  0  0  0  0
  -28.4557  -23.9449   20.5802 C   0  0  1  0  0  0
  -29.6548  -15.7825   18.3936 C   0  0  0  0  0  0
  -28.5842  -25.2320   19.6509 C   0  0  0  0  0  0
  -28.5511  -21.4548   20.6373 N   0  0  0  0  0  0
  -29.8111  -15.7965   19.8631 N   0  0  0  0  0  0
  -31.9077  -17.8341   20.2223 F   0  0  0  0  0  0
  -31.4725  -12.5647   19.1516 H   0  0  0  0  0  0
  -30.4075  -11.4726   20.0058 H   0  0  0  0  0  0
  -29.7568  -11.5150   17.6316 H   0  0  0  0  0  0
  -29.6574  -13.2407   17.5918 H   0  0  0  0  0  0
  -27.8645  -11.2377   18.9524 H   0  0  0  0  0  0
  -27.3697  -12.4491   17.8088 H   0  0  0  0  0  0
  -27.5854  -14.2128   19.4590 H   0  0  0  0  0  0
  -28.7425  -12.2028   21.4452 H   0  0  0  0  0  0
  -28.4448  -13.9052   21.7474 H   0  0  0  0  0  0
  -25.2692   -9.5630   22.4829 H   0  0  0  0  0  0
  -23.9909   -7.4582   22.7513 H   0  0  0  0  0  0
  -21.0792   -8.8740   19.8984 H   0  0  0  0  0  0
  -22.3640  -10.9642   19.6207 H   0  0  0  0  0  0
  -21.2011   -7.6138   23.9690 H   0  0  0  0  0  0
  -21.1463   -6.0552   25.9066 H   0  0  0  0  0  0
  -22.0603   -2.7588   23.2921 H   0  0  0  0  0  0
  -22.3982  -11.9787   22.4772 H   0  0  0  0  0  0
  -21.1060  -13.1255   22.2701 H   0  0  0  0  0  0
  -24.6583  -15.8360   20.5254 H   0  0  0  0  0  0
  -26.2626  -15.5924   20.0450 H   0  0  0  0  0  0
  -26.7148  -32.5510   23.1103 H   0  0  0  0  0  0
  -25.0185  -33.9694   25.0556 H   0  0  0  0  0  0
  -22.7076  -31.2856   21.3901 H   0  0  0  0  0  0
  -23.3747  -35.9605   23.3307 H   0  0  0  0  0  0
  -24.3530  -36.8903   22.2039 H   0  0  0  0  0  0
  -23.7206  -37.6474   23.6666 H   0  0  0  0  0  0
  -26.0778  -31.5525   20.5872 H   0  0  0  0  0  0
  -26.8335  -30.8531   21.9879 H   0  0  0  0  0  0
  -28.1114  -29.0221   21.1738 H   0  0  0  0  0  0
  -26.0179  -25.8837   19.0730 H   0  0  0  0  0  0
  -23.9866  -27.2462   19.0515 H   0  0  0  0  0  0
  -23.7215  -30.5442   19.3912 H   0  0  0  0  0  0
  -22.7586  -29.1824   19.8935 H   0  0  0  0  0  0
  -25.1250  -36.1909   25.0822 H   0  0  0  0  0  0
  -20.9948  -28.3151   24.1456 H   0  0  0  0  0  0
  -20.5607  -26.2211   23.3574 H   0  0  0  0  0  0
  -21.6622  -26.7366   22.1234 H   0  0  0  0  0  0
  -19.6882  -25.6242   21.1246 H   0  0  0  0  0  0
  -19.6711  -27.3146   20.6734 H   0  0  0  0  0  0
  -17.4190  -26.6695   21.3973 H   0  0  0  0  0  0
  -18.0266  -26.0029   22.8966 H   0  0  0  0  0  0
  -19.7940  -30.7231   24.2253 H   0  0  0  0  0  0
  -17.5016  -31.6265   24.5095 H   0  0  0  0  0  0
  -15.5342  -30.2911   23.7701 H   0  0  0  0  0  0
  -15.8664  -28.0728   22.7175 H   0  0  0  0  0  0
  -24.5877  -30.7079   25.7910 H   0  0  0  0  0  0
  -24.8903  -32.2903   26.4990 H   0  0  0  0  0  0
  -25.8045  -30.8951   27.0301 H   0  0  0  0  0  0
  -26.2949  -29.6785   24.1199 H   0  0  0  0  0  0
  -27.4037  -29.7337   25.4702 H   0  0  0  0  0  0
  -27.8792  -30.4400   23.9432 H   0  0  0  0  0  0
  -27.2633  -33.3746   26.2063 H   0  0  0  0  0  0
  -28.3849  -32.6932   25.0360 H   0  0  0  0  0  0
  -28.0667  -31.8576   26.5490 H   0  0  0  0  0  0
  -28.2573  -38.0079   24.7577 H   0  0  0  0  0  0
  -28.1082  -36.2619   24.6223 H   0  0  0  0  0  0
  -27.2288  -37.1353   25.8850 H   0  0  0  0  0  0
  -20.9347  -29.8740   21.6999 H   0  0  0  0  0  0
  -26.0156  -38.2832   24.1477 H   0  0  0  0  0  0
  -26.9107  -19.2770   20.7204 H   0  0  0  0  0  0
  -27.4627  -16.9425   20.4733 H   0  0  0  0  0  0
  -31.0914  -20.2895   20.4573 H   0  0  0  0  0  0
  -26.3822  -23.9211   21.3188 H   0  0  0  0  0  0
  -26.5764  -23.3727   19.6674 H   0  0  0  0  0  0
  -26.4118  -21.2983   20.6784 H   0  0  0  0  0  0
  -27.1857  -21.7995   22.1824 H   0  0  0  0  0  0
  -30.2795  -22.7051   20.6913 H   0  0  0  0  0  0
  -29.4801  -22.6291   19.1320 H   0  0  0  0  0  0
  -28.7501  -24.2252   21.5919 H   0  0  0  0  0  0
  -28.7415  -15.2803   18.0845 H   0  0  0  0  0  0
  -30.4881  -15.2953   17.8813 H   0  0  0  0  0  0
  -29.5929  -16.7893   17.9756 H   0  0  0  0  0  0
  -28.0191  -25.0989   18.7309 H   0  0  0  0  0  0
  -29.6217  -25.2553   19.3108 H   0  0  0  0  0  0
  1 25  1  0  0  0
  1 30  2  0  0  0
  1 84  1  0  0  0
  2  3  1  0  0  0
  2 25  1  0  0  0
  2 86  1  0  0  0
  2 87  1  0  0  0
  3  4  1  0  0  0
  3 88  1  0  0  0
  3 89  1  0  0  0
  4  5  1  0  0  0
  4 90  1  0  0  0
  4 91  1  0  0  0
  5  6  1  0  0  0
  5 26  1  0  0  0
  5 92  1  0  0  0
  6 25  1  0  0  0
  6 93  1  0  0  0
  6 94  1  0  0  0
  7  8  2  0  0  0
  7 26  1  0  0  0
  7 29  1  0  0  0
  8  9  1  0  0  0
  8 22  1  0  0  0
  9 10  1  0  0  0
  9 27  2  0  0  0
 10 11  2  0  0  0
 10 15  1  0  0  0
 11 12  1  0  0  0
 11 95  1  0  0  0
 12 13  2  0  0  0
 12 96  1  0  0  0
 13 14  1  0  0  0
 13 31  1  0  0  0
 14 15  2  0  0  0
 14 97  1  0  0  0
 15 98  1  0  0  0
 16 17  2  0  0  0
 16 21  1  0  0  0
 16 31  1  0  0  0
 17 18  1  0  0  0
 17 99  1  0  0  0
 18 19  2  0  0  0
 18100  1  0  0  0
 19 20  1  0  0  0
 19 24  1  0  0  0
 20 21  2  0  0  0
 20101  1  0  0  0
 21 23  1  0  0  0
 22 28  1  0  0  0
 22 32  2  0  0  0
 26 27  1  0  0  0
 28102  1  0  0  0
 28103  1  0  0  0
 29104  1  0  0  0
 29105  1  0  0  0
 33 34  1  0  0  0
 33 66  1  0  0  0
 33 70  2  0  0  0
 34 36  1  0  0  0
 34 59  1  0  0  0
 34106  1  0  0  0
 35 44  2  0  0  0
 35 45  1  0  0  0
 35 68  1  0  0  0
 36 56  1  0  0  0
 36107  1  0  0  0
 37 39  1  0  0  0
 37 47  1  0  0  0
 37 66  1  0  0  0
 37108  1  0  0  0
 38 43  2  0  0  0
 38 46  1  0  0  0
 38 47  1  0  0  0
 39 64  1  0  0  0
 39 67  2  0  0  0
 40 52  1  0  0  0
 40 53  2  0  0  0
 40 58  1  0  0  0
 41109  1  0  0  0
 41110  1  0  0  0
 41111  1  0  0  0
 41 48  1  0  0  0
 42 43  1  0  0  0
 42 66  1  0  0  0
 42112  1  0  0  0
 42113  1  0  0  0
 43 44  1  0  0  0
 44114  1  0  0  0
 45 46  2  0  0  0
 45115  1  0  0  0
 46116  1  0  0  0
 47117  1  0  0  0
 47118  1  0  0  0
 48 56  1  0  0  0
 48 65  1  0  0  0
 48119  1  0  0  0
 49 50  1  0  0  0
 49 53  1  0  0  0
 49 64  1  0  0  0
 49120  1  0  0  0
 50 51  1  0  0  0
 50121  1  0  0  0
 50122  1  0  0  0
 51 52  1  0  0  0
 51123  1  0  0  0
 51124  1  0  0  0
 52125  1  0  0  0
 52126  1  0  0  0
 53 54  1  0  0  0
 54 55  2  0  0  0
 54127  1  0  0  0
 55 57  1  0  0  0
 55128  1  0  0  0
 56 69  2  0  0  0
 57 58  2  0  0  0
 57129  1  0  0  0
 58130  1  0  0  0
 59 60  1  0  0  0
 59 61  1  0  0  0
 59 62  1  0  0  0
 60131  1  0  0  0
 60132  1  0  0  0
 60133  1  0  0  0
 61134  1  0  0  0
 61135  1  0  0  0
 61136  1  0  0  0
 62137  1  0  0  0
 62138  1  0  0  0
 62139  1  0  0  0
 63 65  1  0  0  0
 63140  1  0  0  0
 63141  1  0  0  0
 63142  1  0  0  0
 64143  1  0  0  0
 65144  1  0  0  0
 68 82  1  0  0  0
 71 72  2  0  0  0
 71 74  1  0  0  0
 71145  1  0  0  0
 72 75  1  0  0  0
 72146  1  0  0  0
 73 74  2  0  0  0
 73 76  1  0  0  0
 73147  1  0  0  0
 74 83  1  0  0  0
 75 76  2  0  0  0
 75 84  1  0  0  0
 76 85  1  0  0  0
 77 78  1  0  0  0
 77 80  1  0  0  0
 77148  1  0  0  0
 77149  1  0  0  0
 78 83  1  0  0  0
 78150  1  0  0  0
 78151  1  0  0  0
 79 80  1  0  0  0
 79 83  1  0  0  0
 79152  1  0  0  0
 79153  1  0  0  0
 80 82  1  0  0  0
 80154  1  0  0  0
 81 84  1  0  0  0
 81155  1  0  0  0
 81156  1  0  0  0
 81157  1  0  0  0
 82158  1  0  0  0
 82159  1  0  0  0
M  ISO  4   1 100  68 101  82 101  84 100
M  END
> <chiral flag>
0

> <version>
0

> <s_m_source_file>
/data/baiqing/PycharmProjects/Reinvent-master-3.2/result/LINK_invent/BTK/process_docking_weight1_custom_product_contain_oxygen_bond_distance_aromatic_linkinvent_7_9_3/rearranged_h_0016.sdf

> <i_m_source_file_index>
80

> <r_mmod_Potential_Energy-OPLS-2005>
397.358306884766

> <r_mmod_Stretch_Energy-OPLS-2005>
83.6145858764648

> <r_mmod_Bend_Energy-OPLS-2005>
210.406036376953

> <r_mmod_Torsional_Energy-OPLS-2005>
386.013031005859

> <r_mmod_Improper_Torsional_Energy-OPLS-2005>
27.2587985992432

> <r_mmod_Van_der_Waal_Energy-OPLS-2005>
136.790618896484

> <r_mmod_Electrostatic_Energy-OPLS-2005>
-309.662841796875

> <r_mmod_Solvation_Energy-OPLS-2005>
-216.934997558594

> <b_mmod_Minimization_Converged-OPLS-2005>
0

> <r_mmod_RMS_Derivative-OPLS-2005>
4.46805763244629

$$$$
80
                    3D
 Structure written by MMmdl.
159167  0  0  1  0            999 V2000
  -30.6227  -14.6140   20.5227 C   0  0  0  0  0  0
  -30.4421  -12.3795   19.4474 C   0  0  0  0  0  0
  -29.5102  -12.5134   18.2223 C   0  0  0  0  0  0
  -28.0315  -12.3527   18.6317 C   0  0  0  0  0  0
  -27.6577  -13.2118   19.8686 C   0  0  2  0  0  0
  -28.7014  -13.0395   20.9959 C   0  0  0  0  0  0
  -25.2579  -13.8165   20.5671 C   0  0  0  0  0  0
  -24.1840  -13.0440   20.9187 C   0  0  0  0  0  0
  -24.6397  -11.6907   20.8737 C   0  0  0  0  0  0
  -23.9062  -10.4292   21.0404 C   0  0  0  0  0  0
  -24.3611   -9.4208   21.9187 C   0  0  0  0  0  0
  -23.6286   -8.2245   22.0754 C   0  0  0  0  0  0
  -22.4272   -8.0282   21.3542 C   0  0  0  0  0  0
  -21.9906   -9.0254   20.4646 C   0  0  0  0  0  0
  -22.7233  -10.2135   20.3057 C   0  0  0  0  0  0
  -21.6851   -6.0737   22.5280 C   0  0  0  0  0  0
  -21.4010   -6.5639   23.8213 C   0  0  0  0  0  0
  -21.3660   -5.6793   24.9176 C   0  0  0  0  0  0
  -21.6043   -4.3055   24.7228 C   0  0  0  0  0  0
  -21.8819   -3.8146   23.4350 C   0  0  0  0  0  0
  -21.9189   -4.6963   22.3404 C   0  0  0  0  0  0
  -22.7862  -13.5240   21.1855 C   0  0  0  0  0  0
  -22.1659   -4.2152   21.0980 F   0  0  0  0  0  0
  -21.5631   -3.4538   25.7739 F   0  0  0  0  0  0
  -30.0212  -13.3861   20.4411 N   0  0  0  0  0  0
  -26.3008  -12.9334   20.3330 N   0  0  0  0  0  0
  -25.9323  -11.6492   20.5752 N   0  0  0  0  0  0
  -22.0491  -12.8234   22.0405 N   0  0  0  0  0  0
  -25.4303  -15.1886   20.4058 N   0  0  0  0  0  0
  -31.7729  -14.7986   20.1122 O   0  0  0  0  0  0
  -21.6636   -6.8881   21.4244 O   0  0  0  0  0  0
  -22.3554  -14.5549   20.6705 O   0  0  0  0  0  0
  -24.6251  -31.8607   23.2040 C   0  0  0  0  0  0
  -25.9109  -32.4785   23.8360 C   0  0  1  0  0  0
  -27.2264  -27.3296   20.1083 C   0  0  0  0  0  0
  -25.5936  -33.8589   24.2286 N   0  0  0  0  0  0
  -23.4178  -30.4847   21.5461 C   0  0  2  0  0  0
  -24.8645  -28.9434   20.1098 C   0  0  0  0  0  0
  -22.7472  -29.4618   22.4936 C   0  0  0  0  0  0
  -18.0284  -28.1383   22.8468 C   0  0  0  0  0  0
  -24.1492  -36.7301   23.2641 C   0  0  0  0  0  0
  -25.9584  -30.7940   21.3732 C   0  0  0  0  0  0
  -26.0324  -29.4223   20.7154 C   0  0  0  0  0  0
  -27.2147  -28.6263   20.7078 C   0  0  0  0  0  0
  -26.0341  -26.9061   19.4725 C   0  0  0  0  0  0
  -24.8670  -27.6908   19.4799 C   0  0  0  0  0  0
  -23.6329  -29.8223   20.1603 C   0  0  0  0  0  0
  -25.4114  -36.3089   24.0335 C   0  0  1  0  0  0
  -20.5885  -28.3680   23.1287 C   0  0  2  0  0  0
  -20.6773  -26.9411   22.5403 C   0  0  0  0  0  0
  -19.5751  -26.6379   21.5206 C   0  0  0  0  0  0
  -18.1926  -26.7918   22.1616 C   0  0  0  0  0  0
  -19.1538  -28.8849   23.2865 C   0  0  0  0  0  0
  -18.9470  -30.1444   23.8889 C   0  0  0  0  0  0
  -17.6472  -30.6587   24.0554 C   0  0  0  0  0  0
  -25.9054  -34.9461   23.5108 C   0  0  0  0  0  0
  -16.5363  -29.9086   23.6325 C   0  0  0  0  0  0
  -16.7272  -28.6505   23.0331 C   0  0  0  0  0  0
  -26.4495  -31.6595   25.0722 C   0  0  0  0  0  0
  -25.3737  -31.3737   26.1456 C   0  0  0  0  0  0
  -27.0324  -30.3025   24.6146 C   0  0  0  0  0  0
  -27.6046  -32.4334   25.7501 C   0  0  0  0  0  0
  -27.5580  -37.1802   24.8464 C   0  0  0  0  0  0
  -21.4188  -29.3042   22.3693 N   0  0  0  0  0  0
  -26.4293  -37.3781   23.9413 N   0  0  0  0  0  0
  -24.6863  -31.0628   22.0983 N   0  0  0  0  0  0
  -23.4208  -28.8139   23.2997 O   0  0  0  0  0  0
  -28.3513  -26.4921   20.1653 O   0  0  0  0  0  0
  -26.5614  -34.8919   22.4666 O   0  0  0  0  0  0
  -23.5419  -32.1398   23.7375 O   0  0  0  0  0  0
  -28.7520  -17.8283   21.3197 C   0  0  0  0  0  0
  -30.9342  -17.8525   20.3124 C   0  0  0  0  0  0
  -28.7023  -19.2545   21.3030 C   0  0  0  0  0  0
  -29.7929  -20.0230   20.8040 C   0  0  0  0  0  0
  -29.8663  -17.0860   20.8483 C   0  0  0  0  0  0
  -30.8965  -19.2802   20.2926 C   0  0  0  0  0  0
  -27.4670  -19.9395   21.8658 C   0  0  0  0  0  0
  -29.1994  -22.2204   18.6754 C   0  0  0  0  0  0
  -29.8871  -21.5912   20.9708 C   0  0  0  0  0  0
  -29.2730  -24.0211   20.4186 C   0  0  0  0  0  0
  -28.1652  -25.0453   19.9150 C   0  0  0  0  0  0
  -29.8122  -15.6286   20.9502 N   0  0  0  0  0  0
  -29.0556  -22.5339   20.1180 N   0  3  1  0  0  0
  -31.9684  -19.9462   19.8011 F   0  0  0  0  0  0
  -31.4838  -12.5072   19.1480 H   0  0  0  0  0  0
  -30.3752  -11.3772   19.8737 H   0  0  0  0  0  0
  -29.7707  -11.7705   17.4675 H   0  0  0  0  0  0
  -29.6579  -13.4880   17.7546 H   0  0  0  0  0  0
  -27.8629  -11.2977   18.8522 H   0  0  0  0  0  0
  -27.3795  -12.5951   17.7918 H   0  0  0  0  0  0
  -27.6841  -14.2516   19.5419 H   0  0  0  0  0  0
  -28.7084  -12.0089   21.3536 H   0  0  0  0  0  0
  -28.4462  -13.6478   21.8649 H   0  0  0  0  0  0
  -25.2754   -9.5688   22.4764 H   0  0  0  0  0  0
  -23.9995   -7.4637   22.7473 H   0  0  0  0  0  0
  -21.0839   -8.8773   19.8950 H   0  0  0  0  0  0
  -22.3690  -10.9675   19.6166 H   0  0  0  0  0  0
  -21.2000   -7.6145   23.9720 H   0  0  0  0  0  0
  -21.1483   -6.0520   25.9082 H   0  0  0  0  0  0
  -22.0596   -2.7607   23.2847 H   0  0  0  0  0  0
  -22.4082  -11.9883   22.4793 H   0  0  0  0  0  0
  -21.1112  -13.1274   22.2604 H   0  0  0  0  0  0
  -24.6576  -15.8396   20.4931 H   0  0  0  0  0  0
  -26.2715  -15.6202   20.0447 H   0  0  0  0  0  0
  -26.7166  -32.5465   23.1106 H   0  0  0  0  0  0
  -25.0096  -33.9741   25.0439 H   0  0  0  0  0  0
  -22.7108  -31.3046   21.4040 H   0  0  0  0  0  0
  -23.3752  -35.9637   23.3301 H   0  0  0  0  0  0
  -24.3583  -36.8922   22.2052 H   0  0  0  0  0  0
  -23.7240  -37.6504   23.6661 H   0  0  0  0  0  0
  -26.0870  -31.5567   20.6036 H   0  0  0  0  0  0
  -26.8407  -30.8445   21.9995 H   0  0  0  0  0  0
  -28.1101  -28.9881   21.1935 H   0  0  0  0  0  0
  -25.9683  -25.9548   18.9648 H   0  0  0  0  0  0
  -23.9735  -27.3210   18.9955 H   0  0  0  0  0  0
  -23.7531  -30.6002   19.4051 H   0  0  0  0  0  0
  -22.7527  -29.2544   19.8544 H   0  0  0  0  0  0
  -25.1286  -36.1948   25.0827 H   0  0  0  0  0  0
  -20.9964  -28.3255   24.1417 H   0  0  0  0  0  0
  -20.5673  -26.2302   23.3603 H   0  0  0  0  0  0
  -21.6640  -26.7432   22.1205 H   0  0  0  0  0  0
  -19.6919  -25.6290   21.1241 H   0  0  0  0  0  0
  -19.6695  -27.3179   20.6729 H   0  0  0  0  0  0
  -17.4192  -26.6656   21.4016 H   0  0  0  0  0  0
  -18.0327  -26.0065   22.9021 H   0  0  0  0  0  0
  -19.7950  -30.7242   24.2272 H   0  0  0  0  0  0
  -17.5035  -31.6265   24.5153 H   0  0  0  0  0  0
  -15.5361  -30.2987   23.7658 H   0  0  0  0  0  0
  -15.8666  -28.0830   22.7049 H   0  0  0  0  0  0
  -24.5919  -30.7072   25.7800 H   0  0  0  0  0  0
  -24.8919  -32.2906   26.4867 H   0  0  0  0  0  0
  -25.8073  -30.8935   27.0239 H   0  0  0  0  0  0
  -26.2876  -29.6798   24.1173 H   0  0  0  0  0  0
  -27.4041  -29.7257   25.4625 H   0  0  0  0  0  0
  -27.8748  -30.4320   23.9345 H   0  0  0  0  0  0
  -27.2649  -33.3641   26.2058 H   0  0  0  0  0  0
  -28.3880  -32.6883   25.0354 H   0  0  0  0  0  0
  -28.0689  -31.8476   26.5443 H   0  0  0  0  0  0
  -28.2581  -38.0107   24.7512 H   0  0  0  0  0  0
  -28.1083  -36.2638   24.6286 H   0  0  0  0  0  0
  -27.2300  -37.1452   25.8864 H   0  0  0  0  0  0
  -20.9369  -29.8828   21.6953 H   0  0  0  0  0  0
  -26.0176  -38.2859   24.1409 H   0  0  0  0  0  0
  -27.9091  -17.2885   21.7296 H   0  0  0  0  0  0
  -31.8133  -17.3589   19.9261 H   0  0  0  0  0  0
  -26.6786  -19.2199   22.0904 H   0  0  0  0  0  0
  -27.0554  -20.6511   21.1501 H   0  0  0  0  0  0
  -27.7044  -20.4679   22.7893 H   0  0  0  0  0  0
  -28.9754  -21.1726   18.4740 H   0  0  0  0  0  0
  -30.2159  -22.4166   18.3316 H   0  0  0  0  0  0
  -28.5164  -22.8079   18.0638 H   0  0  0  0  0  0
  -30.9313  -21.8786   20.8429 H   0  0  0  0  0  0
  -29.6714  -21.8107   22.0169 H   0  0  0  0  0  0
  -29.3464  -24.1382   21.5003 H   0  0  0  0  0  0
  -30.2442  -24.3195   20.0224 H   0  0  0  0  0  0
  -27.2294  -24.7280   20.3765 H   0  0  0  0  0  0
  -28.0387  -24.9260   18.8389 H   0  0  0  0  0  0
  -28.9391  -15.2753   21.3109 H   0  0  0  0  0  0
  -28.0969  -22.3281   20.3558 H   0  0  0  0  0  0
  1 25  1  0  0  0
  1 30  2  0  0  0
  1 82  1  0  0  0
  2  3  1  0  0  0
  2 25  1  0  0  0
  2 85  1  0  0  0
  2 86  1  0  0  0
  3  4  1  0  0  0
  3 87  1  0  0  0
  3 88  1  0  0  0
  4  5  1  0  0  0
  4 89  1  0  0  0
  4 90  1  0  0  0
  5  6  1  0  0  0
  5 26  1  0  0  0
  5 91  1  0  0  0
  6 25  1  0  0  0
  6 92  1  0  0  0
  6 93  1  0  0  0
  7  8  2  0  0  0
  7 26  1  0  0  0
  7 29  1  0  0  0
  8  9  1  0  0  0
  8 22  1  0  0  0
  9 10  1  0  0  0
  9 27  2  0  0  0
 10 11  2  0  0  0
 10 15  1  0  0  0
 11 12  1  0  0  0
 11 94  1  0  0  0
 12 13  2  0  0  0
 12 95  1  0  0  0
 13 14  1  0  0  0
 13 31  1  0  0  0
 14 15  2  0  0  0
 14 96  1  0  0  0
 15 97  1  0  0  0
 16 17  2  0  0  0
 16 21  1  0  0  0
 16 31  1  0  0  0
 17 18  1  0  0  0
 17 98  1  0  0  0
 18 19  2  0  0  0
 18 99  1  0  0  0
 19 20  1  0  0  0
 19 24  1  0  0  0
 20 21  2  0  0  0
 20100  1  0  0  0
 21 23  1  0  0  0
 22 28  1  0  0  0
 22 32  2  0  0  0
 26 27  1  0  0  0
 28101  1  0  0  0
 28102  1  0  0  0
 29103  1  0  0  0
 29104  1  0  0  0
 33 34  1  0  0  0
 33 66  1  0  0  0
 33 70  2  0  0  0
 34 36  1  0  0  0
 34 59  1  0  0  0
 34105  1  0  0  0
 35 44  2  0  0  0
 35 45  1  0  0  0
 35 68  1  0  0  0
 36 56  1  0  0  0
 36106  1  0  0  0
 37 39  1  0  0  0
 37 47  1  0  0  0
 37 66  1  0  0  0
 37107  1  0  0  0
 38 43  2  0  0  0
 38 46  1  0  0  0
 38 47  1  0  0  0
 39 64  1  0  0  0
 39 67  2  0  0  0
 40 52  1  0  0  0
 40 53  2  0  0  0
 40 58  1  0  0  0
 41108  1  0  0  0
 41109  1  0  0  0
 41110  1  0  0  0
 41 48  1  0  0  0
 42 43  1  0  0  0
 42 66  1  0  0  0
 42111  1  0  0  0
 42112  1  0  0  0
 43 44  1  0  0  0
 44113  1  0  0  0
 45 46  2  0  0  0
 45114  1  0  0  0
 46115  1  0  0  0
 47116  1  0  0  0
 47117  1  0  0  0
 48 56  1  0  0  0
 48 65  1  0  0  0
 48118  1  0  0  0
 49 50  1  0  0  0
 49 53  1  0  0  0
 49 64  1  0  0  0
 49119  1  0  0  0
 50 51  1  0  0  0
 50120  1  0  0  0
 50121  1  0  0  0
 51 52  1  0  0  0
 51122  1  0  0  0
 51123  1  0  0  0
 52124  1  0  0  0
 52125  1  0  0  0
 53 54  1  0  0  0
 54 55  2  0  0  0
 54126  1  0  0  0
 55 57  1  0  0  0
 55127  1  0  0  0
 56 69  2  0  0  0
 57 58  2  0  0  0
 57128  1  0  0  0
 58129  1  0  0  0
 59 60  1  0  0  0
 59 61  1  0  0  0
 59 62  1  0  0  0
 60130  1  0  0  0
 60131  1  0  0  0
 60132  1  0  0  0
 61133  1  0  0  0
 61134  1  0  0  0
 61135  1  0  0  0
 62136  1  0  0  0
 62137  1  0  0  0
 62138  1  0  0  0
 63 65  1  0  0  0
 63139  1  0  0  0
 63140  1  0  0  0
 63141  1  0  0  0
 64142  1  0  0  0
 65143  1  0  0  0
 68 81  1  0  0  0
 71 73  2  0  0  0
 71 75  1  0  0  0
 71144  1  0  0  0
 72 75  2  0  0  0
 72 76  1  0  0  0
 72145  1  0  0  0
 73 74  1  0  0  0
 73 77  1  0  0  0
 74 76  2  0  0  0
 74 79  1  0  0  0
 75 82  1  0  0  0
 76 84  1  0  0  0
 77146  1  0  0  0
 77147  1  0  0  0
 77148  1  0  0  0
 78149  1  0  0  0
 78150  1  0  0  0
 78151  1  0  0  0
 78 83  1  0  0  0
 79 83  1  0  0  0
 79152  1  0  0  0
 79153  1  0  0  0
 80 81  1  0  0  0
 80 83  1  0  0  0
 80154  1  0  0  0
 80155  1  0  0  0
 81156  1  0  0  0
 81157  1  0  0  0
 82158  1  0  0  0
 83159  1  0  0  0
M  CHG  1  83   1
M  ISO  4   1 100  68 101  81 101  82 100
M  END
> <chiral flag>
0

> <version>
0

> <s_m_source_file>
/data/baiqing/PycharmProjects/Reinvent-master-3.2/result/LINK_invent/BTK/process_docking_weight1_custom_product_contain_oxygen_bond_distance_aromatic_linkinvent_7_9_3/rearranged_h_0016.sdf

> <i_m_source_file_index>
81

> <r_mmod_Potential_Energy-OPLS-2005>
-54.4989051818848

> <r_mmod_Stretch_Energy-OPLS-2005>
78.2164916992188

> <r_mmod_Bend_Energy-OPLS-2005>
139.393493652344

> <r_mmod_Torsional_Energy-OPLS-2005>
204.062133789062

> <r_mmod_Improper_Torsional_Energy-OPLS-2005>
4.47924947738647

> <r_mmod_Van_der_Waal_Energy-OPLS-2005>
145.205902099609

> <r_mmod_Electrostatic_Energy-OPLS-2005>
-234.24299621582

> <r_mmod_Solvation_Energy-OPLS-2005>
-433.540954589844

> <b_mmod_Minimization_Converged-OPLS-2005>
0

> <r_mmod_RMS_Derivative-OPLS-2005>
1.22002685070038

$$$$
81
                    3D
 Structure written by MMmdl.
164172  0  0  1  0            999 V2000
  -30.6953  -14.6511   20.5434 C   0  0  0  0  0  0
  -30.4378  -12.4232   19.4306 C   0  0  0  0  0  0
  -29.5108  -12.5361   18.2016 C   0  0  0  0  0  0
  -28.0296  -12.3785   18.6053 C   0  0  0  0  0  0
  -27.6575  -13.2264   19.8500 C   0  0  2  0  0  0
  -28.7071  -13.0617   20.9657 C   0  0  0  0  0  0
  -25.2591  -13.8171   20.5659 C   0  0  0  0  0  0
  -24.1871  -13.0440   20.9133 C   0  0  0  0  0  0
  -24.6445  -11.6902   20.8680 C   0  0  0  0  0  0
  -23.9099  -10.4288   21.0363 C   0  0  0  0  0  0
  -24.3630   -9.4215   21.9170 C   0  0  0  0  0  0
  -23.6294   -8.2257   22.0761 C   0  0  0  0  0  0
  -22.4275   -8.0282   21.3545 C   0  0  0  0  0  0
  -21.9919   -9.0255   20.4639 C   0  0  0  0  0  0
  -22.7255  -10.2129   20.3035 C   0  0  0  0  0  0
  -21.6867   -6.0726   22.5267 C   0  0  0  0  0  0
  -21.4017   -6.5633   23.8203 C   0  0  0  0  0  0
  -21.3661   -5.6787   24.9166 C   0  0  0  0  0  0
  -21.6044   -4.3047   24.7216 C   0  0  0  0  0  0
  -21.8825   -3.8140   23.4334 C   0  0  0  0  0  0
  -21.9194   -4.6950   22.3392 C   0  0  0  0  0  0
  -22.7880  -13.5216   21.1803 C   0  0  0  0  0  0
  -22.1661   -4.2134   21.0972 F   0  0  0  0  0  0
  -21.5635   -3.4533   25.7735 F   0  0  0  0  0  0
  -30.0230  -13.4469   20.4193 N   0  0  0  0  0  0
  -26.3044  -12.9387   20.3254 N   0  0  0  0  0  0
  -25.9378  -11.6523   20.5660 N   0  0  0  0  0  0
  -22.0521  -12.8220   22.0342 N   0  0  0  0  0  0
  -25.4289  -15.1910   20.4124 N   0  0  0  0  0  0
  -31.8057  -14.7860   20.0232 O   0  0  0  0  0  0
  -21.6646   -6.8867   21.4231 O   0  0  0  0  0  0
  -22.3555  -14.5525   20.6637 O   0  0  0  0  0  0
  -24.6243  -31.8579   23.2059 C   0  0  0  0  0  0
  -25.9107  -32.4742   23.8352 C   0  0  1  0  0  0
  -27.2116  -27.3050   20.0860 C   0  0  0  0  0  0
  -25.5881  -33.8542   24.2230 N   0  0  0  0  0  0
  -23.4212  -30.4847   21.5461 C   0  0  2  0  0  0
  -24.8673  -28.9486   20.1000 C   0  0  0  0  0  0
  -22.7500  -29.4597   22.4921 C   0  0  0  0  0  0
  -18.0295  -28.1382   22.8472 C   0  0  0  0  0  0
  -24.1524  -36.7305   23.2629 C   0  0  0  0  0  0
  -25.9712  -30.7658   21.4063 C   0  0  0  0  0  0
  -26.0358  -29.4042   20.7237 C   0  0  0  0  0  0
  -27.2085  -28.5891   20.7155 C   0  0  0  0  0  0
  -26.0284  -26.9210   19.4139 C   0  0  0  0  0  0
  -24.8681  -27.7159   19.4330 C   0  0  0  0  0  0
  -23.6388  -29.8316   20.1585 C   0  0  0  0  0  0
  -25.4136  -36.3058   24.0304 C   0  0  1  0  0  0
  -20.5885  -28.3683   23.1300 C   0  0  2  0  0  0
  -20.6795  -26.9397   22.5432 C   0  0  0  0  0  0
  -19.5787  -26.6378   21.5219 C   0  0  0  0  0  0
  -18.1951  -26.7935   22.1595 C   0  0  0  0  0  0
  -19.1543  -28.8846   23.2886 C   0  0  0  0  0  0
  -18.9474  -30.1448   23.8903 C   0  0  0  0  0  0
  -17.6477  -30.6598   24.0553 C   0  0  0  0  0  0
  -25.9069  -34.9428   23.5086 C   0  0  0  0  0  0
  -16.5365  -29.9085   23.6337 C   0  0  0  0  0  0
  -16.7280  -28.6503   23.0343 C   0  0  0  0  0  0
  -26.4429  -31.6580   25.0771 C   0  0  0  0  0  0
  -25.3582  -31.3761   26.1449 C   0  0  0  0  0  0
  -27.0266  -30.2932   24.6397 C   0  0  0  0  0  0
  -27.5987  -32.4331   25.7518 C   0  0  0  0  0  0
  -27.5613  -37.1805   24.8425 C   0  0  0  0  0  0
  -21.4204  -29.3029   22.3685 N   0  0  0  0  0  0
  -26.4315  -37.3753   23.9371 N   0  0  0  0  0  0
  -24.6891  -31.0559   22.1043 N   0  0  0  0  0  0
  -23.4223  -28.8126   23.2999 O   0  0  0  0  0  0
  -28.3193  -26.4424   20.1426 O   0  0  0  0  0  0
  -26.5706  -34.8910   22.4700 O   0  0  0  0  0  0
  -23.5402  -32.1405   23.7347 O   0  0  0  0  0  0
  -30.9067  -17.7933   19.8526 C   0  0  0  0  0  0
  -29.1622  -18.0423   21.4703 C   0  0  0  0  0  0
  -30.9318  -19.2186   19.6923 C   0  0  0  0  0  0
  -29.1684  -19.4555   21.2933 C   0  0  0  0  0  0
  -30.0560  -17.1524   20.8003 C   0  0  0  0  0  0
  -30.0883  -20.0988   20.4374 C   0  0  0  0  0  0
  -33.3742  -22.4413   22.5403 C   0  0  0  0  0  0
  -29.8432  -15.5065   22.6312 C   0  0  0  0  0  0
  -31.9606  -21.9315   22.2134 C   0  0  0  0  0  0
  -29.1449  -23.9512   20.4318 C   0  0  0  0  0  0
  -31.6078  -22.0019   20.7143 C   0  0  0  0  0  0
  -29.2698  -22.4803   19.8001 C   0  0  0  0  0  0
  -28.1566  -25.0127   19.7731 C   0  0  0  0  0  0
  -30.0977  -15.7189   21.1979 N   0  0  0  0  0  0
  -30.2382  -21.5337   20.4542 N   0  0  0  0  0  0
  -31.4786  -12.5333   19.1232 H   0  0  0  0  0  0
  -30.3694  -11.4246   19.8651 H   0  0  0  0  0  0
  -29.7770  -11.7847   17.4568 H   0  0  0  0  0  0
  -29.6583  -13.5020   17.7179 H   0  0  0  0  0  0
  -27.8537  -11.3212   18.8065 H   0  0  0  0  0  0
  -27.3819  -12.6380   17.7659 H   0  0  0  0  0  0
  -27.6795  -14.2691   19.5342 H   0  0  0  0  0  0
  -28.7325  -12.0254   21.3057 H   0  0  0  0  0  0
  -28.4055  -13.6272   21.8374 H   0  0  0  0  0  0
  -25.2783   -9.5695   22.4730 H   0  0  0  0  0  0
  -23.9988   -7.4671   22.7510 H   0  0  0  0  0  0
  -21.0847   -8.8781   19.8954 H   0  0  0  0  0  0
  -22.3723  -10.9659   19.6123 H   0  0  0  0  0  0
  -21.2015   -7.6147   23.9695 H   0  0  0  0  0  0
  -21.1480   -6.0523   25.9067 H   0  0  0  0  0  0
  -22.0601   -2.7601   23.2850 H   0  0  0  0  0  0
  -22.4149  -11.9909   22.4772 H   0  0  0  0  0  0
  -21.1119  -13.1225   22.2481 H   0  0  0  0  0  0
  -24.6592  -15.8439   20.5143 H   0  0  0  0  0  0
  -26.2965  -15.6378   20.1458 H   0  0  0  0  0  0
  -26.7179  -32.5356   23.1084 H   0  0  0  0  0  0
  -24.9754  -33.9632   25.0185 H   0  0  0  0  0  0
  -22.7152  -31.3063   21.4075 H   0  0  0  0  0  0
  -23.3771  -35.9668   23.3261 H   0  0  0  0  0  0
  -24.3592  -36.8972   22.2046 H   0  0  0  0  0  0
  -23.7326  -37.6506   23.6711 H   0  0  0  0  0  0
  -26.1620  -31.5467   20.6705 H   0  0  0  0  0  0
  -26.8240  -30.7605   22.0715 H   0  0  0  0  0  0
  -28.1054  -28.9203   21.2233 H   0  0  0  0  0  0
  -25.9638  -26.0012   18.8537 H   0  0  0  0  0  0
  -23.9794  -27.3767   18.9152 H   0  0  0  0  0  0
  -23.7624  -30.6156   19.4100 H   0  0  0  0  0  0
  -22.7562  -29.2690   19.8506 H   0  0  0  0  0  0
  -25.1341  -36.1887   25.0798 H   0  0  0  0  0  0
  -20.9966  -28.3274   24.1426 H   0  0  0  0  0  0
  -20.5715  -26.2271   23.3622 H   0  0  0  0  0  0
  -21.6674  -26.7458   22.1227 H   0  0  0  0  0  0
  -19.6960  -25.6289   21.1253 H   0  0  0  0  0  0
  -19.6766  -27.3199   20.6759 H   0  0  0  0  0  0
  -17.4235  -26.6697   21.3972 H   0  0  0  0  0  0
  -18.0318  -26.0075   22.8969 H   0  0  0  0  0  0
  -19.7951  -30.7245   24.2300 H   0  0  0  0  0  0
  -17.5039  -31.6290   24.5150 H   0  0  0  0  0  0
  -15.5365  -30.2981   23.7711 H   0  0  0  0  0  0
  -15.8664  -28.0852   22.7042 H   0  0  0  0  0  0
  -24.6029  -30.6750   25.7855 H   0  0  0  0  0  0
  -24.8398  -32.2864   26.4478 H   0  0  0  0  0  0
  -25.7871  -30.9367   27.0457 H   0  0  0  0  0  0
  -26.2891  -29.6676   24.1343 H   0  0  0  0  0  0
  -27.3693  -29.7221   25.5035 H   0  0  0  0  0  0
  -27.8912  -30.4060   23.9847 H   0  0  0  0  0  0
  -27.2611  -33.3648   26.2068 H   0  0  0  0  0  0
  -28.3806  -32.6821   25.0334 H   0  0  0  0  0  0
  -28.0666  -31.8457   26.5433 H   0  0  0  0  0  0
  -28.2587  -38.0138   24.7484 H   0  0  0  0  0  0
  -28.1160  -36.2657   24.6255 H   0  0  0  0  0  0
  -27.2317  -37.1443   25.8821 H   0  0  0  0  0  0
  -20.9393  -29.8720   21.6864 H   0  0  0  0  0  0
  -26.0197  -38.2833   24.1352 H   0  0  0  0  0  0
  -31.6101  -17.2118   19.2761 H   0  0  0  0  0  0
  -28.4640  -17.6523   22.1936 H   0  0  0  0  0  0
  -31.6509  -19.6361   19.0031 H   0  0  0  0  0  0
  -28.4989  -20.0567   21.8932 H   0  0  0  0  0  0
  -33.5749  -22.3669   23.6100 H   0  0  0  0  0  0
  -33.5132  -23.4840   22.2532 H   0  0  0  0  0  0
  -34.1349  -21.8532   22.0260 H   0  0  0  0  0  0
  -30.2681  -16.3209   23.2216 H   0  0  0  0  0  0
  -30.2881  -14.5873   23.0169 H   0  0  0  0  0  0
  -28.7713  -15.4815   22.8301 H   0  0  0  0  0  0
  -31.2343  -22.5106   22.7848 H   0  0  0  0  0  0
  -31.8720  -20.9050   22.5690 H   0  0  0  0  0  0
  -30.1289  -24.4161   20.4352 H   0  0  0  0  0  0
  -28.8565  -23.8484   21.4788 H   0  0  0  0  0  0
  -32.3316  -21.4261   20.1382 H   0  0  0  0  0  0
  -31.7369  -23.0264   20.3654 H   0  0  0  0  0  0
  -29.5891  -22.5941   18.7617 H   0  0  0  0  0  0
  -28.2901  -22.0021   19.7492 H   0  0  0  0  0  0
  -27.1535  -24.6664   20.0327 H   0  0  0  0  0  0
  -28.2246  -24.9462   18.6855 H   0  0  0  0  0  0
  1 25  1  0  0  0
  1 30  2  0  0  0
  1 84  1  0  0  0
  2  3  1  0  0  0
  2 25  1  0  0  0
  2 86  1  0  0  0
  2 87  1  0  0  0
  3  4  1  0  0  0
  3 88  1  0  0  0
  3 89  1  0  0  0
  4  5  1  0  0  0
  4 90  1  0  0  0
  4 91  1  0  0  0
  5  6  1  0  0  0
  5 26  1  0  0  0
  5 92  1  0  0  0
  6 25  1  0  0  0
  6 93  1  0  0  0
  6 94  1  0  0  0
  7  8  2  0  0  0
  7 26  1  0  0  0
  7 29  1  0  0  0
  8  9  1  0  0  0
  8 22  1  0  0  0
  9 10  1  0  0  0
  9 27  2  0  0  0
 10 11  2  0  0  0
 10 15  1  0  0  0
 11 12  1  0  0  0
 11 95  1  0  0  0
 12 13  2  0  0  0
 12 96  1  0  0  0
 13 14  1  0  0  0
 13 31  1  0  0  0
 14 15  2  0  0  0
 14 97  1  0  0  0
 15 98  1  0  0  0
 16 17  2  0  0  0
 16 21  1  0  0  0
 16 31  1  0  0  0
 17 18  1  0  0  0
 17 99  1  0  0  0
 18 19  2  0  0  0
 18100  1  0  0  0
 19 20  1  0  0  0
 19 24  1  0  0  0
 20 21  2  0  0  0
 20101  1  0  0  0
 21 23  1  0  0  0
 22 28  1  0  0  0
 22 32  2  0  0  0
 26 27  1  0  0  0
 28102  1  0  0  0
 28103  1  0  0  0
 29104  1  0  0  0
 29105  1  0  0  0
 33 34  1  0  0  0
 33 66  1  0  0  0
 33 70  2  0  0  0
 34 36  1  0  0  0
 34 59  1  0  0  0
 34106  1  0  0  0
 35 44  2  0  0  0
 35 45  1  0  0  0
 35 68  1  0  0  0
 36 56  1  0  0  0
 36107  1  0  0  0
 37 39  1  0  0  0
 37 47  1  0  0  0
 37 66  1  0  0  0
 37108  1  0  0  0
 38 43  2  0  0  0
 38 46  1  0  0  0
 38 47  1  0  0  0
 39 64  1  0  0  0
 39 67  2  0  0  0
 40 52  1  0  0  0
 40 53  2  0  0  0
 40 58  1  0  0  0
 41109  1  0  0  0
 41110  1  0  0  0
 41111  1  0  0  0
 41 48  1  0  0  0
 42 43  1  0  0  0
 42 66  1  0  0  0
 42112  1  0  0  0
 42113  1  0  0  0
 43 44  1  0  0  0
 44114  1  0  0  0
 45 46  2  0  0  0
 45115  1  0  0  0
 46116  1  0  0  0
 47117  1  0  0  0
 47118  1  0  0  0
 48 56  1  0  0  0
 48 65  1  0  0  0
 48119  1  0  0  0
 49 50  1  0  0  0
 49 53  1  0  0  0
 49 64  1  0  0  0
 49120  1  0  0  0
 50 51  1  0  0  0
 50121  1  0  0  0
 50122  1  0  0  0
 51 52  1  0  0  0
 51123  1  0  0  0
 51124  1  0  0  0
 52125  1  0  0  0
 52126  1  0  0  0
 53 54  1  0  0  0
 54 55  2  0  0  0
 54127  1  0  0  0
 55 57  1  0  0  0
 55128  1  0  0  0
 56 69  2  0  0  0
 57 58  2  0  0  0
 57129  1  0  0  0
 58130  1  0  0  0
 59 60  1  0  0  0
 59 61  1  0  0  0
 59 62  1  0  0  0
 60131  1  0  0  0
 60132  1  0  0  0
 60133  1  0  0  0
 61134  1  0  0  0
 61135  1  0  0  0
 61136  1  0  0  0
 62137  1  0  0  0
 62138  1  0  0  0
 62139  1  0  0  0
 63 65  1  0  0  0
 63140  1  0  0  0
 63141  1  0  0  0
 63142  1  0  0  0
 64143  1  0  0  0
 65144  1  0  0  0
 68 83  1  0  0  0
 71 73  2  0  0  0
 71 75  1  0  0  0
 71145  1  0  0  0
 72 74  1  0  0  0
 72 75  2  0  0  0
 72146  1  0  0  0
 73 76  1  0  0  0
 73147  1  0  0  0
 74 76  2  0  0  0
 74148  1  0  0  0
 75 84  1  0  0  0
 76 85  1  0  0  0
 77 79  1  0  0  0
 77149  1  0  0  0
 77150  1  0  0  0
 77151  1  0  0  0
 78 84  1  0  0  0
 78152  1  0  0  0
 78153  1  0  0  0
 78154  1  0  0  0
 79 81  1  0  0  0
 79155  1  0  0  0
 79156  1  0  0  0
 80 82  1  0  0  0
 80 83  1  0  0  0
 80157  1  0  0  0
 80158  1  0  0  0
 81 85  1  0  0  0
 81159  1  0  0  0
 81160  1  0  0  0
 82 85  1  0  0  0
 82161  1  0  0  0
 82162  1  0  0  0
 83163  1  0  0  0
 83164  1  0  0  0
M  ISO  4   1 100  68 101  83 101  84 100
M  END
> <chiral flag>
0

> <version>
0

> <s_m_source_file>
/data/baiqing/PycharmProjects/Reinvent-master-3.2/result/LINK_invent/BTK/process_docking_weight1_custom_product_contain_oxygen_bond_distance_aromatic_linkinvent_7_9_3/rearranged_h_0016.sdf

> <i_m_source_file_index>
82

> <r_mmod_Potential_Energy-OPLS-2005>
264.328369140625

> <r_mmod_Stretch_Energy-OPLS-2005>
96.4282531738281

> <r_mmod_Bend_Energy-OPLS-2005>
159.614624023438

> <r_mmod_Torsional_Energy-OPLS-2005>
307.634002685547

> <r_mmod_Improper_Torsional_Energy-OPLS-2005>
4.925612449646

> <r_mmod_Van_der_Waal_Energy-OPLS-2005>
158.972686767578

> <r_mmod_Electrostatic_Energy-OPLS-2005>
-324.257751464844

> <r_mmod_Solvation_Energy-OPLS-2005>
-192.788650512695

> <b_mmod_Minimization_Converged-OPLS-2005>
0

> <r_mmod_RMS_Derivative-OPLS-2005>
4.45992755889893

$$$$
82
                    3D
 Structure written by MMmdl.
163171  0  0  1  0            999 V2000
  -30.7247  -14.3938   20.7126 C   0  0  0  0  0  0
  -30.4298  -12.3196   19.3771 C   0  0  0  0  0  0
  -29.4818  -12.5454   18.1838 C   0  0  0  0  0  0
  -28.0061  -12.3949   18.6045 C   0  0  0  0  0  0
  -27.6703  -13.1959   19.8896 C   0  0  2  0  0  0
  -28.7142  -12.8929   20.9862 C   0  0  0  0  0  0
  -25.2626  -13.8136   20.5691 C   0  0  0  0  0  0
  -24.1874  -13.0423   20.9176 C   0  0  0  0  0  0
  -24.6415  -11.6887   20.8741 C   0  0  0  0  0  0
  -23.9072  -10.4281   21.0418 C   0  0  0  0  0  0
  -24.3622   -9.4199   21.9200 C   0  0  0  0  0  0
  -23.6291   -8.2239   22.0770 C   0  0  0  0  0  0
  -22.4277   -8.0282   21.3544 C   0  0  0  0  0  0
  -21.9916   -9.0259   20.4644 C   0  0  0  0  0  0
  -22.7248  -10.2138   20.3058 C   0  0  0  0  0  0
  -21.6848   -6.0738   22.5274 C   0  0  0  0  0  0
  -21.4013   -6.5645   23.8212 C   0  0  0  0  0  0
  -21.3662   -5.6799   24.9177 C   0  0  0  0  0  0
  -21.6045   -4.3059   24.7226 C   0  0  0  0  0  0
  -21.8822   -3.8152   23.4346 C   0  0  0  0  0  0
  -21.9192   -4.6964   22.3402 C   0  0  0  0  0  0
  -22.7884  -13.5221   21.1825 C   0  0  0  0  0  0
  -22.1658   -4.2151   21.0979 F   0  0  0  0  0  0
  -21.5630   -3.4546   25.7741 F   0  0  0  0  0  0
  -30.0414  -13.2444   20.4522 N   0  0  0  0  0  0
  -26.3078  -12.9293   20.3441 N   0  0  0  0  0  0
  -25.9340  -11.6455   20.5789 N   0  0  0  0  0  0
  -22.0507  -12.8232   22.0381 N   0  0  0  0  0  0
  -25.4320  -15.1856   20.4056 N   0  0  0  0  0  0
  -31.7509  -14.6879   20.0857 O   0  0  0  0  0  0
  -21.6630   -6.8886   21.4245 O   0  0  0  0  0  0
  -22.3577  -14.5526   20.6668 O   0  0  0  0  0  0
  -24.6101  -31.8707   23.2122 C   0  0  0  0  0  0
  -25.9016  -32.4841   23.8403 C   0  0  1  0  0  0
  -27.2381  -27.4702   20.0932 C   0  0  0  0  0  0
  -25.5902  -33.8642   24.2338 N   0  0  0  0  0  0
  -23.3967  -30.4914   21.5523 C   0  0  2  0  0  0
  -24.8459  -28.9570   20.1196 C   0  0  0  0  0  0
  -22.7385  -29.4664   22.5023 C   0  0  0  0  0  0
  -18.0262  -28.1361   22.8494 C   0  0  0  0  0  0
  -24.1484  -36.7323   23.2626 C   0  0  0  0  0  0
  -25.9208  -30.8434   21.3626 C   0  0  0  0  0  0
  -26.0007  -29.4765   20.7197 C   0  0  0  0  0  0
  -27.2011  -28.7350   20.7148 C   0  0  0  0  0  0
  -26.0753  -26.9554   19.4877 C   0  0  0  0  0  0
  -24.8746  -27.6915   19.5051 C   0  0  0  0  0  0
  -23.6037  -29.8175   20.1688 C   0  0  0  0  0  0
  -25.4097  -36.3123   24.0340 C   0  0  1  0  0  0
  -20.5846  -28.3654   23.1327 C   0  0  2  0  0  0
  -20.6759  -26.9395   22.5412 C   0  0  0  0  0  0
  -19.5734  -26.6366   21.5210 C   0  0  0  0  0  0
  -18.1903  -26.7917   22.1602 C   0  0  0  0  0  0
  -19.1511  -28.8826   23.2899 C   0  0  0  0  0  0
  -18.9442  -30.1444   23.8891 C   0  0  0  0  0  0
  -17.6447  -30.6585   24.0542 C   0  0  0  0  0  0
  -25.9035  -34.9493   23.5134 C   0  0  0  0  0  0
  -16.5340  -29.9074   23.6332 C   0  0  0  0  0  0
  -16.7252  -28.6482   23.0370 C   0  0  0  0  0  0
  -26.4459  -31.6618   25.0723 C   0  0  0  0  0  0
  -25.3729  -31.3704   26.1473 C   0  0  0  0  0  0
  -27.0304  -30.3074   24.6079 C   0  0  0  0  0  0
  -27.6018  -32.4336   25.7503 C   0  0  0  0  0  0
  -27.5618  -37.1754   24.8415 C   0  0  0  0  0  0
  -21.4116  -29.3033   22.3758 N   0  0  0  0  0  0
  -26.4263  -37.3834   23.9468 N   0  0  0  0  0  0
  -24.6602  -31.0823   22.1018 N   0  0  0  0  0  0
  -23.4168  -28.8206   23.3054 O   0  0  0  0  0  0
  -28.3990  -26.7474   20.0249 O   0  0  0  0  0  0
  -26.5588  -34.8939   22.4688 O   0  0  0  0  0  0
  -23.5304  -32.1455   23.7535 O   0  0  0  0  0  0
  -29.5438  -19.4119   22.8419 C   0  0  0  0  0  0
  -29.9832  -21.4159   20.9336 C   0  0  0  0  0  0
  -29.8203  -19.0425   21.5083 C   0  0  0  0  0  0
  -29.6612  -21.8001   22.2592 C   0  0  0  0  0  0
  -30.0522  -20.0575   20.5563 C   0  0  0  0  0  0
  -29.4693  -20.7662   23.2173 C   0  0  0  0  0  0
  -30.6529  -16.7744   21.6923 C   0  0  0  0  0  0
  -28.6867  -17.2397   20.2669 C   0  0  0  0  0  0
  -28.5962  -23.5580   23.6641 C   0  0  0  0  0  0
  -30.2164  -15.3035   21.8605 C   0  0  0  0  0  0
  -29.7723  -24.9626   20.8219 C   0  0  0  0  0  0
  -30.3962  -24.1818   21.9982 C   0  0  0  0  0  0
  -28.6844  -25.9851   21.1904 C   0  0  0  0  0  0
  -29.7865  -17.6642   21.1393 N   0  0  0  0  0  0
  -29.5160  -23.1726   22.5948 N   0  0  0  0  0  0
  -31.7454  -17.1272   22.1558 O   0  0  0  0  0  0
  -30.3251  -19.7343   19.2685 F   0  0  0  0  0  0
  -29.2162  -21.0496   24.5188 F   0  0  0  0  0  0
  -31.4662  -12.4533   19.0650 H   0  0  0  0  0  0
  -30.3604  -11.2896   19.7296 H   0  0  0  0  0  0
  -29.7128  -11.8464   17.3790 H   0  0  0  0  0  0
  -29.6443  -13.5446   17.7768 H   0  0  0  0  0  0
  -27.8106  -11.3350   18.7675 H   0  0  0  0  0  0
  -27.3507  -12.7027   17.7896 H   0  0  0  0  0  0
  -27.7378  -14.2548   19.6435 H   0  0  0  0  0  0
  -28.6968  -11.8277   21.2229 H   0  0  0  0  0  0
  -28.4564  -13.3710   21.9269 H   0  0  0  0  0  0
  -25.2768   -9.5668   22.4776 H   0  0  0  0  0  0
  -23.9987   -7.4637   22.7506 H   0  0  0  0  0  0
  -21.0846   -8.8794   19.8941 H   0  0  0  0  0  0
  -22.3725  -10.9691   19.6167 H   0  0  0  0  0  0
  -21.2005   -7.6156   23.9714 H   0  0  0  0  0  0
  -21.1483   -6.0532   25.9081 H   0  0  0  0  0  0
  -22.0600   -2.7609   23.2857 H   0  0  0  0  0  0
  -22.4111  -11.9886   22.4772 H   0  0  0  0  0  0
  -21.1136  -13.1293   22.2578 H   0  0  0  0  0  0
  -24.6578  -15.8340   20.4996 H   0  0  0  0  0  0
  -26.2711  -15.6199   20.0464 H   0  0  0  0  0  0
  -26.7096  -32.5578   23.1181 H   0  0  0  0  0  0
  -25.0100  -33.9814   25.0518 H   0  0  0  0  0  0
  -22.6826  -31.3055   21.4118 H   0  0  0  0  0  0
  -23.3803  -35.9585   23.3138 H   0  0  0  0  0  0
  -24.3620  -36.9100   22.2073 H   0  0  0  0  0  0
  -23.7139  -37.6437   23.6743 H   0  0  0  0  0  0
  -26.0209  -31.6050   20.5881 H   0  0  0  0  0  0
  -26.8135  -30.9063   21.9737 H   0  0  0  0  0  0
  -28.0959  -29.1340   21.1712 H   0  0  0  0  0  0
  -26.1035  -25.9912   18.9999 H   0  0  0  0  0  0
  -23.9877  -27.2863   19.0373 H   0  0  0  0  0  0
  -23.7013  -30.5866   19.4020 H   0  0  0  0  0  0
  -22.7308  -29.2282   19.8824 H   0  0  0  0  0  0
  -25.1244  -36.1963   25.0820 H   0  0  0  0  0  0
  -20.9918  -28.3206   24.1455 H   0  0  0  0  0  0
  -20.5683  -26.2253   23.3584 H   0  0  0  0  0  0
  -21.6629  -26.7445   22.1207 H   0  0  0  0  0  0
  -19.6893  -25.6275   21.1255 H   0  0  0  0  0  0
  -19.6679  -27.3165   20.6726 H   0  0  0  0  0  0
  -17.4188  -26.6704   21.3979 H   0  0  0  0  0  0
  -18.0257  -26.0045   22.8966 H   0  0  0  0  0  0
  -19.7921  -30.7264   24.2243 H   0  0  0  0  0  0
  -17.5006  -31.6283   24.5110 H   0  0  0  0  0  0
  -15.5343  -30.2976   23.7655 H   0  0  0  0  0  0
  -15.8648  -28.0798   22.7099 H   0  0  0  0  0  0
  -24.5889  -30.7070   25.7803 H   0  0  0  0  0  0
  -24.8939  -32.2860   26.4948 H   0  0  0  0  0  0
  -25.8091  -30.8847   27.0212 H   0  0  0  0  0  0
  -26.2854  -29.6828   24.1139 H   0  0  0  0  0  0
  -27.4105  -29.7305   25.4522 H   0  0  0  0  0  0
  -27.8664  -30.4416   23.9207 H   0  0  0  0  0  0
  -27.2628  -33.3624   26.2101 H   0  0  0  0  0  0
  -28.3831  -32.6920   25.0343 H   0  0  0  0  0  0
  -28.0688  -31.8455   26.5416 H   0  0  0  0  0  0
  -28.2437  -38.0248   24.7805 H   0  0  0  0  0  0
  -28.1319  -36.2820   24.5813 H   0  0  0  0  0  0
  -27.2394  -37.0874   25.8806 H   0  0  0  0  0  0
  -20.9267  -29.8783   21.7016 H   0  0  0  0  0  0
  -26.0142  -38.2861   24.1663 H   0  0  0  0  0  0
  -29.3610  -18.6561   23.5909 H   0  0  0  0  0  0
  -30.1490  -22.1578   20.1684 H   0  0  0  0  0  0
  -28.3192  -18.0635   19.6539 H   0  0  0  0  0  0
  -27.8447  -16.8862   20.8616 H   0  0  0  0  0  0
  -28.9896  -16.4488   19.5815 H   0  0  0  0  0  0
  -29.0964  -23.5363   24.6336 H   0  0  0  0  0  0
  -27.7357  -22.8888   23.7121 H   0  0  0  0  0  0
  -28.2124  -24.5680   23.5224 H   0  0  0  0  0  0
  -29.1354  -15.3041   21.9587 H   0  0  0  0  0  0
  -30.6107  -14.9232   22.8022 H   0  0  0  0  0  0
  -29.3800  -24.2787   20.0705 H   0  0  0  0  0  0
  -30.5812  -25.5060   20.3311 H   0  0  0  0  0  0
  -30.7102  -24.8863   22.7709 H   0  0  0  0  0  0
  -31.3166  -23.7041   21.6597 H   0  0  0  0  0  0
  -29.0209  -26.6444   21.9925 H   0  0  0  0  0  0
  -27.7863  -25.4694   21.5319 H   0  0  0  0  0  0
  1 25  1  0  0  0
  1 30  2  0  0  0
  1 80  1  0  0  0
  2  3  1  0  0  0
  2 25  1  0  0  0
  2 89  1  0  0  0
  2 90  1  0  0  0
  3  4  1  0  0  0
  3 91  1  0  0  0
  3 92  1  0  0  0
  4  5  1  0  0  0
  4 93  1  0  0  0
  4 94  1  0  0  0
  5  6  1  0  0  0
  5 26  1  0  0  0
  5 95  1  0  0  0
  6 25  1  0  0  0
  6 96  1  0  0  0
  6 97  1  0  0  0
  7  8  2  0  0  0
  7 26  1  0  0  0
  7 29  1  0  0  0
  8  9  1  0  0  0
  8 22  1  0  0  0
  9 10  1  0  0  0
  9 27  2  0  0  0
 10 11  2  0  0  0
 10 15  1  0  0  0
 11 12  1  0  0  0
 11 98  1  0  0  0
 12 13  2  0  0  0
 12 99  1  0  0  0
 13 14  1  0  0  0
 13 31  1  0  0  0
 14 15  2  0  0  0
 14100  1  0  0  0
 15101  1  0  0  0
 16 17  2  0  0  0
 16 21  1  0  0  0
 16 31  1  0  0  0
 17 18  1  0  0  0
 17102  1  0  0  0
 18 19  2  0  0  0
 18103  1  0  0  0
 19 20  1  0  0  0
 19 24  1  0  0  0
 20 21  2  0  0  0
 20104  1  0  0  0
 21 23  1  0  0  0
 22 28  1  0  0  0
 22 32  2  0  0  0
 26 27  1  0  0  0
 28105  1  0  0  0
 28106  1  0  0  0
 29107  1  0  0  0
 29108  1  0  0  0
 33 34  1  0  0  0
 33 66  1  0  0  0
 33 70  2  0  0  0
 34 36  1  0  0  0
 34 59  1  0  0  0
 34109  1  0  0  0
 35 44  2  0  0  0
 35 45  1  0  0  0
 35 68  1  0  0  0
 36 56  1  0  0  0
 36110  1  0  0  0
 37 39  1  0  0  0
 37 47  1  0  0  0
 37 66  1  0  0  0
 37111  1  0  0  0
 38 43  2  0  0  0
 38 46  1  0  0  0
 38 47  1  0  0  0
 39 64  1  0  0  0
 39 67  2  0  0  0
 40 52  1  0  0  0
 40 53  2  0  0  0
 40 58  1  0  0  0
 41112  1  0  0  0
 41113  1  0  0  0
 41114  1  0  0  0
 41 48  1  0  0  0
 42 43  1  0  0  0
 42 66  1  0  0  0
 42115  1  0  0  0
 42116  1  0  0  0
 43 44  1  0  0  0
 44117  1  0  0  0
 45 46  2  0  0  0
 45118  1  0  0  0
 46119  1  0  0  0
 47120  1  0  0  0
 47121  1  0  0  0
 48 56  1  0  0  0
 48 65  1  0  0  0
 48122  1  0  0  0
 49 50  1  0  0  0
 49 53  1  0  0  0
 49 64  1  0  0  0
 49123  1  0  0  0
 50 51  1  0  0  0
 50124  1  0  0  0
 50125  1  0  0  0
 51 52  1  0  0  0
 51126  1  0  0  0
 51127  1  0  0  0
 52128  1  0  0  0
 52129  1  0  0  0
 53 54  1  0  0  0
 54 55  2  0  0  0
 54130  1  0  0  0
 55 57  1  0  0  0
 55131  1  0  0  0
 56 69  2  0  0  0
 57 58  2  0  0  0
 57132  1  0  0  0
 58133  1  0  0  0
 59 60  1  0  0  0
 59 61  1  0  0  0
 59 62  1  0  0  0
 60134  1  0  0  0
 60135  1  0  0  0
 60136  1  0  0  0
 61137  1  0  0  0
 61138  1  0  0  0
 61139  1  0  0  0
 62140  1  0  0  0
 62141  1  0  0  0
 62142  1  0  0  0
 63 65  1  0  0  0
 63143  1  0  0  0
 63144  1  0  0  0
 63145  1  0  0  0
 64146  1  0  0  0
 65147  1  0  0  0
 68 83  1  0  0  0
 71 73  2  0  0  0
 71 76  1  0  0  0
 71148  1  0  0  0
 72 74  1  0  0  0
 72 75  2  0  0  0
 72149  1  0  0  0
 73 75  1  0  0  0
 73 84  1  0  0  0
 74 76  2  0  0  0
 74 85  1  0  0  0
 75 87  1  0  0  0
 76 88  1  0  0  0
 77 80  1  0  0  0
 77 84  1  0  0  0
 77 86  2  0  0  0
 78 84  1  0  0  0
 78150  1  0  0  0
 78151  1  0  0  0
 78152  1  0  0  0
 79 85  1  0  0  0
 79153  1  0  0  0
 79154  1  0  0  0
 79155  1  0  0  0
 80156  1  0  0  0
 80157  1  0  0  0
 81 82  1  0  0  0
 81 83  1  0  0  0
 81158  1  0  0  0
 81159  1  0  0  0
 82 85  1  0  0  0
 82160  1  0  0  0
 82161  1  0  0  0
 83162  1  0  0  0
 83163  1  0  0  0
M  ISO  4   1 100  68 101  80 100  83 101
M  END
> <chiral flag>
0

> <version>
0

> <s_m_source_file>
/data/baiqing/PycharmProjects/Reinvent-master-3.2/result/LINK_invent/BTK/process_docking_weight1_custom_product_contain_oxygen_bond_distance_aromatic_linkinvent_7_9_3/rearranged_h_0016.sdf

> <i_m_source_file_index>
83

> <r_mmod_Potential_Energy-OPLS-2005>
71.6488876342773

> <r_mmod_Stretch_Energy-OPLS-2005>
38.2780151367188

> <r_mmod_Bend_Energy-OPLS-2005>
111.484008789062

> <r_mmod_Torsional_Energy-OPLS-2005>
277.024841308594

> <r_mmod_Improper_Torsional_Energy-OPLS-2005>
3.20874381065369

> <r_mmod_Van_der_Waal_Energy-OPLS-2005>
160.686599731445

> <r_mmod_Electrostatic_Energy-OPLS-2005>
-302.41796875

> <r_mmod_Solvation_Energy-OPLS-2005>
-224.341461181641

> <b_mmod_Minimization_Converged-OPLS-2005>
0

> <r_mmod_RMS_Derivative-OPLS-2005>
1.72153556346893

$$$$
83
                    3D
 Structure written by MMmdl.
168177  0  0  1  0            999 V2000
  -30.7098  -14.3888   20.6713 C   0  0  0  0  0  0
  -30.4335  -12.2946   19.3905 C   0  0  0  0  0  0
  -29.4923  -12.5303   18.1922 C   0  0  0  0  0  0
  -28.0138  -12.3855   18.6044 C   0  0  0  0  0  0
  -27.6716  -13.1932   19.8834 C   0  0  2  0  0  0
  -28.7069  -12.8960   20.9895 C   0  0  0  0  0  0
  -25.2648  -13.8132   20.5695 C   0  0  0  0  0  0
  -24.1866  -13.0431   20.9156 C   0  0  0  0  0  0
  -24.6392  -11.6885   20.8695 C   0  0  0  0  0  0
  -23.9047  -10.4284   21.0377 C   0  0  0  0  0  0
  -24.3597   -9.4206   21.9163 C   0  0  0  0  0  0
  -23.6273   -8.2242   22.0749 C   0  0  0  0  0  0
  -22.4254   -8.0282   21.3547 C   0  0  0  0  0  0
  -21.9879   -9.0255   20.4654 C   0  0  0  0  0  0
  -22.7213  -10.2127   20.3044 C   0  0  0  0  0  0
  -21.6856   -6.0720   22.5271 C   0  0  0  0  0  0
  -21.4023   -6.5620   23.8203 C   0  0  0  0  0  0
  -21.3662   -5.6782   24.9174 C   0  0  0  0  0  0
  -21.6040   -4.3044   24.7225 C   0  0  0  0  0  0
  -21.8824   -3.8135   23.4352 C   0  0  0  0  0  0
  -21.9198   -4.6946   22.3399 C   0  0  0  0  0  0
  -22.7895  -13.5251   21.1819 C   0  0  0  0  0  0
  -22.1671   -4.2132   21.0981 F   0  0  0  0  0  0
  -21.5625   -3.4533   25.7742 F   0  0  0  0  0  0
  -30.0522  -13.2178   20.4676 N   0  0  0  0  0  0
  -26.3071  -12.9272   20.3368 N   0  0  0  0  0  0
  -25.9309  -11.6439   20.5703 N   0  0  0  0  0  0
  -22.0528  -12.8270   22.0391 N   0  0  0  0  0  0
  -25.4433  -15.1854   20.4190 N   0  0  0  0  0  0
  -31.7361  -14.7144   20.0642 O   0  0  0  0  0  0
  -21.6639   -6.8862   21.4232 O   0  0  0  0  0  0
  -22.3587  -14.5558   20.6673 O   0  0  0  0  0  0
  -24.6118  -31.8699   23.2116 C   0  0  0  0  0  0
  -25.9030  -32.4831   23.8401 C   0  0  1  0  0  0
  -27.2363  -27.4569   20.0946 C   0  0  0  0  0  0
  -25.5890  -33.8629   24.2336 N   0  0  0  0  0  0
  -23.3983  -30.4928   21.5520 C   0  0  2  0  0  0
  -24.8446  -28.9587   20.1164 C   0  0  0  0  0  0
  -22.7392  -29.4665   22.5008 C   0  0  0  0  0  0
  -18.0266  -28.1363   22.8493 C   0  0  0  0  0  0
  -24.1482  -36.7317   23.2629 C   0  0  0  0  0  0
  -25.9240  -30.8425   21.3601 C   0  0  0  0  0  0
  -26.0030  -29.4777   20.7084 C   0  0  0  0  0  0
  -27.2033  -28.7356   20.6910 C   0  0  0  0  0  0
  -26.0646  -26.9474   19.4937 C   0  0  0  0  0  0
  -24.8690  -27.6916   19.5068 C   0  0  0  0  0  0
  -23.6051  -29.8232   20.1665 C   0  0  0  0  0  0
  -25.4098  -36.3118   24.0337 C   0  0  1  0  0  0
  -20.5855  -28.3652   23.1322 C   0  0  2  0  0  0
  -20.6757  -26.9390   22.5422 C   0  0  0  0  0  0
  -19.5742  -26.6379   21.5205 C   0  0  0  0  0  0
  -18.1919  -26.7911   22.1619 C   0  0  0  0  0  0
  -19.1515  -28.8826   23.2904 C   0  0  0  0  0  0
  -18.9451  -30.1432   23.8916 C   0  0  0  0  0  0
  -17.6453  -30.6574   24.0563 C   0  0  0  0  0  0
  -25.9029  -34.9482   23.5139 C   0  0  0  0  0  0
  -16.5343  -29.9080   23.6316 C   0  0  0  0  0  0
  -16.7256  -28.6492   23.0346 C   0  0  0  0  0  0
  -26.4468  -31.6599   25.0716 C   0  0  0  0  0  0
  -25.3749  -31.3735   26.1487 C   0  0  0  0  0  0
  -27.0243  -30.3023   24.6072 C   0  0  0  0  0  0
  -27.6075  -32.4285   25.7455 C   0  0  0  0  0  0
  -27.5588  -37.1790   24.8450 C   0  0  0  0  0  0
  -21.4128  -29.3024   22.3732 N   0  0  0  0  0  0
  -26.4285  -37.3801   23.9424 N   0  0  0  0  0  0
  -24.6628  -31.0817   22.1004 N   0  0  0  0  0  0
  -23.4173  -28.8214   23.3048 O   0  0  0  0  0  0
  -28.4115  -26.7435   20.0833 O   0  0  0  0  0  0
  -26.5590  -34.8931   22.4700 O   0  0  0  0  0  0
  -23.5325  -32.1447   23.7530 O   0  0  0  0  0  0
  -28.6274  -16.9268   22.1219 C   0  0  0  0  0  0
  -28.2750  -18.2861   22.1695 C   0  0  0  0  0  0
  -30.7574  -17.5125   21.1096 C   0  0  0  0  0  0
  -29.8702  -16.5261   21.5966 C   0  0  0  0  0  0
  -29.1619  -19.2932   21.7186 C   0  0  0  0  0  0
  -30.4109  -18.8814   21.1730 C   0  0  0  0  0  0
  -28.1054  -23.2842   19.1270 C   0  0  0  0  0  0
  -30.3235  -23.8003   20.2221 C   0  0  0  0  0  0
  -27.8039  -22.2336   20.2138 C   0  0  0  0  0  0
  -30.0336  -22.7524   21.3144 C   0  0  0  0  0  0
  -29.0374  -24.4116   19.6236 C   0  0  2  0  0  0
  -29.0970  -21.6333   20.8095 C   0  0  1  0  0  0
  -28.7314  -20.7320   24.3738 C   0  0  0  0  0  0
  -28.3380  -25.4053   20.5848 C   0  0  0  0  0  0
  -28.0290  -21.0636   23.0487 C   0  0  0  0  0  0
  -30.1644  -15.1386   21.6398 N   0  0  0  0  0  0
  -28.8074  -20.6592   21.8712 N   0  0  0  0  0  0
  -31.3199  -19.7935   20.7476 F   0  0  0  0  0  0
  -31.4737  -12.4236   19.0861 H   0  0  0  0  0  0
  -30.3531  -11.2652   19.7434 H   0  0  0  0  0  0
  -29.7262  -11.8309   17.3884 H   0  0  0  0  0  0
  -29.6617  -13.5283   17.7858 H   0  0  0  0  0  0
  -27.8144  -11.3255   18.7701 H   0  0  0  0  0  0
  -27.3646  -12.6923   17.7834 H   0  0  0  0  0  0
  -27.7401  -14.2524   19.6308 H   0  0  0  0  0  0
  -28.6745  -11.8376   21.2541 H   0  0  0  0  0  0
  -28.4416  -13.4197   21.9084 H   0  0  0  0  0  0
  -25.2746   -9.5682   22.4729 H   0  0  0  0  0  0
  -23.9982   -7.4640   22.7471 H   0  0  0  0  0  0
  -21.0804   -8.8782   19.8972 H   0  0  0  0  0  0
  -22.3669  -10.9665   19.6152 H   0  0  0  0  0  0
  -21.2016   -7.6128   23.9698 H   0  0  0  0  0  0
  -21.1481   -6.0517   25.9075 H   0  0  0  0  0  0
  -22.0600   -2.7594   23.2862 H   0  0  0  0  0  0
  -22.4122  -11.9921   22.4775 H   0  0  0  0  0  0
  -21.1159  -13.1326   22.2591 H   0  0  0  0  0  0
  -24.6894  -15.8496   20.5564 H   0  0  0  0  0  0
  -26.3088  -15.6229   20.1298 H   0  0  0  0  0  0
  -26.7098  -32.5556   23.1159 H   0  0  0  0  0  0
  -25.0048  -33.9799   25.0488 H   0  0  0  0  0  0
  -22.6857  -31.3084   21.4137 H   0  0  0  0  0  0
  -23.3753  -35.9638   23.3279 H   0  0  0  0  0  0
  -24.3597  -36.8952   22.2050 H   0  0  0  0  0  0
  -23.7219  -37.6511   23.6651 H   0  0  0  0  0  0
  -26.0310  -31.6111   20.5933 H   0  0  0  0  0  0
  -26.8134  -30.8973   21.9759 H   0  0  0  0  0  0
  -28.1009  -29.1351   21.1421 H   0  0  0  0  0  0
  -26.0765  -25.9816   19.0087 H   0  0  0  0  0  0
  -23.9791  -27.2876   19.0440 H   0  0  0  0  0  0
  -23.7109  -30.5980   19.4061 H   0  0  0  0  0  0
  -22.7297  -29.2418   19.8715 H   0  0  0  0  0  0
  -25.1261  -36.1984   25.0826 H   0  0  0  0  0  0
  -20.9942  -28.3222   24.1442 H   0  0  0  0  0  0
  -20.5649  -26.2259   23.3606 H   0  0  0  0  0  0
  -21.6633  -26.7434   22.1224 H   0  0  0  0  0  0
  -19.6912  -25.6296   21.1218 H   0  0  0  0  0  0
  -19.6682  -27.3198   20.6740 H   0  0  0  0  0  0
  -17.4190  -26.6660   21.4018 H   0  0  0  0  0  0
  -18.0325  -26.0039   22.9002 H   0  0  0  0  0  0
  -19.7934  -30.7232   24.2297 H   0  0  0  0  0  0
  -17.5018  -31.6258   24.5157 H   0  0  0  0  0  0
  -15.5347  -30.2991   23.7627 H   0  0  0  0  0  0
  -15.8654  -28.0809   22.7062 H   0  0  0  0  0  0
  -24.5893  -30.7100   25.7854 H   0  0  0  0  0  0
  -24.8971  -32.2910   26.4940 H   0  0  0  0  0  0
  -25.8117  -30.8907   27.0240 H   0  0  0  0  0  0
  -26.2747  -29.6820   24.1141 H   0  0  0  0  0  0
  -27.4013  -29.7233   25.4515 H   0  0  0  0  0  0
  -27.8602  -30.4312   23.9187 H   0  0  0  0  0  0
  -27.2737  -33.3604   26.2030 H   0  0  0  0  0  0
  -28.3879  -32.6808   25.0260 H   0  0  0  0  0  0
  -28.0728  -31.8391   26.5367 H   0  0  0  0  0  0
  -28.2577  -38.0116   24.7558 H   0  0  0  0  0  0
  -28.1113  -36.2661   24.6179 H   0  0  0  0  0  0
  -27.2331  -37.1331   25.8857 H   0  0  0  0  0  0
  -20.9278  -29.8750   21.6964 H   0  0  0  0  0  0
  -26.0181  -38.2871   24.1477 H   0  0  0  0  0  0
  -27.9285  -16.1932   22.5005 H   0  0  0  0  0  0
  -27.3096  -18.5364   22.5813 H   0  0  0  0  0  0
  -31.7243  -17.2393   20.7131 H   0  0  0  0  0  0
  -27.1745  -23.7081   18.7492 H   0  0  0  0  0  0
  -28.5720  -22.7865   18.2752 H   0  0  0  0  0  0
  -30.8987  -23.3260   19.4256 H   0  0  0  0  0  0
  -30.9614  -24.5885   20.6240 H   0  0  0  0  0  0
  -27.1890  -21.4395   19.7884 H   0  0  0  0  0  0
  -27.1978  -22.6996   20.9900 H   0  0  0  0  0  0
  -29.6024  -23.2517   22.1824 H   0  0  0  0  0  0
  -30.9747  -22.3185   21.6544 H   0  0  0  0  0  0
  -29.3356  -24.9821   18.7423 H   0  0  0  0  0  0
  -29.5969  -21.1268   19.9837 H   0  0  0  0  0  0
  -28.1443  -21.1014   25.2156 H   0  0  0  0  0  0
  -29.7142  -21.2010   24.4255 H   0  0  0  0  0  0
  -28.8613  -19.6597   24.5197 H   0  0  0  0  0  0
  -28.8327  -25.4095   21.5560 H   0  0  0  0  0  0
  -27.3179  -25.0854   20.7996 H   0  0  0  0  0  0
  -27.8533  -22.1391   23.0267 H   0  0  0  0  0  0
  -27.0353  -20.6156   23.0194 H   0  0  0  0  0  0
  -29.5058  -14.5999   22.1815 H   0  0  0  0  0  0
  1 25  1  0  0  0
  1 30  2  0  0  0
  1 86  1  0  0  0
  2  3  1  0  0  0
  2 25  1  0  0  0
  2 89  1  0  0  0
  2 90  1  0  0  0
  3  4  1  0  0  0
  3 91  1  0  0  0
  3 92  1  0  0  0
  4  5  1  0  0  0
  4 93  1  0  0  0
  4 94  1  0  0  0
  5  6  1  0  0  0
  5 26  1  0  0  0
  5 95  1  0  0  0
  6 25  1  0  0  0
  6 96  1  0  0  0
  6 97  1  0  0  0
  7  8  2  0  0  0
  7 26  1  0  0  0
  7 29  1  0  0  0
  8  9  1  0  0  0
  8 22  1  0  0  0
  9 10  1  0  0  0
  9 27  2  0  0  0
 10 11  2  0  0  0
 10 15  1  0  0  0
 11 12  1  0  0  0
 11 98  1  0  0  0
 12 13  2  0  0  0
 12 99  1  0  0  0
 13 14  1  0  0  0
 13 31  1  0  0  0
 14 15  2  0  0  0
 14100  1  0  0  0
 15101  1  0  0  0
 16 17  2  0  0  0
 16 21  1  0  0  0
 16 31  1  0  0  0
 17 18  1  0  0  0
 17102  1  0  0  0
 18 19  2  0  0  0
 18103  1  0  0  0
 19 20  1  0  0  0
 19 24  1  0  0  0
 20 21  2  0  0  0
 20104  1  0  0  0
 21 23  1  0  0  0
 22 28  1  0  0  0
 22 32  2  0  0  0
 26 27  1  0  0  0
 28105  1  0  0  0
 28106  1  0  0  0
 29107  1  0  0  0
 29108  1  0  0  0
 33 34  1  0  0  0
 33 66  1  0  0  0
 33 70  2  0  0  0
 34 36  1  0  0  0
 34 59  1  0  0  0
 34109  1  0  0  0
 35 44  2  0  0  0
 35 45  1  0  0  0
 35 68  1  0  0  0
 36 56  1  0  0  0
 36110  1  0  0  0
 37 39  1  0  0  0
 37 47  1  0  0  0
 37 66  1  0  0  0
 37111  1  0  0  0
 38 43  2  0  0  0
 38 46  1  0  0  0
 38 47  1  0  0  0
 39 64  1  0  0  0
 39 67  2  0  0  0
 40 52  1  0  0  0
 40 53  2  0  0  0
 40 58  1  0  0  0
 41112  1  0  0  0
 41113  1  0  0  0
 41114  1  0  0  0
 41 48  1  0  0  0
 42 43  1  0  0  0
 42 66  1  0  0  0
 42115  1  0  0  0
 42116  1  0  0  0
 43 44  1  0  0  0
 44117  1  0  0  0
 45 46  2  0  0  0
 45118  1  0  0  0
 46119  1  0  0  0
 47120  1  0  0  0
 47121  1  0  0  0
 48 56  1  0  0  0
 48 65  1  0  0  0
 48122  1  0  0  0
 49 50  1  0  0  0
 49 53  1  0  0  0
 49 64  1  0  0  0
 49123  1  0  0  0
 50 51  1  0  0  0
 50124  1  0  0  0
 50125  1  0  0  0
 51 52  1  0  0  0
 51126  1  0  0  0
 51127  1  0  0  0
 52128  1  0  0  0
 52129  1  0  0  0
 53 54  1  0  0  0
 54 55  2  0  0  0
 54130  1  0  0  0
 55 57  1  0  0  0
 55131  1  0  0  0
 56 69  2  0  0  0
 57 58  2  0  0  0
 57132  1  0  0  0
 58133  1  0  0  0
 59 60  1  0  0  0
 59 61  1  0  0  0
 59 62  1  0  0  0
 60134  1  0  0  0
 60135  1  0  0  0
 60136  1  0  0  0
 61137  1  0  0  0
 61138  1  0  0  0
 61139  1  0  0  0
 62140  1  0  0  0
 62141  1  0  0  0
 62142  1  0  0  0
 63 65  1  0  0  0
 63143  1  0  0  0
 63144  1  0  0  0
 63145  1  0  0  0
 64146  1  0  0  0
 65147  1  0  0  0
 68 84  1  0  0  0
 71 72  2  0  0  0
 71 74  1  0  0  0
 71148  1  0  0  0
 72 75  1  0  0  0
 72149  1  0  0  0
 73 74  2  0  0  0
 73 76  1  0  0  0
 73150  1  0  0  0
 74 86  1  0  0  0
 75 76  2  0  0  0
 75 87  1  0  0  0
 76 88  1  0  0  0
 77 79  1  0  0  0
 77 81  1  0  0  0
 77151  1  0  0  0
 77152  1  0  0  0
 78 80  1  0  0  0
 78 81  1  0  0  0
 78153  1  0  0  0
 78154  1  0  0  0
 79 82  1  0  0  0
 79155  1  0  0  0
 79156  1  0  0  0
 80 82  1  0  0  0
 80157  1  0  0  0
 80158  1  0  0  0
 81 84  1  0  0  0
 81159  1  0  0  0
 82 87  1  0  0  0
 82160  1  0  0  0
 83 85  1  0  0  0
 83161  1  0  0  0
 83162  1  0  0  0
 83163  1  0  0  0
 84164  1  0  0  0
 84165  1  0  0  0
 85 87  1  0  0  0
 85166  1  0  0  0
 85167  1  0  0  0
 86168  1  0  0  0
M  ISO  4   1 100  68 101  84 101  86 100
M  END
> <chiral flag>
0

> <version>
0

> <s_m_source_file>
/data/baiqing/PycharmProjects/Reinvent-master-3.2/result/LINK_invent/BTK/process_docking_weight1_custom_product_contain_oxygen_bond_distance_aromatic_linkinvent_7_9_3/rearranged_h_0016.sdf

> <i_m_source_file_index>
84

> <r_mmod_Potential_Energy-OPLS-2005>
43.9025611877441

> <r_mmod_Stretch_Energy-OPLS-2005>
37.1883010864258

> <r_mmod_Bend_Energy-OPLS-2005>
112.839530944824

> <r_mmod_Torsional_Energy-OPLS-2005>
287.641235351562

> <r_mmod_Improper_Torsional_Energy-OPLS-2005>
4.9167013168335

> <r_mmod_Van_der_Waal_Energy-OPLS-2005>
161.662307739258

> <r_mmod_Electrostatic_Energy-OPLS-2005>
-368.549377441406

> <r_mmod_Solvation_Energy-OPLS-2005>
-200.188552856445

> <b_mmod_Minimization_Converged-OPLS-2005>
0

> <r_mmod_RMS_Derivative-OPLS-2005>
1.52573227882385

$$$$
84
                    3D
 Structure written by MMmdl.
159168  0  0  1  0            999 V2000
  -30.6112  -14.7322   20.3640 C   0  0  0  0  0  0
  -30.4428  -12.4193   19.4572 C   0  0  0  0  0  0
  -29.5026  -12.3759   18.2308 C   0  0  0  0  0  0
  -28.0203  -12.2953   18.6468 C   0  0  0  0  0  0
  -27.6402  -13.2228   19.8343 C   0  0  2  0  0  0
  -28.6961  -13.1865   20.9570 C   0  0  0  0  0  0
  -25.2562  -13.8192   20.5738 C   0  0  0  0  0  0
  -24.1825  -13.0461   20.9212 C   0  0  0  0  0  0
  -24.6396  -11.6929   20.8783 C   0  0  0  0  0  0
  -23.9078  -10.4307   21.0435 C   0  0  0  0  0  0
  -24.3626   -9.4218   21.9210 C   0  0  0  0  0  0
  -23.6293   -8.2259   22.0770 C   0  0  0  0  0  0
  -22.4277   -8.0300   21.3557 C   0  0  0  0  0  0
  -21.9932   -9.0280   20.4662 C   0  0  0  0  0  0
  -22.7263  -10.2153   20.3074 C   0  0  0  0  0  0
  -21.6845   -6.0755   22.5293 C   0  0  0  0  0  0
  -21.4012   -6.5660   23.8227 C   0  0  0  0  0  0
  -21.3639   -5.6811   24.9187 C   0  0  0  0  0  0
  -21.6022   -4.3072   24.7243 C   0  0  0  0  0  0
  -21.8814   -3.8169   23.4368 C   0  0  0  0  0  0
  -21.9193   -4.6984   22.3423 C   0  0  0  0  0  0
  -22.7854  -13.5257   21.1872 C   0  0  0  0  0  0
  -22.1665   -4.2162   21.1006 F   0  0  0  0  0  0
  -21.5608   -3.4558   25.7761 F   0  0  0  0  0  0
  -29.9879  -13.5078   20.3438 N   0  0  0  0  0  0
  -26.2967  -12.9381   20.3309 N   0  0  0  0  0  0
  -25.9328  -11.6539   20.5828 N   0  0  0  0  0  0
  -22.0486  -12.8225   22.0390 N   0  0  0  0  0  0
  -25.4365  -15.1911   20.4191 N   0  0  0  0  0  0
  -31.8427  -14.7954   20.3087 O   0  0  0  0  0  0
  -21.6632   -6.8901   21.4253 O   0  0  0  0  0  0
  -22.3554  -14.5587   20.6754 O   0  0  0  0  0  0
  -24.6230  -31.8611   23.2006 C   0  0  0  0  0  0
  -25.9088  -32.4774   23.8348 C   0  0  1  0  0  0
  -27.2173  -27.3243   20.1401 C   0  0  0  0  0  0
  -25.5925  -33.8579   24.2287 N   0  0  0  0  0  0
  -23.4145  -30.4812   21.5444 C   0  0  2  0  0  0
  -24.8611  -28.9260   20.1176 C   0  0  0  0  0  0
  -22.7444  -29.4637   22.4968 C   0  0  0  0  0  0
  -18.0276  -28.1380   22.8489 C   0  0  0  0  0  0
  -24.1473  -36.7299   23.2632 C   0  0  0  0  0  0
  -25.9518  -30.7952   21.3656 C   0  0  0  0  0  0
  -26.0273  -29.4173   20.7206 C   0  0  0  0  0  0
  -27.2124  -28.6277   20.7195 C   0  0  0  0  0  0
  -26.0382  -26.8739   19.5175 C   0  0  0  0  0  0
  -24.8681  -27.6604   19.5059 C   0  0  0  0  0  0
  -23.6256  -29.8039   20.1622 C   0  0  0  0  0  0
  -25.4090  -36.3085   24.0328 C   0  0  1  0  0  0
  -20.5866  -28.3688   23.1304 C   0  0  2  0  0  0
  -20.6764  -26.9416   22.5420 C   0  0  0  0  0  0
  -19.5749  -26.6381   21.5217 C   0  0  0  0  0  0
  -18.1920  -26.7928   22.1621 C   0  0  0  0  0  0
  -19.1521  -28.8850   23.2884 C   0  0  0  0  0  0
  -18.9455  -30.1455   23.8896 C   0  0  0  0  0  0
  -17.6453  -30.6585   24.0570 C   0  0  0  0  0  0
  -25.9029  -34.9450   23.5101 C   0  0  0  0  0  0
  -16.5344  -29.9080   23.6348 C   0  0  0  0  0  0
  -16.7263  -28.6503   23.0360 C   0  0  0  0  0  0
  -26.4457  -31.6583   25.0731 C   0  0  0  0  0  0
  -25.3659  -31.3750   26.1449 C   0  0  0  0  0  0
  -27.0292  -30.2997   24.6186 C   0  0  0  0  0  0
  -27.6023  -32.4308   25.7498 C   0  0  0  0  0  0
  -27.5569  -37.1787   24.8466 C   0  0  0  0  0  0
  -21.4164  -29.3052   22.3716 N   0  0  0  0  0  0
  -26.4278  -37.3773   23.9412 N   0  0  0  0  0  0
  -24.6825  -31.0628   22.0946 N   0  0  0  0  0  0
  -23.4179  -28.8188   23.3042 O   0  0  0  0  0  0
  -28.3479  -26.5098   20.1029 O   0  0  0  0  0  0
  -26.5592  -34.8915   22.4667 O   0  0  0  0  0  0
  -23.5407  -32.1427   23.7341 O   0  0  0  0  0  0
  -28.0545  -19.0692   19.6018 C   0  0  0  0  0  0
  -28.3507  -17.6791   19.5631 C   0  0  0  0  0  0
  -30.3047  -18.0357   20.9050 C   0  0  0  0  0  0
  -28.8808  -20.0098   20.2651 C   0  0  0  0  0  0
  -29.5101  -17.1125   20.1625 C   0  0  0  0  0  0
  -29.9962  -19.4429   20.9613 C   0  0  0  0  0  0
  -28.5927  -23.5216   18.9102 C   0  0  0  0  0  0
  -28.4291  -21.9897   18.7663 C   0  0  0  0  0  0
  -28.5648  -22.5387   21.0827 C   0  0  0  0  0  0
  -28.0565  -23.8319   20.3085 C   0  0  1  0  0  0
  -30.0292  -15.7099   18.2691 C   0  0  0  0  0  0
  -28.3927  -25.2735   20.9092 C   0  0  0  0  0  0
  -28.6069  -21.4229   20.1022 N   0  0  0  0  0  0
  -29.8957  -15.7495   19.7388 N   0  0  0  0  0  0
  -30.8452  -20.2649   21.6283 F   0  0  0  0  0  0
  -31.4725  -12.5668   19.1270 H   0  0  0  0  0  0
  -30.4292  -11.4683   19.9919 H   0  0  0  0  0  0
  -29.7512  -11.5061   17.6221 H   0  0  0  0  0  0
  -29.6571  -13.2230   17.5703 H   0  0  0  0  0  0
  -27.8280  -11.2567   18.9171 H   0  0  0  0  0  0
  -27.3809  -12.5049   17.7887 H   0  0  0  0  0  0
  -27.6217  -14.2345   19.4317 H   0  0  0  0  0  0
  -28.7301  -12.2079   21.4378 H   0  0  0  0  0  0
  -28.4538  -13.9146   21.7329 H   0  0  0  0  0  0
  -25.2767   -9.5686   22.4793 H   0  0  0  0  0  0
  -23.9979   -7.4654   22.7502 H   0  0  0  0  0  0
  -21.0860   -8.8821   19.8978 H   0  0  0  0  0  0
  -22.3735  -10.9705   19.6186 H   0  0  0  0  0  0
  -21.2011   -7.6165   23.9732 H   0  0  0  0  0  0
  -21.1443   -6.0551   25.9081 H   0  0  0  0  0  0
  -22.0601   -2.7631   23.2884 H   0  0  0  0  0  0
  -22.4076  -11.9830   22.4699 H   0  0  0  0  0  0
  -21.1136  -13.1290   22.2666 H   0  0  0  0  0  0
  -24.6911  -15.8645   20.5579 H   0  0  0  0  0  0
  -26.3159  -15.6210   20.1675 H   0  0  0  0  0  0
  -26.7173  -32.5432   23.1115 H   0  0  0  0  0  0
  -25.0140  -33.9739   25.0477 H   0  0  0  0  0  0
  -22.7065  -31.2989   21.3958 H   0  0  0  0  0  0
  -23.3734  -35.9632   23.3288 H   0  0  0  0  0  0
  -24.3579  -36.8931   22.2052 H   0  0  0  0  0  0
  -23.7219  -37.6493   23.6663 H   0  0  0  0  0  0
  -26.0689  -31.5517   20.5882 H   0  0  0  0  0  0
  -26.8407  -30.8572   21.9834 H   0  0  0  0  0  0
  -28.1155  -29.0065   21.1793 H   0  0  0  0  0  0
  -26.0260  -25.9057   19.0370 H   0  0  0  0  0  0
  -23.9757  -27.2811   19.0252 H   0  0  0  0  0  0
  -23.7305  -30.5732   19.3962 H   0  0  0  0  0  0
  -22.7480  -29.2234   19.8734 H   0  0  0  0  0  0
  -25.1243  -36.1962   25.0821 H   0  0  0  0  0  0
  -20.9950  -28.3265   24.1429 H   0  0  0  0  0  0
  -20.5693  -26.2281   23.3607 H   0  0  0  0  0  0
  -21.6625  -26.7466   22.1195 H   0  0  0  0  0  0
  -19.6919  -25.6292   21.1251 H   0  0  0  0  0  0
  -19.6695  -27.3193   20.6752 H   0  0  0  0  0  0
  -17.4189  -26.6694   21.4016 H   0  0  0  0  0  0
  -18.0306  -26.0059   22.9015 H   0  0  0  0  0  0
  -19.7931  -30.7272   24.2253 H   0  0  0  0  0  0
  -17.5012  -31.6269   24.5164 H   0  0  0  0  0  0
  -15.5347  -30.2979   23.7676 H   0  0  0  0  0  0
  -15.8661  -28.0828   22.7071 H   0  0  0  0  0  0
  -24.5883  -30.7026   25.7813 H   0  0  0  0  0  0
  -24.8756  -32.2903   26.4784 H   0  0  0  0  0  0
  -25.7948  -30.9037   27.0297 H   0  0  0  0  0  0
  -26.2881  -29.6744   24.1194 H   0  0  0  0  0  0
  -27.3962  -29.7264   25.4711 H   0  0  0  0  0  0
  -27.8746  -30.4277   23.9414 H   0  0  0  0  0  0
  -27.2695  -33.3678   26.1984 H   0  0  0  0  0  0
  -28.3879  -32.6757   25.0331 H   0  0  0  0  0  0
  -28.0618  -31.8464   26.5488 H   0  0  0  0  0  0
  -28.2576  -38.0095   24.7518 H   0  0  0  0  0  0
  -28.1068  -36.2622   24.6273 H   0  0  0  0  0  0
  -27.2284  -37.1409   25.8868 H   0  0  0  0  0  0
  -20.9341  -29.8786   21.6937 H   0  0  0  0  0  0
  -26.0165  -38.2846   24.1422 H   0  0  0  0  0  0
  -27.1837  -19.4195   19.0673 H   0  0  0  0  0  0
  -27.7038  -17.0470   18.9716 H   0  0  0  0  0  0
  -31.2204  -17.6961   21.3663 H   0  0  0  0  0  0
  -28.0669  -24.0700   18.1274 H   0  0  0  0  0  0
  -29.6484  -23.7940   18.8539 H   0  0  0  0  0  0
  -29.1470  -21.5846   18.0526 H   0  0  0  0  0  0
  -27.4280  -21.7520   18.4021 H   0  0  0  0  0  0
  -27.9050  -22.3053   21.9204 H   0  0  0  0  0  0
  -29.5636  -22.7005   21.4893 H   0  0  0  0  0  0
  -26.9700  -23.7676   20.2435 H   0  0  0  0  0  0
  -29.0888  -15.4000   17.8146 H   0  0  0  0  0  0
  -30.8185  -15.0443   17.9112 H   0  0  0  0  0  0
  -30.2833  -16.6911   17.8611 H   0  0  0  0  0  0
  -29.4157  -25.2271   21.2803 H   0  0  0  0  0  0
  -27.7840  -25.4239   21.8030 H   0  0  0  0  0  0
  1 25  1  0  0  0
  1 30  2  0  0  0
  1 84  1  0  0  0
  2  3  1  0  0  0
  2 25  1  0  0  0
  2 86  1  0  0  0
  2 87  1  0  0  0
  3  4  1  0  0  0
  3 88  1  0  0  0
  3 89  1  0  0  0
  4  5  1  0  0  0
  4 90  1  0  0  0
  4 91  1  0  0  0
  5  6  1  0  0  0
  5 26  1  0  0  0
  5 92  1  0  0  0
  6 25  1  0  0  0
  6 93  1  0  0  0
  6 94  1  0  0  0
  7  8  2  0  0  0
  7 26  1  0  0  0
  7 29  1  0  0  0
  8  9  1  0  0  0
  8 22  1  0  0  0
  9 10  1  0  0  0
  9 27  2  0  0  0
 10 11  2  0  0  0
 10 15  1  0  0  0
 11 12  1  0  0  0
 11 95  1  0  0  0
 12 13  2  0  0  0
 12 96  1  0  0  0
 13 14  1  0  0  0
 13 31  1  0  0  0
 14 15  2  0  0  0
 14 97  1  0  0  0
 15 98  1  0  0  0
 16 17  2  0  0  0
 16 21  1  0  0  0
 16 31  1  0  0  0
 17 18  1  0  0  0
 17 99  1  0  0  0
 18 19  2  0  0  0
 18100  1  0  0  0
 19 20  1  0  0  0
 19 24  1  0  0  0
 20 21  2  0  0  0
 20101  1  0  0  0
 21 23  1  0  0  0
 22 28  1  0  0  0
 22 32  2  0  0  0
 26 27  1  0  0  0
 28102  1  0  0  0
 28103  1  0  0  0
 29104  1  0  0  0
 29105  1  0  0  0
 33 34  1  0  0  0
 33 66  1  0  0  0
 33 70  2  0  0  0
 34 36  1  0  0  0
 34 59  1  0  0  0
 34106  1  0  0  0
 35 44  2  0  0  0
 35 45  1  0  0  0
 35 68  1  0  0  0
 36 56  1  0  0  0
 36107  1  0  0  0
 37 39  1  0  0  0
 37 47  1  0  0  0
 37 66  1  0  0  0
 37108  1  0  0  0
 38 43  2  0  0  0
 38 46  1  0  0  0
 38 47  1  0  0  0
 39 64  1  0  0  0
 39 67  2  0  0  0
 40 52  1  0  0  0
 40 53  2  0  0  0
 40 58  1  0  0  0
 41109  1  0  0  0
 41110  1  0  0  0
 41111  1  0  0  0
 41 48  1  0  0  0
 42 43  1  0  0  0
 42 66  1  0  0  0
 42112  1  0  0  0
 42113  1  0  0  0
 43 44  1  0  0  0
 44114  1  0  0  0
 45 46  2  0  0  0
 45115  1  0  0  0
 46116  1  0  0  0
 47117  1  0  0  0
 47118  1  0  0  0
 48 56  1  0  0  0
 48 65  1  0  0  0
 48119  1  0  0  0
 49 50  1  0  0  0
 49 53  1  0  0  0
 49 64  1  0  0  0
 49120  1  0  0  0
 50 51  1  0  0  0
 50121  1  0  0  0
 50122  1  0  0  0
 51 52  1  0  0  0
 51123  1  0  0  0
 51124  1  0  0  0
 52125  1  0  0  0
 52126  1  0  0  0
 53 54  1  0  0  0
 54 55  2  0  0  0
 54127  1  0  0  0
 55 57  1  0  0  0
 55128  1  0  0  0
 56 69  2  0  0  0
 57 58  2  0  0  0
 57129  1  0  0  0
 58130  1  0  0  0
 59 60  1  0  0  0
 59 61  1  0  0  0
 59 62  1  0  0  0
 60131  1  0  0  0
 60132  1  0  0  0
 60133  1  0  0  0
 61134  1  0  0  0
 61135  1  0  0  0
 61136  1  0  0  0
 62137  1  0  0  0
 62138  1  0  0  0
 62139  1  0  0  0
 63 65  1  0  0  0
 63140  1  0  0  0
 63141  1  0  0  0
 63142  1  0  0  0
 64143  1  0  0  0
 65144  1  0  0  0
 68 82  1  0  0  0
 71 72  2  0  0  0
 71 74  1  0  0  0
 71145  1  0  0  0
 72 75  1  0  0  0
 72146  1  0  0  0
 73 75  2  0  0  0
 73 76  1  0  0  0
 73147  1  0  0  0
 74 76  2  0  0  0
 74 83  1  0  0  0
 75 84  1  0  0  0
 76 85  1  0  0  0
 77 78  1  0  0  0
 77 80  1  0  0  0
 77148  1  0  0  0
 77149  1  0  0  0
 78 83  1  0  0  0
 78150  1  0  0  0
 78151  1  0  0  0
 79 80  1  0  0  0
 79 83  1  0  0  0
 79152  1  0  0  0
 79153  1  0  0  0
 80 82  1  0  0  0
 80154  1  0  0  0
 81 84  1  0  0  0
 81155  1  0  0  0
 81156  1  0  0  0
 81157  1  0  0  0
 82158  1  0  0  0
 82159  1  0  0  0
M  ISO  4   1 100  68 101  82 101  84 100
M  END
> <chiral flag>
0

> <version>
0

> <s_m_source_file>
/data/baiqing/PycharmProjects/Reinvent-master-3.2/result/LINK_invent/BTK/process_docking_weight1_custom_product_contain_oxygen_bond_distance_aromatic_linkinvent_7_9_3/rearranged_h_0016.sdf

> <i_m_source_file_index>
85

> <r_mmod_Potential_Energy-OPLS-2005>
493.549743652344

> <r_mmod_Stretch_Energy-OPLS-2005>
85.6815567016602

> <r_mmod_Bend_Energy-OPLS-2005>
218.434967041016

> <r_mmod_Torsional_Energy-OPLS-2005>
416.941772460938

> <r_mmod_Improper_Torsional_Energy-OPLS-2005>
31.4020767211914

> <r_mmod_Van_der_Waal_Energy-OPLS-2005>
131.718246459961

> <r_mmod_Electrostatic_Energy-OPLS-2005>
-264.653167724609

> <r_mmod_Solvation_Energy-OPLS-2005>
-204.336273193359

> <b_mmod_Minimization_Converged-OPLS-2005>
0

> <r_mmod_RMS_Derivative-OPLS-2005>
2.39919805526733

$$$$
85
                    3D
 Structure written by MMmdl.
161169  0  0  1  0            999 V2000
  -30.8063  -14.4409   20.6560 C   0  0  0  0  0  0
  -30.3939  -12.3157   19.4563 C   0  0  0  0  0  0
  -29.4933  -12.5400   18.2247 C   0  0  0  0  0  0
  -28.0154  -12.3705   18.6153 C   0  0  0  0  0  0
  -27.6528  -13.2080   19.8680 C   0  0  2  0  0  0
  -28.6824  -12.9983   20.9982 C   0  0  0  0  0  0
  -25.2537  -13.8155   20.5658 C   0  0  0  0  0  0
  -24.1800  -13.0431   20.9135 C   0  0  0  0  0  0
  -24.6351  -11.6898   20.8676 C   0  0  0  0  0  0
  -23.9036  -10.4290   21.0364 C   0  0  0  0  0  0
  -24.3592   -9.4234   21.9160 C   0  0  0  0  0  0
  -23.6271   -8.2277   22.0762 C   0  0  0  0  0  0
  -22.4257   -8.0298   21.3546 C   0  0  0  0  0  0
  -21.9875   -9.0265   20.4650 C   0  0  0  0  0  0
  -22.7198  -10.2139   20.3039 C   0  0  0  0  0  0
  -21.6846   -6.0739   22.5280 C   0  0  0  0  0  0
  -21.4028   -6.5644   23.8216 C   0  0  0  0  0  0
  -21.3672   -5.6792   24.9171 C   0  0  0  0  0  0
  -21.6052   -4.3057   24.7216 C   0  0  0  0  0  0
  -21.8813   -3.8150   23.4334 C   0  0  0  0  0  0
  -21.9194   -4.6970   22.3396 C   0  0  0  0  0  0
  -22.7838  -13.5260   21.1830 C   0  0  0  0  0  0
  -22.1656   -4.2157   21.0972 F   0  0  0  0  0  0
  -21.5629   -3.4545   25.7730 F   0  0  0  0  0  0
  -30.0290  -13.3198   20.4819 N   0  0  0  0  0  0
  -26.2947  -12.9320   20.3270 N   0  0  0  0  0  0
  -25.9268  -11.6474   20.5675 N   0  0  0  0  0  0
  -22.0473  -12.8271   22.0393 N   0  0  0  0  0  0
  -25.4241  -15.1880   20.4165 N   0  0  0  0  0  0
  -31.8838  -14.5311   20.0528 O   0  0  0  0  0  0
  -21.6637   -6.8881   21.4240 O   0  0  0  0  0  0
  -22.3546  -14.5583   20.6694 O   0  0  0  0  0  0
  -24.6126  -31.8701   23.2104 C   0  0  0  0  0  0
  -25.9051  -32.4813   23.8400 C   0  0  1  0  0  0
  -27.2510  -27.4492   20.0950 C   0  0  0  0  0  0
  -25.5966  -33.8616   24.2346 N   0  0  0  0  0  0
  -23.3981  -30.4900   21.5485 C   0  0  2  0  0  0
  -24.8493  -28.9559   20.1187 C   0  0  0  0  0  0
  -22.7391  -29.4638   22.4989 C   0  0  0  0  0  0
  -18.0254  -28.1399   22.8496 C   0  0  0  0  0  0
  -24.1485  -36.7215   23.2643 C   0  0  0  0  0  0
  -25.9275  -30.8410   21.3604 C   0  0  0  0  0  0
  -26.0074  -29.4754   20.7070 C   0  0  0  0  0  0
  -27.2061  -28.7321   20.6879 C   0  0  0  0  0  0
  -26.0669  -26.9324   19.5180 C   0  0  0  0  0  0
  -24.8731  -27.6830   19.5241 C   0  0  0  0  0  0
  -23.6091  -29.8191   20.1631 C   0  0  0  0  0  0
  -25.4132  -36.3090   24.0339 C   0  0  1  0  0  0
  -20.5842  -28.3640   23.1346 C   0  0  2  0  0  0
  -20.6739  -26.9386   22.5414 C   0  0  0  0  0  0
  -19.5737  -26.6398   21.5204 C   0  0  0  0  0  0
  -18.1915  -26.7954   22.1614 C   0  0  0  0  0  0
  -19.1503  -28.8839   23.2909 C   0  0  0  0  0  0
  -18.9453  -30.1460   23.8895 C   0  0  0  0  0  0
  -17.6464  -30.6609   24.0580 C   0  0  0  0  0  0
  -25.9088  -34.9466   23.5126 C   0  0  0  0  0  0
  -16.5342  -29.9141   23.6332 C   0  0  0  0  0  0
  -16.7239  -28.6550   23.0345 C   0  0  0  0  0  0
  -26.4499  -31.6559   25.0715 C   0  0  0  0  0  0
  -25.3781  -31.3609   26.1463 C   0  0  0  0  0  0
  -27.0306  -30.3018   24.6058 C   0  0  0  0  0  0
  -27.6088  -32.4228   25.7512 C   0  0  0  0  0  0
  -27.5579  -37.1772   24.8505 C   0  0  0  0  0  0
  -21.4117  -29.2995   22.3747 N   0  0  0  0  0  0
  -26.4307  -37.3791   23.9435 N   0  0  0  0  0  0
  -24.6629  -31.0854   22.0965 N   0  0  0  0  0  0
  -23.4166  -28.8173   23.3023 O   0  0  0  0  0  0
  -28.4706  -26.7992   20.0946 O   0  0  0  0  0  0
  -26.5622  -34.8928   22.4668 O   0  0  0  0  0  0
  -23.5319  -32.1398   23.7535 O   0  0  0  0  0  0
  -30.3551  -18.7805   22.6159 C   0  0  0  0  0  0
  -29.9595  -18.8911   20.2265 C   0  0  0  0  0  0
  -29.8311  -20.0814   22.7618 C   0  0  0  0  0  0
  -29.4581  -20.2037   20.3721 C   0  0  0  0  0  0
  -30.4165  -18.1624   21.3494 C   0  0  0  0  0  0
  -29.3796  -20.8229   21.6444 C   0  0  0  0  0  0
  -27.8668  -22.2685   22.8739 C   0  0  0  0  0  0
  -29.6876  -15.4497   22.6520 C   0  0  0  0  0  0
  -31.1228  -16.8134   21.1668 C   0  0  0  0  0  0
  -28.6103  -24.5288   21.0262 C   0  0  0  0  0  0
  -28.8306  -23.0368   20.6670 C   0  0  0  0  0  0
  -28.5950  -25.4140   19.7657 C   0  0  0  0  0  0
  -28.8804  -22.1354   21.8249 N   0  0  0  0  0  0
  -30.3634  -15.5365   21.3509 N   0  0  0  0  0  0
  -31.4424  -12.3557   19.1590 H   0  0  0  0  0  0
  -30.2572  -11.3061   19.8494 H   0  0  0  0  0  0
  -29.7605  -11.8459   17.4269 H   0  0  0  0  0  0
  -29.6513  -13.5433   17.8228 H   0  0  0  0  0  0
  -27.8399  -11.3109   18.8084 H   0  0  0  0  0  0
  -27.3697  -12.6390   17.7778 H   0  0  0  0  0  0
  -27.6930  -14.2565   19.5726 H   0  0  0  0  0  0
  -28.6581  -11.9598   21.3338 H   0  0  0  0  0  0
  -28.3640  -13.5543   21.8690 H   0  0  0  0  0  0
  -25.2735   -9.5730   22.4723 H   0  0  0  0  0  0
  -23.9989   -7.4674   22.7481 H   0  0  0  0  0  0
  -21.0814   -8.8765   19.8956 H   0  0  0  0  0  0
  -22.3637  -10.9672   19.6147 H   0  0  0  0  0  0
  -21.2030   -7.6150   23.9720 H   0  0  0  0  0  0
  -21.1500   -6.0519   25.9072 H   0  0  0  0  0  0
  -22.0579   -2.7617   23.2825 H   0  0  0  0  0  0
  -22.4045  -11.9916   22.4769 H   0  0  0  0  0  0
  -21.1107  -13.1343   22.2595 H   0  0  0  0  0  0
  -24.6580  -15.8404   20.5457 H   0  0  0  0  0  0
  -26.2936  -15.6425   20.1644 H   0  0  0  0  0  0
  -26.7126  -32.5500   23.1163 H   0  0  0  0  0  0
  -25.0205  -33.9799   25.0558 H   0  0  0  0  0  0
  -22.6835  -31.3017   21.4047 H   0  0  0  0  0  0
  -23.3809  -35.9486   23.3377 H   0  0  0  0  0  0
  -24.3574  -36.8749   22.2045 H   0  0  0  0  0  0
  -23.7186  -37.6419   23.6595 H   0  0  0  0  0  0
  -26.0608  -31.6109   20.5985 H   0  0  0  0  0  0
  -26.8091  -30.8833   21.9857 H   0  0  0  0  0  0
  -28.1011  -29.1419   21.1325 H   0  0  0  0  0  0
  -26.0271  -25.9608   19.0518 H   0  0  0  0  0  0
  -23.9777  -27.2737   19.0767 H   0  0  0  0  0  0
  -23.7156  -30.5876   19.3975 H   0  0  0  0  0  0
  -22.7354  -29.2365   19.8651 H   0  0  0  0  0  0
  -25.1324  -36.1941   25.0833 H   0  0  0  0  0  0
  -20.9929  -28.3199   24.1469 H   0  0  0  0  0  0
  -20.5683  -26.2223   23.3574 H   0  0  0  0  0  0
  -21.6618  -26.7467   22.1208 H   0  0  0  0  0  0
  -19.6907  -25.6327   21.1213 H   0  0  0  0  0  0
  -19.6721  -27.3236   20.6760 H   0  0  0  0  0  0
  -17.4182  -26.6664   21.4016 H   0  0  0  0  0  0
  -18.0325  -26.0094   22.9013 H   0  0  0  0  0  0
  -19.7923  -30.7272   24.2255 H   0  0  0  0  0  0
  -17.5030  -31.6302   24.5183 H   0  0  0  0  0  0
  -15.5356  -30.3077   23.7672 H   0  0  0  0  0  0
  -15.8599  -28.0912   22.7064 H   0  0  0  0  0  0
  -24.5991  -30.6939   25.7787 H   0  0  0  0  0  0
  -24.8931  -32.2713   26.4962 H   0  0  0  0  0  0
  -25.8175  -30.8730   27.0170 H   0  0  0  0  0  0
  -26.2792  -29.6810   24.1166 H   0  0  0  0  0  0
  -27.4159  -29.7247   25.4476 H   0  0  0  0  0  0
  -27.8631  -30.4378   23.9156 H   0  0  0  0  0  0
  -27.2763  -33.3526   26.2145 H   0  0  0  0  0  0
  -28.3935  -32.6789   25.0379 H   0  0  0  0  0  0
  -28.0734  -31.8285   26.5410 H   0  0  0  0  0  0
  -28.2662  -38.0017   24.7568 H   0  0  0  0  0  0
  -28.1012  -36.2560   24.6325 H   0  0  0  0  0  0
  -27.2279  -37.1422   25.8907 H   0  0  0  0  0  0
  -20.9265  -29.8620   21.6898 H   0  0  0  0  0  0
  -26.0186  -38.2857   24.1474 H   0  0  0  0  0  0
  -30.7436  -18.2769   23.4888 H   0  0  0  0  0  0
  -30.0321  -18.4728   19.2321 H   0  0  0  0  0  0
  -29.8052  -20.5196   23.7487 H   0  0  0  0  0  0
  -29.1396  -20.7236   19.4822 H   0  0  0  0  0  0
  -27.4389  -21.3103   23.1725 H   0  0  0  0  0  0
  -27.0316  -22.8851   22.5437 H   0  0  0  0  0  0
  -28.2963  -22.7425   23.7559 H   0  0  0  0  0  0
  -29.8628  -14.4913   23.1442 H   0  0  0  0  0  0
  -28.6157  -15.6159   22.5369 H   0  0  0  0  0  0
  -30.0415  -16.1980   23.3540 H   0  0  0  0  0  0
  -31.9780  -16.7963   21.8453 H   0  0  0  0  0  0
  -31.5529  -16.8680   20.1636 H   0  0  0  0  0  0
  -29.4025  -24.8670   21.6973 H   0  0  0  0  0  0
  -27.6734  -24.6751   21.5629 H   0  0  0  0  0  0
  -29.7715  -22.9527   20.1178 H   0  0  0  0  0  0
  -28.0473  -22.7043   19.9844 H   0  0  0  0  0  0
  -27.8687  -25.0565   19.0387 H   0  0  0  0  0  0
  -29.5583  -25.3080   19.2670 H   0  0  0  0  0  0
  1 25  1  0  0  0
  1 30  2  0  0  0
  1 84  1  0  0  0
  2  3  1  0  0  0
  2 25  1  0  0  0
  2 85  1  0  0  0
  2 86  1  0  0  0
  3  4  1  0  0  0
  3 87  1  0  0  0
  3 88  1  0  0  0
  4  5  1  0  0  0
  4 89  1  0  0  0
  4 90  1  0  0  0
  5  6  1  0  0  0
  5 26  1  0  0  0
  5 91  1  0  0  0
  6 25  1  0  0  0
  6 92  1  0  0  0
  6 93  1  0  0  0
  7  8  2  0  0  0
  7 26  1  0  0  0
  7 29  1  0  0  0
  8  9  1  0  0  0
  8 22  1  0  0  0
  9 10  1  0  0  0
  9 27  2  0  0  0
 10 11  2  0  0  0
 10 15  1  0  0  0
 11 12  1  0  0  0
 11 94  1  0  0  0
 12 13  2  0  0  0
 12 95  1  0  0  0
 13 14  1  0  0  0
 13 31  1  0  0  0
 14 15  2  0  0  0
 14 96  1  0  0  0
 15 97  1  0  0  0
 16 17  2  0  0  0
 16 21  1  0  0  0
 16 31  1  0  0  0
 17 18  1  0  0  0
 17 98  1  0  0  0
 18 19  2  0  0  0
 18 99  1  0  0  0
 19 20  1  0  0  0
 19 24  1  0  0  0
 20 21  2  0  0  0
 20100  1  0  0  0
 21 23  1  0  0  0
 22 28  1  0  0  0
 22 32  2  0  0  0
 26 27  1  0  0  0
 28101  1  0  0  0
 28102  1  0  0  0
 29103  1  0  0  0
 29104  1  0  0  0
 33 34  1  0  0  0
 33 66  1  0  0  0
 33 70  2  0  0  0
 34 36  1  0  0  0
 34 59  1  0  0  0
 34105  1  0  0  0
 35 44  2  0  0  0
 35 45  1  0  0  0
 35 68  1  0  0  0
 36 56  1  0  0  0
 36106  1  0  0  0
 37 39  1  0  0  0
 37 47  1  0  0  0
 37 66  1  0  0  0
 37107  1  0  0  0
 38 43  2  0  0  0
 38 46  1  0  0  0
 38 47  1  0  0  0
 39 64  1  0  0  0
 39 67  2  0  0  0
 40 52  1  0  0  0
 40 53  2  0  0  0
 40 58  1  0  0  0
 41108  1  0  0  0
 41109  1  0  0  0
 41110  1  0  0  0
 41 48  1  0  0  0
 42 43  1  0  0  0
 42 66  1  0  0  0
 42111  1  0  0  0
 42112  1  0  0  0
 43 44  1  0  0  0
 44113  1  0  0  0
 45 46  2  0  0  0
 45114  1  0  0  0
 46115  1  0  0  0
 47116  1  0  0  0
 47117  1  0  0  0
 48 56  1  0  0  0
 48 65  1  0  0  0
 48118  1  0  0  0
 49 50  1  0  0  0
 49 53  1  0  0  0
 49 64  1  0  0  0
 49119  1  0  0  0
 50 51  1  0  0  0
 50120  1  0  0  0
 50121  1  0  0  0
 51 52  1  0  0  0
 51122  1  0  0  0
 51123  1  0  0  0
 52124  1  0  0  0
 52125  1  0  0  0
 53 54  1  0  0  0
 54 55  2  0  0  0
 54126  1  0  0  0
 55 57  1  0  0  0
 55127  1  0  0  0
 56 69  2  0  0  0
 57 58  2  0  0  0
 57128  1  0  0  0
 58129  1  0  0  0
 59 60  1  0  0  0
 59 61  1  0  0  0
 59 62  1  0  0  0
 60130  1  0  0  0
 60131  1  0  0  0
 60132  1  0  0  0
 61133  1  0  0  0
 61134  1  0  0  0
 61135  1  0  0  0
 62136  1  0  0  0
 62137  1  0  0  0
 62138  1  0  0  0
 63 65  1  0  0  0
 63139  1  0  0  0
 63140  1  0  0  0
 63141  1  0  0  0
 64142  1  0  0  0
 65143  1  0  0  0
 68 82  1  0  0  0
 71 73  2  0  0  0
 71 75  1  0  0  0
 71144  1  0  0  0
 72 74  1  0  0  0
 72 75  2  0  0  0
 72145  1  0  0  0
 73 76  1  0  0  0
 73146  1  0  0  0
 74 76  2  0  0  0
 74147  1  0  0  0
 75 79  1  0  0  0
 76 83  1  0  0  0
 77 83  1  0  0  0
 77148  1  0  0  0
 77149  1  0  0  0
 77150  1  0  0  0
 78 84  1  0  0  0
 78151  1  0  0  0
 78152  1  0  0  0
 78153  1  0  0  0
 79 84  1  0  0  0
 79154  1  0  0  0
 79155  1  0  0  0
 80 81  1  0  0  0
 80 82  1  0  0  0
 80156  1  0  0  0
 80157  1  0  0  0
 81 83  1  0  0  0
 81158  1  0  0  0
 81159  1  0  0  0
 82160  1  0  0  0
 82161  1  0  0  0
M  ISO  4   1 100  68 101  82 101  84 100
M  END
> <chiral flag>
0

> <version>
0

> <s_m_source_file>
/data/baiqing/PycharmProjects/Reinvent-master-3.2/result/LINK_invent/BTK/process_docking_weight1_custom_product_contain_oxygen_bond_distance_aromatic_linkinvent_7_9_3/rearranged_h_0016.sdf

> <i_m_source_file_index>
86

> <r_mmod_Potential_Energy-OPLS-2005>
100.385414123535

> <r_mmod_Stretch_Energy-OPLS-2005>
46.212100982666

> <r_mmod_Bend_Energy-OPLS-2005>
142.126251220703

> <r_mmod_Torsional_Energy-OPLS-2005>
238.704498291016

> <r_mmod_Improper_Torsional_Energy-OPLS-2005>
7.92415904998779

> <r_mmod_Van_der_Waal_Energy-OPLS-2005>
180.791030883789

> <r_mmod_Electrostatic_Energy-OPLS-2005>
-317.921661376953

> <r_mmod_Solvation_Energy-OPLS-2005>
-212.284820556641

> <b_mmod_Minimization_Converged-OPLS-2005>
0

> <r_mmod_RMS_Derivative-OPLS-2005>
4.60344171524048

$$$$
86
                    3D
 Structure written by MMmdl.
168176  0  0  1  0            999 V2000
  -30.7731  -14.3756   20.6877 C   0  0  0  0  0  0
  -30.4131  -12.2947   19.4019 C   0  0  0  0  0  0
  -29.4861  -12.5283   18.1959 C   0  0  0  0  0  0
  -28.0118  -12.3740   18.6126 C   0  0  0  0  0  0
  -27.6658  -13.2031   19.8768 C   0  0  2  0  0  0
  -28.7043  -12.9736   20.9982 C   0  0  0  0  0  0
  -25.2607  -13.8158   20.5659 C   0  0  0  0  0  0
  -24.1854  -13.0454   20.9150 C   0  0  0  0  0  0
  -24.6395  -11.6909   20.8732 C   0  0  0  0  0  0
  -23.9054  -10.4304   21.0407 C   0  0  0  0  0  0
  -24.3614   -9.4218   21.9189 C   0  0  0  0  0  0
  -23.6291   -8.2254   22.0762 C   0  0  0  0  0  0
  -22.4278   -8.0285   21.3547 C   0  0  0  0  0  0
  -21.9908   -9.0259   20.4651 C   0  0  0  0  0  0
  -22.7236  -10.2138   20.3058 C   0  0  0  0  0  0
  -21.6847   -6.0736   22.5280 C   0  0  0  0  0  0
  -21.4020   -6.5642   23.8215 C   0  0  0  0  0  0
  -21.3664   -5.6795   24.9176 C   0  0  0  0  0  0
  -21.6042   -4.3052   24.7226 C   0  0  0  0  0  0
  -21.8814   -3.8151   23.4345 C   0  0  0  0  0  0
  -21.9193   -4.6970   22.3407 C   0  0  0  0  0  0
  -22.7875  -13.5261   21.1819 C   0  0  0  0  0  0
  -22.1650   -4.2153   21.0987 F   0  0  0  0  0  0
  -21.5631   -3.4537   25.7743 F   0  0  0  0  0  0
  -30.0440  -13.2525   20.4559 N   0  0  0  0  0  0
  -26.3043  -12.9323   20.3352 N   0  0  0  0  0  0
  -25.9326  -11.6487   20.5752 N   0  0  0  0  0  0
  -22.0501  -12.8267   22.0366 N   0  0  0  0  0  0
  -25.4357  -15.1878   20.4070 N   0  0  0  0  0  0
  -31.8059  -14.6173   20.0551 O   0  0  0  0  0  0
  -21.6642   -6.8883   21.4246 O   0  0  0  0  0  0
  -22.3573  -14.5575   20.6665 O   0  0  0  0  0  0
  -24.6096  -31.8719   23.2118 C   0  0  0  0  0  0
  -25.8998  -32.4860   23.8424 C   0  0  1  0  0  0
  -27.2568  -27.4722   20.1051 C   0  0  0  0  0  0
  -25.5861  -33.8655   24.2355 N   0  0  0  0  0  0
  -23.3998  -30.4893   21.5524 C   0  0  2  0  0  0
  -24.8528  -28.9596   20.1151 C   0  0  0  0  0  0
  -22.7397  -29.4658   22.5031 C   0  0  0  0  0  0
  -18.0261  -28.1378   22.8494 C   0  0  0  0  0  0
  -24.1487  -36.7315   23.2641 C   0  0  0  0  0  0
  -25.9208  -30.8513   21.3585 C   0  0  0  0  0  0
  -26.0053  -29.4881   20.7088 C   0  0  0  0  0  0
  -27.2084  -28.7551   20.7010 C   0  0  0  0  0  0
  -26.0963  -26.9628   19.4888 C   0  0  0  0  0  0
  -24.8920  -27.6951   19.4976 C   0  0  0  0  0  0
  -23.6064  -29.8135   20.1684 C   0  0  0  0  0  0
  -25.4112  -36.3144   24.0348 C   0  0  1  0  0  0
  -20.5846  -28.3666   23.1336 C   0  0  2  0  0  0
  -20.6752  -26.9413   22.5427 C   0  0  0  0  0  0
  -19.5736  -26.6381   21.5221 C   0  0  0  0  0  0
  -18.1909  -26.7928   22.1617 C   0  0  0  0  0  0
  -19.1512  -28.8836   23.2914 C   0  0  0  0  0  0
  -18.9451  -30.1434   23.8946 C   0  0  0  0  0  0
  -17.6468  -30.6608   24.0555 C   0  0  0  0  0  0
  -25.9022  -34.9504   23.5158 C   0  0  0  0  0  0
  -16.5355  -29.9111   23.6320 C   0  0  0  0  0  0
  -16.7253  -28.6503   23.0372 C   0  0  0  0  0  0
  -26.4456  -31.6627   25.0733 C   0  0  0  0  0  0
  -25.3740  -31.3683   26.1493 C   0  0  0  0  0  0
  -27.0274  -30.3090   24.6027 C   0  0  0  0  0  0
  -27.6043  -32.4357   25.7476 C   0  0  0  0  0  0
  -27.5609  -37.1805   24.8463 C   0  0  0  0  0  0
  -21.4131  -29.3038   22.3761 N   0  0  0  0  0  0
  -26.4314  -37.3813   23.9412 N   0  0  0  0  0  0
  -24.6612  -31.0839   22.1007 N   0  0  0  0  0  0
  -23.4180  -28.8213   23.3076 O   0  0  0  0  0  0
  -28.3887  -26.6856   20.1135 O   0  0  0  0  0  0
  -26.5583  -34.8948   22.4725 O   0  0  0  0  0  0
  -23.5294  -32.1442   23.7535 O   0  0  0  0  0  0
  -29.1367  -20.6396   22.9913 C   0  0  0  0  0  0
  -31.3771  -20.9390   22.0832 C   0  0  0  0  0  0
  -29.1517  -21.9715   23.4594 C   0  0  0  0  0  0
  -31.3939  -22.2644   22.5601 C   0  0  0  0  0  0
  -30.2596  -20.1066   22.3201 C   0  0  0  0  0  0
  -30.2904  -22.7845   23.2633 C   0  0  0  0  0  0
  -30.3904  -24.0092   25.2814 C   0  0  0  0  0  0
  -31.9001  -18.2245   23.7200 C   0  0  0  0  0  0
  -30.2787  -18.6515   21.8432 C   0  0  0  0  0  0
  -30.3112  -15.3990   21.7477 C   0  0  0  0  0  0
  -29.6719  -25.3307   21.7327 C   0  0  0  0  0  0
  -29.5507  -25.1224   23.2580 C   0  0  0  0  0  0
  -31.3977  -16.4487   22.1002 C   0  0  0  0  0  0
  -29.1544  -26.7253   21.3216 C   0  0  0  0  0  0
  -30.3953  -24.0684   23.8221 N   0  0  0  0  0  0
  -30.8789  -17.6629   22.7956 N   0  3  1  0  0  0
  -31.4586  -12.3817   19.0969 H   0  0  0  0  0  0
  -30.2995  -11.2745   19.7742 H   0  0  0  0  0  0
  -29.7240  -11.8279   17.3937 H   0  0  0  0  0  0
  -29.6521  -13.5278   17.7915 H   0  0  0  0  0  0
  -27.8257  -11.3156   18.7967 H   0  0  0  0  0  0
  -27.3573  -12.6550   17.7871 H   0  0  0  0  0  0
  -27.7179  -14.2533   19.5905 H   0  0  0  0  0  0
  -28.6646  -11.9419   21.3480 H   0  0  0  0  0  0
  -28.4496  -13.5839   21.8631 H   0  0  0  0  0  0
  -25.2763   -9.5693   22.4769 H   0  0  0  0  0  0
  -23.9997   -7.4650   22.7494 H   0  0  0  0  0  0
  -21.0836   -8.8779   19.8968 H   0  0  0  0  0  0
  -22.3693  -10.9675   19.6171 H   0  0  0  0  0  0
  -21.2010   -7.6152   23.9722 H   0  0  0  0  0  0
  -21.1487   -6.0524   25.9079 H   0  0  0  0  0  0
  -22.0588   -2.7612   23.2850 H   0  0  0  0  0  0
  -22.4080  -11.9911   22.4756 H   0  0  0  0  0  0
  -21.1136  -13.1344   22.2596 H   0  0  0  0  0  0
  -24.6722  -15.8474   20.5106 H   0  0  0  0  0  0
  -26.2956  -15.6228   20.0966 H   0  0  0  0  0  0
  -26.7083  -32.5603   23.1210 H   0  0  0  0  0  0
  -25.0059  -33.9828   25.0530 H   0  0  0  0  0  0
  -22.6888  -31.3063   21.4110 H   0  0  0  0  0  0
  -23.3785  -35.9619   23.3297 H   0  0  0  0  0  0
  -24.3595  -36.8919   22.2058 H   0  0  0  0  0  0
  -23.7193  -37.6498   23.6658 H   0  0  0  0  0  0
  -26.0204  -31.6194   20.5910 H   0  0  0  0  0  0
  -26.8101  -30.9147   21.9716 H   0  0  0  0  0  0
  -28.0938  -29.1764   21.1566 H   0  0  0  0  0  0
  -26.1231  -25.9916   19.0157 H   0  0  0  0  0  0
  -24.0098  -27.2813   19.0273 H   0  0  0  0  0  0
  -23.7049  -30.5841   19.4046 H   0  0  0  0  0  0
  -22.7354  -29.2209   19.8806 H   0  0  0  0  0  0
  -25.1287  -36.2043   25.0843 H   0  0  0  0  0  0
  -20.9934  -28.3242   24.1455 H   0  0  0  0  0  0
  -20.5653  -26.2287   23.3615 H   0  0  0  0  0  0
  -21.6625  -26.7459   22.1231 H   0  0  0  0  0  0
  -19.6897  -25.6284   21.1262 H   0  0  0  0  0  0
  -19.6683  -27.3171   20.6738 H   0  0  0  0  0  0
  -17.4183  -26.6696   21.4009 H   0  0  0  0  0  0
  -18.0291  -26.0067   22.8999 H   0  0  0  0  0  0
  -19.7936  -30.7204   24.2373 H   0  0  0  0  0  0
  -17.5038  -31.6299   24.5135 H   0  0  0  0  0  0
  -15.5358  -30.3043   23.7611 H   0  0  0  0  0  0
  -15.8639  -28.0822   22.7114 H   0  0  0  0  0  0
  -24.5914  -30.7037   25.7805 H   0  0  0  0  0  0
  -24.8938  -32.2814   26.5021 H   0  0  0  0  0  0
  -25.8116  -30.8796   27.0206 H   0  0  0  0  0  0
  -26.2761  -29.6871   24.1145 H   0  0  0  0  0  0
  -27.4127  -29.7317   25.4440 H   0  0  0  0  0  0
  -27.8573  -30.4430   23.9087 H   0  0  0  0  0  0
  -27.2656  -33.3637   26.2102 H   0  0  0  0  0  0
  -28.3813  -32.6956   25.0271 H   0  0  0  0  0  0
  -28.0768  -31.8466   26.5342 H   0  0  0  0  0  0
  -28.2606  -38.0127   24.7601 H   0  0  0  0  0  0
  -28.1135  -36.2673   24.6211 H   0  0  0  0  0  0
  -27.2340  -37.1348   25.8864 H   0  0  0  0  0  0
  -20.9303  -29.8801   21.7003 H   0  0  0  0  0  0
  -26.0234  -38.2897   24.1441 H   0  0  0  0  0  0
  -28.2621  -20.0271   23.1652 H   0  0  0  0  0  0
  -32.2440  -20.5560   21.5625 H   0  0  0  0  0  0
  -28.2959  -22.3551   23.9966 H   0  0  0  0  0  0
  -32.2751  -22.8732   22.4086 H   0  0  0  0  0  0
  -29.3737  -23.9155   25.6682 H   0  0  0  0  0  0
  -30.8222  -24.9177   25.7037 H   0  0  0  0  0  0
  -30.9701  -23.1629   25.6542 H   0  0  0  0  0  0
  -31.4812  -18.9989   24.3632 H   0  0  0  0  0  0
  -32.7446  -18.6460   23.1739 H   0  0  0  0  0  0
  -32.2891  -17.4589   24.3920 H   0  0  0  0  0  0
  -30.8228  -18.6402   20.8975 H   0  0  0  0  0  0
  -29.2622  -18.3370   21.6000 H   0  0  0  0  0  0
  -29.4154  -15.8825   21.3605 H   0  0  0  0  0  0
  -30.0320  -14.8752   22.6627 H   0  0  0  0  0  0
  -29.1117  -24.5493   21.2177 H   0  0  0  0  0  0
  -30.7076  -25.2323   21.4080 H   0  0  0  0  0  0
  -28.5078  -24.9443   23.5256 H   0  0  0  0  0  0
  -29.8309  -26.0542   23.7546 H   0  0  0  0  0  0
  -31.9606  -16.7710   21.2232 H   0  0  0  0  0  0
  -32.1322  -15.9446   22.7299 H   0  0  0  0  0  0
  -29.9922  -27.4126   21.1959 H   0  0  0  0  0  0
  -28.5593  -27.1181   22.1476 H   0  0  0  0  0  0
  -30.1303  -17.3619   23.4020 H   0  0  0  0  0  0
  1 25  1  0  0  0
  1 30  2  0  0  0
  1 80  1  0  0  0
  2  3  1  0  0  0
  2 25  1  0  0  0
  2 87  1  0  0  0
  2 88  1  0  0  0
  3  4  1  0  0  0
  3 89  1  0  0  0
  3 90  1  0  0  0
  4  5  1  0  0  0
  4 91  1  0  0  0
  4 92  1  0  0  0
  5  6  1  0  0  0
  5 26  1  0  0  0
  5 93  1  0  0  0
  6 25  1  0  0  0
  6 94  1  0  0  0
  6 95  1  0  0  0
  7  8  2  0  0  0
  7 26  1  0  0  0
  7 29  1  0  0  0
  8  9  1  0  0  0
  8 22  1  0  0  0
  9 10  1  0  0  0
  9 27  2  0  0  0
 10 11  2  0  0  0
 10 15  1  0  0  0
 11 12  1  0  0  0
 11 96  1  0  0  0
 12 13  2  0  0  0
 12 97  1  0  0  0
 13 14  1  0  0  0
 13 31  1  0  0  0
 14 15  2  0  0  0
 14 98  1  0  0  0
 15 99  1  0  0  0
 16 17  2  0  0  0
 16 21  1  0  0  0
 16 31  1  0  0  0
 17 18  1  0  0  0
 17100  1  0  0  0
 18 19  2  0  0  0
 18101  1  0  0  0
 19 20  1  0  0  0
 19 24  1  0  0  0
 20 21  2  0  0  0
 20102  1  0  0  0
 21 23  1  0  0  0
 22 28  1  0  0  0
 22 32  2  0  0  0
 26 27  1  0  0  0
 28103  1  0  0  0
 28104  1  0  0  0
 29105  1  0  0  0
 29106  1  0  0  0
 33 34  1  0  0  0
 33 66  1  0  0  0
 33 70  2  0  0  0
 34 36  1  0  0  0
 34 59  1  0  0  0
 34107  1  0  0  0
 35 44  2  0  0  0
 35 45  1  0  0  0
 35 68  1  0  0  0
 36 56  1  0  0  0
 36108  1  0  0  0
 37 39  1  0  0  0
 37 47  1  0  0  0
 37 66  1  0  0  0
 37109  1  0  0  0
 38 43  2  0  0  0
 38 46  1  0  0  0
 38 47  1  0  0  0
 39 64  1  0  0  0
 39 67  2  0  0  0
 40 52  1  0  0  0
 40 53  2  0  0  0
 40 58  1  0  0  0
 41110  1  0  0  0
 41111  1  0  0  0
 41112  1  0  0  0
 41 48  1  0  0  0
 42 43  1  0  0  0
 42 66  1  0  0  0
 42113  1  0  0  0
 42114  1  0  0  0
 43 44  1  0  0  0
 44115  1  0  0  0
 45 46  2  0  0  0
 45116  1  0  0  0
 46117  1  0  0  0
 47118  1  0  0  0
 47119  1  0  0  0
 48 56  1  0  0  0
 48 65  1  0  0  0
 48120  1  0  0  0
 49 50  1  0  0  0
 49 53  1  0  0  0
 49 64  1  0  0  0
 49121  1  0  0  0
 50 51  1  0  0  0
 50122  1  0  0  0
 50123  1  0  0  0
 51 52  1  0  0  0
 51124  1  0  0  0
 51125  1  0  0  0
 52126  1  0  0  0
 52127  1  0  0  0
 53 54  1  0  0  0
 54 55  2  0  0  0
 54128  1  0  0  0
 55 57  1  0  0  0
 55129  1  0  0  0
 56 69  2  0  0  0
 57 58  2  0  0  0
 57130  1  0  0  0
 58131  1  0  0  0
 59 60  1  0  0  0
 59 61  1  0  0  0
 59 62  1  0  0  0
 60132  1  0  0  0
 60133  1  0  0  0
 60134  1  0  0  0
 61135  1  0  0  0
 61136  1  0  0  0
 61137  1  0  0  0
 62138  1  0  0  0
 62139  1  0  0  0
 62140  1  0  0  0
 63 65  1  0  0  0
 63141  1  0  0  0
 63142  1  0  0  0
 63143  1  0  0  0
 64144  1  0  0  0
 65145  1  0  0  0
 68 84  1  0  0  0
 71 73  2  0  0  0
 71 75  1  0  0  0
 71146  1  0  0  0
 72 74  1  0  0  0
 72 75  2  0  0  0
 72147  1  0  0  0
 73 76  1  0  0  0
 73148  1  0  0  0
 74 76  2  0  0  0
 74149  1  0  0  0
 75 79  1  0  0  0
 76 85  1  0  0  0
 77 85  1  0  0  0
 77150  1  0  0  0
 77151  1  0  0  0
 77152  1  0  0  0
 78153  1  0  0  0
 78154  1  0  0  0
 78155  1  0  0  0
 78 86  1  0  0  0
 79 86  1  0  0  0
 79156  1  0  0  0
 79157  1  0  0  0
 80 83  1  0  0  0
 80158  1  0  0  0
 80159  1  0  0  0
 81 82  1  0  0  0
 81 84  1  0  0  0
 81160  1  0  0  0
 81161  1  0  0  0
 82 85  1  0  0  0
 82162  1  0  0  0
 82163  1  0  0  0
 83 86  1  0  0  0
 83164  1  0  0  0
 83165  1  0  0  0
 84166  1  0  0  0
 84167  1  0  0  0
 86168  1  0  0  0
M  CHG  1  86   1
M  ISO  4   1 100  68 101  80 100  84 101
M  END
> <chiral flag>
0

> <version>
0

> <s_m_source_file>
/data/baiqing/PycharmProjects/Reinvent-master-3.2/result/LINK_invent/BTK/process_docking_weight1_custom_product_contain_oxygen_bond_distance_aromatic_linkinvent_7_9_3/rearranged_h_0016.sdf

> <i_m_source_file_index>
87

> <r_mmod_Potential_Energy-OPLS-2005>
-188.028366088867

> <r_mmod_Stretch_Energy-OPLS-2005>
36.4108009338379

> <r_mmod_Bend_Energy-OPLS-2005>
97.2848052978516

> <r_mmod_Torsional_Energy-OPLS-2005>
205.748458862305

> <r_mmod_Improper_Torsional_Energy-OPLS-2005>
6.03675651550293

> <r_mmod_Van_der_Waal_Energy-OPLS-2005>
165.537017822266

> <r_mmod_Electrostatic_Energy-OPLS-2005>
-253.205535888672

> <r_mmod_Solvation_Energy-OPLS-2005>
-453.465698242188

> <b_mmod_Minimization_Converged-OPLS-2005>
0

> <r_mmod_RMS_Derivative-OPLS-2005>
2.25956058502197

$$$$
87
                    3D
 Structure written by MMmdl.
165173  0  0  1  0            999 V2000
  -30.7114  -14.5443   20.4337 C   0  0  0  0  0  0
  -30.4057  -12.3172   19.4224 C   0  0  0  0  0  0
  -29.4817  -12.4629   18.1972 C   0  0  0  0  0  0
  -28.0027  -12.3650   18.6179 C   0  0  0  0  0  0
  -27.6479  -13.2219   19.8625 C   0  0  2  0  0  0
  -28.7090  -13.0969   20.9787 C   0  0  0  0  0  0
  -25.2569  -13.8201   20.5753 C   0  0  0  0  0  0
  -24.1831  -13.0448   20.9178 C   0  0  0  0  0  0
  -24.6402  -11.6930   20.8764 C   0  0  0  0  0  0
  -23.9065  -10.4304   21.0416 C   0  0  0  0  0  0
  -24.3616   -9.4205   21.9180 C   0  0  0  0  0  0
  -23.6268   -8.2243   22.0751 C   0  0  0  0  0  0
  -22.4241   -8.0288   21.3548 C   0  0  0  0  0  0
  -21.9886   -9.0264   20.4666 C   0  0  0  0  0  0
  -22.7236  -10.2144   20.3071 C   0  0  0  0  0  0
  -21.6879   -6.0711   22.5262 C   0  0  0  0  0  0
  -21.4029   -6.5634   23.8193 C   0  0  0  0  0  0
  -21.3627   -5.6808   24.9156 C   0  0  0  0  0  0
  -21.6017   -4.3064   24.7238 C   0  0  0  0  0  0
  -21.8841   -3.8132   23.4376 C   0  0  0  0  0  0
  -21.9221   -4.6927   22.3419 C   0  0  0  0  0  0
  -22.7844  -13.5212   21.1835 C   0  0  0  0  0  0
  -22.1696   -4.2096   21.0998 F   0  0  0  0  0  0
  -21.5599   -3.4568   25.7763 F   0  0  0  0  0  0
  -30.0212  -13.3680   20.3772 N   0  0  0  0  0  0
  -26.2995  -12.9382   20.3404 N   0  0  0  0  0  0
  -25.9335  -11.6527   20.5808 N   0  0  0  0  0  0
  -22.0561  -12.8136   22.0420 N   0  0  0  0  0  0
  -25.4309  -15.1922   20.4249 N   0  0  0  0  0  0
  -31.9157  -14.6028   20.1819 O   0  0  0  0  0  0
  -21.6642   -6.8844   21.4224 O   0  0  0  0  0  0
  -22.3496  -14.5523   20.6724 O   0  0  0  0  0  0
  -24.6160  -31.8660   23.2069 C   0  0  0  0  0  0
  -25.9037  -32.4814   23.8365 C   0  0  1  0  0  0
  -27.2362  -27.4112   20.1036 C   0  0  0  0  0  0
  -25.5885  -33.8614   24.2296 N   0  0  0  0  0  0
  -23.4063  -30.4853   21.5495 C   0  0  2  0  0  0
  -24.8551  -28.9445   20.1180 C   0  0  0  0  0  0
  -22.7424  -29.4638   22.5003 C   0  0  0  0  0  0
  -18.0269  -28.1394   22.8491 C   0  0  0  0  0  0
  -24.1492  -36.7300   23.2638 C   0  0  0  0  0  0
  -25.9367  -30.8223   21.3657 C   0  0  0  0  0  0
  -26.0161  -29.4550   20.7117 C   0  0  0  0  0  0
  -27.2137  -28.6983   20.6933 C   0  0  0  0  0  0
  -26.0562  -26.9119   19.5150 C   0  0  0  0  0  0
  -24.8706  -27.6735   19.5160 C   0  0  0  0  0  0
  -23.6157  -29.8130   20.1665 C   0  0  0  0  0  0
  -25.4123  -36.3099   24.0325 C   0  0  1  0  0  0
  -20.5870  -28.3669   23.1336 C   0  0  2  0  0  0
  -20.6774  -26.9405   22.5433 C   0  0  0  0  0  0
  -19.5761  -26.6393   21.5227 C   0  0  0  0  0  0
  -18.1927  -26.7929   22.1614 C   0  0  0  0  0  0
  -19.1521  -28.8848   23.2900 C   0  0  0  0  0  0
  -18.9436  -30.1455   23.8914 C   0  0  0  0  0  0
  -17.6448  -30.6579   24.0566 C   0  0  0  0  0  0
  -25.9050  -34.9466   23.5114 C   0  0  0  0  0  0
  -16.5342  -29.9083   23.6329 C   0  0  0  0  0  0
  -16.7271  -28.6503   23.0345 C   0  0  0  0  0  0
  -26.4460  -31.6599   25.0703 C   0  0  0  0  0  0
  -25.3711  -31.3741   26.1440 C   0  0  0  0  0  0
  -27.0271  -30.3021   24.6115 C   0  0  0  0  0  0
  -27.6045  -32.4316   25.7445 C   0  0  0  0  0  0
  -27.5590  -37.1806   24.8461 C   0  0  0  0  0  0
  -21.4158  -29.3014   22.3726 N   0  0  0  0  0  0
  -26.4307  -37.3781   23.9397 N   0  0  0  0  0  0
  -24.6711  -31.0724   22.0984 N   0  0  0  0  0  0
  -23.4168  -28.8196   23.3068 O   0  0  0  0  0  0
  -28.3971  -26.6624   20.0575 O   0  0  0  0  0  0
  -26.5629  -34.8921   22.4684 O   0  0  0  0  0  0
  -23.5349  -32.1426   23.7446 O   0  0  0  0  0  0
  -31.2583  -20.8151   20.0018 C   0  0  0  0  0  0
  -32.2060  -19.7767   19.8969 C   0  0  0  0  0  0
  -29.6976  -19.2578   20.9985 C   0  0  0  0  0  0
  -30.6393  -18.1923   20.9026 C   0  0  0  0  0  0
  -29.9846  -20.5858   20.5602 C   0  0  0  0  0  0
  -31.9197  -18.4629   20.3503 C   0  0  0  0  0  0
  -27.6661  -21.3015   21.0012 C   0  0  0  0  0  0
  -29.5399  -16.2214   19.1455 C   0  0  0  0  0  0
  -34.0494  -17.6517   19.5500 C   0  0  0  0  0  0
  -30.2524  -16.7789   21.4307 C   0  0  0  0  0  0
  -28.8672  -24.1543   20.0350 C   0  0  0  0  0  0
  -29.4502  -23.0349   20.9643 C   0  0  0  0  0  0
  -28.4023  -25.4303   20.8158 C   0  0  0  0  0  0
  -29.0383  -21.6505   20.6395 N   0  0  0  0  0  0
  -29.9748  -15.6926   20.4500 N   0  0  0  0  0  0
  -32.8424  -17.4391   20.2852 O   0  0  0  0  0  0
  -31.4546  -12.3756   19.1215 H   0  0  0  0  0  0
  -30.2728  -11.3307   19.8737 H   0  0  0  0  0  0
  -29.6964  -11.6871   17.4623 H   0  0  0  0  0  0
  -29.6722  -13.4103   17.6936 H   0  0  0  0  0  0
  -27.7953  -11.3156   18.8225 H   0  0  0  0  0  0
  -27.3515  -12.6436   17.7876 H   0  0  0  0  0  0
  -27.6406  -14.2567   19.5327 H   0  0  0  0  0  0
  -28.6954  -12.0977   21.4171 H   0  0  0  0  0  0
  -28.4971  -13.7919   21.7921 H   0  0  0  0  0  0
  -25.2785   -9.5652   22.4735 H   0  0  0  0  0  0
  -23.9986   -7.4647   22.7462 H   0  0  0  0  0  0
  -21.0814   -8.8824   19.8986 H   0  0  0  0  0  0
  -22.3715  -10.9690   19.6185 H   0  0  0  0  0  0
  -21.2038   -7.6155   23.9651 H   0  0  0  0  0  0
  -21.1399   -6.0557   25.9043 H   0  0  0  0  0  0
  -22.0638   -2.7582   23.2921 H   0  0  0  0  0  0
  -22.4267  -11.9766   22.4655 H   0  0  0  0  0  0
  -21.1211  -13.1125   22.2820 H   0  0  0  0  0  0
  -24.6667  -15.8496   20.5364 H   0  0  0  0  0  0
  -26.3001  -15.6355   20.1540 H   0  0  0  0  0  0
  -26.7109  -32.5511   23.1126 H   0  0  0  0  0  0
  -24.9995  -33.9770   25.0414 H   0  0  0  0  0  0
  -22.6946  -31.3020   21.4086 H   0  0  0  0  0  0
  -23.3775  -35.9613   23.3280 H   0  0  0  0  0  0
  -24.3583  -36.8952   22.2059 H   0  0  0  0  0  0
  -23.7230  -37.6482   23.6688 H   0  0  0  0  0  0
  -26.0566  -31.5896   20.5995 H   0  0  0  0  0  0
  -26.8227  -30.8721   21.9875 H   0  0  0  0  0  0
  -28.1156  -29.0922   21.1409 H   0  0  0  0  0  0
  -26.0571  -25.9358   19.0499 H   0  0  0  0  0  0
  -23.9766  -27.2775   19.0535 H   0  0  0  0  0  0
  -23.7202  -30.5860   19.4042 H   0  0  0  0  0  0
  -22.7400  -29.2302   19.8759 H   0  0  0  0  0  0
  -25.1308  -36.1959   25.0825 H   0  0  0  0  0  0
  -20.9944  -28.3239   24.1465 H   0  0  0  0  0  0
  -20.5717  -26.2262   23.3610 H   0  0  0  0  0  0
  -21.6646  -26.7461   22.1215 H   0  0  0  0  0  0
  -19.6917  -25.6305   21.1252 H   0  0  0  0  0  0
  -19.6709  -27.3218   20.6773 H   0  0  0  0  0  0
  -17.4202  -26.6701   21.4004 H   0  0  0  0  0  0
  -18.0291  -26.0071   22.9008 H   0  0  0  0  0  0
  -19.7918  -30.7281   24.2282 H   0  0  0  0  0  0
  -17.4991  -31.6273   24.5164 H   0  0  0  0  0  0
  -15.5339  -30.2989   23.7647 H   0  0  0  0  0  0
  -15.8662  -28.0835   22.7043 H   0  0  0  0  0  0
  -24.5826  -30.7170   25.7749 H   0  0  0  0  0  0
  -24.8972  -32.2923   26.4925 H   0  0  0  0  0  0
  -25.8024  -30.8833   27.0171 H   0  0  0  0  0  0
  -26.2806  -29.6788   24.1174 H   0  0  0  0  0  0
  -27.4008  -29.7269   25.4598 H   0  0  0  0  0  0
  -27.8669  -30.4304   23.9281 H   0  0  0  0  0  0
  -27.2684  -33.3642   26.1997 H   0  0  0  0  0  0
  -28.3850  -32.6835   25.0247 H   0  0  0  0  0  0
  -28.0705  -31.8441   26.5370 H   0  0  0  0  0  0
  -28.2618  -38.0090   24.7502 H   0  0  0  0  0  0
  -28.1076  -36.2625   24.6304 H   0  0  0  0  0  0
  -27.2293  -37.1470   25.8857 H   0  0  0  0  0  0
  -20.9324  -29.8677   21.6890 H   0  0  0  0  0  0
  -26.0197  -38.2861   24.1397 H   0  0  0  0  0  0
  -31.5276  -21.7896   19.6219 H   0  0  0  0  0  0
  -33.1600  -20.0327   19.4636 H   0  0  0  0  0  0
  -28.7376  -19.0265   21.4312 H   0  0  0  0  0  0
  -27.2745  -20.5262   20.3426 H   0  0  0  0  0  0
  -27.0084  -22.1654   20.9116 H   0  0  0  0  0  0
  -27.6073  -20.9506   22.0338 H   0  0  0  0  0  0
  -28.7719  -16.9862   19.2619 H   0  0  0  0  0  0
  -29.1338  -15.4522   18.4918 H   0  0  0  0  0  0
  -30.3813  -16.6642   18.6102 H   0  0  0  0  0  0
  -34.6506  -16.7417   19.5586 H   0  0  0  0  0  0
  -34.6722  -18.4382   19.9808 H   0  0  0  0  0  0
  -33.8517  -17.8960   18.5046 H   0  0  0  0  0  0
  -29.3481  -16.8805   22.0311 H   0  0  0  0  0  0
  -31.0222  -16.4529   22.1337 H   0  0  0  0  0  0
  -28.0308  -23.7768   19.4450 H   0  0  0  0  0  0
  -29.6382  -24.4185   19.3058 H   0  0  0  0  0  0
  -29.1010  -23.2288   21.9783 H   0  0  0  0  0  0
  -30.5348  -23.1426   21.0362 H   0  0  0  0  0  0
  -29.0751  -25.6032   21.6587 H   0  0  0  0  0  0
  -27.4271  -25.2310   21.2686 H   0  0  0  0  0  0
  1 25  1  0  0  0
  1 30  2  0  0  0
  1 85  1  0  0  0
  2  3  1  0  0  0
  2 25  1  0  0  0
  2 87  1  0  0  0
  2 88  1  0  0  0
  3  4  1  0  0  0
  3 89  1  0  0  0
  3 90  1  0  0  0
  4  5  1  0  0  0
  4 91  1  0  0  0
  4 92  1  0  0  0
  5  6  1  0  0  0
  5 26  1  0  0  0
  5 93  1  0  0  0
  6 25  1  0  0  0
  6 94  1  0  0  0
  6 95  1  0  0  0
  7  8  2  0  0  0
  7 26  1  0  0  0
  7 29  1  0  0  0
  8  9  1  0  0  0
  8 22  1  0  0  0
  9 10  1  0  0  0
  9 27  2  0  0  0
 10 11  2  0  0  0
 10 15  1  0  0  0
 11 12  1  0  0  0
 11 96  1  0  0  0
 12 13  2  0  0  0
 12 97  1  0  0  0
 13 14  1  0  0  0
 13 31  1  0  0  0
 14 15  2  0  0  0
 14 98  1  0  0  0
 15 99  1  0  0  0
 16 17  2  0  0  0
 16 21  1  0  0  0
 16 31  1  0  0  0
 17 18  1  0  0  0
 17100  1  0  0  0
 18 19  2  0  0  0
 18101  1  0  0  0
 19 20  1  0  0  0
 19 24  1  0  0  0
 20 21  2  0  0  0
 20102  1  0  0  0
 21 23  1  0  0  0
 22 28  1  0  0  0
 22 32  2  0  0  0
 26 27  1  0  0  0
 28103  1  0  0  0
 28104  1  0  0  0
 29105  1  0  0  0
 29106  1  0  0  0
 33 34  1  0  0  0
 33 66  1  0  0  0
 33 70  2  0  0  0
 34 36  1  0  0  0
 34 59  1  0  0  0
 34107  1  0  0  0
 35 44  2  0  0  0
 35 45  1  0  0  0
 35 68  1  0  0  0
 36 56  1  0  0  0
 36108  1  0  0  0
 37 39  1  0  0  0
 37 47  1  0  0  0
 37 66  1  0  0  0
 37109  1  0  0  0
 38 43  2  0  0  0
 38 46  1  0  0  0
 38 47  1  0  0  0
 39 64  1  0  0  0
 39 67  2  0  0  0
 40 52  1  0  0  0
 40 53  2  0  0  0
 40 58  1  0  0  0
 41110  1  0  0  0
 41111  1  0  0  0
 41112  1  0  0  0
 41 48  1  0  0  0
 42 43  1  0  0  0
 42 66  1  0  0  0
 42113  1  0  0  0
 42114  1  0  0  0
 43 44  1  0  0  0
 44115  1  0  0  0
 45 46  2  0  0  0
 45116  1  0  0  0
 46117  1  0  0  0
 47118  1  0  0  0
 47119  1  0  0  0
 48 56  1  0  0  0
 48 65  1  0  0  0
 48120  1  0  0  0
 49 50  1  0  0  0
 49 53  1  0  0  0
 49 64  1  0  0  0
 49121  1  0  0  0
 50 51  1  0  0  0
 50122  1  0  0  0
 50123  1  0  0  0
 51 52  1  0  0  0
 51124  1  0  0  0
 51125  1  0  0  0
 52126  1  0  0  0
 52127  1  0  0  0
 53 54  1  0  0  0
 54 55  2  0  0  0
 54128  1  0  0  0
 55 57  1  0  0  0
 55129  1  0  0  0
 56 69  2  0  0  0
 57 58  2  0  0  0
 57130  1  0  0  0
 58131  1  0  0  0
 59 60  1  0  0  0
 59 61  1  0  0  0
 59 62  1  0  0  0
 60132  1  0  0  0
 60133  1  0  0  0
 60134  1  0  0  0
 61135  1  0  0  0
 61136  1  0  0  0
 61137  1  0  0  0
 62138  1  0  0  0
 62139  1  0  0  0
 62140  1  0  0  0
 63 65  1  0  0  0
 63141  1  0  0  0
 63142  1  0  0  0
 63143  1  0  0  0
 64144  1  0  0  0
 65145  1  0  0  0
 68 83  1  0  0  0
 71 72  2  0  0  0
 71 75  1  0  0  0
 71146  1  0  0  0
 72 76  1  0  0  0
 72147  1  0  0  0
 73 74  1  0  0  0
 73 75  2  0  0  0
 73148  1  0  0  0
 74 76  2  0  0  0
 74 80  1  0  0  0
 75 84  1  0  0  0
 76 86  1  0  0  0
 77 84  1  0  0  0
 77149  1  0  0  0
 77150  1  0  0  0
 77151  1  0  0  0
 78 85  1  0  0  0
 78152  1  0  0  0
 78153  1  0  0  0
 78154  1  0  0  0
 79 86  1  0  0  0
 79155  1  0  0  0
 79156  1  0  0  0
 79157  1  0  0  0
 80 85  1  0  0  0
 80158  1  0  0  0
 80159  1  0  0  0
 81 82  1  0  0  0
 81 83  1  0  0  0
 81160  1  0  0  0
 81161  1  0  0  0
 82 84  1  0  0  0
 82162  1  0  0  0
 82163  1  0  0  0
 83164  1  0  0  0
 83165  1  0  0  0
M  ISO  4   1 100  68 101  83 101  85 100
M  END
> <chiral flag>
0

> <version>
0

> <s_m_source_file>
/data/baiqing/PycharmProjects/Reinvent-master-3.2/result/LINK_invent/BTK/process_docking_weight1_custom_product_contain_oxygen_bond_distance_aromatic_linkinvent_7_9_3/rearranged_h_0016.sdf

> <i_m_source_file_index>
88

> <r_mmod_Potential_Energy-OPLS-2005>
146.788757324219

> <r_mmod_Stretch_Energy-OPLS-2005>
53.0540313720703

> <r_mmod_Bend_Energy-OPLS-2005>
124.429023742676

> <r_mmod_Torsional_Energy-OPLS-2005>
318.071319580078

> <r_mmod_Improper_Torsional_Energy-OPLS-2005>
12.7714443206787

> <r_mmod_Van_der_Waal_Energy-OPLS-2005>
156.10578918457

> <r_mmod_Electrostatic_Energy-OPLS-2005>
-326.225433349609

> <r_mmod_Solvation_Energy-OPLS-2005>
-220.078475952148

> <b_mmod_Minimization_Converged-OPLS-2005>
0

> <r_mmod_RMS_Derivative-OPLS-2005>
4.30945110321045

$$$$
88
                    3D
 Structure written by MMmdl.
158166  0  0  1  0            999 V2000
  -30.6665  -14.7117   20.5279 C   0  0  0  0  0  0
  -30.4191  -12.4590   19.4686 C   0  0  0  0  0  0
  -29.5028  -12.5470   18.2301 C   0  0  0  0  0  0
  -28.0266  -12.3732   18.6385 C   0  0  0  0  0  0
  -27.6396  -13.2401   19.8667 C   0  0  2  0  0  0
  -28.6865  -13.1550   20.9987 C   0  0  0  0  0  0
  -25.2466  -13.8261   20.5733 C   0  0  0  0  0  0
  -24.1766  -13.0478   20.9225 C   0  0  0  0  0  0
  -24.6369  -11.6971   20.8767 C   0  0  0  0  0  0
  -23.9055  -10.4344   21.0439 C   0  0  0  0  0  0
  -24.3637   -9.4249   21.9180 C   0  0  0  0  0  0
  -23.6324   -8.2268   22.0738 C   0  0  0  0  0  0
  -22.4291   -8.0313   21.3546 C   0  0  0  0  0  0
  -21.9938   -9.0279   20.4633 C   0  0  0  0  0  0
  -22.7255  -10.2171   20.3054 C   0  0  0  0  0  0
  -21.6874   -6.0757   22.5282 C   0  0  0  0  0  0
  -21.4008   -6.5642   23.8222 C   0  0  0  0  0  0
  -21.3665   -5.6789   24.9176 C   0  0  0  0  0  0
  -21.6063   -4.3056   24.7224 C   0  0  0  0  0  0
  -21.8821   -3.8159   23.4336 C   0  0  0  0  0  0
  -21.9199   -4.6981   22.3406 C   0  0  0  0  0  0
  -22.7778  -13.5238   21.1915 C   0  0  0  0  0  0
  -22.1667   -4.2163   21.0986 F   0  0  0  0  0  0
  -21.5639   -3.4540   25.7742 F   0  0  0  0  0  0
  -29.9910  -13.5120   20.4230 N   0  0  0  0  0  0
  -26.2913  -12.9451   20.3368 N   0  0  0  0  0  0
  -25.9317  -11.6580   20.5780 N   0  0  0  0  0  0
  -22.0436  -12.8197   22.0475 N   0  0  0  0  0  0
  -25.4193  -15.1985   20.4184 N   0  0  0  0  0  0
  -31.8063  -14.8050   20.0639 O   0  0  0  0  0  0
  -21.6658   -6.8905   21.4246 O   0  0  0  0  0  0
  -22.3438  -14.5533   20.6789 O   0  0  0  0  0  0
  -24.6302  -31.8575   23.2010 C   0  0  0  0  0  0
  -25.9118  -32.4768   23.8379 C   0  0  1  0  0  0
  -27.2190  -27.2710   20.1218 C   0  0  0  0  0  0
  -25.5952  -33.8576   24.2322 N   0  0  0  0  0  0
  -23.4293  -30.4761   21.5435 C   0  0  2  0  0  0
  -24.8797  -28.9346   20.1041 C   0  0  0  0  0  0
  -22.7545  -29.4559   22.4926 C   0  0  0  0  0  0
  -18.0290  -28.1377   22.8490 C   0  0  0  0  0  0
  -24.1491  -36.7275   23.2634 C   0  0  0  0  0  0
  -25.9755  -30.7729   21.3845 C   0  0  0  0  0  0
  -26.0471  -29.3973   20.7234 C   0  0  0  0  0  0
  -27.2171  -28.5735   20.7278 C   0  0  0  0  0  0
  -26.0324  -26.8936   19.4489 C   0  0  0  0  0  0
  -24.8758  -27.6932   19.4578 C   0  0  0  0  0  0
  -23.6503  -29.8165   20.1586 C   0  0  0  0  0  0
  -25.4115  -36.3091   24.0340 C   0  0  1  0  0  0
  -20.5899  -28.3669   23.1291 C   0  0  2  0  0  0
  -20.6778  -26.9399   22.5393 C   0  0  0  0  0  0
  -19.5739  -26.6395   21.5204 C   0  0  0  0  0  0
  -18.1927  -26.7917   22.1635 C   0  0  0  0  0  0
  -19.1549  -28.8839   23.2871 C   0  0  0  0  0  0
  -18.9490  -30.1442   23.8873 C   0  0  0  0  0  0
  -17.6485  -30.6575   24.0573 C   0  0  0  0  0  0
  -25.9055  -34.9447   23.5127 C   0  0  0  0  0  0
  -16.5373  -29.9083   23.6341 C   0  0  0  0  0  0
  -16.7280  -28.6497   23.0349 C   0  0  0  0  0  0
  -26.4476  -31.6554   25.0741 C   0  0  0  0  0  0
  -25.3669  -31.3728   26.1436 C   0  0  0  0  0  0
  -27.0286  -30.2963   24.6191 C   0  0  0  0  0  0
  -27.6069  -32.4230   25.7523 C   0  0  0  0  0  0
  -27.5577  -37.1771   24.8483 C   0  0  0  0  0  0
  -21.4248  -29.3013   22.3705 N   0  0  0  0  0  0
  -26.4304  -37.3779   23.9425 N   0  0  0  0  0  0
  -24.6971  -31.0534   22.1000 N   0  0  0  0  0  0
  -23.4261  -28.8083   23.3001 O   0  0  0  0  0  0
  -28.3103  -26.3728   20.2096 O   0  0  0  0  0  0
  -26.5586  -34.8911   22.4678 O   0  0  0  0  0  0
  -23.5439  -32.1407   23.7268 O   0  0  0  0  0  0
  -28.3143  -18.0565   18.6088 C   0  0  0  0  0  0
  -28.8961  -16.9408   19.2447 C   0  0  0  0  0  0
  -28.4935  -19.3687   19.0998 C   0  0  0  0  0  0
  -29.8011  -18.4466   20.9193 C   0  0  0  0  0  0
  -29.6290  -17.0733   20.4410 C   0  0  0  0  0  0
  -29.2750  -19.6361   20.2477 C   0  0  0  0  0  0
  -30.4634  -15.9671   22.5398 C   0  0  0  0  0  0
  -30.8928  -21.2854   21.0336 C   0  0  0  0  0  0
  -29.0056  -23.7308   20.5112 C   0  0  0  0  0  0
  -28.7991  -22.2096   19.9710 C   0  0  0  0  0  0
  -28.1158  -24.9213   19.8689 C   0  0  0  0  0  0
  -30.0819  -15.8264   21.1300 N   0  0  0  0  0  0
  -29.5053  -21.0295   20.6382 N   0  0  0  0  0  0
  -31.4638  -12.5631   19.1687 H   0  0  0  0  0  0
  -30.3448  -11.4730   19.9322 H   0  0  0  0  0  0
  -29.6356  -13.5115   17.7338 H   0  0  0  0  0  0
  -29.7799  -11.7944   17.4916 H   0  0  0  0  0  0
  -27.8664  -11.3208   18.8687 H   0  0  0  0  0  0
  -27.3719  -12.6041   17.7973 H   0  0  0  0  0  0
  -27.6273  -14.2713   19.5236 H   0  0  0  0  0  0
  -28.7117  -12.1491   21.4236 H   0  0  0  0  0  0
  -28.4135  -13.8231   21.8172 H   0  0  0  0  0  0
  -25.2790   -9.5747   22.4741 H   0  0  0  0  0  0
  -24.0076   -7.4665   22.7435 H   0  0  0  0  0  0
  -21.0876   -8.8809   19.8912 H   0  0  0  0  0  0
  -22.3729  -10.9724   19.6162 H   0  0  0  0  0  0
  -21.1970   -7.6145   23.9732 H   0  0  0  0  0  0
  -21.1482   -6.0507   25.9087 H   0  0  0  0  0  0
  -22.0594   -2.7615   23.2830 H   0  0  0  0  0  0
  -22.4046  -11.9869   22.4869 H   0  0  0  0  0  0
  -21.1042  -13.1191   22.2705 H   0  0  0  0  0  0
  -24.6605  -15.8619   20.5345 H   0  0  0  0  0  0
  -26.2888  -15.6441   20.1547 H   0  0  0  0  0  0
  -26.7199  -32.5433   23.1133 H   0  0  0  0  0  0
  -25.0154  -33.9759   25.0501 H   0  0  0  0  0  0
  -22.7214  -31.2947   21.3970 H   0  0  0  0  0  0
  -23.3796  -35.9577   23.3315 H   0  0  0  0  0  0
  -24.3584  -36.8866   22.2054 H   0  0  0  0  0  0
  -23.7188  -37.6465   23.6622 H   0  0  0  0  0  0
  -26.1110  -31.5355   20.6187 H   0  0  0  0  0  0
  -26.8555  -30.8243   22.0135 H   0  0  0  0  0  0
  -28.1056  -28.9160   21.2389 H   0  0  0  0  0  0
  -25.9577  -25.9605   18.9108 H   0  0  0  0  0  0
  -23.9847  -27.3403   18.9547 H   0  0  0  0  0  0
  -23.7739  -30.5952   19.4053 H   0  0  0  0  0  0
  -22.7740  -29.2406   19.8500 H   0  0  0  0  0  0
  -25.1284  -36.1978   25.0832 H   0  0  0  0  0  0
  -20.9958  -28.3193   24.1422 H   0  0  0  0  0  0
  -20.5721  -26.2254   23.3571 H   0  0  0  0  0  0
  -21.6645  -26.7444   22.1154 H   0  0  0  0  0  0
  -19.6921  -25.6330   21.1176 H   0  0  0  0  0  0
  -19.6663  -27.3269   20.6787 H   0  0  0  0  0  0
  -17.4198  -26.6683   21.4030 H   0  0  0  0  0  0
  -18.0305  -26.0054   22.9024 H   0  0  0  0  0  0
  -19.7972  -30.7261   24.2219 H   0  0  0  0  0  0
  -17.5056  -31.6243   24.5193 H   0  0  0  0  0  0
  -15.5375  -30.2987   23.7658 H   0  0  0  0  0  0
  -15.8681  -28.0826   22.7052 H   0  0  0  0  0  0
  -24.5886  -30.7037   25.7758 H   0  0  0  0  0  0
  -24.8807  -32.2904   26.4764 H   0  0  0  0  0  0
  -25.7939  -30.8976   27.0269 H   0  0  0  0  0  0
  -26.2907  -29.6829   24.1007 H   0  0  0  0  0  0
  -27.3772  -29.7086   25.4693 H   0  0  0  0  0  0
  -27.8863  -30.4273   23.9587 H   0  0  0  0  0  0
  -27.2740  -33.3547   26.2103 H   0  0  0  0  0  0
  -28.3877  -32.6718   25.0328 H   0  0  0  0  0  0
  -28.0718  -31.8309   26.5426 H   0  0  0  0  0  0
  -28.2594  -38.0063   24.7524 H   0  0  0  0  0  0
  -28.1050  -36.2582   24.6316 H   0  0  0  0  0  0
  -27.2262  -37.1421   25.8874 H   0  0  0  0  0  0
  -20.9432  -29.8775   21.6948 H   0  0  0  0  0  0
  -26.0202  -38.2856   24.1473 H   0  0  0  0  0  0
  -27.7207  -17.9054   17.7178 H   0  0  0  0  0  0
  -28.7493  -15.9650   18.8104 H   0  0  0  0  0  0
  -28.0299  -20.1700   18.5434 H   0  0  0  0  0  0
  -30.3464  -18.5889   21.8409 H   0  0  0  0  0  0
  -31.4531  -16.4231   22.6240 H   0  0  0  0  0  0
  -29.7475  -16.5821   23.0865 H   0  0  0  0  0  0
  -30.5016  -15.0021   23.0526 H   0  0  0  0  0  0
  -31.3943  -20.4290   21.4845 H   0  0  0  0  0  0
  -30.9394  -22.0971   21.7587 H   0  0  0  0  0  0
  -31.4854  -21.5717   20.1635 H   0  0  0  0  0  0
  -30.0539  -24.0052   20.3939 H   0  0  0  0  0  0
  -28.8275  -23.7406   21.5870 H   0  0  0  0  0  0
  -29.0676  -22.2061   18.9124 H   0  0  0  0  0  0
  -27.7273  -22.0080   19.9889 H   0  0  0  0  0  0
  -27.0904  -24.6359   20.1063 H   0  0  0  0  0  0
  -28.2003  -24.8652   18.7818 H   0  0  0  0  0  0
  1 25  1  0  0  0
  1 30  2  0  0  0
  1 82  1  0  0  0
  2  3  1  0  0  0
  2 25  1  0  0  0
  2 84  1  0  0  0
  2 85  1  0  0  0
  3  4  1  0  0  0
  3 86  1  0  0  0
  3 87  1  0  0  0
  4  5  1  0  0  0
  4 88  1  0  0  0
  4 89  1  0  0  0
  5  6  1  0  0  0
  5 26  1  0  0  0
  5 90  1  0  0  0
  6 25  1  0  0  0
  6 91  1  0  0  0
  6 92  1  0  0  0
  7  8  2  0  0  0
  7 26  1  0  0  0
  7 29  1  0  0  0
  8  9  1  0  0  0
  8 22  1  0  0  0
  9 10  1  0  0  0
  9 27  2  0  0  0
 10 11  2  0  0  0
 10 15  1  0  0  0
 11 12  1  0  0  0
 11 93  1  0  0  0
 12 13  2  0  0  0
 12 94  1  0  0  0
 13 14  1  0  0  0
 13 31  1  0  0  0
 14 15  2  0  0  0
 14 95  1  0  0  0
 15 96  1  0  0  0
 16 17  2  0  0  0
 16 21  1  0  0  0
 16 31  1  0  0  0
 17 18  1  0  0  0
 17 97  1  0  0  0
 18 19  2  0  0  0
 18 98  1  0  0  0
 19 20  1  0  0  0
 19 24  1  0  0  0
 20 21  2  0  0  0
 20 99  1  0  0  0
 21 23  1  0  0  0
 22 28  1  0  0  0
 22 32  2  0  0  0
 26 27  1  0  0  0
 28100  1  0  0  0
 28101  1  0  0  0
 29102  1  0  0  0
 29103  1  0  0  0
 33 34  1  0  0  0
 33 66  1  0  0  0
 33 70  2  0  0  0
 34 36  1  0  0  0
 34 59  1  0  0  0
 34104  1  0  0  0
 35 44  2  0  0  0
 35 45  1  0  0  0
 35 68  1  0  0  0
 36 56  1  0  0  0
 36105  1  0  0  0
 37 39  1  0  0  0
 37 47  1  0  0  0
 37 66  1  0  0  0
 37106  1  0  0  0
 38 43  2  0  0  0
 38 46  1  0  0  0
 38 47  1  0  0  0
 39 64  1  0  0  0
 39 67  2  0  0  0
 40 52  1  0  0  0
 40 53  2  0  0  0
 40 58  1  0  0  0
 41107  1  0  0  0
 41108  1  0  0  0
 41109  1  0  0  0
 41 48  1  0  0  0
 42 43  1  0  0  0
 42 66  1  0  0  0
 42110  1  0  0  0
 42111  1  0  0  0
 43 44  1  0  0  0
 44112  1  0  0  0
 45 46  2  0  0  0
 45113  1  0  0  0
 46114  1  0  0  0
 47115  1  0  0  0
 47116  1  0  0  0
 48 56  1  0  0  0
 48 65  1  0  0  0
 48117  1  0  0  0
 49 50  1  0  0  0
 49 53  1  0  0  0
 49 64  1  0  0  0
 49118  1  0  0  0
 50 51  1  0  0  0
 50119  1  0  0  0
 50120  1  0  0  0
 51 52  1  0  0  0
 51121  1  0  0  0
 51122  1  0  0  0
 52123  1  0  0  0
 52124  1  0  0  0
 53 54  1  0  0  0
 54 55  2  0  0  0
 54125  1  0  0  0
 55 57  1  0  0  0
 55126  1  0  0  0
 56 69  2  0  0  0
 57 58  2  0  0  0
 57127  1  0  0  0
 58128  1  0  0  0
 59 60  1  0  0  0
 59 61  1  0  0  0
 59 62  1  0  0  0
 60129  1  0  0  0
 60130  1  0  0  0
 60131  1  0  0  0
 61132  1  0  0  0
 61133  1  0  0  0
 61134  1  0  0  0
 62135  1  0  0  0
 62136  1  0  0  0
 62137  1  0  0  0
 63 65  1  0  0  0
 63138  1  0  0  0
 63139  1  0  0  0
 63140  1  0  0  0
 64141  1  0  0  0
 65142  1  0  0  0
 68 81  1  0  0  0
 71 72  2  0  0  0
 71 73  1  0  0  0
 71143  1  0  0  0
 72 75  1  0  0  0
 72144  1  0  0  0
 73 76  2  0  0  0
 73145  1  0  0  0
 74 75  2  0  0  0
 74 76  1  0  0  0
 74146  1  0  0  0
 75 82  1  0  0  0
 76 83  1  0  0  0
 77 82  1  0  0  0
 77147  1  0  0  0
 77148  1  0  0  0
 77149  1  0  0  0
 78 83  1  0  0  0
 78150  1  0  0  0
 78151  1  0  0  0
 78152  1  0  0  0
 79 80  1  0  0  0
 79 81  1  0  0  0
 79153  1  0  0  0
 79154  1  0  0  0
 80 83  1  0  0  0
 80155  1  0  0  0
 80156  1  0  0  0
 81157  1  0  0  0
 81158  1  0  0  0
M  ISO  4   1 100  68 101  81 101  82 100
M  END
> <chiral flag>
0

> <version>
0

> <s_m_source_file>
/data/baiqing/PycharmProjects/Reinvent-master-3.2/result/LINK_invent/BTK/process_docking_weight1_custom_product_contain_oxygen_bond_distance_aromatic_linkinvent_7_9_3/rearranged_h_0016.sdf

> <i_m_source_file_index>
89

> <r_mmod_Potential_Energy-OPLS-2005>
324.851623535156

> <r_mmod_Stretch_Energy-OPLS-2005>
134.407836914062

> <r_mmod_Bend_Energy-OPLS-2005>
173.137573242188

> <r_mmod_Torsional_Energy-OPLS-2005>
276.189849853516

> <r_mmod_Improper_Torsional_Energy-OPLS-2005>
6.03633785247803

> <r_mmod_Van_der_Waal_Energy-OPLS-2005>
147.014892578125

> <r_mmod_Electrostatic_Energy-OPLS-2005>
-272.619506835938

> <r_mmod_Solvation_Energy-OPLS-2005>
-215.115646362305

> <b_mmod_Minimization_Converged-OPLS-2005>
0

> <r_mmod_RMS_Derivative-OPLS-2005>
4.11323213577271

$$$$
89
                    3D
 Structure written by MMmdl.
161169  0  0  1  0            999 V2000
  -30.7409  -14.4749   20.6347 C   0  0  0  0  0  0
  -30.4197  -12.3347   19.4302 C   0  0  0  0  0  0
  -29.4997  -12.5174   18.2082 C   0  0  0  0  0  0
  -28.0196  -12.3916   18.6122 C   0  0  0  0  0  0
  -27.6677  -13.2144   19.8815 C   0  0  2  0  0  0
  -28.7044  -12.9907   20.9995 C   0  0  0  0  0  0
  -25.2653  -13.8110   20.5699 C   0  0  0  0  0  0
  -24.1936  -13.0410   20.9187 C   0  0  0  0  0  0
  -24.6526  -11.6877   20.8784 C   0  0  0  0  0  0
  -23.9226  -10.4276   21.0465 C   0  0  0  0  0  0
  -24.3728   -9.4180   21.9244 C   0  0  0  0  0  0
  -23.6345   -8.2265   22.0805 C   0  0  0  0  0  0
  -22.4314   -8.0332   21.3596 C   0  0  0  0  0  0
  -22.0035   -9.0341   20.4689 C   0  0  0  0  0  0
  -22.7419  -10.2163   20.3086 C   0  0  0  0  0  0
  -21.6886   -6.0762   22.5311 C   0  0  0  0  0  0
  -21.4002   -6.5630   23.8235 C   0  0  0  0  0  0
  -21.3675   -5.6801   24.9212 C   0  0  0  0  0  0
  -21.6058   -4.3079   24.7277 C   0  0  0  0  0  0
  -21.8823   -3.8162   23.4403 C   0  0  0  0  0  0
  -21.9203   -4.6984   22.3436 C   0  0  0  0  0  0
  -22.7955  -13.5226   21.1830 C   0  0  0  0  0  0
  -22.1639   -4.2119   21.1019 F   0  0  0  0  0  0
  -21.5695   -3.4577   25.7788 F   0  0  0  0  0  0
  -30.0320  -13.3184   20.4608 N   0  0  0  0  0  0
  -26.3115  -12.9327   20.3418 N   0  0  0  0  0  0
  -25.9450  -11.6491   20.5845 N   0  0  0  0  0  0
  -22.0567  -12.8186   22.0317 N   0  0  0  0  0  0
  -25.4326  -15.1833   20.4071 N   0  0  0  0  0  0
  -31.8137  -14.6545   20.0459 O   0  0  0  0  0  0
  -21.6666   -6.8933   21.4258 O   0  0  0  0  0  0
  -22.3684  -14.5577   20.6745 O   0  0  0  0  0  0
  -24.6114  -31.8717   23.2119 C   0  0  0  0  0  0
  -25.9028  -32.4826   23.8407 C   0  0  1  0  0  0
  -27.2270  -27.4513   20.1126 C   0  0  0  0  0  0
  -25.5899  -33.8618   24.2340 N   0  0  0  0  0  0
  -23.3973  -30.4947   21.5557 C   0  0  2  0  0  0
  -24.8450  -28.9767   20.1052 C   0  0  0  0  0  0
  -22.7405  -29.4671   22.5047 C   0  0  0  0  0  0
  -18.0264  -28.1381   22.8512 C   0  0  0  0  0  0
  -24.1465  -36.7330   23.2643 C   0  0  0  0  0  0
  -25.9224  -30.8450   21.3592 C   0  0  0  0  0  0
  -26.0027  -29.4815   20.7132 C   0  0  0  0  0  0
  -27.1990  -28.7281   20.7171 C   0  0  0  0  0  0
  -26.0648  -26.9871   19.4519 C   0  0  0  0  0  0
  -24.8776  -27.7348   19.4543 C   0  0  0  0  0  0
  -23.5965  -29.8289   20.1679 C   0  0  0  0  0  0
  -25.4090  -36.3112   24.0336 C   0  0  1  0  0  0
  -20.5852  -28.3690   23.1340 C   0  0  2  0  0  0
  -20.6763  -26.9440   22.5425 C   0  0  0  0  0  0
  -19.5718  -26.6388   21.5239 C   0  0  0  0  0  0
  -18.1901  -26.7935   22.1628 C   0  0  0  0  0  0
  -19.1510  -28.8853   23.2906 C   0  0  0  0  0  0
  -18.9447  -30.1467   23.8891 C   0  0  0  0  0  0
  -17.6455  -30.6603   24.0580 C   0  0  0  0  0  0
  -25.9022  -34.9484   23.5132 C   0  0  0  0  0  0
  -16.5346  -29.9101   23.6327 C   0  0  0  0  0  0
  -16.7263  -28.6512   23.0359 C   0  0  0  0  0  0
  -26.4471  -31.6581   25.0711 C   0  0  0  0  0  0
  -25.3742  -31.3549   26.1422 C   0  0  0  0  0  0
  -27.0421  -30.3094   24.6041 C   0  0  0  0  0  0
  -27.5997  -32.4346   25.7537 C   0  0  0  0  0  0
  -27.5576  -37.1810   24.8463 C   0  0  0  0  0  0
  -21.4145  -29.3028   22.3744 N   0  0  0  0  0  0
  -26.4276  -37.3809   23.9429 N   0  0  0  0  0  0
  -24.6632  -31.0830   22.1017 N   0  0  0  0  0  0
  -23.4175  -28.8240   23.3114 O   0  0  0  0  0  0
  -28.3561  -26.6627   20.2059 O   0  0  0  0  0  0
  -26.5606  -34.8931   22.4703 O   0  0  0  0  0  0
  -23.5327  -32.1469   23.7540 O   0  0  0  0  0  0
  -27.8099  -20.2908   21.3944 C   0  0  0  0  0  0
  -27.3279  -18.9883   21.6138 C   0  0  0  0  0  0
  -29.5367  -18.0603   21.1292 C   0  0  0  0  0  0
  -29.1615  -20.5247   21.0258 C   0  0  0  0  0  0
  -28.1709  -17.8785   21.4444 C   0  0  0  0  0  0
  -30.0173  -19.3827   20.9267 C   0  0  0  0  0  0
  -30.3364  -21.9158   19.4422 C   0  0  0  0  0  0
  -29.9886  -15.3883   22.7789 C   0  0  0  0  0  0
  -30.5252  -16.8994   20.9118 C   0  0  0  0  0  0
  -29.2263  -24.3796   20.8678 C   0  0  0  0  0  0
  -28.6817  -22.9320   20.9671 C   0  0  0  0  0  0
  -28.0397  -25.3135   20.5824 C   0  0  0  0  0  0
  -29.6342  -21.8403   20.7275 N   0  0  0  0  0  0
  -30.1676  -15.5098   21.3203 N   0  0  0  0  0  0
  -27.6366  -16.6433   21.5524 F   0  0  0  0  0  0
  -31.3256  -19.5436   20.6008 F   0  0  0  0  0  0
  -31.4632  -12.4292   19.1294 H   0  0  0  0  0  0
  -30.3281  -11.3246   19.8286 H   0  0  0  0  0  0
  -29.7310  -11.7662   17.4506 H   0  0  0  0  0  0
  -29.6842  -13.4930   17.7511 H   0  0  0  0  0  0
  -27.8114  -11.3341   18.7853 H   0  0  0  0  0  0
  -27.3845  -12.7013   17.7815 H   0  0  0  0  0  0
  -27.7098  -14.2672   19.6047 H   0  0  0  0  0  0
  -28.6924  -11.9514   21.3289 H   0  0  0  0  0  0
  -28.4290  -13.5692   21.8755 H   0  0  0  0  0  0
  -25.2889   -9.5622   22.4796 H   0  0  0  0  0  0
  -24.0048   -7.4660   22.7541 H   0  0  0  0  0  0
  -21.1005   -8.8991   19.8931 H   0  0  0  0  0  0
  -22.4045  -10.9772   19.6177 H   0  0  0  0  0  0
  -21.1942   -7.6147   23.9731 H   0  0  0  0  0  0
  -21.1466   -6.0530   25.9096 H   0  0  0  0  0  0
  -22.0574   -2.7618   23.2952 H   0  0  0  0  0  0
  -22.4191  -11.9860   22.4711 H   0  0  0  0  0  0
  -21.1100  -13.1117   22.2306 H   0  0  0  0  0  0
  -24.6893  -15.8325   20.6260 H   0  0  0  0  0  0
  -26.3327  -15.6343   20.2935 H   0  0  0  0  0  0
  -26.7121  -32.5583   23.1209 H   0  0  0  0  0  0
  -25.0061  -33.9781   25.0494 H   0  0  0  0  0  0
  -22.6839  -31.3099   21.4258 H   0  0  0  0  0  0
  -23.3741  -35.9643   23.3258 H   0  0  0  0  0  0
  -24.3571  -36.9024   22.2077 H   0  0  0  0  0  0
  -23.7196  -37.6499   23.6729 H   0  0  0  0  0  0
  -26.0115  -31.6033   20.5778 H   0  0  0  0  0  0
  -26.8178  -30.9146   21.9662 H   0  0  0  0  0  0
  -28.0796  -29.1026   21.2219 H   0  0  0  0  0  0
  -26.0533  -26.0478   18.9211 H   0  0  0  0  0  0
  -24.0068  -27.3548   18.9381 H   0  0  0  0  0  0
  -23.6751  -30.6002   19.4014 H   0  0  0  0  0  0
  -22.7221  -29.2310   19.8986 H   0  0  0  0  0  0
  -25.1246  -36.1985   25.0834 H   0  0  0  0  0  0
  -20.9940  -28.3263   24.1465 H   0  0  0  0  0  0
  -20.5734  -26.2301   23.3595 H   0  0  0  0  0  0
  -21.6625  -26.7520   22.1194 H   0  0  0  0  0  0
  -19.6888  -25.6311   21.1236 H   0  0  0  0  0  0
  -19.6605  -27.3201   20.6770 H   0  0  0  0  0  0
  -17.4191  -26.6780   21.3998 H   0  0  0  0  0  0
  -18.0207  -26.0047   22.8970 H   0  0  0  0  0  0
  -19.7923  -30.7289   24.2246 H   0  0  0  0  0  0
  -17.5011  -31.6288   24.5192 H   0  0  0  0  0  0
  -15.5343  -30.3017   23.7627 H   0  0  0  0  0  0
  -15.8667  -28.0826   22.7075 H   0  0  0  0  0  0
  -24.6049  -30.6756   25.7728 H   0  0  0  0  0  0
  -24.8728  -32.2606   26.4830 H   0  0  0  0  0  0
  -25.8109  -30.8797   27.0215 H   0  0  0  0  0  0
  -26.3016  -29.6751   24.1150 H   0  0  0  0  0  0
  -27.4378  -29.7373   25.4451 H   0  0  0  0  0  0
  -27.8707  -30.4532   23.9097 H   0  0  0  0  0  0
  -27.2572  -33.3624   26.2134 H   0  0  0  0  0  0
  -28.3798  -32.6964   25.0379 H   0  0  0  0  0  0
  -28.0691  -31.8480   26.5448 H   0  0  0  0  0  0
  -28.2542  -38.0159   24.7626 H   0  0  0  0  0  0
  -28.1134  -36.2705   24.6185 H   0  0  0  0  0  0
  -27.2305  -37.1340   25.8858 H   0  0  0  0  0  0
  -20.9337  -29.8747   21.6945 H   0  0  0  0  0  0
  -26.0156  -38.2883   24.1458 H   0  0  0  0  0  0
  -27.0845  -21.0833   21.4855 H   0  0  0  0  0  0
  -26.2892  -18.8403   21.8832 H   0  0  0  0  0  0
  -30.2293  -21.0183   18.8327 H   0  0  0  0  0  0
  -31.4013  -22.1050   19.5836 H   0  0  0  0  0  0
  -29.9434  -22.7194   18.8210 H   0  0  0  0  0  0
  -30.4337  -16.2289   23.3128 H   0  0  0  0  0  0
  -30.4411  -14.4825   23.1859 H   0  0  0  0  0  0
  -28.9339  -15.3705   23.0455 H   0  0  0  0  0  0
  -31.4617  -17.1607   21.4116 H   0  0  0  0  0  0
  -30.7462  -16.9320   19.8420 H   0  0  0  0  0  0
  -29.9559  -24.5008   20.0713 H   0  0  0  0  0  0
  -29.7298  -24.6637   21.7921 H   0  0  0  0  0  0
  -27.8799  -22.7931   20.2355 H   0  0  0  0  0  0
  -28.2300  -22.8263   21.9558 H   0  0  0  0  0  0
  -27.3766  -25.3175   21.4513 H   0  0  0  0  0  0
  -27.4903  -24.8517   19.7653 H   0  0  0  0  0  0
  1 25  1  0  0  0
  1 30  2  0  0  0
  1 84  1  0  0  0
  2  3  1  0  0  0
  2 25  1  0  0  0
  2 87  1  0  0  0
  2 88  1  0  0  0
  3  4  1  0  0  0
  3 89  1  0  0  0
  3 90  1  0  0  0
  4  5  1  0  0  0
  4 91  1  0  0  0
  4 92  1  0  0  0
  5  6  1  0  0  0
  5 26  1  0  0  0
  5 93  1  0  0  0
  6 25  1  0  0  0
  6 94  1  0  0  0
  6 95  1  0  0  0
  7  8  2  0  0  0
  7 26  1  0  0  0
  7 29  1  0  0  0
  8  9  1  0  0  0
  8 22  1  0  0  0
  9 10  1  0  0  0
  9 27  2  0  0  0
 10 11  2  0  0  0
 10 15  1  0  0  0
 11 12  1  0  0  0
 11 96  1  0  0  0
 12 13  2  0  0  0
 12 97  1  0  0  0
 13 14  1  0  0  0
 13 31  1  0  0  0
 14 15  2  0  0  0
 14 98  1  0  0  0
 15 99  1  0  0  0
 16 17  2  0  0  0
 16 21  1  0  0  0
 16 31  1  0  0  0
 17 18  1  0  0  0
 17100  1  0  0  0
 18 19  2  0  0  0
 18101  1  0  0  0
 19 20  1  0  0  0
 19 24  1  0  0  0
 20 21  2  0  0  0
 20102  1  0  0  0
 21 23  1  0  0  0
 22 28  1  0  0  0
 22 32  2  0  0  0
 26 27  1  0  0  0
 28103  1  0  0  0
 28104  1  0  0  0
 29105  1  0  0  0
 29106  1  0  0  0
 33 34  1  0  0  0
 33 66  1  0  0  0
 33 70  2  0  0  0
 34 36  1  0  0  0
 34 59  1  0  0  0
 34107  1  0  0  0
 35 44  2  0  0  0
 35 45  1  0  0  0
 35 68  1  0  0  0
 36 56  1  0  0  0
 36108  1  0  0  0
 37 39  1  0  0  0
 37 47  1  0  0  0
 37 66  1  0  0  0
 37109  1  0  0  0
 38 43  2  0  0  0
 38 46  1  0  0  0
 38 47  1  0  0  0
 39 64  1  0  0  0
 39 67  2  0  0  0
 40 52  1  0  0  0
 40 53  2  0  0  0
 40 58  1  0  0  0
 41110  1  0  0  0
 41111  1  0  0  0
 41112  1  0  0  0
 41 48  1  0  0  0
 42 43  1  0  0  0
 42 66  1  0  0  0
 42113  1  0  0  0
 42114  1  0  0  0
 43 44  1  0  0  0
 44115  1  0  0  0
 45 46  2  0  0  0
 45116  1  0  0  0
 46117  1  0  0  0
 47118  1  0  0  0
 47119  1  0  0  0
 48 56  1  0  0  0
 48 65  1  0  0  0
 48120  1  0  0  0
 49 50  1  0  0  0
 49 53  1  0  0  0
 49 64  1  0  0  0
 49121  1  0  0  0
 50 51  1  0  0  0
 50122  1  0  0  0
 50123  1  0  0  0
 51 52  1  0  0  0
 51124  1  0  0  0
 51125  1  0  0  0
 52126  1  0  0  0
 52127  1  0  0  0
 53 54  1  0  0  0
 54 55  2  0  0  0
 54128  1  0  0  0
 55 57  1  0  0  0
 55129  1  0  0  0
 56 69  2  0  0  0
 57 58  2  0  0  0
 57130  1  0  0  0
 58131  1  0  0  0
 59 60  1  0  0  0
 59 61  1  0  0  0
 59 62  1  0  0  0
 60132  1  0  0  0
 60133  1  0  0  0
 60134  1  0  0  0
 61135  1  0  0  0
 61136  1  0  0  0
 61137  1  0  0  0
 62138  1  0  0  0
 62139  1  0  0  0
 62140  1  0  0  0
 63 65  1  0  0  0
 63141  1  0  0  0
 63142  1  0  0  0
 63143  1  0  0  0
 64144  1  0  0  0
 65145  1  0  0  0
 68 82  1  0  0  0
 71 72  2  0  0  0
 71 74  1  0  0  0
 71146  1  0  0  0
 72 75  1  0  0  0
 72147  1  0  0  0
 73 75  2  0  0  0
 73 76  1  0  0  0
 73 79  1  0  0  0
 74 76  2  0  0  0
 74 83  1  0  0  0
 75 85  1  0  0  0
 76 86  1  0  0  0
 77 83  1  0  0  0
 77148  1  0  0  0
 77149  1  0  0  0
 77150  1  0  0  0
 78 84  1  0  0  0
 78151  1  0  0  0
 78152  1  0  0  0
 78153  1  0  0  0
 79 84  1  0  0  0
 79154  1  0  0  0
 79155  1  0  0  0
 80 81  1  0  0  0
 80 82  1  0  0  0
 80156  1  0  0  0
 80157  1  0  0  0
 81 83  1  0  0  0
 81158  1  0  0  0
 81159  1  0  0  0
 82160  1  0  0  0
 82161  1  0  0  0
M  ISO  4   1 100  68 101  82 101  84 100
M  END
> <chiral flag>
0

> <version>
0

> <s_m_source_file>
/data/baiqing/PycharmProjects/Reinvent-master-3.2/result/LINK_invent/BTK/process_docking_weight1_custom_product_contain_oxygen_bond_distance_aromatic_linkinvent_7_9_3/rearranged_h_0016.sdf

> <i_m_source_file_index>
90

> <r_mmod_Potential_Energy-OPLS-2005>
162.903411865234

> <r_mmod_Stretch_Energy-OPLS-2005>
46.2511215209961

> <r_mmod_Bend_Energy-OPLS-2005>
118.532783508301

> <r_mmod_Torsional_Energy-OPLS-2005>
265.154571533203

> <r_mmod_Improper_Torsional_Energy-OPLS-2005>
12.116096496582

> <r_mmod_Van_der_Waal_Energy-OPLS-2005>
190.702072143555

> <r_mmod_Electrostatic_Energy-OPLS-2005>
-282.801635742188

> <r_mmod_Solvation_Energy-OPLS-2005>
-202.384490966797

> <b_mmod_Minimization_Converged-OPLS-2005>
0

> <r_mmod_RMS_Derivative-OPLS-2005>
5.65308332443237

$$$$
90
                    3D
 Structure written by MMmdl.
160168  0  0  1  0            999 V2000
  -30.7501  -14.3977   20.6626 C   0  0  0  0  0  0
  -30.4136  -12.2976   19.4050 C   0  0  0  0  0  0
  -29.4849  -12.5258   18.1967 C   0  0  0  0  0  0
  -28.0089  -12.3774   18.6102 C   0  0  0  0  0  0
  -27.6630  -13.2044   19.8759 C   0  0  2  0  0  0
  -28.7010  -12.9651   20.9944 C   0  0  0  0  0  0
  -25.2590  -13.8149   20.5673 C   0  0  0  0  0  0
  -24.1840  -13.0434   20.9175 C   0  0  0  0  0  0
  -24.6394  -11.6899   20.8736 C   0  0  0  0  0  0
  -23.9057  -10.4287   21.0409 C   0  0  0  0  0  0
  -24.3606   -9.4199   21.9185 C   0  0  0  0  0  0
  -23.6286   -8.2234   22.0752 C   0  0  0  0  0  0
  -22.4269   -8.0272   21.3539 C   0  0  0  0  0  0
  -21.9902   -9.0248   20.4644 C   0  0  0  0  0  0
  -22.7230  -10.2132   20.3058 C   0  0  0  0  0  0
  -21.6852   -6.0731   22.5282 C   0  0  0  0  0  0
  -21.4014   -6.5637   23.8215 C   0  0  0  0  0  0
  -21.3659   -5.6789   24.9177 C   0  0  0  0  0  0
  -21.6041   -4.3052   24.7224 C   0  0  0  0  0  0
  -21.8820   -3.8144   23.4347 C   0  0  0  0  0  0
  -21.9192   -4.6959   22.3404 C   0  0  0  0  0  0
  -22.7867  -13.5249   21.1841 C   0  0  0  0  0  0
  -22.1665   -4.2147   21.0980 F   0  0  0  0  0  0
  -21.5626   -3.4534   25.7734 F   0  0  0  0  0  0
  -30.0401  -13.2564   20.4564 N   0  0  0  0  0  0
  -26.3026  -12.9323   20.3359 N   0  0  0  0  0  0
  -25.9319  -11.6482   20.5752 N   0  0  0  0  0  0
  -22.0507  -12.8248   22.0399 N   0  0  0  0  0  0
  -25.4301  -15.1863   20.4063 N   0  0  0  0  0  0
  -31.7935  -14.6400   20.0464 O   0  0  0  0  0  0
  -21.6638   -6.8870   21.4240 O   0  0  0  0  0  0
  -22.3560  -14.5562   20.6695 O   0  0  0  0  0  0
  -24.6117  -31.8697   23.2106 C   0  0  0  0  0  0
  -25.9026  -32.4830   23.8396 C   0  0  1  0  0  0
  -27.2365  -27.4575   20.0995 C   0  0  0  0  0  0
  -25.5887  -33.8627   24.2334 N   0  0  0  0  0  0
  -23.3991  -30.4918   21.5506 C   0  0  2  0  0  0
  -24.8471  -28.9546   20.1192 C   0  0  0  0  0  0
  -22.7393  -29.4666   22.5005 C   0  0  0  0  0  0
  -18.0272  -28.1362   22.8486 C   0  0  0  0  0  0
  -24.1488  -36.7323   23.2636 C   0  0  0  0  0  0
  -25.9235  -30.8419   21.3596 C   0  0  0  0  0  0
  -26.0038  -29.4748   20.7144 C   0  0  0  0  0  0
  -27.2038  -28.7320   20.7034 C   0  0  0  0  0  0
  -26.0694  -26.9425   19.5013 C   0  0  0  0  0  0
  -24.8727  -27.6855   19.5118 C   0  0  0  0  0  0
  -23.6076  -29.8192   20.1664 C   0  0  0  0  0  0
  -25.4107  -36.3119   24.0337 C   0  0  1  0  0  0
  -20.5859  -28.3657   23.1327 C   0  0  2  0  0  0
  -20.6774  -26.9396   22.5431 C   0  0  0  0  0  0
  -19.5760  -26.6367   21.5225 C   0  0  0  0  0  0
  -18.1931  -26.7905   22.1624 C   0  0  0  0  0  0
  -19.1517  -28.8825   23.2901 C   0  0  0  0  0  0
  -18.9443  -30.1432   23.8908 C   0  0  0  0  0  0
  -17.6445  -30.6575   24.0556 C   0  0  0  0  0  0
  -25.9028  -34.9481   23.5133 C   0  0  0  0  0  0
  -16.5339  -29.9075   23.6309 C   0  0  0  0  0  0
  -16.7261  -28.6489   23.0333 C   0  0  0  0  0  0
  -26.4466  -31.6597   25.0709 C   0  0  0  0  0  0
  -25.3739  -31.3692   26.1463 C   0  0  0  0  0  0
  -27.0286  -30.3044   24.6049 C   0  0  0  0  0  0
  -27.6050  -32.4304   25.7468 C   0  0  0  0  0  0
  -27.5581  -37.1815   24.8463 C   0  0  0  0  0  0
  -21.4123  -29.3032   22.3742 N   0  0  0  0  0  0
  -26.4299  -37.3799   23.9403 N   0  0  0  0  0  0
  -24.6629  -31.0813   22.0999 N   0  0  0  0  0  0
  -23.4178  -28.8215   23.3041 O   0  0  0  0  0  0
  -28.4045  -26.7399   20.0558 O   0  0  0  0  0  0
  -26.5597  -34.8933   22.4698 O   0  0  0  0  0  0
  -23.5315  -32.1438   23.7517 O   0  0  0  0  0  0
  -28.2410  -21.2039   21.9932 C   0  0  0  0  0  0
  -28.9591  -20.0235   22.2756 C   0  0  0  0  0  0
  -27.9081  -18.9210   20.3919 C   0  0  0  0  0  0
  -27.3222  -21.2581   20.9173 C   0  0  0  0  0  0
  -28.7953  -18.8636   21.4925 C   0  0  0  0  0  0
  -27.1832  -20.0968   20.1098 C   0  0  0  0  0  0
  -25.0913  -22.1174   20.6110 C   0  0  0  0  0  0
  -30.2879  -15.4528   21.6818 C   0  0  0  0  0  0
  -28.1566  -24.3181   20.5124 C   0  0  0  0  0  0
  -26.9065  -23.7234   21.1883 C   0  0  0  0  0  0
  -29.4458  -16.5750   21.0420 C   0  0  0  0  0  0
  -28.5242  -25.7199   21.0484 C   0  0  0  0  0  0
  -26.5256  -22.4053   20.6639 N   0  0  0  0  0  0
  -29.5109  -17.7414   21.8645 O   0  0  0  0  0  0
  -26.3428  -20.0963   19.0451 F   0  0  0  0  0  0
  -31.4577  -12.3902   19.1014 H   0  0  0  0  0  0
  -30.3073  -11.2787   19.7804 H   0  0  0  0  0  0
  -29.7208  -11.8202   17.3995 H   0  0  0  0  0  0
  -29.6533  -13.5224   17.7859 H   0  0  0  0  0  0
  -27.8193  -11.3195   18.7954 H   0  0  0  0  0  0
  -27.3566  -12.6642   17.7842 H   0  0  0  0  0  0
  -27.7146  -14.2558   19.5922 H   0  0  0  0  0  0
  -28.6656  -11.9266   21.3274 H   0  0  0  0  0  0
  -28.4391  -13.5549   21.8697 H   0  0  0  0  0  0
  -25.2748   -9.5677   22.4768 H   0  0  0  0  0  0
  -23.9987   -7.4622   22.7475 H   0  0  0  0  0  0
  -21.0831   -8.8772   19.8956 H   0  0  0  0  0  0
  -22.3684  -10.9673   19.6174 H   0  0  0  0  0  0
  -21.2016   -7.6146   23.9716 H   0  0  0  0  0  0
  -21.1480   -6.0522   25.9080 H   0  0  0  0  0  0
  -22.0601   -2.7606   23.2849 H   0  0  0  0  0  0
  -22.4121  -11.9900   22.4780 H   0  0  0  0  0  0
  -21.1126  -13.1283   22.2605 H   0  0  0  0  0  0
  -24.6591  -15.8376   20.5021 H   0  0  0  0  0  0
  -26.2772  -15.6216   20.0674 H   0  0  0  0  0  0
  -26.7097  -32.5563   23.1167 H   0  0  0  0  0  0
  -25.0039  -33.9792   25.0481 H   0  0  0  0  0  0
  -22.6859  -31.3065   21.4097 H   0  0  0  0  0  0
  -23.3743  -35.9664   23.3313 H   0  0  0  0  0  0
  -24.3577  -36.8922   22.2045 H   0  0  0  0  0  0
  -23.7252  -37.6537   23.6639 H   0  0  0  0  0  0
  -26.0260  -31.6044   20.5864 H   0  0  0  0  0  0
  -26.8154  -30.9036   21.9709 H   0  0  0  0  0  0
  -28.1015  -29.1325   21.1540 H   0  0  0  0  0  0
  -26.0906  -25.9734   19.0235 H   0  0  0  0  0  0
  -23.9841  -27.2794   19.0481 H   0  0  0  0  0  0
  -23.7135  -30.5918   19.4034 H   0  0  0  0  0  0
  -22.7330  -29.2347   19.8736 H   0  0  0  0  0  0
  -25.1284  -36.1986   25.0829 H   0  0  0  0  0  0
  -20.9944  -28.3222   24.1455 H   0  0  0  0  0  0
  -20.5683  -26.2268   23.3620 H   0  0  0  0  0  0
  -21.6648  -26.7453   22.1224 H   0  0  0  0  0  0
  -19.6936  -25.6281   21.1251 H   0  0  0  0  0  0
  -19.6708  -27.3180   20.6760 H   0  0  0  0  0  0
  -17.4209  -26.6645   21.4017 H   0  0  0  0  0  0
  -18.0335  -26.0046   22.9019 H   0  0  0  0  0  0
  -19.7917  -30.7240   24.2287 H   0  0  0  0  0  0
  -17.5001  -31.6256   24.5152 H   0  0  0  0  0  0
  -15.5338  -30.2983   23.7618 H   0  0  0  0  0  0
  -15.8662  -28.0816   22.7040 H   0  0  0  0  0  0
  -24.5914  -30.7037   25.7800 H   0  0  0  0  0  0
  -24.8930  -32.2845   26.4920 H   0  0  0  0  0  0
  -25.8101  -30.8855   27.0212 H   0  0  0  0  0  0
  -26.2814  -29.6813   24.1119 H   0  0  0  0  0  0
  -27.4090  -29.7264   25.4480 H   0  0  0  0  0  0
  -27.8633  -30.4373   23.9164 H   0  0  0  0  0  0
  -27.2678  -33.3588   26.2088 H   0  0  0  0  0  0
  -28.3842  -32.6886   25.0283 H   0  0  0  0  0  0
  -28.0741  -31.8399   26.5347 H   0  0  0  0  0  0
  -28.2611  -38.0102   24.7506 H   0  0  0  0  0  0
  -28.1068  -36.2634   24.6298 H   0  0  0  0  0  0
  -27.2297  -37.1481   25.8866 H   0  0  0  0  0  0
  -20.9272  -29.8756   21.6970 H   0  0  0  0  0  0
  -26.0190  -38.2879   24.1401 H   0  0  0  0  0  0
  -28.3949  -22.0512   22.6424 H   0  0  0  0  0  0
  -29.6390  -20.0075   23.1157 H   0  0  0  0  0  0
  -27.7487  -18.0712   19.7480 H   0  0  0  0  0  0
  -24.7659  -21.9897   19.5777 H   0  0  0  0  0  0
  -24.4980  -22.9246   21.0442 H   0  0  0  0  0  0
  -24.8363  -21.2078   21.1589 H   0  0  0  0  0  0
  -29.7937  -15.0190   22.5487 H   0  0  0  0  0  0
  -31.1979  -15.8993   22.0833 H   0  0  0  0  0  0
  -28.0083  -24.3654   19.4327 H   0  0  0  0  0  0
  -29.0071  -23.6528   20.6651 H   0  0  0  0  0  0
  -26.0807  -24.4205   21.0359 H   0  0  0  0  0  0
  -27.0424  -23.6771   22.2691 H   0  0  0  0  0  0
  -28.4148  -16.2343   20.9431 H   0  0  0  0  0  0
  -29.8182  -16.8157   20.0442 H   0  0  0  0  0  0
  -29.5668  -25.7104   21.3684 H   0  0  0  0  0  0
  -27.9497  -25.9648   21.9445 H   0  0  0  0  0  0
  1 25  1  0  0  0
  1 30  2  0  0  0
  1 78  1  0  0  0
  2  3  1  0  0  0
  2 25  1  0  0  0
  2 86  1  0  0  0
  2 87  1  0  0  0
  3  4  1  0  0  0
  3 88  1  0  0  0
  3 89  1  0  0  0
  4  5  1  0  0  0
  4 90  1  0  0  0
  4 91  1  0  0  0
  5  6  1  0  0  0
  5 26  1  0  0  0
  5 92  1  0  0  0
  6 25  1  0  0  0
  6 93  1  0  0  0
  6 94  1  0  0  0
  7  8  2  0  0  0
  7 26  1  0  0  0
  7 29  1  0  0  0
  8  9  1  0  0  0
  8 22  1  0  0  0
  9 10  1  0  0  0
  9 27  2  0  0  0
 10 11  2  0  0  0
 10 15  1  0  0  0
 11 12  1  0  0  0
 11 95  1  0  0  0
 12 13  2  0  0  0
 12 96  1  0  0  0
 13 14  1  0  0  0
 13 31  1  0  0  0
 14 15  2  0  0  0
 14 97  1  0  0  0
 15 98  1  0  0  0
 16 17  2  0  0  0
 16 21  1  0  0  0
 16 31  1  0  0  0
 17 18  1  0  0  0
 17 99  1  0  0  0
 18 19  2  0  0  0
 18100  1  0  0  0
 19 20  1  0  0  0
 19 24  1  0  0  0
 20 21  2  0  0  0
 20101  1  0  0  0
 21 23  1  0  0  0
 22 28  1  0  0  0
 22 32  2  0  0  0
 26 27  1  0  0  0
 28102  1  0  0  0
 28103  1  0  0  0
 29104  1  0  0  0
 29105  1  0  0  0
 33 34  1  0  0  0
 33 66  1  0  0  0
 33 70  2  0  0  0
 34 36  1  0  0  0
 34 59  1  0  0  0
 34106  1  0  0  0
 35 44  2  0  0  0
 35 45  1  0  0  0
 35 68  1  0  0  0
 36 56  1  0  0  0
 36107  1  0  0  0
 37 39  1  0  0  0
 37 47  1  0  0  0
 37 66  1  0  0  0
 37108  1  0  0  0
 38 43  2  0  0  0
 38 46  1  0  0  0
 38 47  1  0  0  0
 39 64  1  0  0  0
 39 67  2  0  0  0
 40 52  1  0  0  0
 40 53  2  0  0  0
 40 58  1  0  0  0
 41109  1  0  0  0
 41110  1  0  0  0
 41111  1  0  0  0
 41 48  1  0  0  0
 42 43  1  0  0  0
 42 66  1  0  0  0
 42112  1  0  0  0
 42113  1  0  0  0
 43 44  1  0  0  0
 44114  1  0  0  0
 45 46  2  0  0  0
 45115  1  0  0  0
 46116  1  0  0  0
 47117  1  0  0  0
 47118  1  0  0  0
 48 56  1  0  0  0
 48 65  1  0  0  0
 48119  1  0  0  0
 49 50  1  0  0  0
 49 53  1  0  0  0
 49 64  1  0  0  0
 49120  1  0  0  0
 50 51  1  0  0  0
 50121  1  0  0  0
 50122  1  0  0  0
 51 52  1  0  0  0
 51123  1  0  0  0
 51124  1  0  0  0
 52125  1  0  0  0
 52126  1  0  0  0
 53 54  1  0  0  0
 54 55  2  0  0  0
 54127  1  0  0  0
 55 57  1  0  0  0
 55128  1  0  0  0
 56 69  2  0  0  0
 57 58  2  0  0  0
 57129  1  0  0  0
 58130  1  0  0  0
 59 60  1  0  0  0
 59 61  1  0  0  0
 59 62  1  0  0  0
 60131  1  0  0  0
 60132  1  0  0  0
 60133  1  0  0  0
 61134  1  0  0  0
 61135  1  0  0  0
 61136  1  0  0  0
 62137  1  0  0  0
 62138  1  0  0  0
 62139  1  0  0  0
 63 65  1  0  0  0
 63140  1  0  0  0
 63141  1  0  0  0
 63142  1  0  0  0
 64143  1  0  0  0
 65144  1  0  0  0
 68 82  1  0  0  0
 71 72  2  0  0  0
 71 74  1  0  0  0
 71145  1  0  0  0
 72 75  1  0  0  0
 72146  1  0  0  0
 73 75  2  0  0  0
 73 76  1  0  0  0
 73147  1  0  0  0
 74 76  2  0  0  0
 74 83  1  0  0  0
 75 84  1  0  0  0
 76 85  1  0  0  0
 77 83  1  0  0  0
 77148  1  0  0  0
 77149  1  0  0  0
 77150  1  0  0  0
 78 81  1  0  0  0
 78151  1  0  0  0
 78152  1  0  0  0
 79 80  1  0  0  0
 79 82  1  0  0  0
 79153  1  0  0  0
 79154  1  0  0  0
 80 83  1  0  0  0
 80155  1  0  0  0
 80156  1  0  0  0
 81 84  1  0  0  0
 81157  1  0  0  0
 81158  1  0  0  0
 82159  1  0  0  0
 82160  1  0  0  0
M  ISO  4   1 100  68 101  78 100  82 101
M  END
> <chiral flag>
0

> <version>
0

> <s_m_source_file>
/data/baiqing/PycharmProjects/Reinvent-master-3.2/result/LINK_invent/BTK/process_docking_weight1_custom_product_contain_oxygen_bond_distance_aromatic_linkinvent_7_9_3/rearranged_h_0016.sdf

> <i_m_source_file_index>
91

> <r_mmod_Potential_Energy-OPLS-2005>
8.29616546630859

> <r_mmod_Stretch_Energy-OPLS-2005>
35.8504638671875

> <r_mmod_Bend_Energy-OPLS-2005>
104.846633911133

> <r_mmod_Torsional_Energy-OPLS-2005>
209.966979980469

> <r_mmod_Improper_Torsional_Energy-OPLS-2005>
4.56482362747192

> <r_mmod_Van_der_Waal_Energy-OPLS-2005>
153.092102050781

> <r_mmod_Electrostatic_Energy-OPLS-2005>
-300.627532958984

> <r_mmod_Solvation_Energy-OPLS-2005>
-206.397201538086

> <b_mmod_Minimization_Converged-OPLS-2005>
0

> <r_mmod_RMS_Derivative-OPLS-2005>
1.1521053314209

$$$$
91
                    3D
 Structure written by MMmdl.
171179  0  0  1  0            999 V2000
  -30.8086  -14.3054   20.7291 C   0  0  0  0  0  0
  -30.4151  -12.2871   19.3693 C   0  0  0  0  0  0
  -29.4786  -12.5607   18.1762 C   0  0  0  0  0  0
  -28.0044  -12.4056   18.5942 C   0  0  0  0  0  0
  -27.6682  -13.2022   19.8798 C   0  0  2  0  0  0
  -28.7043  -12.9130   20.9846 C   0  0  0  0  0  0
  -25.2599  -13.8157   20.5656 C   0  0  0  0  0  0
  -24.1843  -13.0428   20.9178 C   0  0  0  0  0  0
  -24.6388  -11.6908   20.8720 C   0  0  0  0  0  0
  -23.9045  -10.4298   21.0395 C   0  0  0  0  0  0
  -24.3605   -9.4226   21.9172 C   0  0  0  0  0  0
  -23.6289   -8.2252   22.0741 C   0  0  0  0  0  0
  -22.4244   -8.0303   21.3569 C   0  0  0  0  0  0
  -21.9884   -9.0269   20.4665 C   0  0  0  0  0  0
  -22.7210  -10.2142   20.3074 C   0  0  0  0  0  0
  -21.6852   -6.0751   22.5299 C   0  0  0  0  0  0
  -21.4013   -6.5644   23.8238 C   0  0  0  0  0  0
  -21.3653   -5.6790   24.9191 C   0  0  0  0  0  0
  -21.6040   -4.3055   24.7229 C   0  0  0  0  0  0
  -21.8826   -3.8156   23.4354 C   0  0  0  0  0  0
  -21.9190   -4.6977   22.3414 C   0  0  0  0  0  0
  -22.7867  -13.5253   21.1822 C   0  0  0  0  0  0
  -22.1640   -4.2167   21.0987 F   0  0  0  0  0  0
  -21.5618   -3.4542   25.7740 F   0  0  0  0  0  0
  -30.0552  -13.2028   20.4630 N   0  0  0  0  0  0
  -26.3053  -12.9320   20.3376 N   0  0  0  0  0  0
  -25.9314  -11.6475   20.5738 N   0  0  0  0  0  0
  -22.0495  -12.8307   22.0429 N   0  0  0  0  0  0
  -25.4228  -15.1882   20.4005 N   0  0  0  0  0  0
  -31.7871  -14.6148   20.0420 O   0  0  0  0  0  0
  -21.6618   -6.8898   21.4269 O   0  0  0  0  0  0
  -22.3562  -14.5546   20.6630 O   0  0  0  0  0  0
  -24.6085  -31.8715   23.2125 C   0  0  0  0  0  0
  -25.9000  -32.4843   23.8401 C   0  0  1  0  0  0
  -27.2357  -27.4849   20.0937 C   0  0  0  0  0  0
  -25.5882  -33.8642   24.2337 N   0  0  0  0  0  0
  -23.3934  -30.4945   21.5512 C   0  0  2  0  0  0
  -24.8388  -28.9600   20.1205 C   0  0  0  0  0  0
  -22.7363  -29.4685   22.5012 C   0  0  0  0  0  0
  -18.0264  -28.1377   22.8486 C   0  0  0  0  0  0
  -24.1491  -36.7321   23.2635 C   0  0  0  0  0  0
  -25.9154  -30.8526   21.3569 C   0  0  0  0  0  0
  -25.9943  -29.4891   20.7086 C   0  0  0  0  0  0
  -27.1975  -28.7589   20.6889 C   0  0  0  0  0  0
  -26.0664  -26.9505   19.5110 C   0  0  0  0  0  0
  -24.8660  -27.6860   19.5239 C   0  0  0  0  0  0
  -23.5989  -29.8216   20.1670 C   0  0  0  0  0  0
  -25.4111  -36.3123   24.0341 C   0  0  1  0  0  0
  -20.5844  -28.3656   23.1330 C   0  0  2  0  0  0
  -20.6755  -26.9398   22.5426 C   0  0  0  0  0  0
  -19.5748  -26.6386   21.5210 C   0  0  0  0  0  0
  -18.1919  -26.7928   22.1608 C   0  0  0  0  0  0
  -19.1510  -28.8831   23.2907 C   0  0  0  0  0  0
  -18.9447  -30.1436   23.8920 C   0  0  0  0  0  0
  -17.6453  -30.6586   24.0569 C   0  0  0  0  0  0
  -25.9031  -34.9488   23.5134 C   0  0  0  0  0  0
  -16.5342  -29.9093   23.6324 C   0  0  0  0  0  0
  -16.7256  -28.6508   23.0344 C   0  0  0  0  0  0
  -26.4447  -31.6608   25.0709 C   0  0  0  0  0  0
  -25.3726  -31.3734   26.1473 C   0  0  0  0  0  0
  -27.0250  -30.3048   24.6060 C   0  0  0  0  0  0
  -27.6053  -32.4304   25.7440 C   0  0  0  0  0  0
  -27.5600  -37.1796   24.8457 C   0  0  0  0  0  0
  -21.4100  -29.3032   22.3738 N   0  0  0  0  0  0
  -26.4304  -37.3805   23.9416 N   0  0  0  0  0  0
  -24.6569  -31.0863   22.0994 N   0  0  0  0  0  0
  -23.4157  -28.8244   23.3050 O   0  0  0  0  0  0
  -28.4278  -26.8160   20.0621 O   0  0  0  0  0  0
  -26.5598  -34.8932   22.4699 O   0  0  0  0  0  0
  -23.5291  -32.1452   23.7546 O   0  0  0  0  0  0
  -30.6454  -20.5841   19.0449 C   0  0  0  0  0  0
  -33.0283  -20.7426   18.5892 C   0  0  0  0  0  0
  -30.5706  -21.9841   19.1328 C   0  0  0  0  0  0
  -32.9508  -22.1462   18.6772 C   0  0  0  0  0  0
  -31.8706  -19.9571   18.7593 C   0  0  0  0  0  0
  -31.7187  -22.7918   18.9396 C   0  0  0  0  0  0
  -30.6236  -17.2477   20.3942 C   0  0  0  0  0  0
  -32.8549  -24.9879   19.2181 C   0  0  0  0  0  0
  -33.0098  -17.8259   20.7877 C   0  0  0  0  0  0
  -30.4200  -14.4983   23.1204 C   0  0  0  0  0  0
  -31.9329  -18.4438   18.6657 C   0  0  0  0  0  0
  -30.5636  -16.5486   21.7753 C   0  0  0  0  0  0
  -29.8379  -24.9681   20.5375 C   0  0  0  0  0  0
  -30.3462  -24.8670   19.0897 C   0  0  0  0  0  0
  -28.4058  -25.5002   20.5893 C   0  0  0  0  0  0
  -31.6431  -24.2026   18.9990 N   0  0  0  0  0  0
  -31.7854  -17.8139   19.9807 N   0  0  0  0  0  0
  -30.4103  -15.0772   21.7693 N   0  0  0  0  0  0
  -29.5990  -17.2408   19.7052 O   0  0  0  0  0  0
  -31.4567  -12.3894   19.0566 H   0  0  0  0  0  0
  -30.3167  -11.2541   19.7079 H   0  0  0  0  0  0
  -29.7088  -11.8910   17.3457 H   0  0  0  0  0  0
  -29.6511  -13.5722   17.8033 H   0  0  0  0  0  0
  -27.8074  -11.3441   18.7461 H   0  0  0  0  0  0
  -27.3450  -12.7224   17.7855 H   0  0  0  0  0  0
  -27.7365  -14.2620   19.6317 H   0  0  0  0  0  0
  -28.6629  -11.8628   21.2768 H   0  0  0  0  0  0
  -28.4375  -13.4734   21.8777 H   0  0  0  0  0  0
  -25.2743   -9.5728   22.4752 H   0  0  0  0  0  0
  -24.0026   -7.4649   22.7447 H   0  0  0  0  0  0
  -21.0810   -8.8793   19.8994 H   0  0  0  0  0  0
  -22.3634  -10.9688   19.6215 H   0  0  0  0  0  0
  -21.1991   -7.6142   23.9760 H   0  0  0  0  0  0
  -21.1458   -6.0500   25.9095 H   0  0  0  0  0  0
  -22.0602   -2.7621   23.2837 H   0  0  0  0  0  0
  -22.4036  -11.9974   22.4876 H   0  0  0  0  0  0
  -21.1168  -13.1476   22.2675 H   0  0  0  0  0  0
  -24.6421  -15.8324   20.4633 H   0  0  0  0  0  0
  -26.2696  -15.6291   20.0640 H   0  0  0  0  0  0
  -26.7072  -32.5571   23.1172 H   0  0  0  0  0  0
  -25.0029  -33.9808   25.0478 H   0  0  0  0  0  0
  -22.6804  -31.3099   21.4114 H   0  0  0  0  0  0
  -23.3761  -35.9645   23.3289 H   0  0  0  0  0  0
  -24.3593  -36.8940   22.2053 H   0  0  0  0  0  0
  -23.7230  -37.6520   23.6649 H   0  0  0  0  0  0
  -26.0203  -31.6183   20.5871 H   0  0  0  0  0  0
  -26.8064  -30.9077   21.9699 H   0  0  0  0  0  0
  -28.0967  -29.1677   21.1291 H   0  0  0  0  0  0
  -26.0808  -25.9832   19.0312 H   0  0  0  0  0  0
  -23.9762  -27.2719   19.0700 H   0  0  0  0  0  0
  -23.7041  -30.5933   19.4037 H   0  0  0  0  0  0
  -22.7247  -29.2366   19.8756 H   0  0  0  0  0  0
  -25.1284  -36.1993   25.0836 H   0  0  0  0  0  0
  -20.9941  -28.3232   24.1448 H   0  0  0  0  0  0
  -20.5644  -26.2275   23.3614 H   0  0  0  0  0  0
  -21.6636  -26.7446   22.1237 H   0  0  0  0  0  0
  -19.6920  -25.6299   21.1238 H   0  0  0  0  0  0
  -19.6709  -27.3197   20.6744 H   0  0  0  0  0  0
  -17.4201  -26.6679   21.3998 H   0  0  0  0  0  0
  -18.0320  -26.0058   22.8993 H   0  0  0  0  0  0
  -19.7925  -30.7239   24.2304 H   0  0  0  0  0  0
  -17.5015  -31.6270   24.5166 H   0  0  0  0  0  0
  -15.5346  -30.3010   23.7638 H   0  0  0  0  0  0
  -15.8651  -28.0842   22.7049 H   0  0  0  0  0  0
  -24.5890  -30.7082   25.7833 H   0  0  0  0  0  0
  -24.8921  -32.2897   26.4910 H   0  0  0  0  0  0
  -25.8079  -30.8920   27.0237 H   0  0  0  0  0  0
  -26.2774  -29.6828   24.1125 H   0  0  0  0  0  0
  -27.4035  -29.7271   25.4502 H   0  0  0  0  0  0
  -27.8604  -30.4365   23.9180 H   0  0  0  0  0  0
  -27.2708  -33.3593   26.2067 H   0  0  0  0  0  0
  -28.3819  -32.6878   25.0225 H   0  0  0  0  0  0
  -28.0767  -31.8394   26.5299 H   0  0  0  0  0  0
  -28.2608  -38.0105   24.7537 H   0  0  0  0  0  0
  -28.1102  -36.2641   24.6227 H   0  0  0  0  0  0
  -27.2327  -37.1388   25.8860 H   0  0  0  0  0  0
  -20.9255  -29.8733   21.6945 H   0  0  0  0  0  0
  -26.0197  -38.2883   24.1438 H   0  0  0  0  0  0
  -29.7549  -19.9897   19.1952 H   0  0  0  0  0  0
  -33.9829  -20.2763   18.3895 H   0  0  0  0  0  0
  -29.6032  -22.4070   19.3553 H   0  0  0  0  0  0
  -33.8567  -22.7139   18.5262 H   0  0  0  0  0  0
  -33.4679  -24.5612   20.0141 H   0  0  0  0  0  0
  -32.6131  -26.0125   19.5043 H   0  0  0  0  0  0
  -33.4504  -25.0366   18.3053 H   0  0  0  0  0  0
  -32.8541  -18.3839   21.7128 H   0  0  0  0  0  0
  -33.8436  -18.3033   20.2730 H   0  0  0  0  0  0
  -33.3227  -16.8103   21.0345 H   0  0  0  0  0  0
  -30.6151  -13.4235   23.1301 H   0  0  0  0  0  0
  -29.4591  -14.6621   23.6085 H   0  0  0  0  0  0
  -31.1902  -14.9659   23.7356 H   0  0  0  0  0  0
  -32.8796  -18.1393   18.2176 H   0  0  0  0  0  0
  -31.1700  -18.1034   17.9628 H   0  0  0  0  0  0
  -29.7005  -16.9650   22.2947 H   0  0  0  0  0  0
  -31.4125  -16.8032   22.4041 H   0  0  0  0  0  0
  -30.4927  -25.6190   21.1182 H   0  0  0  0  0  0
  -29.8643  -23.9939   21.0259 H   0  0  0  0  0  0
  -30.4405  -25.8719   18.6747 H   0  0  0  0  0  0
  -29.6154  -24.3659   18.4523 H   0  0  0  0  0  0
  -28.0513  -25.5209   21.6208 H   0  0  0  0  0  0
  -27.7458  -24.8426   20.0239 H   0  0  0  0  0  0
  1 25  1  0  0  0
  1 30  2  0  0  0
  1 88  1  0  0  0
  2  3  1  0  0  0
  2 25  1  0  0  0
  2 90  1  0  0  0
  2 91  1  0  0  0
  3  4  1  0  0  0
  3 92  1  0  0  0
  3 93  1  0  0  0
  4  5  1  0  0  0
  4 94  1  0  0  0
  4 95  1  0  0  0
  5  6  1  0  0  0
  5 26  1  0  0  0
  5 96  1  0  0  0
  6 25  1  0  0  0
  6 97  1  0  0  0
  6 98  1  0  0  0
  7  8  2  0  0  0
  7 26  1  0  0  0
  7 29  1  0  0  0
  8  9  1  0  0  0
  8 22  1  0  0  0
  9 10  1  0  0  0
  9 27  2  0  0  0
 10 11  2  0  0  0
 10 15  1  0  0  0
 11 12  1  0  0  0
 11 99  1  0  0  0
 12 13  2  0  0  0
 12100  1  0  0  0
 13 14  1  0  0  0
 13 31  1  0  0  0
 14 15  2  0  0  0
 14101  1  0  0  0
 15102  1  0  0  0
 16 17  2  0  0  0
 16 21  1  0  0  0
 16 31  1  0  0  0
 17 18  1  0  0  0
 17103  1  0  0  0
 18 19  2  0  0  0
 18104  1  0  0  0
 19 20  1  0  0  0
 19 24  1  0  0  0
 20 21  2  0  0  0
 20105  1  0  0  0
 21 23  1  0  0  0
 22 28  1  0  0  0
 22 32  2  0  0  0
 26 27  1  0  0  0
 28106  1  0  0  0
 28107  1  0  0  0
 29108  1  0  0  0
 29109  1  0  0  0
 33 34  1  0  0  0
 33 66  1  0  0  0
 33 70  2  0  0  0
 34 36  1  0  0  0
 34 59  1  0  0  0
 34110  1  0  0  0
 35 44  2  0  0  0
 35 45  1  0  0  0
 35 68  1  0  0  0
 36 56  1  0  0  0
 36111  1  0  0  0
 37 39  1  0  0  0
 37 47  1  0  0  0
 37 66  1  0  0  0
 37112  1  0  0  0
 38 43  2  0  0  0
 38 46  1  0  0  0
 38 47  1  0  0  0
 39 64  1  0  0  0
 39 67  2  0  0  0
 40 52  1  0  0  0
 40 53  2  0  0  0
 40 58  1  0  0  0
 41113  1  0  0  0
 41114  1  0  0  0
 41115  1  0  0  0
 41 48  1  0  0  0
 42 43  1  0  0  0
 42 66  1  0  0  0
 42116  1  0  0  0
 42117  1  0  0  0
 43 44  1  0  0  0
 44118  1  0  0  0
 45 46  2  0  0  0
 45119  1  0  0  0
 46120  1  0  0  0
 47121  1  0  0  0
 47122  1  0  0  0
 48 56  1  0  0  0
 48 65  1  0  0  0
 48123  1  0  0  0
 49 50  1  0  0  0
 49 53  1  0  0  0
 49 64  1  0  0  0
 49124  1  0  0  0
 50 51  1  0  0  0
 50125  1  0  0  0
 50126  1  0  0  0
 51 52  1  0  0  0
 51127  1  0  0  0
 51128  1  0  0  0
 52129  1  0  0  0
 52130  1  0  0  0
 53 54  1  0  0  0
 54 55  2  0  0  0
 54131  1  0  0  0
 55 57  1  0  0  0
 55132  1  0  0  0
 56 69  2  0  0  0
 57 58  2  0  0  0
 57133  1  0  0  0
 58134  1  0  0  0
 59 60  1  0  0  0
 59 61  1  0  0  0
 59 62  1  0  0  0
 60135  1  0  0  0
 60136  1  0  0  0
 60137  1  0  0  0
 61138  1  0  0  0
 61139  1  0  0  0
 61140  1  0  0  0
 62141  1  0  0  0
 62142  1  0  0  0
 62143  1  0  0  0
 63 65  1  0  0  0
 63144  1  0  0  0
 63145  1  0  0  0
 63146  1  0  0  0
 64147  1  0  0  0
 65148  1  0  0  0
 68 85  1  0  0  0
 71 73  2  0  0  0
 71 75  1  0  0  0
 71149  1  0  0  0
 72 74  1  0  0  0
 72 75  2  0  0  0
 72150  1  0  0  0
 73 76  1  0  0  0
 73151  1  0  0  0
 74 76  2  0  0  0
 74152  1  0  0  0
 75 81  1  0  0  0
 76 86  1  0  0  0
 77 82  1  0  0  0
 77 87  1  0  0  0
 77 89  2  0  0  0
 78 86  1  0  0  0
 78153  1  0  0  0
 78154  1  0  0  0
 78155  1  0  0  0
 79 87  1  0  0  0
 79156  1  0  0  0
 79157  1  0  0  0
 79158  1  0  0  0
 80 88  1  0  0  0
 80159  1  0  0  0
 80160  1  0  0  0
 80161  1  0  0  0
 81 87  1  0  0  0
 81162  1  0  0  0
 81163  1  0  0  0
 82 88  1  0  0  0
 82164  1  0  0  0
 82165  1  0  0  0
 83 84  1  0  0  0
 83 85  1  0  0  0
 83166  1  0  0  0
 83167  1  0  0  0
 84 86  1  0  0  0
 84168  1  0  0  0
 84169  1  0  0  0
 85170  1  0  0  0
 85171  1  0  0  0
M  ISO  4   1 100  68 101  85 101  88 100
M  END
> <chiral flag>
0

> <version>
0

> <s_m_source_file>
/data/baiqing/PycharmProjects/Reinvent-master-3.2/result/LINK_invent/BTK/process_docking_weight1_custom_product_contain_oxygen_bond_distance_aromatic_linkinvent_7_9_3/rearranged_h_0016.sdf

> <i_m_source_file_index>
92

> <r_mmod_Potential_Energy-OPLS-2005>
-3.09996199607849

> <r_mmod_Stretch_Energy-OPLS-2005>
36.9191627502441

> <r_mmod_Bend_Energy-OPLS-2005>
111.510620117188

> <r_mmod_Torsional_Energy-OPLS-2005>
266.485412597656

> <r_mmod_Improper_Torsional_Energy-OPLS-2005>
4.38902950286865

> <r_mmod_Van_der_Waal_Energy-OPLS-2005>
188.157669067383

> <r_mmod_Electrostatic_Energy-OPLS-2005>
-401.487030029297

> <r_mmod_Solvation_Energy-OPLS-2005>
-217.521850585938

> <b_mmod_Minimization_Converged-OPLS-2005>
0

> <r_mmod_RMS_Derivative-OPLS-2005>
2.71345496177673

$$$$
92
                    3D
 Structure written by MMmdl.
165173  0  0  1  0            999 V2000
  -30.7035  -14.4414   20.6399 C   0  0  0  0  0  0
  -30.4386  -12.3149   19.4060 C   0  0  0  0  0  0
  -29.5036  -12.5055   18.1963 C   0  0  0  0  0  0
  -28.0232  -12.3522   18.6060 C   0  0  0  0  0  0
  -27.6662  -13.1916   19.8628 C   0  0  2  0  0  0
  -28.7056  -12.9583   20.9819 C   0  0  0  0  0  0
  -25.2631  -13.8138   20.5556 C   0  0  0  0  0  0
  -24.1847  -13.0470   20.9112 C   0  0  0  0  0  0
  -24.6372  -11.6936   20.8678 C   0  0  0  0  0  0
  -23.9018  -10.4352   21.0356 C   0  0  0  0  0  0
  -24.3587   -9.4299   21.9141 C   0  0  0  0  0  0
  -23.6288   -8.2333   22.0736 C   0  0  0  0  0  0
  -22.4273   -8.0330   21.3537 C   0  0  0  0  0  0
  -21.9883   -9.0298   20.4643 C   0  0  0  0  0  0
  -22.7186  -10.2187   20.3019 C   0  0  0  0  0  0
  -21.6891   -6.0781   22.5282 C   0  0  0  0  0  0
  -21.4061   -6.5657   23.8231 C   0  0  0  0  0  0
  -21.3649   -5.6781   24.9162 C   0  0  0  0  0  0
  -21.6023   -4.3045   24.7192 C   0  0  0  0  0  0
  -21.8831   -3.8164   23.4309 C   0  0  0  0  0  0
  -21.9211   -4.7008   22.3380 C   0  0  0  0  0  0
  -22.7883  -13.5333   21.1784 C   0  0  0  0  0  0
  -22.1666   -4.2206   21.0954 F   0  0  0  0  0  0
  -21.5612   -3.4510   25.7697 F   0  0  0  0  0  0
  -30.0377  -13.2737   20.4453 N   0  0  0  0  0  0
  -26.3043  -12.9266   20.3249 N   0  0  0  0  0  0
  -25.9267  -11.6448   20.5638 N   0  0  0  0  0  0
  -22.0456  -12.8384   22.0340 N   0  0  0  0  0  0
  -25.4385  -15.1832   20.3913 N   0  0  0  0  0  0
  -31.7925  -14.6682   20.0998 O   0  0  0  0  0  0
  -21.6644   -6.8924   21.4248 O   0  0  0  0  0  0
  -22.3629  -14.5665   20.6653 O   0  0  0  0  0  0
  -24.6084  -31.8696   23.2164 C   0  0  0  0  0  0
  -25.8981  -32.4845   23.8443 C   0  0  1  0  0  0
  -27.2186  -27.4569   20.0611 C   0  0  0  0  0  0
  -25.5828  -33.8646   24.2364 N   0  0  0  0  0  0
  -23.3968  -30.4948   21.5582 C   0  0  2  0  0  0
  -24.8362  -28.9655   20.1191 C   0  0  0  0  0  0
  -22.7378  -29.4648   22.5038 C   0  0  0  0  0  0
  -18.0251  -28.1397   22.8491 C   0  0  0  0  0  0
  -24.1478  -36.7345   23.2652 C   0  0  0  0  0  0
  -25.9251  -30.8329   21.3718 C   0  0  0  0  0  0
  -25.9960  -29.4670   20.7238 C   0  0  0  0  0  0
  -27.1872  -28.7089   20.7126 C   0  0  0  0  0  0
  -26.0358  -26.9540   19.4779 C   0  0  0  0  0  0
  -24.8467  -27.7046   19.5003 C   0  0  0  0  0  0
  -23.6013  -29.8324   20.1705 C   0  0  0  0  0  0
  -25.4095  -36.3134   24.0353 C   0  0  1  0  0  0
  -20.5834  -28.3646   23.1351 C   0  0  2  0  0  0
  -20.6736  -26.9382   22.5437 C   0  0  0  0  0  0
  -19.5732  -26.6390   21.5223 C   0  0  0  0  0  0
  -18.1909  -26.7934   22.1625 C   0  0  0  0  0  0
  -19.1495  -28.8839   23.2927 C   0  0  0  0  0  0
  -18.9430  -30.1450   23.8927 C   0  0  0  0  0  0
  -17.6438  -30.6600   24.0579 C   0  0  0  0  0  0
  -25.8995  -34.9490   23.5159 C   0  0  0  0  0  0
  -16.5323  -29.9103   23.6346 C   0  0  0  0  0  0
  -16.7240  -28.6534   23.0330 C   0  0  0  0  0  0
  -26.4427  -31.6624   25.0755 C   0  0  0  0  0  0
  -25.3728  -31.3713   26.1530 C   0  0  0  0  0  0
  -27.0236  -30.3072   24.6099 C   0  0  0  0  0  0
  -27.6033  -32.4332   25.7463 C   0  0  0  0  0  0
  -27.5573  -37.1825   24.8461 C   0  0  0  0  0  0
  -21.4111  -29.3005   22.3765 N   0  0  0  0  0  0
  -26.4296  -37.3797   23.9396 N   0  0  0  0  0  0
  -24.6624  -31.0798   22.1074 N   0  0  0  0  0  0
  -23.4165  -28.8176   23.3057 O   0  0  0  0  0  0
  -28.3990  -26.7576   19.9741 O   0  0  0  0  0  0
  -26.5575  -34.8913   22.4728 O   0  0  0  0  0  0
  -23.5278  -32.1434   23.7564 O   0  0  0  0  0  0
  -32.3260  -21.4922   19.4303 C   0  0  0  0  0  0
  -28.6551  -21.0912   20.3073 C   0  0  0  0  0  0
  -28.7196  -19.9391   21.1131 C   0  0  0  0  0  0
  -31.0649  -20.9725   19.9471 C   0  0  0  0  0  0
  -29.8082  -21.5841   19.6593 C   0  0  0  0  0  0
  -29.9381  -19.2506   21.2906 C   0  0  0  0  0  0
  -31.1189  -19.8110   20.7485 C   0  0  0  0  0  0
  -30.1708  -22.3790   17.3753 C   0  0  0  0  0  0
  -29.5305  -18.0504   23.3767 C   0  0  0  0  0  0
  -30.0447  -15.5506   21.4950 C   0  0  0  0  0  0
  -28.6328  -24.8711   18.3613 C   0  0  0  0  0  0
  -30.7708  -16.9184   21.4651 C   0  0  0  0  0  0
  -29.5673  -23.9870   19.2082 C   0  0  0  0  0  0
  -28.7758  -26.3775   18.6439 C   0  0  0  0  0  0
  -33.3268  -21.9053   19.0161 N   0  0  0  0  0  0
  -29.6152  -22.6124   18.7110 N   0  0  0  0  0  0
  -29.9414  -18.0185   21.9777 N   0  0  0  0  0  0
  -32.3175  -19.2168   20.9912 F   0  0  0  0  0  0
  -31.4775  -12.4456   19.0964 H   0  0  0  0  0  0
  -30.3706  -11.2964   19.7915 H   0  0  0  0  0  0
  -29.7549  -11.7841   17.4171 H   0  0  0  0  0  0
  -29.6687  -13.4919   17.7588 H   0  0  0  0  0  0
  -27.8398  -11.2931   18.7997 H   0  0  0  0  0  0
  -27.3770  -12.6232   17.7700 H   0  0  0  0  0  0
  -27.7166  -14.2396   19.5652 H   0  0  0  0  0  0
  -28.6847  -11.9149   21.3027 H   0  0  0  0  0  0
  -28.4489  -13.5433   21.8636 H   0  0  0  0  0  0
  -25.2751   -9.5833   22.4661 H   0  0  0  0  0  0
  -24.0045   -7.4760   22.7452 H   0  0  0  0  0  0
  -21.0828   -8.8801   19.8946 H   0  0  0  0  0  0
  -22.3637  -10.9707   19.6108 H   0  0  0  0  0  0
  -21.2079   -7.6169   23.9758 H   0  0  0  0  0  0
  -21.1422   -6.0481   25.9073 H   0  0  0  0  0  0
  -22.0600   -2.7631   23.2757 H   0  0  0  0  0  0
  -22.4038  -12.0116   22.4878 H   0  0  0  0  0  0
  -21.1041  -13.1428   22.2410 H   0  0  0  0  0  0
  -24.6640  -15.8319   20.4666 H   0  0  0  0  0  0
  -26.2923  -15.6231   20.0724 H   0  0  0  0  0  0
  -26.7031  -32.5567   23.1200 H   0  0  0  0  0  0
  -24.9911  -33.9814   25.0453 H   0  0  0  0  0  0
  -22.6855  -31.3123   21.4253 H   0  0  0  0  0  0
  -23.3706  -35.9713   23.3354 H   0  0  0  0  0  0
  -24.3567  -36.8901   22.2055 H   0  0  0  0  0  0
  -23.7259  -37.6581   23.6623 H   0  0  0  0  0  0
  -26.0247  -31.5933   20.5965 H   0  0  0  0  0  0
  -26.8188  -30.8946   21.9802 H   0  0  0  0  0  0
  -28.0887  -29.0861   21.1745 H   0  0  0  0  0  0
  -26.0203  -25.9906   18.9911 H   0  0  0  0  0  0
  -23.9545  -27.3177   19.0270 H   0  0  0  0  0  0
  -23.7034  -30.6074   19.4086 H   0  0  0  0  0  0
  -22.7263  -29.2452   19.8847 H   0  0  0  0  0  0
  -25.1277  -36.2034   25.0849 H   0  0  0  0  0  0
  -20.9935  -28.3201   24.1468 H   0  0  0  0  0  0
  -20.5644  -26.2241   23.3611 H   0  0  0  0  0  0
  -21.6618  -26.7427   22.1244 H   0  0  0  0  0  0
  -19.6888  -25.6306   21.1241 H   0  0  0  0  0  0
  -19.6706  -27.3222   20.6774 H   0  0  0  0  0  0
  -17.4185  -26.6677   21.4025 H   0  0  0  0  0  0
  -18.0305  -26.0094   22.9034 H   0  0  0  0  0  0
  -19.7890  -30.7270   24.2323 H   0  0  0  0  0  0
  -17.4966  -31.6272   24.5177 H   0  0  0  0  0  0
  -15.5312  -30.3000   23.7664 H   0  0  0  0  0  0
  -15.8631  -28.0883   22.6998 H   0  0  0  0  0  0
  -24.5889  -30.7059   25.7887 H   0  0  0  0  0  0
  -24.8929  -32.2863   26.5017 H   0  0  0  0  0  0
  -25.8107  -30.8866   27.0268 H   0  0  0  0  0  0
  -26.2753  -29.6849   24.1176 H   0  0  0  0  0  0
  -27.4028  -29.7284   25.4529 H   0  0  0  0  0  0
  -27.8579  -30.4392   23.9209 H   0  0  0  0  0  0
  -27.2675  -33.3613   26.2095 H   0  0  0  0  0  0
  -28.3772  -32.6924   25.0231 H   0  0  0  0  0  0
  -28.0779  -31.8441   26.5314 H   0  0  0  0  0  0
  -28.2630  -38.0081   24.7450 H   0  0  0  0  0  0
  -28.1025  -36.2612   24.6360 H   0  0  0  0  0  0
  -27.2293  -37.1571   25.8866 H   0  0  0  0  0  0
  -20.9253  -29.8745   21.7008 H   0  0  0  0  0  0
  -26.0203  -38.2883   24.1375 H   0  0  0  0  0  0
  -27.6959  -21.5604   20.1357 H   0  0  0  0  0  0
  -27.8094  -19.5481   21.5429 H   0  0  0  0  0  0
  -29.4268  -22.5626   16.6000 H   0  0  0  0  0  0
  -30.5257  -21.3553   17.2486 H   0  0  0  0  0  0
  -31.0142  -23.0484   17.1985 H   0  0  0  0  0  0
  -29.3404  -19.0639   23.7350 H   0  0  0  0  0  0
  -30.3039  -17.6182   24.0105 H   0  0  0  0  0  0
  -28.6209  -17.4656   23.5159 H   0  0  0  0  0  0
  -29.0393  -15.7036   21.1019 H   0  0  0  0  0  0
  -29.9447  -15.1991   22.5220 H   0  0  0  0  0  0
  -27.5997  -24.5471   18.4767 H   0  0  0  0  0  0
  -28.8634  -24.7284   17.3048 H   0  0  0  0  0  0
  -31.0713  -17.1352   20.4392 H   0  0  0  0  0  0
  -31.6901  -16.8607   22.0490 H   0  0  0  0  0  0
  -29.2457  -24.0104   20.2513 H   0  0  0  0  0  0
  -30.5782  -24.4014   19.1855 H   0  0  0  0  0  0
  -28.2120  -26.9331   17.8906 H   0  0  0  0  0  0
  -29.8149  -26.6721   18.4938 H   0  0  0  0  0  0
  1 25  1  0  0  0
  1 30  2  0  0  0
  1 80  1  0  0  0
  2  3  1  0  0  0
  2 25  1  0  0  0
  2 89  1  0  0  0
  2 90  1  0  0  0
  3  4  1  0  0  0
  3 91  1  0  0  0
  3 92  1  0  0  0
  4  5  1  0  0  0
  4 93  1  0  0  0
  4 94  1  0  0  0
  5  6  1  0  0  0
  5 26  1  0  0  0
  5 95  1  0  0  0
  6 25  1  0  0  0
  6 96  1  0  0  0
  6 97  1  0  0  0
  7  8  2  0  0  0
  7 26  1  0  0  0
  7 29  1  0  0  0
  8  9  1  0  0  0
  8 22  1  0  0  0
  9 10  1  0  0  0
  9 27  2  0  0  0
 10 11  2  0  0  0
 10 15  1  0  0  0
 11 12  1  0  0  0
 11 98  1  0  0  0
 12 13  2  0  0  0
 12 99  1  0  0  0
 13 14  1  0  0  0
 13 31  1  0  0  0
 14 15  2  0  0  0
 14100  1  0  0  0
 15101  1  0  0  0
 16 17  2  0  0  0
 16 21  1  0  0  0
 16 31  1  0  0  0
 17 18  1  0  0  0
 17102  1  0  0  0
 18 19  2  0  0  0
 18103  1  0  0  0
 19 20  1  0  0  0
 19 24  1  0  0  0
 20 21  2  0  0  0
 20104  1  0  0  0
 21 23  1  0  0  0
 22 28  1  0  0  0
 22 32  2  0  0  0
 26 27  1  0  0  0
 28105  1  0  0  0
 28106  1  0  0  0
 29107  1  0  0  0
 29108  1  0  0  0
 33 34  1  0  0  0
 33 66  1  0  0  0
 33 70  2  0  0  0
 34 36  1  0  0  0
 34 59  1  0  0  0
 34109  1  0  0  0
 35 44  2  0  0  0
 35 45  1  0  0  0
 35 68  1  0  0  0
 36 56  1  0  0  0
 36110  1  0  0  0
 37 39  1  0  0  0
 37 47  1  0  0  0
 37 66  1  0  0  0
 37111  1  0  0  0
 38 43  2  0  0  0
 38 46  1  0  0  0
 38 47  1  0  0  0
 39 64  1  0  0  0
 39 67  2  0  0  0
 40 52  1  0  0  0
 40 53  2  0  0  0
 40 58  1  0  0  0
 41112  1  0  0  0
 41113  1  0  0  0
 41114  1  0  0  0
 41 48  1  0  0  0
 42 43  1  0  0  0
 42 66  1  0  0  0
 42115  1  0  0  0
 42116  1  0  0  0
 43 44  1  0  0  0
 44117  1  0  0  0
 45 46  2  0  0  0
 45118  1  0  0  0
 46119  1  0  0  0
 47120  1  0  0  0
 47121  1  0  0  0
 48 56  1  0  0  0
 48 65  1  0  0  0
 48122  1  0  0  0
 49 50  1  0  0  0
 49 53  1  0  0  0
 49 64  1  0  0  0
 49123  1  0  0  0
 50 51  1  0  0  0
 50124  1  0  0  0
 50125  1  0  0  0
 51 52  1  0  0  0
 51126  1  0  0  0
 51127  1  0  0  0
 52128  1  0  0  0
 52129  1  0  0  0
 53 54  1  0  0  0
 54 55  2  0  0  0
 54130  1  0  0  0
 55 57  1  0  0  0
 55131  1  0  0  0
 56 69  2  0  0  0
 57 58  2  0  0  0
 57132  1  0  0  0
 58133  1  0  0  0
 59 60  1  0  0  0
 59 61  1  0  0  0
 59 62  1  0  0  0
 60134  1  0  0  0
 60135  1  0  0  0
 60136  1  0  0  0
 61137  1  0  0  0
 61138  1  0  0  0
 61139  1  0  0  0
 62140  1  0  0  0
 62141  1  0  0  0
 62142  1  0  0  0
 63 65  1  0  0  0
 63143  1  0  0  0
 63144  1  0  0  0
 63145  1  0  0  0
 64146  1  0  0  0
 65147  1  0  0  0
 68 84  1  0  0  0
 71 74  1  0  0  0
 71 85  3  0  0  0
 72 73  2  0  0  0
 72 75  1  0  0  0
 72148  1  0  0  0
 73 76  1  0  0  0
 73149  1  0  0  0
 74 75  2  0  0  0
 74 77  1  0  0  0
 75 86  1  0  0  0
 76 77  2  0  0  0
 76 87  1  0  0  0
 77 88  1  0  0  0
 78 86  1  0  0  0
 78150  1  0  0  0
 78151  1  0  0  0
 78152  1  0  0  0
 79 87  1  0  0  0
 79153  1  0  0  0
 79154  1  0  0  0
 79155  1  0  0  0
 80 82  1  0  0  0
 80156  1  0  0  0
 80157  1  0  0  0
 81 83  1  0  0  0
 81 84  1  0  0  0
 81158  1  0  0  0
 81159  1  0  0  0
 82 87  1  0  0  0
 82160  1  0  0  0
 82161  1  0  0  0
 83 86  1  0  0  0
 83162  1  0  0  0
 83163  1  0  0  0
 84164  1  0  0  0
 84165  1  0  0  0
M  ISO  4   1 100  68 101  80 100  84 101
M  END
> <chiral flag>
0

> <version>
0

> <s_m_source_file>
/data/baiqing/PycharmProjects/Reinvent-master-3.2/result/LINK_invent/BTK/process_docking_weight1_custom_product_contain_oxygen_bond_distance_aromatic_linkinvent_7_9_3/rearranged_h_0016.sdf

> <i_m_source_file_index>
93

> <r_mmod_Potential_Energy-OPLS-2005>
100.157218933105

> <r_mmod_Stretch_Energy-OPLS-2005>
36.4087829589844

> <r_mmod_Bend_Energy-OPLS-2005>
104.904457092285

> <r_mmod_Torsional_Energy-OPLS-2005>
223.713607788086

> <r_mmod_Improper_Torsional_Energy-OPLS-2005>
5.94154930114746

> <r_mmod_Van_der_Waal_Energy-OPLS-2005>
164.327163696289

> <r_mmod_Electrostatic_Energy-OPLS-2005>
-234.331817626953

> <r_mmod_Solvation_Energy-OPLS-2005>
-211.46728515625

> <b_mmod_Minimization_Converged-OPLS-2005>
0

> <r_mmod_RMS_Derivative-OPLS-2005>
4.34370565414429

$$$$
93
                    3D
 Structure written by MMmdl.
156165  0  0  1  0            999 V2000
  -30.5497  -14.7821   20.4519 C   0  0  0  0  0  0
  -30.4512  -12.4771   19.4671 C   0  0  0  0  0  0
  -29.5168  -12.5175   18.2348 C   0  0  0  0  0  0
  -28.0424  -12.3294   18.6487 C   0  0  0  0  0  0
  -27.6444  -13.2226   19.8529 C   0  0  2  0  0  0
  -28.6921  -13.1382   20.9851 C   0  0  0  0  0  0
  -25.2523  -13.8162   20.5686 C   0  0  0  0  0  0
  -24.1812  -13.0422   20.9211 C   0  0  0  0  0  0
  -24.6396  -11.6899   20.8750 C   0  0  0  0  0  0
  -23.9069  -10.4285   21.0413 C   0  0  0  0  0  0
  -24.3619   -9.4199   21.9189 C   0  0  0  0  0  0
  -23.6291   -8.2237   22.0756 C   0  0  0  0  0  0
  -22.4272   -8.0280   21.3548 C   0  0  0  0  0  0
  -21.9911   -9.0255   20.4650 C   0  0  0  0  0  0
  -22.7244  -10.2132   20.3060 C   0  0  0  0  0  0
  -21.6851   -6.0736   22.5281 C   0  0  0  0  0  0
  -21.4012   -6.5641   23.8214 C   0  0  0  0  0  0
  -21.3657   -5.6792   24.9175 C   0  0  0  0  0  0
  -21.6043   -4.3055   24.7225 C   0  0  0  0  0  0
  -21.8818   -3.8148   23.4346 C   0  0  0  0  0  0
  -21.9190   -4.6965   22.3402 C   0  0  0  0  0  0
  -22.7835  -13.5213   21.1867 C   0  0  0  0  0  0
  -22.1659   -4.2151   21.0978 F   0  0  0  0  0  0
  -21.5632   -3.4539   25.7738 F   0  0  0  0  0  0
  -29.9901  -13.5215   20.4096 N   0  0  0  0  0  0
  -26.2948  -12.9354   20.3280 N   0  0  0  0  0  0
  -25.9323  -11.6507   20.5748 N   0  0  0  0  0  0
  -22.0477  -12.8207   22.0424 N   0  0  0  0  0  0
  -25.4191  -15.1887   20.4079 N   0  0  0  0  0  0
  -31.7364  -14.9440   20.1486 O   0  0  0  0  0  0
  -21.6636   -6.8880   21.4243 O   0  0  0  0  0  0
  -22.3524  -14.5520   20.6712 O   0  0  0  0  0  0
  -24.6339  -31.8517   23.1948 C   0  0  0  0  0  0
  -25.9154  -32.4737   23.8303 C   0  0  1  0  0  0
  -27.2274  -27.2423   20.1355 C   0  0  0  0  0  0
  -25.5933  -33.8539   24.2223 N   0  0  0  0  0  0
  -23.4318  -30.4723   21.5387 C   0  0  2  0  0  0
  -24.8800  -28.9099   20.1135 C   0  0  0  0  0  0
  -22.7511  -29.4586   22.4901 C   0  0  0  0  0  0
  -18.0295  -28.1392   22.8489 C   0  0  0  0  0  0
  -24.1489  -36.7276   23.2641 C   0  0  0  0  0  0
  -25.9785  -30.7606   21.3753 C   0  0  0  0  0  0
  -26.0528  -29.3806   20.7177 C   0  0  0  0  0  0
  -27.2303  -28.5624   20.7080 C   0  0  0  0  0  0
  -26.0273  -26.8349   19.5159 C   0  0  0  0  0  0
  -24.8735  -27.6464   19.5006 C   0  0  0  0  0  0
  -23.6514  -29.8000   20.1573 C   0  0  0  0  0  0
  -25.4120  -36.3059   24.0318 C   0  0  1  0  0  0
  -20.5900  -28.3705   23.1269 C   0  0  2  0  0  0
  -20.6780  -26.9419   22.5412 C   0  0  0  0  0  0
  -19.5751  -26.6385   21.5219 C   0  0  0  0  0  0
  -18.1932  -26.7933   22.1630 C   0  0  0  0  0  0
  -19.1550  -28.8867   23.2870 C   0  0  0  0  0  0
  -18.9468  -30.1470   23.8883 C   0  0  0  0  0  0
  -17.6466  -30.6588   24.0569 C   0  0  0  0  0  0
  -25.9061  -34.9431   23.5076 C   0  0  0  0  0  0
  -16.5358  -29.9085   23.6338 C   0  0  0  0  0  0
  -16.7283  -28.6507   23.0353 C   0  0  0  0  0  0
  -26.4508  -31.6580   25.0714 C   0  0  0  0  0  0
  -25.3720  -31.3737   26.1428 C   0  0  0  0  0  0
  -27.0367  -30.2994   24.6228 C   0  0  0  0  0  0
  -27.6052  -32.4335   25.7491 C   0  0  0  0  0  0
  -27.5578  -37.1792   24.8462 C   0  0  0  0  0  0
  -21.4215  -29.3043   22.3648 N   0  0  0  0  0  0
  -26.4290  -37.3764   23.9408 N   0  0  0  0  0  0
  -24.7007  -31.0466   22.0929 N   0  0  0  0  0  0
  -23.4199  -28.8135   23.3019 O   0  0  0  0  0  0
  -28.3394  -26.3630   20.1640 O   0  0  0  0  0  0
  -26.5638  -34.8918   22.4649 O   0  0  0  0  0  0
  -23.5488  -32.1342   23.7240 O   0  0  0  0  0  0
  -28.3438  -19.3846   19.8152 C   0  0  0  0  0  0
  -28.5074  -17.9604   19.9085 C   0  0  0  0  0  0
  -30.6354  -18.2504   20.9277 C   0  0  0  0  0  0
  -29.2993  -20.3271   20.3006 C   0  0  0  0  0  0
  -29.6563  -17.3212   20.4627 C   0  0  0  0  0  0
  -30.4621  -19.6859   20.8597 C   0  0  0  0  0  0
  -28.1729  -23.9423   19.0682 C   0  0  0  0  0  0
  -29.3328  -24.1991   21.1774 C   0  0  0  0  0  0
  -28.0592  -22.3741   19.3373 C   0  0  0  0  0  0
  -29.2464  -22.6279   21.4245 C   0  0  0  0  0  0
  -28.1825  -24.8623   20.3399 C   0  0  0  0  0  0
  -29.1081  -21.7861   20.2106 N   0  0  0  0  0  0
  -29.6581  -15.8348   20.6374 N   0  0  0  0  0  0
  -31.4650  -20.4602   21.3431 F   0  0  0  0  0  0
  -31.4864  -12.6362   19.1599 H   0  0  0  0  0  0
  -30.4249  -11.4955   19.9430 H   0  0  0  0  0  0
  -29.8036  -11.7484   17.5166 H   0  0  0  0  0  0
  -29.6314  -13.4729   17.7202 H   0  0  0  0  0  0
  -27.9045  -11.2791   18.9076 H   0  0  0  0  0  0
  -27.3840  -12.5218   17.8008 H   0  0  0  0  0  0
  -27.6385  -14.2450   19.4756 H   0  0  0  0  0  0
  -28.7391  -12.1279   21.3941 H   0  0  0  0  0  0
  -28.4213  -13.7880   21.8191 H   0  0  0  0  0  0
  -25.2766   -9.5671   22.4760 H   0  0  0  0  0  0
  -24.0001   -7.4626   22.7474 H   0  0  0  0  0  0
  -21.0844   -8.8777   19.8950 H   0  0  0  0  0  0
  -22.3710  -10.9673   19.6169 H   0  0  0  0  0  0
  -21.2004   -7.6150   23.9720 H   0  0  0  0  0  0
  -21.1482   -6.0523   25.9079 H   0  0  0  0  0  0
  -22.0598   -2.7609   23.2850 H   0  0  0  0  0  0
  -22.4090  -11.9868   22.4810 H   0  0  0  0  0  0
  -21.1097  -13.1239   22.2630 H   0  0  0  0  0  0
  -24.6424  -15.8335   20.5071 H   0  0  0  0  0  0
  -26.2475  -15.6259   20.0291 H   0  0  0  0  0  0
  -26.7223  -32.5378   23.1045 H   0  0  0  0  0  0
  -25.0076  -33.9667   25.0366 H   0  0  0  0  0  0
  -22.7303  -31.2954   21.3883 H   0  0  0  0  0  0
  -23.3758  -35.9600   23.3296 H   0  0  0  0  0  0
  -24.3575  -36.8914   22.2056 H   0  0  0  0  0  0
  -23.7236  -37.6468   23.6683 H   0  0  0  0  0  0
  -26.1195  -31.5212   20.6059 H   0  0  0  0  0  0
  -26.8546  -30.8096   22.0105 H   0  0  0  0  0  0
  -28.1325  -28.9225   21.1828 H   0  0  0  0  0  0
  -25.9640  -25.8649   19.0479 H   0  0  0  0  0  0
  -23.9746  -27.2783   19.0249 H   0  0  0  0  0  0
  -23.7768  -30.5729   19.3980 H   0  0  0  0  0  0
  -22.7698  -29.2326   19.8542 H   0  0  0  0  0  0
  -25.1305  -36.1894   25.0809 H   0  0  0  0  0  0
  -20.9994  -28.3290   24.1390 H   0  0  0  0  0  0
  -20.5687  -26.2313   23.3617 H   0  0  0  0  0  0
  -21.6645  -26.7438   22.1205 H   0  0  0  0  0  0
  -19.6912  -25.6295   21.1250 H   0  0  0  0  0  0
  -19.6690  -27.3195   20.6750 H   0  0  0  0  0  0
  -17.4201  -26.6695   21.4029 H   0  0  0  0  0  0
  -18.0323  -26.0073   22.9026 H   0  0  0  0  0  0
  -19.7942  -30.7297   24.2236 H   0  0  0  0  0  0
  -17.5016  -31.6266   24.5178 H   0  0  0  0  0  0
  -15.5357  -30.2981   23.7665 H   0  0  0  0  0  0
  -15.8686  -28.0824   22.7065 H   0  0  0  0  0  0
  -24.5896  -30.7090   25.7748 H   0  0  0  0  0  0
  -24.8916  -32.2912   26.4837 H   0  0  0  0  0  0
  -25.8023  -30.8917   27.0217 H   0  0  0  0  0  0
  -26.2963  -29.6728   24.1243 H   0  0  0  0  0  0
  -27.4028  -29.7273   25.4764 H   0  0  0  0  0  0
  -27.8847  -30.4261   23.9494 H   0  0  0  0  0  0
  -27.2648  -33.3644   26.2038 H   0  0  0  0  0  0
  -28.3874  -32.6881   25.0328 H   0  0  0  0  0  0
  -28.0710  -31.8484   26.5431 H   0  0  0  0  0  0
  -28.2586  -38.0099   24.7521 H   0  0  0  0  0  0
  -28.1083  -36.2630   24.6278 H   0  0  0  0  0  0
  -27.2294  -37.1424   25.8863 H   0  0  0  0  0  0
  -20.9404  -29.8751   21.6838 H   0  0  0  0  0  0
  -26.0163  -38.2830   24.1427 H   0  0  0  0  0  0
  -27.4285  -19.7454   19.3710 H   0  0  0  0  0  0
  -27.7001  -17.3452   19.5384 H   0  0  0  0  0  0
  -31.5355  -17.8695   21.3860 H   0  0  0  0  0  0
  -27.3535  -24.2377   18.4141 H   0  0  0  0  0  0
  -29.0800  -24.1299   18.4922 H   0  0  0  0  0  0
  -30.2846  -24.4173   20.6914 H   0  0  0  0  0  0
  -29.3852  -24.6958   22.1468 H   0  0  0  0  0  0
  -28.0744  -21.8574   18.3767 H   0  0  0  0  0  0
  -27.0836  -22.1619   19.7780 H   0  0  0  0  0  0
  -28.3936  -22.4222   22.0735 H   0  0  0  0  0  0
  -30.1268  -22.3187   21.9875 H   0  0  0  0  0  0
  -27.2519  -24.6954   20.8844 H   0  0  0  0  0  0
  -28.7336  -15.4613   20.7865 H   0  0  0  0  0  0
  1 25  1  0  0  0
  1 30  2  0  0  0
  1 83  1  0  0  0
  2  3  1  0  0  0
  2 25  1  0  0  0
  2 85  1  0  0  0
  2 86  1  0  0  0
  3  4  1  0  0  0
  3 87  1  0  0  0
  3 88  1  0  0  0
  4  5  1  0  0  0
  4 89  1  0  0  0
  4 90  1  0  0  0
  5  6  1  0  0  0
  5 26  1  0  0  0
  5 91  1  0  0  0
  6 25  1  0  0  0
  6 92  1  0  0  0
  6 93  1  0  0  0
  7  8  2  0  0  0
  7 26  1  0  0  0
  7 29  1  0  0  0
  8  9  1  0  0  0
  8 22  1  0  0  0
  9 10  1  0  0  0
  9 27  2  0  0  0
 10 11  2  0  0  0
 10 15  1  0  0  0
 11 12  1  0  0  0
 11 94  1  0  0  0
 12 13  2  0  0  0
 12 95  1  0  0  0
 13 14  1  0  0  0
 13 31  1  0  0  0
 14 15  2  0  0  0
 14 96  1  0  0  0
 15 97  1  0  0  0
 16 17  2  0  0  0
 16 21  1  0  0  0
 16 31  1  0  0  0
 17 18  1  0  0  0
 17 98  1  0  0  0
 18 19  2  0  0  0
 18 99  1  0  0  0
 19 20  1  0  0  0
 19 24  1  0  0  0
 20 21  2  0  0  0
 20100  1  0  0  0
 21 23  1  0  0  0
 22 28  1  0  0  0
 22 32  2  0  0  0
 26 27  1  0  0  0
 28101  1  0  0  0
 28102  1  0  0  0
 29103  1  0  0  0
 29104  1  0  0  0
 33 34  1  0  0  0
 33 66  1  0  0  0
 33 70  2  0  0  0
 34 36  1  0  0  0
 34 59  1  0  0  0
 34105  1  0  0  0
 35 44  2  0  0  0
 35 45  1  0  0  0
 35 68  1  0  0  0
 36 56  1  0  0  0
 36106  1  0  0  0
 37 39  1  0  0  0
 37 47  1  0  0  0
 37 66  1  0  0  0
 37107  1  0  0  0
 38 43  2  0  0  0
 38 46  1  0  0  0
 38 47  1  0  0  0
 39 64  1  0  0  0
 39 67  2  0  0  0
 40 52  1  0  0  0
 40 53  2  0  0  0
 40 58  1  0  0  0
 41108  1  0  0  0
 41109  1  0  0  0
 41110  1  0  0  0
 41 48  1  0  0  0
 42 43  1  0  0  0
 42 66  1  0  0  0
 42111  1  0  0  0
 42112  1  0  0  0
 43 44  1  0  0  0
 44113  1  0  0  0
 45 46  2  0  0  0
 45114  1  0  0  0
 46115  1  0  0  0
 47116  1  0  0  0
 47117  1  0  0  0
 48 56  1  0  0  0
 48 65  1  0  0  0
 48118  1  0  0  0
 49 50  1  0  0  0
 49 53  1  0  0  0
 49 64  1  0  0  0
 49119  1  0  0  0
 50 51  1  0  0  0
 50120  1  0  0  0
 50121  1  0  0  0
 51 52  1  0  0  0
 51122  1  0  0  0
 51123  1  0  0  0
 52124  1  0  0  0
 52125  1  0  0  0
 53 54  1  0  0  0
 54 55  2  0  0  0
 54126  1  0  0  0
 55 57  1  0  0  0
 55127  1  0  0  0
 56 69  2  0  0  0
 57 58  2  0  0  0
 57128  1  0  0  0
 58129  1  0  0  0
 59 60  1  0  0  0
 59 61  1  0  0  0
 59 62  1  0  0  0
 60130  1  0  0  0
 60131  1  0  0  0
 60132  1  0  0  0
 61133  1  0  0  0
 61134  1  0  0  0
 61135  1  0  0  0
 62136  1  0  0  0
 62137  1  0  0  0
 62138  1  0  0  0
 63 65  1  0  0  0
 63139  1  0  0  0
 63140  1  0  0  0
 63141  1  0  0  0
 64142  1  0  0  0
 65143  1  0  0  0
 68 81  1  0  0  0
 71 72  2  0  0  0
 71 74  1  0  0  0
 71144  1  0  0  0
 72 75  1  0  0  0
 72145  1  0  0  0
 73 75  2  0  0  0
 73 76  1  0  0  0
 73146  1  0  0  0
 74 76  2  0  0  0
 74 82  1  0  0  0
 75 83  1  0  0  0
 76 84  1  0  0  0
 77 79  1  0  0  0
 77 81  1  0  0  0
 77147  1  0  0  0
 77148  1  0  0  0
 78 80  1  0  0  0
 78 81  1  0  0  0
 78149  1  0  0  0
 78150  1  0  0  0
 79 82  1  0  0  0
 79151  1  0  0  0
 79152  1  0  0  0
 80 82  1  0  0  0
 80153  1  0  0  0
 80154  1  0  0  0
 81155  1  0  0  0
 83156  1  0  0  0
M  ISO  4   1 100  68 101  81 101  83 100
M  END
> <chiral flag>
0

> <version>
0

> <s_m_source_file>
/data/baiqing/PycharmProjects/Reinvent-master-3.2/result/LINK_invent/BTK/process_docking_weight1_custom_product_contain_oxygen_bond_distance_aromatic_linkinvent_7_9_3/rearranged_h_0016.sdf

> <i_m_source_file_index>
94

> <r_mmod_Potential_Energy-OPLS-2005>
254.181579589844

> <r_mmod_Stretch_Energy-OPLS-2005>
125.977783203125

> <r_mmod_Bend_Energy-OPLS-2005>
190.887908935547

> <r_mmod_Torsional_Energy-OPLS-2005>
258.732482910156

> <r_mmod_Improper_Torsional_Energy-OPLS-2005>
9.17599487304688

> <r_mmod_Van_der_Waal_Energy-OPLS-2005>
136.813186645508

> <r_mmod_Electrostatic_Energy-OPLS-2005>
-338.643615722656

> <r_mmod_Solvation_Energy-OPLS-2005>
-226.951202392578

> <b_mmod_Minimization_Converged-OPLS-2005>
0

> <r_mmod_RMS_Derivative-OPLS-2005>
0.569487690925598

$$$$
94
                    3D
 Structure written by MMmdl.
168177  0  0  1  0            999 V2000
  -30.7348  -14.5880   20.4984 C   0  0  0  0  0  0
  -30.4124  -12.3713   19.4410 C   0  0  0  0  0  0
  -29.4874  -12.4911   18.2142 C   0  0  0  0  0  0
  -28.0179  -12.2967   18.6347 C   0  0  0  0  0  0
  -27.6391  -13.1750   19.8531 C   0  0  2  0  0  0
  -28.7025  -13.0839   20.9817 C   0  0  0  0  0  0
  -25.2529  -13.8025   20.5691 C   0  0  0  0  0  0
  -24.1789  -13.0346   20.9232 C   0  0  0  0  0  0
  -24.6336  -11.6809   20.8798 C   0  0  0  0  0  0
  -23.9005  -10.4231   21.0450 C   0  0  0  0  0  0
  -24.3566   -9.4151   21.9212 C   0  0  0  0  0  0
  -23.6253   -8.2184   22.0762 C   0  0  0  0  0  0
  -22.4236   -8.0230   21.3547 C   0  0  0  0  0  0
  -21.9876   -9.0202   20.4646 C   0  0  0  0  0  0
  -22.7197  -10.2086   20.3075 C   0  0  0  0  0  0
  -21.6822   -6.0708   22.5281 C   0  0  0  0  0  0
  -21.4007   -6.5617   23.8214 C   0  0  0  0  0  0
  -21.3666   -5.6782   24.9180 C   0  0  0  0  0  0
  -21.6041   -4.3042   24.7237 C   0  0  0  0  0  0
  -21.8816   -3.8126   23.4357 C   0  0  0  0  0  0
  -21.9186   -4.6943   22.3411 C   0  0  0  0  0  0
  -22.7829  -13.5188   21.1882 C   0  0  0  0  0  0
  -22.1647   -4.2123   21.0993 F   0  0  0  0  0  0
  -21.5642   -3.4534   25.7758 F   0  0  0  0  0  0
  -30.0073  -13.4259   20.3952 N   0  0  0  0  0  0
  -26.2919  -12.9118   20.3342 N   0  0  0  0  0  0
  -25.9239  -11.6322   20.5811 N   0  0  0  0  0  0
  -22.0455  -12.8193   22.0434 N   0  0  0  0  0  0
  -25.4217  -15.1741   20.4060 N   0  0  0  0  0  0
  -31.9222  -14.5914   20.1657 O   0  0  0  0  0  0
  -21.6602   -6.8832   21.4230 O   0  0  0  0  0  0
  -22.3542  -14.5515   20.6735 O   0  0  0  0  0  0
  -24.6173  -31.8651   23.2127 C   0  0  0  0  0  0
  -25.9073  -32.4806   23.8386 C   0  0  1  0  0  0
  -27.2256  -27.3940   20.1022 C   0  0  0  0  0  0
  -25.5933  -33.8602   24.2308 N   0  0  0  0  0  0
  -23.4051  -30.4945   21.5528 C   0  0  2  0  0  0
  -24.8524  -28.9649   20.1084 C   0  0  0  0  0  0
  -22.7410  -29.4646   22.4962 C   0  0  0  0  0  0
  -18.0261  -28.1370   22.8458 C   0  0  0  0  0  0
  -24.1507  -36.7302   23.2633 C   0  0  0  0  0  0
  -25.9421  -30.8193   21.3751 C   0  0  0  0  0  0
  -26.0173  -29.4553   20.7138 C   0  0  0  0  0  0
  -27.2038  -28.6782   20.7082 C   0  0  0  0  0  0
  -26.0422  -26.9484   19.4610 C   0  0  0  0  0  0
  -24.8634  -27.7128   19.4765 C   0  0  0  0  0  0
  -23.6178  -29.8368   20.1626 C   0  0  0  0  0  0
  -25.4114  -36.3094   24.0330 C   0  0  1  0  0  0
  -20.5863  -28.3650   23.1300 C   0  0  2  0  0  0
  -20.6778  -26.9384   22.5406 C   0  0  0  0  0  0
  -19.5767  -26.6360   21.5202 C   0  0  0  0  0  0
  -18.1922  -26.7901   22.1592 C   0  0  0  0  0  0
  -19.1520  -28.8817   23.2867 C   0  0  0  0  0  0
  -18.9452  -30.1426   23.8875 C   0  0  0  0  0  0
  -17.6463  -30.6579   24.0555 C   0  0  0  0  0  0
  -25.9051  -34.9464   23.5106 C   0  0  0  0  0  0
  -16.5346  -29.9083   23.6341 C   0  0  0  0  0  0
  -16.7245  -28.6503   23.0335 C   0  0  0  0  0  0
  -26.4506  -31.6613   25.0729 C   0  0  0  0  0  0
  -25.3782  -31.3716   26.1490 C   0  0  0  0  0  0
  -27.0360  -30.3063   24.6118 C   0  0  0  0  0  0
  -27.6064  -32.4355   25.7495 C   0  0  0  0  0  0
  -27.5581  -37.1793   24.8450 C   0  0  0  0  0  0
  -21.4133  -29.3027   22.3716 N   0  0  0  0  0  0
  -26.4288  -37.3781   23.9409 N   0  0  0  0  0  0
  -24.6737  -31.0726   22.1057 N   0  0  0  0  0  0
  -23.4180  -28.8142   23.2965 O   0  0  0  0  0  0
  -28.3656  -26.5977   20.1728 O   0  0  0  0  0  0
  -26.5601  -34.8919   22.4662 O   0  0  0  0  0  0
  -23.5366  -32.1423   23.7524 O   0  0  0  0  0  0
  -29.0023  -22.8065   20.4783 C   0  0  0  0  0  0
  -30.8100  -22.3908   22.0452 C   0  0  0  0  0  0
  -30.1898  -24.6921   21.4689 C   0  0  0  0  0  0
  -29.8074  -21.8736   21.1909 C   0  0  0  0  0  0
  -29.1704  -24.2132   20.6220 C   0  0  0  0  0  0
  -31.0033  -23.7830   22.1745 C   0  0  0  0  0  0
  -30.4790  -18.1020   21.9711 C   0  0  0  0  0  0
  -29.0571  -18.5840   25.3576 C   0  0  0  0  0  0
  -29.9844  -17.8881   23.2072 C   0  0  0  0  0  0
  -29.5928  -18.9013   24.1684 C   0  0  0  0  0  0
  -31.3159  -17.7505   19.7054 C   0  0  0  0  0  0
  -31.4977  -19.2253   20.0933 C   0  0  0  0  0  0
  -31.0063  -17.0155   21.0213 C   0  0  2  0  0  0
  -28.7637  -16.1660   20.5172 C   0  0  0  0  0  0
  -29.5228  -20.3513   21.1090 C   0  0  0  0  0  0
  -28.1974  -25.1744   19.9220 C   0  0  0  0  0  0
  -30.1496  -15.7950   20.8364 N   0  0  0  0  0  0
  -30.7063  -19.4519   21.3221 N   0  3  1  0  0  0
  -31.9682  -24.2519   23.0002 F   0  0  0  0  0  0
  -31.4548  -12.4513   19.1295 H   0  0  0  0  0  0
  -30.3193  -11.3859   19.9008 H   0  0  0  0  0  0
  -29.7644  -11.7559   17.4569 H   0  0  0  0  0  0
  -29.6095  -13.4715   17.7507 H   0  0  0  0  0  0
  -27.8788  -11.2435   18.8756 H   0  0  0  0  0  0
  -27.3546  -12.5040   17.7941 H   0  0  0  0  0  0
  -27.6095  -14.1708   19.4381 H   0  0  0  0  0  0
  -28.7343  -12.0711   21.3844 H   0  0  0  0  0  0
  -28.4635  -13.7152   21.8361 H   0  0  0  0  0  0
  -25.2702   -9.5613   22.4803 H   0  0  0  0  0  0
  -23.9949   -7.4564   22.7474 H   0  0  0  0  0  0
  -21.0815   -8.8716   19.8943 H   0  0  0  0  0  0
  -22.3660  -10.9630   19.6187 H   0  0  0  0  0  0
  -21.1989   -7.6130   23.9708 H   0  0  0  0  0  0
  -21.1502   -6.0522   25.9087 H   0  0  0  0  0  0
  -22.0596   -2.7591   23.2874 H   0  0  0  0  0  0
  -22.4041  -11.9829   22.4805 H   0  0  0  0  0  0
  -21.1083  -13.1239   22.2640 H   0  0  0  0  0  0
  -24.6527  -15.8248   20.5243 H   0  0  0  0  0  0
  -26.2751  -15.6189   20.0963 H   0  0  0  0  0  0
  -26.7127  -32.5533   23.1129 H   0  0  0  0  0  0
  -25.0103  -33.9733   25.0465 H   0  0  0  0  0  0
  -22.6959  -31.3150   21.4162 H   0  0  0  0  0  0
  -23.3764  -35.9651   23.3298 H   0  0  0  0  0  0
  -24.3587  -36.8941   22.2048 H   0  0  0  0  0  0
  -23.7265  -37.6492   23.6674 H   0  0  0  0  0  0
  -26.0622  -31.5894   20.6129 H   0  0  0  0  0  0
  -26.8276  -30.8639   21.9984 H   0  0  0  0  0  0
  -28.0964  -29.0418   21.2002 H   0  0  0  0  0  0
  -25.9970  -26.0015   18.9443 H   0  0  0  0  0  0
  -23.9711  -27.3345   18.9975 H   0  0  0  0  0  0
  -23.7320  -30.6240   19.4148 H   0  0  0  0  0  0
  -22.7406  -29.2660   19.8543 H   0  0  0  0  0  0
  -25.1295  -36.1941   25.0823 H   0  0  0  0  0  0
  -20.9913  -28.3237   24.1438 H   0  0  0  0  0  0
  -20.5721  -26.2234   23.3579 H   0  0  0  0  0  0
  -21.6640  -26.7459   22.1181 H   0  0  0  0  0  0
  -19.6967  -25.6272   21.1242 H   0  0  0  0  0  0
  -19.6764  -27.3173   20.6742 H   0  0  0  0  0  0
  -17.4202  -26.6622   21.3991 H   0  0  0  0  0  0
  -18.0326  -26.0047   22.8996 H   0  0  0  0  0  0
  -19.7941  -30.7207   24.2267 H   0  0  0  0  0  0
  -17.5042  -31.6281   24.5117 H   0  0  0  0  0  0
  -15.5352  -30.2983   23.7709 H   0  0  0  0  0  0
  -15.8628  -28.0845   22.7051 H   0  0  0  0  0  0
  -24.5930  -30.7087   25.7834 H   0  0  0  0  0  0
  -24.9007  -32.2888   26.4969 H   0  0  0  0  0  0
  -25.8146  -30.8853   27.0226 H   0  0  0  0  0  0
  -26.2916  -29.6797   24.1201 H   0  0  0  0  0  0
  -27.4149  -29.7309   25.4569 H   0  0  0  0  0  0
  -27.8749  -30.4358   23.9271 H   0  0  0  0  0  0
  -27.2645  -33.3638   26.2071 H   0  0  0  0  0  0
  -28.3880  -32.6950   25.0348 H   0  0  0  0  0  0
  -28.0735  -31.8489   26.5421 H   0  0  0  0  0  0
  -28.2561  -38.0123   24.7517 H   0  0  0  0  0  0
  -28.1106  -36.2634   24.6264 H   0  0  0  0  0  0
  -27.2278  -37.1432   25.8846 H   0  0  0  0  0  0
  -20.9281  -29.8777   21.6977 H   0  0  0  0  0  0
  -26.0181  -38.2851   24.1460 H   0  0  0  0  0  0
  -28.2074  -22.4454   19.8384 H   0  0  0  0  0  0
  -31.4365  -21.7386   22.6351 H   0  0  0  0  0  0
  -30.3359  -25.7530   21.6036 H   0  0  0  0  0  0
  -28.7740  -19.3487   26.0665 H   0  0  0  0  0  0
  -28.8907  -17.5551   25.6456 H   0  0  0  0  0  0
  -29.9193  -16.8560   23.5227 H   0  0  0  0  0  0
  -29.7373  -19.9496   23.9479 H   0  0  0  0  0  0
  -32.1895  -17.3436   19.1949 H   0  0  0  0  0  0
  -30.4775  -17.6680   19.0139 H   0  0  0  0  0  0
  -31.2345  -19.9016   19.2789 H   0  0  0  0  0  0
  -32.5442  -19.4114   20.3345 H   0  0  0  0  0  0
  -31.9531  -16.7133   21.4749 H   0  0  0  0  0  0
  -28.5470  -17.2252   20.6421 H   0  0  0  0  0  0
  -28.0364  -15.6603   21.1441 H   0  0  0  0  0  0
  -28.5739  -15.9847   19.4601 H   0  0  0  0  0  0
  -29.0539  -20.1128   20.1534 H   0  0  0  0  0  0
  -28.7594  -20.1345   21.8549 H   0  0  0  0  0  0
  -27.2201  -24.8359   20.2719 H   0  0  0  0  0  0
  -28.2389  -24.9946   18.8458 H   0  0  0  0  0  0
  -31.3075  -19.9822   21.9314 H   0  0  0  0  0  0
  1 25  1  0  0  0
  1 30  2  0  0  0
  1 87  1  0  0  0
  2  3  1  0  0  0
  2 25  1  0  0  0
  2 90  1  0  0  0
  2 91  1  0  0  0
  3  4  1  0  0  0
  3 92  1  0  0  0
  3 93  1  0  0  0
  4  5  1  0  0  0
  4 94  1  0  0  0
  4 95  1  0  0  0
  5  6  1  0  0  0
  5 26  1  0  0  0
  5 96  1  0  0  0
  6 25  1  0  0  0
  6 97  1  0  0  0
  6 98  1  0  0  0
  7  8  2  0  0  0
  7 26  1  0  0  0
  7 29  1  0  0  0
  8  9  1  0  0  0
  8 22  1  0  0  0
  9 10  1  0  0  0
  9 27  2  0  0  0
 10 11  2  0  0  0
 10 15  1  0  0  0
 11 12  1  0  0  0
 11 99  1  0  0  0
 12 13  2  0  0  0
 12100  1  0  0  0
 13 14  1  0  0  0
 13 31  1  0  0  0
 14 15  2  0  0  0
 14101  1  0  0  0
 15102  1  0  0  0
 16 17  2  0  0  0
 16 21  1  0  0  0
 16 31  1  0  0  0
 17 18  1  0  0  0
 17103  1  0  0  0
 18 19  2  0  0  0
 18104  1  0  0  0
 19 20  1  0  0  0
 19 24  1  0  0  0
 20 21  2  0  0  0
 20105  1  0  0  0
 21 23  1  0  0  0
 22 28  1  0  0  0
 22 32  2  0  0  0
 26 27  1  0  0  0
 28106  1  0  0  0
 28107  1  0  0  0
 29108  1  0  0  0
 29109  1  0  0  0
 33 34  1  0  0  0
 33 66  1  0  0  0
 33 70  2  0  0  0
 34 36  1  0  0  0
 34 59  1  0  0  0
 34110  1  0  0  0
 35 44  2  0  0  0
 35 45  1  0  0  0
 35 68  1  0  0  0
 36 56  1  0  0  0
 36111  1  0  0  0
 37 39  1  0  0  0
 37 47  1  0  0  0
 37 66  1  0  0  0
 37112  1  0  0  0
 38 43  2  0  0  0
 38 46  1  0  0  0
 38 47  1  0  0  0
 39 64  1  0  0  0
 39 67  2  0  0  0
 40 52  1  0  0  0
 40 53  2  0  0  0
 40 58  1  0  0  0
 41113  1  0  0  0
 41114  1  0  0  0
 41115  1  0  0  0
 41 48  1  0  0  0
 42 43  1  0  0  0
 42 66  1  0  0  0
 42116  1  0  0  0
 42117  1  0  0  0
 43 44  1  0  0  0
 44118  1  0  0  0
 45 46  2  0  0  0
 45119  1  0  0  0
 46120  1  0  0  0
 47121  1  0  0  0
 47122  1  0  0  0
 48 56  1  0  0  0
 48 65  1  0  0  0
 48123  1  0  0  0
 49 50  1  0  0  0
 49 53  1  0  0  0
 49 64  1  0  0  0
 49124  1  0  0  0
 50 51  1  0  0  0
 50125  1  0  0  0
 50126  1  0  0  0
 51 52  1  0  0  0
 51127  1  0  0  0
 51128  1  0  0  0
 52129  1  0  0  0
 52130  1  0  0  0
 53 54  1  0  0  0
 54 55  2  0  0  0
 54131  1  0  0  0
 55 57  1  0  0  0
 55132  1  0  0  0
 56 69  2  0  0  0
 57 58  2  0  0  0
 57133  1  0  0  0
 58134  1  0  0  0
 59 60  1  0  0  0
 59 61  1  0  0  0
 59 62  1  0  0  0
 60135  1  0  0  0
 60136  1  0  0  0
 60137  1  0  0  0
 61138  1  0  0  0
 61139  1  0  0  0
 61140  1  0  0  0
 62141  1  0  0  0
 62142  1  0  0  0
 62143  1  0  0  0
 63 65  1  0  0  0
 63144  1  0  0  0
 63145  1  0  0  0
 63146  1  0  0  0
 64147  1  0  0  0
 65148  1  0  0  0
 68 86  1  0  0  0
 71 74  2  0  0  0
 71 75  1  0  0  0
 71149  1  0  0  0
 72 74  1  0  0  0
 72 76  2  0  0  0
 72150  1  0  0  0
 73 75  2  0  0  0
 73 76  1  0  0  0
 73151  1  0  0  0
 74 85  1  0  0  0
 75 86  1  0  0  0
 76 89  1  0  0  0
 77 79  2  0  0  0
 77 83  1  0  0  0
 77 88  1  0  0  0
 78 80  2  0  0  0
 78152  1  0  0  0
 78153  1  0  0  0
 79 80  1  0  0  0
 79154  1  0  0  0
 80155  1  0  0  0
 81 82  1  0  0  0
 81 83  1  0  0  0
 81156  1  0  0  0
 81157  1  0  0  0
 82 88  1  0  0  0
 82158  1  0  0  0
 82159  1  0  0  0
 83 87  1  0  0  0
 83160  1  0  0  0
 84 87  1  0  0  0
 84161  1  0  0  0
 84162  1  0  0  0
 84163  1  0  0  0
 85164  1  0  0  0
 85165  1  0  0  0
 85 88  1  0  0  0
 86166  1  0  0  0
 86167  1  0  0  0
 88168  1  0  0  0
M  CHG  1  88   1
M  ISO  4   1 100  68 101  86 101  87 100
M  END
> <chiral flag>
0

> <version>
0

> <s_m_source_file>
/data/baiqing/PycharmProjects/Reinvent-master-3.2/result/LINK_invent/BTK/process_docking_weight1_custom_product_contain_oxygen_bond_distance_aromatic_linkinvent_7_9_3/rearranged_h_0016.sdf

> <i_m_source_file_index>
95

> <r_mmod_Potential_Energy-OPLS-2005>
81.9192352294922

> <r_mmod_Stretch_Energy-OPLS-2005>
57.4461250305176

> <r_mmod_Bend_Energy-OPLS-2005>
154.163833618164

> <r_mmod_Torsional_Energy-OPLS-2005>
296.641967773438

> <r_mmod_Improper_Torsional_Energy-OPLS-2005>
4.72567749023438

> <r_mmod_Van_der_Waal_Energy-OPLS-2005>
165.53825378418

> <r_mmod_Electrostatic_Energy-OPLS-2005>
-196.521682739258

> <r_mmod_Solvation_Energy-OPLS-2005>
-436.81689453125

> <b_mmod_Minimization_Converged-OPLS-2005>
0

> <r_mmod_RMS_Derivative-OPLS-2005>
2.89677119255066

$$$$
