0
                    3D
 Structure written by MMmdl.
155163  0  0  1  0            999 V2000
  -30.7134  -14.4893   20.5655 C   0  0  0  0  0  0
  -30.4180  -12.3161   19.4304 C   0  0  0  0  0  0
  -29.4942  -12.5016   18.2099 C   0  0  0  0  0  0
  -28.0165  -12.3594   18.6232 C   0  0  0  0  0  0
  -27.6587  -13.2109   19.8709 C   0  0  2  0  0  0
  -28.7011  -13.0196   20.9966 C   0  0  0  0  0  0
  -25.2578  -13.8168   20.5683 C   0  0  0  0  0  0
  -24.1836  -13.0442   20.9189 C   0  0  0  0  0  0
  -24.6394  -11.6909   20.8740 C   0  0  0  0  0  0
  -23.9061  -10.4294   21.0407 C   0  0  0  0  0  0
  -24.3614   -9.4210   21.9185 C   0  0  0  0  0  0
  -23.6291   -8.2244   22.0754 C   0  0  0  0  0  0
  -22.4273   -8.0282   21.3545 C   0  0  0  0  0  0
  -21.9908   -9.0255   20.4647 C   0  0  0  0  0  0
  -22.7234  -10.2136   20.3056 C   0  0  0  0  0  0
  -21.6854   -6.0736   22.5281 C   0  0  0  0  0  0
  -21.4013   -6.5640   23.8214 C   0  0  0  0  0  0
  -21.3658   -5.6792   24.9175 C   0  0  0  0  0  0
  -21.6044   -4.3055   24.7226 C   0  0  0  0  0  0
  -21.8819   -3.8147   23.4348 C   0  0  0  0  0  0
  -21.9193   -4.6964   22.3404 C   0  0  0  0  0  0
  -22.7859  -13.5242   21.1847 C   0  0  0  0  0  0
  -22.1663   -4.2150   21.0982 F   0  0  0  0  0  0
  -21.5628   -3.4539   25.7738 F   0  0  0  0  0  0
  -30.0298  -13.3176   20.4385 N   0  0  0  0  0  0
  -26.3012  -12.9345   20.3352 N   0  0  0  0  0  0
  -25.9322  -11.6502   20.5768 N   0  0  0  0  0  0
  -22.0494  -12.8234   22.0398 N   0  0  0  0  0  0
  -25.4296  -15.1886   20.4075 N   0  0  0  0  0  0
  -31.8439  -14.6362   20.0935 O   0  0  0  0  0  0
  -21.6639   -6.8878   21.4242 O   0  0  0  0  0  0
  -22.3550  -14.5551   20.6697 O   0  0  0  0  0  0
  -24.6160  -31.8668   23.2091 C   0  0  0  0  0  0
  -25.9046  -32.4816   23.8393 C   0  0  1  0  0  0
  -27.2303  -27.4242   20.1019 C   0  0  0  0  0  0
  -25.5897  -33.8614   24.2324 N   0  0  0  0  0  0
  -23.4054  -30.4905   21.5491 C   0  0  2  0  0  0
  -24.8538  -28.9578   20.1107 C   0  0  0  0  0  0
  -22.7424  -29.4651   22.4973 C   0  0  0  0  0  0
  -18.0275  -28.1378   22.8491 C   0  0  0  0  0  0
  -24.1485  -36.7312   23.2638 C   0  0  0  0  0  0
  -25.9357  -30.8312   21.3631 C   0  0  0  0  0  0
  -26.0155  -29.4658   20.7078 C   0  0  0  0  0  0
  -27.2113  -28.7077   20.6980 C   0  0  0  0  0  0
  -26.0568  -26.9378   19.4886 C   0  0  0  0  0  0
  -24.8703  -27.6944   19.4948 C   0  0  0  0  0  0
  -23.6150  -29.8242   20.1632 C   0  0  0  0  0  0
  -25.4105  -36.3107   24.0338 C   0  0  1  0  0  0
  -20.5869  -28.3665   23.1312 C   0  0  2  0  0  0
  -20.6763  -26.9399   22.5415 C   0  0  0  0  0  0
  -19.5741  -26.6387   21.5211 C   0  0  0  0  0  0
  -18.1921  -26.7926   22.1624 C   0  0  0  0  0  0
  -19.1526  -28.8838   23.2899 C   0  0  0  0  0  0
  -18.9452  -30.1445   23.8908 C   0  0  0  0  0  0
  -17.6452  -30.6582   24.0566 C   0  0  0  0  0  0
  -25.9032  -34.9471   23.5128 C   0  0  0  0  0  0
  -16.5343  -29.9083   23.6329 C   0  0  0  0  0  0
  -16.7264  -28.6503   23.0347 C   0  0  0  0  0  0
  -26.4472  -31.6594   25.0721 C   0  0  0  0  0  0
  -25.3741  -31.3698   26.1472 C   0  0  0  0  0  0
  -27.0299  -30.3035   24.6092 C   0  0  0  0  0  0
  -27.6050  -32.4310   25.7483 C   0  0  0  0  0  0
  -27.5579  -37.1810   24.8465 C   0  0  0  0  0  0
  -21.4149  -29.3031   22.3717 N   0  0  0  0  0  0
  -26.4291  -37.3791   23.9410 N   0  0  0  0  0  0
  -24.6708  -31.0765   22.0991 N   0  0  0  0  0  0
  -23.4193  -28.8188   23.3013 O   0  0  0  0  0  0
  -28.3508  -26.6214   20.1384 O   0  0  0  0  0  0
  -26.5596  -34.8922   22.4691 O   0  0  0  0  0  0
  -23.5349  -32.1415   23.7481 O   0  0  0  0  0  0
  -32.1820  -18.6015   21.5652 C   0  0  0  0  0  0
  -31.2181  -19.6262   21.5174 C   0  0  0  0  0  0
  -31.8001  -17.2539   21.4259 C   0  0  0  0  0  0
  -29.4780  -17.9467   21.1737 C   0  0  0  0  0  0
  -29.8554  -19.3128   21.3277 C   0  0  0  0  0  0
  -30.4434  -16.9016   21.2143 C   0  0  0  0  0  0
  -28.8533  -20.4007   21.3696 C   0  0  0  0  0  0
  -28.8076  -24.1648   20.4753 C   0  0  0  0  0  0
  -28.2174  -22.8419   21.0142 C   0  0  0  0  0  0
  -28.1623  -25.4713   20.9971 C   0  0  0  0  0  0
  -30.0237  -15.5293   21.0913 N   0  0  0  0  0  0
  -29.0937  -21.6400   20.8874 N   0  0  0  0  0  0
  -27.6782  -20.1655   21.9510 N   0  3  0  0  0  0
  -29.7644  -24.1618   19.6907 O   0  0  0  0  0  0
  -31.4634  -12.4028   19.1289 H   0  0  0  0  0  0
  -30.3121  -11.3111   19.8418 H   0  0  0  0  0  0
  -29.7378  -11.7704   17.4379 H   0  0  0  0  0  0
  -29.6607  -13.4837   17.7643 H   0  0  0  0  0  0
  -27.8329  -11.3046   18.8310 H   0  0  0  0  0  0
  -27.3644  -12.6209   17.7891 H   0  0  0  0  0  0
  -27.6949  -14.2544   19.5574 H   0  0  0  0  0  0
  -28.6803  -11.9927   21.3643 H   0  0  0  0  0  0
  -28.4622  -13.6435   21.8589 H   0  0  0  0  0  0
  -25.2761   -9.5686   22.4758 H   0  0  0  0  0  0
  -24.0002   -7.4636   22.7472 H   0  0  0  0  0  0
  -21.0841   -8.8772   19.8954 H   0  0  0  0  0  0
  -22.3693  -10.9673   19.6163 H   0  0  0  0  0  0
  -21.2004   -7.6147   23.9716 H   0  0  0  0  0  0
  -21.1479   -6.0523   25.9078 H   0  0  0  0  0  0
  -22.0599   -2.7609   23.2848 H   0  0  0  0  0  0
  -22.4101  -11.9891   22.4785 H   0  0  0  0  0  0
  -21.1112  -13.1263   22.2600 H   0  0  0  0  0  0
  -24.6576  -15.8396   20.5011 H   0  0  0  0  0  0
  -26.2712  -15.6223   20.0504 H   0  0  0  0  0  0
  -26.7119  -32.5529   23.1160 H   0  0  0  0  0  0
  -25.0055  -33.9774   25.0474 H   0  0  0  0  0  0
  -22.6947  -31.3079   21.4102 H   0  0  0  0  0  0
  -23.3741  -35.9653   23.3310 H   0  0  0  0  0  0
  -24.3579  -36.8915   22.2050 H   0  0  0  0  0  0
  -23.7243  -37.6523   23.6645 H   0  0  0  0  0  0
  -26.0488  -31.5982   20.5955 H   0  0  0  0  0  0
  -26.8233  -30.8844   21.9820 H   0  0  0  0  0  0
  -28.1061  -29.0902   21.1689 H   0  0  0  0  0  0
  -26.0560  -25.9648   19.0172 H   0  0  0  0  0  0
  -23.9785  -27.2991   19.0279 H   0  0  0  0  0  0
  -23.7229  -30.5999   19.4042 H   0  0  0  0  0  0
  -22.7390  -29.2442   19.8669 H   0  0  0  0  0  0
  -25.1281  -36.1975   25.0832 H   0  0  0  0  0  0
  -20.9966  -28.3230   24.1430 H   0  0  0  0  0  0
  -20.5663  -26.2270   23.3600 H   0  0  0  0  0  0
  -21.6633  -26.7439   22.1210 H   0  0  0  0  0  0
  -19.6898  -25.6302   21.1228 H   0  0  0  0  0  0
  -19.6679  -27.3209   20.6750 H   0  0  0  0  0  0
  -17.4192  -26.6677   21.4025 H   0  0  0  0  0  0
  -18.0320  -26.0064   22.9018 H   0  0  0  0  0  0
  -19.7927  -30.7262   24.2280 H   0  0  0  0  0  0
  -17.5007  -31.6263   24.5166 H   0  0  0  0  0  0
  -15.5344  -30.2987   23.7646 H   0  0  0  0  0  0
  -15.8665  -28.0828   22.7050 H   0  0  0  0  0  0
  -24.5910  -30.7048   25.7813 H   0  0  0  0  0  0
  -24.8935  -32.2852   26.4937 H   0  0  0  0  0  0
  -25.8099  -30.8858   27.0221 H   0  0  0  0  0  0
  -26.2840  -29.6800   24.1149 H   0  0  0  0  0  0
  -27.4072  -29.7267   25.4546 H   0  0  0  0  0  0
  -27.8675  -30.4354   23.9238 H   0  0  0  0  0  0
  -27.2676  -33.3600   26.2091 H   0  0  0  0  0  0
  -28.3847  -32.6883   25.0302 H   0  0  0  0  0  0
  -28.0733  -31.8413   26.5373 H   0  0  0  0  0  0
  -28.2605  -38.0101   24.7510 H   0  0  0  0  0  0
  -28.1067  -36.2632   24.6293 H   0  0  0  0  0  0
  -27.2299  -37.1470   25.8870 H   0  0  0  0  0  0
  -20.9308  -29.8758   21.6943 H   0  0  0  0  0  0
  -26.0179  -38.2870   24.1408 H   0  0  0  0  0  0
  -33.2221  -18.8470   21.7281 H   0  0  0  0  0  0
  -31.5317  -20.6518   21.6586 H   0  0  0  0  0  0
  -32.5716  -16.5020   21.5002 H   0  0  0  0  0  0
  -28.4358  -17.6989   21.0286 H   0  0  0  0  0  0
  -27.2778  -22.6598   20.4916 H   0  0  0  0  0  0
  -27.9689  -22.9931   22.0655 H   0  0  0  0  0  0
  -28.5970  -25.6973   21.9706 H   0  0  0  0  0  0
  -27.1050  -25.2717   21.1758 H   0  0  0  0  0  0
  -29.0666  -15.3254   21.3333 H   0  0  0  0  0  0
  -29.9575  -21.7983   20.3795 H   0  0  0  0  0  0
  -27.5254  -19.2734   22.3966 H   0  0  0  0  0  0
  -26.9394  -20.8458   21.9841 H   0  0  0  0  0  0
  1 25  1  0  0  0
  1 30  2  0  0  0
  1 81  1  0  0  0
  2  3  1  0  0  0
  2 25  1  0  0  0
  2 85  1  0  0  0
  2 86  1  0  0  0
  3  4  1  0  0  0
  3 87  1  0  0  0
  3 88  1  0  0  0
  4  5  1  0  0  0
  4 89  1  0  0  0
  4 90  1  0  0  0
  5  6  1  0  0  0
  5 26  1  0  0  0
  5 91  1  0  0  0
  6 25  1  0  0  0
  6 92  1  0  0  0
  6 93  1  0  0  0
  7  8  2  0  0  0
  7 26  1  0  0  0
  7 29  1  0  0  0
  8  9  1  0  0  0
  8 22  1  0  0  0
  9 10  1  0  0  0
  9 27  2  0  0  0
 10 11  2  0  0  0
 10 15  1  0  0  0
 11 12  1  0  0  0
 11 94  1  0  0  0
 12 13  2  0  0  0
 12 95  1  0  0  0
 13 14  1  0  0  0
 13 31  1  0  0  0
 14 15  2  0  0  0
 14 96  1  0  0  0
 15 97  1  0  0  0
 16 17  2  0  0  0
 16 21  1  0  0  0
 16 31  1  0  0  0
 17 18  1  0  0  0
 17 98  1  0  0  0
 18 19  2  0  0  0
 18 99  1  0  0  0
 19 20  1  0  0  0
 19 24  1  0  0  0
 20 21  2  0  0  0
 20100  1  0  0  0
 21 23  1  0  0  0
 22 28  1  0  0  0
 22 32  2  0  0  0
 26 27  1  0  0  0
 28101  1  0  0  0
 28102  1  0  0  0
 29103  1  0  0  0
 29104  1  0  0  0
 33 34  1  0  0  0
 33 66  1  0  0  0
 33 70  2  0  0  0
 34 36  1  0  0  0
 34 59  1  0  0  0
 34105  1  0  0  0
 35 44  2  0  0  0
 35 45  1  0  0  0
 35 68  1  0  0  0
 36 56  1  0  0  0
 36106  1  0  0  0
 37 39  1  0  0  0
 37 47  1  0  0  0
 37 66  1  0  0  0
 37107  1  0  0  0
 38 43  2  0  0  0
 38 46  1  0  0  0
 38 47  1  0  0  0
 39 64  1  0  0  0
 39 67  2  0  0  0
 40 52  1  0  0  0
 40 53  2  0  0  0
 40 58  1  0  0  0
 41108  1  0  0  0
 41109  1  0  0  0
 41110  1  0  0  0
 41 48  1  0  0  0
 42 43  1  0  0  0
 42 66  1  0  0  0
 42111  1  0  0  0
 42112  1  0  0  0
 43 44  1  0  0  0
 44113  1  0  0  0
 45 46  2  0  0  0
 45114  1  0  0  0
 46115  1  0  0  0
 47116  1  0  0  0
 47117  1  0  0  0
 48 56  1  0  0  0
 48 65  1  0  0  0
 48118  1  0  0  0
 49 50  1  0  0  0
 49 53  1  0  0  0
 49 64  1  0  0  0
 49119  1  0  0  0
 50 51  1  0  0  0
 50120  1  0  0  0
 50121  1  0  0  0
 51 52  1  0  0  0
 51122  1  0  0  0
 51123  1  0  0  0
 52124  1  0  0  0
 52125  1  0  0  0
 53 54  1  0  0  0
 54 55  2  0  0  0
 54126  1  0  0  0
 55 57  1  0  0  0
 55127  1  0  0  0
 56 69  2  0  0  0
 57 58  2  0  0  0
 57128  1  0  0  0
 58129  1  0  0  0
 59 60  1  0  0  0
 59 61  1  0  0  0
 59 62  1  0  0  0
 60130  1  0  0  0
 60131  1  0  0  0
 60132  1  0  0  0
 61133  1  0  0  0
 61134  1  0  0  0
 61135  1  0  0  0
 62136  1  0  0  0
 62137  1  0  0  0
 62138  1  0  0  0
 63 65  1  0  0  0
 63139  1  0  0  0
 63140  1  0  0  0
 63141  1  0  0  0
 64142  1  0  0  0
 65143  1  0  0  0
 68 80  1  0  0  0
 71 72  2  0  0  0
 71 73  1  0  0  0
 71144  1  0  0  0
 72 75  1  0  0  0
 72145  1  0  0  0
 73 76  2  0  0  0
 73146  1  0  0  0
 74 75  2  0  0  0
 74 76  1  0  0  0
 74147  1  0  0  0
 75 77  1  0  0  0
 76 81  1  0  0  0
 77 82  1  0  0  0
 77 83  2  0  0  0
 78 79  1  0  0  0
 78 80  1  0  0  0
 78 84  2  0  0  0
 79 82  1  0  0  0
 79148  1  0  0  0
 79149  1  0  0  0
 80150  1  0  0  0
 80151  1  0  0  0
 81152  1  0  0  0
 82153  1  0  0  0
 83154  1  0  0  0
 83155  1  0  0  0
M  CHG  1  83   1
M  ISO  4   1 100  68 101  80 101  81 100
M  END
> <chiral flag>
0

> <version>
0

> <s_m_source_file>
/data/baiqing/PycharmProjects/Reinvent-master-3.2/result/LINK_invent/BTK/process_docking_weight1_custom_product_contain_oxygen_bond_distance_aromatic_linkinvent_7_9_3/rearranged_h_0166.sdf

> <i_m_source_file_index>
1

> <r_mmod_Potential_Energy-OPLS-2005>
-318.435882568359

> <r_mmod_Stretch_Energy-OPLS-2005>
42.6956825256348

> <r_mmod_Bend_Energy-OPLS-2005>
94.7338104248047

> <r_mmod_Torsional_Energy-OPLS-2005>
233.518249511719

> <r_mmod_Improper_Torsional_Energy-OPLS-2005>
4.15099143981934

> <r_mmod_Van_der_Waal_Energy-OPLS-2005>
156.131591796875

> <r_mmod_Electrostatic_Energy-OPLS-2005>
-417.137176513672

> <r_mmod_Solvation_Energy-OPLS-2005>
-449.292572021484

> <b_mmod_Minimization_Converged-OPLS-2005>
0

> <r_mmod_RMS_Derivative-OPLS-2005>
0.422327429056168

$$$$
1
                    3D
 Structure written by MMmdl.
156164  0  0  1  0            999 V2000
  -30.6850  -14.5596   20.5309 C   0  0  0  0  0  0
  -30.4184  -12.3502   19.4436 C   0  0  0  0  0  0
  -29.4962  -12.4982   18.2159 C   0  0  0  0  0  0
  -28.0197  -12.3490   18.6294 C   0  0  0  0  0  0
  -27.6514  -13.2178   19.8624 C   0  0  2  0  0  0
  -28.6941  -13.0679   20.9932 C   0  0  0  0  0  0
  -25.2548  -13.8185   20.5675 C   0  0  0  0  0  0
  -24.1823  -13.0446   20.9193 C   0  0  0  0  0  0
  -24.6395  -11.6915   20.8751 C   0  0  0  0  0  0
  -23.9075  -10.4295   21.0415 C   0  0  0  0  0  0
  -24.3625   -9.4207   21.9190 C   0  0  0  0  0  0
  -23.6298   -8.2243   22.0757 C   0  0  0  0  0  0
  -22.4276   -8.0288   21.3550 C   0  0  0  0  0  0
  -21.9918   -9.0261   20.4648 C   0  0  0  0  0  0
  -22.7249  -10.2138   20.3063 C   0  0  0  0  0  0
  -21.6853   -6.0746   22.5283 C   0  0  0  0  0  0
  -21.4009   -6.5648   23.8216 C   0  0  0  0  0  0
  -21.3655   -5.6798   24.9177 C   0  0  0  0  0  0
  -21.6041   -4.3062   24.7225 C   0  0  0  0  0  0
  -21.8821   -3.8156   23.4346 C   0  0  0  0  0  0
  -21.9189   -4.6975   22.3404 C   0  0  0  0  0  0
  -22.7843  -13.5236   21.1858 C   0  0  0  0  0  0
  -22.1660   -4.2159   21.0983 F   0  0  0  0  0  0
  -21.5626   -3.4545   25.7739 F   0  0  0  0  0  0
  -30.0130  -13.3760   20.4242 N   0  0  0  0  0  0
  -26.2974  -12.9367   20.3320 N   0  0  0  0  0  0
  -25.9321  -11.6518   20.5769 N   0  0  0  0  0  0
  -22.0487  -12.8221   22.0412 N   0  0  0  0  0  0
  -25.4266  -15.1902   20.4055 N   0  0  0  0  0  0
  -31.8417  -14.6691   20.1167 O   0  0  0  0  0  0
  -21.6637   -6.8885   21.4244 O   0  0  0  0  0  0
  -22.3526  -14.5545   20.6709 O   0  0  0  0  0  0
  -24.6207  -31.8628   23.2048 C   0  0  0  0  0  0
  -25.9077  -32.4798   23.8366 C   0  0  1  0  0  0
  -27.2316  -27.3739   20.0998 C   0  0  0  0  0  0
  -25.5914  -33.8599   24.2295 N   0  0  0  0  0  0
  -23.4110  -30.4849   21.5462 C   0  0  2  0  0  0
  -24.8569  -28.9443   20.1102 C   0  0  0  0  0  0
  -22.7437  -29.4628   22.4955 C   0  0  0  0  0  0
  -18.0271  -28.1382   22.8483 C   0  0  0  0  0  0
  -24.1484  -36.7310   23.2638 C   0  0  0  0  0  0
  -25.9448  -30.8087   21.3670 C   0  0  0  0  0  0
  -26.0188  -29.4383   20.7140 C   0  0  0  0  0  0
  -27.2038  -28.6578   20.7101 C   0  0  0  0  0  0
  -26.0471  -26.9105   19.4835 C   0  0  0  0  0  0
  -24.8693  -27.6818   19.4935 C   0  0  0  0  0  0
  -23.6211  -29.8164   20.1611 C   0  0  0  0  0  0
  -25.4108  -36.3103   24.0332 C   0  0  1  0  0  0
  -20.5865  -28.3673   23.1305 C   0  0  2  0  0  0
  -20.6756  -26.9404   22.5414 C   0  0  0  0  0  0
  -19.5738  -26.6372   21.5217 C   0  0  0  0  0  0
  -18.1915  -26.7926   22.1614 C   0  0  0  0  0  0
  -19.1523  -28.8842   23.2890 C   0  0  0  0  0  0
  -18.9452  -30.1441   23.8908 C   0  0  0  0  0  0
  -17.6457  -30.6586   24.0565 C   0  0  0  0  0  0
  -25.9047  -34.9467   23.5115 C   0  0  0  0  0  0
  -16.5347  -29.9086   23.6336 C   0  0  0  0  0  0
  -16.7263  -28.6508   23.0351 C   0  0  0  0  0  0
  -26.4487  -31.6598   25.0725 C   0  0  0  0  0  0
  -25.3738  -31.3723   26.1471 C   0  0  0  0  0  0
  -27.0334  -30.3037   24.6135 C   0  0  0  0  0  0
  -27.6056  -32.4331   25.7489 C   0  0  0  0  0  0
  -27.5580  -37.1803   24.8466 C   0  0  0  0  0  0
  -21.4155  -29.3037   22.3715 N   0  0  0  0  0  0
  -26.4297  -37.3788   23.9406 N   0  0  0  0  0  0
  -24.6778  -31.0678   22.0974 N   0  0  0  0  0  0
  -23.4191  -28.8169   23.3016 O   0  0  0  0  0  0
  -28.3914  -26.6064   20.1533 O   0  0  0  0  0  0
  -26.5607  -34.8918   22.4676 O   0  0  0  0  0  0
  -23.5379  -32.1404   23.7401 O   0  0  0  0  0  0
  -32.2200  -18.5755   21.7345 C   0  0  0  0  0  0
  -31.7537  -17.2698   21.5112 C   0  0  0  0  0  0
  -29.5581  -18.1602   20.9466 C   0  0  0  0  0  0
  -31.3723  -19.6868   21.5718 C   0  0  0  0  0  0
  -30.4229  -17.0227   21.0998 C   0  0  0  0  0  0
  -30.0253  -19.5006   21.1674 C   0  0  0  0  0  0
  -28.7371  -23.0591   20.7571 C   0  0  0  0  0  0
  -29.0714  -21.6127   20.1924 C   0  0  0  0  0  0
  -31.9326  -21.0699   21.8731 C   0  0  0  0  0  0
  -27.8600  -24.0401   19.9270 C   0  0  0  0  0  0
  -28.5220  -25.3666   19.4005 C   0  0  0  0  0  0
  -29.1659  -20.6615   21.1580 N   0  0  0  0  0  0
  -29.9627  -15.6547   20.9157 N   0  0  0  0  0  0
  -29.1511  -23.4079   21.8690 O   0  0  0  0  0  0
  -29.2158  -21.3867   18.9867 O   0  0  0  0  0  0
  -31.4634  -12.4423   19.1433 H   0  0  0  0  0  0
  -30.3226  -11.3539   19.8781 H   0  0  0  0  0  0
  -29.7497  -11.7529   17.4608 H   0  0  0  0  0  0
  -29.6525  -13.4725   17.7495 H   0  0  0  0  0  0
  -27.8467  -11.2956   18.8543 H   0  0  0  0  0  0
  -27.3669  -12.5903   17.7898 H   0  0  0  0  0  0
  -27.6741  -14.2544   19.5260 H   0  0  0  0  0  0
  -28.6875  -12.0517   21.3899 H   0  0  0  0  0  0
  -28.4535  -13.7188   21.8348 H   0  0  0  0  0  0
  -25.2770   -9.5681   22.4764 H   0  0  0  0  0  0
  -24.0007   -7.4635   22.7476 H   0  0  0  0  0  0
  -21.0853   -8.8787   19.8950 H   0  0  0  0  0  0
  -22.3718  -10.9682   19.6175 H   0  0  0  0  0  0
  -21.2003   -7.6155   23.9725 H   0  0  0  0  0  0
  -21.1470   -6.0527   25.9080 H   0  0  0  0  0  0
  -22.0601   -2.7617   23.2846 H   0  0  0  0  0  0
  -22.4093  -11.9873   22.4790 H   0  0  0  0  0  0
  -21.1108  -13.1248   22.2627 H   0  0  0  0  0  0
  -24.6578  -15.8446   20.5041 H   0  0  0  0  0  0
  -26.2716  -15.6249   20.0578 H   0  0  0  0  0  0
  -26.7155  -32.5481   23.1122 H   0  0  0  0  0  0
  -25.0098  -33.9765   25.0461 H   0  0  0  0  0  0
  -22.7042  -31.3046   21.4029 H   0  0  0  0  0  0
  -23.3747  -35.9642   23.3314 H   0  0  0  0  0  0
  -24.3582  -36.8921   22.2053 H   0  0  0  0  0  0
  -23.7232  -37.6510   23.6656 H   0  0  0  0  0  0
  -26.0652  -31.5721   20.5970 H   0  0  0  0  0  0
  -26.8296  -30.8615   21.9898 H   0  0  0  0  0  0
  -28.0979  -29.0309   21.1902 H   0  0  0  0  0  0
  -26.0076  -25.9441   19.0037 H   0  0  0  0  0  0
  -23.9746  -27.2951   19.0255 H   0  0  0  0  0  0
  -23.7312  -30.5912   19.4023 H   0  0  0  0  0  0
  -22.7437  -29.2387   19.8640 H   0  0  0  0  0  0
  -25.1280  -36.1974   25.0825 H   0  0  0  0  0  0
  -20.9947  -28.3244   24.1427 H   0  0  0  0  0  0
  -20.5663  -26.2280   23.3604 H   0  0  0  0  0  0
  -21.6623  -26.7434   22.1203 H   0  0  0  0  0  0
  -19.6911  -25.6288   21.1239 H   0  0  0  0  0  0
  -19.6697  -27.3184   20.6757 H   0  0  0  0  0  0
  -17.4185  -26.6681   21.4020 H   0  0  0  0  0  0
  -18.0310  -26.0064   22.9006 H   0  0  0  0  0  0
  -19.7938  -30.7241   24.2283 H   0  0  0  0  0  0
  -17.5019  -31.6275   24.5151 H   0  0  0  0  0  0
  -15.5350  -30.2986   23.7656 H   0  0  0  0  0  0
  -15.8663  -28.0833   22.7058 H   0  0  0  0  0  0
  -24.5910  -30.7076   25.7800 H   0  0  0  0  0  0
  -24.8939  -32.2890   26.4912 H   0  0  0  0  0  0
  -25.8075  -30.8893   27.0237 H   0  0  0  0  0  0
  -26.2896  -29.6779   24.1192 H   0  0  0  0  0  0
  -27.4106  -29.7298   25.4607 H   0  0  0  0  0  0
  -27.8723  -30.4351   23.9296 H   0  0  0  0  0  0
  -27.2679  -33.3637   26.2057 H   0  0  0  0  0  0
  -28.3863  -32.6875   25.0313 H   0  0  0  0  0  0
  -28.0721  -31.8467   26.5410 H   0  0  0  0  0  0
  -28.2592  -38.0100   24.7512 H   0  0  0  0  0  0
  -28.1077  -36.2633   24.6294 H   0  0  0  0  0  0
  -27.2308  -37.1457   25.8871 H   0  0  0  0  0  0
  -20.9321  -29.8798   21.6967 H   0  0  0  0  0  0
  -26.0196  -38.2871   24.1397 H   0  0  0  0  0  0
  -33.2422  -18.7140   22.0589 H   0  0  0  0  0  0
  -32.4453  -16.4585   21.6851 H   0  0  0  0  0  0
  -28.5236  -18.0053   20.6735 H   0  0  0  0  0  0
  -32.9722  -21.0204   22.1976 H   0  0  0  0  0  0
  -31.3637  -21.5527   22.6681 H   0  0  0  0  0  0
  -31.8970  -21.7040   20.9873 H   0  0  0  0  0  0
  -26.9619  -24.2702   20.4992 H   0  0  0  0  0  0
  -27.5167  -23.4748   19.0611 H   0  0  0  0  0  0
  -28.1833  -25.5516   18.3806 H   0  0  0  0  0  0
  -29.5927  -25.1908   19.2903 H   0  0  0  0  0  0
  -28.9588  -21.0479   22.0706 H   0  0  0  0  0  0
  -28.9782  -15.4873   21.0585 H   0  0  0  0  0  0
  1 25  1  0  0  0
  1 30  2  0  0  0
  1 83  1  0  0  0
  2  3  1  0  0  0
  2 25  1  0  0  0
  2 86  1  0  0  0
  2 87  1  0  0  0
  3  4  1  0  0  0
  3 88  1  0  0  0
  3 89  1  0  0  0
  4  5  1  0  0  0
  4 90  1  0  0  0
  4 91  1  0  0  0
  5  6  1  0  0  0
  5 26  1  0  0  0
  5 92  1  0  0  0
  6 25  1  0  0  0
  6 93  1  0  0  0
  6 94  1  0  0  0
  7  8  2  0  0  0
  7 26  1  0  0  0
  7 29  1  0  0  0
  8  9  1  0  0  0
  8 22  1  0  0  0
  9 10  1  0  0  0
  9 27  2  0  0  0
 10 11  2  0  0  0
 10 15  1  0  0  0
 11 12  1  0  0  0
 11 95  1  0  0  0
 12 13  2  0  0  0
 12 96  1  0  0  0
 13 14  1  0  0  0
 13 31  1  0  0  0
 14 15  2  0  0  0
 14 97  1  0  0  0
 15 98  1  0  0  0
 16 17  2  0  0  0
 16 21  1  0  0  0
 16 31  1  0  0  0
 17 18  1  0  0  0
 17 99  1  0  0  0
 18 19  2  0  0  0
 18100  1  0  0  0
 19 20  1  0  0  0
 19 24  1  0  0  0
 20 21  2  0  0  0
 20101  1  0  0  0
 21 23  1  0  0  0
 22 28  1  0  0  0
 22 32  2  0  0  0
 26 27  1  0  0  0
 28102  1  0  0  0
 28103  1  0  0  0
 29104  1  0  0  0
 29105  1  0  0  0
 33 34  1  0  0  0
 33 66  1  0  0  0
 33 70  2  0  0  0
 34 36  1  0  0  0
 34 59  1  0  0  0
 34106  1  0  0  0
 35 44  2  0  0  0
 35 45  1  0  0  0
 35 68  1  0  0  0
 36 56  1  0  0  0
 36107  1  0  0  0
 37 39  1  0  0  0
 37 47  1  0  0  0
 37 66  1  0  0  0
 37108  1  0  0  0
 38 43  2  0  0  0
 38 46  1  0  0  0
 38 47  1  0  0  0
 39 64  1  0  0  0
 39 67  2  0  0  0
 40 52  1  0  0  0
 40 53  2  0  0  0
 40 58  1  0  0  0
 41109  1  0  0  0
 41110  1  0  0  0
 41111  1  0  0  0
 41 48  1  0  0  0
 42 43  1  0  0  0
 42 66  1  0  0  0
 42112  1  0  0  0
 42113  1  0  0  0
 43 44  1  0  0  0
 44114  1  0  0  0
 45 46  2  0  0  0
 45115  1  0  0  0
 46116  1  0  0  0
 47117  1  0  0  0
 47118  1  0  0  0
 48 56  1  0  0  0
 48 65  1  0  0  0
 48119  1  0  0  0
 49 50  1  0  0  0
 49 53  1  0  0  0
 49 64  1  0  0  0
 49120  1  0  0  0
 50 51  1  0  0  0
 50121  1  0  0  0
 50122  1  0  0  0
 51 52  1  0  0  0
 51123  1  0  0  0
 51124  1  0  0  0
 52125  1  0  0  0
 52126  1  0  0  0
 53 54  1  0  0  0
 54 55  2  0  0  0
 54127  1  0  0  0
 55 57  1  0  0  0
 55128  1  0  0  0
 56 69  2  0  0  0
 57 58  2  0  0  0
 57129  1  0  0  0
 58130  1  0  0  0
 59 60  1  0  0  0
 59 61  1  0  0  0
 59 62  1  0  0  0
 60131  1  0  0  0
 60132  1  0  0  0
 60133  1  0  0  0
 61134  1  0  0  0
 61135  1  0  0  0
 61136  1  0  0  0
 62137  1  0  0  0
 62138  1  0  0  0
 62139  1  0  0  0
 63 65  1  0  0  0
 63140  1  0  0  0
 63141  1  0  0  0
 63142  1  0  0  0
 64143  1  0  0  0
 65144  1  0  0  0
 68 81  1  0  0  0
 71 72  2  0  0  0
 71 74  1  0  0  0
 71145  1  0  0  0
 72 75  1  0  0  0
 72146  1  0  0  0
 73 75  2  0  0  0
 73 76  1  0  0  0
 73147  1  0  0  0
 74 76  2  0  0  0
 74 79  1  0  0  0
 75 83  1  0  0  0
 76 82  1  0  0  0
 77 78  1  0  0  0
 77 80  1  0  0  0
 77 84  2  0  0  0
 78 82  1  0  0  0
 78 85  2  0  0  0
 79148  1  0  0  0
 79149  1  0  0  0
 79150  1  0  0  0
 80 81  1  0  0  0
 80151  1  0  0  0
 80152  1  0  0  0
 81153  1  0  0  0
 81154  1  0  0  0
 82155  1  0  0  0
 83156  1  0  0  0
M  ISO  4   1 100  68 101  81 101  83 100
M  END
> <chiral flag>
0

> <version>
0

> <s_m_source_file>
/data/baiqing/PycharmProjects/Reinvent-master-3.2/result/LINK_invent/BTK/process_docking_weight1_custom_product_contain_oxygen_bond_distance_aromatic_linkinvent_7_9_3/rearranged_h_0166.sdf

> <i_m_source_file_index>
2

> <r_mmod_Potential_Energy-OPLS-2005>
7.31900072097778

> <r_mmod_Stretch_Energy-OPLS-2005>
60.3812370300293

> <r_mmod_Bend_Energy-OPLS-2005>
127.310150146484

> <r_mmod_Torsional_Energy-OPLS-2005>
254.57958984375

> <r_mmod_Improper_Torsional_Energy-OPLS-2005>
7.36513471603394

> <r_mmod_Van_der_Waal_Energy-OPLS-2005>
148.932189941406

> <r_mmod_Electrostatic_Energy-OPLS-2005>
-381.363616943359

> <r_mmod_Solvation_Energy-OPLS-2005>
-237.516235351562

> <b_mmod_Minimization_Converged-OPLS-2005>
0

> <r_mmod_RMS_Derivative-OPLS-2005>
1.16825640201569

$$$$
2
                    3D
 Structure written by MMmdl.
175183  0  0  1  0            999 V2000
  -30.7312  -14.4999   20.5491 C   0  0  0  0  0  0
  -30.4080  -12.3224   19.4331 C   0  0  0  0  0  0
  -29.4875  -12.4949   18.2092 C   0  0  0  0  0  0
  -28.0115  -12.3566   18.6249 C   0  0  0  0  0  0
  -27.6535  -13.2185   19.8661 C   0  0  2  0  0  0
  -28.6983  -13.0553   20.9934 C   0  0  0  0  0  0
  -25.2554  -13.8188   20.5686 C   0  0  0  0  0  0
  -24.1823  -13.0446   20.9185 C   0  0  0  0  0  0
  -24.6397  -11.6923   20.8747 C   0  0  0  0  0  0
  -23.9074  -10.4305   21.0415 C   0  0  0  0  0  0
  -24.3626   -9.4215   21.9191 C   0  0  0  0  0  0
  -23.6298   -8.2254   22.0755 C   0  0  0  0  0  0
  -22.4279   -8.0293   21.3547 C   0  0  0  0  0  0
  -21.9926   -9.0265   20.4647 C   0  0  0  0  0  0
  -22.7253  -10.2145   20.3062 C   0  0  0  0  0  0
  -21.6856   -6.0753   22.5282 C   0  0  0  0  0  0
  -21.4013   -6.5652   23.8218 C   0  0  0  0  0  0
  -21.3655   -5.6799   24.9173 C   0  0  0  0  0  0
  -21.6041   -4.3062   24.7218 C   0  0  0  0  0  0
  -21.8820   -3.8161   23.4338 C   0  0  0  0  0  0
  -21.9188   -4.6982   22.3397 C   0  0  0  0  0  0
  -22.7847  -13.5240   21.1835 C   0  0  0  0  0  0
  -22.1661   -4.2169   21.0975 F   0  0  0  0  0  0
  -21.5625   -3.4541   25.7729 F   0  0  0  0  0  0
  -30.0222  -13.3428   20.4242 N   0  0  0  0  0  0
  -26.2992  -12.9379   20.3360 N   0  0  0  0  0  0
  -25.9326  -11.6529   20.5785 N   0  0  0  0  0  0
  -22.0494  -12.8231   22.0391 N   0  0  0  0  0  0
  -25.4279  -15.1904   20.4115 N   0  0  0  0  0  0
  -31.8739  -14.6063   20.1005 O   0  0  0  0  0  0
  -21.6642   -6.8895   21.4244 O   0  0  0  0  0  0
  -22.3538  -14.5545   20.6679 O   0  0  0  0  0  0
  -24.6185  -31.8680   23.2115 C   0  0  0  0  0  0
  -25.9083  -32.4821   23.8403 C   0  0  1  0  0  0
  -27.2194  -27.4078   20.1059 C   0  0  0  0  0  0
  -25.5923  -33.8615   24.2334 N   0  0  0  0  0  0
  -23.4064  -30.4923   21.5534 C   0  0  2  0  0  0
  -24.8518  -28.9576   20.1139 C   0  0  0  0  0  0
  -22.7443  -29.4644   22.4997 C   0  0  0  0  0  0
  -18.0275  -28.1370   22.8495 C   0  0  0  0  0  0
  -24.1489  -36.7303   23.2635 C   0  0  0  0  0  0
  -25.9369  -30.8216   21.3724 C   0  0  0  0  0  0
  -26.0118  -29.4515   20.7274 C   0  0  0  0  0  0
  -27.1997  -28.6787   20.7354 C   0  0  0  0  0  0
  -26.0570  -26.9541   19.4551 C   0  0  0  0  0  0
  -24.8686  -27.7054   19.4766 C   0  0  0  0  0  0
  -23.6161  -29.8287   20.1659 C   0  0  0  0  0  0
  -25.4112  -36.3112   24.0330 C   0  0  1  0  0  0
  -20.5873  -28.3665   23.1310 C   0  0  2  0  0  0
  -20.6775  -26.9401   22.5413 C   0  0  0  0  0  0
  -19.5743  -26.6384   21.5211 C   0  0  0  0  0  0
  -18.1924  -26.7916   22.1628 C   0  0  0  0  0  0
  -19.1524  -28.8837   23.2901 C   0  0  0  0  0  0
  -18.9454  -30.1455   23.8904 C   0  0  0  0  0  0
  -17.6452  -30.6590   24.0563 C   0  0  0  0  0  0
  -25.9041  -34.9476   23.5128 C   0  0  0  0  0  0
  -16.5344  -29.9085   23.6327 C   0  0  0  0  0  0
  -16.7261  -28.6499   23.0345 C   0  0  0  0  0  0
  -26.4493  -31.6602   25.0740 C   0  0  0  0  0  0
  -25.3740  -31.3706   26.1475 C   0  0  0  0  0  0
  -27.0329  -30.3046   24.6112 C   0  0  0  0  0  0
  -27.6064  -32.4330   25.7500 C   0  0  0  0  0  0
  -27.5585  -37.1804   24.8460 C   0  0  0  0  0  0
  -21.4165  -29.3023   22.3731 N   0  0  0  0  0  0
  -26.4297  -37.3794   23.9402 N   0  0  0  0  0  0
  -24.6717  -31.0764   22.1028 N   0  0  0  0  0  0
  -23.4203  -28.8193   23.3060 O   0  0  0  0  0  0
  -28.3299  -26.5895   20.0657 O   0  0  0  0  0  0
  -26.5598  -34.8923   22.4685 O   0  0  0  0  0  0
  -23.5371  -32.1444   23.7494 O   0  0  0  0  0  0
  -29.2613  -18.5875   22.3501 C   0  0  0  0  0  0
  -28.7224  -19.8906   22.4302 C   0  0  0  0  0  0
  -29.6764  -20.4193   20.2722 C   0  0  0  0  0  0
  -30.0619  -18.1897   21.2572 C   0  0  0  0  0  0
  -30.2481  -19.1192   20.1872 C   0  0  0  0  0  0
  -28.9616  -20.8430   21.4170 C   0  0  0  0  0  0
  -28.8432  -23.3727   21.1320 C   0  0  0  0  0  0
  -28.4934  -24.5720   23.3182 C   0  0  0  0  0  0
  -26.6638  -24.5681   21.6207 C   0  0  0  0  0  0
  -32.5758  -20.8239   19.1592 C   0  0  0  0  0  0
  -33.4840  -18.5311   19.5338 C   0  0  0  0  0  0
  -32.8268  -19.2579   17.2399 C   0  0  0  0  0  0
  -31.0193  -18.7529   18.9133 C   0  0  0  0  0  0
  -30.8179  -16.8460   21.3577 C   0  0  0  0  0  0
  -28.7756  -26.0298   21.3154 C   0  0  0  0  0  0
  -28.1950  -24.6364   21.7987 C   0  0  0  0  0  0
  -32.4544  -19.3464   18.7323 C   0  0  0  0  0  0
  -28.4492  -22.1694   21.6192 N   0  0  0  0  0  0
  -30.1076  -15.5783   21.0758 N   0  0  0  0  0  0
  -29.6594  -23.4966   20.2171 O   0  0  0  0  0  0
  -31.4540  -12.3975   19.1296 H   0  0  0  0  0  0
  -30.2964  -11.3255   19.8617 H   0  0  0  0  0  0
  -29.7319  -11.7540   17.4464 H   0  0  0  0  0  0
  -29.6528  -13.4726   17.7539 H   0  0  0  0  0  0
  -27.8271  -11.3029   18.8374 H   0  0  0  0  0  0
  -27.3598  -12.6139   17.7897 H   0  0  0  0  0  0
  -27.6830  -14.2587   19.5403 H   0  0  0  0  0  0
  -28.6822  -12.0389   21.3894 H   0  0  0  0  0  0
  -28.4639  -13.7081   21.8356 H   0  0  0  0  0  0
  -25.2774   -9.5686   22.4763 H   0  0  0  0  0  0
  -24.0003   -7.4650   22.7478 H   0  0  0  0  0  0
  -21.0860   -8.8786   19.8954 H   0  0  0  0  0  0
  -22.3714  -10.9684   19.6169 H   0  0  0  0  0  0
  -21.2016   -7.6163   23.9722 H   0  0  0  0  0  0
  -21.1473   -6.0532   25.9075 H   0  0  0  0  0  0
  -22.0602   -2.7625   23.2828 H   0  0  0  0  0  0
  -22.4111  -11.9884   22.4763 H   0  0  0  0  0  0
  -21.1114  -13.1253   22.2604 H   0  0  0  0  0  0
  -24.6642  -15.8474   20.5289 H   0  0  0  0  0  0
  -26.2852  -15.6319   20.1019 H   0  0  0  0  0  0
  -26.7156  -32.5526   23.1171 H   0  0  0  0  0  0
  -25.0107  -33.9758   25.0502 H   0  0  0  0  0  0
  -22.6972  -31.3118   21.4185 H   0  0  0  0  0  0
  -23.3751  -35.9640   23.3296 H   0  0  0  0  0  0
  -24.3586  -36.8913   22.2053 H   0  0  0  0  0  0
  -23.7242  -37.6500   23.6653 H   0  0  0  0  0  0
  -26.0498  -31.5828   20.5994 H   0  0  0  0  0  0
  -26.8227  -30.8784   21.9919 H   0  0  0  0  0  0
  -28.0919  -29.0510   21.2198 H   0  0  0  0  0  0
  -26.0660  -26.0013   18.9457 H   0  0  0  0  0  0
  -23.9812  -27.3226   18.9900 H   0  0  0  0  0  0
  -23.7268  -30.6051   19.4083 H   0  0  0  0  0  0
  -22.7386  -29.2507   19.8706 H   0  0  0  0  0  0
  -25.1295  -36.1966   25.0821 H   0  0  0  0  0  0
  -20.9955  -28.3237   24.1430 H   0  0  0  0  0  0
  -20.5695  -26.2281   23.3611 H   0  0  0  0  0  0
  -21.6654  -26.7471   22.1199 H   0  0  0  0  0  0
  -19.6911  -25.6290   21.1252 H   0  0  0  0  0  0
  -19.6673  -27.3208   20.6750 H   0  0  0  0  0  0
  -17.4201  -26.6674   21.4022 H   0  0  0  0  0  0
  -18.0307  -26.0047   22.9016 H   0  0  0  0  0  0
  -19.7937  -30.7268   24.2275 H   0  0  0  0  0  0
  -17.5007  -31.6263   24.5183 H   0  0  0  0  0  0
  -15.5345  -30.2987   23.7645 H   0  0  0  0  0  0
  -15.8662  -28.0837   22.7027 H   0  0  0  0  0  0
  -24.5921  -30.7051   25.7799 H   0  0  0  0  0  0
  -24.8921  -32.2860   26.4930 H   0  0  0  0  0  0
  -25.8079  -30.8875   27.0237 H   0  0  0  0  0  0
  -26.2883  -29.6796   24.1172 H   0  0  0  0  0  0
  -27.4104  -29.7306   25.4581 H   0  0  0  0  0  0
  -27.8718  -30.4360   23.9267 H   0  0  0  0  0  0
  -27.2683  -33.3637   26.2073 H   0  0  0  0  0  0
  -28.3869  -32.6874   25.0313 H   0  0  0  0  0  0
  -28.0726  -31.8449   26.5407 H   0  0  0  0  0  0
  -28.2604  -38.0110   24.7546 H   0  0  0  0  0  0
  -28.1085  -36.2642   24.6257 H   0  0  0  0  0  0
  -27.2299  -37.1419   25.8862 H   0  0  0  0  0  0
  -20.9345  -29.8739   21.6930 H   0  0  0  0  0  0
  -26.0184  -38.2862   24.1423 H   0  0  0  0  0  0
  -29.1026  -17.9048   23.1733 H   0  0  0  0  0  0
  -28.1530  -20.1658   23.3068 H   0  0  0  0  0  0
  -29.8174  -21.1052   19.4503 H   0  0  0  0  0  0
  -28.1378  -23.6529   23.7857 H   0  0  0  0  0  0
  -28.0111  -25.3924   23.8516 H   0  0  0  0  0  0
  -29.5640  -24.6478   23.5143 H   0  0  0  0  0  0
  -26.2231  -23.7362   22.1728 H   0  0  0  0  0  0
  -26.3942  -24.4277   20.5748 H   0  0  0  0  0  0
  -26.1785  -25.4781   21.9756 H   0  0  0  0  0  0
  -33.5780  -21.2083   18.9623 H   0  0  0  0  0  0
  -32.3885  -20.9624   20.2249 H   0  0  0  0  0  0
  -31.8828  -21.4600   18.6074 H   0  0  0  0  0  0
  -34.4980  -18.8975   19.3671 H   0  0  0  0  0  0
  -33.4712  -17.4776   19.2494 H   0  0  0  0  0  0
  -33.2966  -18.5935   20.6064 H   0  0  0  0  0  0
  -33.8387  -19.6223   17.0534 H   0  0  0  0  0  0
  -32.1522  -19.8534   16.6223 H   0  0  0  0  0  0
  -32.7778  -18.2299   16.8767 H   0  0  0  0  0  0
  -30.3959  -19.1116   18.0926 H   0  0  0  0  0  0
  -31.0292  -17.6725   18.7668 H   0  0  0  0  0  0
  -31.1889  -16.7631   22.3802 H   0  0  0  0  0  0
  -31.7251  -16.9207   20.7651 H   0  0  0  0  0  0
  -29.8613  -25.9485   21.2431 H   0  0  0  0  0  0
  -28.6182  -26.7771   22.0955 H   0  0  0  0  0  0
  -27.7701  -22.2488   22.3613 H   0  0  0  0  0  0
  -29.1496  -15.4857   21.3767 H   0  0  0  0  0  0
  1 25  1  0  0  0
  1 30  2  0  0  0
  1 89  1  0  0  0
  2  3  1  0  0  0
  2 25  1  0  0  0
  2 91  1  0  0  0
  2 92  1  0  0  0
  3  4  1  0  0  0
  3 93  1  0  0  0
  3 94  1  0  0  0
  4  5  1  0  0  0
  4 95  1  0  0  0
  4 96  1  0  0  0
  5  6  1  0  0  0
  5 26  1  0  0  0
  5 97  1  0  0  0
  6 25  1  0  0  0
  6 98  1  0  0  0
  6 99  1  0  0  0
  7  8  2  0  0  0
  7 26  1  0  0  0
  7 29  1  0  0  0
  8  9  1  0  0  0
  8 22  1  0  0  0
  9 10  1  0  0  0
  9 27  2  0  0  0
 10 11  2  0  0  0
 10 15  1  0  0  0
 11 12  1  0  0  0
 11100  1  0  0  0
 12 13  2  0  0  0
 12101  1  0  0  0
 13 14  1  0  0  0
 13 31  1  0  0  0
 14 15  2  0  0  0
 14102  1  0  0  0
 15103  1  0  0  0
 16 17  2  0  0  0
 16 21  1  0  0  0
 16 31  1  0  0  0
 17 18  1  0  0  0
 17104  1  0  0  0
 18 19  2  0  0  0
 18105  1  0  0  0
 19 20  1  0  0  0
 19 24  1  0  0  0
 20 21  2  0  0  0
 20106  1  0  0  0
 21 23  1  0  0  0
 22 28  1  0  0  0
 22 32  2  0  0  0
 26 27  1  0  0  0
 28107  1  0  0  0
 28108  1  0  0  0
 29109  1  0  0  0
 29110  1  0  0  0
 33 34  1  0  0  0
 33 66  1  0  0  0
 33 70  2  0  0  0
 34 36  1  0  0  0
 34 59  1  0  0  0
 34111  1  0  0  0
 35 44  2  0  0  0
 35 45  1  0  0  0
 35 68  1  0  0  0
 36 56  1  0  0  0
 36112  1  0  0  0
 37 39  1  0  0  0
 37 47  1  0  0  0
 37 66  1  0  0  0
 37113  1  0  0  0
 38 43  2  0  0  0
 38 46  1  0  0  0
 38 47  1  0  0  0
 39 64  1  0  0  0
 39 67  2  0  0  0
 40 52  1  0  0  0
 40 53  2  0  0  0
 40 58  1  0  0  0
 41114  1  0  0  0
 41115  1  0  0  0
 41116  1  0  0  0
 41 48  1  0  0  0
 42 43  1  0  0  0
 42 66  1  0  0  0
 42117  1  0  0  0
 42118  1  0  0  0
 43 44  1  0  0  0
 44119  1  0  0  0
 45 46  2  0  0  0
 45120  1  0  0  0
 46121  1  0  0  0
 47122  1  0  0  0
 47123  1  0  0  0
 48 56  1  0  0  0
 48 65  1  0  0  0
 48124  1  0  0  0
 49 50  1  0  0  0
 49 53  1  0  0  0
 49 64  1  0  0  0
 49125  1  0  0  0
 50 51  1  0  0  0
 50126  1  0  0  0
 50127  1  0  0  0
 51 52  1  0  0  0
 51128  1  0  0  0
 51129  1  0  0  0
 52130  1  0  0  0
 52131  1  0  0  0
 53 54  1  0  0  0
 54 55  2  0  0  0
 54132  1  0  0  0
 55 57  1  0  0  0
 55133  1  0  0  0
 56 69  2  0  0  0
 57 58  2  0  0  0
 57134  1  0  0  0
 58135  1  0  0  0
 59 60  1  0  0  0
 59 61  1  0  0  0
 59 62  1  0  0  0
 60136  1  0  0  0
 60137  1  0  0  0
 60138  1  0  0  0
 61139  1  0  0  0
 61140  1  0  0  0
 61141  1  0  0  0
 62142  1  0  0  0
 62143  1  0  0  0
 62144  1  0  0  0
 63 65  1  0  0  0
 63145  1  0  0  0
 63146  1  0  0  0
 63147  1  0  0  0
 64148  1  0  0  0
 65149  1  0  0  0
 68 85  1  0  0  0
 71 72  2  0  0  0
 71 74  1  0  0  0
 71150  1  0  0  0
 72 76  1  0  0  0
 72151  1  0  0  0
 73 75  1  0  0  0
 73 76  2  0  0  0
 73152  1  0  0  0
 74 75  2  0  0  0
 74 84  1  0  0  0
 75 83  1  0  0  0
 76 88  1  0  0  0
 77 86  1  0  0  0
 77 88  1  0  0  0
 77 90  2  0  0  0
 78153  1  0  0  0
 78154  1  0  0  0
 78155  1  0  0  0
 78 86  1  0  0  0
 79 86  1  0  0  0
 79156  1  0  0  0
 79157  1  0  0  0
 79158  1  0  0  0
 80159  1  0  0  0
 80160  1  0  0  0
 80161  1  0  0  0
 80 87  1  0  0  0
 81 87  1  0  0  0
 81162  1  0  0  0
 81163  1  0  0  0
 81164  1  0  0  0
 82 87  1  0  0  0
 82165  1  0  0  0
 82166  1  0  0  0
 82167  1  0  0  0
 83 87  1  0  0  0
 83168  1  0  0  0
 83169  1  0  0  0
 84 89  1  0  0  0
 84170  1  0  0  0
 84171  1  0  0  0
 85 86  1  0  0  0
 85172  1  0  0  0
 85173  1  0  0  0
 88174  1  0  0  0
 89175  1  0  0  0
M  ISO  4   1 100  68 101  85 101  89 100
M  END
> <chiral flag>
0

> <version>
0

> <s_m_source_file>
/data/baiqing/PycharmProjects/Reinvent-master-3.2/result/LINK_invent/BTK/process_docking_weight1_custom_product_contain_oxygen_bond_distance_aromatic_linkinvent_7_9_3/rearranged_h_0166.sdf

> <i_m_source_file_index>
3

> <r_mmod_Potential_Energy-OPLS-2005>
-35.9346084594727

> <r_mmod_Stretch_Energy-OPLS-2005>
51.0229377746582

> <r_mmod_Bend_Energy-OPLS-2005>
140.394058227539

> <r_mmod_Torsional_Energy-OPLS-2005>
256.017272949219

> <r_mmod_Improper_Torsional_Energy-OPLS-2005>
3.52413034439087

> <r_mmod_Van_der_Waal_Energy-OPLS-2005>
155.232345581055

> <r_mmod_Electrostatic_Energy-OPLS-2005>
-447.984252929688

> <r_mmod_Solvation_Energy-OPLS-2005>
-214.697250366211

> <b_mmod_Minimization_Converged-OPLS-2005>
0

> <r_mmod_RMS_Derivative-OPLS-2005>
1.87403619289398

$$$$
3
                    3D
 Structure written by MMmdl.
153161  0  0  1  0            999 V2000
  -30.6984  -14.4588   20.6072 C   0  0  0  0  0  0
  -30.4258  -12.3077   19.4147 C   0  0  0  0  0  0
  -29.4921  -12.5114   18.2037 C   0  0  0  0  0  0
  -28.0141  -12.3687   18.6182 C   0  0  0  0  0  0
  -27.6653  -13.2037   19.8798 C   0  0  2  0  0  0
  -28.7094  -12.9701   20.9961 C   0  0  0  0  0  0
  -25.2613  -13.8153   20.5691 C   0  0  0  0  0  0
  -24.1850  -13.0434   20.9167 C   0  0  0  0  0  0
  -24.6397  -11.6900   20.8724 C   0  0  0  0  0  0
  -23.9056  -10.4288   21.0398 C   0  0  0  0  0  0
  -24.3610   -9.4206   21.9182 C   0  0  0  0  0  0
  -23.6288   -8.2242   22.0755 C   0  0  0  0  0  0
  -22.4272   -8.0277   21.3541 C   0  0  0  0  0  0
  -21.9904   -9.0247   20.4645 C   0  0  0  0  0  0
  -22.7227  -10.2130   20.3051 C   0  0  0  0  0  0
  -21.6853   -6.0734   22.5274 C   0  0  0  0  0  0
  -21.4011   -6.5641   23.8207 C   0  0  0  0  0  0
  -21.3655   -5.6791   24.9172 C   0  0  0  0  0  0
  -21.6046   -4.3057   24.7224 C   0  0  0  0  0  0
  -21.8821   -3.8148   23.4345 C   0  0  0  0  0  0
  -21.9192   -4.6960   22.3400 C   0  0  0  0  0  0
  -22.7871  -13.5233   21.1828 C   0  0  0  0  0  0
  -22.1662   -4.2152   21.0977 F   0  0  0  0  0  0
  -21.5628   -3.4543   25.7735 F   0  0  0  0  0  0
  -30.0369  -13.2801   20.4474 N   0  0  0  0  0  0
  -26.3056  -12.9319   20.3406 N   0  0  0  0  0  0
  -25.9330  -11.6477   20.5780 N   0  0  0  0  0  0
  -22.0517  -12.8227   22.0392 N   0  0  0  0  0  0
  -25.4350  -15.1872   20.4107 N   0  0  0  0  0  0
  -31.8040  -14.6565   20.0927 O   0  0  0  0  0  0
  -21.6637   -6.8877   21.4237 O   0  0  0  0  0  0
  -22.3552  -14.5537   20.6676 O   0  0  0  0  0  0
  -24.6136  -31.8686   23.2101 C   0  0  0  0  0  0
  -25.9031  -32.4829   23.8401 C   0  0  1  0  0  0
  -27.2388  -27.4445   20.1020 C   0  0  0  0  0  0
  -25.5894  -33.8626   24.2338 N   0  0  0  0  0  0
  -23.4026  -30.4893   21.5513 C   0  0  2  0  0  0
  -24.8519  -28.9543   20.1174 C   0  0  0  0  0  0
  -22.7411  -29.4652   22.5010 C   0  0  0  0  0  0
  -18.0267  -28.1372   22.8508 C   0  0  0  0  0  0
  -24.1478  -36.7303   23.2639 C   0  0  0  0  0  0
  -25.9292  -30.8381   21.3608 C   0  0  0  0  0  0
  -26.0106  -29.4721   20.7108 C   0  0  0  0  0  0
  -27.2111  -28.7263   20.6958 C   0  0  0  0  0  0
  -26.0666  -26.9349   19.5065 C   0  0  0  0  0  0
  -24.8735  -27.6848   19.5120 C   0  0  0  0  0  0
  -23.6109  -29.8178   20.1673 C   0  0  0  0  0  0
  -25.4106  -36.3120   24.0342 C   0  0  1  0  0  0
  -20.5862  -28.3659   23.1330 C   0  0  2  0  0  0
  -20.6761  -26.9399   22.5423 C   0  0  0  0  0  0
  -19.5736  -26.6385   21.5215 C   0  0  0  0  0  0
  -18.1911  -26.7924   22.1622 C   0  0  0  0  0  0
  -19.1517  -28.8832   23.2911 C   0  0  0  0  0  0
  -18.9450  -30.1438   23.8922 C   0  0  0  0  0  0
  -17.6454  -30.6592   24.0563 C   0  0  0  0  0  0
  -25.9033  -34.9480   23.5138 C   0  0  0  0  0  0
  -16.5342  -29.9095   23.6331 C   0  0  0  0  0  0
  -16.7254  -28.6502   23.0374 C   0  0  0  0  0  0
  -26.4471  -31.6609   25.0723 C   0  0  0  0  0  0
  -25.3736  -31.3682   26.1468 C   0  0  0  0  0  0
  -27.0319  -30.3072   24.6075 C   0  0  0  0  0  0
  -27.6065  -32.4318   25.7480 C   0  0  0  0  0  0
  -27.5578  -37.1801   24.8470 C   0  0  0  0  0  0
  -21.4143  -29.3025   22.3747 N   0  0  0  0  0  0
  -26.4292  -37.3806   23.9413 N   0  0  0  0  0  0
  -24.6670  -31.0781   22.1001 N   0  0  0  0  0  0
  -23.4188  -28.8198   23.3057 O   0  0  0  0  0  0
  -28.3975  -26.7036   20.0897 O   0  0  0  0  0  0
  -26.5600  -34.8929   22.4701 O   0  0  0  0  0  0
  -23.5328  -32.1434   23.7502 O   0  0  0  0  0  0
  -28.4888  -19.3215   23.2505 C   0  0  0  0  0  0
  -29.1506  -18.1922   22.7356 C   0  0  0  0  0  0
  -28.4403  -20.5210   22.5149 C   0  0  0  0  0  0
  -29.7124  -19.4615   20.7363 C   0  0  0  0  0  0
  -29.7632  -18.2467   21.4663 C   0  0  0  0  0  0
  -29.0657  -20.6166   21.2442 C   0  0  0  0  0  0
  -28.8104  -22.9523   20.8933 C   0  0  0  0  0  0
  -28.7248  -24.2462   20.0976 C   0  0  0  0  0  0
  -30.5016  -17.0351   20.8810 C   0  0  0  0  0  0
  -28.3479  -25.5109   20.8953 C   0  0  0  0  0  0
  -30.0276  -15.6328   21.3626 C   0  0  0  0  0  0
  -29.0500  -21.7748   20.4348 N   0  0  0  0  0  0
  -28.9339  -24.2988   18.8773 O   0  0  0  0  0  0
  -31.4690  -12.4107   19.1107 H   0  0  0  0  0  0
  -30.3323  -11.2927   19.8032 H   0  0  0  0  0  0
  -29.7302  -11.7923   17.4190 H   0  0  0  0  0  0
  -29.6580  -13.5007   17.7748 H   0  0  0  0  0  0
  -27.8231  -11.3118   18.8086 H   0  0  0  0  0  0
  -27.3619  -12.6495   17.7899 H   0  0  0  0  0  0
  -27.7134  -14.2529   19.5884 H   0  0  0  0  0  0
  -28.6866  -11.9291   21.3213 H   0  0  0  0  0  0
  -28.4772  -13.5521   21.8879 H   0  0  0  0  0  0
  -25.2756   -9.5687   22.4755 H   0  0  0  0  0  0
  -23.9998   -7.4637   22.7476 H   0  0  0  0  0  0
  -21.0836   -8.8758   19.8952 H   0  0  0  0  0  0
  -22.3681  -10.9666   19.6158 H   0  0  0  0  0  0
  -21.2001   -7.6147   23.9708 H   0  0  0  0  0  0
  -21.1478   -6.0526   25.9071 H   0  0  0  0  0  0
  -22.0605   -2.7611   23.2842 H   0  0  0  0  0  0
  -22.4133  -11.9879   22.4766 H   0  0  0  0  0  0
  -21.1142  -13.1254   22.2612 H   0  0  0  0  0  0
  -24.6733  -15.8473   20.5236 H   0  0  0  0  0  0
  -26.2989  -15.6268   20.1180 H   0  0  0  0  0  0
  -26.7113  -32.5557   23.1178 H   0  0  0  0  0  0
  -25.0066  -33.9796   25.0500 H   0  0  0  0  0  0
  -22.6903  -31.3054   21.4111 H   0  0  0  0  0  0
  -23.3747  -35.9628   23.3324 H   0  0  0  0  0  0
  -24.3566  -36.8904   22.2049 H   0  0  0  0  0  0
  -23.7217  -37.6506   23.6646 H   0  0  0  0  0  0
  -26.0332  -31.6019   20.5890 H   0  0  0  0  0  0
  -26.8188  -30.8981   21.9759 H   0  0  0  0  0  0
  -28.1092  -29.1217   21.1501 H   0  0  0  0  0  0
  -26.0771  -25.9619   19.0358 H   0  0  0  0  0  0
  -23.9820  -27.2804   19.0523 H   0  0  0  0  0  0
  -23.7142  -30.5913   19.4061 H   0  0  0  0  0  0
  -22.7365  -29.2336   19.8760 H   0  0  0  0  0  0
  -25.1271  -36.1997   25.0835 H   0  0  0  0  0  0
  -20.9933  -28.3227   24.1458 H   0  0  0  0  0  0
  -20.5677  -26.2261   23.3608 H   0  0  0  0  0  0
  -21.6629  -26.7460   22.1199 H   0  0  0  0  0  0
  -19.6906  -25.6298   21.1238 H   0  0  0  0  0  0
  -19.6687  -27.3208   20.6757 H   0  0  0  0  0  0
  -17.4184  -26.6695   21.4010 H   0  0  0  0  0  0
  -18.0298  -26.0052   22.9000 H   0  0  0  0  0  0
  -19.7927  -30.7238   24.2319 H   0  0  0  0  0  0
  -17.5013  -31.6281   24.5149 H   0  0  0  0  0  0
  -15.5344  -30.3004   23.7650 H   0  0  0  0  0  0
  -15.8649  -28.0818   22.7104 H   0  0  0  0  0  0
  -24.5938  -30.7006   25.7783 H   0  0  0  0  0  0
  -24.8878  -32.2810   26.4924 H   0  0  0  0  0  0
  -25.8076  -30.8848   27.0228 H   0  0  0  0  0  0
  -26.2857  -29.6806   24.1175 H   0  0  0  0  0  0
  -27.4177  -29.7333   25.4510 H   0  0  0  0  0  0
  -27.8644  -30.4419   23.9167 H   0  0  0  0  0  0
  -27.2724  -33.3626   26.2070 H   0  0  0  0  0  0
  -28.3864  -32.6860   25.0290 H   0  0  0  0  0  0
  -28.0741  -31.8427   26.5380 H   0  0  0  0  0  0
  -28.2605  -38.0091   24.7537 H   0  0  0  0  0  0
  -28.1069  -36.2628   24.6281 H   0  0  0  0  0  0
  -27.2292  -37.1435   25.8873 H   0  0  0  0  0  0
  -20.9312  -29.8739   21.6954 H   0  0  0  0  0  0
  -26.0189  -38.2884   24.1433 H   0  0  0  0  0  0
  -28.0115  -19.2667   24.2190 H   0  0  0  0  0  0
  -29.1751  -17.2907   23.3305 H   0  0  0  0  0  0
  -27.9019  -21.3491   22.9531 H   0  0  0  0  0  0
  -30.1848  -19.5074   19.7639 H   0  0  0  0  0  0
  -28.6526  -23.0949   21.9646 H   0  0  0  0  0  0
  -31.5627  -17.1594   21.1008 H   0  0  0  0  0  0
  -30.4110  -17.0811   19.7945 H   0  0  0  0  0  0
  -29.0501  -25.6276   21.7209 H   0  0  0  0  0  0
  -27.3615  -25.3660   21.3382 H   0  0  0  0  0  0
  -28.9482  -15.5929   21.2272 H   0  0  0  0  0  0
  -30.2256  -15.5027   22.4262 H   0  0  0  0  0  0
  1 25  1  0  0  0
  1 30  2  0  0  0
  1 81  1  0  0  0
  2  3  1  0  0  0
  2 25  1  0  0  0
  2 84  1  0  0  0
  2 85  1  0  0  0
  3  4  1  0  0  0
  3 86  1  0  0  0
  3 87  1  0  0  0
  4  5  1  0  0  0
  4 88  1  0  0  0
  4 89  1  0  0  0
  5  6  1  0  0  0
  5 26  1  0  0  0
  5 90  1  0  0  0
  6 25  1  0  0  0
  6 91  1  0  0  0
  6 92  1  0  0  0
  7  8  2  0  0  0
  7 26  1  0  0  0
  7 29  1  0  0  0
  8  9  1  0  0  0
  8 22  1  0  0  0
  9 10  1  0  0  0
  9 27  2  0  0  0
 10 11  2  0  0  0
 10 15  1  0  0  0
 11 12  1  0  0  0
 11 93  1  0  0  0
 12 13  2  0  0  0
 12 94  1  0  0  0
 13 14  1  0  0  0
 13 31  1  0  0  0
 14 15  2  0  0  0
 14 95  1  0  0  0
 15 96  1  0  0  0
 16 17  2  0  0  0
 16 21  1  0  0  0
 16 31  1  0  0  0
 17 18  1  0  0  0
 17 97  1  0  0  0
 18 19  2  0  0  0
 18 98  1  0  0  0
 19 20  1  0  0  0
 19 24  1  0  0  0
 20 21  2  0  0  0
 20 99  1  0  0  0
 21 23  1  0  0  0
 22 28  1  0  0  0
 22 32  2  0  0  0
 26 27  1  0  0  0
 28100  1  0  0  0
 28101  1  0  0  0
 29102  1  0  0  0
 29103  1  0  0  0
 33 34  1  0  0  0
 33 66  1  0  0  0
 33 70  2  0  0  0
 34 36  1  0  0  0
 34 59  1  0  0  0
 34104  1  0  0  0
 35 44  2  0  0  0
 35 45  1  0  0  0
 35 68  1  0  0  0
 36 56  1  0  0  0
 36105  1  0  0  0
 37 39  1  0  0  0
 37 47  1  0  0  0
 37 66  1  0  0  0
 37106  1  0  0  0
 38 43  2  0  0  0
 38 46  1  0  0  0
 38 47  1  0  0  0
 39 64  1  0  0  0
 39 67  2  0  0  0
 40 52  1  0  0  0
 40 53  2  0  0  0
 40 58  1  0  0  0
 41107  1  0  0  0
 41108  1  0  0  0
 41109  1  0  0  0
 41 48  1  0  0  0
 42 43  1  0  0  0
 42 66  1  0  0  0
 42110  1  0  0  0
 42111  1  0  0  0
 43 44  1  0  0  0
 44112  1  0  0  0
 45 46  2  0  0  0
 45113  1  0  0  0
 46114  1  0  0  0
 47115  1  0  0  0
 47116  1  0  0  0
 48 56  1  0  0  0
 48 65  1  0  0  0
 48117  1  0  0  0
 49 50  1  0  0  0
 49 53  1  0  0  0
 49 64  1  0  0  0
 49118  1  0  0  0
 50 51  1  0  0  0
 50119  1  0  0  0
 50120  1  0  0  0
 51 52  1  0  0  0
 51121  1  0  0  0
 51122  1  0  0  0
 52123  1  0  0  0
 52124  1  0  0  0
 53 54  1  0  0  0
 54 55  2  0  0  0
 54125  1  0  0  0
 55 57  1  0  0  0
 55126  1  0  0  0
 56 69  2  0  0  0
 57 58  2  0  0  0
 57127  1  0  0  0
 58128  1  0  0  0
 59 60  1  0  0  0
 59 61  1  0  0  0
 59 62  1  0  0  0
 60129  1  0  0  0
 60130  1  0  0  0
 60131  1  0  0  0
 61132  1  0  0  0
 61133  1  0  0  0
 61134  1  0  0  0
 62135  1  0  0  0
 62136  1  0  0  0
 62137  1  0  0  0
 63 65  1  0  0  0
 63138  1  0  0  0
 63139  1  0  0  0
 63140  1  0  0  0
 64141  1  0  0  0
 65142  1  0  0  0
 68 80  1  0  0  0
 71 72  2  0  0  0
 71 73  1  0  0  0
 71143  1  0  0  0
 72 75  1  0  0  0
 72144  1  0  0  0
 73 76  2  0  0  0
 73145  1  0  0  0
 74 75  2  0  0  0
 74 76  1  0  0  0
 74146  1  0  0  0
 75 79  1  0  0  0
 76 82  1  0  0  0
 77 78  1  0  0  0
 77 82  2  0  0  0
 77147  1  0  0  0
 78 80  1  0  0  0
 78 83  2  0  0  0
 79 81  1  0  0  0
 79148  1  0  0  0
 79149  1  0  0  0
 80150  1  0  0  0
 80151  1  0  0  0
 81152  1  0  0  0
 81153  1  0  0  0
M  ISO  4   1 100  68 101  80 101  81 100
M  END
> <chiral flag>
0

> <version>
0

> <s_m_source_file>
/data/baiqing/PycharmProjects/Reinvent-master-3.2/result/LINK_invent/BTK/process_docking_weight1_custom_product_contain_oxygen_bond_distance_aromatic_linkinvent_7_9_3/rearranged_h_0166.sdf

> <i_m_source_file_index>
4

> <r_mmod_Potential_Energy-OPLS-2005>
-22.5484180450439

> <r_mmod_Stretch_Energy-OPLS-2005>
39.8194732666016

> <r_mmod_Bend_Energy-OPLS-2005>
95.0150146484375

> <r_mmod_Torsional_Energy-OPLS-2005>
190.511810302734

> <r_mmod_Improper_Torsional_Energy-OPLS-2005>
2.34130191802979

> <r_mmod_Van_der_Waal_Energy-OPLS-2005>
154.593170166016

> <r_mmod_Electrostatic_Energy-OPLS-2005>
-285.015686035156

> <r_mmod_Solvation_Energy-OPLS-2005>
-230.071228027344

> <b_mmod_Minimization_Converged-OPLS-2005>
0

> <r_mmod_RMS_Derivative-OPLS-2005>
1.18893444538116

$$$$
4
                    3D
 Structure written by MMmdl.
157165  0  0  1  0            999 V2000
  -30.6920  -14.4812   20.5248 C   0  0  0  0  0  0
  -30.4177  -12.2864   19.4425 C   0  0  0  0  0  0
  -29.5030  -12.4889   18.2169 C   0  0  0  0  0  0
  -28.0196  -12.3579   18.6193 C   0  0  0  0  0  0
  -27.6595  -13.2089   19.8679 C   0  0  2  0  0  0
  -28.6974  -13.0098   20.9938 C   0  0  0  0  0  0
  -25.2589  -13.8132   20.5673 C   0  0  0  0  0  0
  -24.1839  -13.0417   20.9173 C   0  0  0  0  0  0
  -24.6397  -11.6890   20.8730 C   0  0  0  0  0  0
  -23.9062  -10.4277   21.0395 C   0  0  0  0  0  0
  -24.3612   -9.4202   21.9178 C   0  0  0  0  0  0
  -23.6284   -8.2246   22.0759 C   0  0  0  0  0  0
  -22.4266   -8.0280   21.3552 C   0  0  0  0  0  0
  -21.9903   -9.0249   20.4648 C   0  0  0  0  0  0
  -22.7236  -10.2121   20.3043 C   0  0  0  0  0  0
  -21.6849   -6.0734   22.5272 C   0  0  0  0  0  0
  -21.4021   -6.5637   23.8210 C   0  0  0  0  0  0
  -21.3658   -5.6790   24.9176 C   0  0  0  0  0  0
  -21.6041   -4.3055   24.7224 C   0  0  0  0  0  0
  -21.8824   -3.8148   23.4346 C   0  0  0  0  0  0
  -21.9196   -4.6964   22.3398 C   0  0  0  0  0  0
  -22.7871  -13.5232   21.1828 C   0  0  0  0  0  0
  -22.1660   -4.2150   21.0978 F   0  0  0  0  0  0
  -21.5624   -3.4538   25.7737 F   0  0  0  0  0  0
  -30.0324  -13.2933   20.4437 N   0  0  0  0  0  0
  -26.3016  -12.9317   20.3321 N   0  0  0  0  0  0
  -25.9320  -11.6474   20.5741 N   0  0  0  0  0  0
  -22.0506  -12.8222   22.0381 N   0  0  0  0  0  0
  -25.4321  -15.1826   20.4105 N   0  0  0  0  0  0
  -31.8552  -14.5754   20.1192 O   0  0  0  0  0  0
  -21.6635   -6.8877   21.4239 O   0  0  0  0  0  0
  -22.3568  -14.5544   20.6682 O   0  0  0  0  0  0
  -24.6116  -31.8693   23.2105 C   0  0  0  0  0  0
  -25.9016  -32.4820   23.8394 C   0  0  1  0  0  0
  -27.2343  -27.4402   20.0985 C   0  0  0  0  0  0
  -25.5882  -33.8630   24.2322 N   0  0  0  0  0  0
  -23.3983  -30.4918   21.5509 C   0  0  2  0  0  0
  -24.8441  -28.9565   20.1154 C   0  0  0  0  0  0
  -22.7380  -29.4667   22.5005 C   0  0  0  0  0  0
  -18.0246  -28.1369   22.8501 C   0  0  0  0  0  0
  -24.1491  -36.7330   23.2633 C   0  0  0  0  0  0
  -25.9242  -30.8364   21.3605 C   0  0  0  0  0  0
  -26.0006  -29.4696   20.7131 C   0  0  0  0  0  0
  -27.1937  -28.7171   20.7035 C   0  0  0  0  0  0
  -26.0555  -26.9365   19.4974 C   0  0  0  0  0  0
  -24.8656  -27.6892   19.5076 C   0  0  0  0  0  0
  -23.6063  -29.8238   20.1645 C   0  0  0  0  0  0
  -25.4106  -36.3124   24.0337 C   0  0  1  0  0  0
  -20.5835  -28.3656   23.1338 C   0  0  2  0  0  0
  -20.6745  -26.9401   22.5428 C   0  0  0  0  0  0
  -19.5727  -26.6383   21.5216 C   0  0  0  0  0  0
  -18.1895  -26.7917   22.1618 C   0  0  0  0  0  0
  -19.1500  -28.8823   23.2911 C   0  0  0  0  0  0
  -18.9435  -30.1435   23.8914 C   0  0  0  0  0  0
  -17.6445  -30.6586   24.0570 C   0  0  0  0  0  0
  -25.9048  -34.9491   23.5130 C   0  0  0  0  0  0
  -16.5332  -29.9108   23.6313 C   0  0  0  0  0  0
  -16.7238  -28.6516   23.0342 C   0  0  0  0  0  0
  -26.4456  -31.6578   25.0705 C   0  0  0  0  0  0
  -25.3746  -31.3623   26.1457 C   0  0  0  0  0  0
  -27.0269  -30.3027   24.6037 C   0  0  0  0  0  0
  -27.6056  -32.4262   25.7462 C   0  0  0  0  0  0
  -27.5588  -37.1788   24.8446 C   0  0  0  0  0  0
  -21.4107  -29.3037   22.3750 N   0  0  0  0  0  0
  -26.4276  -37.3819   23.9438 N   0  0  0  0  0  0
  -24.6629  -31.0804   22.0996 N   0  0  0  0  0  0
  -23.4149  -28.8216   23.3047 O   0  0  0  0  0  0
  -28.4323  -26.7550   20.1297 O   0  0  0  0  0  0
  -26.5625  -34.8942   22.4699 O   0  0  0  0  0  0
  -23.5314  -32.1448   23.7507 O   0  0  0  0  0  0
  -28.3763  -18.1934   20.7390 C   0  0  0  0  0  0
  -29.8659  -20.4398   21.4934 C   0  0  0  0  0  0
  -27.7425  -19.4643   20.7744 C   0  0  0  0  0  0
  -29.7468  -18.0338   21.0503 C   0  0  0  0  0  0
  -28.4999  -20.6050   21.1773 C   0  0  0  0  0  0
  -30.4858  -19.1775   21.4246 C   0  0  0  0  0  0
  -30.4358  -16.7210   20.9303 C   0  0  0  0  0  0
  -26.2942  -19.5473   20.4058 C   0  0  0  0  0  0
  -28.1153  -24.3530   20.6662 C   0  0  0  0  0  0
  -25.8264  -18.7061   19.2231 C   0  0  0  0  0  0
  -28.5089  -22.8981   20.3505 C   0  0  0  0  0  0
  -28.5240  -25.4143   19.6237 C   0  0  0  0  0  0
  -29.8868  -15.5593   20.9115 N   0  0  0  0  0  0
  -27.9455  -21.8963   21.2656 N   0  0  0  0  0  0
  -25.4851  -20.2978   20.9595 O   0  0  0  0  0  0
  -27.5072  -24.6451   21.7027 O   0  0  0  0  0  0
  -31.8041  -19.0794   21.7263 F   0  0  0  0  0  0
  -31.4670  -12.3538   19.1507 H   0  0  0  0  0  0
  -30.2897  -11.2833   19.8524 H   0  0  0  0  0  0
  -29.7444  -11.7581   17.4434 H   0  0  0  0  0  0
  -29.6853  -13.4714   17.7789 H   0  0  0  0  0  0
  -27.8259  -11.3043   18.8241 H   0  0  0  0  0  0
  -27.3758  -12.6245   17.7806 H   0  0  0  0  0  0
  -27.6994  -14.2539   19.5621 H   0  0  0  0  0  0
  -28.6623  -11.9853   21.3691 H   0  0  0  0  0  0
  -28.4653  -13.6439   21.8510 H   0  0  0  0  0  0
  -25.2758   -9.5679   22.4751 H   0  0  0  0  0  0
  -23.9985   -7.4644   22.7486 H   0  0  0  0  0  0
  -21.0838   -8.8775   19.8954 H   0  0  0  0  0  0
  -22.3704  -10.9662   19.6146 H   0  0  0  0  0  0
  -21.2020   -7.6148   23.9714 H   0  0  0  0  0  0
  -21.1468   -6.0521   25.9073 H   0  0  0  0  0  0
  -22.0604   -2.7605   23.2849 H   0  0  0  0  0  0
  -22.4117  -11.9871   22.4747 H   0  0  0  0  0  0
  -21.1133  -13.1264   22.2595 H   0  0  0  0  0  0
  -24.6690  -15.8409   20.5139 H   0  0  0  0  0  0
  -26.2987  -15.6008   20.0995 H   0  0  0  0  0  0
  -26.7076  -32.5548   23.1156 H   0  0  0  0  0  0
  -24.9960  -33.9812   25.0408 H   0  0  0  0  0  0
  -22.6858  -31.3074   21.4130 H   0  0  0  0  0  0
  -23.3776  -35.9634   23.3241 H   0  0  0  0  0  0
  -24.3588  -36.9006   22.2056 H   0  0  0  0  0  0
  -23.7213  -37.6505   23.6693 H   0  0  0  0  0  0
  -26.0268  -31.5965   20.5850 H   0  0  0  0  0  0
  -26.8168  -30.8955   21.9719 H   0  0  0  0  0  0
  -28.0871  -29.1116   21.1677 H   0  0  0  0  0  0
  -26.0260  -25.9678   19.0219 H   0  0  0  0  0  0
  -23.9739  -27.2871   19.0471 H   0  0  0  0  0  0
  -23.7153  -30.5988   19.4039 H   0  0  0  0  0  0
  -22.7302  -29.2433   19.8691 H   0  0  0  0  0  0
  -25.1257  -36.1978   25.0818 H   0  0  0  0  0  0
  -20.9883  -28.3223   24.1483 H   0  0  0  0  0  0
  -20.5630  -26.2269   23.3606 H   0  0  0  0  0  0
  -21.6625  -26.7457   22.1243 H   0  0  0  0  0  0
  -19.6907  -25.6305   21.1213 H   0  0  0  0  0  0
  -19.6660  -27.3219   20.6769 H   0  0  0  0  0  0
  -17.4163  -26.6645   21.4023 H   0  0  0  0  0  0
  -18.0325  -26.0055   22.9013 H   0  0  0  0  0  0
  -19.7920  -30.7236   24.2295 H   0  0  0  0  0  0
  -17.5016  -31.6265   24.5177 H   0  0  0  0  0  0
  -15.5348  -30.3028   23.7637 H   0  0  0  0  0  0
  -15.8618  -28.0855   22.7050 H   0  0  0  0  0  0
  -24.5974  -30.6897   25.7789 H   0  0  0  0  0  0
  -24.8867  -32.2737   26.4928 H   0  0  0  0  0  0
  -25.8144  -30.8797   27.0196 H   0  0  0  0  0  0
  -26.2783  -29.6787   24.1130 H   0  0  0  0  0  0
  -27.4097  -29.7245   25.4459 H   0  0  0  0  0  0
  -27.8596  -30.4346   23.9121 H   0  0  0  0  0  0
  -27.2718  -33.3572   26.2060 H   0  0  0  0  0  0
  -28.3869  -32.6777   25.0274 H   0  0  0  0  0  0
  -28.0717  -31.8342   26.5353 H   0  0  0  0  0  0
  -28.2533  -38.0159   24.7614 H   0  0  0  0  0  0
  -28.1157  -36.2695   24.6116 H   0  0  0  0  0  0
  -27.2327  -37.1253   25.8849 H   0  0  0  0  0  0
  -20.9252  -29.8780   21.6999 H   0  0  0  0  0  0
  -26.0159  -38.2875   24.1522 H   0  0  0  0  0  0
  -27.8131  -17.3183   20.4516 H   0  0  0  0  0  0
  -30.4606  -21.2872   21.8009 H   0  0  0  0  0  0
  -31.5205  -16.8283   20.8293 H   0  0  0  0  0  0
  -26.4929  -18.8394   18.3714 H   0  0  0  0  0  0
  -24.8248  -19.0115   18.9203 H   0  0  0  0  0  0
  -25.7954  -17.6515   19.4828 H   0  0  0  0  0  0
  -29.5974  -22.8426   20.3350 H   0  0  0  0  0  0
  -28.1685  -22.6786   19.3374 H   0  0  0  0  0  0
  -27.9653  -25.2793   18.6995 H   0  0  0  0  0  0
  -29.5684  -25.2355   19.3692 H   0  0  0  0  0  0
  -26.9261  -21.9158   21.2724 H   0  0  0  0  0  0
  1 25  1  0  0  0
  1 30  2  0  0  0
  1 83  1  0  0  0
  2  3  1  0  0  0
  2 25  1  0  0  0
  2 88  1  0  0  0
  2 89  1  0  0  0
  3  4  1  0  0  0
  3 90  1  0  0  0
  3 91  1  0  0  0
  4  5  1  0  0  0
  4 92  1  0  0  0
  4 93  1  0  0  0
  5  6  1  0  0  0
  5 26  1  0  0  0
  5 94  1  0  0  0
  6 25  1  0  0  0
  6 95  1  0  0  0
  6 96  1  0  0  0
  7  8  2  0  0  0
  7 26  1  0  0  0
  7 29  1  0  0  0
  8  9  1  0  0  0
  8 22  1  0  0  0
  9 10  1  0  0  0
  9 27  2  0  0  0
 10 11  2  0  0  0
 10 15  1  0  0  0
 11 12  1  0  0  0
 11 97  1  0  0  0
 12 13  2  0  0  0
 12 98  1  0  0  0
 13 14  1  0  0  0
 13 31  1  0  0  0
 14 15  2  0  0  0
 14 99  1  0  0  0
 15100  1  0  0  0
 16 17  2  0  0  0
 16 21  1  0  0  0
 16 31  1  0  0  0
 17 18  1  0  0  0
 17101  1  0  0  0
 18 19  2  0  0  0
 18102  1  0  0  0
 19 20  1  0  0  0
 19 24  1  0  0  0
 20 21  2  0  0  0
 20103  1  0  0  0
 21 23  1  0  0  0
 22 28  1  0  0  0
 22 32  2  0  0  0
 26 27  1  0  0  0
 28104  1  0  0  0
 28105  1  0  0  0
 29106  1  0  0  0
 29107  1  0  0  0
 33 34  1  0  0  0
 33 66  1  0  0  0
 33 70  2  0  0  0
 34 36  1  0  0  0
 34 59  1  0  0  0
 34108  1  0  0  0
 35 44  2  0  0  0
 35 45  1  0  0  0
 35 68  1  0  0  0
 36 56  1  0  0  0
 36109  1  0  0  0
 37 39  1  0  0  0
 37 47  1  0  0  0
 37 66  1  0  0  0
 37110  1  0  0  0
 38 43  2  0  0  0
 38 46  1  0  0  0
 38 47  1  0  0  0
 39 64  1  0  0  0
 39 67  2  0  0  0
 40 52  1  0  0  0
 40 53  2  0  0  0
 40 58  1  0  0  0
 41111  1  0  0  0
 41112  1  0  0  0
 41113  1  0  0  0
 41 48  1  0  0  0
 42 43  1  0  0  0
 42 66  1  0  0  0
 42114  1  0  0  0
 42115  1  0  0  0
 43 44  1  0  0  0
 44116  1  0  0  0
 45 46  2  0  0  0
 45117  1  0  0  0
 46118  1  0  0  0
 47119  1  0  0  0
 47120  1  0  0  0
 48 56  1  0  0  0
 48 65  1  0  0  0
 48121  1  0  0  0
 49 50  1  0  0  0
 49 53  1  0  0  0
 49 64  1  0  0  0
 49122  1  0  0  0
 50 51  1  0  0  0
 50123  1  0  0  0
 50124  1  0  0  0
 51 52  1  0  0  0
 51125  1  0  0  0
 51126  1  0  0  0
 52127  1  0  0  0
 52128  1  0  0  0
 53 54  1  0  0  0
 54 55  2  0  0  0
 54129  1  0  0  0
 55 57  1  0  0  0
 55130  1  0  0  0
 56 69  2  0  0  0
 57 58  2  0  0  0
 57131  1  0  0  0
 58132  1  0  0  0
 59 60  1  0  0  0
 59 61  1  0  0  0
 59 62  1  0  0  0
 60133  1  0  0  0
 60134  1  0  0  0
 60135  1  0  0  0
 61136  1  0  0  0
 61137  1  0  0  0
 61138  1  0  0  0
 62139  1  0  0  0
 62140  1  0  0  0
 62141  1  0  0  0
 63 65  1  0  0  0
 63142  1  0  0  0
 63143  1  0  0  0
 63144  1  0  0  0
 64145  1  0  0  0
 65146  1  0  0  0
 68 82  1  0  0  0
 71 73  2  0  0  0
 71 74  1  0  0  0
 71147  1  0  0  0
 72 75  2  0  0  0
 72 76  1  0  0  0
 72148  1  0  0  0
 73 75  1  0  0  0
 73 78  1  0  0  0
 74 76  2  0  0  0
 74 77  1  0  0  0
 75 84  1  0  0  0
 76 87  1  0  0  0
 77 83  2  0  0  0
 77149  1  0  0  0
 78 80  1  0  0  0
 78 85  2  0  0  0
 79 81  1  0  0  0
 79 82  1  0  0  0
 79 86  2  0  0  0
 80150  1  0  0  0
 80151  1  0  0  0
 80152  1  0  0  0
 81 84  1  0  0  0
 81153  1  0  0  0
 81154  1  0  0  0
 82155  1  0  0  0
 82156  1  0  0  0
 84157  1  0  0  0
M  ISO  4   1 100  68 101  82 101  83 100
M  END
> <chiral flag>
0

> <version>
0

> <s_m_source_file>
/data/baiqing/PycharmProjects/Reinvent-master-3.2/result/LINK_invent/BTK/process_docking_weight1_custom_product_contain_oxygen_bond_distance_aromatic_linkinvent_7_9_3/rearranged_h_0166.sdf

> <i_m_source_file_index>
5

> <r_mmod_Potential_Energy-OPLS-2005>
81.3862838745117

> <r_mmod_Stretch_Energy-OPLS-2005>
40.8949317932129

> <r_mmod_Bend_Energy-OPLS-2005>
103.695419311523

> <r_mmod_Torsional_Energy-OPLS-2005>
198.81559753418

> <r_mmod_Improper_Torsional_Energy-OPLS-2005>
9.21839714050293

> <r_mmod_Van_der_Waal_Energy-OPLS-2005>
170.9384765625

> <r_mmod_Electrostatic_Energy-OPLS-2005>
-225.001724243164

> <r_mmod_Solvation_Energy-OPLS-2005>
-233.171020507812

> <b_mmod_Minimization_Converged-OPLS-2005>
0

> <r_mmod_RMS_Derivative-OPLS-2005>
1.98044431209564

$$$$
5
                    3D
 Structure written by MMmdl.
160169  0  0  1  0            999 V2000
  -30.6934  -14.6102   20.4805 C   0  0  0  0  0  0
  -30.4147  -12.3706   19.4608 C   0  0  0  0  0  0
  -29.5010  -12.4900   18.2244 C   0  0  0  0  0  0
  -28.0244  -12.3406   18.6358 C   0  0  0  0  0  0
  -27.6476  -13.2260   19.8548 C   0  0  2  0  0  0
  -28.6923  -13.1242   20.9891 C   0  0  0  0  0  0
  -25.2537  -13.8200   20.5683 C   0  0  0  0  0  0
  -24.1822  -13.0452   20.9214 C   0  0  0  0  0  0
  -24.6398  -11.6927   20.8750 C   0  0  0  0  0  0
  -23.9071  -10.4306   21.0410 C   0  0  0  0  0  0
  -24.3625   -9.4217   21.9179 C   0  0  0  0  0  0
  -23.6304   -8.2248   22.0747 C   0  0  0  0  0  0
  -22.4280   -8.0286   21.3547 C   0  0  0  0  0  0
  -21.9919   -9.0260   20.4646 C   0  0  0  0  0  0
  -22.7245  -10.2144   20.3054 C   0  0  0  0  0  0
  -21.6858   -6.0736   22.5282 C   0  0  0  0  0  0
  -21.4010   -6.5637   23.8214 C   0  0  0  0  0  0
  -21.3654   -5.6790   24.9175 C   0  0  0  0  0  0
  -21.6044   -4.3054   24.7226 C   0  0  0  0  0  0
  -21.8822   -3.8149   23.4347 C   0  0  0  0  0  0
  -21.9196   -4.6964   22.3404 C   0  0  0  0  0  0
  -22.7844  -13.5236   21.1868 C   0  0  0  0  0  0
  -22.1668   -4.2148   21.0981 F   0  0  0  0  0  0
  -21.5624   -3.4532   25.7736 F   0  0  0  0  0  0
  -30.0086  -13.4261   20.4128 N   0  0  0  0  0  0
  -26.2963  -12.9401   20.3294 N   0  0  0  0  0  0
  -25.9328  -11.6546   20.5761 N   0  0  0  0  0  0
  -22.0476  -12.8226   22.0412 N   0  0  0  0  0  0
  -25.4243  -15.1918   20.4058 N   0  0  0  0  0  0
  -31.8764  -14.6407   20.1368 O   0  0  0  0  0  0
  -21.6646   -6.8881   21.4244 O   0  0  0  0  0  0
  -22.3532  -14.5536   20.6703 O   0  0  0  0  0  0
  -24.6236  -31.8619   23.2054 C   0  0  0  0  0  0
  -25.9107  -32.4780   23.8369 C   0  0  1  0  0  0
  -27.2193  -27.3556   20.1175 C   0  0  0  0  0  0
  -25.5948  -33.8579   24.2296 N   0  0  0  0  0  0
  -23.4163  -30.4867   21.5452 C   0  0  2  0  0  0
  -24.8658  -28.9514   20.1037 C   0  0  0  0  0  0
  -22.7465  -29.4628   22.4924 C   0  0  0  0  0  0
  -18.0283  -28.1383   22.8480 C   0  0  0  0  0  0
  -24.1485  -36.7273   23.2619 C   0  0  0  0  0  0
  -25.9555  -30.8051   21.3731 C   0  0  0  0  0  0
  -26.0317  -29.4370   20.7119 C   0  0  0  0  0  0
  -27.2168  -28.6481   20.7143 C   0  0  0  0  0  0
  -26.0454  -26.9209   19.4695 C   0  0  0  0  0  0
  -24.8725  -27.6973   19.4722 C   0  0  0  0  0  0
  -23.6306  -29.8250   20.1578 C   0  0  0  0  0  0
  -25.4091  -36.3071   24.0341 C   0  0  1  0  0  0
  -20.5882  -28.3676   23.1287 C   0  0  2  0  0  0
  -20.6763  -26.9397   22.5419 C   0  0  0  0  0  0
  -19.5749  -26.6383   21.5209 C   0  0  0  0  0  0
  -18.1924  -26.7932   22.1609 C   0  0  0  0  0  0
  -19.1537  -28.8847   23.2875 C   0  0  0  0  0  0
  -18.9463  -30.1455   23.8880 C   0  0  0  0  0  0
  -17.6464  -30.6582   24.0560 C   0  0  0  0  0  0
  -25.9057  -34.9451   23.5111 C   0  0  0  0  0  0
  -16.5351  -29.9078   23.6340 C   0  0  0  0  0  0
  -16.7272  -28.6501   23.0347 C   0  0  0  0  0  0
  -26.4501  -31.6574   25.0721 C   0  0  0  0  0  0
  -25.3756  -31.3729   26.1474 C   0  0  0  0  0  0
  -27.0309  -30.2985   24.6152 C   0  0  0  0  0  0
  -27.6082  -32.4292   25.7473 C   0  0  0  0  0  0
  -27.5621  -37.1711   24.8408 C   0  0  0  0  0  0
  -21.4180  -29.3029   22.3677 N   0  0  0  0  0  0
  -26.4236  -37.3810   23.9506 N   0  0  0  0  0  0
  -24.6831  -31.0674   22.0976 N   0  0  0  0  0  0
  -23.4207  -28.8167   23.2990 O   0  0  0  0  0  0
  -28.2795  -26.4560   20.2075 O   0  0  0  0  0  0
  -26.5609  -34.8926   22.4668 O   0  0  0  0  0  0
  -23.5412  -32.1403   23.7408 O   0  0  0  0  0  0
  -31.6642  -17.5668   20.2065 C   0  0  0  0  0  0
  -31.9908  -18.9122   19.9968 C   0  0  0  0  0  0
  -29.4271  -18.2722   20.7476 C   0  0  0  0  0  0
  -30.3540  -17.1770   20.5704 C   0  0  0  0  0  0
  -29.8522  -19.6378   20.5222 C   0  0  0  0  0  0
  -28.9722  -23.1998   21.9980 C   0  0  0  0  0  0
  -28.5790  -23.9143   20.9188 C   0  0  0  0  0  0
  -29.3645  -21.7150   21.9872 C   0  0  0  0  0  0
  -28.4985  -23.1941   19.5658 C   0  0  0  0  0  0
  -28.9951  -20.9426   20.6870 C   0  0  1  0  0  0
  -27.9932  -17.9854   21.1765 C   0  0  0  0  0  0
  -27.9601  -25.3395   21.1078 C   0  0  0  0  0  0
  -31.1117  -19.9188   20.1311 N   0  0  0  0  0  0
  -29.9842  -15.7602   20.7450 N   0  0  0  0  0  0
  -29.2001  -21.8615   19.5330 N   0  3  0  0  0  0
  -31.4607  -12.4466   19.1596 H   0  0  0  0  0  0
  -30.3136  -11.3861   19.9202 H   0  0  0  0  0  0
  -29.7623  -11.7291   17.4875 H   0  0  0  0  0  0
  -29.6567  -13.4544   17.7381 H   0  0  0  0  0  0
  -27.8592  -11.2901   18.8779 H   0  0  0  0  0  0
  -27.3722  -12.5620   17.7903 H   0  0  0  0  0  0
  -27.6576  -14.2546   19.4942 H   0  0  0  0  0  0
  -28.6950  -12.1245   21.4261 H   0  0  0  0  0  0
  -28.4496  -13.8100   21.8022 H   0  0  0  0  0  0
  -25.2773   -9.5693   22.4749 H   0  0  0  0  0  0
  -24.0015   -7.4634   22.7461 H   0  0  0  0  0  0
  -21.0849   -8.8782   19.8954 H   0  0  0  0  0  0
  -22.3701  -10.9678   19.6160 H   0  0  0  0  0  0
  -21.1998   -7.6146   23.9716 H   0  0  0  0  0  0
  -21.1468   -6.0517   25.9077 H   0  0  0  0  0  0
  -22.0600   -2.7610   23.2846 H   0  0  0  0  0  0
  -22.4084  -11.9887   22.4812 H   0  0  0  0  0  0
  -21.1093  -13.1267   22.2606 H   0  0  0  0  0  0
  -24.6518  -15.8422   20.4998 H   0  0  0  0  0  0
  -26.2550  -15.6171   20.0168 H   0  0  0  0  0  0
  -26.7173  -32.5469   23.1119 H   0  0  0  0  0  0
  -25.0144  -33.9727   25.0474 H   0  0  0  0  0  0
  -22.7088  -31.3065   21.4050 H   0  0  0  0  0  0
  -23.3823  -35.9517   23.3104 H   0  0  0  0  0  0
  -24.3641  -36.9069   22.2076 H   0  0  0  0  0  0
  -23.7114  -37.6370   23.6743 H   0  0  0  0  0  0
  -26.0889  -31.5736   20.6104 H   0  0  0  0  0  0
  -26.8351  -30.8481   22.0034 H   0  0  0  0  0  0
  -28.1067  -29.0047   21.2138 H   0  0  0  0  0  0
  -26.0245  -25.9493   18.9961 H   0  0  0  0  0  0
  -23.9793  -27.3201   18.9933 H   0  0  0  0  0  0
  -23.7456  -30.6047   19.4042 H   0  0  0  0  0  0
  -22.7536  -29.2507   19.8552 H   0  0  0  0  0  0
  -25.1232  -36.1874   25.0818 H   0  0  0  0  0  0
  -20.9979  -28.3245   24.1408 H   0  0  0  0  0  0
  -20.5656  -26.2276   23.3613 H   0  0  0  0  0  0
  -21.6633  -26.7416   22.1230 H   0  0  0  0  0  0
  -19.6905  -25.6296   21.1242 H   0  0  0  0  0  0
  -19.6710  -27.3184   20.6735 H   0  0  0  0  0  0
  -17.4208  -26.6702   21.3992 H   0  0  0  0  0  0
  -18.0302  -26.0064   22.8993 H   0  0  0  0  0  0
  -19.7939  -30.7274   24.2231 H   0  0  0  0  0  0
  -17.5023  -31.6261   24.5168 H   0  0  0  0  0  0
  -15.5350  -30.2969   23.7689 H   0  0  0  0  0  0
  -15.8677  -28.0826   22.7050 H   0  0  0  0  0  0
  -24.5936  -30.7048   25.7846 H   0  0  0  0  0  0
  -24.8940  -32.2901   26.4872 H   0  0  0  0  0  0
  -25.8121  -30.8963   27.0260 H   0  0  0  0  0  0
  -26.2845  -29.6754   24.1208 H   0  0  0  0  0  0
  -27.4026  -29.7224   25.4635 H   0  0  0  0  0  0
  -27.8727  -30.4248   23.9336 H   0  0  0  0  0  0
  -27.2705  -33.3594   26.2051 H   0  0  0  0  0  0
  -28.3888  -32.6842   25.0292 H   0  0  0  0  0  0
  -28.0755  -31.8411   26.5381 H   0  0  0  0  0  0
  -28.2404  -38.0235   24.7833 H   0  0  0  0  0  0
  -28.1344  -36.2814   24.5726 H   0  0  0  0  0  0
  -27.2436  -37.0746   25.8803 H   0  0  0  0  0  0
  -20.9340  -29.8752   21.6902 H   0  0  0  0  0  0
  -26.0093  -38.2817   24.1755 H   0  0  0  0  0  0
  -32.4683  -16.8632   20.0650 H   0  0  0  0  0  0
  -32.9937  -19.1890   19.7064 H   0  0  0  0  0  0
  -28.9741  -23.6685   22.9723 H   0  0  0  0  0  0
  -28.9107  -21.2135   22.8422 H   0  0  0  0  0  0
  -30.4420  -21.6769   22.1519 H   0  0  0  0  0  0
  -28.9141  -23.8362   18.7882 H   0  0  0  0  0  0
  -27.4455  -23.0472   19.3227 H   0  0  0  0  0  0
  -27.9349  -20.6901   20.7045 H   0  0  0  0  0  0
  -27.8988  -17.0261   21.6849 H   0  0  0  0  0  0
  -27.3342  -17.9724   20.3073 H   0  0  0  0  0  0
  -27.6260  -18.7379   21.8746 H   0  0  0  0  0  0
  -28.2182  -25.6858   22.1099 H   0  0  0  0  0  0
  -26.8840  -25.1641   21.1492 H   0  0  0  0  0  0
  -29.0259  -15.5939   21.0041 H   0  0  0  0  0  0
  -30.1986  -21.9936   19.4945 H   0  0  0  0  0  0
  -28.9484  -21.3661   18.6944 H   0  0  0  0  0  0
  1 25  1  0  0  0
  1 30  2  0  0  0
  1 84  1  0  0  0
  2  3  1  0  0  0
  2 25  1  0  0  0
  2 86  1  0  0  0
  2 87  1  0  0  0
  3  4  1  0  0  0
  3 88  1  0  0  0
  3 89  1  0  0  0
  4  5  1  0  0  0
  4 90  1  0  0  0
  4 91  1  0  0  0
  5  6  1  0  0  0
  5 26  1  0  0  0
  5 92  1  0  0  0
  6 25  1  0  0  0
  6 93  1  0  0  0
  6 94  1  0  0  0
  7  8  2  0  0  0
  7 26  1  0  0  0
  7 29  1  0  0  0
  8  9  1  0  0  0
  8 22  1  0  0  0
  9 10  1  0  0  0
  9 27  2  0  0  0
 10 11  2  0  0  0
 10 15  1  0  0  0
 11 12  1  0  0  0
 11 95  1  0  0  0
 12 13  2  0  0  0
 12 96  1  0  0  0
 13 14  1  0  0  0
 13 31  1  0  0  0
 14 15  2  0  0  0
 14 97  1  0  0  0
 15 98  1  0  0  0
 16 17  2  0  0  0
 16 21  1  0  0  0
 16 31  1  0  0  0
 17 18  1  0  0  0
 17 99  1  0  0  0
 18 19  2  0  0  0
 18100  1  0  0  0
 19 20  1  0  0  0
 19 24  1  0  0  0
 20 21  2  0  0  0
 20101  1  0  0  0
 21 23  1  0  0  0
 22 28  1  0  0  0
 22 32  2  0  0  0
 26 27  1  0  0  0
 28102  1  0  0  0
 28103  1  0  0  0
 29104  1  0  0  0
 29105  1  0  0  0
 33 34  1  0  0  0
 33 66  1  0  0  0
 33 70  2  0  0  0
 34 36  1  0  0  0
 34 59  1  0  0  0
 34106  1  0  0  0
 35 44  2  0  0  0
 35 45  1  0  0  0
 35 68  1  0  0  0
 36 56  1  0  0  0
 36107  1  0  0  0
 37 39  1  0  0  0
 37 47  1  0  0  0
 37 66  1  0  0  0
 37108  1  0  0  0
 38 43  2  0  0  0
 38 46  1  0  0  0
 38 47  1  0  0  0
 39 64  1  0  0  0
 39 67  2  0  0  0
 40 52  1  0  0  0
 40 53  2  0  0  0
 40 58  1  0  0  0
 41109  1  0  0  0
 41110  1  0  0  0
 41111  1  0  0  0
 41 48  1  0  0  0
 42 43  1  0  0  0
 42 66  1  0  0  0
 42112  1  0  0  0
 42113  1  0  0  0
 43 44  1  0  0  0
 44114  1  0  0  0
 45 46  2  0  0  0
 45115  1  0  0  0
 46116  1  0  0  0
 47117  1  0  0  0
 47118  1  0  0  0
 48 56  1  0  0  0
 48 65  1  0  0  0
 48119  1  0  0  0
 49 50  1  0  0  0
 49 53  1  0  0  0
 49 64  1  0  0  0
 49120  1  0  0  0
 50 51  1  0  0  0
 50121  1  0  0  0
 50122  1  0  0  0
 51 52  1  0  0  0
 51123  1  0  0  0
 51124  1  0  0  0
 52125  1  0  0  0
 52126  1  0  0  0
 53 54  1  0  0  0
 54 55  2  0  0  0
 54127  1  0  0  0
 55 57  1  0  0  0
 55128  1  0  0  0
 56 69  2  0  0  0
 57 58  2  0  0  0
 57129  1  0  0  0
 58130  1  0  0  0
 59 60  1  0  0  0
 59 61  1  0  0  0
 59 62  1  0  0  0
 60131  1  0  0  0
 60132  1  0  0  0
 60133  1  0  0  0
 61134  1  0  0  0
 61135  1  0  0  0
 61136  1  0  0  0
 62137  1  0  0  0
 62138  1  0  0  0
 62139  1  0  0  0
 63 65  1  0  0  0
 63140  1  0  0  0
 63141  1  0  0  0
 63142  1  0  0  0
 64143  1  0  0  0
 65144  1  0  0  0
 68 82  1  0  0  0
 71 72  2  0  0  0
 71 74  1  0  0  0
 71145  1  0  0  0
 72 83  1  0  0  0
 72146  1  0  0  0
 73 74  2  0  0  0
 73 75  1  0  0  0
 73 81  1  0  0  0
 74 84  1  0  0  0
 75 83  2  0  0  0
 75 80  1  0  0  0
 76 77  2  0  0  0
 76 78  1  0  0  0
 76147  1  0  0  0
 77 79  1  0  0  0
 77 82  1  0  0  0
 78 80  1  0  0  0
 78148  1  0  0  0
 78149  1  0  0  0
 79 85  1  0  0  0
 79150  1  0  0  0
 79151  1  0  0  0
 80 85  1  0  0  0
 80152  1  0  0  0
 81153  1  0  0  0
 81154  1  0  0  0
 81155  1  0  0  0
 82156  1  0  0  0
 82157  1  0  0  0
 84158  1  0  0  0
 85159  1  0  0  0
 85160  1  0  0  0
M  CHG  1  85   1
M  ISO  4   1 100  68 101  82 101  84 100
M  END
> <chiral flag>
0

> <version>
0

> <s_m_source_file>
/data/baiqing/PycharmProjects/Reinvent-master-3.2/result/LINK_invent/BTK/process_docking_weight1_custom_product_contain_oxygen_bond_distance_aromatic_linkinvent_7_9_3/rearranged_h_0166.sdf

> <i_m_source_file_index>
6

> <r_mmod_Potential_Energy-OPLS-2005>
-315.0576171875

> <r_mmod_Stretch_Energy-OPLS-2005>
73.7667236328125

> <r_mmod_Bend_Energy-OPLS-2005>
137.72917175293

> <r_mmod_Torsional_Energy-OPLS-2005>
232.239685058594

> <r_mmod_Improper_Torsional_Energy-OPLS-2005>
5.1911301612854

> <r_mmod_Van_der_Waal_Energy-OPLS-2005>
163.724502563477

> <r_mmod_Electrostatic_Energy-OPLS-2005>
-531.966064453125

> <r_mmod_Solvation_Energy-OPLS-2005>
-443.949127197266

> <b_mmod_Minimization_Converged-OPLS-2005>
0

> <r_mmod_RMS_Derivative-OPLS-2005>
1.27924036979675

$$$$
6
                    3D
 Structure written by MMmdl.
159167  0  0  1  0            999 V2000
  -30.6367  -14.6263   20.4925 C   0  0  0  0  0  0
  -30.4332  -12.3788   19.4635 C   0  0  0  0  0  0
  -29.5101  -12.5005   18.2314 C   0  0  0  0  0  0
  -28.0321  -12.3447   18.6399 C   0  0  0  0  0  0
  -27.6547  -13.2189   19.8663 C   0  0  2  0  0  0
  -28.6963  -13.0776   20.9995 C   0  0  0  0  0  0
  -25.2572  -13.8180   20.5703 C   0  0  0  0  0  0
  -24.1834  -13.0440   20.9187 C   0  0  0  0  0  0
  -24.6405  -11.6915   20.8739 C   0  0  0  0  0  0
  -23.9077  -10.4290   21.0411 C   0  0  0  0  0  0
  -24.3627   -9.4208   21.9188 C   0  0  0  0  0  0
  -23.6295   -8.2243   22.0758 C   0  0  0  0  0  0
  -22.4277   -8.0276   21.3541 C   0  0  0  0  0  0
  -21.9910   -9.0265   20.4652 C   0  0  0  0  0  0
  -22.7249  -10.2139   20.3059 C   0  0  0  0  0  0
  -21.6858   -6.0734   22.5283 C   0  0  0  0  0  0
  -21.4021   -6.5639   23.8217 C   0  0  0  0  0  0
  -21.3651   -5.6796   24.9180 C   0  0  0  0  0  0
  -21.6038   -4.3056   24.7238 C   0  0  0  0  0  0
  -21.8816   -3.8144   23.4358 C   0  0  0  0  0  0
  -21.9198   -4.6960   22.3407 C   0  0  0  0  0  0
  -22.7855  -13.5232   21.1846 C   0  0  0  0  0  0
  -22.1662   -4.2139   21.0984 F   0  0  0  0  0  0
  -21.5621   -3.4543   25.7755 F   0  0  0  0  0  0
  -30.0171  -13.4047   20.4416 N   0  0  0  0  0  0
  -26.3003  -12.9365   20.3330 N   0  0  0  0  0  0
  -25.9328  -11.6514   20.5750 N   0  0  0  0  0  0
  -22.0496  -12.8233   22.0411 N   0  0  0  0  0  0
  -25.4301  -15.1903   20.4140 N   0  0  0  0  0  0
  -31.7857  -14.7765   20.0638 O   0  0  0  0  0  0
  -21.6631   -6.8883   21.4243 O   0  0  0  0  0  0
  -22.3537  -14.5542   20.6703 O   0  0  0  0  0  0
  -24.6260  -31.8607   23.2024 C   0  0  0  0  0  0
  -25.9126  -32.4782   23.8345 C   0  0  1  0  0  0
  -27.2163  -27.3319   20.1138 C   0  0  0  0  0  0
  -25.5956  -33.8574   24.2297 N   0  0  0  0  0  0
  -23.4202  -30.4861   21.5414 C   0  0  2  0  0  0
  -24.8708  -28.9545   20.0948 C   0  0  0  0  0  0
  -22.7486  -29.4626   22.4878 C   0  0  0  0  0  0
  -18.0304  -28.1390   22.8491 C   0  0  0  0  0  0
  -24.1494  -36.7283   23.2627 C   0  0  0  0  0  0
  -25.9607  -30.7959   21.3749 C   0  0  0  0  0  0
  -26.0390  -29.4279   20.7101 C   0  0  0  0  0  0
  -27.2193  -28.6245   20.7194 C   0  0  0  0  0  0
  -26.0417  -26.9251   19.4450 C   0  0  0  0  0  0
  -24.8737  -27.7082   19.4505 C   0  0  0  0  0  0
  -23.6354  -29.8286   20.1534 C   0  0  0  0  0  0
  -25.4114  -36.3078   24.0335 C   0  0  1  0  0  0
  -20.5906  -28.3694   23.1263 C   0  0  2  0  0  0
  -20.6785  -26.9408   22.5398 C   0  0  0  0  0  0
  -19.5757  -26.6392   21.5203 C   0  0  0  0  0  0
  -18.1946  -26.7945   22.1625 C   0  0  0  0  0  0
  -19.1561  -28.8859   23.2875 C   0  0  0  0  0  0
  -18.9480  -30.1462   23.8882 C   0  0  0  0  0  0
  -17.6471  -30.6583   24.0560 C   0  0  0  0  0  0
  -25.9044  -34.9450   23.5111 C   0  0  0  0  0  0
  -16.5363  -29.9079   23.6322 C   0  0  0  0  0  0
  -16.7294  -28.6499   23.0343 C   0  0  0  0  0  0
  -26.4519  -31.6577   25.0701 C   0  0  0  0  0  0
  -25.3769  -31.3753   26.1458 C   0  0  0  0  0  0
  -27.0314  -30.2977   24.6149 C   0  0  0  0  0  0
  -27.6102  -32.4284   25.7452 C   0  0  0  0  0  0
  -27.5591  -37.1779   24.8457 C   0  0  0  0  0  0
  -21.4198  -29.3048   22.3641 N   0  0  0  0  0  0
  -26.4286  -37.3781   23.9431 N   0  0  0  0  0  0
  -24.6873  -31.0632   22.0968 N   0  0  0  0  0  0
  -23.4224  -28.8153   23.2941 O   0  0  0  0  0  0
  -28.2136  -26.3592   20.2806 O   0  0  0  0  0  0
  -26.5580  -34.8919   22.4658 O   0  0  0  0  0  0
  -23.5428  -32.1402   23.7352 O   0  0  0  0  0  0
  -29.8138  -18.8721   19.2522 C   0  0  0  0  0  0
  -29.9370  -17.4417   19.2089 C   0  0  0  0  0  0
  -29.7367  -19.2625   20.5663 C   0  0  0  0  0  0
  -29.9284  -17.0083   20.5072 C   0  0  0  0  0  0
  -27.7241  -25.2567   21.0119 C   0  0  0  0  0  0
  -28.0001  -23.9083   21.1367 C   0  0  0  0  0  0
  -29.0865  -23.0616   20.5693 C   0  0  0  0  0  0
  -30.4900  -20.0459   23.6928 C   0  0  0  0  0  0
  -31.6749  -20.9804   23.8019 C   0  0  0  0  0  0
  -29.3553  -20.5022   22.7837 C   0  0  0  0  0  0
  -29.7314  -20.6447   21.2801 C   0  0  2  0  0  0
  -30.4362  -18.9663   24.3526 N   0  0  0  0  0  0
  -29.8900  -15.6880   20.9252 N   0  0  0  0  0  0
  -28.8388  -21.7189   20.7228 N   0  0  0  0  0  0
  -30.1559  -23.4821   20.1292 O   0  0  0  0  0  0
  -29.7823  -18.1014   21.3439 O   0  0  0  0  0  0
  -27.1435  -23.2473   21.9400 O   0  0  0  0  0  0
  -31.4770  -12.4874   19.1644 H   0  0  0  0  0  0
  -30.3547  -11.3855   19.9075 H   0  0  0  0  0  0
  -29.7734  -11.7446   17.4901 H   0  0  0  0  0  0
  -29.6602  -13.4687   17.7509 H   0  0  0  0  0  0
  -27.8663  -11.2917   18.8727 H   0  0  0  0  0  0
  -27.3804  -12.5743   17.7955 H   0  0  0  0  0  0
  -27.6752  -14.2540   19.5250 H   0  0  0  0  0  0
  -28.6998  -12.0607   21.3933 H   0  0  0  0  0  0
  -28.4407  -13.7190   21.8436 H   0  0  0  0  0  0
  -25.2781   -9.5671   22.4755 H   0  0  0  0  0  0
  -24.0011   -7.4630   22.7468 H   0  0  0  0  0  0
  -21.0844   -8.8791   19.8954 H   0  0  0  0  0  0
  -22.3723  -10.9679   19.6156 H   0  0  0  0  0  0
  -21.2013   -7.6147   23.9724 H   0  0  0  0  0  0
  -21.1467   -6.0521   25.9086 H   0  0  0  0  0  0
  -22.0600   -2.7605   23.2873 H   0  0  0  0  0  0
  -22.4107  -11.9887   22.4797 H   0  0  0  0  0  0
  -21.1114  -13.1254   22.2613 H   0  0  0  0  0  0
  -24.6701  -15.8504   20.5388 H   0  0  0  0  0  0
  -26.2896  -15.6301   20.1103 H   0  0  0  0  0  0
  -26.7175  -32.5476   23.1073 H   0  0  0  0  0  0
  -25.0185  -33.9698   25.0496 H   0  0  0  0  0  0
  -22.7131  -31.3056   21.3990 H   0  0  0  0  0  0
  -23.3771  -35.9594   23.3271 H   0  0  0  0  0  0
  -24.3578  -36.8912   22.2036 H   0  0  0  0  0  0
  -23.7225  -37.6478   23.6649 H   0  0  0  0  0  0
  -26.0929  -31.5652   20.6131 H   0  0  0  0  0  0
  -26.8400  -30.8414   22.0042 H   0  0  0  0  0  0
  -28.1011  -28.9592   21.2469 H   0  0  0  0  0  0
  -26.0081  -25.9515   18.9756 H   0  0  0  0  0  0
  -23.9806  -27.3403   18.9642 H   0  0  0  0  0  0
  -23.7500  -30.6072   19.3984 H   0  0  0  0  0  0
  -22.7574  -29.2548   19.8528 H   0  0  0  0  0  0
  -25.1275  -36.1921   25.0820 H   0  0  0  0  0  0
  -21.0017  -28.3291   24.1377 H   0  0  0  0  0  0
  -20.5666  -26.2304   23.3603 H   0  0  0  0  0  0
  -21.6659  -26.7422   22.1197 H   0  0  0  0  0  0
  -19.6900  -25.6302   21.1239 H   0  0  0  0  0  0
  -19.6696  -27.3187   20.6720 H   0  0  0  0  0  0
  -17.4208  -26.6693   21.4036 H   0  0  0  0  0  0
  -18.0329  -26.0086   22.9012 H   0  0  0  0  0  0
  -19.7949  -30.7302   24.2234 H   0  0  0  0  0  0
  -17.5020  -31.6264   24.5174 H   0  0  0  0  0  0
  -15.5358  -30.2966   23.7661 H   0  0  0  0  0  0
  -15.8697  -28.0812   22.7056 H   0  0  0  0  0  0
  -24.5897  -30.7139   25.7824 H   0  0  0  0  0  0
  -24.9025  -32.2951   26.4896 H   0  0  0  0  0  0
  -25.8121  -30.8927   27.0221 H   0  0  0  0  0  0
  -26.2854  -29.6738   24.1216 H   0  0  0  0  0  0
  -27.4041  -29.7227   25.4638 H   0  0  0  0  0  0
  -27.8723  -30.4226   23.9321 H   0  0  0  0  0  0
  -27.2758  -33.3617   26.1988 H   0  0  0  0  0  0
  -28.3934  -32.6782   25.0284 H   0  0  0  0  0  0
  -28.0735  -31.8421   26.5394 H   0  0  0  0  0  0
  -28.2592  -38.0089   24.7558 H   0  0  0  0  0  0
  -28.1110  -36.2642   24.6223 H   0  0  0  0  0  0
  -27.2325  -37.1360   25.8855 H   0  0  0  0  0  0
  -20.9349  -29.8781   21.6872 H   0  0  0  0  0  0
  -26.0178  -38.2850   24.1478 H   0  0  0  0  0  0
  -29.8085  -19.5465   18.4082 H   0  0  0  0  0  0
  -30.0066  -16.8184   18.3281 H   0  0  0  0  0  0
  -26.8904  -25.6015   21.6127 H   0  0  0  0  0  0
  -31.4365  -21.9650   23.3988 H   0  0  0  0  0  0
  -32.5249  -20.5818   23.2485 H   0  0  0  0  0  0
  -31.9663  -21.1090   24.8445 H   0  0  0  0  0  0
  -29.0248  -21.4622   23.1815 H   0  0  0  0  0  0
  -28.4965  -19.8383   22.8949 H   0  0  0  0  0  0
  -30.7459  -21.0419   21.2076 H   0  0  0  0  0  0
  -31.2622  -18.8176   24.9239 H   0  0  0  0  0  0
  -29.0741  -15.4391   21.4624 H   0  0  0  0  0  0
  -27.8676  -21.5769   20.9711 H   0  0  0  0  0  0
  -26.5104  -23.8713   22.2658 H   0  0  0  0  0  0
  1 25  1  0  0  0
  1 30  2  0  0  0
  1 83  1  0  0  0
  2  3  1  0  0  0
  2 25  1  0  0  0
  2 88  1  0  0  0
  2 89  1  0  0  0
  3  4  1  0  0  0
  3 90  1  0  0  0
  3 91  1  0  0  0
  4  5  1  0  0  0
  4 92  1  0  0  0
  4 93  1  0  0  0
  5  6  1  0  0  0
  5 26  1  0  0  0
  5 94  1  0  0  0
  6 25  1  0  0  0
  6 95  1  0  0  0
  6 96  1  0  0  0
  7  8  2  0  0  0
  7 26  1  0  0  0
  7 29  1  0  0  0
  8  9  1  0  0  0
  8 22  1  0  0  0
  9 10  1  0  0  0
  9 27  2  0  0  0
 10 11  2  0  0  0
 10 15  1  0  0  0
 11 12  1  0  0  0
 11 97  1  0  0  0
 12 13  2  0  0  0
 12 98  1  0  0  0
 13 14  1  0  0  0
 13 31  1  0  0  0
 14 15  2  0  0  0
 14 99  1  0  0  0
 15100  1  0  0  0
 16 17  2  0  0  0
 16 21  1  0  0  0
 16 31  1  0  0  0
 17 18  1  0  0  0
 17101  1  0  0  0
 18 19  2  0  0  0
 18102  1  0  0  0
 19 20  1  0  0  0
 19 24  1  0  0  0
 20 21  2  0  0  0
 20103  1  0  0  0
 21 23  1  0  0  0
 22 28  1  0  0  0
 22 32  2  0  0  0
 26 27  1  0  0  0
 28104  1  0  0  0
 28105  1  0  0  0
 29106  1  0  0  0
 29107  1  0  0  0
 33 34  1  0  0  0
 33 66  1  0  0  0
 33 70  2  0  0  0
 34 36  1  0  0  0
 34 59  1  0  0  0
 34108  1  0  0  0
 35 44  2  0  0  0
 35 45  1  0  0  0
 35 68  1  0  0  0
 36 56  1  0  0  0
 36109  1  0  0  0
 37 39  1  0  0  0
 37 47  1  0  0  0
 37 66  1  0  0  0
 37110  1  0  0  0
 38 43  2  0  0  0
 38 46  1  0  0  0
 38 47  1  0  0  0
 39 64  1  0  0  0
 39 67  2  0  0  0
 40 52  1  0  0  0
 40 53  2  0  0  0
 40 58  1  0  0  0
 41111  1  0  0  0
 41112  1  0  0  0
 41113  1  0  0  0
 41 48  1  0  0  0
 42 43  1  0  0  0
 42 66  1  0  0  0
 42114  1  0  0  0
 42115  1  0  0  0
 43 44  1  0  0  0
 44116  1  0  0  0
 45 46  2  0  0  0
 45117  1  0  0  0
 46118  1  0  0  0
 47119  1  0  0  0
 47120  1  0  0  0
 48 56  1  0  0  0
 48 65  1  0  0  0
 48121  1  0  0  0
 49 50  1  0  0  0
 49 53  1  0  0  0
 49 64  1  0  0  0
 49122  1  0  0  0
 50 51  1  0  0  0
 50123  1  0  0  0
 50124  1  0  0  0
 51 52  1  0  0  0
 51125  1  0  0  0
 51126  1  0  0  0
 52127  1  0  0  0
 52128  1  0  0  0
 53 54  1  0  0  0
 54 55  2  0  0  0
 54129  1  0  0  0
 55 57  1  0  0  0
 55130  1  0  0  0
 56 69  2  0  0  0
 57 58  2  0  0  0
 57131  1  0  0  0
 58132  1  0  0  0
 59 60  1  0  0  0
 59 61  1  0  0  0
 59 62  1  0  0  0
 60133  1  0  0  0
 60134  1  0  0  0
 60135  1  0  0  0
 61136  1  0  0  0
 61137  1  0  0  0
 61138  1  0  0  0
 62139  1  0  0  0
 62140  1  0  0  0
 62141  1  0  0  0
 63 65  1  0  0  0
 63142  1  0  0  0
 63143  1  0  0  0
 63144  1  0  0  0
 64145  1  0  0  0
 65146  1  0  0  0
 68 75  1  0  0  0
 71 72  1  0  0  0
 71 73  2  0  0  0
 71147  1  0  0  0
 72 74  2  0  0  0
 72148  1  0  0  0
 73 81  1  0  0  0
 73 86  1  0  0  0
 74 83  1  0  0  0
 74 86  1  0  0  0
 75 76  2  0  0  0
 75149  1  0  0  0
 76 77  1  0  0  0
 76 87  1  0  0  0
 77 84  1  0  0  0
 77 85  2  0  0  0
 78 79  1  0  0  0
 78 80  1  0  0  0
 78 82  2  0  0  0
 79150  1  0  0  0
 79151  1  0  0  0
 79152  1  0  0  0
 80153  1  0  0  0
 80154  1  0  0  0
 80 81  1  0  0  0
 81 84  1  0  0  0
 81155  1  0  0  0
 82156  1  0  0  0
 83157  1  0  0  0
 84158  1  0  0  0
 87159  1  0  0  0
M  ISO  4   1 100  68 101  75 101  83 100
M  END
> <chiral flag>
0

> <version>
0

> <s_m_source_file>
/data/baiqing/PycharmProjects/Reinvent-master-3.2/result/LINK_invent/BTK/process_docking_weight1_custom_product_contain_oxygen_bond_distance_aromatic_linkinvent_7_9_3/rearranged_h_0166.sdf

> <i_m_source_file_index>
7

> <r_mmod_Potential_Energy-OPLS-2005>
1.73623633384705

> <r_mmod_Stretch_Energy-OPLS-2005>
72.4257354736328

> <r_mmod_Bend_Energy-OPLS-2005>
178.495178222656

> <r_mmod_Torsional_Energy-OPLS-2005>
274.051177978516

> <r_mmod_Improper_Torsional_Energy-OPLS-2005>
9.49284744262695

> <r_mmod_Van_der_Waal_Energy-OPLS-2005>
133.063995361328

> <r_mmod_Electrostatic_Energy-OPLS-2005>
-475.269012451172

> <r_mmod_Solvation_Energy-OPLS-2005>
-251.729187011719

> <b_mmod_Minimization_Converged-OPLS-2005>
0

> <r_mmod_RMS_Derivative-OPLS-2005>
2.451096534729

$$$$
7
                    3D
 Structure written by MMmdl.
166175  0  0  1  0            999 V2000
  -30.6134  -14.8102   20.4295 C   0  0  0  0  0  0
  -30.4236  -12.4939   19.4879 C   0  0  0  0  0  0
  -29.5096  -12.5086   18.2440 C   0  0  0  0  0  0
  -28.0386  -12.3243   18.6593 C   0  0  0  0  0  0
  -27.6335  -13.2422   19.8435 C   0  0  2  0  0  0
  -28.6767  -13.2283   20.9813 C   0  0  0  0  0  0
  -25.2477  -13.8217   20.5708 C   0  0  0  0  0  0
  -24.1783  -13.0447   20.9224 C   0  0  0  0  0  0
  -24.6391  -11.6929   20.8760 C   0  0  0  0  0  0
  -23.9078  -10.4295   21.0412 C   0  0  0  0  0  0
  -24.3627   -9.4211   21.9187 C   0  0  0  0  0  0
  -23.6304   -8.2244   22.0754 C   0  0  0  0  0  0
  -22.4285   -8.0281   21.3545 C   0  0  0  0  0  0
  -21.9920   -9.0258   20.4647 C   0  0  0  0  0  0
  -22.7250  -10.2140   20.3059 C   0  0  0  0  0  0
  -21.6856   -6.0740   22.5281 C   0  0  0  0  0  0
  -21.4014   -6.5643   23.8213 C   0  0  0  0  0  0
  -21.3658   -5.6798   24.9175 C   0  0  0  0  0  0
  -21.6044   -4.3060   24.7227 C   0  0  0  0  0  0
  -21.8819   -3.8150   23.4346 C   0  0  0  0  0  0
  -21.9194   -4.6968   22.3403 C   0  0  0  0  0  0
  -22.7803  -13.5216   21.1884 C   0  0  0  0  0  0
  -22.1663   -4.2154   21.0982 F   0  0  0  0  0  0
  -21.5629   -3.4542   25.7738 F   0  0  0  0  0  0
  -29.9694  -13.5863   20.3876 N   0  0  0  0  0  0
  -26.2901  -12.9439   20.3269 N   0  0  0  0  0  0
  -25.9321  -11.6572   20.5755 N   0  0  0  0  0  0
  -22.0460  -12.8197   22.0438 N   0  0  0  0  0  0
  -25.4159  -15.1943   20.4113 N   0  0  0  0  0  0
  -31.8187  -14.8195   20.1712 O   0  0  0  0  0  0
  -21.6646   -6.8883   21.4240 O   0  0  0  0  0  0
  -22.3482  -14.5520   20.6733 O   0  0  0  0  0  0
  -24.6335  -31.8515   23.1931 C   0  0  0  0  0  0
  -25.9145  -32.4735   23.8298 C   0  0  1  0  0  0
  -27.2180  -27.2218   20.1381 C   0  0  0  0  0  0
  -25.5929  -33.8540   24.2219 N   0  0  0  0  0  0
  -23.4326  -30.4724   21.5366 C   0  0  2  0  0  0
  -24.8801  -28.9109   20.1051 C   0  0  0  0  0  0
  -22.7524  -29.4585   22.4888 C   0  0  0  0  0  0
  -18.0303  -28.1395   22.8491 C   0  0  0  0  0  0
  -24.1485  -36.7272   23.2639 C   0  0  0  0  0  0
  -25.9801  -30.7510   21.3788 C   0  0  0  0  0  0
  -26.0505  -29.3692   20.7219 C   0  0  0  0  0  0
  -27.2184  -28.5364   20.7280 C   0  0  0  0  0  0
  -26.0229  -26.8368   19.4909 C   0  0  0  0  0  0
  -24.8733  -27.6550   19.4769 C   0  0  0  0  0  0
  -23.6527  -29.8028   20.1530 C   0  0  0  0  0  0
  -25.4113  -36.3052   24.0321 C   0  0  1  0  0  0
  -20.5910  -28.3710   23.1259 C   0  0  2  0  0  0
  -20.6790  -26.9424   22.5403 C   0  0  0  0  0  0
  -19.5753  -26.6387   21.5216 C   0  0  0  0  0  0
  -18.1937  -26.7935   22.1635 C   0  0  0  0  0  0
  -19.1558  -28.8869   23.2867 C   0  0  0  0  0  0
  -18.9477  -30.1472   23.8879 C   0  0  0  0  0  0
  -17.6474  -30.6588   24.0570 C   0  0  0  0  0  0
  -25.9065  -34.9431   23.5077 C   0  0  0  0  0  0
  -16.5367  -29.9085   23.6336 C   0  0  0  0  0  0
  -16.7288  -28.6509   23.0355 C   0  0  0  0  0  0
  -26.4504  -31.6575   25.0705 C   0  0  0  0  0  0
  -25.3716  -31.3756   26.1423 C   0  0  0  0  0  0
  -27.0360  -30.2981   24.6225 C   0  0  0  0  0  0
  -27.6045  -32.4330   25.7486 C   0  0  0  0  0  0
  -27.5580  -37.1781   24.8458 C   0  0  0  0  0  0
  -21.4226  -29.3048   22.3636 N   0  0  0  0  0  0
  -26.4277  -37.3762   23.9420 N   0  0  0  0  0  0
  -24.7012  -31.0455   22.0918 N   0  0  0  0  0  0
  -23.4210  -28.8140   23.3009 O   0  0  0  0  0  0
  -28.3034  -26.3093   20.2497 O   0  0  0  0  0  0
  -26.5647  -34.8923   22.4652 O   0  0  0  0  0  0
  -23.5473  -32.1358   23.7199 O   0  0  0  0  0  0
  -31.9489  -19.0591   19.5240 C   0  0  0  0  0  0
  -31.4938  -17.7463   19.7243 C   0  0  0  0  0  0
  -29.4259  -18.6537   20.5883 C   0  0  0  0  0  0
  -31.1953  -20.1978   19.8777 C   0  0  0  0  0  0
  -30.2440  -17.4554   20.3148 C   0  0  0  0  0  0
  -29.8540  -20.0468   20.3437 C   0  0  0  0  0  0
  -28.2660  -24.9366   19.8158 C   0  0  0  0  0  0
  -28.6698  -23.7831   20.4968 C   0  0  0  0  0  0
  -28.7343  -22.3867   19.8797 C   0  0  0  0  0  0
  -34.0932  -23.4311   19.0230 C   0  0  0  0  0  0
  -32.7555  -23.4106   18.2650 C   0  0  0  0  0  0
  -33.9161  -22.9663   20.4774 C   0  0  0  0  0  0
  -32.0951  -22.0225   18.3292 C   0  0  0  0  0  0
  -33.2646  -21.5743   20.5363 C   0  0  0  0  0  0
  -31.9115  -21.5569   19.7869 C   0  0  0  0  0  0
  -29.0979  -21.3030   20.6848 N   0  0  0  0  0  0
  -29.8776  -16.0053   20.5671 N   0  0  0  0  0  0
  -28.4752  -22.1873   18.6914 O   0  0  0  0  0  0
  -29.0704  -23.9107   21.7700 O   0  0  0  0  0  0
  -31.4648  -12.6077   19.1827 H   0  0  0  0  0  0
  -30.3686  -11.5303   19.9974 H   0  0  0  0  0  0
  -29.8033  -11.7220   17.5480 H   0  0  0  0  0  0
  -29.6272  -13.4522   17.7084 H   0  0  0  0  0  0
  -27.9086  -11.2789   18.9426 H   0  0  0  0  0  0
  -27.3789  -12.4919   17.8071 H   0  0  0  0  0  0
  -27.6129  -14.2539   19.4380 H   0  0  0  0  0  0
  -28.7267  -12.2480   21.4574 H   0  0  0  0  0  0
  -28.4011  -13.9375   21.7634 H   0  0  0  0  0  0
  -25.2772   -9.5686   22.4762 H   0  0  0  0  0  0
  -24.0017   -7.4630   22.7466 H   0  0  0  0  0  0
  -21.0855   -8.8773   19.8947 H   0  0  0  0  0  0
  -22.3706  -10.9678   19.6169 H   0  0  0  0  0  0
  -21.2004   -7.6151   23.9716 H   0  0  0  0  0  0
  -21.1481   -6.0529   25.9081 H   0  0  0  0  0  0
  -22.0598   -2.7611   23.2846 H   0  0  0  0  0  0
  -22.4094  -11.9862   22.4819 H   0  0  0  0  0  0
  -21.1072  -13.1200   22.2651 H   0  0  0  0  0  0
  -24.6454  -15.8461   20.5151 H   0  0  0  0  0  0
  -26.2576  -15.6311   20.0581 H   0  0  0  0  0  0
  -26.7216  -32.5367   23.1041 H   0  0  0  0  0  0
  -25.0069  -33.9669   25.0360 H   0  0  0  0  0  0
  -22.7297  -31.2949   21.3875 H   0  0  0  0  0  0
  -23.3756  -35.9594   23.3275 H   0  0  0  0  0  0
  -24.3585  -36.8919   22.2060 H   0  0  0  0  0  0
  -23.7237  -37.6463   23.6685 H   0  0  0  0  0  0
  -26.1244  -31.5077   20.6066 H   0  0  0  0  0  0
  -26.8562  -30.8019   22.0138 H   0  0  0  0  0  0
  -28.1109  -28.8760   21.2343 H   0  0  0  0  0  0
  -25.9410  -25.8683   19.0222 H   0  0  0  0  0  0
  -23.9758  -27.2974   18.9898 H   0  0  0  0  0  0
  -23.7810  -30.5774   19.3961 H   0  0  0  0  0  0
  -22.7694  -29.2388   19.8474 H   0  0  0  0  0  0
  -25.1296  -36.1878   25.0813 H   0  0  0  0  0  0
  -21.0012  -28.3294   24.1379 H   0  0  0  0  0  0
  -20.5685  -26.2333   23.3621 H   0  0  0  0  0  0
  -21.6659  -26.7434   22.1199 H   0  0  0  0  0  0
  -19.6906  -25.6292   21.1256 H   0  0  0  0  0  0
  -19.6674  -27.3200   20.6745 H   0  0  0  0  0  0
  -17.4207  -26.6694   21.4037 H   0  0  0  0  0  0
  -18.0327  -26.0075   22.9029 H   0  0  0  0  0  0
  -19.7951  -30.7306   24.2225 H   0  0  0  0  0  0
  -17.5023  -31.6262   24.5188 H   0  0  0  0  0  0
  -15.5366  -30.2986   23.7650 H   0  0  0  0  0  0
  -15.8698  -28.0821   22.7063 H   0  0  0  0  0  0
  -24.5873  -30.7123   25.7756 H   0  0  0  0  0  0
  -24.8935  -32.2946   26.4824 H   0  0  0  0  0  0
  -25.8015  -30.8944   27.0216 H   0  0  0  0  0  0
  -26.2953  -29.6718   24.1232 H   0  0  0  0  0  0
  -27.4018  -29.7255   25.4760 H   0  0  0  0  0  0
  -27.8845  -30.4251   23.9494 H   0  0  0  0  0  0
  -27.2636  -33.3641   26.2030 H   0  0  0  0  0  0
  -28.3872  -32.6871   25.0325 H   0  0  0  0  0  0
  -28.0698  -31.8481   26.5431 H   0  0  0  0  0  0
  -28.2559  -38.0116   24.7557 H   0  0  0  0  0  0
  -28.1112  -36.2651   24.6204 H   0  0  0  0  0  0
  -27.2312  -37.1334   25.8862 H   0  0  0  0  0  0
  -20.9414  -29.8769   21.6839 H   0  0  0  0  0  0
  -26.0140  -38.2818   24.1462 H   0  0  0  0  0  0
  -32.9404  -19.1819   19.1132 H   0  0  0  0  0  0
  -32.1754  -16.9709   19.4195 H   0  0  0  0  0  0
  -28.4444  -18.5032   21.0151 H   0  0  0  0  0  0
  -27.9192  -24.8694   18.7931 H   0  0  0  0  0  0
  -34.5174  -24.4360   19.0035 H   0  0  0  0  0  0
  -34.8121  -22.7845   18.5170 H   0  0  0  0  0  0
  -32.9113  -23.6991   17.2249 H   0  0  0  0  0  0
  -32.0824  -24.1554   18.6926 H   0  0  0  0  0  0
  -33.3020  -23.6855   21.0223 H   0  0  0  0  0  0
  -34.8832  -22.9457   20.9820 H   0  0  0  0  0  0
  -32.7014  -21.3014   17.7801 H   0  0  0  0  0  0
  -31.1289  -22.0577   17.8251 H   0  0  0  0  0  0
  -33.1142  -21.2886   21.5783 H   0  0  0  0  0  0
  -33.9596  -20.8474   20.1169 H   0  0  0  0  0  0
  -31.3305  -22.3161   20.3013 H   0  0  0  0  0  0
  -29.1091  -21.5486   21.6663 H   0  0  0  0  0  0
  -28.9146  -15.8515   20.8246 H   0  0  0  0  0  0
  -28.9961  -24.8305   21.9896 H   0  0  0  0  0  0
  1 25  1  0  0  0
  1 30  2  0  0  0
  1 87  1  0  0  0
  2  3  1  0  0  0
  2 25  1  0  0  0
  2 90  1  0  0  0
  2 91  1  0  0  0
  3  4  1  0  0  0
  3 92  1  0  0  0
  3 93  1  0  0  0
  4  5  1  0  0  0
  4 94  1  0  0  0
  4 95  1  0  0  0
  5  6  1  0  0  0
  5 26  1  0  0  0
  5 96  1  0  0  0
  6 25  1  0  0  0
  6 97  1  0  0  0
  6 98  1  0  0  0
  7  8  2  0  0  0
  7 26  1  0  0  0
  7 29  1  0  0  0
  8  9  1  0  0  0
  8 22  1  0  0  0
  9 10  1  0  0  0
  9 27  2  0  0  0
 10 11  2  0  0  0
 10 15  1  0  0  0
 11 12  1  0  0  0
 11 99  1  0  0  0
 12 13  2  0  0  0
 12100  1  0  0  0
 13 14  1  0  0  0
 13 31  1  0  0  0
 14 15  2  0  0  0
 14101  1  0  0  0
 15102  1  0  0  0
 16 17  2  0  0  0
 16 21  1  0  0  0
 16 31  1  0  0  0
 17 18  1  0  0  0
 17103  1  0  0  0
 18 19  2  0  0  0
 18104  1  0  0  0
 19 20  1  0  0  0
 19 24  1  0  0  0
 20 21  2  0  0  0
 20105  1  0  0  0
 21 23  1  0  0  0
 22 28  1  0  0  0
 22 32  2  0  0  0
 26 27  1  0  0  0
 28106  1  0  0  0
 28107  1  0  0  0
 29108  1  0  0  0
 29109  1  0  0  0
 33 34  1  0  0  0
 33 66  1  0  0  0
 33 70  2  0  0  0
 34 36  1  0  0  0
 34 59  1  0  0  0
 34110  1  0  0  0
 35 44  2  0  0  0
 35 45  1  0  0  0
 35 68  1  0  0  0
 36 56  1  0  0  0
 36111  1  0  0  0
 37 39  1  0  0  0
 37 47  1  0  0  0
 37 66  1  0  0  0
 37112  1  0  0  0
 38 43  2  0  0  0
 38 46  1  0  0  0
 38 47  1  0  0  0
 39 64  1  0  0  0
 39 67  2  0  0  0
 40 52  1  0  0  0
 40 53  2  0  0  0
 40 58  1  0  0  0
 41113  1  0  0  0
 41114  1  0  0  0
 41115  1  0  0  0
 41 48  1  0  0  0
 42 43  1  0  0  0
 42 66  1  0  0  0
 42116  1  0  0  0
 42117  1  0  0  0
 43 44  1  0  0  0
 44118  1  0  0  0
 45 46  2  0  0  0
 45119  1  0  0  0
 46120  1  0  0  0
 47121  1  0  0  0
 47122  1  0  0  0
 48 56  1  0  0  0
 48 65  1  0  0  0
 48123  1  0  0  0
 49 50  1  0  0  0
 49 53  1  0  0  0
 49 64  1  0  0  0
 49124  1  0  0  0
 50 51  1  0  0  0
 50125  1  0  0  0
 50126  1  0  0  0
 51 52  1  0  0  0
 51127  1  0  0  0
 51128  1  0  0  0
 52129  1  0  0  0
 52130  1  0  0  0
 53 54  1  0  0  0
 54 55  2  0  0  0
 54131  1  0  0  0
 55 57  1  0  0  0
 55132  1  0  0  0
 56 69  2  0  0  0
 57 58  2  0  0  0
 57133  1  0  0  0
 58134  1  0  0  0
 59 60  1  0  0  0
 59 61  1  0  0  0
 59 62  1  0  0  0
 60135  1  0  0  0
 60136  1  0  0  0
 60137  1  0  0  0
 61138  1  0  0  0
 61139  1  0  0  0
 61140  1  0  0  0
 62141  1  0  0  0
 62142  1  0  0  0
 62143  1  0  0  0
 63 65  1  0  0  0
 63144  1  0  0  0
 63145  1  0  0  0
 63146  1  0  0  0
 64147  1  0  0  0
 65148  1  0  0  0
 68 77  1  0  0  0
 71 72  2  0  0  0
 71 74  1  0  0  0
 71149  1  0  0  0
 72 75  1  0  0  0
 72150  1  0  0  0
 73 75  2  0  0  0
 73 76  1  0  0  0
 73151  1  0  0  0
 74 76  2  0  0  0
 74 85  1  0  0  0
 75 87  1  0  0  0
 76 86  1  0  0  0
 77 78  2  0  0  0
 77152  1  0  0  0
 78 79  1  0  0  0
 78 89  1  0  0  0
 79 86  1  0  0  0
 79 88  2  0  0  0
 80 81  1  0  0  0
 80 82  1  0  0  0
 80153  1  0  0  0
 80154  1  0  0  0
 81 83  1  0  0  0
 81155  1  0  0  0
 81156  1  0  0  0
 82 84  1  0  0  0
 82157  1  0  0  0
 82158  1  0  0  0
 83 85  1  0  0  0
 83159  1  0  0  0
 83160  1  0  0  0
 84 85  1  0  0  0
 84161  1  0  0  0
 84162  1  0  0  0
 85163  1  0  0  0
 86164  1  0  0  0
 87165  1  0  0  0
 89166  1  0  0  0
M  ISO  4   1 100  68 101  77 101  87 100
M  END
> <chiral flag>
0

> <version>
0

> <s_m_source_file>
/data/baiqing/PycharmProjects/Reinvent-master-3.2/result/LINK_invent/BTK/process_docking_weight1_custom_product_contain_oxygen_bond_distance_aromatic_linkinvent_7_9_3/rearranged_h_0166.sdf

> <i_m_source_file_index>
8

> <r_mmod_Potential_Energy-OPLS-2005>
268.706634521484

> <r_mmod_Stretch_Energy-OPLS-2005>
161.391021728516

> <r_mmod_Bend_Energy-OPLS-2005>
179.887344360352

> <r_mmod_Torsional_Energy-OPLS-2005>
277.500274658203

> <r_mmod_Improper_Torsional_Energy-OPLS-2005>
6.74126052856445

> <r_mmod_Van_der_Waal_Energy-OPLS-2005>
151.665374755859

> <r_mmod_Electrostatic_Energy-OPLS-2005>
-405.779632568359

> <r_mmod_Solvation_Energy-OPLS-2005>
-219.245300292969

> <b_mmod_Minimization_Converged-OPLS-2005>
0

> <r_mmod_RMS_Derivative-OPLS-2005>
1.14847099781036

$$$$
8
                    3D
 Structure written by MMmdl.
149157  0  0  1  0            999 V2000
  -30.5896  -14.7002   20.4907 C   0  0  0  0  0  0
  -30.4470  -12.4300   19.4615 C   0  0  0  0  0  0
  -29.5142  -12.5143   18.2311 C   0  0  0  0  0  0
  -28.0380  -12.3400   18.6425 C   0  0  0  0  0  0
  -27.6525  -13.2179   19.8622 C   0  0  2  0  0  0
  -28.6974  -13.0917   20.9944 C   0  0  0  0  0  0
  -25.2562  -13.8167   20.5681 C   0  0  0  0  0  0
  -24.1832  -13.0435   20.9198 C   0  0  0  0  0  0
  -24.6399  -11.6905   20.8742 C   0  0  0  0  0  0
  -23.9066  -10.4290   21.0405 C   0  0  0  0  0  0
  -24.3617   -9.4205   21.9183 C   0  0  0  0  0  0
  -23.6289   -8.2244   22.0755 C   0  0  0  0  0  0
  -22.4272   -8.0281   21.3546 C   0  0  0  0  0  0
  -21.9905   -9.0256   20.4649 C   0  0  0  0  0  0
  -22.7236  -10.2134   20.3057 C   0  0  0  0  0  0
  -21.6855   -6.0732   22.5277 C   0  0  0  0  0  0
  -21.4017   -6.5637   23.8209 C   0  0  0  0  0  0
  -21.3658   -5.6790   24.9172 C   0  0  0  0  0  0
  -21.6042   -4.3053   24.7224 C   0  0  0  0  0  0
  -21.8820   -3.8144   23.4345 C   0  0  0  0  0  0
  -21.9193   -4.6960   22.3401 C   0  0  0  0  0  0
  -22.7855  -13.5232   21.1854 C   0  0  0  0  0  0
  -22.1662   -4.2146   21.0979 F   0  0  0  0  0  0
  -21.5626   -3.4537   25.7737 F   0  0  0  0  0  0
  -30.0074  -13.4562   20.4311 N   0  0  0  0  0  0
  -26.2986  -12.9347   20.3307 N   0  0  0  0  0  0
  -25.9328  -11.6503   20.5753 N   0  0  0  0  0  0
  -22.0492  -12.8231   22.0409 N   0  0  0  0  0  0
  -25.4272  -15.1889   20.4071 N   0  0  0  0  0  0
  -31.7477  -14.8804   20.1035 O   0  0  0  0  0  0
  -21.6640   -6.8876   21.4239 O   0  0  0  0  0  0
  -22.3543  -14.5536   20.6694 O   0  0  0  0  0  0
  -24.6283  -31.8571   23.2004 C   0  0  0  0  0  0
  -25.9119  -32.4765   23.8344 C   0  0  1  0  0  0
  -27.2270  -27.2915   20.1278 C   0  0  0  0  0  0
  -25.5923  -33.8566   24.2270 N   0  0  0  0  0  0
  -23.4248  -30.4788   21.5430 C   0  0  2  0  0  0
  -24.8745  -28.9283   20.1118 C   0  0  0  0  0  0
  -22.7491  -29.4604   22.4924 C   0  0  0  0  0  0
  -18.0288  -28.1387   22.8486 C   0  0  0  0  0  0
  -24.1489  -36.7290   23.2637 C   0  0  0  0  0  0
  -25.9678  -30.7784   21.3775 C   0  0  0  0  0  0
  -26.0434  -29.4018   20.7228 C   0  0  0  0  0  0
  -27.2232  -28.5941   20.7235 C   0  0  0  0  0  0
  -26.0394  -26.8805   19.4840 C   0  0  0  0  0  0
  -24.8751  -27.6732   19.4831 C   0  0  0  0  0  0
  -23.6430  -29.8116   20.1592 C   0  0  0  0  0  0
  -25.4112  -36.3076   24.0329 C   0  0  1  0  0  0
  -20.5889  -28.3693   23.1277 C   0  0  2  0  0  0
  -20.6777  -26.9413   22.5408 C   0  0  0  0  0  0
  -19.5752  -26.6383   21.5212 C   0  0  0  0  0  0
  -18.1932  -26.7929   22.1626 C   0  0  0  0  0  0
  -19.1541  -28.8858   23.2875 C   0  0  0  0  0  0
  -18.9463  -30.1458   23.8894 C   0  0  0  0  0  0
  -17.6462  -30.6588   24.0561 C   0  0  0  0  0  0
  -25.9051  -34.9445   23.5103 C   0  0  0  0  0  0
  -16.5353  -29.9085   23.6329 C   0  0  0  0  0  0
  -16.7274  -28.6502   23.0353 C   0  0  0  0  0  0
  -26.4496  -31.6582   25.0722 C   0  0  0  0  0  0
  -25.3725  -31.3736   26.1450 C   0  0  0  0  0  0
  -27.0334  -30.2997   24.6196 C   0  0  0  0  0  0
  -27.6056  -32.4316   25.7491 C   0  0  0  0  0  0
  -27.5582  -37.1795   24.8460 C   0  0  0  0  0  0
  -21.4200  -29.3042   22.3669 N   0  0  0  0  0  0
  -26.4288  -37.3774   23.9412 N   0  0  0  0  0  0
  -24.6924  -31.0554   22.0971 N   0  0  0  0  0  0
  -23.4199  -28.8145   23.3017 O   0  0  0  0  0  0
  -28.3239  -26.4076   20.1485 O   0  0  0  0  0  0
  -26.5623  -34.8917   22.4672 O   0  0  0  0  0  0
  -23.5439  -32.1383   23.7311 O   0  0  0  0  0  0
  -30.8256  -17.9884   20.0999 C   0  0  0  0  0  0
  -28.6807  -17.9878   21.1175 C   0  0  0  0  0  0
  -29.7907  -17.2101   20.6858 C   0  0  0  0  0  0
  -30.6985  -19.4125   19.9790 C   0  0  0  0  0  0
  -29.5374  -20.1040   20.4383 C   0  0  0  0  0  0
  -28.1001  -25.0329   20.4384 C   0  0  0  0  0  0
  -28.9377  -23.9592   20.1961 C   0  0  0  0  0  0
  -28.5742  -22.5405   20.5605 C   0  0  0  0  0  0
  -28.5526  -19.3483   21.0048 N   0  0  0  0  0  0
  -29.7592  -15.7382   20.8546 N   0  0  0  0  0  0
  -29.5046  -21.5691   20.2582 N   0  0  0  0  0  0
  -27.5023  -22.2552   21.1008 O   0  0  0  0  0  0
  -30.1240  -24.1831   19.6120 O   0  0  0  0  0  0
  -31.7048  -20.1217   19.4100 F   0  0  0  0  0  0
  -31.4855  -12.5721   19.1576 H   0  0  0  0  0  0
  -30.4009  -11.4380   19.9135 H   0  0  0  0  0  0
  -29.7894  -11.7566   17.4961 H   0  0  0  0  0  0
  -29.6448  -13.4791   17.7382 H   0  0  0  0  0  0
  -27.8852  -11.2873   18.8834 H   0  0  0  0  0  0
  -27.3824  -12.5563   17.7980 H   0  0  0  0  0  0
  -27.6639  -14.2496   19.5105 H   0  0  0  0  0  0
  -28.7242  -12.0719   21.3814 H   0  0  0  0  0  0
  -28.4320  -13.7231   21.8438 H   0  0  0  0  0  0
  -25.2763   -9.5679   22.4754 H   0  0  0  0  0  0
  -23.9998   -7.4635   22.7475 H   0  0  0  0  0  0
  -21.0835   -8.8775   19.8957 H   0  0  0  0  0  0
  -22.3695  -10.9672   19.6165 H   0  0  0  0  0  0
  -21.2013   -7.6145   23.9711 H   0  0  0  0  0  0
  -21.1478   -6.0521   25.9073 H   0  0  0  0  0  0
  -22.0601   -2.7605   23.2849 H   0  0  0  0  0  0
  -22.4102  -11.9894   22.4806 H   0  0  0  0  0  0
  -21.1110  -13.1264   22.2609 H   0  0  0  0  0  0
  -24.6516  -15.8365   20.4955 H   0  0  0  0  0  0
  -26.2569  -15.6182   20.0194 H   0  0  0  0  0  0
  -26.7186  -32.5430   23.1090 H   0  0  0  0  0  0
  -25.0059  -33.9706   25.0408 H   0  0  0  0  0  0
  -22.7198  -31.2998   21.3972 H   0  0  0  0  0  0
  -23.3755  -35.9618   23.3286 H   0  0  0  0  0  0
  -24.3584  -36.8925   22.2055 H   0  0  0  0  0  0
  -23.7235  -37.6485   23.6669 H   0  0  0  0  0  0
  -26.1015  -31.5390   20.6071 H   0  0  0  0  0  0
  -26.8471  -30.8300   22.0079 H   0  0  0  0  0  0
  -28.1200  -28.9503   21.2110 H   0  0  0  0  0  0
  -26.0013  -25.9189   18.9922 H   0  0  0  0  0  0
  -23.9815  -27.3060   18.9973 H   0  0  0  0  0  0
  -23.7643  -30.5873   19.4022 H   0  0  0  0  0  0
  -22.7627  -29.2420   19.8559 H   0  0  0  0  0  0
  -25.1289  -36.1927   25.0822 H   0  0  0  0  0  0
  -20.9976  -28.3270   24.1399 H   0  0  0  0  0  0
  -20.5680  -26.2300   23.3609 H   0  0  0  0  0  0
  -21.6647  -26.7444   22.1201 H   0  0  0  0  0  0
  -19.6913  -25.6293   21.1243 H   0  0  0  0  0  0
  -19.6686  -27.3192   20.6741 H   0  0  0  0  0  0
  -17.4199  -26.6669   21.4033 H   0  0  0  0  0  0
  -18.0337  -26.0074   22.9027 H   0  0  0  0  0  0
  -19.7938  -30.7276   24.2262 H   0  0  0  0  0  0
  -17.5016  -31.6269   24.5161 H   0  0  0  0  0  0
  -15.5354  -30.2987   23.7656 H   0  0  0  0  0  0
  -15.8673  -28.0819   22.7073 H   0  0  0  0  0  0
  -24.5872  -30.7120   25.7776 H   0  0  0  0  0  0
  -24.8953  -32.2912   26.4899 H   0  0  0  0  0  0
  -25.8037  -30.8881   27.0213 H   0  0  0  0  0  0
  -26.2910  -29.6747   24.1216 H   0  0  0  0  0  0
  -27.4013  -29.7256   25.4712 H   0  0  0  0  0  0
  -27.8792  -30.4270   23.9435 H   0  0  0  0  0  0
  -27.2669  -33.3621   26.2063 H   0  0  0  0  0  0
  -28.3867  -32.6868   25.0317 H   0  0  0  0  0  0
  -28.0720  -31.8443   26.5411 H   0  0  0  0  0  0
  -28.2583  -38.0109   24.7530 H   0  0  0  0  0  0
  -28.1094  -36.2642   24.6252 H   0  0  0  0  0  0
  -27.2305  -37.1405   25.8863 H   0  0  0  0  0  0
  -20.9382  -29.8763   21.6874 H   0  0  0  0  0  0
  -26.0169  -38.2845   24.1425 H   0  0  0  0  0  0
  -31.7207  -17.5108   19.7313 H   0  0  0  0  0  0
  -27.8365  -17.4918   21.5740 H   0  0  0  0  0  0
  -27.1390  -24.8821   20.9139 H   0  0  0  0  0  0
  -28.8836  -15.3906   21.2182 H   0  0  0  0  0  0
  -30.3338  -21.9437   19.8186 H   0  0  0  0  0  0
  -30.1808  -25.1182   19.4581 H   0  0  0  0  0  0
  1 25  1  0  0  0
  1 30  2  0  0  0
  1 80  1  0  0  0
  2  3  1  0  0  0
  2 25  1  0  0  0
  2 85  1  0  0  0
  2 86  1  0  0  0
  3  4  1  0  0  0
  3 87  1  0  0  0
  3 88  1  0  0  0
  4  5  1  0  0  0
  4 89  1  0  0  0
  4 90  1  0  0  0
  5  6  1  0  0  0
  5 26  1  0  0  0
  5 91  1  0  0  0
  6 25  1  0  0  0
  6 92  1  0  0  0
  6 93  1  0  0  0
  7  8  2  0  0  0
  7 26  1  0  0  0
  7 29  1  0  0  0
  8  9  1  0  0  0
  8 22  1  0  0  0
  9 10  1  0  0  0
  9 27  2  0  0  0
 10 11  2  0  0  0
 10 15  1  0  0  0
 11 12  1  0  0  0
 11 94  1  0  0  0
 12 13  2  0  0  0
 12 95  1  0  0  0
 13 14  1  0  0  0
 13 31  1  0  0  0
 14 15  2  0  0  0
 14 96  1  0  0  0
 15 97  1  0  0  0
 16 17  2  0  0  0
 16 21  1  0  0  0
 16 31  1  0  0  0
 17 18  1  0  0  0
 17 98  1  0  0  0
 18 19  2  0  0  0
 18 99  1  0  0  0
 19 20  1  0  0  0
 19 24  1  0  0  0
 20 21  2  0  0  0
 20100  1  0  0  0
 21 23  1  0  0  0
 22 28  1  0  0  0
 22 32  2  0  0  0
 26 27  1  0  0  0
 28101  1  0  0  0
 28102  1  0  0  0
 29103  1  0  0  0
 29104  1  0  0  0
 33 34  1  0  0  0
 33 66  1  0  0  0
 33 70  2  0  0  0
 34 36  1  0  0  0
 34 59  1  0  0  0
 34105  1  0  0  0
 35 44  2  0  0  0
 35 45  1  0  0  0
 35 68  1  0  0  0
 36 56  1  0  0  0
 36106  1  0  0  0
 37 39  1  0  0  0
 37 47  1  0  0  0
 37 66  1  0  0  0
 37107  1  0  0  0
 38 43  2  0  0  0
 38 46  1  0  0  0
 38 47  1  0  0  0
 39 64  1  0  0  0
 39 67  2  0  0  0
 40 52  1  0  0  0
 40 53  2  0  0  0
 40 58  1  0  0  0
 41108  1  0  0  0
 41109  1  0  0  0
 41110  1  0  0  0
 41 48  1  0  0  0
 42 43  1  0  0  0
 42 66  1  0  0  0
 42111  1  0  0  0
 42112  1  0  0  0
 43 44  1  0  0  0
 44113  1  0  0  0
 45 46  2  0  0  0
 45114  1  0  0  0
 46115  1  0  0  0
 47116  1  0  0  0
 47117  1  0  0  0
 48 56  1  0  0  0
 48 65  1  0  0  0
 48118  1  0  0  0
 49 50  1  0  0  0
 49 53  1  0  0  0
 49 64  1  0  0  0
 49119  1  0  0  0
 50 51  1  0  0  0
 50120  1  0  0  0
 50121  1  0  0  0
 51 52  1  0  0  0
 51122  1  0  0  0
 51123  1  0  0  0
 52124  1  0  0  0
 52125  1  0  0  0
 53 54  1  0  0  0
 54 55  2  0  0  0
 54126  1  0  0  0
 55 57  1  0  0  0
 55127  1  0  0  0
 56 69  2  0  0  0
 57 58  2  0  0  0
 57128  1  0  0  0
 58129  1  0  0  0
 59 60  1  0  0  0
 59 61  1  0  0  0
 59 62  1  0  0  0
 60130  1  0  0  0
 60131  1  0  0  0
 60132  1  0  0  0
 61133  1  0  0  0
 61134  1  0  0  0
 61135  1  0  0  0
 62136  1  0  0  0
 62137  1  0  0  0
 62138  1  0  0  0
 63 65  1  0  0  0
 63139  1  0  0  0
 63140  1  0  0  0
 63141  1  0  0  0
 64142  1  0  0  0
 65143  1  0  0  0
 68 76  1  0  0  0
 71 73  2  0  0  0
 71 74  1  0  0  0
 71144  1  0  0  0
 72 73  1  0  0  0
 72 79  2  0  0  0
 72145  1  0  0  0
 73 80  1  0  0  0
 74 75  2  0  0  0
 74 84  1  0  0  0
 75 79  1  0  0  0
 75 81  1  0  0  0
 76 77  2  0  0  0
 76146  1  0  0  0
 77 78  1  0  0  0
 77 83  1  0  0  0
 78 81  1  0  0  0
 78 82  2  0  0  0
 80147  1  0  0  0
 81148  1  0  0  0
 83149  1  0  0  0
M  ISO  4   1 100  68 101  76 101  80 100
M  END
> <chiral flag>
0

> <version>
0

> <s_m_source_file>
/data/baiqing/PycharmProjects/Reinvent-master-3.2/result/LINK_invent/BTK/process_docking_weight1_custom_product_contain_oxygen_bond_distance_aromatic_linkinvent_7_9_3/rearranged_h_0166.sdf

> <i_m_source_file_index>
9

> <r_mmod_Potential_Energy-OPLS-2005>
-153.889251708984

> <r_mmod_Stretch_Energy-OPLS-2005>
92.8927536010742

> <r_mmod_Bend_Energy-OPLS-2005>
146.847702026367

> <r_mmod_Torsional_Energy-OPLS-2005>
197.890487670898

> <r_mmod_Improper_Torsional_Energy-OPLS-2005>
3.99383687973022

> <r_mmod_Van_der_Waal_Energy-OPLS-2005>
145.466796875

> <r_mmod_Electrostatic_Energy-OPLS-2005>
-571.767456054688

> <r_mmod_Solvation_Energy-OPLS-2005>
-236.277984619141

> <b_mmod_Minimization_Converged-OPLS-2005>
0

> <r_mmod_RMS_Derivative-OPLS-2005>
0.38497605919838

$$$$
9
                    3D
 Structure written by MMmdl.
162171  0  0  1  0            999 V2000
  -30.6611  -14.5402   20.5399 C   0  0  0  0  0  0
  -30.4326  -12.3371   19.4351 C   0  0  0  0  0  0
  -29.5020  -12.5045   18.2141 C   0  0  0  0  0  0
  -28.0222  -12.3592   18.6237 C   0  0  0  0  0  0
  -27.6597  -13.2077   19.8713 C   0  0  2  0  0  0
  -28.7029  -13.0093   20.9953 C   0  0  0  0  0  0
  -25.2585  -13.8157   20.5676 C   0  0  0  0  0  0
  -24.1845  -13.0437   20.9196 C   0  0  0  0  0  0
  -24.6399  -11.6903   20.8745 C   0  0  0  0  0  0
  -23.9064  -10.4291   21.0413 C   0  0  0  0  0  0
  -24.3614   -9.4206   21.9190 C   0  0  0  0  0  0
  -23.6290   -8.2242   22.0757 C   0  0  0  0  0  0
  -22.4273   -8.0283   21.3545 C   0  0  0  0  0  0
  -21.9911   -9.0256   20.4645 C   0  0  0  0  0  0
  -22.7241  -10.2134   20.3057 C   0  0  0  0  0  0
  -21.6851   -6.0739   22.5280 C   0  0  0  0  0  0
  -21.4011   -6.5641   23.8213 C   0  0  0  0  0  0
  -21.3657   -5.6794   24.9175 C   0  0  0  0  0  0
  -21.6046   -4.3057   24.7225 C   0  0  0  0  0  0
  -21.8819   -3.8150   23.4345 C   0  0  0  0  0  0
  -21.9190   -4.6966   22.3403 C   0  0  0  0  0  0
  -22.7865  -13.5235   21.1853 C   0  0  0  0  0  0
  -22.1660   -4.2154   21.0979 F   0  0  0  0  0  0
  -21.5629   -3.4540   25.7737 F   0  0  0  0  0  0
  -30.0294  -13.3333   20.4426 N   0  0  0  0  0  0
  -26.3015  -12.9326   20.3338 N   0  0  0  0  0  0
  -25.9324  -11.6489   20.5762 N   0  0  0  0  0  0
  -22.0495  -12.8222   22.0395 N   0  0  0  0  0  0
  -25.4301  -15.1875   20.4047 N   0  0  0  0  0  0
  -31.8080  -14.7117   20.1146 O   0  0  0  0  0  0
  -21.6635   -6.8882   21.4243 O   0  0  0  0  0  0
  -22.3557  -14.5547   20.6704 O   0  0  0  0  0  0
  -24.6190  -31.8642   23.2078 C   0  0  0  0  0  0
  -25.9067  -32.4800   23.8380 C   0  0  1  0  0  0
  -27.2319  -27.3855   20.0867 C   0  0  0  0  0  0
  -25.5911  -33.8599   24.2310 N   0  0  0  0  0  0
  -23.4087  -30.4885   21.5500 C   0  0  2  0  0  0
  -24.8539  -28.9530   20.1118 C   0  0  0  0  0  0
  -22.7434  -29.4635   22.4974 C   0  0  0  0  0  0
  -18.0275  -28.1370   22.8489 C   0  0  0  0  0  0
  -24.1487  -36.7302   23.2637 C   0  0  0  0  0  0
  -25.9435  -30.8121   21.3707 C   0  0  0  0  0  0
  -26.0177  -29.4434   20.7161 C   0  0  0  0  0  0
  -27.2041  -28.6635   20.7087 C   0  0  0  0  0  0
  -26.0419  -26.9279   19.4814 C   0  0  0  0  0  0
  -24.8627  -27.6937   19.4935 C   0  0  0  0  0  0
  -23.6186  -29.8248   20.1638 C   0  0  0  0  0  0
  -25.4109  -36.3095   24.0333 C   0  0  1  0  0  0
  -20.5867  -28.3664   23.1305 C   0  0  2  0  0  0
  -20.6762  -26.9394   22.5414 C   0  0  0  0  0  0
  -19.5740  -26.6379   21.5209 C   0  0  0  0  0  0
  -18.1918  -26.7918   22.1618 C   0  0  0  0  0  0
  -19.1525  -28.8834   23.2892 C   0  0  0  0  0  0
  -18.9453  -30.1440   23.8901 C   0  0  0  0  0  0
  -17.6455  -30.6576   24.0562 C   0  0  0  0  0  0
  -25.9040  -34.9462   23.5119 C   0  0  0  0  0  0
  -16.5346  -29.9077   23.6325 C   0  0  0  0  0  0
  -16.7265  -28.6493   23.0349 C   0  0  0  0  0  0
  -26.4479  -31.6590   25.0725 C   0  0  0  0  0  0
  -25.3736  -31.3696   26.1466 C   0  0  0  0  0  0
  -27.0330  -30.3035   24.6124 C   0  0  0  0  0  0
  -27.6037  -32.4321   25.7501 C   0  0  0  0  0  0
  -27.5576  -37.1808   24.8462 C   0  0  0  0  0  0
  -21.4155  -29.3029   22.3716 N   0  0  0  0  0  0
  -26.4289  -37.3785   23.9407 N   0  0  0  0  0  0
  -24.6755  -31.0700   22.1005 N   0  0  0  0  0  0
  -23.4188  -28.8172   23.3025 O   0  0  0  0  0  0
  -28.3893  -26.6131   20.1194 O   0  0  0  0  0  0
  -26.5603  -34.8918   22.4681 O   0  0  0  0  0  0
  -23.5371  -32.1416   23.7445 O   0  0  0  0  0  0
  -31.0756  -18.9955   20.3503 C   0  0  0  0  0  0
  -28.7912  -17.7271   20.9666 C   0  0  0  0  0  0
  -29.8659  -19.7284   20.4816 C   0  0  0  0  0  0
  -29.9916  -16.9760   20.8154 C   0  0  0  0  0  0
  -29.1922  -22.1431   21.2954 C   0  0  0  0  0  0
  -29.0800  -21.5634   18.8562 C   0  0  0  0  0  0
  -29.1922  -23.6668   20.9360 C   0  0  0  0  0  0
  -29.0730  -23.0800   18.5187 C   0  0  0  0  0  0
  -29.8001  -21.2506   20.1805 C   0  0  2  0  0  0
  -28.4522  -24.0103   19.6133 C   0  0  2  0  0  0
  -26.2298  -23.4448   18.7211 C   0  0  0  0  0  0
  -28.5998  -25.5291   19.1712 C   0  0  0  0  0  0
  -28.7157  -19.0767   20.7921 N   0  0  0  0  0  0
  -31.1399  -17.6431   20.5121 N   0  0  0  0  0  0
  -29.8829  -15.5520   20.9961 N   0  0  0  0  0  0
  -27.0683  -23.7095   19.8472 O   0  0  0  0  0  0
  -31.4760  -12.4472   19.1338 H   0  0  0  0  0  0
  -30.3478  -11.3304   19.8473 H   0  0  0  0  0  0
  -29.7501  -11.7687   17.4481 H   0  0  0  0  0  0
  -29.6623  -13.4835   17.7598 H   0  0  0  0  0  0
  -27.8387  -11.3042   18.8292 H   0  0  0  0  0  0
  -27.3722  -12.6224   17.7882 H   0  0  0  0  0  0
  -27.6948  -14.2515   19.5591 H   0  0  0  0  0  0
  -28.6929  -11.9753   21.3433 H   0  0  0  0  0  0
  -28.4584  -13.6118   21.8715 H   0  0  0  0  0  0
  -25.2760   -9.5679   22.4764 H   0  0  0  0  0  0
  -23.9998   -7.4633   22.7477 H   0  0  0  0  0  0
  -21.0845   -8.8776   19.8946 H   0  0  0  0  0  0
  -22.3709  -10.9673   19.6162 H   0  0  0  0  0  0
  -21.2003   -7.6149   23.9719 H   0  0  0  0  0  0
  -21.1479   -6.0523   25.9078 H   0  0  0  0  0  0
  -22.0599   -2.7612   23.2846 H   0  0  0  0  0  0
  -22.4092  -11.9864   22.4762 H   0  0  0  0  0  0
  -21.1113  -13.1251   22.2595 H   0  0  0  0  0  0
  -24.6538  -15.8345   20.4929 H   0  0  0  0  0  0
  -26.2548  -15.6147   20.0046 H   0  0  0  0  0  0
  -26.7134  -32.5495   23.1133 H   0  0  0  0  0  0
  -25.0077  -33.9754   25.0467 H   0  0  0  0  0  0
  -22.6987  -31.3065   21.4115 H   0  0  0  0  0  0
  -23.3748  -35.9637   23.3297 H   0  0  0  0  0  0
  -24.3583  -36.8921   22.2052 H   0  0  0  0  0  0
  -23.7243  -37.6506   23.6658 H   0  0  0  0  0  0
  -26.0646  -31.5767   20.6019 H   0  0  0  0  0  0
  -26.8278  -30.8626   21.9942 H   0  0  0  0  0  0
  -28.0994  -29.0361   21.1865 H   0  0  0  0  0  0
  -25.9933  -25.9662   19.0091 H   0  0  0  0  0  0
  -23.9679  -27.3056   19.0267 H   0  0  0  0  0  0
  -23.7284  -30.6012   19.4059 H   0  0  0  0  0  0
  -22.7410  -29.2475   19.8672 H   0  0  0  0  0  0
  -25.1286  -36.1955   25.0826 H   0  0  0  0  0  0
  -20.9949  -28.3231   24.1429 H   0  0  0  0  0  0
  -20.5658  -26.2271   23.3605 H   0  0  0  0  0  0
  -21.6633  -26.7425   22.1211 H   0  0  0  0  0  0
  -19.6899  -25.6295   21.1223 H   0  0  0  0  0  0
  -19.6677  -27.3202   20.6750 H   0  0  0  0  0  0
  -17.4189  -26.6674   21.4018 H   0  0  0  0  0  0
  -18.0311  -26.0053   22.9006 H   0  0  0  0  0  0
  -19.7932  -30.7253   24.2269 H   0  0  0  0  0  0
  -17.5012  -31.6254   24.5167 H   0  0  0  0  0  0
  -15.5347  -30.2979   23.7642 H   0  0  0  0  0  0
  -15.8667  -28.0812   22.7060 H   0  0  0  0  0  0
  -24.5916  -30.7035   25.7802 H   0  0  0  0  0  0
  -24.8922  -32.2850   26.4913 H   0  0  0  0  0  0
  -25.8083  -30.8869   27.0227 H   0  0  0  0  0  0
  -26.2896  -29.6789   24.1158 H   0  0  0  0  0  0
  -27.4084  -29.7273   25.4590 H   0  0  0  0  0  0
  -27.8731  -30.4357   23.9301 H   0  0  0  0  0  0
  -27.2639  -33.3613   26.2087 H   0  0  0  0  0  0
  -28.3847  -32.6894   25.0335 H   0  0  0  0  0  0
  -28.0706  -31.8446   26.5415 H   0  0  0  0  0  0
  -28.2586  -38.0112   24.7511 H   0  0  0  0  0  0
  -28.1077  -36.2640   24.6282 H   0  0  0  0  0  0
  -27.2295  -37.1453   25.8866 H   0  0  0  0  0  0
  -20.9319  -29.8778   21.6959 H   0  0  0  0  0  0
  -26.0170  -38.2859   24.1411 H   0  0  0  0  0  0
  -31.9974  -19.4916   20.0829 H   0  0  0  0  0  0
  -27.8614  -17.2331   21.2104 H   0  0  0  0  0  0
  -28.1690  -21.8237   21.4967 H   0  0  0  0  0  0
  -29.7439  -21.9923   22.2238 H   0  0  0  0  0  0
  -29.5660  -21.0200   18.0452 H   0  0  0  0  0  0
  -28.0636  -21.1768   18.9056 H   0  0  0  0  0  0
  -30.2254  -24.0092   20.8621 H   0  0  0  0  0  0
  -28.7514  -24.2344   21.7562 H   0  0  0  0  0  0
  -28.5901  -23.2346   17.5539 H   0  0  0  0  0  0
  -30.1075  -23.3857   18.3556 H   0  0  0  0  0  0
  -30.8361  -21.5717   20.0610 H   0  0  0  0  0  0
  -25.1860  -23.5352   19.0220 H   0  0  0  0  0  0
  -26.3604  -22.4332   18.3417 H   0  0  0  0  0  0
  -26.3981  -24.1341   17.8940 H   0  0  0  0  0  0
  -29.6406  -25.6619   18.8747 H   0  0  0  0  0  0
  -28.0575  -25.7129   18.2442 H   0  0  0  0  0  0
  -28.9856  -15.2412   21.3327 H   0  0  0  0  0  0
  1 25  1  0  0  0
  1 30  2  0  0  0
  1 85  1  0  0  0
  2  3  1  0  0  0
  2 25  1  0  0  0
  2 87  1  0  0  0
  2 88  1  0  0  0
  3  4  1  0  0  0
  3 89  1  0  0  0
  3 90  1  0  0  0
  4  5  1  0  0  0
  4 91  1  0  0  0
  4 92  1  0  0  0
  5  6  1  0  0  0
  5 26  1  0  0  0
  5 93  1  0  0  0
  6 25  1  0  0  0
  6 94  1  0  0  0
  6 95  1  0  0  0
  7  8  2  0  0  0
  7 26  1  0  0  0
  7 29  1  0  0  0
  8  9  1  0  0  0
  8 22  1  0  0  0
  9 10  1  0  0  0
  9 27  2  0  0  0
 10 11  2  0  0  0
 10 15  1  0  0  0
 11 12  1  0  0  0
 11 96  1  0  0  0
 12 13  2  0  0  0
 12 97  1  0  0  0
 13 14  1  0  0  0
 13 31  1  0  0  0
 14 15  2  0  0  0
 14 98  1  0  0  0
 15 99  1  0  0  0
 16 17  2  0  0  0
 16 21  1  0  0  0
 16 31  1  0  0  0
 17 18  1  0  0  0
 17100  1  0  0  0
 18 19  2  0  0  0
 18101  1  0  0  0
 19 20  1  0  0  0
 19 24  1  0  0  0
 20 21  2  0  0  0
 20102  1  0  0  0
 21 23  1  0  0  0
 22 28  1  0  0  0
 22 32  2  0  0  0
 26 27  1  0  0  0
 28103  1  0  0  0
 28104  1  0  0  0
 29105  1  0  0  0
 29106  1  0  0  0
 33 34  1  0  0  0
 33 66  1  0  0  0
 33 70  2  0  0  0
 34 36  1  0  0  0
 34 59  1  0  0  0
 34107  1  0  0  0
 35 44  2  0  0  0
 35 45  1  0  0  0
 35 68  1  0  0  0
 36 56  1  0  0  0
 36108  1  0  0  0
 37 39  1  0  0  0
 37 47  1  0  0  0
 37 66  1  0  0  0
 37109  1  0  0  0
 38 43  2  0  0  0
 38 46  1  0  0  0
 38 47  1  0  0  0
 39 64  1  0  0  0
 39 67  2  0  0  0
 40 52  1  0  0  0
 40 53  2  0  0  0
 40 58  1  0  0  0
 41110  1  0  0  0
 41111  1  0  0  0
 41112  1  0  0  0
 41 48  1  0  0  0
 42 43  1  0  0  0
 42 66  1  0  0  0
 42113  1  0  0  0
 42114  1  0  0  0
 43 44  1  0  0  0
 44115  1  0  0  0
 45 46  2  0  0  0
 45116  1  0  0  0
 46117  1  0  0  0
 47118  1  0  0  0
 47119  1  0  0  0
 48 56  1  0  0  0
 48 65  1  0  0  0
 48120  1  0  0  0
 49 50  1  0  0  0
 49 53  1  0  0  0
 49 64  1  0  0  0
 49121  1  0  0  0
 50 51  1  0  0  0
 50122  1  0  0  0
 50123  1  0  0  0
 51 52  1  0  0  0
 51124  1  0  0  0
 51125  1  0  0  0
 52126  1  0  0  0
 52127  1  0  0  0
 53 54  1  0  0  0
 54 55  2  0  0  0
 54128  1  0  0  0
 55 57  1  0  0  0
 55129  1  0  0  0
 56 69  2  0  0  0
 57 58  2  0  0  0
 57130  1  0  0  0
 58131  1  0  0  0
 59 60  1  0  0  0
 59 61  1  0  0  0
 59 62  1  0  0  0
 60132  1  0  0  0
 60133  1  0  0  0
 60134  1  0  0  0
 61135  1  0  0  0
 61136  1  0  0  0
 61137  1  0  0  0
 62138  1  0  0  0
 62139  1  0  0  0
 62140  1  0  0  0
 63 65  1  0  0  0
 63141  1  0  0  0
 63142  1  0  0  0
 63143  1  0  0  0
 64144  1  0  0  0
 65145  1  0  0  0
 68 82  1  0  0  0
 71 73  2  0  0  0
 71 84  1  0  0  0
 71146  1  0  0  0
 72 74  1  0  0  0
 72 83  2  0  0  0
 72147  1  0  0  0
 73 83  1  0  0  0
 73 79  1  0  0  0
 74 84  2  0  0  0
 74 85  1  0  0  0
 75 77  1  0  0  0
 75 79  1  0  0  0
 75148  1  0  0  0
 75149  1  0  0  0
 76 78  1  0  0  0
 76 79  1  0  0  0
 76150  1  0  0  0
 76151  1  0  0  0
 77 80  1  0  0  0
 77152  1  0  0  0
 77153  1  0  0  0
 78 80  1  0  0  0
 78154  1  0  0  0
 78155  1  0  0  0
 79156  1  0  0  0
 80 82  1  0  0  0
 80 86  1  0  0  0
 81 86  1  0  0  0
 81157  1  0  0  0
 81158  1  0  0  0
 81159  1  0  0  0
 82160  1  0  0  0
 82161  1  0  0  0
 85162  1  0  0  0
M  ISO  4   1 100  68 101  82 101  85 100
M  END
> <chiral flag>
0

> <version>
0

> <s_m_source_file>
/data/baiqing/PycharmProjects/Reinvent-master-3.2/result/LINK_invent/BTK/process_docking_weight1_custom_product_contain_oxygen_bond_distance_aromatic_linkinvent_7_9_3/rearranged_h_0166.sdf

> <i_m_source_file_index>
10

> <r_mmod_Potential_Energy-OPLS-2005>
42.2631416320801

> <r_mmod_Stretch_Energy-OPLS-2005>
57.1345481872559

> <r_mmod_Bend_Energy-OPLS-2005>
136.134490966797

> <r_mmod_Torsional_Energy-OPLS-2005>
216.079650878906

> <r_mmod_Improper_Torsional_Energy-OPLS-2005>
4.55850839614868

> <r_mmod_Van_der_Waal_Energy-OPLS-2005>
157.796569824219

> <r_mmod_Electrostatic_Energy-OPLS-2005>
-312.997009277344

> <r_mmod_Solvation_Energy-OPLS-2005>
-238.739410400391

> <b_mmod_Minimization_Converged-OPLS-2005>
0

> <r_mmod_RMS_Derivative-OPLS-2005>
0.493468016386032

$$$$
10
                    3D
 Structure written by MMmdl.
159168  0  0  1  0            999 V2000
  -30.5870  -14.6611   20.5148 C   0  0  0  0  0  0
  -30.4562  -12.4086   19.4502 C   0  0  0  0  0  0
  -29.5161  -12.5061   18.2255 C   0  0  0  0  0  0
  -28.0395  -12.3343   18.6389 C   0  0  0  0  0  0
  -27.6586  -13.2054   19.8643 C   0  0  2  0  0  0
  -28.7035  -13.0448   20.9928 C   0  0  0  0  0  0
  -25.2596  -13.8146   20.5656 C   0  0  0  0  0  0
  -24.1847  -13.0442   20.9195 C   0  0  0  0  0  0
  -24.6398  -11.6899   20.8747 C   0  0  0  0  0  0
  -23.9050  -10.4298   21.0410 C   0  0  0  0  0  0
  -24.3599   -9.4210   21.9185 C   0  0  0  0  0  0
  -23.6276   -8.2247   22.0758 C   0  0  0  0  0  0
  -22.4257   -8.0287   21.3552 C   0  0  0  0  0  0
  -21.9891   -9.0263   20.4657 C   0  0  0  0  0  0
  -22.7220  -10.2140   20.3061 C   0  0  0  0  0  0
  -21.6857   -6.0731   22.5276 C   0  0  0  0  0  0
  -21.4021   -6.5629   23.8207 C   0  0  0  0  0  0
  -21.3657   -5.6782   24.9168 C   0  0  0  0  0  0
  -21.6039   -4.3045   24.7220 C   0  0  0  0  0  0
  -21.8820   -3.8143   23.4340 C   0  0  0  0  0  0
  -21.9193   -4.6963   22.3399 C   0  0  0  0  0  0
  -22.7870  -13.5262   21.1837 C   0  0  0  0  0  0
  -22.1657   -4.2153   21.0975 F   0  0  0  0  0  0
  -21.5628   -3.4524   25.7731 F   0  0  0  0  0  0
  -30.0184  -13.4146   20.4377 N   0  0  0  0  0  0
  -26.3015  -12.9301   20.3294 N   0  0  0  0  0  0
  -25.9318  -11.6474   20.5740 N   0  0  0  0  0  0
  -22.0488  -12.8278   22.0398 N   0  0  0  0  0  0
  -25.4321  -15.1860   20.4004 N   0  0  0  0  0  0
  -31.7303  -14.8846   20.1060 O   0  0  0  0  0  0
  -21.6638   -6.8873   21.4237 O   0  0  0  0  0  0
  -22.3568  -14.5566   20.6677 O   0  0  0  0  0  0
  -24.6270  -31.8603   23.2016 C   0  0  0  0  0  0
  -25.9106  -32.4790   23.8360 C   0  0  1  0  0  0
  -27.2293  -27.3078   20.1102 C   0  0  0  0  0  0
  -25.5907  -33.8588   24.2281 N   0  0  0  0  0  0
  -23.4223  -30.4845   21.5453 C   0  0  2  0  0  0
  -24.8700  -28.9406   20.1133 C   0  0  0  0  0  0
  -22.7481  -29.4636   22.4929 C   0  0  0  0  0  0
  -18.0289  -28.1392   22.8480 C   0  0  0  0  0  0
  -24.1487  -36.7296   23.2633 C   0  0  0  0  0  0
  -25.9664  -30.7873   21.3755 C   0  0  0  0  0  0
  -26.0417  -29.4140   20.7165 C   0  0  0  0  0  0
  -27.2238  -28.6108   20.7041 C   0  0  0  0  0  0
  -26.0266  -26.8927   19.4878 C   0  0  0  0  0  0
  -24.8657  -27.6854   19.4907 C   0  0  0  0  0  0
  -23.6377  -29.8195   20.1615 C   0  0  0  0  0  0
  -25.4111  -36.3093   24.0329 C   0  0  1  0  0  0
  -20.5889  -28.3698   23.1269 C   0  0  2  0  0  0
  -20.6775  -26.9417   22.5405 C   0  0  0  0  0  0
  -19.5755  -26.6387   21.5201 C   0  0  0  0  0  0
  -18.1933  -26.7936   22.1613 C   0  0  0  0  0  0
  -19.1541  -28.8862   23.2874 C   0  0  0  0  0  0
  -18.9466  -30.1458   23.8901 C   0  0  0  0  0  0
  -17.6467  -30.6592   24.0561 C   0  0  0  0  0  0
  -25.9048  -34.9463   23.5112 C   0  0  0  0  0  0
  -16.5357  -29.9091   23.6328 C   0  0  0  0  0  0
  -16.7276  -28.6506   23.0355 C   0  0  0  0  0  0
  -26.4471  -31.6604   25.0737 C   0  0  0  0  0  0
  -25.3684  -31.3767   26.1451 C   0  0  0  0  0  0
  -27.0293  -30.3018   24.6205 C   0  0  0  0  0  0
  -27.6048  -32.4324   25.7491 C   0  0  0  0  0  0
  -27.5589  -37.1793   24.8455 C   0  0  0  0  0  0
  -21.4193  -29.3056   22.3667 N   0  0  0  0  0  0
  -26.4287  -37.3791   23.9417 N   0  0  0  0  0  0
  -24.6912  -31.0604   22.0978 N   0  0  0  0  0  0
  -23.4198  -28.8162   23.3005 O   0  0  0  0  0  0
  -28.3467  -26.4470   20.1529 O   0  0  0  0  0  0
  -26.5630  -34.8930   22.4686 O   0  0  0  0  0  0
  -23.5423  -32.1400   23.7331 O   0  0  0  0  0  0
  -28.4371  -17.6893   21.2703 C   0  0  0  0  0  0
  -30.6291  -18.0341   20.4089 C   0  0  0  0  0  0
  -28.2387  -19.0934   21.2636 C   0  0  0  0  0  0
  -29.6523  -17.1025   20.8577 C   0  0  0  0  0  0
  -29.2886  -19.9656   20.8595 C   0  0  0  0  0  0
  -30.2574  -22.2909   21.7826 C   0  0  0  0  0  0
  -29.8555  -23.7778   21.6097 C   0  0  0  0  0  0
  -29.1589  -21.5485   21.0167 C   0  0  1  0  0  0
  -29.2529  -23.8814   20.1885 C   0  0  2  0  0  0
  -26.8842  -19.6144   21.7270 C   0  0  0  0  0  0
  -28.1079  -24.9859   19.9798 C   0  0  0  0  0  0
  -30.4515  -19.4031   20.4057 N   0  0  0  0  0  0
  -29.7324  -15.6401   20.9476 N   0  0  0  0  0  0
  -28.8755  -22.4428   19.8496 N   0  3  0  0  0  0
  -31.4949  -12.5571   19.1491 H   0  0  0  0  0  0
  -30.4151  -11.4103   19.8877 H   0  0  0  0  0  0
  -29.7859  -11.7517   17.4855 H   0  0  0  0  0  0
  -29.6498  -13.4721   17.7355 H   0  0  0  0  0  0
  -27.8821  -11.2810   18.8762 H   0  0  0  0  0  0
  -27.3837  -12.5548   17.7969 H   0  0  0  0  0  0
  -27.6816  -14.2407   19.5233 H   0  0  0  0  0  0
  -28.7249  -12.0134   21.3477 H   0  0  0  0  0  0
  -28.4383  -13.6435   21.8661 H   0  0  0  0  0  0
  -25.2748   -9.5690   22.4750 H   0  0  0  0  0  0
  -23.9995   -7.4639   22.7475 H   0  0  0  0  0  0
  -21.0822   -8.8783   19.8959 H   0  0  0  0  0  0
  -22.3682  -10.9678   19.6170 H   0  0  0  0  0  0
  -21.2017   -7.6138   23.9715 H   0  0  0  0  0  0
  -21.1472   -6.0507   25.9072 H   0  0  0  0  0  0
  -22.0602   -2.7608   23.2835 H   0  0  0  0  0  0
  -22.4068  -11.9946   22.4822 H   0  0  0  0  0  0
  -21.1116  -13.1344   22.2589 H   0  0  0  0  0  0
  -24.6515  -15.8291   20.4739 H   0  0  0  0  0  0
  -26.2499  -15.6046   19.9776 H   0  0  0  0  0  0
  -26.7179  -32.5460   23.1114 H   0  0  0  0  0  0
  -25.0029  -33.9735   25.0407 H   0  0  0  0  0  0
  -22.7168  -31.3057   21.4015 H   0  0  0  0  0  0
  -23.3764  -35.9611   23.3278 H   0  0  0  0  0  0
  -24.3589  -36.8935   22.2053 H   0  0  0  0  0  0
  -23.7220  -37.6484   23.6666 H   0  0  0  0  0  0
  -26.0999  -31.5498   20.6071 H   0  0  0  0  0  0
  -26.8459  -30.8374   22.0061 H   0  0  0  0  0  0
  -28.1229  -28.9722   21.1837 H   0  0  0  0  0  0
  -25.9388  -25.9381   18.9940 H   0  0  0  0  0  0
  -23.9673  -27.3169   19.0150 H   0  0  0  0  0  0
  -23.7545  -30.5947   19.4029 H   0  0  0  0  0  0
  -22.7585  -29.2462   19.8615 H   0  0  0  0  0  0
  -25.1285  -36.1952   25.0819 H   0  0  0  0  0  0
  -20.9990  -28.3280   24.1387 H   0  0  0  0  0  0
  -20.5662  -26.2310   23.3609 H   0  0  0  0  0  0
  -21.6646  -26.7439   22.1214 H   0  0  0  0  0  0
  -19.6914  -25.6294   21.1242 H   0  0  0  0  0  0
  -19.6696  -27.3183   20.6720 H   0  0  0  0  0  0
  -17.4201  -26.6683   21.4017 H   0  0  0  0  0  0
  -18.0338  -26.0079   22.9012 H   0  0  0  0  0  0
  -19.7940  -30.7265   24.2286 H   0  0  0  0  0  0
  -17.5024  -31.6273   24.5156 H   0  0  0  0  0  0
  -15.5361  -30.2997   23.7651 H   0  0  0  0  0  0
  -15.8674  -28.0821   22.7085 H   0  0  0  0  0  0
  -24.5872  -30.7097   25.7784 H   0  0  0  0  0  0
  -24.8842  -32.2937   26.4822 H   0  0  0  0  0  0
  -25.7979  -30.8990   27.0264 H   0  0  0  0  0  0
  -26.2865  -29.6800   24.1191 H   0  0  0  0  0  0
  -27.3928  -29.7256   25.4724 H   0  0  0  0  0  0
  -27.8770  -30.4291   23.9469 H   0  0  0  0  0  0
  -27.2682  -33.3624   26.2085 H   0  0  0  0  0  0
  -28.3835  -32.6885   25.0295 H   0  0  0  0  0  0
  -28.0739  -31.8436   26.5384 H   0  0  0  0  0  0
  -28.2590  -38.0108   24.7544 H   0  0  0  0  0  0
  -28.1104  -36.2647   24.6223 H   0  0  0  0  0  0
  -27.2322  -37.1379   25.8860 H   0  0  0  0  0  0
  -20.9368  -29.8793   21.6891 H   0  0  0  0  0  0
  -26.0176  -38.2862   24.1443 H   0  0  0  0  0  0
  -27.6349  -17.0495   21.6112 H   0  0  0  0  0  0
  -31.5877  -17.6847   20.0553 H   0  0  0  0  0  0
  -30.3128  -21.9872   22.8284 H   0  0  0  0  0  0
  -31.2283  -22.0980   21.3250 H   0  0  0  0  0  0
  -30.6958  -24.4581   21.7533 H   0  0  0  0  0  0
  -29.1013  -24.0389   22.3538 H   0  0  0  0  0  0
  -28.2877  -21.7011   21.6501 H   0  0  0  0  0  0
  -30.0643  -24.1340   19.5049 H   0  0  0  0  0  0
  -26.1560  -18.8074   21.8172 H   0  0  0  0  0  0
  -26.4751  -20.3318   21.0150 H   0  0  0  0  0  0
  -26.9621  -20.0933   22.7038 H   0  0  0  0  0  0
  -27.2687  -24.7096   20.6197 H   0  0  0  0  0  0
  -27.7705  -24.8491   18.9520 H   0  0  0  0  0  0
  -28.8831  -15.2213   21.2945 H   0  0  0  0  0  0
  -27.9116  -22.3450   19.5738 H   0  0  0  0  0  0
  -29.4447  -22.1195   19.0831 H   0  0  0  0  0  0
  1 25  1  0  0  0
  1 30  2  0  0  0
  1 83  1  0  0  0
  2  3  1  0  0  0
  2 25  1  0  0  0
  2 85  1  0  0  0
  2 86  1  0  0  0
  3  4  1  0  0  0
  3 87  1  0  0  0
  3 88  1  0  0  0
  4  5  1  0  0  0
  4 89  1  0  0  0
  4 90  1  0  0  0
  5  6  1  0  0  0
  5 26  1  0  0  0
  5 91  1  0  0  0
  6 25  1  0  0  0
  6 92  1  0  0  0
  6 93  1  0  0  0
  7  8  2  0  0  0
  7 26  1  0  0  0
  7 29  1  0  0  0
  8  9  1  0  0  0
  8 22  1  0  0  0
  9 10  1  0  0  0
  9 27  2  0  0  0
 10 11  2  0  0  0
 10 15  1  0  0  0
 11 12  1  0  0  0
 11 94  1  0  0  0
 12 13  2  0  0  0
 12 95  1  0  0  0
 13 14  1  0  0  0
 13 31  1  0  0  0
 14 15  2  0  0  0
 14 96  1  0  0  0
 15 97  1  0  0  0
 16 17  2  0  0  0
 16 21  1  0  0  0
 16 31  1  0  0  0
 17 18  1  0  0  0
 17 98  1  0  0  0
 18 19  2  0  0  0
 18 99  1  0  0  0
 19 20  1  0  0  0
 19 24  1  0  0  0
 20 21  2  0  0  0
 20100  1  0  0  0
 21 23  1  0  0  0
 22 28  1  0  0  0
 22 32  2  0  0  0
 26 27  1  0  0  0
 28101  1  0  0  0
 28102  1  0  0  0
 29103  1  0  0  0
 29104  1  0  0  0
 33 34  1  0  0  0
 33 66  1  0  0  0
 33 70  2  0  0  0
 34 36  1  0  0  0
 34 59  1  0  0  0
 34105  1  0  0  0
 35 44  2  0  0  0
 35 45  1  0  0  0
 35 68  1  0  0  0
 36 56  1  0  0  0
 36106  1  0  0  0
 37 39  1  0  0  0
 37 47  1  0  0  0
 37 66  1  0  0  0
 37107  1  0  0  0
 38 43  2  0  0  0
 38 46  1  0  0  0
 38 47  1  0  0  0
 39 64  1  0  0  0
 39 67  2  0  0  0
 40 52  1  0  0  0
 40 53  2  0  0  0
 40 58  1  0  0  0
 41108  1  0  0  0
 41109  1  0  0  0
 41110  1  0  0  0
 41 48  1  0  0  0
 42 43  1  0  0  0
 42 66  1  0  0  0
 42111  1  0  0  0
 42112  1  0  0  0
 43 44  1  0  0  0
 44113  1  0  0  0
 45 46  2  0  0  0
 45114  1  0  0  0
 46115  1  0  0  0
 47116  1  0  0  0
 47117  1  0  0  0
 48 56  1  0  0  0
 48 65  1  0  0  0
 48118  1  0  0  0
 49 50  1  0  0  0
 49 53  1  0  0  0
 49 64  1  0  0  0
 49119  1  0  0  0
 50 51  1  0  0  0
 50120  1  0  0  0
 50121  1  0  0  0
 51 52  1  0  0  0
 51122  1  0  0  0
 51123  1  0  0  0
 52124  1  0  0  0
 52125  1  0  0  0
 53 54  1  0  0  0
 54 55  2  0  0  0
 54126  1  0  0  0
 55 57  1  0  0  0
 55127  1  0  0  0
 56 69  2  0  0  0
 57 58  2  0  0  0
 57128  1  0  0  0
 58129  1  0  0  0
 59 60  1  0  0  0
 59 61  1  0  0  0
 59 62  1  0  0  0
 60130  1  0  0  0
 60131  1  0  0  0
 60132  1  0  0  0
 61133  1  0  0  0
 61134  1  0  0  0
 61135  1  0  0  0
 62136  1  0  0  0
 62137  1  0  0  0
 62138  1  0  0  0
 63 65  1  0  0  0
 63139  1  0  0  0
 63140  1  0  0  0
 63141  1  0  0  0
 64142  1  0  0  0
 65143  1  0  0  0
 68 81  1  0  0  0
 71 73  2  0  0  0
 71 74  1  0  0  0
 71144  1  0  0  0
 72 74  2  0  0  0
 72 82  1  0  0  0
 72145  1  0  0  0
 73 75  1  0  0  0
 73 80  1  0  0  0
 74 83  1  0  0  0
 75 82  2  0  0  0
 75 78  1  0  0  0
 76 77  1  0  0  0
 76 78  1  0  0  0
 76146  1  0  0  0
 76147  1  0  0  0
 77 79  1  0  0  0
 77148  1  0  0  0
 77149  1  0  0  0
 78 84  1  0  0  0
 78150  1  0  0  0
 79 81  1  0  0  0
 79 84  1  0  0  0
 79151  1  0  0  0
 80152  1  0  0  0
 80153  1  0  0  0
 80154  1  0  0  0
 81155  1  0  0  0
 81156  1  0  0  0
 83157  1  0  0  0
 84158  1  0  0  0
 84159  1  0  0  0
M  CHG  1  84   1
M  ISO  4   1 100  68 101  81 101  83 100
M  END
> <chiral flag>
0

> <version>
0

> <s_m_source_file>
/data/baiqing/PycharmProjects/Reinvent-master-3.2/result/LINK_invent/BTK/process_docking_weight1_custom_product_contain_oxygen_bond_distance_aromatic_linkinvent_7_9_3/rearranged_h_0166.sdf

> <i_m_source_file_index>
11

> <r_mmod_Potential_Energy-OPLS-2005>
-182.069488525391

> <r_mmod_Stretch_Energy-OPLS-2005>
88.2379760742188

> <r_mmod_Bend_Energy-OPLS-2005>
195.445297241211

> <r_mmod_Torsional_Energy-OPLS-2005>
260.574768066406

> <r_mmod_Improper_Torsional_Energy-OPLS-2005>
4.35583400726318

> <r_mmod_Van_der_Waal_Energy-OPLS-2005>
143.979583740234

> <r_mmod_Electrostatic_Energy-OPLS-2005>
-464.390838623047

> <r_mmod_Solvation_Energy-OPLS-2005>
-466.245697021484

> <b_mmod_Minimization_Converged-OPLS-2005>
0

> <r_mmod_RMS_Derivative-OPLS-2005>
1.53934025764465

$$$$
11
                    3D
 Structure written by MMmdl.
170179  0  0  1  0            999 V2000
  -30.5862  -14.7129   20.4794 C   0  0  0  0  0  0
  -30.4410  -12.4369   19.4634 C   0  0  0  0  0  0
  -29.5119  -12.5115   18.2308 C   0  0  0  0  0  0
  -28.0358  -12.3358   18.6412 C   0  0  0  0  0  0
  -27.6452  -13.2210   19.8544 C   0  0  2  0  0  0
  -28.6885  -13.1143   20.9880 C   0  0  0  0  0  0
  -25.2532  -13.8176   20.5671 C   0  0  0  0  0  0
  -24.1813  -13.0436   20.9201 C   0  0  0  0  0  0
  -24.6389  -11.6908   20.8737 C   0  0  0  0  0  0
  -23.9062  -10.4291   21.0401 C   0  0  0  0  0  0
  -24.3616   -9.4209   21.9180 C   0  0  0  0  0  0
  -23.6293   -8.2243   22.0753 C   0  0  0  0  0  0
  -22.4275   -8.0280   21.3544 C   0  0  0  0  0  0
  -21.9907   -9.0252   20.4647 C   0  0  0  0  0  0
  -22.7233  -10.2131   20.3054 C   0  0  0  0  0  0
  -21.6854   -6.0734   22.5278 C   0  0  0  0  0  0
  -21.4015   -6.5637   23.8212 C   0  0  0  0  0  0
  -21.3662   -5.6790   24.9174 C   0  0  0  0  0  0
  -21.6046   -4.3054   24.7225 C   0  0  0  0  0  0
  -21.8821   -3.8145   23.4346 C   0  0  0  0  0  0
  -21.9195   -4.6961   22.3401 C   0  0  0  0  0  0
  -22.7837  -13.5226   21.1862 C   0  0  0  0  0  0
  -22.1664   -4.2146   21.0976 F   0  0  0  0  0  0
  -21.5629   -3.4540   25.7736 F   0  0  0  0  0  0
  -29.9942  -13.4739   20.4176 N   0  0  0  0  0  0
  -26.2947  -12.9357   20.3271 N   0  0  0  0  0  0
  -25.9314  -11.6512   20.5737 N   0  0  0  0  0  0
  -22.0481  -12.8217   22.0418 N   0  0  0  0  0  0
  -25.4230  -15.1903   20.4072 N   0  0  0  0  0  0
  -31.7706  -14.8587   20.1605 O   0  0  0  0  0  0
  -21.6642   -6.8876   21.4238 O   0  0  0  0  0  0
  -22.3525  -14.5532   20.6709 O   0  0  0  0  0  0
  -24.6292  -31.8569   23.1974 C   0  0  0  0  0  0
  -25.9126  -32.4760   23.8327 C   0  0  1  0  0  0
  -27.2271  -27.2841   20.1381 C   0  0  0  0  0  0
  -25.5930  -33.8561   24.2254 N   0  0  0  0  0  0
  -23.4253  -30.4768   21.5406 C   0  0  2  0  0  0
  -24.8734  -28.9172   20.1172 C   0  0  0  0  0  0
  -22.7489  -29.4612   22.4927 C   0  0  0  0  0  0
  -18.0284  -28.1386   22.8486 C   0  0  0  0  0  0
  -24.1489  -36.7287   23.2638 C   0  0  0  0  0  0
  -25.9671  -30.7782   21.3709 C   0  0  0  0  0  0
  -26.0433  -29.3993   20.7187 C   0  0  0  0  0  0
  -27.2261  -28.5976   20.7102 C   0  0  0  0  0  0
  -26.0354  -26.8531   19.5212 C   0  0  0  0  0  0
  -24.8727  -27.6511   19.5068 C   0  0  0  0  0  0
  -23.6430  -29.8028   20.1594 C   0  0  0  0  0  0
  -25.4115  -36.3073   24.0322 C   0  0  1  0  0  0
  -20.5887  -28.3698   23.1274 C   0  0  2  0  0  0
  -20.6778  -26.9420   22.5408 C   0  0  0  0  0  0
  -19.5753  -26.6387   21.5213 C   0  0  0  0  0  0
  -18.1930  -26.7928   22.1624 C   0  0  0  0  0  0
  -19.1537  -28.8858   23.2876 C   0  0  0  0  0  0
  -18.9463  -30.1460   23.8898 C   0  0  0  0  0  0
  -17.6464  -30.6592   24.0559 C   0  0  0  0  0  0
  -25.9059  -34.9443   23.5092 C   0  0  0  0  0  0
  -16.5354  -29.9090   23.6327 C   0  0  0  0  0  0
  -16.7273  -28.6503   23.0355 C   0  0  0  0  0  0
  -26.4502  -31.6578   25.0712 C   0  0  0  0  0  0
  -25.3732  -31.3714   26.1434 C   0  0  0  0  0  0
  -27.0352  -30.3000   24.6184 C   0  0  0  0  0  0
  -27.6056  -32.4324   25.7487 C   0  0  0  0  0  0
  -27.5576  -37.1799   24.8465 C   0  0  0  0  0  0
  -21.4199  -29.3049   22.3667 N   0  0  0  0  0  0
  -26.4291  -37.3771   23.9407 N   0  0  0  0  0  0
  -24.6930  -31.0550   22.0935 N   0  0  0  0  0  0
  -23.4193  -28.8164   23.3030 O   0  0  0  0  0  0
  -28.3442  -26.4299   20.1370 O   0  0  0  0  0  0
  -26.5629  -34.8919   22.4660 O   0  0  0  0  0  0
  -23.5448  -32.1382   23.7285 O   0  0  0  0  0  0
  -31.0125  -17.9629   20.8135 C   0  0  0  0  0  0
  -30.8797  -19.4090   20.6034 C   0  0  0  0  0  0
  -29.5843  -19.7950   20.2226 C   0  0  0  0  0  0
  -29.9072  -17.1734   20.5950 C   0  0  0  0  0  0
  -28.4489  -23.7964   19.6692 C   0  0  0  0  0  0
  -32.3072  -21.0682   19.4104 C   0  0  0  0  0  0
  -29.1687  -22.4425   20.2310 C   0  0  0  0  0  0
  -27.6892  -21.7316   17.6400 C   0  0  0  0  0  0
  -28.2247  -23.1351   17.3668 C   0  0  0  0  0  0
  -28.7871  -20.8572   18.2235 C   0  0  0  0  0  0
  -32.4033  -20.2478   18.1251 C   0  0  0  0  0  0
  -33.4344  -19.5331   20.9916 C   0  0  0  0  0  0
  -31.9675  -21.2562   21.9688 C   0  0  0  0  0  0
  -28.2171  -25.0259   20.6549 C   0  0  0  0  0  0
  -32.1155  -20.3135   20.7505 C   0  0  0  0  0  0
  -28.0410  -24.0280   18.4806 N   0  0  0  0  0  0
  -29.0147  -21.0231   19.6591 N   0  0  0  0  0  0
  -29.7381  -15.7853   20.6917 N   0  0  0  0  0  0
  -32.4635  -22.2913   19.3668 O   0  0  0  0  0  0
  -28.5927  -18.3001   20.2042 S   0  0  0  0  0  0
  -31.4800  -12.5788   19.1609 H   0  0  0  0  0  0
  -30.3942  -11.4497   19.9258 H   0  0  0  0  0  0
  -29.7903  -11.7504   17.5012 H   0  0  0  0  0  0
  -29.6411  -13.4742   17.7331 H   0  0  0  0  0  0
  -27.8857  -11.2842   18.8877 H   0  0  0  0  0  0
  -27.3815  -12.5452   17.7943 H   0  0  0  0  0  0
  -27.6490  -14.2487   19.4915 H   0  0  0  0  0  0
  -28.7166  -12.1014   21.3924 H   0  0  0  0  0  0
  -28.4247  -13.7644   21.8242 H   0  0  0  0  0  0
  -25.2759   -9.5689   22.4755 H   0  0  0  0  0  0
  -24.0005   -7.4636   22.7474 H   0  0  0  0  0  0
  -21.0839   -8.8768   19.8953 H   0  0  0  0  0  0
  -22.3688  -10.9670   19.6167 H   0  0  0  0  0  0
  -21.2007   -7.6146   23.9711 H   0  0  0  0  0  0
  -21.1482   -6.0521   25.9074 H   0  0  0  0  0  0
  -22.0598   -2.7607   23.2844 H   0  0  0  0  0  0
  -22.4098  -11.9881   22.4807 H   0  0  0  0  0  0
  -21.1098  -13.1241   22.2620 H   0  0  0  0  0  0
  -24.6504  -15.8388   20.5130 H   0  0  0  0  0  0
  -26.2575  -15.6302   20.0424 H   0  0  0  0  0  0
  -26.7188  -32.5423   23.1070 H   0  0  0  0  0  0
  -25.0073  -33.9698   25.0396 H   0  0  0  0  0  0
  -22.7214  -31.2981   21.3911 H   0  0  0  0  0  0
  -23.3757  -35.9615   23.3305 H   0  0  0  0  0  0
  -24.3573  -36.8912   22.2054 H   0  0  0  0  0  0
  -23.7247  -37.6486   23.6669 H   0  0  0  0  0  0
  -26.0993  -31.5375   20.5988 H   0  0  0  0  0  0
  -26.8466  -30.8320   22.0005 H   0  0  0  0  0  0
  -28.1281  -28.9690   21.1764 H   0  0  0  0  0  0
  -26.0019  -25.8808   19.0504 H   0  0  0  0  0  0
  -23.9768  -27.2753   19.0318 H   0  0  0  0  0  0
  -23.7668  -30.5749   19.3994 H   0  0  0  0  0  0
  -22.7627  -29.2329   19.8570 H   0  0  0  0  0  0
  -25.1302  -36.1910   25.0815 H   0  0  0  0  0  0
  -20.9979  -28.3273   24.1393 H   0  0  0  0  0  0
  -20.5674  -26.2315   23.3614 H   0  0  0  0  0  0
  -21.6647  -26.7439   22.1206 H   0  0  0  0  0  0
  -19.6920  -25.6298   21.1246 H   0  0  0  0  0  0
  -19.6685  -27.3195   20.6742 H   0  0  0  0  0  0
  -17.4202  -26.6674   21.4025 H   0  0  0  0  0  0
  -18.0328  -26.0063   22.9015 H   0  0  0  0  0  0
  -19.7937  -30.7275   24.2269 H   0  0  0  0  0  0
  -17.5016  -31.6268   24.5172 H   0  0  0  0  0  0
  -15.5354  -30.2996   23.7656 H   0  0  0  0  0  0
  -15.8668  -28.0824   22.7077 H   0  0  0  0  0  0
  -24.5916  -30.7055   25.7763 H   0  0  0  0  0  0
  -24.8916  -32.2876   26.4860 H   0  0  0  0  0  0
  -25.8057  -30.8895   27.0211 H   0  0  0  0  0  0
  -26.2927  -29.6739   24.1222 H   0  0  0  0  0  0
  -27.4059  -29.7267   25.4692 H   0  0  0  0  0  0
  -27.8791  -30.4287   23.9402 H   0  0  0  0  0  0
  -27.2665  -33.3634   26.2042 H   0  0  0  0  0  0
  -28.3877  -32.6870   25.0322 H   0  0  0  0  0  0
  -28.0714  -31.8466   26.5422 H   0  0  0  0  0  0
  -28.2597  -38.0093   24.7508 H   0  0  0  0  0  0
  -28.1068  -36.2625   24.6298 H   0  0  0  0  0  0
  -27.2290  -37.1452   25.8867 H   0  0  0  0  0  0
  -20.9392  -29.8764   21.6860 H   0  0  0  0  0  0
  -26.0167  -38.2843   24.1410 H   0  0  0  0  0  0
  -31.9486  -17.5135   21.1062 H   0  0  0  0  0  0
  -28.9044  -22.3740   21.2868 H   0  0  0  0  0  0
  -30.2249  -22.6837   20.2185 H   0  0  0  0  0  0
  -27.3981  -21.2952   16.6830 H   0  0  0  0  0  0
  -26.7861  -21.7287   18.2527 H   0  0  0  0  0  0
  -27.6753  -23.5451   16.5177 H   0  0  0  0  0  0
  -29.2695  -23.1216   17.0494 H   0  0  0  0  0  0
  -29.7229  -21.0216   17.6885 H   0  0  0  0  0  0
  -28.5168  -19.8244   18.0026 H   0  0  0  0  0  0
  -33.4054  -19.8335   18.0197 H   0  0  0  0  0  0
  -32.1972  -20.8761   17.2596 H   0  0  0  0  0  0
  -31.6898  -19.4248   18.1232 H   0  0  0  0  0  0
  -33.6419  -18.8086   20.2027 H   0  0  0  0  0  0
  -33.4185  -18.9941   21.9393 H   0  0  0  0  0  0
  -34.2916  -20.2071   21.0356 H   0  0  0  0  0  0
  -31.0450  -21.8253   21.9678 H   0  0  0  0  0  0
  -32.7915  -21.9683   22.0277 H   0  0  0  0  0  0
  -31.9696  -20.6876   22.8991 H   0  0  0  0  0  0
  -28.9403  -24.9322   21.4651 H   0  0  0  0  0  0
  -27.2440  -24.8975   21.1309 H   0  0  0  0  0  0
  -28.7837  -15.4920   20.8316 H   0  0  0  0  0  0
  1 25  1  0  0  0
  1 30  2  0  0  0
  1 88  1  0  0  0
  2  3  1  0  0  0
  2 25  1  0  0  0
  2 91  1  0  0  0
  2 92  1  0  0  0
  3  4  1  0  0  0
  3 93  1  0  0  0
  3 94  1  0  0  0
  4  5  1  0  0  0
  4 95  1  0  0  0
  4 96  1  0  0  0
  5  6  1  0  0  0
  5 26  1  0  0  0
  5 97  1  0  0  0
  6 25  1  0  0  0
  6 98  1  0  0  0
  6 99  1  0  0  0
  7  8  2  0  0  0
  7 26  1  0  0  0
  7 29  1  0  0  0
  8  9  1  0  0  0
  8 22  1  0  0  0
  9 10  1  0  0  0
  9 27  2  0  0  0
 10 11  2  0  0  0
 10 15  1  0  0  0
 11 12  1  0  0  0
 11100  1  0  0  0
 12 13  2  0  0  0
 12101  1  0  0  0
 13 14  1  0  0  0
 13 31  1  0  0  0
 14 15  2  0  0  0
 14102  1  0  0  0
 15103  1  0  0  0
 16 17  2  0  0  0
 16 21  1  0  0  0
 16 31  1  0  0  0
 17 18  1  0  0  0
 17104  1  0  0  0
 18 19  2  0  0  0
 18105  1  0  0  0
 19 20  1  0  0  0
 19 24  1  0  0  0
 20 21  2  0  0  0
 20106  1  0  0  0
 21 23  1  0  0  0
 22 28  1  0  0  0
 22 32  2  0  0  0
 26 27  1  0  0  0
 28107  1  0  0  0
 28108  1  0  0  0
 29109  1  0  0  0
 29110  1  0  0  0
 33 34  1  0  0  0
 33 66  1  0  0  0
 33 70  2  0  0  0
 34 36  1  0  0  0
 34 59  1  0  0  0
 34111  1  0  0  0
 35 44  2  0  0  0
 35 45  1  0  0  0
 35 68  1  0  0  0
 36 56  1  0  0  0
 36112  1  0  0  0
 37 39  1  0  0  0
 37 47  1  0  0  0
 37 66  1  0  0  0
 37113  1  0  0  0
 38 43  2  0  0  0
 38 46  1  0  0  0
 38 47  1  0  0  0
 39 64  1  0  0  0
 39 67  2  0  0  0
 40 52  1  0  0  0
 40 53  2  0  0  0
 40 58  1  0  0  0
 41114  1  0  0  0
 41115  1  0  0  0
 41116  1  0  0  0
 41 48  1  0  0  0
 42 43  1  0  0  0
 42 66  1  0  0  0
 42117  1  0  0  0
 42118  1  0  0  0
 43 44  1  0  0  0
 44119  1  0  0  0
 45 46  2  0  0  0
 45120  1  0  0  0
 46121  1  0  0  0
 47122  1  0  0  0
 47123  1  0  0  0
 48 56  1  0  0  0
 48 65  1  0  0  0
 48124  1  0  0  0
 49 50  1  0  0  0
 49 53  1  0  0  0
 49 64  1  0  0  0
 49125  1  0  0  0
 50 51  1  0  0  0
 50126  1  0  0  0
 50127  1  0  0  0
 51 52  1  0  0  0
 51128  1  0  0  0
 51129  1  0  0  0
 52130  1  0  0  0
 52131  1  0  0  0
 53 54  1  0  0  0
 54 55  2  0  0  0
 54132  1  0  0  0
 55 57  1  0  0  0
 55133  1  0  0  0
 56 69  2  0  0  0
 57 58  2  0  0  0
 57134  1  0  0  0
 58135  1  0  0  0
 59 60  1  0  0  0
 59 61  1  0  0  0
 59 62  1  0  0  0
 60136  1  0  0  0
 60137  1  0  0  0
 60138  1  0  0  0
 61139  1  0  0  0
 61140  1  0  0  0
 61141  1  0  0  0
 62142  1  0  0  0
 62143  1  0  0  0
 62144  1  0  0  0
 63 65  1  0  0  0
 63145  1  0  0  0
 63146  1  0  0  0
 63147  1  0  0  0
 64148  1  0  0  0
 65149  1  0  0  0
 68 84  1  0  0  0
 71 72  1  0  0  0
 71 74  2  0  0  0
 71150  1  0  0  0
 72 73  2  0  0  0
 72 85  1  0  0  0
 73 87  1  0  0  0
 73 90  1  0  0  0
 74 88  1  0  0  0
 74 90  1  0  0  0
 75 77  1  0  0  0
 75 84  1  0  0  0
 75 86  2  0  0  0
 76 81  1  0  0  0
 76 85  1  0  0  0
 76 89  2  0  0  0
 77 87  1  0  0  0
 77151  1  0  0  0
 77152  1  0  0  0
 78 79  1  0  0  0
 78 80  1  0  0  0
 78153  1  0  0  0
 78154  1  0  0  0
 79 86  1  0  0  0
 79155  1  0  0  0
 79156  1  0  0  0
 80 87  1  0  0  0
 80157  1  0  0  0
 80158  1  0  0  0
 81159  1  0  0  0
 81160  1  0  0  0
 81161  1  0  0  0
 82162  1  0  0  0
 82163  1  0  0  0
 82164  1  0  0  0
 82 85  1  0  0  0
 83 85  1  0  0  0
 83165  1  0  0  0
 83166  1  0  0  0
 83167  1  0  0  0
 84168  1  0  0  0
 84169  1  0  0  0
 88170  1  0  0  0
M  ISO  4   1 100  68 101  84 101  88 100
M  END
> <chiral flag>
0

> <version>
0

> <s_m_source_file>
/data/baiqing/PycharmProjects/Reinvent-master-3.2/result/LINK_invent/BTK/process_docking_weight1_custom_product_contain_oxygen_bond_distance_aromatic_linkinvent_7_9_3/rearranged_h_0166.sdf

> <i_m_source_file_index>
12

> <r_mmod_Potential_Energy-OPLS-2005>
280.402954101562

> <r_mmod_Stretch_Energy-OPLS-2005>
127.014915466309

> <r_mmod_Bend_Energy-OPLS-2005>
213.999237060547

> <r_mmod_Torsional_Energy-OPLS-2005>
284.903625488281

> <r_mmod_Improper_Torsional_Energy-OPLS-2005>
8.49299907684326

> <r_mmod_Van_der_Waal_Energy-OPLS-2005>
129.897109985352

> <r_mmod_Electrostatic_Energy-OPLS-2005>
-315.773895263672

> <r_mmod_Solvation_Energy-OPLS-2005>
-237.636093139648

> <b_mmod_Minimization_Converged-OPLS-2005>
0

> <r_mmod_RMS_Derivative-OPLS-2005>
0.867859303951263

$$$$
12
                    3D
 Structure written by MMmdl.
154162  0  0  1  0            999 V2000
  -30.7092  -14.4920   20.5602 C   0  0  0  0  0  0
  -30.4193  -12.3167   19.4312 C   0  0  0  0  0  0
  -29.4948  -12.5009   18.2105 C   0  0  0  0  0  0
  -28.0170  -12.3595   18.6239 C   0  0  0  0  0  0
  -27.6589  -13.2111   19.8715 C   0  0  2  0  0  0
  -28.7017  -13.0191   20.9969 C   0  0  0  0  0  0
  -25.2580  -13.8167   20.5687 C   0  0  0  0  0  0
  -24.1836  -13.0440   20.9185 C   0  0  0  0  0  0
  -24.6394  -11.6907   20.8741 C   0  0  0  0  0  0
  -23.9061  -10.4292   21.0406 C   0  0  0  0  0  0
  -24.3613   -9.4209   21.9184 C   0  0  0  0  0  0
  -23.6292   -8.2242   22.0752 C   0  0  0  0  0  0
  -22.4273   -8.0280   21.3545 C   0  0  0  0  0  0
  -21.9907   -9.0252   20.4646 C   0  0  0  0  0  0
  -22.7232  -10.2134   20.3056 C   0  0  0  0  0  0
  -21.6853   -6.0736   22.5280 C   0  0  0  0  0  0
  -21.4012   -6.5640   23.8213 C   0  0  0  0  0  0
  -21.3659   -5.6794   24.9177 C   0  0  0  0  0  0
  -21.6043   -4.3056   24.7225 C   0  0  0  0  0  0
  -21.8820   -3.8147   23.4345 C   0  0  0  0  0  0
  -21.9192   -4.6965   22.3403 C   0  0  0  0  0  0
  -22.7860  -13.5239   21.1847 C   0  0  0  0  0  0
  -22.1664   -4.2151   21.0981 F   0  0  0  0  0  0
  -21.5627   -3.4538   25.7737 F   0  0  0  0  0  0
  -30.0299  -13.3181   20.4382 N   0  0  0  0  0  0
  -26.3014  -12.9343   20.3354 N   0  0  0  0  0  0
  -25.9322  -11.6501   20.5768 N   0  0  0  0  0  0
  -22.0496  -12.8233   22.0400 N   0  0  0  0  0  0
  -25.4303  -15.1883   20.4087 N   0  0  0  0  0  0
  -31.8407  -14.6441   20.0949 O   0  0  0  0  0  0
  -21.6638   -6.8878   21.4242 O   0  0  0  0  0  0
  -22.3550  -14.5547   20.6696 O   0  0  0  0  0  0
  -24.6163  -31.8670   23.2090 C   0  0  0  0  0  0
  -25.9049  -32.4817   23.8395 C   0  0  1  0  0  0
  -27.2290  -27.4200   20.1047 C   0  0  0  0  0  0
  -25.5900  -33.8615   24.2324 N   0  0  0  0  0  0
  -23.4056  -30.4900   21.5496 C   0  0  2  0  0  0
  -24.8536  -28.9571   20.1114 C   0  0  0  0  0  0
  -22.7425  -29.4647   22.4978 C   0  0  0  0  0  0
  -18.0272  -28.1384   22.8492 C   0  0  0  0  0  0
  -24.1486  -36.7312   23.2637 C   0  0  0  0  0  0
  -25.9360  -30.8301   21.3635 C   0  0  0  0  0  0
  -26.0155  -29.4642   20.7088 C   0  0  0  0  0  0
  -27.2107  -28.7045   20.7000 C   0  0  0  0  0  0
  -26.0550  -26.9361   19.4897 C   0  0  0  0  0  0
  -24.8693  -27.6938   19.4956 C   0  0  0  0  0  0
  -23.6149  -29.8236   20.1638 C   0  0  0  0  0  0
  -25.4106  -36.3107   24.0337 C   0  0  1  0  0  0
  -20.5866  -28.3666   23.1316 C   0  0  2  0  0  0
  -20.6765  -26.9401   22.5418 C   0  0  0  0  0  0
  -19.5743  -26.6389   21.5215 C   0  0  0  0  0  0
  -18.1921  -26.7929   22.1626 C   0  0  0  0  0  0
  -19.1523  -28.8843   23.2899 C   0  0  0  0  0  0
  -18.9450  -30.1450   23.8905 C   0  0  0  0  0  0
  -17.6452  -30.6588   24.0566 C   0  0  0  0  0  0
  -25.9032  -34.9472   23.5127 C   0  0  0  0  0  0
  -16.5343  -29.9087   23.6332 C   0  0  0  0  0  0
  -16.7261  -28.6507   23.0348 C   0  0  0  0  0  0
  -26.4474  -31.6595   25.0723 C   0  0  0  0  0  0
  -25.3741  -31.3713   26.1475 C   0  0  0  0  0  0
  -27.0298  -30.3035   24.6099 C   0  0  0  0  0  0
  -27.6057  -32.4309   25.7481 C   0  0  0  0  0  0
  -27.5582  -37.1808   24.8463 C   0  0  0  0  0  0
  -21.4148  -29.3031   22.3722 N   0  0  0  0  0  0
  -26.4292  -37.3791   23.9408 N   0  0  0  0  0  0
  -24.6709  -31.0761   22.0993 N   0  0  0  0  0  0
  -23.4191  -28.8184   23.3021 O   0  0  0  0  0  0
  -28.3500  -26.6168   20.1402 O   0  0  0  0  0  0
  -26.5589  -34.8923   22.4685 O   0  0  0  0  0  0
  -23.5351  -32.1422   23.7477 O   0  0  0  0  0  0
  -29.4816  -17.9683   21.1154 C   0  0  0  0  0  0
  -31.7840  -17.2820   21.3061 C   0  0  0  0  0  0
  -29.8916  -19.3276   21.2269 C   0  0  0  0  0  0
  -30.4302  -16.9130   21.1492 C   0  0  0  0  0  0
  -31.2840  -19.5463   21.4045 C   0  0  0  0  0  0
  -28.8355  -20.4243   21.2506 C   0  0  0  0  0  0
  -28.8232  -24.1559   20.4236 C   0  0  0  0  0  0
  -28.2135  -22.8123   20.8867 C   0  0  0  0  0  0
  -28.1535  -25.4428   20.9654 C   0  0  0  0  0  0
  -32.1963  -18.5604   21.4241 N   0  0  0  0  0  0
  -31.8666  -20.7932   21.5934 N   0  0  0  0  0  0
  -30.0110  -15.5365   21.0649 N   0  0  0  0  0  0
  -29.1334  -21.6589   20.7911 N   0  0  0  0  0  0
  -27.7054  -20.1622   21.6689 O   0  0  0  0  0  0
  -29.8049  -24.1902   19.6728 O   0  0  0  0  0  0
  -31.4648  -12.4048   19.1305 H   0  0  0  0  0  0
  -30.3144  -11.3120   19.8438 H   0  0  0  0  0  0
  -29.7383  -11.7690   17.4390 H   0  0  0  0  0  0
  -29.6613  -13.4826   17.7641 H   0  0  0  0  0  0
  -27.8325  -11.3049   18.8319 H   0  0  0  0  0  0
  -27.3653  -12.6215   17.7896 H   0  0  0  0  0  0
  -27.6956  -14.2546   19.5581 H   0  0  0  0  0  0
  -28.6818  -11.9919   21.3635 H   0  0  0  0  0  0
  -28.4642  -13.6430   21.8599 H   0  0  0  0  0  0
  -25.2760   -9.5686   22.4757 H   0  0  0  0  0  0
  -24.0005   -7.4633   22.7469 H   0  0  0  0  0  0
  -21.0838   -8.8767   19.8953 H   0  0  0  0  0  0
  -22.3688  -10.9672   19.6162 H   0  0  0  0  0  0
  -21.2006   -7.6149   23.9718 H   0  0  0  0  0  0
  -21.1480   -6.0523   25.9080 H   0  0  0  0  0  0
  -22.0598   -2.7609   23.2844 H   0  0  0  0  0  0
  -22.4106  -11.9893   22.4791 H   0  0  0  0  0  0
  -21.1116  -13.1265   22.2604 H   0  0  0  0  0  0
  -24.6621  -15.8426   20.5116 H   0  0  0  0  0  0
  -26.2776  -15.6243   20.0674 H   0  0  0  0  0  0
  -26.7123  -32.5528   23.1164 H   0  0  0  0  0  0
  -25.0070  -33.9782   25.0483 H   0  0  0  0  0  0
  -22.6943  -31.3068   21.4109 H   0  0  0  0  0  0
  -23.3747  -35.9647   23.3303 H   0  0  0  0  0  0
  -24.3584  -36.8917   22.2050 H   0  0  0  0  0  0
  -23.7238  -37.6518   23.6648 H   0  0  0  0  0  0
  -26.0492  -31.5970   20.5960 H   0  0  0  0  0  0
  -26.8236  -30.8837   21.9822 H   0  0  0  0  0  0
  -28.1055  -29.0859   21.1720 H   0  0  0  0  0  0
  -26.0528  -25.9640   19.0171 H   0  0  0  0  0  0
  -23.9773  -27.2999   19.0277 H   0  0  0  0  0  0
  -23.7209  -30.5987   19.4040 H   0  0  0  0  0  0
  -22.7394  -29.2421   19.8689 H   0  0  0  0  0  0
  -25.1283  -36.1974   25.0831 H   0  0  0  0  0  0
  -20.9959  -28.3233   24.1437 H   0  0  0  0  0  0
  -20.5680  -26.2270   23.3601 H   0  0  0  0  0  0
  -21.6635  -26.7453   22.1203 H   0  0  0  0  0  0
  -19.6901  -25.6302   21.1237 H   0  0  0  0  0  0
  -19.6684  -27.3209   20.6753 H   0  0  0  0  0  0
  -17.4194  -26.6679   21.4025 H   0  0  0  0  0  0
  -18.0314  -26.0073   22.9022 H   0  0  0  0  0  0
  -19.7926  -30.7266   24.2274 H   0  0  0  0  0  0
  -17.5008  -31.6269   24.5165 H   0  0  0  0  0  0
  -15.5343  -30.2991   23.7654 H   0  0  0  0  0  0
  -15.8661  -28.0833   22.7052 H   0  0  0  0  0  0
  -24.5888  -30.7090   25.7810 H   0  0  0  0  0  0
  -24.8965  -32.2877   26.4951 H   0  0  0  0  0  0
  -25.8088  -30.8851   27.0217 H   0  0  0  0  0  0
  -26.2842  -29.6800   24.1151 H   0  0  0  0  0  0
  -27.4062  -29.7263   25.4554 H   0  0  0  0  0  0
  -27.8681  -30.4348   23.9253 H   0  0  0  0  0  0
  -27.2690  -33.3605   26.2084 H   0  0  0  0  0  0
  -28.3855  -32.6873   25.0298 H   0  0  0  0  0  0
  -28.0740  -31.8415   26.5373 H   0  0  0  0  0  0
  -28.2602  -38.0104   24.7515 H   0  0  0  0  0  0
  -28.1073  -36.2635   24.6284 H   0  0  0  0  0  0
  -27.2302  -37.1456   25.8867 H   0  0  0  0  0  0
  -20.9309  -29.8753   21.6946 H   0  0  0  0  0  0
  -26.0180  -38.2869   24.1412 H   0  0  0  0  0  0
  -28.4322  -17.7330   21.0085 H   0  0  0  0  0  0
  -32.5745  -16.5526   21.3854 H   0  0  0  0  0  0
  -27.3248  -22.6177   20.2853 H   0  0  0  0  0  0
  -27.8779  -22.9247   21.9191 H   0  0  0  0  0  0
  -28.5658  -25.6470   21.9539 H   0  0  0  0  0  0
  -27.0948  -25.2288   21.1169 H   0  0  0  0  0  0
  -31.3090  -21.5101   22.0406 H   0  0  0  0  0  0
  -32.8257  -20.7903   21.9193 H   0  0  0  0  0  0
  -29.0543  -15.3321   21.3130 H   0  0  0  0  0  0
  -30.0534  -21.8369   20.4056 H   0  0  0  0  0  0
  1 25  1  0  0  0
  1 30  2  0  0  0
  1 82  1  0  0  0
  2  3  1  0  0  0
  2 25  1  0  0  0
  2 86  1  0  0  0
  2 87  1  0  0  0
  3  4  1  0  0  0
  3 88  1  0  0  0
  3 89  1  0  0  0
  4  5  1  0  0  0
  4 90  1  0  0  0
  4 91  1  0  0  0
  5  6  1  0  0  0
  5 26  1  0  0  0
  5 92  1  0  0  0
  6 25  1  0  0  0
  6 93  1  0  0  0
  6 94  1  0  0  0
  7  8  2  0  0  0
  7 26  1  0  0  0
  7 29  1  0  0  0
  8  9  1  0  0  0
  8 22  1  0  0  0
  9 10  1  0  0  0
  9 27  2  0  0  0
 10 11  2  0  0  0
 10 15  1  0  0  0
 11 12  1  0  0  0
 11 95  1  0  0  0
 12 13  2  0  0  0
 12 96  1  0  0  0
 13 14  1  0  0  0
 13 31  1  0  0  0
 14 15  2  0  0  0
 14 97  1  0  0  0
 15 98  1  0  0  0
 16 17  2  0  0  0
 16 21  1  0  0  0
 16 31  1  0  0  0
 17 18  1  0  0  0
 17 99  1  0  0  0
 18 19  2  0  0  0
 18100  1  0  0  0
 19 20  1  0  0  0
 19 24  1  0  0  0
 20 21  2  0  0  0
 20101  1  0  0  0
 21 23  1  0  0  0
 22 28  1  0  0  0
 22 32  2  0  0  0
 26 27  1  0  0  0
 28102  1  0  0  0
 28103  1  0  0  0
 29104  1  0  0  0
 29105  1  0  0  0
 33 34  1  0  0  0
 33 66  1  0  0  0
 33 70  2  0  0  0
 34 36  1  0  0  0
 34 59  1  0  0  0
 34106  1  0  0  0
 35 44  2  0  0  0
 35 45  1  0  0  0
 35 68  1  0  0  0
 36 56  1  0  0  0
 36107  1  0  0  0
 37 39  1  0  0  0
 37 47  1  0  0  0
 37 66  1  0  0  0
 37108  1  0  0  0
 38 43  2  0  0  0
 38 46  1  0  0  0
 38 47  1  0  0  0
 39 64  1  0  0  0
 39 67  2  0  0  0
 40 52  1  0  0  0
 40 53  2  0  0  0
 40 58  1  0  0  0
 41109  1  0  0  0
 41110  1  0  0  0
 41111  1  0  0  0
 41 48  1  0  0  0
 42 43  1  0  0  0
 42 66  1  0  0  0
 42112  1  0  0  0
 42113  1  0  0  0
 43 44  1  0  0  0
 44114  1  0  0  0
 45 46  2  0  0  0
 45115  1  0  0  0
 46116  1  0  0  0
 47117  1  0  0  0
 47118  1  0  0  0
 48 56  1  0  0  0
 48 65  1  0  0  0
 48119  1  0  0  0
 49 50  1  0  0  0
 49 53  1  0  0  0
 49 64  1  0  0  0
 49120  1  0  0  0
 50 51  1  0  0  0
 50121  1  0  0  0
 50122  1  0  0  0
 51 52  1  0  0  0
 51123  1  0  0  0
 51124  1  0  0  0
 52125  1  0  0  0
 52126  1  0  0  0
 53 54  1  0  0  0
 54 55  2  0  0  0
 54127  1  0  0  0
 55 57  1  0  0  0
 55128  1  0  0  0
 56 69  2  0  0  0
 57 58  2  0  0  0
 57129  1  0  0  0
 58130  1  0  0  0
 59 60  1  0  0  0
 59 61  1  0  0  0
 59 62  1  0  0  0
 60131  1  0  0  0
 60132  1  0  0  0
 60133  1  0  0  0
 61134  1  0  0  0
 61135  1  0  0  0
 61136  1  0  0  0
 62137  1  0  0  0
 62138  1  0  0  0
 62139  1  0  0  0
 63 65  1  0  0  0
 63140  1  0  0  0
 63141  1  0  0  0
 63142  1  0  0  0
 64143  1  0  0  0
 65144  1  0  0  0
 68 79  1  0  0  0
 71 73  2  0  0  0
 71 74  1  0  0  0
 71145  1  0  0  0
 72 74  2  0  0  0
 72 80  1  0  0  0
 72146  1  0  0  0
 73 75  1  0  0  0
 73 76  1  0  0  0
 74 82  1  0  0  0
 75 80  2  0  0  0
 75 81  1  0  0  0
 76 83  1  0  0  0
 76 84  2  0  0  0
 77 78  1  0  0  0
 77 79  1  0  0  0
 77 85  2  0  0  0
 78 83  1  0  0  0
 78147  1  0  0  0
 78148  1  0  0  0
 79149  1  0  0  0
 79150  1  0  0  0
 81151  1  0  0  0
 81152  1  0  0  0
 82153  1  0  0  0
 83154  1  0  0  0
M  ISO  4   1 100  68 101  79 101  82 100
M  END
> <chiral flag>
0

> <version>
0

> <s_m_source_file>
/data/baiqing/PycharmProjects/Reinvent-master-3.2/result/LINK_invent/BTK/process_docking_weight1_custom_product_contain_oxygen_bond_distance_aromatic_linkinvent_7_9_3/rearranged_h_0166.sdf

> <i_m_source_file_index>
13

> <r_mmod_Potential_Energy-OPLS-2005>
-330.430725097656

> <r_mmod_Stretch_Energy-OPLS-2005>
43.5373649597168

> <r_mmod_Bend_Energy-OPLS-2005>
106.039596557617

> <r_mmod_Torsional_Energy-OPLS-2005>
251.005767822266

> <r_mmod_Improper_Torsional_Energy-OPLS-2005>
8.08488273620605

> <r_mmod_Van_der_Waal_Energy-OPLS-2005>
163.424728393555

> <r_mmod_Electrostatic_Energy-OPLS-2005>
-655.762878417969

> <r_mmod_Solvation_Energy-OPLS-2005>
-264.037384033203

> <b_mmod_Minimization_Converged-OPLS-2005>
0

> <r_mmod_RMS_Derivative-OPLS-2005>
0.571996986865997

$$$$
13
                    3D
 Structure written by MMmdl.
158166  0  0  1  0            999 V2000
  -30.7366  -14.4523   20.6020 C   0  0  0  0  0  0
  -30.4151  -12.3115   19.4128 C   0  0  0  0  0  0
  -29.4859  -12.5073   18.1994 C   0  0  0  0  0  0
  -28.0104  -12.3658   18.6194 C   0  0  0  0  0  0
  -27.6596  -13.2106   19.8734 C   0  0  2  0  0  0
  -28.7030  -13.0019   20.9935 C   0  0  0  0  0  0
  -25.2581  -13.8174   20.5691 C   0  0  0  0  0  0
  -24.1837  -13.0443   20.9178 C   0  0  0  0  0  0
  -24.6396  -11.6908   20.8746 C   0  0  0  0  0  0
  -23.9067  -10.4295   21.0409 C   0  0  0  0  0  0
  -24.3616   -9.4216   21.9196 C   0  0  0  0  0  0
  -23.6288   -8.2252   22.0766 C   0  0  0  0  0  0
  -22.4275   -8.0287   21.3547 C   0  0  0  0  0  0
  -21.9917   -9.0260   20.4646 C   0  0  0  0  0  0
  -22.7245  -10.2138   20.3053 C   0  0  0  0  0  0
  -21.6849   -6.0740   22.5286 C   0  0  0  0  0  0
  -21.4008   -6.5644   23.8220 C   0  0  0  0  0  0
  -21.3654   -5.6794   24.9181 C   0  0  0  0  0  0
  -21.6043   -4.3057   24.7229 C   0  0  0  0  0  0
  -21.8818   -3.8151   23.4348 C   0  0  0  0  0  0
  -21.9189   -4.6968   22.3406 C   0  0  0  0  0  0
  -22.7854  -13.5233   21.1835 C   0  0  0  0  0  0
  -22.1660   -4.2155   21.0982 F   0  0  0  0  0  0
  -21.5628   -3.4539   25.7740 F   0  0  0  0  0  0
  -30.0330  -13.2991   20.4359 N   0  0  0  0  0  0
  -26.3019  -12.9352   20.3381 N   0  0  0  0  0  0
  -25.9326  -11.6507   20.5779 N   0  0  0  0  0  0
  -22.0491  -12.8218   22.0383 N   0  0  0  0  0  0
  -25.4290  -15.1897   20.4088 N   0  0  0  0  0  0
  -31.8421  -14.6323   20.0867 O   0  0  0  0  0  0
  -21.6636   -6.8885   21.4245 O   0  0  0  0  0  0
  -22.3539  -14.5545   20.6692 O   0  0  0  0  0  0
  -24.6138  -31.8688   23.2095 C   0  0  0  0  0  0
  -25.9035  -32.4826   23.8399 C   0  0  1  0  0  0
  -27.2351  -27.4375   20.0985 C   0  0  0  0  0  0
  -25.5889  -33.8622   24.2329 N   0  0  0  0  0  0
  -23.4027  -30.4905   21.5509 C   0  0  2  0  0  0
  -24.8503  -28.9554   20.1154 C   0  0  0  0  0  0
  -22.7407  -29.4661   22.4999 C   0  0  0  0  0  0
  -18.0269  -28.1369   22.8499 C   0  0  0  0  0  0
  -24.1468  -36.7302   23.2645 C   0  0  0  0  0  0
  -25.9304  -30.8354   21.3612 C   0  0  0  0  0  0
  -26.0104  -29.4705   20.7082 C   0  0  0  0  0  0
  -27.2096  -28.7207   20.6920 C   0  0  0  0  0  0
  -26.0612  -26.9387   19.4946 C   0  0  0  0  0  0
  -24.8704  -27.6892   19.5042 C   0  0  0  0  0  0
  -23.6104  -29.8199   20.1664 C   0  0  0  0  0  0
  -25.4100  -36.3112   24.0337 C   0  0  1  0  0  0
  -20.5857  -28.3662   23.1316 C   0  0  2  0  0  0
  -20.6752  -26.9407   22.5402 C   0  0  0  0  0  0
  -19.5728  -26.6389   21.5200 C   0  0  0  0  0  0
  -18.1906  -26.7918   22.1627 C   0  0  0  0  0  0
  -19.1518  -28.8831   23.2902 C   0  0  0  0  0  0
  -18.9454  -30.1435   23.8912 C   0  0  0  0  0  0
  -17.6461  -30.6586   24.0565 C   0  0  0  0  0  0
  -25.9035  -34.9476   23.5135 C   0  0  0  0  0  0
  -16.5349  -29.9087   23.6330 C   0  0  0  0  0  0
  -16.7261  -28.6496   23.0364 C   0  0  0  0  0  0
  -26.4467  -31.6604   25.0725 C   0  0  0  0  0  0
  -25.3735  -31.3634   26.1452 C   0  0  0  0  0  0
  -27.0363  -30.3083   24.6077 C   0  0  0  0  0  0
  -27.6000  -32.4353   25.7532 C   0  0  0  0  0  0
  -27.5564  -37.1824   24.8476 C   0  0  0  0  0  0
  -21.4134  -29.3038   22.3737 N   0  0  0  0  0  0
  -26.4285  -37.3799   23.9405 N   0  0  0  0  0  0
  -24.6674  -31.0784   22.0994 N   0  0  0  0  0  0
  -23.4174  -28.8206   23.3048 O   0  0  0  0  0  0
  -28.3872  -26.6838   20.0987 O   0  0  0  0  0  0
  -26.5606  -34.8928   22.4703 O   0  0  0  0  0  0
  -23.5328  -32.1441   23.7482 O   0  0  0  0  0  0
  -30.9203  -19.8488   19.6640 C   0  0  0  0  0  0
  -30.3606  -18.0006   21.1570 C   0  0  0  0  0  0
  -31.1904  -18.5665   20.1667 C   0  0  0  0  0  0
  -29.2496  -18.7857   21.5943 C   0  0  0  0  0  0
  -29.8348  -20.5652   20.1762 C   0  0  0  0  0  0
  -28.2562  -18.2784   22.6015 C   0  0  0  0  0  0
  -28.9708  -24.2748   19.9596 C   0  0  0  0  0  0
  -27.3375  -19.3129   23.2452 C   0  0  0  0  0  0
  -30.7893  -16.6598   21.7965 C   0  0  0  0  0  0
  -28.8711  -22.8427   20.5259 C   0  0  0  0  0  0
  -28.2525  -25.3970   20.7354 C   0  0  0  0  0  0
  -29.0210  -20.0418   21.1099 N   0  0  0  0  0  0
  -29.5707  -21.8557   19.6983 N   0  0  0  0  0  0
  -30.1398  -15.4244   21.3182 N   0  0  0  0  0  0
  -28.1275  -17.0951   22.9325 O   0  0  0  0  0  0
  -29.6158  -24.5040   18.9282 O   0  0  0  0  0  0
  -32.2746  -17.8963   19.7093 F   0  0  0  0  0  0
  -31.4585  -12.4023   19.1058 H   0  0  0  0  0  0
  -30.3144  -11.3014   19.8131 H   0  0  0  0  0  0
  -29.7235  -11.7808   17.4213 H   0  0  0  0  0  0
  -29.6516  -13.4920   17.7600 H   0  0  0  0  0  0
  -27.8257  -11.3106   18.8229 H   0  0  0  0  0  0
  -27.3552  -12.6330   17.7897 H   0  0  0  0  0  0
  -27.7017  -14.2579   19.5726 H   0  0  0  0  0  0
  -28.6814  -11.9704   21.3482 H   0  0  0  0  0  0
  -28.4615  -13.6126   21.8644 H   0  0  0  0  0  0
  -25.2753   -9.5697   22.4782 H   0  0  0  0  0  0
  -23.9997   -7.4650   22.7495 H   0  0  0  0  0  0
  -21.0850   -8.8776   19.8946 H   0  0  0  0  0  0
  -22.3709  -10.9675   19.6160 H   0  0  0  0  0  0
  -21.2004   -7.6153   23.9726 H   0  0  0  0  0  0
  -21.1473   -6.0521   25.9085 H   0  0  0  0  0  0
  -22.0599   -2.7613   23.2847 H   0  0  0  0  0  0
  -22.4074  -11.9850   22.4742 H   0  0  0  0  0  0
  -21.1112  -13.1252   22.2586 H   0  0  0  0  0  0
  -24.6638  -15.8458   20.5206 H   0  0  0  0  0  0
  -26.2893  -15.6308   20.1098 H   0  0  0  0  0  0
  -26.7107  -32.5546   23.1165 H   0  0  0  0  0  0
  -25.0022  -33.9783   25.0463 H   0  0  0  0  0  0
  -22.6909  -31.3061   21.4107 H   0  0  0  0  0  0
  -23.3735  -35.9632   23.3317 H   0  0  0  0  0  0
  -24.3553  -36.8915   22.2062 H   0  0  0  0  0  0
  -23.7210  -37.6500   23.6664 H   0  0  0  0  0  0
  -26.0399  -31.6006   20.5913 H   0  0  0  0  0  0
  -26.8193  -30.8922   21.9777 H   0  0  0  0  0  0
  -28.1068  -29.1148   21.1481 H   0  0  0  0  0  0
  -26.0659  -25.9700   19.0146 H   0  0  0  0  0  0
  -23.9797  -27.2883   19.0402 H   0  0  0  0  0  0
  -23.7153  -30.5927   19.4043 H   0  0  0  0  0  0
  -22.7350  -29.2368   19.8752 H   0  0  0  0  0  0
  -25.1275  -36.1992   25.0831 H   0  0  0  0  0  0
  -20.9950  -28.3225   24.1434 H   0  0  0  0  0  0
  -20.5669  -26.2269   23.3581 H   0  0  0  0  0  0
  -21.6625  -26.7462   22.1193 H   0  0  0  0  0  0
  -19.6887  -25.6306   21.1227 H   0  0  0  0  0  0
  -19.6648  -27.3200   20.6730 H   0  0  0  0  0  0
  -17.4178  -26.6659   21.4027 H   0  0  0  0  0  0
  -18.0312  -26.0049   22.9012 H   0  0  0  0  0  0
  -19.7935  -30.7239   24.2287 H   0  0  0  0  0  0
  -17.5026  -31.6271   24.5162 H   0  0  0  0  0  0
  -15.5352  -30.3005   23.7638 H   0  0  0  0  0  0
  -15.8647  -28.0826   22.7088 H   0  0  0  0  0  0
  -24.5902  -30.7018   25.7732 H   0  0  0  0  0  0
  -24.8934  -32.2760   26.4992 H   0  0  0  0  0  0
  -25.8085  -30.8710   27.0159 H   0  0  0  0  0  0
  -26.2939  -29.6800   24.1142 H   0  0  0  0  0  0
  -27.4206  -29.7339   25.4517 H   0  0  0  0  0  0
  -27.8711  -30.4471   23.9202 H   0  0  0  0  0  0
  -27.2594  -33.3658   26.2089 H   0  0  0  0  0  0
  -28.3833  -32.6914   25.0390 H   0  0  0  0  0  0
  -28.0634  -31.8500   26.5484 H   0  0  0  0  0  0
  -28.2586  -38.0120   24.7540 H   0  0  0  0  0  0
  -28.1058  -36.2649   24.6313 H   0  0  0  0  0  0
  -27.2264  -37.1484   25.8874 H   0  0  0  0  0  0
  -20.9290  -29.8783   21.6978 H   0  0  0  0  0  0
  -26.0170  -38.2879   24.1394 H   0  0  0  0  0  0
  -31.5705  -20.2707   18.9114 H   0  0  0  0  0  0
  -27.9324  -20.0833   23.7346 H   0  0  0  0  0  0
  -26.6939  -18.8439   23.9885 H   0  0  0  0  0  0
  -26.7114  -19.7837   22.4885 H   0  0  0  0  0  0
  -30.6470  -16.7161   22.8758 H   0  0  0  0  0  0
  -31.8728  -16.5664   21.7013 H   0  0  0  0  0  0
  -27.8194  -22.5670   20.6099 H   0  0  0  0  0  0
  -29.2886  -22.8368   21.5333 H   0  0  0  0  0  0
  -28.6898  -25.4603   21.7312 H   0  0  0  0  0  0
  -27.2096  -25.1079   20.8721 H   0  0  0  0  0  0
  -30.2118  -22.2630   19.0233 H   0  0  0  0  0  0
  -29.2238  -15.2168   21.6898 H   0  0  0  0  0  0
  1 25  1  0  0  0
  1 30  2  0  0  0
  1 84  1  0  0  0
  2  3  1  0  0  0
  2 25  1  0  0  0
  2 88  1  0  0  0
  2 89  1  0  0  0
  3  4  1  0  0  0
  3 90  1  0  0  0
  3 91  1  0  0  0
  4  5  1  0  0  0
  4 92  1  0  0  0
  4 93  1  0  0  0
  5  6  1  0  0  0
  5 26  1  0  0  0
  5 94  1  0  0  0
  6 25  1  0  0  0
  6 95  1  0  0  0
  6 96  1  0  0  0
  7  8  2  0  0  0
  7 26  1  0  0  0
  7 29  1  0  0  0
  8  9  1  0  0  0
  8 22  1  0  0  0
  9 10  1  0  0  0
  9 27  2  0  0  0
 10 11  2  0  0  0
 10 15  1  0  0  0
 11 12  1  0  0  0
 11 97  1  0  0  0
 12 13  2  0  0  0
 12 98  1  0  0  0
 13 14  1  0  0  0
 13 31  1  0  0  0
 14 15  2  0  0  0
 14 99  1  0  0  0
 15100  1  0  0  0
 16 17  2  0  0  0
 16 21  1  0  0  0
 16 31  1  0  0  0
 17 18  1  0  0  0
 17101  1  0  0  0
 18 19  2  0  0  0
 18102  1  0  0  0
 19 20  1  0  0  0
 19 24  1  0  0  0
 20 21  2  0  0  0
 20103  1  0  0  0
 21 23  1  0  0  0
 22 28  1  0  0  0
 22 32  2  0  0  0
 26 27  1  0  0  0
 28104  1  0  0  0
 28105  1  0  0  0
 29106  1  0  0  0
 29107  1  0  0  0
 33 34  1  0  0  0
 33 66  1  0  0  0
 33 70  2  0  0  0
 34 36  1  0  0  0
 34 59  1  0  0  0
 34108  1  0  0  0
 35 44  2  0  0  0
 35 45  1  0  0  0
 35 68  1  0  0  0
 36 56  1  0  0  0
 36109  1  0  0  0
 37 39  1  0  0  0
 37 47  1  0  0  0
 37 66  1  0  0  0
 37110  1  0  0  0
 38 43  2  0  0  0
 38 46  1  0  0  0
 38 47  1  0  0  0
 39 64  1  0  0  0
 39 67  2  0  0  0
 40 52  1  0  0  0
 40 53  2  0  0  0
 40 58  1  0  0  0
 41111  1  0  0  0
 41112  1  0  0  0
 41113  1  0  0  0
 41 48  1  0  0  0
 42 43  1  0  0  0
 42 66  1  0  0  0
 42114  1  0  0  0
 42115  1  0  0  0
 43 44  1  0  0  0
 44116  1  0  0  0
 45 46  2  0  0  0
 45117  1  0  0  0
 46118  1  0  0  0
 47119  1  0  0  0
 47120  1  0  0  0
 48 56  1  0  0  0
 48 65  1  0  0  0
 48121  1  0  0  0
 49 50  1  0  0  0
 49 53  1  0  0  0
 49 64  1  0  0  0
 49122  1  0  0  0
 50 51  1  0  0  0
 50123  1  0  0  0
 50124  1  0  0  0
 51 52  1  0  0  0
 51125  1  0  0  0
 51126  1  0  0  0
 52127  1  0  0  0
 52128  1  0  0  0
 53 54  1  0  0  0
 54 55  2  0  0  0
 54129  1  0  0  0
 55 57  1  0  0  0
 55130  1  0  0  0
 56 69  2  0  0  0
 57 58  2  0  0  0
 57131  1  0  0  0
 58132  1  0  0  0
 59 60  1  0  0  0
 59 61  1  0  0  0
 59 62  1  0  0  0
 60133  1  0  0  0
 60134  1  0  0  0
 60135  1  0  0  0
 61136  1  0  0  0
 61137  1  0  0  0
 61138  1  0  0  0
 62139  1  0  0  0
 62140  1  0  0  0
 62141  1  0  0  0
 63 65  1  0  0  0
 63142  1  0  0  0
 63143  1  0  0  0
 63144  1  0  0  0
 64145  1  0  0  0
 65146  1  0  0  0
 68 81  1  0  0  0
 71 73  2  0  0  0
 71 75  1  0  0  0
 71147  1  0  0  0
 72 73  1  0  0  0
 72 74  2  0  0  0
 72 79  1  0  0  0
 73 87  1  0  0  0
 74 76  1  0  0  0
 74 82  1  0  0  0
 75 82  2  0  0  0
 75 83  1  0  0  0
 76 78  1  0  0  0
 76 85  2  0  0  0
 77 80  1  0  0  0
 77 81  1  0  0  0
 77 86  2  0  0  0
 78148  1  0  0  0
 78149  1  0  0  0
 78150  1  0  0  0
 79 84  1  0  0  0
 79151  1  0  0  0
 79152  1  0  0  0
 80 83  1  0  0  0
 80153  1  0  0  0
 80154  1  0  0  0
 81155  1  0  0  0
 81156  1  0  0  0
 83157  1  0  0  0
 84158  1  0  0  0
M  ISO  4   1 100  68 101  81 101  84 100
M  END
> <chiral flag>
0

> <version>
0

> <s_m_source_file>
/data/baiqing/PycharmProjects/Reinvent-master-3.2/result/LINK_invent/BTK/process_docking_weight1_custom_product_contain_oxygen_bond_distance_aromatic_linkinvent_7_9_3/rearranged_h_0166.sdf

> <i_m_source_file_index>
14

> <r_mmod_Potential_Energy-OPLS-2005>
-325.251892089844

> <r_mmod_Stretch_Energy-OPLS-2005>
40.6871070861816

> <r_mmod_Bend_Energy-OPLS-2005>
103.694236755371

> <r_mmod_Torsional_Energy-OPLS-2005>
213.832122802734

> <r_mmod_Improper_Torsional_Energy-OPLS-2005>
4.70634794235229

> <r_mmod_Van_der_Waal_Energy-OPLS-2005>
159.998443603516

> <r_mmod_Electrostatic_Energy-OPLS-2005>
-618.074035644531

> <r_mmod_Solvation_Energy-OPLS-2005>
-241.427459716797

> <b_mmod_Minimization_Converged-OPLS-2005>
0

> <r_mmod_RMS_Derivative-OPLS-2005>
1.23876142501831

$$$$
14
                    3D
 Structure written by MMmdl.
152160  0  0  1  0            999 V2000
  -30.6121  -14.7651   20.4434 C   0  0  0  0  0  0
  -30.4307  -12.4621   19.4921 C   0  0  0  0  0  0
  -29.5172  -12.5107   18.2472 C   0  0  0  0  0  0
  -28.0416  -12.3356   18.6536 C   0  0  0  0  0  0
  -27.6421  -13.2377   19.8526 C   0  0  2  0  0  0
  -28.6836  -13.1835   20.9933 C   0  0  0  0  0  0
  -25.2493  -13.8212   20.5691 C   0  0  0  0  0  0
  -24.1791  -13.0442   20.9202 C   0  0  0  0  0  0
  -24.6391  -11.6924   20.8735 C   0  0  0  0  0  0
  -23.9075  -10.4298   21.0397 C   0  0  0  0  0  0
  -24.3625   -9.4212   21.9175 C   0  0  0  0  0  0
  -23.6297   -8.2249   22.0753 C   0  0  0  0  0  0
  -22.4276   -8.0291   21.3549 C   0  0  0  0  0  0
  -21.9916   -9.0262   20.4647 C   0  0  0  0  0  0
  -22.7248  -10.2134   20.3050 C   0  0  0  0  0  0
  -21.6857   -6.0736   22.5276 C   0  0  0  0  0  0
  -21.4022   -6.5635   23.8212 C   0  0  0  0  0  0
  -21.3663   -5.6787   24.9171 C   0  0  0  0  0  0
  -21.6042   -4.3050   24.7219 C   0  0  0  0  0  0
  -21.8820   -3.8143   23.4343 C   0  0  0  0  0  0
  -21.9189   -4.6962   22.3399 C   0  0  0  0  0  0
  -22.7808  -13.5219   21.1853 C   0  0  0  0  0  0
  -22.1657   -4.2145   21.0975 F   0  0  0  0  0  0
  -21.5625   -3.4537   25.7737 F   0  0  0  0  0  0
  -29.9881  -13.5344   20.4174 N   0  0  0  0  0  0
  -26.2935  -12.9433   20.3282 N   0  0  0  0  0  0
  -25.9329  -11.6568   20.5746 N   0  0  0  0  0  0
  -22.0445  -12.8227   22.0416 N   0  0  0  0  0  0
  -25.4157  -15.1945   20.4113 N   0  0  0  0  0  0
  -31.7915  -14.8490   20.0903 O   0  0  0  0  0  0
  -21.6641   -6.8886   21.4241 O   0  0  0  0  0  0
  -22.3495  -14.5516   20.6682 O   0  0  0  0  0  0
  -24.6336  -31.8547   23.1981 C   0  0  0  0  0  0
  -25.9154  -32.4752   23.8329 C   0  0  1  0  0  0
  -27.2075  -27.2332   20.1332 C   0  0  0  0  0  0
  -25.5947  -33.8555   24.2250 N   0  0  0  0  0  0
  -23.4313  -30.4787   21.5417 C   0  0  2  0  0  0
  -24.8792  -28.9313   20.1023 C   0  0  0  0  0  0
  -22.7525  -29.4598   22.4892 C   0  0  0  0  0  0
  -18.0300  -28.1388   22.8488 C   0  0  0  0  0  0
  -24.1489  -36.7278   23.2638 C   0  0  0  0  0  0
  -25.9803  -30.7583   21.3847 C   0  0  0  0  0  0
  -26.0512  -29.3812   20.7220 C   0  0  0  0  0  0
  -27.2180  -28.5440   20.7292 C   0  0  0  0  0  0
  -26.0220  -26.8810   19.4472 C   0  0  0  0  0  0
  -24.8719  -27.6908   19.4512 C   0  0  0  0  0  0
  -23.6507  -29.8195   20.1554 C   0  0  0  0  0  0
  -25.4115  -36.3062   24.0322 C   0  0  1  0  0  0
  -20.5909  -28.3709   23.1258 C   0  0  2  0  0  0
  -20.6785  -26.9422   22.5403 C   0  0  0  0  0  0
  -19.5753  -26.6385   21.5212 C   0  0  0  0  0  0
  -18.1938  -26.7930   22.1626 C   0  0  0  0  0  0
  -19.1556  -28.8865   23.2868 C   0  0  0  0  0  0
  -18.9470  -30.1466   23.8892 C   0  0  0  0  0  0
  -17.6470  -30.6589   24.0563 C   0  0  0  0  0  0
  -25.9060  -34.9436   23.5086 C   0  0  0  0  0  0
  -16.5360  -29.9084   23.6334 C   0  0  0  0  0  0
  -16.7288  -28.6497   23.0361 C   0  0  0  0  0  0
  -26.4509  -31.6586   25.0732 C   0  0  0  0  0  0
  -25.3723  -31.3749   26.1448 C   0  0  0  0  0  0
  -27.0362  -30.2994   24.6244 C   0  0  0  0  0  0
  -27.6054  -32.4336   25.7512 C   0  0  0  0  0  0
  -27.5577  -37.1798   24.8466 C   0  0  0  0  0  0
  -21.4227  -29.3049   22.3641 N   0  0  0  0  0  0
  -26.4288  -37.3766   23.9411 N   0  0  0  0  0  0
  -24.7007  -31.0491   22.0973 N   0  0  0  0  0  0
  -23.4216  -28.8134   23.2996 O   0  0  0  0  0  0
  -28.2639  -26.2827   20.2407 O   0  0  0  0  0  0
  -26.5630  -34.8916   22.4656 O   0  0  0  0  0  0
  -23.5482  -32.1383   23.7260 O   0  0  0  0  0  0
  -29.8988  -19.2457   21.8476 C   0  0  0  0  0  0
  -29.5902  -20.6573   21.7969 C   0  0  0  0  0  0
  -29.7461  -18.6921   20.5963 C   0  0  0  0  0  0
  -29.2316  -20.9489   20.5099 C   0  0  0  0  0  0
  -26.9256  -24.4929   21.3526 C   0  0  0  0  0  0
  -30.0849  -17.2838   19.9496 C   0  0  0  0  0  0
  -29.0962  -23.6326   20.3938 C   0  0  0  0  0  0
  -27.9522  -24.7883   20.2359 C   0  0  2  0  0  0
  -28.7527  -22.2089   19.9609 N   0  0  0  0  0  0
  -29.8516  -15.9183   20.6141 N   0  0  0  0  0  0
  -29.3092  -19.7558   19.7681 O   0  0  0  0  0  0
  -31.4745  -12.5745   19.1945 H   0  0  0  0  0  0
  -30.3682  -11.4887   19.9815 H   0  0  0  0  0  0
  -29.8063  -11.7352   17.5366 H   0  0  0  0  0  0
  -29.6467  -13.4634   17.7312 H   0  0  0  0  0  0
  -27.8979  -11.2874   18.9182 H   0  0  0  0  0  0
  -27.3897  -12.5257   17.8005 H   0  0  0  0  0  0
  -27.6338  -14.2584   19.4684 H   0  0  0  0  0  0
  -28.7177  -12.1891   21.4412 H   0  0  0  0  0  0
  -28.4150  -13.8719   21.7963 H   0  0  0  0  0  0
  -25.2774   -9.5681   22.4749 H   0  0  0  0  0  0
  -23.9997   -7.4644   22.7482 H   0  0  0  0  0  0
  -21.0846   -8.8793   19.8958 H   0  0  0  0  0  0
  -22.3719  -10.9674   19.6157 H   0  0  0  0  0  0
  -21.2025   -7.6146   23.9717 H   0  0  0  0  0  0
  -21.1483   -6.0515   25.9075 H   0  0  0  0  0  0
  -22.0594   -2.7607   23.2840 H   0  0  0  0  0  0
  -22.4071  -11.9913   22.4844 H   0  0  0  0  0  0
  -21.1050  -13.1255   22.2585 H   0  0  0  0  0  0
  -24.6464  -15.8461   20.5252 H   0  0  0  0  0  0
  -26.2596  -15.6367   20.0701 H   0  0  0  0  0  0
  -26.7223  -32.5392   23.1068 H   0  0  0  0  0  0
  -25.0093  -33.9689   25.0395 H   0  0  0  0  0  0
  -22.7271  -31.3012   21.3976 H   0  0  0  0  0  0
  -23.3749  -35.9613   23.3298 H   0  0  0  0  0  0
  -24.3574  -36.8909   22.2053 H   0  0  0  0  0  0
  -23.7248  -37.6478   23.6668 H   0  0  0  0  0  0
  -26.1255  -31.5196   20.6168 H   0  0  0  0  0  0
  -26.8548  -30.8034   22.0220 H   0  0  0  0  0  0
  -28.1073  -28.8737   21.2473 H   0  0  0  0  0  0
  -25.9361  -25.9379   18.9307 H   0  0  0  0  0  0
  -23.9796  -27.3456   18.9477 H   0  0  0  0  0  0
  -23.7757  -30.5992   19.4030 H   0  0  0  0  0  0
  -22.7679  -29.2565   19.8481 H   0  0  0  0  0  0
  -25.1300  -36.1902   25.0814 H   0  0  0  0  0  0
  -21.0004  -28.3287   24.1377 H   0  0  0  0  0  0
  -20.5678  -26.2322   23.3613 H   0  0  0  0  0  0
  -21.6652  -26.7436   22.1201 H   0  0  0  0  0  0
  -19.6909  -25.6293   21.1252 H   0  0  0  0  0  0
  -19.6686  -27.3183   20.6733 H   0  0  0  0  0  0
  -17.4208  -26.6690   21.4029 H   0  0  0  0  0  0
  -18.0331  -26.0067   22.9018 H   0  0  0  0  0  0
  -19.7947  -30.7284   24.2254 H   0  0  0  0  0  0
  -17.5023  -31.6269   24.5165 H   0  0  0  0  0  0
  -15.5359  -30.2984   23.7657 H   0  0  0  0  0  0
  -15.8689  -28.0810   22.7089 H   0  0  0  0  0  0
  -24.5903  -30.7087   25.7781 H   0  0  0  0  0  0
  -24.8904  -32.2922   26.4838 H   0  0  0  0  0  0
  -25.8035  -30.8957   27.0245 H   0  0  0  0  0  0
  -26.2955  -29.6733   24.1248 H   0  0  0  0  0  0
  -27.4006  -29.7267   25.4782 H   0  0  0  0  0  0
  -27.8853  -30.4248   23.9518 H   0  0  0  0  0  0
  -27.2648  -33.3642   26.2057 H   0  0  0  0  0  0
  -28.3879  -32.6889   25.0356 H   0  0  0  0  0  0
  -28.0697  -31.8484   26.5455 H   0  0  0  0  0  0
  -28.2595  -38.0095   24.7508 H   0  0  0  0  0  0
  -28.1075  -36.2628   24.6295 H   0  0  0  0  0  0
  -27.2298  -37.1450   25.8870 H   0  0  0  0  0  0
  -20.9409  -29.8783   21.6859 H   0  0  0  0  0  0
  -26.0160  -38.2838   24.1413 H   0  0  0  0  0  0
  -30.2428  -18.6985   22.7140 H   0  0  0  0  0  0
  -29.6215  -21.3600   22.6178 H   0  0  0  0  0  0
  -26.6372  -23.4418   21.3480 H   0  0  0  0  0  0
  -26.0019  -25.0595   21.2643 H   0  0  0  0  0  0
  -27.3476  -24.7099   22.3333 H   0  0  0  0  0  0
  -31.1354  -17.3212   19.6563 H   0  0  0  0  0  0
  -29.5522  -17.2321   18.9993 H   0  0  0  0  0  0
  -29.4598  -23.6201   21.4225 H   0  0  0  0  0  0
  -29.9518  -23.9372   19.7893 H   0  0  0  0  0  0
  -27.4990  -24.5778   19.2684 H   0  0  0  0  0  0
  -28.4159  -22.1477   19.0036 H   0  0  0  0  0  0
  -28.9126  -15.7637   20.9478 H   0  0  0  0  0  0
  1 25  1  0  0  0
  1 30  2  0  0  0
  1 80  1  0  0  0
  2  3  1  0  0  0
  2 25  1  0  0  0
  2 82  1  0  0  0
  2 83  1  0  0  0
  3  4  1  0  0  0
  3 84  1  0  0  0
  3 85  1  0  0  0
  4  5  1  0  0  0
  4 86  1  0  0  0
  4 87  1  0  0  0
  5  6  1  0  0  0
  5 26  1  0  0  0
  5 88  1  0  0  0
  6 25  1  0  0  0
  6 89  1  0  0  0
  6 90  1  0  0  0
  7  8  2  0  0  0
  7 26  1  0  0  0
  7 29  1  0  0  0
  8  9  1  0  0  0
  8 22  1  0  0  0
  9 10  1  0  0  0
  9 27  2  0  0  0
 10 11  2  0  0  0
 10 15  1  0  0  0
 11 12  1  0  0  0
 11 91  1  0  0  0
 12 13  2  0  0  0
 12 92  1  0  0  0
 13 14  1  0  0  0
 13 31  1  0  0  0
 14 15  2  0  0  0
 14 93  1  0  0  0
 15 94  1  0  0  0
 16 17  2  0  0  0
 16 21  1  0  0  0
 16 31  1  0  0  0
 17 18  1  0  0  0
 17 95  1  0  0  0
 18 19  2  0  0  0
 18 96  1  0  0  0
 19 20  1  0  0  0
 19 24  1  0  0  0
 20 21  2  0  0  0
 20 97  1  0  0  0
 21 23  1  0  0  0
 22 28  1  0  0  0
 22 32  2  0  0  0
 26 27  1  0  0  0
 28 98  1  0  0  0
 28 99  1  0  0  0
 29100  1  0  0  0
 29101  1  0  0  0
 33 34  1  0  0  0
 33 66  1  0  0  0
 33 70  2  0  0  0
 34 36  1  0  0  0
 34 59  1  0  0  0
 34102  1  0  0  0
 35 44  2  0  0  0
 35 45  1  0  0  0
 35 68  1  0  0  0
 36 56  1  0  0  0
 36103  1  0  0  0
 37 39  1  0  0  0
 37 47  1  0  0  0
 37 66  1  0  0  0
 37104  1  0  0  0
 38 43  2  0  0  0
 38 46  1  0  0  0
 38 47  1  0  0  0
 39 64  1  0  0  0
 39 67  2  0  0  0
 40 52  1  0  0  0
 40 53  2  0  0  0
 40 58  1  0  0  0
 41105  1  0  0  0
 41106  1  0  0  0
 41107  1  0  0  0
 41 48  1  0  0  0
 42 43  1  0  0  0
 42 66  1  0  0  0
 42108  1  0  0  0
 42109  1  0  0  0
 43 44  1  0  0  0
 44110  1  0  0  0
 45 46  2  0  0  0
 45111  1  0  0  0
 46112  1  0  0  0
 47113  1  0  0  0
 47114  1  0  0  0
 48 56  1  0  0  0
 48 65  1  0  0  0
 48115  1  0  0  0
 49 50  1  0  0  0
 49 53  1  0  0  0
 49 64  1  0  0  0
 49116  1  0  0  0
 50 51  1  0  0  0
 50117  1  0  0  0
 50118  1  0  0  0
 51 52  1  0  0  0
 51119  1  0  0  0
 51120  1  0  0  0
 52121  1  0  0  0
 52122  1  0  0  0
 53 54  1  0  0  0
 54 55  2  0  0  0
 54123  1  0  0  0
 55 57  1  0  0  0
 55124  1  0  0  0
 56 69  2  0  0  0
 57 58  2  0  0  0
 57125  1  0  0  0
 58126  1  0  0  0
 59 60  1  0  0  0
 59 61  1  0  0  0
 59 62  1  0  0  0
 60127  1  0  0  0
 60128  1  0  0  0
 60129  1  0  0  0
 61130  1  0  0  0
 61131  1  0  0  0
 61132  1  0  0  0
 62133  1  0  0  0
 62134  1  0  0  0
 62135  1  0  0  0
 63 65  1  0  0  0
 63136  1  0  0  0
 63137  1  0  0  0
 63138  1  0  0  0
 64139  1  0  0  0
 65140  1  0  0  0
 68 78  1  0  0  0
 71 72  1  0  0  0
 71 73  2  0  0  0
 71141  1  0  0  0
 72 74  2  0  0  0
 72142  1  0  0  0
 73 76  1  0  0  0
 73 81  1  0  0  0
 74 79  1  0  0  0
 74 81  1  0  0  0
 75143  1  0  0  0
 75144  1  0  0  0
 75145  1  0  0  0
 75 78  1  0  0  0
 76 80  1  0  0  0
 76146  1  0  0  0
 76147  1  0  0  0
 77 78  1  0  0  0
 77 79  1  0  0  0
 77148  1  0  0  0
 77149  1  0  0  0
 78150  1  0  0  0
 79151  1  0  0  0
 80152  1  0  0  0
M  ISO  4   1 100  68 101  78 101  80 100
M  END
> <chiral flag>
0

> <version>
0

> <s_m_source_file>
/data/baiqing/PycharmProjects/Reinvent-master-3.2/result/LINK_invent/BTK/process_docking_weight1_custom_product_contain_oxygen_bond_distance_aromatic_linkinvent_7_9_3/rearranged_h_0166.sdf

> <i_m_source_file_index>
15

> <r_mmod_Potential_Energy-OPLS-2005>
86.400505065918

> <r_mmod_Stretch_Energy-OPLS-2005>
134.367691040039

> <r_mmod_Bend_Energy-OPLS-2005>
187.390899658203

> <r_mmod_Torsional_Energy-OPLS-2005>
222.675491333008

> <r_mmod_Improper_Torsional_Energy-OPLS-2005>
8.97107791900635

> <r_mmod_Van_der_Waal_Energy-OPLS-2005>
123.456047058105

> <r_mmod_Electrostatic_Energy-OPLS-2005>
-473.292388916016

> <r_mmod_Solvation_Energy-OPLS-2005>
-221.299957275391

> <b_mmod_Minimization_Converged-OPLS-2005>
0

> <r_mmod_RMS_Derivative-OPLS-2005>
1.23418867588043

$$$$
15
                    3D
 Structure written by MMmdl.
165173  0  0  1  0            999 V2000
  -30.6827  -14.7522   20.4601 C   0  0  0  0  0  0
  -30.4339  -12.4706   19.5016 C   0  0  0  0  0  0
  -29.5375  -12.5490   18.2441 C   0  0  0  0  0  0
  -28.0545  -12.3790   18.6334 C   0  0  0  0  0  0
  -27.6471  -13.2618   19.8467 C   0  0  2  0  0  0
  -28.6862  -13.2195   20.9948 C   0  0  0  0  0  0
  -25.2464  -13.8183   20.5615 C   0  0  0  0  0  0
  -24.1789  -13.0423   20.9207 C   0  0  0  0  0  0
  -24.6457  -11.6931   20.8758 C   0  0  0  0  0  0
  -23.9121  -10.4273   21.0396 C   0  0  0  0  0  0
  -24.3650   -9.4160   21.9141 C   0  0  0  0  0  0
  -23.6332   -8.2194   22.0703 C   0  0  0  0  0  0
  -22.4279   -8.0253   21.3540 C   0  0  0  0  0  0
  -21.9968   -9.0230   20.4626 C   0  0  0  0  0  0
  -22.7311  -10.2103   20.3028 C   0  0  0  0  0  0
  -21.6842   -6.0733   22.5282 C   0  0  0  0  0  0
  -21.3993   -6.5606   23.8220 C   0  0  0  0  0  0
  -21.3688   -5.6754   24.9177 C   0  0  0  0  0  0
  -21.6064   -4.3026   24.7237 C   0  0  0  0  0  0
  -21.8788   -3.8137   23.4346 C   0  0  0  0  0  0
  -21.9145   -4.6956   22.3405 C   0  0  0  0  0  0
  -22.7764  -13.5155   21.1884 C   0  0  0  0  0  0
  -22.1601   -4.2120   21.0988 F   0  0  0  0  0  0
  -21.5686   -3.4513   25.7776 F   0  0  0  0  0  0
  -30.0037  -13.5482   20.4312 N   0  0  0  0  0  0
  -26.2953  -12.9502   20.3222 N   0  0  0  0  0  0
  -25.9386  -11.6603   20.5726 N   0  0  0  0  0  0
  -22.0345  -12.8195   22.0441 N   0  0  0  0  0  0
  -25.4047  -15.1911   20.3811 N   0  0  0  0  0  0
  -31.8408  -14.8036   20.0367 O   0  0  0  0  0  0
  -21.6611   -6.8879   21.4246 O   0  0  0  0  0  0
  -22.3439  -14.5434   20.6703 O   0  0  0  0  0  0
  -24.6304  -31.8571   23.1950 C   0  0  0  0  0  0
  -25.9093  -32.4772   23.8362 C   0  0  1  0  0  0
  -27.2505  -27.2676   20.1437 C   0  0  0  0  0  0
  -25.5914  -33.8578   24.2271 N   0  0  0  0  0  0
  -23.4312  -30.4725   21.5371 C   0  0  2  0  0  0
  -24.8883  -28.9193   20.1088 C   0  0  0  0  0  0
  -22.7506  -29.4577   22.4888 C   0  0  0  0  0  0
  -18.0279  -28.1406   22.8473 C   0  0  0  0  0  0
  -24.1490  -36.7296   23.2640 C   0  0  0  0  0  0
  -25.9700  -30.7735   21.3766 C   0  0  0  0  0  0
  -26.0534  -29.3939   20.7241 C   0  0  0  0  0  0
  -27.2311  -28.5787   20.7325 C   0  0  0  0  0  0
  -26.0593  -26.8603   19.4961 C   0  0  0  0  0  0
  -24.8974  -27.6631   19.4840 C   0  0  0  0  0  0
  -23.6565  -29.8053   20.1545 C   0  0  0  0  0  0
  -25.4115  -36.3072   24.0311 C   0  0  1  0  0  0
  -20.5878  -28.3690   23.1298 C   0  0  2  0  0  0
  -20.6762  -26.9421   22.5417 C   0  0  0  0  0  0
  -19.5738  -26.6376   21.5220 C   0  0  0  0  0  0
  -18.1916  -26.7943   22.1623 C   0  0  0  0  0  0
  -19.1532  -28.8868   23.2865 C   0  0  0  0  0  0
  -18.9462  -30.1477   23.8870 C   0  0  0  0  0  0
  -17.6463  -30.6607   24.0571 C   0  0  0  0  0  0
  -25.9053  -34.9446   23.5098 C   0  0  0  0  0  0
  -16.5351  -29.9105   23.6339 C   0  0  0  0  0  0
  -16.7269  -28.6527   23.0343 C   0  0  0  0  0  0
  -26.4452  -31.6606   25.0756 C   0  0  0  0  0  0
  -25.3652  -31.3805   26.1458 C   0  0  0  0  0  0
  -27.0306  -30.3027   24.6253 C   0  0  0  0  0  0
  -27.6011  -32.4333   25.7542 C   0  0  0  0  0  0
  -27.5570  -37.1812   24.8448 C   0  0  0  0  0  0
  -21.4196  -29.3036   22.3672 N   0  0  0  0  0  0
  -26.4273  -37.3772   23.9404 N   0  0  0  0  0  0
  -24.6960  -31.0530   22.0945 N   0  0  0  0  0  0
  -23.4189  -28.8142   23.3013 O   0  0  0  0  0  0
  -28.3742  -26.4031   20.2424 O   0  0  0  0  0  0
  -26.5636  -34.8924   22.4676 O   0  0  0  0  0  0
  -23.5446  -32.1396   23.7218 O   0  0  0  0  0  0
  -31.1487  -18.9165   21.9000 C   0  0  0  0  0  0
  -29.6008  -19.8597   20.2822 C   0  0  0  0  0  0
  -30.7418  -21.3518   21.8239 C   0  0  0  0  0  0
  -30.2621  -18.6880   20.8272 C   0  0  0  0  0  0
  -31.4204  -20.2264   22.3662 C   0  0  0  0  0  0
  -29.7968  -21.2150   20.7792 C   0  0  0  0  0  0
  -30.2344  -17.2993   20.1775 C   0  0  0  0  0  0
  -29.6478  -17.1208   16.5230 C   0  0  0  0  0  0
  -28.6518  -24.8993   18.3622 C   0  0  0  0  0  0
  -29.2451  -23.8402   20.6463 C   0  0  0  0  0  0
  -30.2032  -16.4207   17.7698 C   0  0  0  0  0  0
  -28.3247  -24.9439   19.8672 C   0  0  1  0  0  0
  -32.5308  -20.4389   23.3930 C   0  0  0  0  0  0
  -29.1133  -22.3750   20.2343 N   0  0  0  0  0  0
  -30.0281  -16.0586   20.7856 N   0  0  0  0  0  0
  -30.4406  -17.3961   18.8447 N   0  3  0  0  0  0
  -32.6987  -19.3588   24.1568 F   0  0  0  0  0  0
  -33.6762  -20.6718   22.7515 F   0  0  0  0  0  0
  -32.2624  -21.4785   24.1855 F   0  0  0  0  0  0
  -31.4856  -12.5532   19.2196 H   0  0  0  0  0  0
  -30.3425  -11.4978   19.9846 H   0  0  0  0  0  0
  -29.8410  -11.7937   17.5153 H   0  0  0  0  0  0
  -29.6778  -13.5081   17.7474 H   0  0  0  0  0  0
  -27.8808  -11.3245   18.8518 H   0  0  0  0  0  0
  -27.4212  -12.6131   17.7767 H   0  0  0  0  0  0
  -27.6339  -14.2875   19.4715 H   0  0  0  0  0  0
  -28.6971  -12.2301   21.4587 H   0  0  0  0  0  0
  -28.4118  -13.9218   21.7842 H   0  0  0  0  0  0
  -25.2778   -9.5609   22.4756 H   0  0  0  0  0  0
  -24.0000   -7.4545   22.7432 H   0  0  0  0  0  0
  -21.0870   -8.8816   19.8932 H   0  0  0  0  0  0
  -22.3794  -10.9656   19.6163 H   0  0  0  0  0  0
  -21.1954   -7.6108   23.9772 H   0  0  0  0  0  0
  -21.1578   -6.0448   25.9103 H   0  0  0  0  0  0
  -22.0557   -2.7591   23.2848 H   0  0  0  0  0  0
  -22.3917  -11.9966   22.5074 H   0  0  0  0  0  0
  -21.0948  -13.1303   22.2554 H   0  0  0  0  0  0
  -24.5977  -15.7993   20.3379 H   0  0  0  0  0  0
  -26.2177  -15.5964   19.9341 H   0  0  0  0  0  0
  -26.7173  -32.5443   23.1126 H   0  0  0  0  0  0
  -25.0004  -33.9727   25.0382 H   0  0  0  0  0  0
  -22.7215  -31.2876   21.3878 H   0  0  0  0  0  0
  -23.3730  -35.9649   23.3299 H   0  0  0  0  0  0
  -24.3580  -36.8939   22.2059 H   0  0  0  0  0  0
  -23.7260  -37.6495   23.6683 H   0  0  0  0  0  0
  -26.0929  -31.5364   20.6076 H   0  0  0  0  0  0
  -26.8487  -30.8374   22.0067 H   0  0  0  0  0  0
  -28.1248  -28.9312   21.2308 H   0  0  0  0  0  0
  -25.9908  -25.9061   18.9997 H   0  0  0  0  0  0
  -24.0048  -27.2948   18.9979 H   0  0  0  0  0  0
  -23.7739  -30.5777   19.3927 H   0  0  0  0  0  0
  -22.7784  -29.2314   19.8580 H   0  0  0  0  0  0
  -25.1302  -36.1904   25.0797 H   0  0  0  0  0  0
  -20.9960  -28.3269   24.1427 H   0  0  0  0  0  0
  -20.5673  -26.2325   23.3615 H   0  0  0  0  0  0
  -21.6649  -26.7453   22.1256 H   0  0  0  0  0  0
  -19.6904  -25.6268   21.1304 H   0  0  0  0  0  0
  -19.6707  -27.3156   20.6724 H   0  0  0  0  0  0
  -17.4214  -26.6691   21.3997 H   0  0  0  0  0  0
  -18.0303  -26.0085   22.9018 H   0  0  0  0  0  0
  -19.7937  -30.7284   24.2239 H   0  0  0  0  0  0
  -17.5025  -31.6293   24.5182 H   0  0  0  0  0  0
  -15.5357  -30.3015   23.7652 H   0  0  0  0  0  0
  -15.8666  -28.0850   22.7061 H   0  0  0  0  0  0
  -24.5779  -30.7227   25.7754 H   0  0  0  0  0  0
  -24.8890  -32.3016   26.4846 H   0  0  0  0  0  0
  -25.7912  -30.8966   27.0261 H   0  0  0  0  0  0
  -26.2946  -29.6784   24.1178 H   0  0  0  0  0  0
  -27.3876  -29.7268   25.4799 H   0  0  0  0  0  0
  -27.8860  -30.4282   23.9606 H   0  0  0  0  0  0
  -27.2629  -33.3611   26.2177 H   0  0  0  0  0  0
  -28.3827  -32.6948   25.0390 H   0  0  0  0  0  0
  -28.0706  -31.8432   26.5424 H   0  0  0  0  0  0
  -28.2578  -38.0113   24.7497 H   0  0  0  0  0  0
  -28.1079  -36.2651   24.6267 H   0  0  0  0  0  0
  -27.2318  -37.1476   25.8857 H   0  0  0  0  0  0
  -20.9362  -29.8787   21.6921 H   0  0  0  0  0  0
  -26.0140  -38.2842   24.1392 H   0  0  0  0  0  0
  -31.7106  -18.0850   22.3073 H   0  0  0  0  0  0
  -28.9489  -19.7111   19.4359 H   0  0  0  0  0  0
  -30.9911  -22.3338   22.1977 H   0  0  0  0  0  0
  -28.9754  -16.4558   15.9802 H   0  0  0  0  0  0
  -30.4447  -17.4209   15.8422 H   0  0  0  0  0  0
  -29.0651  -18.0089   16.7764 H   0  0  0  0  0  0
  -28.7237  -23.8756   17.9974 H   0  0  0  0  0  0
  -29.6015  -25.3954   18.1545 H   0  0  0  0  0  0
  -27.8850  -25.3939   17.7672 H   0  0  0  0  0  0
  -29.0260  -23.9078   21.7124 H   0  0  0  0  0  0
  -30.2949  -24.1260   20.5500 H   0  0  0  0  0  0
  -31.1008  -15.8382   17.5391 H   0  0  0  0  0  0
  -29.4414  -15.7270   18.1202 H   0  0  0  0  0  0
  -27.3066  -24.5896   20.0203 H   0  0  0  0  0  0
  -28.4223  -22.1876   19.5137 H   0  0  0  0  0  0
  -29.2412  -16.1025   21.4102 H   0  0  0  0  0  0
  -30.8834  -18.2557   18.5467 H   0  0  0  0  0  0
  1 25  1  0  0  0
  1 30  2  0  0  0
  1 85  1  0  0  0
  2  3  1  0  0  0
  2 25  1  0  0  0
  2 90  1  0  0  0
  2 91  1  0  0  0
  3  4  1  0  0  0
  3 92  1  0  0  0
  3 93  1  0  0  0
  4  5  1  0  0  0
  4 94  1  0  0  0
  4 95  1  0  0  0
  5  6  1  0  0  0
  5 26  1  0  0  0
  5 96  1  0  0  0
  6 25  1  0  0  0
  6 97  1  0  0  0
  6 98  1  0  0  0
  7  8  2  0  0  0
  7 26  1  0  0  0
  7 29  1  0  0  0
  8  9  1  0  0  0
  8 22  1  0  0  0
  9 10  1  0  0  0
  9 27  2  0  0  0
 10 11  2  0  0  0
 10 15  1  0  0  0
 11 12  1  0  0  0
 11 99  1  0  0  0
 12 13  2  0  0  0
 12100  1  0  0  0
 13 14  1  0  0  0
 13 31  1  0  0  0
 14 15  2  0  0  0
 14101  1  0  0  0
 15102  1  0  0  0
 16 17  2  0  0  0
 16 21  1  0  0  0
 16 31  1  0  0  0
 17 18  1  0  0  0
 17103  1  0  0  0
 18 19  2  0  0  0
 18104  1  0  0  0
 19 20  1  0  0  0
 19 24  1  0  0  0
 20 21  2  0  0  0
 20105  1  0  0  0
 21 23  1  0  0  0
 22 28  1  0  0  0
 22 32  2  0  0  0
 26 27  1  0  0  0
 28106  1  0  0  0
 28107  1  0  0  0
 29108  1  0  0  0
 29109  1  0  0  0
 33 34  1  0  0  0
 33 66  1  0  0  0
 33 70  2  0  0  0
 34 36  1  0  0  0
 34 59  1  0  0  0
 34110  1  0  0  0
 35 44  2  0  0  0
 35 45  1  0  0  0
 35 68  1  0  0  0
 36 56  1  0  0  0
 36111  1  0  0  0
 37 39  1  0  0  0
 37 47  1  0  0  0
 37 66  1  0  0  0
 37112  1  0  0  0
 38 43  2  0  0  0
 38 46  1  0  0  0
 38 47  1  0  0  0
 39 64  1  0  0  0
 39 67  2  0  0  0
 40 52  1  0  0  0
 40 53  2  0  0  0
 40 58  1  0  0  0
 41113  1  0  0  0
 41114  1  0  0  0
 41115  1  0  0  0
 41 48  1  0  0  0
 42 43  1  0  0  0
 42 66  1  0  0  0
 42116  1  0  0  0
 42117  1  0  0  0
 43 44  1  0  0  0
 44118  1  0  0  0
 45 46  2  0  0  0
 45119  1  0  0  0
 46120  1  0  0  0
 47121  1  0  0  0
 47122  1  0  0  0
 48 56  1  0  0  0
 48 65  1  0  0  0
 48123  1  0  0  0
 49 50  1  0  0  0
 49 53  1  0  0  0
 49 64  1  0  0  0
 49124  1  0  0  0
 50 51  1  0  0  0
 50125  1  0  0  0
 50126  1  0  0  0
 51 52  1  0  0  0
 51127  1  0  0  0
 51128  1  0  0  0
 52129  1  0  0  0
 52130  1  0  0  0
 53 54  1  0  0  0
 54 55  2  0  0  0
 54131  1  0  0  0
 55 57  1  0  0  0
 55132  1  0  0  0
 56 69  2  0  0  0
 57 58  2  0  0  0
 57133  1  0  0  0
 58134  1  0  0  0
 59 60  1  0  0  0
 59 61  1  0  0  0
 59 62  1  0  0  0
 60135  1  0  0  0
 60136  1  0  0  0
 60137  1  0  0  0
 61138  1  0  0  0
 61139  1  0  0  0
 61140  1  0  0  0
 62141  1  0  0  0
 62142  1  0  0  0
 62143  1  0  0  0
 63 65  1  0  0  0
 63144  1  0  0  0
 63145  1  0  0  0
 63146  1  0  0  0
 64147  1  0  0  0
 65148  1  0  0  0
 68 82  1  0  0  0
 71 74  2  0  0  0
 71 75  1  0  0  0
 71149  1  0  0  0
 72 74  1  0  0  0
 72 76  2  0  0  0
 72150  1  0  0  0
 73 75  2  0  0  0
 73 76  1  0  0  0
 73151  1  0  0  0
 74 77  1  0  0  0
 75 83  1  0  0  0
 76 84  1  0  0  0
 77 85  1  0  0  0
 77 86  2  0  0  0
 78 81  1  0  0  0
 78152  1  0  0  0
 78153  1  0  0  0
 78154  1  0  0  0
 79155  1  0  0  0
 79156  1  0  0  0
 79157  1  0  0  0
 79 82  1  0  0  0
 80 82  1  0  0  0
 80 84  1  0  0  0
 80158  1  0  0  0
 80159  1  0  0  0
 81 86  1  0  0  0
 81160  1  0  0  0
 81161  1  0  0  0
 82162  1  0  0  0
 83 87  1  0  0  0
 83 88  1  0  0  0
 83 89  1  0  0  0
 84163  1  0  0  0
 85164  1  0  0  0
 86165  1  0  0  0
M  CHG  1  86   1
M  ISO  4   1 100  68 101  82 101  85 100
M  END
> <chiral flag>
0

> <version>
0

> <s_m_source_file>
/data/baiqing/PycharmProjects/Reinvent-master-3.2/result/LINK_invent/BTK/process_docking_weight1_custom_product_contain_oxygen_bond_distance_aromatic_linkinvent_7_9_3/rearranged_h_0166.sdf

> <i_m_source_file_index>
16

> <r_mmod_Potential_Energy-OPLS-2005>
-15.6965141296387

> <r_mmod_Stretch_Energy-OPLS-2005>
127.845718383789

> <r_mmod_Bend_Energy-OPLS-2005>
195.279693603516

> <r_mmod_Torsional_Energy-OPLS-2005>
263.331665039062

> <r_mmod_Improper_Torsional_Energy-OPLS-2005>
7.50068283081055

> <r_mmod_Van_der_Waal_Energy-OPLS-2005>
138.755264282227

> <r_mmod_Electrostatic_Energy-OPLS-2005>
-415.716400146484

> <r_mmod_Solvation_Energy-OPLS-2005>
-419.934783935547

> <b_mmod_Minimization_Converged-OPLS-2005>
0

> <r_mmod_RMS_Derivative-OPLS-2005>
7.20373868942261

$$$$
16
                    3D
 Structure written by MMmdl.
161169  0  0  1  0            999 V2000
  -30.6649  -14.5847   20.5365 C   0  0  0  0  0  0
  -30.4298  -12.3690   19.4341 C   0  0  0  0  0  0
  -29.5011  -12.5007   18.2090 C   0  0  0  0  0  0
  -28.0236  -12.3458   18.6255 C   0  0  0  0  0  0
  -27.6517  -13.2134   19.8579 C   0  0  2  0  0  0
  -28.6988  -13.0621   20.9834 C   0  0  0  0  0  0
  -25.2560  -13.8166   20.5678 C   0  0  0  0  0  0
  -24.1826  -13.0433   20.9202 C   0  0  0  0  0  0
  -24.6377  -11.6913   20.8732 C   0  0  0  0  0  0
  -23.9025  -10.4304   21.0392 C   0  0  0  0  0  0
  -24.3593   -9.4221   21.9168 C   0  0  0  0  0  0
  -23.6290   -8.2241   22.0740 C   0  0  0  0  0  0
  -22.4261   -8.0265   21.3552 C   0  0  0  0  0  0
  -21.9890   -9.0227   20.4642 C   0  0  0  0  0  0
  -22.7199  -10.2118   20.3042 C   0  0  0  0  0  0
  -21.6856   -6.0718   22.5275 C   0  0  0  0  0  0
  -21.4017   -6.5625   23.8211 C   0  0  0  0  0  0
  -21.3670   -5.6782   24.9176 C   0  0  0  0  0  0
  -21.6038   -4.3042   24.7224 C   0  0  0  0  0  0
  -21.8825   -3.8130   23.4349 C   0  0  0  0  0  0
  -21.9202   -4.6945   22.3408 C   0  0  0  0  0  0
  -22.7846  -13.5246   21.1863 C   0  0  0  0  0  0
  -22.1669   -4.2134   21.0982 F   0  0  0  0  0  0
  -21.5638   -3.4525   25.7741 F   0  0  0  0  0  0
  -30.0136  -13.3886   20.4130 N   0  0  0  0  0  0
  -26.2983  -12.9351   20.3292 N   0  0  0  0  0  0
  -25.9304  -11.6504   20.5722 N   0  0  0  0  0  0
  -22.0466  -12.8249   22.0419 N   0  0  0  0  0  0
  -25.4245  -15.1882   20.4063 N   0  0  0  0  0  0
  -31.8401  -14.7232   20.1870 O   0  0  0  0  0  0
  -21.6645   -6.8850   21.4235 O   0  0  0  0  0  0
  -22.3546  -14.5553   20.6705 O   0  0  0  0  0  0
  -24.6207  -31.8666   23.2075 C   0  0  0  0  0  0
  -25.9082  -32.4806   23.8395 C   0  0  1  0  0  0
  -27.2295  -27.3741   20.1267 C   0  0  0  0  0  0
  -25.5910  -33.8598   24.2321 N   0  0  0  0  0  0
  -23.4140  -30.4872   21.5488 C   0  0  2  0  0  0
  -24.8637  -28.9435   20.1233 C   0  0  0  0  0  0
  -22.7456  -29.4664   22.4984 C   0  0  0  0  0  0
  -18.0295  -28.1310   22.8599 C   0  0  0  0  0  0
  -24.1492  -36.7308   23.2636 C   0  0  0  0  0  0
  -25.9483  -30.8097   21.3759 C   0  0  0  0  0  0
  -26.0256  -29.4350   20.7356 C   0  0  0  0  0  0
  -27.2128  -28.6529   20.7440 C   0  0  0  0  0  0
  -26.0594  -26.9256   19.4844 C   0  0  0  0  0  0
  -24.8766  -27.6880   19.4953 C   0  0  0  0  0  0
  -23.6293  -29.8191   20.1648 C   0  0  0  0  0  0
  -25.4115  -36.3105   24.0346 C   0  0  1  0  0  0
  -20.5905  -28.3656   23.1267 C   0  0  2  0  0  0
  -20.6863  -26.9444   22.5210 C   0  0  0  0  0  0
  -19.5632  -26.6326   21.5269 C   0  0  0  0  0  0
  -18.1968  -26.7743   22.1983 C   0  0  0  0  0  0
  -19.1557  -28.8825   23.2891 C   0  0  0  0  0  0
  -18.9482  -30.1469   23.8821 C   0  0  0  0  0  0
  -17.6472  -30.6590   24.0483 C   0  0  0  0  0  0
  -25.9044  -34.9462   23.5125 C   0  0  0  0  0  0
  -16.5367  -29.9050   23.6327 C   0  0  0  0  0  0
  -16.7281  -28.6434   23.0434 C   0  0  0  0  0  0
  -26.4470  -31.6601   25.0741 C   0  0  0  0  0  0
  -25.3730  -31.3710   26.1475 C   0  0  0  0  0  0
  -27.0284  -30.3038   24.6144 C   0  0  0  0  0  0
  -27.6048  -32.4302   25.7491 C   0  0  0  0  0  0
  -27.5581  -37.1813   24.8463 C   0  0  0  0  0  0
  -21.4172  -29.3077   22.3726 N   0  0  0  0  0  0
  -26.4293  -37.3800   23.9402 N   0  0  0  0  0  0
  -24.6788  -31.0705   22.1018 N   0  0  0  0  0  0
  -23.4195  -28.8205   23.3048 O   0  0  0  0  0  0
  -28.3509  -26.5642   20.0336 O   0  0  0  0  0  0
  -26.5601  -34.8919   22.4687 O   0  0  0  0  0  0
  -23.5386  -32.1435   23.7444 O   0  0  0  0  0  0
  -31.5894  -18.5373   22.5715 C   0  0  0  0  0  0
  -30.9767  -19.6656   21.9890 C   0  0  0  0  0  0
  -31.2556  -17.2338   22.1528 C   0  0  0  0  0  0
  -29.6578  -18.1820   20.5693 C   0  0  0  0  0  0
  -30.0142  -19.5170   20.9661 C   0  0  0  0  0  0
  -30.2813  -17.0242   21.1493 C   0  0  0  0  0  0
  -29.5001  -20.7558   20.2929 C   0  0  0  0  0  0
  -28.8435  -23.2350   20.4633 C   0  0  0  0  0  0
  -28.8456  -23.9770   22.9050 C   0  0  0  0  0  0
  -26.7944  -24.2695   21.5043 C   0  0  0  0  0  0
  -28.7958  -25.8269   21.2011 C   0  0  0  0  0  0
  -28.3341  -24.3243   21.4831 C   0  0  0  0  0  0
  -29.8819  -15.6698   20.8141 N   0  0  0  0  0  0
  -29.1722  -21.8977   20.9806 N   0  0  0  0  0  0
  -29.4290  -20.7257   18.9593 N   0  3  0  0  0  0
  -28.9182  -23.4807   19.2545 O   0  0  0  0  0  0
  -31.4724  -12.4818   19.1342 H   0  0  0  0  0  0
  -30.3484  -11.3720   19.8694 H   0  0  0  0  0  0
  -29.7566  -11.7545   17.4571 H   0  0  0  0  0  0
  -29.6527  -13.4718   17.7342 H   0  0  0  0  0  0
  -27.8601  -11.2919   18.8530 H   0  0  0  0  0  0
  -27.3671  -12.5819   17.7866 H   0  0  0  0  0  0
  -27.6713  -14.2493   19.5204 H   0  0  0  0  0  0
  -28.7041  -12.0394   21.3666 H   0  0  0  0  0  0
  -28.4574  -13.7015   21.8354 H   0  0  0  0  0  0
  -25.2730   -9.5726   22.4750 H   0  0  0  0  0  0
  -24.0012   -7.4638   22.7457 H   0  0  0  0  0  0
  -21.0814   -8.8727   19.8949 H   0  0  0  0  0  0
  -22.3632  -10.9648   19.6155 H   0  0  0  0  0  0
  -21.1995   -7.6137   23.9717 H   0  0  0  0  0  0
  -21.1493   -6.0505   25.9085 H   0  0  0  0  0  0
  -22.0594   -2.7582   23.2850 H   0  0  0  0  0  0
  -22.4062  -11.9925   22.4866 H   0  0  0  0  0  0
  -21.1059  -13.1265   22.2562 H   0  0  0  0  0  0
  -24.6443  -15.8308   20.4916 H   0  0  0  0  0  0
  -26.2519  -15.6231   20.0215 H   0  0  0  0  0  0
  -26.7155  -32.5520   23.1156 H   0  0  0  0  0  0
  -25.0052  -33.9755   25.0463 H   0  0  0  0  0  0
  -22.7046  -31.3053   21.4050 H   0  0  0  0  0  0
  -23.3746  -35.9649   23.3302 H   0  0  0  0  0  0
  -24.3584  -36.8914   22.2047 H   0  0  0  0  0  0
  -23.7250  -37.6521   23.6639 H   0  0  0  0  0  0
  -26.0700  -31.5659   20.5993 H   0  0  0  0  0  0
  -26.8334  -30.8698   21.9974 H   0  0  0  0  0  0
  -28.1116  -29.0310   21.2141 H   0  0  0  0  0  0
  -26.0636  -25.9748   18.9711 H   0  0  0  0  0  0
  -23.9895  -27.3085   19.0071 H   0  0  0  0  0  0
  -23.7447  -30.5925   19.4038 H   0  0  0  0  0  0
  -22.7539  -29.2405   19.8657 H   0  0  0  0  0  0
  -25.1295  -36.1967   25.0845 H   0  0  0  0  0  0
  -21.0011  -28.3129   24.1364 H   0  0  0  0  0  0
  -20.6173  -26.2193   23.3324 H   0  0  0  0  0  0
  -21.6617  -26.7707   22.0648 H   0  0  0  0  0  0
  -19.6801  -25.6227   21.1320 H   0  0  0  0  0  0
  -19.6317  -27.3113   20.6749 H   0  0  0  0  0  0
  -17.4024  -26.6075   21.4686 H   0  0  0  0  0  0
  -18.0834  -26.0074   22.9653 H   0  0  0  0  0  0
  -19.7961  -30.7344   24.2091 H   0  0  0  0  0  0
  -17.5035  -31.6325   24.4976 H   0  0  0  0  0  0
  -15.5358  -30.2945   23.7675 H   0  0  0  0  0  0
  -15.8678  -28.0696   22.7239 H   0  0  0  0  0  0
  -24.5924  -30.7016   25.7801 H   0  0  0  0  0  0
  -24.8892  -32.2868   26.4888 H   0  0  0  0  0  0
  -25.8094  -30.8906   27.0246 H   0  0  0  0  0  0
  -26.2835  -29.6804   24.1170 H   0  0  0  0  0  0
  -27.3991  -29.7250   25.4613 H   0  0  0  0  0  0
  -27.8701  -30.4301   23.9333 H   0  0  0  0  0  0
  -27.2677  -33.3593   26.2082 H   0  0  0  0  0  0
  -28.3850  -32.6866   25.0312 H   0  0  0  0  0  0
  -28.0719  -31.8420   26.5396 H   0  0  0  0  0  0
  -28.2611  -38.0095   24.7510 H   0  0  0  0  0  0
  -28.1075  -36.2635   24.6304 H   0  0  0  0  0  0
  -27.2299  -37.1480   25.8865 H   0  0  0  0  0  0
  -20.9322  -29.8800   21.6952 H   0  0  0  0  0  0
  -26.0182  -38.2877   24.1396 H   0  0  0  0  0  0
  -32.3295  -18.6742   23.3482 H   0  0  0  0  0  0
  -31.2878  -20.6511   22.3129 H   0  0  0  0  0  0
  -31.7389  -16.3960   22.6355 H   0  0  0  0  0  0
  -28.9140  -18.0476   19.7970 H   0  0  0  0  0  0
  -28.4297  -23.0447   23.2894 H   0  0  0  0  0  0
  -28.5698  -24.7469   23.6270 H   0  0  0  0  0  0
  -29.9351  -23.8942   22.9323 H   0  0  0  0  0  0
  -26.4314  -23.3363   21.9366 H   0  0  0  0  0  0
  -26.3797  -24.3391   20.4991 H   0  0  0  0  0  0
  -26.3742  -25.0871   22.0906 H   0  0  0  0  0  0
  -29.8848  -25.8429   21.1688 H   0  0  0  0  0  0
  -28.5438  -26.4353   22.0723 H   0  0  0  0  0  0
  -28.8922  -15.4865   20.8324 H   0  0  0  0  0  0
  -29.1261  -21.7179   21.9713 H   0  0  0  0  0  0
  -29.7736  -19.9269   18.4505 H   0  0  0  0  0  0
  -29.2046  -21.5801   18.4656 H   0  0  0  0  0  0
  1 25  1  0  0  0
  1 30  2  0  0  0
  1 83  1  0  0  0
  2  3  1  0  0  0
  2 25  1  0  0  0
  2 87  1  0  0  0
  2 88  1  0  0  0
  3  4  1  0  0  0
  3 89  1  0  0  0
  3 90  1  0  0  0
  4  5  1  0  0  0
  4 91  1  0  0  0
  4 92  1  0  0  0
  5  6  1  0  0  0
  5 26  1  0  0  0
  5 93  1  0  0  0
  6 25  1  0  0  0
  6 94  1  0  0  0
  6 95  1  0  0  0
  7  8  2  0  0  0
  7 26  1  0  0  0
  7 29  1  0  0  0
  8  9  1  0  0  0
  8 22  1  0  0  0
  9 10  1  0  0  0
  9 27  2  0  0  0
 10 11  2  0  0  0
 10 15  1  0  0  0
 11 12  1  0  0  0
 11 96  1  0  0  0
 12 13  2  0  0  0
 12 97  1  0  0  0
 13 14  1  0  0  0
 13 31  1  0  0  0
 14 15  2  0  0  0
 14 98  1  0  0  0
 15 99  1  0  0  0
 16 17  2  0  0  0
 16 21  1  0  0  0
 16 31  1  0  0  0
 17 18  1  0  0  0
 17100  1  0  0  0
 18 19  2  0  0  0
 18101  1  0  0  0
 19 20  1  0  0  0
 19 24  1  0  0  0
 20 21  2  0  0  0
 20102  1  0  0  0
 21 23  1  0  0  0
 22 28  1  0  0  0
 22 32  2  0  0  0
 26 27  1  0  0  0
 28103  1  0  0  0
 28104  1  0  0  0
 29105  1  0  0  0
 29106  1  0  0  0
 33 34  1  0  0  0
 33 66  1  0  0  0
 33 70  2  0  0  0
 34 36  1  0  0  0
 34 59  1  0  0  0
 34107  1  0  0  0
 35 44  2  0  0  0
 35 45  1  0  0  0
 35 68  1  0  0  0
 36 56  1  0  0  0
 36108  1  0  0  0
 37 39  1  0  0  0
 37 47  1  0  0  0
 37 66  1  0  0  0
 37109  1  0  0  0
 38 43  2  0  0  0
 38 46  1  0  0  0
 38 47  1  0  0  0
 39 64  1  0  0  0
 39 67  2  0  0  0
 40 52  1  0  0  0
 40 53  2  0  0  0
 40 58  1  0  0  0
 41110  1  0  0  0
 41111  1  0  0  0
 41112  1  0  0  0
 41 48  1  0  0  0
 42 43  1  0  0  0
 42 66  1  0  0  0
 42113  1  0  0  0
 42114  1  0  0  0
 43 44  1  0  0  0
 44115  1  0  0  0
 45 46  2  0  0  0
 45116  1  0  0  0
 46117  1  0  0  0
 47118  1  0  0  0
 47119  1  0  0  0
 48 56  1  0  0  0
 48 65  1  0  0  0
 48120  1  0  0  0
 49 50  1  0  0  0
 49 53  1  0  0  0
 49 64  1  0  0  0
 49121  1  0  0  0
 50 51  1  0  0  0
 50122  1  0  0  0
 50123  1  0  0  0
 51 52  1  0  0  0
 51124  1  0  0  0
 51125  1  0  0  0
 52126  1  0  0  0
 52127  1  0  0  0
 53 54  1  0  0  0
 54 55  2  0  0  0
 54128  1  0  0  0
 55 57  1  0  0  0
 55129  1  0  0  0
 56 69  2  0  0  0
 57 58  2  0  0  0
 57130  1  0  0  0
 58131  1  0  0  0
 59 60  1  0  0  0
 59 61  1  0  0  0
 59 62  1  0  0  0
 60132  1  0  0  0
 60133  1  0  0  0
 60134  1  0  0  0
 61135  1  0  0  0
 61136  1  0  0  0
 61137  1  0  0  0
 62138  1  0  0  0
 62139  1  0  0  0
 62140  1  0  0  0
 63 65  1  0  0  0
 63141  1  0  0  0
 63142  1  0  0  0
 63143  1  0  0  0
 64144  1  0  0  0
 65145  1  0  0  0
 68 81  1  0  0  0
 71 72  2  0  0  0
 71 73  1  0  0  0
 71146  1  0  0  0
 72 75  1  0  0  0
 72147  1  0  0  0
 73 76  2  0  0  0
 73148  1  0  0  0
 74 75  2  0  0  0
 74 76  1  0  0  0
 74149  1  0  0  0
 75 77  1  0  0  0
 76 83  1  0  0  0
 77 84  1  0  0  0
 77 85  2  0  0  0
 78 82  1  0  0  0
 78 84  1  0  0  0
 78 86  2  0  0  0
 79150  1  0  0  0
 79151  1  0  0  0
 79152  1  0  0  0
 79 82  1  0  0  0
 80 82  1  0  0  0
 80153  1  0  0  0
 80154  1  0  0  0
 80155  1  0  0  0
 81 82  1  0  0  0
 81156  1  0  0  0
 81157  1  0  0  0
 83158  1  0  0  0
 84159  1  0  0  0
 85160  1  0  0  0
 85161  1  0  0  0
M  CHG  1  85   1
M  ISO  4   1 100  68 101  81 101  83 100
M  END
> <chiral flag>
0

> <version>
0

> <s_m_source_file>
/data/baiqing/PycharmProjects/Reinvent-master-3.2/result/LINK_invent/BTK/process_docking_weight1_custom_product_contain_oxygen_bond_distance_aromatic_linkinvent_7_9_3/rearranged_h_0166.sdf

> <i_m_source_file_index>
17

> <r_mmod_Potential_Energy-OPLS-2005>
-241.4892578125

> <r_mmod_Stretch_Energy-OPLS-2005>
65.1043167114258

> <r_mmod_Bend_Energy-OPLS-2005>
138.348693847656

> <r_mmod_Torsional_Energy-OPLS-2005>
263.333160400391

> <r_mmod_Improper_Torsional_Energy-OPLS-2005>
7.53371286392212

> <r_mmod_Van_der_Waal_Energy-OPLS-2005>
149.593078613281

> <r_mmod_Electrostatic_Energy-OPLS-2005>
-452.534606933594

> <r_mmod_Solvation_Energy-OPLS-2005>
-443.778686523438

> <b_mmod_Minimization_Converged-OPLS-2005>
0

> <r_mmod_RMS_Derivative-OPLS-2005>
3.17108726501465

$$$$
17
                    3D
 Structure written by MMmdl.
157166  0  0  1  0            999 V2000
  -30.6147  -14.7002   20.4759 C   0  0  0  0  0  0
  -30.4348  -12.4240   19.4813 C   0  0  0  0  0  0
  -29.5138  -12.5077   18.2424 C   0  0  0  0  0  0
  -28.0383  -12.3351   18.6498 C   0  0  0  0  0  0
  -27.6488  -13.2240   19.8616 C   0  0  2  0  0  0
  -28.6890  -13.1242   21.0014 C   0  0  0  0  0  0
  -25.2538  -13.8190   20.5689 C   0  0  0  0  0  0
  -24.1810  -13.0447   20.9181 C   0  0  0  0  0  0
  -24.6379  -11.6916   20.8723 C   0  0  0  0  0  0
  -23.9055  -10.4295   21.0404 C   0  0  0  0  0  0
  -24.3605   -9.4211   21.9182 C   0  0  0  0  0  0
  -23.6282   -8.2251   22.0753 C   0  0  0  0  0  0
  -22.4266   -8.0290   21.3545 C   0  0  0  0  0  0
  -21.9897   -9.0265   20.4654 C   0  0  0  0  0  0
  -22.7222  -10.2144   20.3060 C   0  0  0  0  0  0
  -21.6861   -6.0735   22.5277 C   0  0  0  0  0  0
  -21.4016   -6.5634   23.8202 C   0  0  0  0  0  0
  -21.3657   -5.6786   24.9166 C   0  0  0  0  0  0
  -21.6045   -4.3055   24.7216 C   0  0  0  0  0  0
  -21.8822   -3.8144   23.4339 C   0  0  0  0  0  0
  -21.9191   -4.6959   22.3394 C   0  0  0  0  0  0
  -22.7835  -13.5248   21.1841 C   0  0  0  0  0  0
  -22.1661   -4.2144   21.0971 F   0  0  0  0  0  0
  -21.5622   -3.4529   25.7730 F   0  0  0  0  0  0
  -30.0032  -13.4682   20.4392 N   0  0  0  0  0  0
  -26.2958  -12.9382   20.3303 N   0  0  0  0  0  0
  -25.9315  -11.6528   20.5741 N   0  0  0  0  0  0
  -22.0485  -12.8252   22.0413 N   0  0  0  0  0  0
  -25.4281  -15.1910   20.4119 N   0  0  0  0  0  0
  -31.7681  -14.8363   20.0558 O   0  0  0  0  0  0
  -21.6643   -6.8881   21.4236 O   0  0  0  0  0  0
  -22.3523  -14.5553   20.6692 O   0  0  0  0  0  0
  -24.6286  -31.8577   23.1999 C   0  0  0  0  0  0
  -25.9119  -32.4772   23.8335 C   0  0  1  0  0  0
  -27.2188  -27.2745   20.1253 C   0  0  0  0  0  0
  -25.5921  -33.8569   24.2254 N   0  0  0  0  0  0
  -23.4254  -30.4810   21.5434 C   0  0  2  0  0  0
  -24.8733  -28.9369   20.1066 C   0  0  0  0  0  0
  -22.7495  -29.4611   22.4913 C   0  0  0  0  0  0
  -18.0292  -28.1389   22.8485 C   0  0  0  0  0  0
  -24.1491  -36.7292   23.2640 C   0  0  0  0  0  0
  -25.9711  -30.7733   21.3817 C   0  0  0  0  0  0
  -26.0440  -29.3981   20.7228 C   0  0  0  0  0  0
  -27.2173  -28.5768   20.7279 C   0  0  0  0  0  0
  -26.0309  -26.8979   19.4532 C   0  0  0  0  0  0
  -24.8721  -27.6940   19.4617 C   0  0  0  0  0  0
  -23.6426  -29.8198   20.1577 C   0  0  0  0  0  0
  -25.4115  -36.3077   24.0325 C   0  0  1  0  0  0
  -20.5896  -28.3694   23.1271 C   0  0  2  0  0  0
  -20.6777  -26.9412   22.5412 C   0  0  0  0  0  0
  -19.5750  -26.6382   21.5215 C   0  0  0  0  0  0
  -18.1930  -26.7932   22.1627 C   0  0  0  0  0  0
  -19.1547  -28.8860   23.2874 C   0  0  0  0  0  0
  -18.9472  -30.1457   23.8891 C   0  0  0  0  0  0
  -17.6470  -30.6591   24.0564 C   0  0  0  0  0  0
  -25.9059  -34.9448   23.5097 C   0  0  0  0  0  0
  -16.5361  -29.9088   23.6333 C   0  0  0  0  0  0
  -16.7277  -28.6509   23.0352 C   0  0  0  0  0  0
  -26.4488  -31.6590   25.0718 C   0  0  0  0  0  0
  -25.3712  -31.3755   26.1446 C   0  0  0  0  0  0
  -27.0327  -30.2999   24.6214 C   0  0  0  0  0  0
  -27.6049  -32.4330   25.7477 C   0  0  0  0  0  0
  -27.5582  -37.1796   24.8458 C   0  0  0  0  0  0
  -21.4204  -29.3040   22.3657 N   0  0  0  0  0  0
  -26.4293  -37.3770   23.9411 N   0  0  0  0  0  0
  -24.6938  -31.0548   22.0980 N   0  0  0  0  0  0
  -23.4205  -28.8151   23.3007 O   0  0  0  0  0  0
  -28.3033  -26.3678   20.2164 O   0  0  0  0  0  0
  -26.5637  -34.8922   22.4670 O   0  0  0  0  0  0
  -23.5441  -32.1396   23.7301 O   0  0  0  0  0  0
  -28.8288  -18.1652   18.1532 C   0  0  0  0  0  0
  -28.9767  -19.4451   18.7228 C   0  0  0  0  0  0
  -29.1718  -17.0022   18.8680 C   0  0  0  0  0  0
  -29.7963  -18.4040   20.7625 C   0  0  0  0  0  0
  -29.4641  -19.6226   20.0363 C   0  0  0  0  0  0
  -29.6716  -17.0735   20.1860 C   0  0  0  0  0  0
  -28.9033  -23.7431   20.5653 C   0  0  0  0  0  0
  -28.9027  -22.3301   19.8352 C   0  0  0  0  0  0
  -29.6384  -21.3682   22.0316 C   0  0  0  0  0  0
  -30.1814  -22.7895   22.3507 C   0  0  0  0  0  0
  -29.7098  -21.1239   20.5208 C   0  0  1  0  0  0
  -28.0589  -24.9189   19.8980 C   0  0  0  0  0  0
  -29.4566  -23.8955   21.7093 N   0  0  0  0  0  0
  -29.8783  -15.7927   20.8880 N   0  0  0  0  0  0
  -31.4780  -12.5403   19.1825 H   0  0  0  0  0  0
  -30.3707  -11.4398   19.9480 H   0  0  0  0  0  0
  -29.7907  -11.7439   17.5151 H   0  0  0  0  0  0
  -29.6465  -13.4699   17.7437 H   0  0  0  0  0  0
  -27.8903  -11.2831   18.8998 H   0  0  0  0  0  0
  -27.3867  -12.5398   17.7997 H   0  0  0  0  0  0
  -27.6548  -14.2510   19.4974 H   0  0  0  0  0  0
  -28.7091  -12.1148   21.4151 H   0  0  0  0  0  0
  -28.4226  -13.7833   21.8297 H   0  0  0  0  0  0
  -25.2765   -9.5671   22.4737 H   0  0  0  0  0  0
  -23.9993   -7.4637   22.7469 H   0  0  0  0  0  0
  -21.0827   -8.8786   19.8962 H   0  0  0  0  0  0
  -22.3693  -10.9678   19.6157 H   0  0  0  0  0  0
  -21.2021   -7.6149   23.9706 H   0  0  0  0  0  0
  -21.1474   -6.0523   25.9067 H   0  0  0  0  0  0
  -22.0606   -2.7605   23.2846 H   0  0  0  0  0  0
  -22.4114  -11.9926   22.4808 H   0  0  0  0  0  0
  -21.1104  -13.1275   22.2622 H   0  0  0  0  0  0
  -24.6690  -15.8528   20.5387 H   0  0  0  0  0  0
  -26.2839  -15.6272   20.0932 H   0  0  0  0  0  0
  -26.7190  -32.5430   23.1078 H   0  0  0  0  0  0
  -25.0016  -33.9703   25.0367 H   0  0  0  0  0  0
  -22.7212  -31.3030   21.3998 H   0  0  0  0  0  0
  -23.3753  -35.9628   23.3297 H   0  0  0  0  0  0
  -24.3580  -36.8922   22.2055 H   0  0  0  0  0  0
  -23.7249  -37.6493   23.6672 H   0  0  0  0  0  0
  -26.1119  -31.5365   20.6148 H   0  0  0  0  0  0
  -26.8479  -30.8201   22.0158 H   0  0  0  0  0  0
  -28.1078  -28.9193   21.2372 H   0  0  0  0  0  0
  -25.9556  -25.9638   18.9187 H   0  0  0  0  0  0
  -23.9819  -27.3398   18.9600 H   0  0  0  0  0  0
  -23.7631  -30.5978   19.4032 H   0  0  0  0  0  0
  -22.7620  -29.2512   19.8533 H   0  0  0  0  0  0
  -25.1297  -36.1921   25.0818 H   0  0  0  0  0  0
  -20.9990  -28.3278   24.1389 H   0  0  0  0  0  0
  -20.5664  -26.2310   23.3617 H   0  0  0  0  0  0
  -21.6646  -26.7425   22.1217 H   0  0  0  0  0  0
  -19.6911  -25.6291   21.1244 H   0  0  0  0  0  0
  -19.6687  -27.3191   20.6743 H   0  0  0  0  0  0
  -17.4198  -26.6675   21.4033 H   0  0  0  0  0  0
  -18.0332  -26.0075   22.9026 H   0  0  0  0  0  0
  -19.7948  -30.7273   24.2266 H   0  0  0  0  0  0
  -17.5027  -31.6268   24.5166 H   0  0  0  0  0  0
  -15.5363  -30.2993   23.7655 H   0  0  0  0  0  0
  -15.8678  -28.0824   22.7071 H   0  0  0  0  0  0
  -24.5874  -30.7122   25.7769 H   0  0  0  0  0  0
  -24.8928  -32.2942   26.4854 H   0  0  0  0  0  0
  -25.8026  -30.8931   27.0227 H   0  0  0  0  0  0
  -26.2910  -29.6748   24.1233 H   0  0  0  0  0  0
  -27.3989  -29.7260   25.4734 H   0  0  0  0  0  0
  -27.8798  -30.4253   23.9467 H   0  0  0  0  0  0
  -27.2654  -33.3623   26.2060 H   0  0  0  0  0  0
  -28.3843  -32.6908   25.0294 H   0  0  0  0  0  0
  -28.0740  -31.8463   26.5383 H   0  0  0  0  0  0
  -28.2599  -38.0093   24.7509 H   0  0  0  0  0  0
  -28.1082  -36.2628   24.6276 H   0  0  0  0  0  0
  -27.2310  -37.1432   25.8864 H   0  0  0  0  0  0
  -20.9387  -29.8762   21.6862 H   0  0  0  0  0  0
  -26.0172  -38.2848   24.1418 H   0  0  0  0  0  0
  -28.4446  -18.0742   17.1466 H   0  0  0  0  0  0
  -28.7257  -20.3019   18.1143 H   0  0  0  0  0  0
  -29.0188  -16.0441   18.3905 H   0  0  0  0  0  0
  -30.1672  -18.4872   21.7737 H   0  0  0  0  0  0
  -29.2574  -22.4730   18.8145 H   0  0  0  0  0  0
  -27.8577  -22.0315   19.7487 H   0  0  0  0  0  0
  -28.6183  -21.2441   22.3982 H   0  0  0  0  0  0
  -30.2499  -20.6368   22.5607 H   0  0  0  0  0  0
  -31.2385  -22.8479   22.0823 H   0  0  0  0  0  0
  -30.1531  -22.9300   23.4323 H   0  0  0  0  0  0
  -30.7551  -21.2888   20.2532 H   0  0  0  0  0  0
  -27.0384  -24.6669   20.1832 H   0  0  0  0  0  0
  -28.1116  -24.8023   18.8152 H   0  0  0  0  0  0
  -29.0855  -15.5241   21.4511 H   0  0  0  0  0  0
  1 25  1  0  0  0
  1 30  2  0  0  0
  1 84  1  0  0  0
  2  3  1  0  0  0
  2 25  1  0  0  0
  2 85  1  0  0  0
  2 86  1  0  0  0
  3  4  1  0  0  0
  3 87  1  0  0  0
  3 88  1  0  0  0
  4  5  1  0  0  0
  4 89  1  0  0  0
  4 90  1  0  0  0
  5  6  1  0  0  0
  5 26  1  0  0  0
  5 91  1  0  0  0
  6 25  1  0  0  0
  6 92  1  0  0  0
  6 93  1  0  0  0
  7  8  2  0  0  0
  7 26  1  0  0  0
  7 29  1  0  0  0
  8  9  1  0  0  0
  8 22  1  0  0  0
  9 10  1  0  0  0
  9 27  2  0  0  0
 10 11  2  0  0  0
 10 15  1  0  0  0
 11 12  1  0  0  0
 11 94  1  0  0  0
 12 13  2  0  0  0
 12 95  1  0  0  0
 13 14  1  0  0  0
 13 31  1  0  0  0
 14 15  2  0  0  0
 14 96  1  0  0  0
 15 97  1  0  0  0
 16 17  2  0  0  0
 16 21  1  0  0  0
 16 31  1  0  0  0
 17 18  1  0  0  0
 17 98  1  0  0  0
 18 19  2  0  0  0
 18 99  1  0  0  0
 19 20  1  0  0  0
 19 24  1  0  0  0
 20 21  2  0  0  0
 20100  1  0  0  0
 21 23  1  0  0  0
 22 28  1  0  0  0
 22 32  2  0  0  0
 26 27  1  0  0  0
 28101  1  0  0  0
 28102  1  0  0  0
 29103  1  0  0  0
 29104  1  0  0  0
 33 34  1  0  0  0
 33 66  1  0  0  0
 33 70  2  0  0  0
 34 36  1  0  0  0
 34 59  1  0  0  0
 34105  1  0  0  0
 35 44  2  0  0  0
 35 45  1  0  0  0
 35 68  1  0  0  0
 36 56  1  0  0  0
 36106  1  0  0  0
 37 39  1  0  0  0
 37 47  1  0  0  0
 37 66  1  0  0  0
 37107  1  0  0  0
 38 43  2  0  0  0
 38 46  1  0  0  0
 38 47  1  0  0  0
 39 64  1  0  0  0
 39 67  2  0  0  0
 40 52  1  0  0  0
 40 53  2  0  0  0
 40 58  1  0  0  0
 41108  1  0  0  0
 41109  1  0  0  0
 41110  1  0  0  0
 41 48  1  0  0  0
 42 43  1  0  0  0
 42 66  1  0  0  0
 42111  1  0  0  0
 42112  1  0  0  0
 43 44  1  0  0  0
 44113  1  0  0  0
 45 46  2  0  0  0
 45114  1  0  0  0
 46115  1  0  0  0
 47116  1  0  0  0
 47117  1  0  0  0
 48 56  1  0  0  0
 48 65  1  0  0  0
 48118  1  0  0  0
 49 50  1  0  0  0
 49 53  1  0  0  0
 49 64  1  0  0  0
 49119  1  0  0  0
 50 51  1  0  0  0
 50120  1  0  0  0
 50121  1  0  0  0
 51 52  1  0  0  0
 51122  1  0  0  0
 51123  1  0  0  0
 52124  1  0  0  0
 52125  1  0  0  0
 53 54  1  0  0  0
 54 55  2  0  0  0
 54126  1  0  0  0
 55 57  1  0  0  0
 55127  1  0  0  0
 56 69  2  0  0  0
 57 58  2  0  0  0
 57128  1  0  0  0
 58129  1  0  0  0
 59 60  1  0  0  0
 59 61  1  0  0  0
 59 62  1  0  0  0
 60130  1  0  0  0
 60131  1  0  0  0
 60132  1  0  0  0
 61133  1  0  0  0
 61134  1  0  0  0
 61135  1  0  0  0
 62136  1  0  0  0
 62137  1  0  0  0
 62138  1  0  0  0
 63 65  1  0  0  0
 63139  1  0  0  0
 63140  1  0  0  0
 63141  1  0  0  0
 64142  1  0  0  0
 65143  1  0  0  0
 68 82  1  0  0  0
 71 72  2  0  0  0
 71 73  1  0  0  0
 71144  1  0  0  0
 72 75  1  0  0  0
 72145  1  0  0  0
 73 76  2  0  0  0
 73146  1  0  0  0
 74 75  2  0  0  0
 74 76  1  0  0  0
 74147  1  0  0  0
 75 81  1  0  0  0
 76 84  1  0  0  0
 77 78  1  0  0  0
 77 82  1  0  0  0
 77 83  2  0  0  0
 78 81  1  0  0  0
 78148  1  0  0  0
 78149  1  0  0  0
 79 80  1  0  0  0
 79 81  1  0  0  0
 79150  1  0  0  0
 79151  1  0  0  0
 80 83  1  0  0  0
 80152  1  0  0  0
 80153  1  0  0  0
 81154  1  0  0  0
 82155  1  0  0  0
 82156  1  0  0  0
 84157  1  0  0  0
M  ISO  4   1 100  68 101  82 101  84 100
M  END
> <chiral flag>
0

> <version>
0

> <s_m_source_file>
/data/baiqing/PycharmProjects/Reinvent-master-3.2/result/LINK_invent/BTK/process_docking_weight1_custom_product_contain_oxygen_bond_distance_aromatic_linkinvent_7_9_3/rearranged_h_0166.sdf

> <i_m_source_file_index>
18

> <r_mmod_Potential_Energy-OPLS-2005>
173.469131469727

> <r_mmod_Stretch_Energy-OPLS-2005>
114.714096069336

> <r_mmod_Bend_Energy-OPLS-2005>
161.865600585938

> <r_mmod_Torsional_Energy-OPLS-2005>
254.225982666016

> <r_mmod_Improper_Torsional_Energy-OPLS-2005>
7.00075817108154

> <r_mmod_Van_der_Waal_Energy-OPLS-2005>
150.273178100586

> <r_mmod_Electrostatic_Energy-OPLS-2005>
-356.824371337891

> <r_mmod_Solvation_Energy-OPLS-2005>
-232.022155761719

> <b_mmod_Minimization_Converged-OPLS-2005>
0

> <r_mmod_RMS_Derivative-OPLS-2005>
1.84270262718201

$$$$
18
                    3D
 Structure written by MMmdl.
167176  0  0  1  0            999 V2000
  -30.2410  -13.2739   21.0123 C   0  0  0  0  0  0
  -30.3242  -12.2346   18.9105 C   0  0  0  0  0  0
  -29.4882  -12.3551   17.6528 C   0  0  0  0  0  0
  -27.9754  -12.2009   17.8873 C   0  0  0  0  0  0
  -27.4503  -13.1576   18.9585 C   0  0  2  0  0  0
  -28.6037  -13.9512   19.6769 C   0  0  0  0  0  0
  -25.7311  -14.3684   20.1269 C   0  0  0  0  0  0
  -24.9967  -14.4549   21.3859 C   0  0  0  0  0  0
  -24.8023  -12.4826   22.6201 C   0  0  0  0  0  0
  -23.8354  -10.9184   22.3900 C   0  0  0  0  0  0
  -24.3129   -9.5696   22.6949 C   0  0  0  0  0  0
  -23.7241   -8.3088   22.3475 C   0  0  0  0  0  0
  -22.5469   -8.1809   21.5837 C   0  0  0  0  0  0
  -22.0816   -9.3853   21.0487 C   0  0  0  0  0  0
  -22.6382  -10.6361   21.5062 C   0  0  0  0  0  0
  -21.7304   -6.1189   22.5081 C   0  0  0  0  0  0
  -21.4167   -6.5845   23.8081 C   0  0  0  0  0  0
  -21.3572   -5.6914   24.8984 C   0  0  0  0  0  0
  -21.5927   -4.3186   24.6995 C   0  0  0  0  0  0
  -21.8649   -3.8377   23.4068 C   0  0  0  0  0  0
  -21.9258   -4.7302   22.3175 C   0  0  0  0  0  0
  -23.6832  -14.9238   19.9701 C   0  0  0  0  0  0
  -22.1821   -4.2448   21.0794 F   0  0  0  0  0  0
  -21.5509   -3.4617   25.7480 F   0  0  0  0  0  0
  -29.8162  -13.2125   19.8417 N   0  0  0  0  0  0
  -26.1677  -12.8914   19.7552 N   0  0  0  0  0  0
  -25.5603  -11.3933   21.5978 N   0  0  0  0  0  0
  -22.4960  -14.1717   19.7069 N   0  0  0  0  0  0
  -26.2369  -15.5459   19.6287 N   0  0  0  0  0  0
  -31.2547  -14.0056   21.1860 O   0  0  0  0  0  0
  -21.8465   -6.9868   21.4313 O   0  0  0  0  0  0
  -23.1046  -15.8990   19.6403 O   0  0  0  0  0  0
  -24.6939  -31.7758   23.1491 C   0  0  0  0  0  0
  -25.9520  -32.4267   23.7984 C   0  0  1  0  0  0
  -26.3100  -26.0725   20.6676 C   0  0  0  0  0  0
  -25.6085  -33.8152   24.1807 N   0  0  0  0  0  0
  -23.4999  -30.4100   21.5056 C   0  0  2  0  0  0
  -24.8448  -28.6823   20.1036 C   0  0  0  0  0  0
  -22.7653  -29.4263   22.4577 C   0  0  0  0  0  0
  -18.0316  -28.1409   22.8454 C   0  0  0  0  0  0
  -24.1526  -36.7105   23.2648 C   0  0  0  0  0  0
  -26.0604  -30.2847   21.5155 C   0  0  0  0  0  0
  -25.9585  -28.7930   20.9306 C   0  0  0  0  0  0
  -26.7124  -27.4983   21.1832 C   0  0  0  0  0  0
  -25.5264  -26.3589   19.5322 C   0  0  0  0  0  0
  -24.7473  -27.5274   19.3219 C   0  0  0  0  0  0
  -23.7491  -29.7570   20.1106 C   0  0  0  0  0  0
  -25.4188  -36.2797   24.0234 C   0  0  1  0  0  0
  -20.5936  -28.3779   23.1107 C   0  0  2  0  0  0
  -20.6774  -26.9430   22.5396 C   0  0  0  0  0  0
  -19.5756  -26.6351   21.5210 C   0  0  0  0  0  0
  -18.1938  -26.7941   22.1608 C   0  0  0  0  0  0
  -19.1578  -28.8913   23.2779 C   0  0  0  0  0  0
  -18.9492  -30.1496   23.8827 C   0  0  0  0  0  0
  -17.6485  -30.6597   24.0548 C   0  0  0  0  0  0
  -25.9180  -34.9187   23.4857 C   0  0  0  0  0  0
  -16.5375  -29.9081   23.6344 C   0  0  0  0  0  0
  -16.7300  -28.6500   23.0367 C   0  0  0  0  0  0
  -26.4637  -31.6470   25.0746 C   0  0  0  0  0  0
  -25.3631  -31.3931   26.1316 C   0  0  0  0  0  0
  -27.0614  -30.2752   24.6972 C   0  0  0  0  0  0
  -27.6046  -32.4408   25.7543 C   0  0  0  0  0  0
  -27.5547  -37.1752   24.8472 C   0  0  0  0  0  0
  -21.4306  -29.3027   22.3366 N   0  0  0  0  0  0
  -26.4297  -37.3573   23.9345 N   0  0  0  0  0  0
  -24.7860  -30.8842   22.0985 N   0  0  0  0  0  0
  -23.4066  -28.7829   23.2933 O   0  0  0  0  0  0
  -26.4959  -24.4487   20.9810 O   0  0  0  0  0  0
  -26.5826  -34.8800   22.4481 O   0  0  0  0  0  0
  -23.5967  -32.1156   23.6285 O   0  0  0  0  0  0
  -25.8608  -10.5161   19.4153 C   0  0  0  0  0  0
  -24.3565  -11.3390   19.5210 C   0  0  0  0  0  0
  -27.3796  -10.7799   20.2216 C   0  0  0  0  0  0
  -26.7890  -13.1172   21.8059 C   0  0  0  0  0  0
  -24.1174  -12.6433   20.6026 C   0  0  0  0  0  0
  -27.8850  -11.9932   21.3145 C   0  0  0  0  0  0
  -22.8195  -14.1914   22.2100 C   0  0  0  0  0  0
  -23.8135  -19.4030   22.9581 C   0  0  0  0  0  0
  -25.0307  -18.9125   21.5396 C   0  0  0  0  0  0
  -22.9267  -17.6348   23.0165 C   0  0  0  0  0  0
  -24.1321  -17.2847   21.4868 C   0  0  0  0  0  0
  -24.6074  -20.6541   21.7583 C   0  0  0  0  0  0
  -23.1576  -20.7202   19.7995 C   0  0  0  0  0  0
  -25.6158  -22.7188   21.6796 C   0  0  0  0  0  0
  -23.2371  -16.0304   22.3845 N   0  0  0  0  0  0
  -29.3217  -12.4349   21.7198 N   0  0  0  0  0  0
  -21.8215  -13.7413   22.9610 N   0  3  0  0  0  0
  -23.3655  -21.0263   21.1665 O   0  0  0  0  0  0
  -31.3737  -12.3936   18.6750 H   0  0  0  0  0  0
  -30.2388  -11.2224   19.2938 H   0  0  0  0  0  0
  -29.8193  -11.6184   16.9097 H   0  0  0  0  0  0
  -29.6722  -13.3266   17.1819 H   0  0  0  0  0  0
  -27.7152  -11.1532   17.9122 H   0  0  0  0  0  0
  -27.5032  -12.4746   16.9466 H   0  0  0  0  0  0
  -27.0955  -13.8825   18.2264 H   0  0  0  0  0  0
  -28.3226  -14.5678   20.5422 H   0  0  0  0  0  0
  -28.8828  -14.7432   18.9809 H   0  0  0  0  0  0
  -25.2175   -9.5100   23.2805 H   0  0  0  0  0  0
  -24.1825   -7.4160   22.7463 H   0  0  0  0  0  0
  -21.2101   -9.3813   20.4104 H   0  0  0  0  0  0
  -22.0824  -11.4700   21.1099 H   0  0  0  0  0  0
  -21.2426   -7.6374   23.9770 H   0  0  0  0  0  0
  -21.1353   -6.0614   25.8892 H   0  0  0  0  0  0
  -22.0289   -2.7827   23.2481 H   0  0  0  0  0  0
  -22.4641  -13.1718   19.8806 H   0  0  0  0  0  0
  -21.7601  -14.6071   19.1733 H   0  0  0  0  0  0
  -26.2666  -16.3718   20.2116 H   0  0  0  0  0  0
  -26.9969  -15.5295   18.9595 H   0  0  0  0  0  0
  -26.7536  -32.4513   23.0596 H   0  0  0  0  0  0
  -25.0157  -33.9184   24.9910 H   0  0  0  0  0  0
  -22.8439  -31.2670   21.3448 H   0  0  0  0  0  0
  -23.3761  -35.9465   23.3305 H   0  0  0  0  0  0
  -24.3562  -36.8793   22.2062 H   0  0  0  0  0  0
  -23.7346  -37.6301   23.6756 H   0  0  0  0  0  0
  -26.3431  -30.9376   20.6872 H   0  0  0  0  0  0
  -26.9081  -30.3356   22.1801 H   0  0  0  0  0  0
  -27.4664  -27.5390   21.9572 H   0  0  0  0  0  0
  -25.2564  -25.5148   18.9182 H   0  0  0  0  0  0
  -23.9688  -27.4755   18.5709 H   0  0  0  0  0  0
  -24.0166  -30.5299   19.3873 H   0  0  0  0  0  0
  -22.8205  -29.3199   19.7393 H   0  0  0  0  0  0
  -25.1426  -36.1538   25.0729 H   0  0  0  0  0  0
  -21.0052  -28.3428   24.1222 H   0  0  0  0  0  0
  -20.5630  -26.2405   23.3664 H   0  0  0  0  0  0
  -21.6638  -26.7363   22.1226 H   0  0  0  0  0  0
  -19.6907  -25.6238   21.1300 H   0  0  0  0  0  0
  -19.6702  -27.3108   20.6700 H   0  0  0  0  0  0
  -17.4212  -26.6700   21.4003 H   0  0  0  0  0  0
  -18.0312  -26.0095   22.9011 H   0  0  0  0  0  0
  -19.7972  -30.7328   24.2157 H   0  0  0  0  0  0
  -17.5040  -31.6272   24.5160 H   0  0  0  0  0  0
  -15.5373  -30.2962   23.7706 H   0  0  0  0  0  0
  -15.8700  -28.0795   22.7127 H   0  0  0  0  0  0
  -24.5878  -30.7185   25.7663 H   0  0  0  0  0  0
  -24.8759  -32.3203   26.4344 H   0  0  0  0  0  0
  -25.7753  -30.9393   27.0337 H   0  0  0  0  0  0
  -26.3325  -29.6193   24.2207 H   0  0  0  0  0  0
  -27.4060  -29.7418   25.5839 H   0  0  0  0  0  0
  -27.9350  -30.3762   24.0527 H   0  0  0  0  0  0
  -27.2572  -33.3847   26.1754 H   0  0  0  0  0  0
  -28.4042  -32.6728   25.0494 H   0  0  0  0  0  0
  -28.0498  -31.8784   26.5763 H   0  0  0  0  0  0
  -28.2590  -38.0008   24.7367 H   0  0  0  0  0  0
  -28.1013  -36.2516   24.6508 H   0  0  0  0  0  0
  -27.2220  -37.1633   25.8865 H   0  0  0  0  0  0
  -20.9549  -29.8762   21.6534 H   0  0  0  0  0  0
  -26.0098  -38.2633   24.1240 H   0  0  0  0  0  0
  -25.8426   -9.6639   18.7549 H   0  0  0  0  0  0
  -23.5009  -10.9382   18.9984 H   0  0  0  0  0  0
  -28.1563  -10.0996   19.9136 H   0  0  0  0  0  0
  -27.0552  -13.8748   22.5366 H   0  0  0  0  0  0
  -24.5248  -19.3447   23.7847 H   0  0  0  0  0  0
  -23.0509  -20.0259   23.4117 H   0  0  0  0  0  0
  -25.4516  -18.9270   20.5325 H   0  0  0  0  0  0
  -25.9415  -18.7210   22.1194 H   0  0  0  0  0  0
  -21.9198  -17.8424   22.6486 H   0  0  0  0  0  0
  -22.7573  -17.4568   24.0760 H   0  0  0  0  0  0
  -24.9143  -16.7968   20.9719 H   0  0  0  0  0  0
  -23.3845  -17.6671   20.7902 H   0  0  0  0  0  0
  -22.2291  -21.1971   19.4710 H   0  0  0  0  0  0
  -23.0378  -19.6494   19.6368 H   0  0  0  0  0  0
  -23.9672  -21.0906   19.1755 H   0  0  0  0  0  0
  -26.5947  -22.2971   21.9151 H   0  0  0  0  0  0
  -25.2859  -23.1216   22.6334 H   0  0  0  0  0  0
  -29.4808  -12.4791   22.7115 H   0  0  0  0  0  0
  -21.5161  -12.7795   22.9426 H   0  0  0  0  0  0
  -21.3024  -14.3989   23.5195 H   0  0  0  0  0  0
  1 25  1  0  0  0
  1 30  2  0  0  0
  1 86  1  0  0  0
  2  3  1  0  0  0
  2 25  1  0  0  0
  2 89  1  0  0  0
  2 90  1  0  0  0
  3  4  1  0  0  0
  3 91  1  0  0  0
  3 92  1  0  0  0
  4  5  1  0  0  0
  4 93  1  0  0  0
  4 94  1  0  0  0
  5  6  1  0  0  0
  5 26  1  0  0  0
  5 95  1  0  0  0
  6 25  1  0  0  0
  6 96  1  0  0  0
  6 97  1  0  0  0
  7  8  2  0  0  0
  7 26  1  0  0  0
  7 29  1  0  0  0
  8  9  1  0  0  0
  8 22  1  0  0  0
  9 10  1  0  0  0
  9 27  2  0  0  0
 10 11  2  0  0  0
 10 15  1  0  0  0
 11 12  1  0  0  0
 11 98  1  0  0  0
 12 13  2  0  0  0
 12 99  1  0  0  0
 13 14  1  0  0  0
 13 31  1  0  0  0
 14 15  2  0  0  0
 14100  1  0  0  0
 15101  1  0  0  0
 16 17  2  0  0  0
 16 21  1  0  0  0
 16 31  1  0  0  0
 17 18  1  0  0  0
 17102  1  0  0  0
 18 19  2  0  0  0
 18103  1  0  0  0
 19 20  1  0  0  0
 19 24  1  0  0  0
 20 21  2  0  0  0
 20104  1  0  0  0
 21 23  1  0  0  0
 22 28  1  0  0  0
 22 32  2  0  0  0
 26 27  1  0  0  0
 28105  1  0  0  0
 28106  1  0  0  0
 29107  1  0  0  0
 29108  1  0  0  0
 33 34  1  0  0  0
 33 66  1  0  0  0
 33 70  2  0  0  0
 34 36  1  0  0  0
 34 59  1  0  0  0
 34109  1  0  0  0
 35 44  2  0  0  0
 35 45  1  0  0  0
 35 68  1  0  0  0
 36 56  1  0  0  0
 36110  1  0  0  0
 37 39  1  0  0  0
 37 47  1  0  0  0
 37 66  1  0  0  0
 37111  1  0  0  0
 38 43  2  0  0  0
 38 46  1  0  0  0
 38 47  1  0  0  0
 39 64  1  0  0  0
 39 67  2  0  0  0
 40 52  1  0  0  0
 40 53  2  0  0  0
 40 58  1  0  0  0
 41112  1  0  0  0
 41113  1  0  0  0
 41114  1  0  0  0
 41 48  1  0  0  0
 42 43  1  0  0  0
 42 66  1  0  0  0
 42115  1  0  0  0
 42116  1  0  0  0
 43 44  1  0  0  0
 44117  1  0  0  0
 45 46  2  0  0  0
 45118  1  0  0  0
 46119  1  0  0  0
 47120  1  0  0  0
 47121  1  0  0  0
 48 56  1  0  0  0
 48 65  1  0  0  0
 48122  1  0  0  0
 49 50  1  0  0  0
 49 53  1  0  0  0
 49 64  1  0  0  0
 49123  1  0  0  0
 50 51  1  0  0  0
 50124  1  0  0  0
 50125  1  0  0  0
 51 52  1  0  0  0
 51126  1  0  0  0
 51127  1  0  0  0
 52128  1  0  0  0
 52129  1  0  0  0
 53 54  1  0  0  0
 54 55  2  0  0  0
 54130  1  0  0  0
 55 57  1  0  0  0
 55131  1  0  0  0
 56 69  2  0  0  0
 57 58  2  0  0  0
 57132  1  0  0  0
 58133  1  0  0  0
 59 60  1  0  0  0
 59 61  1  0  0  0
 59 62  1  0  0  0
 60134  1  0  0  0
 60135  1  0  0  0
 60136  1  0  0  0
 61137  1  0  0  0
 61138  1  0  0  0
 61139  1  0  0  0
 62140  1  0  0  0
 62141  1  0  0  0
 62142  1  0  0  0
 63 65  1  0  0  0
 63143  1  0  0  0
 63144  1  0  0  0
 63145  1  0  0  0
 64146  1  0  0  0
 65147  1  0  0  0
 68 84  1  0  0  0
 71 72  2  0  0  0
 71 73  1  0  0  0
 71148  1  0  0  0
 72 75  1  0  0  0
 72149  1  0  0  0
 73 76  2  0  0  0
 73150  1  0  0  0
 74 75  2  0  0  0
 74 76  1  0  0  0
 74151  1  0  0  0
 75 77  1  0  0  0
 76 86  1  0  0  0
 77 85  1  0  0  0
 77 87  2  0  0  0
 78 80  1  0  0  0
 78 82  1  0  0  0
 78152  1  0  0  0
 78153  1  0  0  0
 79 81  1  0  0  0
 79 82  1  0  0  0
 79154  1  0  0  0
 79155  1  0  0  0
 80 85  1  0  0  0
 80156  1  0  0  0
 80157  1  0  0  0
 81 85  1  0  0  0
 81158  1  0  0  0
 81159  1  0  0  0
 82 84  1  0  0  0
 82 88  1  0  0  0
 83 88  1  0  0  0
 83160  1  0  0  0
 83161  1  0  0  0
 83162  1  0  0  0
 84163  1  0  0  0
 84164  1  0  0  0
 86165  1  0  0  0
 87166  1  0  0  0
 87167  1  0  0  0
M  CHG  1  87   1
M  ISO  4   1 100  68 101  84 101  86 100
M  END
> <chiral flag>
0

> <version>
0

> <s_m_source_file>
/data/baiqing/PycharmProjects/Reinvent-master-3.2/result/LINK_invent/BTK/process_docking_weight1_custom_product_contain_oxygen_bond_distance_aromatic_linkinvent_7_9_3/rearranged_h_0166.sdf

> <i_m_source_file_index>
19

> <r_mmod_Potential_Energy-OPLS-2005>
29318.375

> <r_mmod_Stretch_Energy-OPLS-2005>
15318.4482421875

> <r_mmod_Bend_Energy-OPLS-2005>
2735.49243164062

> <r_mmod_Torsional_Energy-OPLS-2005>
690.384643554688

> <r_mmod_Improper_Torsional_Energy-OPLS-2005>
116.354331970215

> <r_mmod_Van_der_Waal_Energy-OPLS-2005>
5619.908203125

> <r_mmod_Electrostatic_Energy-OPLS-2005>
-378.415954589844

> <r_mmod_Solvation_Energy-OPLS-2005>
-401.700561523438

> <b_mmod_Minimization_Converged-OPLS-2005>
0

> <r_mmod_RMS_Derivative-OPLS-2005>
22.9454021453857

$$$$
19
                    3D
 Structure written by MMmdl.
155163  0  0  1  0            999 V2000
  -30.7110  -14.5952   20.5367 C   0  0  0  0  0  0
  -30.4317  -12.3853   19.4615 C   0  0  0  0  0  0
  -29.5093  -12.5117   18.2304 C   0  0  0  0  0  0
  -28.0408  -12.3477   18.6588 C   0  0  0  0  0  0
  -27.6677  -13.2219   19.8870 C   0  0  2  0  0  0
  -28.7181  -13.0981   21.0181 C   0  0  0  0  0  0
  -25.2640  -13.8205   20.5723 C   0  0  0  0  0  0
  -24.1886  -13.0459   20.9213 C   0  0  0  0  0  0
  -24.6431  -11.6941   20.8757 C   0  0  0  0  0  0
  -23.9080  -10.4321   21.0412 C   0  0  0  0  0  0
  -24.3620   -9.4242   21.9191 C   0  0  0  0  0  0
  -23.6295   -8.2274   22.0765 C   0  0  0  0  0  0
  -22.4279   -8.0299   21.3551 C   0  0  0  0  0  0
  -21.9918   -9.0284   20.4661 C   0  0  0  0  0  0
  -22.7248  -10.2165   20.3078 C   0  0  0  0  0  0
  -21.6871   -6.0730   22.5269 C   0  0  0  0  0  0
  -21.4014   -6.5637   23.8195 C   0  0  0  0  0  0
  -21.3657   -5.6794   24.9164 C   0  0  0  0  0  0
  -21.6054   -4.3057   24.7221 C   0  0  0  0  0  0
  -21.8826   -3.8139   23.4346 C   0  0  0  0  0  0
  -21.9203   -4.6955   22.3396 C   0  0  0  0  0  0
  -22.7909  -13.5282   21.1815 C   0  0  0  0  0  0
  -22.1678   -4.2138   21.0981 F   0  0  0  0  0  0
  -21.5630   -3.4545   25.7738 F   0  0  0  0  0  0
  -30.0273  -13.4158   20.4387 N   0  0  0  0  0  0
  -26.3083  -12.9381   20.3468 N   0  0  0  0  0  0
  -25.9385  -11.6524   20.5858 N   0  0  0  0  0  0
  -22.0502  -12.8278   22.0356 N   0  0  0  0  0  0
  -25.4369  -15.1894   20.4094 N   0  0  0  0  0  0
  -31.8690  -14.6919   20.1273 O   0  0  0  0  0  0
  -21.6668   -6.8876   21.4228 O   0  0  0  0  0  0
  -22.3621  -14.5590   20.6671 O   0  0  0  0  0  0
  -24.6287  -31.8616   23.2040 C   0  0  0  0  0  0
  -25.9101  -32.4799   23.8390 C   0  0  1  0  0  0
  -27.2167  -27.3387   20.0704 C   0  0  0  0  0  0
  -25.5917  -33.8601   24.2315 N   0  0  0  0  0  0
  -23.4248  -30.4906   21.5432 C   0  0  2  0  0  0
  -24.8601  -28.9395   20.1198 C   0  0  0  0  0  0
  -22.7408  -29.4756   22.4931 C   0  0  0  0  0  0
  -18.0271  -28.1255   22.8475 C   0  0  0  0  0  0
  -24.1480  -36.7289   23.2650 C   0  0  0  0  0  0
  -25.9680  -30.7858   21.3787 C   0  0  0  0  0  0
  -26.0343  -29.4161   20.7175 C   0  0  0  0  0  0
  -27.2136  -28.6235   20.6907 C   0  0  0  0  0  0
  -26.0064  -26.8879   19.4936 C   0  0  0  0  0  0
  -24.8457  -27.6788   19.5098 C   0  0  0  0  0  0
  -23.6340  -29.8256   20.1603 C   0  0  0  0  0  0
  -25.4104  -36.3096   24.0339 C   0  0  1  0  0  0
  -20.5855  -28.3717   23.1095 C   0  0  2  0  0  0
  -20.6960  -26.9572   22.4892 C   0  0  0  0  0  0
  -19.5585  -26.6138   21.5172 C   0  0  0  0  0  0
  -18.1865  -26.7713   22.1753 C   0  0  0  0  0  0
  -19.1502  -28.8780   23.2775 C   0  0  0  0  0  0
  -18.9401  -30.1388   23.8752 C   0  0  0  0  0  0
  -17.6425  -30.6517   24.0425 C   0  0  0  0  0  0
  -25.9047  -34.9469   23.5148 C   0  0  0  0  0  0
  -16.5322  -29.8979   23.6241 C   0  0  0  0  0  0
  -16.7260  -28.6338   23.0395 C   0  0  0  0  0  0
  -26.4482  -31.6583   25.0747 C   0  0  0  0  0  0
  -25.3761  -31.3685   26.1504 C   0  0  0  0  0  0
  -27.0355  -30.3030   24.6185 C   0  0  0  0  0  0
  -27.6072  -32.4308   25.7503 C   0  0  0  0  0  0
  -27.5588  -37.1798   24.8479 C   0  0  0  0  0  0
  -21.4107  -29.3317   22.3753 N   0  0  0  0  0  0
  -26.4296  -37.3779   23.9433 N   0  0  0  0  0  0
  -24.6935  -31.0612   22.1001 N   0  0  0  0  0  0
  -23.4109  -28.8175   23.2927 O   0  0  0  0  0  0
  -28.3713  -26.5515   20.0654 O   0  0  0  0  0  0
  -26.5610  -34.8941   22.4716 O   0  0  0  0  0  0
  -23.5436  -32.1424   23.7326 O   0  0  0  0  0  0
  -29.0193  -19.0243   21.7947 C   0  0  0  0  0  0
  -29.7551  -18.3419   20.8349 C   0  0  0  0  0  0
  -29.1103  -20.2799   20.0399 C   0  0  0  0  0  0
  -28.7991  -18.8131   23.2187 C   0  0  0  0  0  0
  -28.5256  -23.9785   20.0954 C   0  0  0  0  0  0
  -27.7782  -19.7158   23.9055 C   0  0  0  0  0  0
  -30.6394  -17.0770   20.8991 C   0  0  0  0  0  0
  -28.0423  -22.6529   19.4280 C   0  0  0  0  0  0
  -28.4317  -25.3092   19.2788 C   0  0  0  0  0  0
  -29.8049  -19.1887   19.7136 N   0  0  0  0  0  0
  -28.9766  -21.5050   19.3758 N   0  0  0  0  0  0
  -30.0328  -15.7108   20.9321 N   0  0  0  0  0  0
  -29.4392  -17.9900   23.8781 O   0  0  0  0  0  0
  -28.9727  -23.9519   21.2465 O   0  0  0  0  0  0
  -28.5448  -20.2077   21.2584 O   0  0  0  0  0  0
  -31.4739  -12.4865   19.1551 H   0  0  0  0  0  0
  -30.3556  -11.3930   19.9046 H   0  0  0  0  0  0
  -29.7759  -11.7530   17.4932 H   0  0  0  0  0  0
  -29.6587  -13.4722   17.7415 H   0  0  0  0  0  0
  -27.8989  -11.2966   18.9029 H   0  0  0  0  0  0
  -27.3729  -12.5623   17.8237 H   0  0  0  0  0  0
  -27.6857  -14.2567   19.5472 H   0  0  0  0  0  0
  -28.7317  -12.0942   21.4396 H   0  0  0  0  0  0
  -28.4774  -13.7600   21.8494 H   0  0  0  0  0  0
  -25.2747   -9.5740   22.4794 H   0  0  0  0  0  0
  -24.0008   -7.4684   22.7501 H   0  0  0  0  0  0
  -21.0848   -8.8811   19.8976 H   0  0  0  0  0  0
  -22.3679  -10.9719   19.6223 H   0  0  0  0  0  0
  -21.1996   -7.6146   23.9686 H   0  0  0  0  0  0
  -21.1471   -6.0532   25.9063 H   0  0  0  0  0  0
  -22.0598   -2.7606   23.2854 H   0  0  0  0  0  0
  -22.4100  -11.9965   22.4791 H   0  0  0  0  0  0
  -21.1124  -13.1349   22.2501 H   0  0  0  0  0  0
  -24.6608  -15.8361   20.4956 H   0  0  0  0  0  0
  -26.2736  -15.6188   20.0317 H   0  0  0  0  0  0
  -26.7218  -32.5438   23.1187 H   0  0  0  0  0  0
  -25.0070  -33.9747   25.0459 H   0  0  0  0  0  0
  -22.7264  -31.3124   21.3907 H   0  0  0  0  0  0
  -23.3763  -35.9612   23.3314 H   0  0  0  0  0  0
  -24.3591  -36.8891   22.2081 H   0  0  0  0  0  0
  -23.7214  -37.6493   23.6641 H   0  0  0  0  0  0
  -26.1050  -31.5485   20.6089 H   0  0  0  0  0  0
  -26.8502  -30.8299   22.0080 H   0  0  0  0  0  0
  -28.1238  -28.9770   21.1555 H   0  0  0  0  0  0
  -25.8973  -25.9168   19.0385 H   0  0  0  0  0  0
  -23.9385  -27.3012   19.0550 H   0  0  0  0  0  0
  -23.7508  -30.5931   19.3950 H   0  0  0  0  0  0
  -22.7516  -29.2557   19.8686 H   0  0  0  0  0  0
  -25.1279  -36.1992   25.0827 H   0  0  0  0  0  0
  -20.9793  -28.3046   24.1281 H   0  0  0  0  0  0
  -20.6922  -26.2277   23.2985 H   0  0  0  0  0  0
  -21.6594  -26.8161   21.9947 H   0  0  0  0  0  0
  -19.6732  -25.5940   21.1502 H   0  0  0  0  0  0
  -19.6169  -27.2584   20.6395 H   0  0  0  0  0  0
  -17.4040  -26.6196   21.4280 H   0  0  0  0  0  0
  -18.0501  -25.9945   22.9310 H   0  0  0  0  0  0
  -19.7813  -30.7291   24.2049 H   0  0  0  0  0  0
  -17.4963  -31.6234   24.4914 H   0  0  0  0  0  0
  -15.5334  -30.2852   23.7578 H   0  0  0  0  0  0
  -15.8647  -28.0569   22.7235 H   0  0  0  0  0  0
  -24.5897  -30.7075   25.7830 H   0  0  0  0  0  0
  -24.8995  -32.2834   26.5045 H   0  0  0  0  0  0
  -25.8128  -30.8790   27.0220 H   0  0  0  0  0  0
  -26.2929  -29.6754   24.1251 H   0  0  0  0  0  0
  -27.4137  -29.7297   25.4654 H   0  0  0  0  0  0
  -27.8755  -30.4354   23.9370 H   0  0  0  0  0  0
  -27.2692  -33.3571   26.2175 H   0  0  0  0  0  0
  -28.3829  -32.6941   25.0288 H   0  0  0  0  0  0
  -28.0827  -31.8393   26.5346 H   0  0  0  0  0  0
  -28.2603  -38.0091   24.7526 H   0  0  0  0  0  0
  -28.1073  -36.2632   24.6288 H   0  0  0  0  0  0
  -27.2309  -37.1435   25.8875 H   0  0  0  0  0  0
  -20.9245  -29.9317   21.7236 H   0  0  0  0  0  0
  -26.0197  -38.2865   24.1423 H   0  0  0  0  0  0
  -26.8004  -19.2423   23.8670 H   0  0  0  0  0  0
  -27.7155  -20.6771   23.3947 H   0  0  0  0  0  0
  -28.0260  -19.9119   24.9495 H   0  0  0  0  0  0
  -31.2980  -17.1175   20.0296 H   0  0  0  0  0  0
  -31.3208  -17.1488   21.7482 H   0  0  0  0  0  0
  -27.7668  -22.8963   18.4001 H   0  0  0  0  0  0
  -27.1096  -22.3295   19.8878 H   0  0  0  0  0  0
  -27.6541  -25.2300   18.5194 H   0  0  0  0  0  0
  -29.3563  -25.3578   18.7053 H   0  0  0  0  0  0
  -29.5819  -21.5558   18.5655 H   0  0  0  0  0  0
  -29.0861  -15.6228   21.2717 H   0  0  0  0  0  0
  1 25  1  0  0  0
  1 30  2  0  0  0
  1 82  1  0  0  0
  2  3  1  0  0  0
  2 25  1  0  0  0
  2 86  1  0  0  0
  2 87  1  0  0  0
  3  4  1  0  0  0
  3 88  1  0  0  0
  3 89  1  0  0  0
  4  5  1  0  0  0
  4 90  1  0  0  0
  4 91  1  0  0  0
  5  6  1  0  0  0
  5 26  1  0  0  0
  5 92  1  0  0  0
  6 25  1  0  0  0
  6 93  1  0  0  0
  6 94  1  0  0  0
  7  8  2  0  0  0
  7 26  1  0  0  0
  7 29  1  0  0  0
  8  9  1  0  0  0
  8 22  1  0  0  0
  9 10  1  0  0  0
  9 27  2  0  0  0
 10 11  2  0  0  0
 10 15  1  0  0  0
 11 12  1  0  0  0
 11 95  1  0  0  0
 12 13  2  0  0  0
 12 96  1  0  0  0
 13 14  1  0  0  0
 13 31  1  0  0  0
 14 15  2  0  0  0
 14 97  1  0  0  0
 15 98  1  0  0  0
 16 17  2  0  0  0
 16 21  1  0  0  0
 16 31  1  0  0  0
 17 18  1  0  0  0
 17 99  1  0  0  0
 18 19  2  0  0  0
 18100  1  0  0  0
 19 20  1  0  0  0
 19 24  1  0  0  0
 20 21  2  0  0  0
 20101  1  0  0  0
 21 23  1  0  0  0
 22 28  1  0  0  0
 22 32  2  0  0  0
 26 27  1  0  0  0
 28102  1  0  0  0
 28103  1  0  0  0
 29104  1  0  0  0
 29105  1  0  0  0
 33 34  1  0  0  0
 33 66  1  0  0  0
 33 70  2  0  0  0
 34 36  1  0  0  0
 34 59  1  0  0  0
 34106  1  0  0  0
 35 44  2  0  0  0
 35 45  1  0  0  0
 35 68  1  0  0  0
 36 56  1  0  0  0
 36107  1  0  0  0
 37 39  1  0  0  0
 37 47  1  0  0  0
 37 66  1  0  0  0
 37108  1  0  0  0
 38 43  2  0  0  0
 38 46  1  0  0  0
 38 47  1  0  0  0
 39 64  1  0  0  0
 39 67  2  0  0  0
 40 52  1  0  0  0
 40 53  2  0  0  0
 40 58  1  0  0  0
 41109  1  0  0  0
 41110  1  0  0  0
 41111  1  0  0  0
 41 48  1  0  0  0
 42 43  1  0  0  0
 42 66  1  0  0  0
 42112  1  0  0  0
 42113  1  0  0  0
 43 44  1  0  0  0
 44114  1  0  0  0
 45 46  2  0  0  0
 45115  1  0  0  0
 46116  1  0  0  0
 47117  1  0  0  0
 47118  1  0  0  0
 48 56  1  0  0  0
 48 65  1  0  0  0
 48119  1  0  0  0
 49 50  1  0  0  0
 49 53  1  0  0  0
 49 64  1  0  0  0
 49120  1  0  0  0
 50 51  1  0  0  0
 50121  1  0  0  0
 50122  1  0  0  0
 51 52  1  0  0  0
 51123  1  0  0  0
 51124  1  0  0  0
 52125  1  0  0  0
 52126  1  0  0  0
 53 54  1  0  0  0
 54 55  2  0  0  0
 54127  1  0  0  0
 55 57  1  0  0  0
 55128  1  0  0  0
 56 69  2  0  0  0
 57 58  2  0  0  0
 57129  1  0  0  0
 58130  1  0  0  0
 59 60  1  0  0  0
 59 61  1  0  0  0
 59 62  1  0  0  0
 60131  1  0  0  0
 60132  1  0  0  0
 60133  1  0  0  0
 61134  1  0  0  0
 61135  1  0  0  0
 61136  1  0  0  0
 62137  1  0  0  0
 62138  1  0  0  0
 62139  1  0  0  0
 63 65  1  0  0  0
 63140  1  0  0  0
 63141  1  0  0  0
 63142  1  0  0  0
 64143  1  0  0  0
 65144  1  0  0  0
 68 79  1  0  0  0
 71 72  2  0  0  0
 71 74  1  0  0  0
 71 85  1  0  0  0
 72 77  1  0  0  0
 72 80  1  0  0  0
 73 80  2  0  0  0
 73 81  1  0  0  0
 73 85  1  0  0  0
 74 76  1  0  0  0
 74 83  2  0  0  0
 75 78  1  0  0  0
 75 79  1  0  0  0
 75 84  2  0  0  0
 76145  1  0  0  0
 76146  1  0  0  0
 76147  1  0  0  0
 77 82  1  0  0  0
 77148  1  0  0  0
 77149  1  0  0  0
 78 81  1  0  0  0
 78150  1  0  0  0
 78151  1  0  0  0
 79152  1  0  0  0
 79153  1  0  0  0
 81154  1  0  0  0
 82155  1  0  0  0
M  ISO  4   1 100  68 101  79 101  82 100
M  END
> <chiral flag>
0

> <version>
0

> <s_m_source_file>
/data/baiqing/PycharmProjects/Reinvent-master-3.2/result/LINK_invent/BTK/process_docking_weight1_custom_product_contain_oxygen_bond_distance_aromatic_linkinvent_7_9_3/rearranged_h_0166.sdf

> <i_m_source_file_index>
20

> <r_mmod_Potential_Energy-OPLS-2005>
-267.895751953125

> <r_mmod_Stretch_Energy-OPLS-2005>
56.183277130127

> <r_mmod_Bend_Energy-OPLS-2005>
135.783462524414

> <r_mmod_Torsional_Energy-OPLS-2005>
202.464233398438

> <r_mmod_Improper_Torsional_Energy-OPLS-2005>
6.30563402175903

> <r_mmod_Van_der_Waal_Energy-OPLS-2005>
124.024528503418

> <r_mmod_Electrostatic_Energy-OPLS-2005>
-566.588195800781

> <r_mmod_Solvation_Energy-OPLS-2005>
-264.197570800781

> <b_mmod_Minimization_Converged-OPLS-2005>
0

> <r_mmod_RMS_Derivative-OPLS-2005>
8.19742679595947

$$$$
20
                    3D
 Structure written by MMmdl.
163171  0  0  1  0            999 V2000
  -30.7227  -14.5765   20.5603 C   0  0  0  0  0  0
  -30.4233  -12.3797   19.4460 C   0  0  0  0  0  0
  -29.4942  -12.5000   18.2211 C   0  0  0  0  0  0
  -28.0262  -12.3291   18.6476 C   0  0  0  0  0  0
  -27.6539  -13.2173   19.8625 C   0  0  2  0  0  0
  -28.6949  -13.0991   20.9948 C   0  0  0  0  0  0
  -25.2596  -13.8180   20.5691 C   0  0  0  0  0  0
  -24.1854  -13.0455   20.9192 C   0  0  0  0  0  0
  -24.6415  -11.6917   20.8763 C   0  0  0  0  0  0
  -23.9081  -10.4310   21.0433 C   0  0  0  0  0  0
  -24.3640   -9.4219   21.9197 C   0  0  0  0  0  0
  -23.6309   -8.2259   22.0750 C   0  0  0  0  0  0
  -22.4281   -8.0312   21.3557 C   0  0  0  0  0  0
  -21.9921   -9.0294   20.4649 C   0  0  0  0  0  0
  -22.7267  -10.2172   20.3068 C   0  0  0  0  0  0
  -21.6863   -6.0755   22.5293 C   0  0  0  0  0  0
  -21.4016   -6.5640   23.8232 C   0  0  0  0  0  0
  -21.3656   -5.6780   24.9182 C   0  0  0  0  0  0
  -21.6046   -4.3046   24.7223 C   0  0  0  0  0  0
  -21.8818   -3.8153   23.4341 C   0  0  0  0  0  0
  -21.9196   -4.6977   22.3404 C   0  0  0  0  0  0
  -22.7887  -13.5270   21.1850 C   0  0  0  0  0  0
  -22.1675   -4.2166   21.0985 F   0  0  0  0  0  0
  -21.5616   -3.4523   25.7725 F   0  0  0  0  0  0
  -30.0218  -13.4038   20.4315 N   0  0  0  0  0  0
  -26.3013  -12.9356   20.3342 N   0  0  0  0  0  0
  -25.9352  -11.6514   20.5795 N   0  0  0  0  0  0
  -22.0523  -12.8263   22.0399 N   0  0  0  0  0  0
  -25.4308  -15.1901   20.4107 N   0  0  0  0  0  0
  -31.8394  -14.7093   20.0549 O   0  0  0  0  0  0
  -21.6648   -6.8907   21.4257 O   0  0  0  0  0  0
  -22.3575  -14.5584   20.6712 O   0  0  0  0  0  0
  -24.6222  -31.8619   23.2045 C   0  0  0  0  0  0
  -25.9086  -32.4781   23.8354 C   0  0  1  0  0  0
  -27.2220  -27.3544   20.1054 C   0  0  0  0  0  0
  -25.5918  -33.8581   24.2278 N   0  0  0  0  0  0
  -23.4133  -30.4877   21.5452 C   0  0  2  0  0  0
  -24.8598  -28.9529   20.1100 C   0  0  0  0  0  0
  -22.7447  -29.4624   22.4927 C   0  0  0  0  0  0
  -18.0289  -28.1349   22.8475 C   0  0  0  0  0  0
  -24.1493  -36.7292   23.2632 C   0  0  0  0  0  0
  -25.9532  -30.8052   21.3715 C   0  0  0  0  0  0
  -26.0294  -29.4387   20.7081 C   0  0  0  0  0  0
  -27.2156  -28.6519   20.6955 C   0  0  0  0  0  0
  -26.0266  -26.9184   19.4814 C   0  0  0  0  0  0
  -24.8577  -27.6965   19.4907 C   0  0  0  0  0  0
  -23.6250  -29.8241   20.1606 C   0  0  0  0  0  0
  -25.4114  -36.3068   24.0320 C   0  0  1  0  0  0
  -20.5884  -28.3643   23.1275 C   0  0  2  0  0  0
  -20.6763  -26.9369   22.5392 C   0  0  0  0  0  0
  -19.5749  -26.6357   21.5177 C   0  0  0  0  0  0
  -18.1939  -26.7892   22.1608 C   0  0  0  0  0  0
  -19.1540  -28.8815   23.2878 C   0  0  0  0  0  0
  -18.9466  -30.1415   23.8905 C   0  0  0  0  0  0
  -17.6464  -30.6548   24.0559 C   0  0  0  0  0  0
  -25.9047  -34.9443   23.5091 C   0  0  0  0  0  0
  -16.5357  -29.9051   23.6320 C   0  0  0  0  0  0
  -16.7276  -28.6466   23.0349 C   0  0  0  0  0  0
  -26.4491  -31.6588   25.0717 C   0  0  0  0  0  0
  -25.3758  -31.3759   26.1474 C   0  0  0  0  0  0
  -27.0297  -30.2995   24.6167 C   0  0  0  0  0  0
  -27.6038  -32.4333   25.7489 C   0  0  0  0  0  0
  -27.5582  -37.1797   24.8459 C   0  0  0  0  0  0
  -21.4165  -29.3011   22.3673 N   0  0  0  0  0  0
  -26.4294  -37.3764   23.9404 N   0  0  0  0  0  0
  -24.6808  -31.0670   22.0969 N   0  0  0  0  0  0
  -23.4195  -28.8160   23.2982 O   0  0  0  0  0  0
  -28.3374  -26.5113   20.1661 O   0  0  0  0  0  0
  -26.5610  -34.8911   22.4655 O   0  0  0  0  0  0
  -23.5395  -32.1402   23.7398 O   0  0  0  0  0  0
  -31.0188  -19.9696   19.5535 C   0  0  0  0  0  0
  -30.9371  -18.5508   19.4012 C   0  0  0  0  0  0
  -29.9824  -18.0832   20.2825 C   0  0  0  0  0  0
  -30.0702  -20.3115   20.4628 C   0  0  0  0  0  0
  -31.6608  -17.7057   18.4332 C   0  0  0  0  0  0
  -31.2188  -14.6935   23.3795 C   0  0  0  0  0  0
  -30.4526  -15.8167   22.5890 C   0  0  0  0  0  0
  -29.1592  -24.0642   20.4521 C   0  0  0  0  0  0
  -33.0745  -18.1516   18.0856 C   0  0  0  0  0  0
  -32.4664  -15.1174   24.1453 C   0  0  0  0  0  0
  -29.3751  -16.6866   20.5538 C   0  0  0  0  0  0
  -28.8384  -22.5252   20.3772 C   0  0  0  0  0  0
  -28.0478  -25.0745   20.0170 C   0  0  0  0  0  0
  -29.8641  -21.6230   20.9591 N   0  0  0  0  0  0
  -30.1699  -15.6164   21.2634 N   0  0  0  0  0  0
  -31.1638  -16.7065   17.9094 O   0  0  0  0  0  0
  -30.8262  -13.5228   23.4303 O   0  0  0  0  0  0
  -30.1057  -16.8343   23.2006 O   0  0  0  0  0  0
  -30.2707  -24.4499   20.8360 O   0  0  0  0  0  0
  -29.4255  -19.1860   20.9387 O   0  0  0  0  0  0
  -31.4628  -12.4799   19.1300 H   0  0  0  0  0  0
  -30.3438  -11.3872   19.8918 H   0  0  0  0  0  0
  -29.7544  -11.7449   17.4777 H   0  0  0  0  0  0
  -29.6297  -13.4683   17.7344 H   0  0  0  0  0  0
  -27.8846  -11.2775   18.9054 H   0  0  0  0  0  0
  -27.3571  -12.5304   17.8099 H   0  0  0  0  0  0
  -27.6727  -14.2475   19.5105 H   0  0  0  0  0  0
  -28.6936  -12.0946   21.4226 H   0  0  0  0  0  0
  -28.4258  -13.7702   21.8111 H   0  0  0  0  0  0
  -25.2804   -9.5656   22.4767 H   0  0  0  0  0  0
  -24.0009   -7.4625   22.7448 H   0  0  0  0  0  0
  -21.0855   -8.8825   19.8968 H   0  0  0  0  0  0
  -22.3744  -10.9708   19.6170 H   0  0  0  0  0  0
  -21.2018   -7.6154   23.9731 H   0  0  0  0  0  0
  -21.1475   -6.0519   25.9084 H   0  0  0  0  0  0
  -22.0600   -2.7605   23.2842 H   0  0  0  0  0  0
  -22.4116  -11.9914   22.4800 H   0  0  0  0  0  0
  -21.1160  -13.1306   22.2619 H   0  0  0  0  0  0
  -24.6540  -15.8360   20.5027 H   0  0  0  0  0  0
  -26.2786  -15.6354   20.0880 H   0  0  0  0  0  0
  -26.7151  -32.5465   23.1094 H   0  0  0  0  0  0
  -25.0081  -33.9728   25.0432 H   0  0  0  0  0  0
  -22.7054  -31.3064   21.4040 H   0  0  0  0  0  0
  -23.3741  -35.9640   23.3298 H   0  0  0  0  0  0
  -24.3587  -36.8910   22.2046 H   0  0  0  0  0  0
  -23.7276  -37.6504   23.6659 H   0  0  0  0  0  0
  -26.0914  -31.5769   20.6124 H   0  0  0  0  0  0
  -26.8315  -30.8428   22.0041 H   0  0  0  0  0  0
  -28.1147  -29.0207   21.1709 H   0  0  0  0  0  0
  -25.9559  -25.9609   18.9871 H   0  0  0  0  0  0
  -23.9604  -27.3170   19.0224 H   0  0  0  0  0  0
  -23.7328  -30.5983   19.3997 H   0  0  0  0  0  0
  -22.7485  -29.2427   19.8639 H   0  0  0  0  0  0
  -25.1296  -36.1907   25.0814 H   0  0  0  0  0  0
  -20.9993  -28.3208   24.1382 H   0  0  0  0  0  0
  -20.5597  -26.2253   23.3585 H   0  0  0  0  0  0
  -21.6650  -26.7345   22.1241 H   0  0  0  0  0  0
  -19.6909  -25.6274   21.1191 H   0  0  0  0  0  0
  -19.6687  -27.3169   20.6720 H   0  0  0  0  0  0
  -17.4193  -26.6604   21.4039 H   0  0  0  0  0  0
  -18.0376  -26.0030   22.9008 H   0  0  0  0  0  0
  -19.7951  -30.7213   24.2286 H   0  0  0  0  0  0
  -17.5027  -31.6227   24.5159 H   0  0  0  0  0  0
  -15.5366  -30.2948   23.7638 H   0  0  0  0  0  0
  -15.8682  -28.0772   22.7071 H   0  0  0  0  0  0
  -24.5870  -30.7164   25.7841 H   0  0  0  0  0  0
  -24.9038  -32.2954   26.4951 H   0  0  0  0  0  0
  -25.8111  -30.8903   27.0216 H   0  0  0  0  0  0
  -26.2843  -29.6766   24.1205 H   0  0  0  0  0  0
  -27.3985  -29.7236   25.4665 H   0  0  0  0  0  0
  -27.8732  -30.4243   23.9372 H   0  0  0  0  0  0
  -27.2609  -33.3612   26.2082 H   0  0  0  0  0  0
  -28.3846  -32.6940   25.0329 H   0  0  0  0  0  0
  -28.0707  -31.8465   26.5409 H   0  0  0  0  0  0
  -28.2592  -38.0098   24.7489 H   0  0  0  0  0  0
  -28.1081  -36.2628   24.6288 H   0  0  0  0  0  0
  -27.2301  -37.1451   25.8863 H   0  0  0  0  0  0
  -20.9314  -29.8753   21.6914 H   0  0  0  0  0  0
  -26.0160  -38.2829   24.1423 H   0  0  0  0  0  0
  -31.6702  -20.6491   19.0219 H   0  0  0  0  0  0
  -33.7108  -18.0688   18.9662 H   0  0  0  0  0  0
  -33.0779  -19.1899   17.7566 H   0  0  0  0  0  0
  -33.4956  -17.5377   17.2914 H   0  0  0  0  0  0
  -32.2244  -15.9250   24.8363 H   0  0  0  0  0  0
  -33.2414  -15.4592   23.4614 H   0  0  0  0  0  0
  -32.8590  -14.2773   24.7177 H   0  0  0  0  0  0
  -29.0425  -16.2839   19.5960 H   0  0  0  0  0  0
  -28.4451  -16.8210   21.1071 H   0  0  0  0  0  0
  -28.6687  -22.2632   19.3312 H   0  0  0  0  0  0
  -27.8939  -22.3568   20.8966 H   0  0  0  0  0  0
  -27.1665  -24.8320   20.6129 H   0  0  0  0  0  0
  -27.8063  -24.8620   18.9762 H   0  0  0  0  0  0
  -30.7447  -22.1351   20.9538 H   0  0  0  0  0  0
  1 25  1  0  0  0
  1 30  2  0  0  0
  1 85  1  0  0  0
  2  3  1  0  0  0
  2 25  1  0  0  0
  2 91  1  0  0  0
  2 92  1  0  0  0
  3  4  1  0  0  0
  3 93  1  0  0  0
  3 94  1  0  0  0
  4  5  1  0  0  0
  4 95  1  0  0  0
  4 96  1  0  0  0
  5  6  1  0  0  0
  5 26  1  0  0  0
  5 97  1  0  0  0
  6 25  1  0  0  0
  6 98  1  0  0  0
  6 99  1  0  0  0
  7  8  2  0  0  0
  7 26  1  0  0  0
  7 29  1  0  0  0
  8  9  1  0  0  0
  8 22  1  0  0  0
  9 10  1  0  0  0
  9 27  2  0  0  0
 10 11  2  0  0  0
 10 15  1  0  0  0
 11 12  1  0  0  0
 11100  1  0  0  0
 12 13  2  0  0  0
 12101  1  0  0  0
 13 14  1  0  0  0
 13 31  1  0  0  0
 14 15  2  0  0  0
 14102  1  0  0  0
 15103  1  0  0  0
 16 17  2  0  0  0
 16 21  1  0  0  0
 16 31  1  0  0  0
 17 18  1  0  0  0
 17104  1  0  0  0
 18 19  2  0  0  0
 18105  1  0  0  0
 19 20  1  0  0  0
 19 24  1  0  0  0
 20 21  2  0  0  0
 20106  1  0  0  0
 21 23  1  0  0  0
 22 28  1  0  0  0
 22 32  2  0  0  0
 26 27  1  0  0  0
 28107  1  0  0  0
 28108  1  0  0  0
 29109  1  0  0  0
 29110  1  0  0  0
 33 34  1  0  0  0
 33 66  1  0  0  0
 33 70  2  0  0  0
 34 36  1  0  0  0
 34 59  1  0  0  0
 34111  1  0  0  0
 35 44  2  0  0  0
 35 45  1  0  0  0
 35 68  1  0  0  0
 36 56  1  0  0  0
 36112  1  0  0  0
 37 39  1  0  0  0
 37 47  1  0  0  0
 37 66  1  0  0  0
 37113  1  0  0  0
 38 43  2  0  0  0
 38 46  1  0  0  0
 38 47  1  0  0  0
 39 64  1  0  0  0
 39 67  2  0  0  0
 40 52  1  0  0  0
 40 53  2  0  0  0
 40 58  1  0  0  0
 41114  1  0  0  0
 41115  1  0  0  0
 41116  1  0  0  0
 41 48  1  0  0  0
 42 43  1  0  0  0
 42 66  1  0  0  0
 42117  1  0  0  0
 42118  1  0  0  0
 43 44  1  0  0  0
 44119  1  0  0  0
 45 46  2  0  0  0
 45120  1  0  0  0
 46121  1  0  0  0
 47122  1  0  0  0
 47123  1  0  0  0
 48 56  1  0  0  0
 48 65  1  0  0  0
 48124  1  0  0  0
 49 50  1  0  0  0
 49 53  1  0  0  0
 49 64  1  0  0  0
 49125  1  0  0  0
 50 51  1  0  0  0
 50126  1  0  0  0
 50127  1  0  0  0
 51 52  1  0  0  0
 51128  1  0  0  0
 51129  1  0  0  0
 52130  1  0  0  0
 52131  1  0  0  0
 53 54  1  0  0  0
 54 55  2  0  0  0
 54132  1  0  0  0
 55 57  1  0  0  0
 55133  1  0  0  0
 56 69  2  0  0  0
 57 58  2  0  0  0
 57134  1  0  0  0
 58135  1  0  0  0
 59 60  1  0  0  0
 59 61  1  0  0  0
 59 62  1  0  0  0
 60136  1  0  0  0
 60137  1  0  0  0
 60138  1  0  0  0
 61139  1  0  0  0
 61140  1  0  0  0
 61141  1  0  0  0
 62142  1  0  0  0
 62143  1  0  0  0
 62144  1  0  0  0
 63 65  1  0  0  0
 63145  1  0  0  0
 63146  1  0  0  0
 63147  1  0  0  0
 64148  1  0  0  0
 65149  1  0  0  0
 68 83  1  0  0  0
 71 72  1  0  0  0
 71 74  2  0  0  0
 71150  1  0  0  0
 72 73  2  0  0  0
 72 75  1  0  0  0
 73 81  1  0  0  0
 73 90  1  0  0  0
 74 84  1  0  0  0
 74 90  1  0  0  0
 75 79  1  0  0  0
 75 86  2  0  0  0
 76 77  1  0  0  0
 76 80  1  0  0  0
 76 87  2  0  0  0
 77 85  1  0  0  0
 77 88  2  0  0  0
 78 82  1  0  0  0
 78 83  1  0  0  0
 78 89  2  0  0  0
 79151  1  0  0  0
 79152  1  0  0  0
 79153  1  0  0  0
 80154  1  0  0  0
 80155  1  0  0  0
 80156  1  0  0  0
 81 85  1  0  0  0
 81157  1  0  0  0
 81158  1  0  0  0
 82 84  1  0  0  0
 82159  1  0  0  0
 82160  1  0  0  0
 83161  1  0  0  0
 83162  1  0  0  0
 84163  1  0  0  0
M  ISO  4   1 100  68 101  83 101  85 100
M  END
> <chiral flag>
0

> <version>
0

> <s_m_source_file>
/data/baiqing/PycharmProjects/Reinvent-master-3.2/result/LINK_invent/BTK/process_docking_weight1_custom_product_contain_oxygen_bond_distance_aromatic_linkinvent_7_9_3/rearranged_h_0166.sdf

> <i_m_source_file_index>
21

> <r_mmod_Potential_Energy-OPLS-2005>
10.5269498825073

> <r_mmod_Stretch_Energy-OPLS-2005>
72.1064376831055

> <r_mmod_Bend_Energy-OPLS-2005>
137.365737915039

> <r_mmod_Torsional_Energy-OPLS-2005>
330.826965332031

> <r_mmod_Improper_Torsional_Energy-OPLS-2005>
8.52101802825928

> <r_mmod_Van_der_Waal_Energy-OPLS-2005>
131.657196044922

> <r_mmod_Electrostatic_Energy-OPLS-2005>
-460.606811523438

> <r_mmod_Solvation_Energy-OPLS-2005>
-244.672088623047

> <b_mmod_Minimization_Converged-OPLS-2005>
0

> <r_mmod_RMS_Derivative-OPLS-2005>
3.0635244846344

$$$$
21
                    3D
 Structure written by MMmdl.
147155  0  0  1  0            999 V2000
  -30.5365  -14.8508   20.4426 C   0  0  0  0  0  0
  -30.4349  -12.5163   19.5001 C   0  0  0  0  0  0
  -29.5180  -12.5047   18.2571 C   0  0  0  0  0  0
  -28.0466  -12.3083   18.6683 C   0  0  0  0  0  0
  -27.6284  -13.2299   19.8429 C   0  0  2  0  0  0
  -28.6621  -13.2025   20.9862 C   0  0  0  0  0  0
  -25.2449  -13.8158   20.5712 C   0  0  0  0  0  0
  -24.1739  -13.0404   20.9204 C   0  0  0  0  0  0
  -24.6332  -11.6885   20.8727 C   0  0  0  0  0  0
  -23.9019  -10.4267   21.0398 C   0  0  0  0  0  0
  -24.3589   -9.4203   21.9186 C   0  0  0  0  0  0
  -23.6268   -8.2244   22.0783 C   0  0  0  0  0  0
  -22.4263   -8.0261   21.3557 C   0  0  0  0  0  0
  -21.9880   -9.0226   20.4666 C   0  0  0  0  0  0
  -22.7198  -10.2096   20.3055 C   0  0  0  0  0  0
  -21.6849   -6.0719   22.5278 C   0  0  0  0  0  0
  -21.4030   -6.5633   23.8208 C   0  0  0  0  0  0
  -21.3665   -5.6790   24.9172 C   0  0  0  0  0  0
  -21.6028   -4.3052   24.7222 C   0  0  0  0  0  0
  -21.8807   -3.8139   23.4350 C   0  0  0  0  0  0
  -21.9197   -4.6953   22.3402 C   0  0  0  0  0  0
  -22.7772  -13.5204   21.1859 C   0  0  0  0  0  0
  -22.1670   -4.2139   21.0981 F   0  0  0  0  0  0
  -21.5609   -3.4540   25.7736 F   0  0  0  0  0  0
  -29.9547  -13.5926   20.4078 N   0  0  0  0  0  0
  -26.2838  -12.9357   20.3209 N   0  0  0  0  0  0
  -25.9243  -11.6501   20.5670 N   0  0  0  0  0  0
  -22.0412  -12.8221   22.0426 N   0  0  0  0  0  0
  -25.4146  -15.1894   20.4236 N   0  0  0  0  0  0
  -31.7373  -14.9326   20.1634 O   0  0  0  0  0  0
  -21.6645   -6.8850   21.4235 O   0  0  0  0  0  0
  -22.3482  -14.5534   20.6723 O   0  0  0  0  0  0
  -24.6371  -31.8482   23.1944 C   0  0  0  0  0  0
  -25.9164  -32.4717   23.8315 C   0  0  1  0  0  0
  -27.2220  -27.2007   20.1400 C   0  0  0  0  0  0
  -25.5932  -33.8528   24.2232 N   0  0  0  0  0  0
  -23.4407  -30.4699   21.5359 C   0  0  2  0  0  0
  -24.8980  -28.9146   20.1054 C   0  0  0  0  0  0
  -22.7548  -29.4565   22.4847 C   0  0  0  0  0  0
  -18.0303  -28.1390   22.8459 C   0  0  0  0  0  0
  -24.1493  -36.7265   23.2642 C   0  0  0  0  0  0
  -25.9934  -30.7433   21.3890 C   0  0  0  0  0  0
  -26.0718  -29.3618   20.7289 C   0  0  0  0  0  0
  -27.2401  -28.5170   20.7377 C   0  0  0  0  0  0
  -26.0341  -26.8509   19.4657 C   0  0  0  0  0  0
  -24.8896  -27.6716   19.4579 C   0  0  0  0  0  0
  -23.6690  -29.8073   20.1527 C   0  0  0  0  0  0
  -25.4121  -36.3055   24.0328 C   0  0  1  0  0  0
  -20.5905  -28.3726   23.1231 C   0  0  2  0  0  0
  -20.6792  -26.9428   22.5401 C   0  0  0  0  0  0
  -19.5774  -26.6376   21.5205 C   0  0  0  0  0  0
  -18.1950  -26.7927   22.1609 C   0  0  0  0  0  0
  -19.1549  -28.8877   23.2831 C   0  0  0  0  0  0
  -18.9461  -30.1464   23.8873 C   0  0  0  0  0  0
  -17.6457  -30.6579   24.0560 C   0  0  0  0  0  0
  -25.9061  -34.9420   23.5088 C   0  0  0  0  0  0
  -16.5352  -29.9078   23.6322 C   0  0  0  0  0  0
  -16.7284  -28.6496   23.0339 C   0  0  0  0  0  0
  -26.4522  -31.6556   25.0712 C   0  0  0  0  0  0
  -25.3713  -31.3727   26.1401 C   0  0  0  0  0  0
  -27.0381  -30.2957   24.6260 C   0  0  0  0  0  0
  -27.6064  -32.4309   25.7476 C   0  0  0  0  0  0
  -27.5572  -37.1802   24.8477 C   0  0  0  0  0  0
  -21.4246  -29.3046   22.3584 N   0  0  0  0  0  0
  -26.4300  -37.3746   23.9396 N   0  0  0  0  0  0
  -24.7089  -31.0398   22.0951 N   0  0  0  0  0  0
  -23.4211  -28.8112   23.2975 O   0  0  0  0  0  0
  -28.2136  -26.1715   20.2174 O   0  0  0  0  0  0
  -26.5633  -34.8905   22.4657 O   0  0  0  0  0  0
  -23.5498  -32.1336   23.7188 O   0  0  0  0  0  0
  -29.0265  -18.6091   20.8260 C   0  0  0  0  0  0
  -29.8831  -17.4692   20.3716 C   0  0  0  0  0  0
  -29.3471  -19.9318   20.3815 C   0  0  0  0  0  0
  -30.8509  -18.0030   19.5587 C   0  0  0  0  0  0
  -27.7828  -24.9583   20.8691 C   0  0  0  0  0  0
  -28.0067  -23.5583   20.9245 C   0  0  0  0  0  0
  -28.9284  -22.5389   20.2525 C   0  0  0  0  0  0
  -29.7221  -15.9827   20.6493 N   0  0  0  0  0  0
  -28.7289  -21.1946   20.6471 N   0  0  0  0  0  0
  -29.7893  -22.8420   19.4258 O   0  0  0  0  0  0
  -27.1866  -22.9604   21.8093 O   0  0  0  0  0  0
  -31.7795  -17.2842   18.8877 F   0  0  0  0  0  0
  -30.7741  -19.7548   19.3638 S   0  0  0  0  0  0
  -31.4710  -12.6657   19.1942 H   0  0  0  0  0  0
  -30.4106  -11.5498   20.0060 H   0  0  0  0  0  0
  -29.8218  -11.7135   17.5689 H   0  0  0  0  0  0
  -29.6268  -13.4416   17.7101 H   0  0  0  0  0  0
  -27.9280  -11.2651   18.9607 H   0  0  0  0  0  0
  -27.3906  -12.4587   17.8106 H   0  0  0  0  0  0
  -27.6073  -14.2407   19.4362 H   0  0  0  0  0  0
  -28.7144  -12.2078   21.4340 H   0  0  0  0  0  0
  -28.3660  -13.8828   21.7861 H   0  0  0  0  0  0
  -25.2730   -9.5701   22.4757 H   0  0  0  0  0  0
  -23.9963   -7.4655   22.7535 H   0  0  0  0  0  0
  -21.0797   -8.8723   19.8997 H   0  0  0  0  0  0
  -22.3634  -10.9623   19.6163 H   0  0  0  0  0  0
  -21.2049   -7.6147   23.9698 H   0  0  0  0  0  0
  -21.1507   -6.0537   25.9063 H   0  0  0  0  0  0
  -22.0591   -2.7602   23.2849 H   0  0  0  0  0  0
  -22.4023  -11.9896   22.4837 H   0  0  0  0  0  0
  -21.1038  -13.1268   22.2630 H   0  0  0  0  0  0
  -24.6403  -15.8330   20.5486 H   0  0  0  0  0  0
  -26.2529  -15.6421   20.0852 H   0  0  0  0  0  0
  -26.7215  -32.5367   23.1038 H   0  0  0  0  0  0
  -25.0090  -33.9652   25.0390 H   0  0  0  0  0  0
  -22.7395  -31.2930   21.3865 H   0  0  0  0  0  0
  -23.3744  -35.9613   23.3348 H   0  0  0  0  0  0
  -24.3573  -36.8835   22.2047 H   0  0  0  0  0  0
  -23.7263  -37.6486   23.6640 H   0  0  0  0  0  0
  -26.1433  -31.5081   20.6252 H   0  0  0  0  0  0
  -26.8628  -30.7897   22.0323 H   0  0  0  0  0  0
  -28.1314  -28.8459   21.2555 H   0  0  0  0  0  0
  -25.9768  -25.8894   18.9747 H   0  0  0  0  0  0
  -23.9969  -27.3257   18.9559 H   0  0  0  0  0  0
  -23.8014  -30.5873   19.4009 H   0  0  0  0  0  0
  -22.7876  -29.2466   19.8367 H   0  0  0  0  0  0
  -25.1313  -36.1915   25.0825 H   0  0  0  0  0  0
  -20.9987  -28.3325   24.1352 H   0  0  0  0  0  0
  -20.5690  -26.2331   23.3609 H   0  0  0  0  0  0
  -21.6658  -26.7447   22.1189 H   0  0  0  0  0  0
  -19.6942  -25.6282   21.1240 H   0  0  0  0  0  0
  -19.6707  -27.3172   20.6718 H   0  0  0  0  0  0
  -17.4212  -26.6644   21.4021 H   0  0  0  0  0  0
  -18.0375  -26.0079   22.9025 H   0  0  0  0  0  0
  -19.7934  -30.7279   24.2235 H   0  0  0  0  0  0
  -17.5011  -31.6255   24.5177 H   0  0  0  0  0  0
  -15.5353  -30.2976   23.7654 H   0  0  0  0  0  0
  -15.8677  -28.0810   22.7070 H   0  0  0  0  0  0
  -24.5902  -30.7067   25.7711 H   0  0  0  0  0  0
  -24.8880  -32.2901   26.4787 H   0  0  0  0  0  0
  -25.7990  -30.8918   27.0208 H   0  0  0  0  0  0
  -26.2992  -29.6667   24.1272 H   0  0  0  0  0  0
  -27.4015  -29.7266   25.4830 H   0  0  0  0  0  0
  -27.8904  -30.4201   23.9566 H   0  0  0  0  0  0
  -27.2679  -33.3634   26.2025 H   0  0  0  0  0  0
  -28.3886  -32.6829   25.0292 H   0  0  0  0  0  0
  -28.0729  -31.8442   26.5406 H   0  0  0  0  0  0
  -28.2635  -38.0049   24.7446 H   0  0  0  0  0  0
  -28.1016  -36.2577   24.6416 H   0  0  0  0  0  0
  -27.2272  -37.1588   25.8875 H   0  0  0  0  0  0
  -20.9454  -29.8746   21.6750 H   0  0  0  0  0  0
  -26.0185  -38.2836   24.1332 H   0  0  0  0  0  0
  -28.1842  -18.4149   21.4741 H   0  0  0  0  0  0
  -27.0140  -25.2824   21.5590 H   0  0  0  0  0  0
  -28.8008  -15.7269   20.9712 H   0  0  0  0  0  0
  -27.9443  -21.1520   21.2873 H   0  0  0  0  0  0
  -26.6378  -23.6333   22.1896 H   0  0  0  0  0  0
  1 25  1  0  0  0
  1 30  2  0  0  0
  1 78  1  0  0  0
  2  3  1  0  0  0
  2 25  1  0  0  0
  2 84  1  0  0  0
  2 85  1  0  0  0
  3  4  1  0  0  0
  3 86  1  0  0  0
  3 87  1  0  0  0
  4  5  1  0  0  0
  4 88  1  0  0  0
  4 89  1  0  0  0
  5  6  1  0  0  0
  5 26  1  0  0  0
  5 90  1  0  0  0
  6 25  1  0  0  0
  6 91  1  0  0  0
  6 92  1  0  0  0
  7  8  2  0  0  0
  7 26  1  0  0  0
  7 29  1  0  0  0
  8  9  1  0  0  0
  8 22  1  0  0  0
  9 10  1  0  0  0
  9 27  2  0  0  0
 10 11  2  0  0  0
 10 15  1  0  0  0
 11 12  1  0  0  0
 11 93  1  0  0  0
 12 13  2  0  0  0
 12 94  1  0  0  0
 13 14  1  0  0  0
 13 31  1  0  0  0
 14 15  2  0  0  0
 14 95  1  0  0  0
 15 96  1  0  0  0
 16 17  2  0  0  0
 16 21  1  0  0  0
 16 31  1  0  0  0
 17 18  1  0  0  0
 17 97  1  0  0  0
 18 19  2  0  0  0
 18 98  1  0  0  0
 19 20  1  0  0  0
 19 24  1  0  0  0
 20 21  2  0  0  0
 20 99  1  0  0  0
 21 23  1  0  0  0
 22 28  1  0  0  0
 22 32  2  0  0  0
 26 27  1  0  0  0
 28100  1  0  0  0
 28101  1  0  0  0
 29102  1  0  0  0
 29103  1  0  0  0
 33 34  1  0  0  0
 33 66  1  0  0  0
 33 70  2  0  0  0
 34 36  1  0  0  0
 34 59  1  0  0  0
 34104  1  0  0  0
 35 44  2  0  0  0
 35 45  1  0  0  0
 35 68  1  0  0  0
 36 56  1  0  0  0
 36105  1  0  0  0
 37 39  1  0  0  0
 37 47  1  0  0  0
 37 66  1  0  0  0
 37106  1  0  0  0
 38 43  2  0  0  0
 38 46  1  0  0  0
 38 47  1  0  0  0
 39 64  1  0  0  0
 39 67  2  0  0  0
 40 52  1  0  0  0
 40 53  2  0  0  0
 40 58  1  0  0  0
 41107  1  0  0  0
 41108  1  0  0  0
 41109  1  0  0  0
 41 48  1  0  0  0
 42 43  1  0  0  0
 42 66  1  0  0  0
 42110  1  0  0  0
 42111  1  0  0  0
 43 44  1  0  0  0
 44112  1  0  0  0
 45 46  2  0  0  0
 45113  1  0  0  0
 46114  1  0  0  0
 47115  1  0  0  0
 47116  1  0  0  0
 48 56  1  0  0  0
 48 65  1  0  0  0
 48117  1  0  0  0
 49 50  1  0  0  0
 49 53  1  0  0  0
 49 64  1  0  0  0
 49118  1  0  0  0
 50 51  1  0  0  0
 50119  1  0  0  0
 50120  1  0  0  0
 51 52  1  0  0  0
 51121  1  0  0  0
 51122  1  0  0  0
 52123  1  0  0  0
 52124  1  0  0  0
 53 54  1  0  0  0
 54 55  2  0  0  0
 54125  1  0  0  0
 55 57  1  0  0  0
 55126  1  0  0  0
 56 69  2  0  0  0
 57 58  2  0  0  0
 57127  1  0  0  0
 58128  1  0  0  0
 59 60  1  0  0  0
 59 61  1  0  0  0
 59 62  1  0  0  0
 60129  1  0  0  0
 60130  1  0  0  0
 60131  1  0  0  0
 61132  1  0  0  0
 61133  1  0  0  0
 61134  1  0  0  0
 62135  1  0  0  0
 62136  1  0  0  0
 62137  1  0  0  0
 63 65  1  0  0  0
 63138  1  0  0  0
 63139  1  0  0  0
 63140  1  0  0  0
 64141  1  0  0  0
 65142  1  0  0  0
 68 75  1  0  0  0
 71 72  1  0  0  0
 71 73  2  0  0  0
 71143  1  0  0  0
 72 74  2  0  0  0
 72 78  1  0  0  0
 73 79  1  0  0  0
 73 83  1  0  0  0
 74 82  1  0  0  0
 74 83  1  0  0  0
 75 76  2  0  0  0
 75144  1  0  0  0
 76 77  1  0  0  0
 76 81  1  0  0  0
 77 79  1  0  0  0
 77 80  2  0  0  0
 78145  1  0  0  0
 79146  1  0  0  0
 81147  1  0  0  0
M  ISO  4   1 100  68 101  75 101  78 100
M  END
> <chiral flag>
0

> <version>
0

> <s_m_source_file>
/data/baiqing/PycharmProjects/Reinvent-master-3.2/result/LINK_invent/BTK/process_docking_weight1_custom_product_contain_oxygen_bond_distance_aromatic_linkinvent_7_9_3/rearranged_h_0166.sdf

> <i_m_source_file_index>
22

> <r_mmod_Potential_Energy-OPLS-2005>
303.055572509766

> <r_mmod_Stretch_Energy-OPLS-2005>
169.277725219727

> <r_mmod_Bend_Energy-OPLS-2005>
278.525512695312

> <r_mmod_Torsional_Energy-OPLS-2005>
212.889984130859

> <r_mmod_Improper_Torsional_Energy-OPLS-2005>
3.69977307319641

> <r_mmod_Van_der_Waal_Energy-OPLS-2005>
128.748077392578

> <r_mmod_Electrostatic_Energy-OPLS-2005>
-382.876800537109

> <r_mmod_Solvation_Energy-OPLS-2005>
-254.035491943359

> <b_mmod_Minimization_Converged-OPLS-2005>
0

> <r_mmod_RMS_Derivative-OPLS-2005>
3.05530762672424

$$$$
22
                    3D
 Structure written by MMmdl.
158166  0  0  1  0            999 V2000
  -30.6753  -14.4674   20.5687 C   0  0  0  0  0  0
  -30.4285  -12.3036   19.4100 C   0  0  0  0  0  0
  -29.4961  -12.5244   18.1979 C   0  0  0  0  0  0
  -28.0135  -12.3855   18.6033 C   0  0  0  0  0  0
  -27.6634  -13.1973   19.8794 C   0  0  2  0  0  0
  -28.7087  -12.9491   20.9928 C   0  0  0  0  0  0
  -25.2598  -13.8086   20.5791 C   0  0  0  0  0  0
  -24.1816  -13.0370   20.9141 C   0  0  0  0  0  0
  -24.6373  -11.6845   20.8679 C   0  0  0  0  0  0
  -23.9036  -10.4250   21.0356 C   0  0  0  0  0  0
  -24.3595   -9.4200   21.9161 C   0  0  0  0  0  0
  -23.6267   -8.2244   22.0758 C   0  0  0  0  0  0
  -22.4262   -8.0266   21.3537 C   0  0  0  0  0  0
  -21.9870   -9.0238   20.4651 C   0  0  0  0  0  0
  -22.7192  -10.2110   20.3028 C   0  0  0  0  0  0
  -21.6870   -6.0711   22.5272 C   0  0  0  0  0  0
  -21.4022   -6.5610   23.8199 C   0  0  0  0  0  0
  -21.3647   -5.6778   24.9166 C   0  0  0  0  0  0
  -21.6041   -4.3040   24.7227 C   0  0  0  0  0  0
  -21.8831   -3.8117   23.4351 C   0  0  0  0  0  0
  -21.9200   -4.6934   22.3406 C   0  0  0  0  0  0
  -22.7844  -13.5201   21.1824 C   0  0  0  0  0  0
  -22.1680   -4.2104   21.0985 F   0  0  0  0  0  0
  -21.5609   -3.4538   25.7743 F   0  0  0  0  0  0
  -30.0407  -13.2697   20.4481 N   0  0  0  0  0  0
  -26.3030  -12.9257   20.3386 N   0  0  0  0  0  0
  -25.9301  -11.6416   20.5710 N   0  0  0  0  0  0
  -22.0471  -12.8226   22.0387 N   0  0  0  0  0  0
  -25.4365  -15.1818   20.4615 N   0  0  0  0  0  0
  -31.7939  -14.7026   20.1026 O   0  0  0  0  0  0
  -21.6634   -6.8862   21.4241 O   0  0  0  0  0  0
  -22.3533  -14.5518   20.6682 O   0  0  0  0  0  0
  -24.6148  -31.8653   23.2131 C   0  0  0  0  0  0
  -25.9035  -32.4822   23.8419 C   0  0  1  0  0  0
  -27.2472  -27.4229   20.1040 C   0  0  0  0  0  0
  -25.5894  -33.8618   24.2355 N   0  0  0  0  0  0
  -23.4054  -30.4911   21.5510 C   0  0  2  0  0  0
  -24.8533  -28.9582   20.1180 C   0  0  0  0  0  0
  -22.7416  -29.4624   22.4953 C   0  0  0  0  0  0
  -18.0283  -28.1337   22.8491 C   0  0  0  0  0  0
  -24.1481  -36.7316   23.2642 C   0  0  0  0  0  0
  -25.9351  -30.8340   21.3662 C   0  0  0  0  0  0
  -26.0126  -29.4671   20.7120 C   0  0  0  0  0  0
  -27.2059  -28.7079   20.6996 C   0  0  0  0  0  0
  -26.0558  -26.9247   19.5210 C   0  0  0  0  0  0
  -24.8703  -27.6860   19.5234 C   0  0  0  0  0  0
  -23.6170  -29.8296   20.1634 C   0  0  0  0  0  0
  -25.4099  -36.3117   24.0342 C   0  0  1  0  0  0
  -20.5873  -28.3631   23.1300 C   0  0  2  0  0  0
  -20.6764  -26.9360   22.5406 C   0  0  0  0  0  0
  -19.5745  -26.6349   21.5196 C   0  0  0  0  0  0
  -18.1926  -26.7886   22.1610 C   0  0  0  0  0  0
  -19.1533  -28.8795   23.2896 C   0  0  0  0  0  0
  -18.9451  -30.1398   23.8921 C   0  0  0  0  0  0
  -17.6450  -30.6550   24.0560 C   0  0  0  0  0  0
  -25.9021  -34.9472   23.5146 C   0  0  0  0  0  0
  -16.5349  -29.9053   23.6308 C   0  0  0  0  0  0
  -16.7276  -28.6462   23.0356 C   0  0  0  0  0  0
  -26.4463  -31.6609   25.0745 C   0  0  0  0  0  0
  -25.3737  -31.3739   26.1513 C   0  0  0  0  0  0
  -27.0273  -30.3052   24.6115 C   0  0  0  0  0  0
  -27.6040  -32.4326   25.7502 C   0  0  0  0  0  0
  -27.5580  -37.1817   24.8448 C   0  0  0  0  0  0
  -21.4142  -29.2997   22.3692 N   0  0  0  0  0  0
  -26.4286  -37.3801   23.9405 N   0  0  0  0  0  0
  -24.6702  -31.0760   22.1033 N   0  0  0  0  0  0
  -23.4180  -28.8143   23.2984 O   0  0  0  0  0  0
  -28.4573  -26.7428   20.1312 O   0  0  0  0  0  0
  -26.5562  -34.8916   22.4693 O   0  0  0  0  0  0
  -23.5337  -32.1374   23.7526 O   0  0  0  0  0  0
  -28.6824  -17.2004   19.9824 C   0  0  0  0  0  0
  -30.8589  -17.7242   20.8637 C   0  0  0  0  0  0
  -28.5686  -18.5286   19.5067 C   0  0  0  0  0  0
  -29.8424  -16.7749   20.6506 C   0  0  0  0  0  0
  -29.6309  -19.4227   19.8198 C   0  0  0  0  0  0
  -27.3530  -18.9103   18.7066 C   0  0  0  0  0  0
  -28.6877  -22.9075   20.2124 C   0  0  0  0  0  0
  -26.3449  -17.8220   18.3472 C   0  0  0  0  0  0
  -28.8953  -24.3450   20.7257 C   0  0  0  0  0  0
  -29.7762  -21.8283   20.4075 C   0  0  0  0  0  0
  -28.6122  -25.4044   19.6212 C   0  0  0  0  0  0
  -30.7421  -19.0209   20.4861 N   0  0  0  0  0  0
  -29.9174  -15.4307   21.1213 N   0  0  0  0  0  0
  -29.6270  -20.7633   19.4071 N   0  0  0  0  0  0
  -27.1347  -20.0496   18.2895 O   0  0  0  0  0  0
  -27.6396  -22.6136   19.6325 O   0  0  0  0  0  0
  -31.4732  -12.4101   19.1130 H   0  0  0  0  0  0
  -30.3266  -11.2851   19.7886 H   0  0  0  0  0  0
  -29.7344  -11.8164   17.4016 H   0  0  0  0  0  0
  -29.6655  -13.5199   17.7848 H   0  0  0  0  0  0
  -27.8099  -11.3273   18.7640 H   0  0  0  0  0  0
  -27.3702  -12.6943   17.7771 H   0  0  0  0  0  0
  -27.7094  -14.2477   19.5992 H   0  0  0  0  0  0
  -28.6840  -11.9028   21.2993 H   0  0  0  0  0  0
  -28.4719  -13.5157   21.8935 H   0  0  0  0  0  0
  -25.2768   -9.5664   22.4708 H   0  0  0  0  0  0
  -23.9962   -7.4649   22.7505 H   0  0  0  0  0  0
  -21.0773   -8.8746   19.9008 H   0  0  0  0  0  0
  -22.3655  -10.9626   19.6108 H   0  0  0  0  0  0
  -21.2036   -7.6132   23.9684 H   0  0  0  0  0  0
  -21.1450   -6.0519   25.9057 H   0  0  0  0  0  0
  -22.0624   -2.7582   23.2884 H   0  0  0  0  0  0
  -22.4032  -11.9841   22.4746 H   0  0  0  0  0  0
  -21.1110  -13.1308   22.2601 H   0  0  0  0  0  0
  -24.7010  -15.8293   20.7234 H   0  0  0  0  0  0
  -26.3409  -15.6202   20.3806 H   0  0  0  0  0  0
  -26.7106  -32.5544   23.1193 H   0  0  0  0  0  0
  -25.0101  -33.9765   25.0541 H   0  0  0  0  0  0
  -22.6951  -31.3085   21.4163 H   0  0  0  0  0  0
  -23.3727  -35.9668   23.3309 H   0  0  0  0  0  0
  -24.3586  -36.8907   22.2056 H   0  0  0  0  0  0
  -23.7234  -37.6531   23.6629 H   0  0  0  0  0  0
  -26.0457  -31.6042   20.6010 H   0  0  0  0  0  0
  -26.8229  -30.8867   21.9849 H   0  0  0  0  0  0
  -28.1027  -29.1044   21.1540 H   0  0  0  0  0  0
  -25.9935  -25.9531   19.0596 H   0  0  0  0  0  0
  -23.9747  -27.2837   19.0710 H   0  0  0  0  0  0
  -23.7382  -30.6120   19.4122 H   0  0  0  0  0  0
  -22.7384  -29.2590   19.8567 H   0  0  0  0  0  0
  -25.1276  -36.2005   25.0836 H   0  0  0  0  0  0
  -20.9979  -28.3201   24.1414 H   0  0  0  0  0  0
  -20.5637  -26.2237   23.3587 H   0  0  0  0  0  0
  -21.6640  -26.7368   22.1230 H   0  0  0  0  0  0
  -19.6906  -25.6272   21.1190 H   0  0  0  0  0  0
  -19.6688  -27.3178   20.6741 H   0  0  0  0  0  0
  -17.4197  -26.6650   21.4011 H   0  0  0  0  0  0
  -18.0318  -26.0012   22.8985 H   0  0  0  0  0  0
  -19.7915  -30.7202   24.2324 H   0  0  0  0  0  0
  -17.4997  -31.6226   24.5157 H   0  0  0  0  0  0
  -15.5348  -30.2968   23.7596 H   0  0  0  0  0  0
  -15.8677  -28.0772   22.7082 H   0  0  0  0  0  0
  -24.5882  -30.7109   25.7876 H   0  0  0  0  0  0
  -24.8970  -32.2910   26.4989 H   0  0  0  0  0  0
  -25.8101  -30.8893   27.0258 H   0  0  0  0  0  0
  -26.2818  -29.6834   24.1153 H   0  0  0  0  0  0
  -27.4019  -29.7278   25.4574 H   0  0  0  0  0  0
  -27.8662  -30.4372   23.9278 H   0  0  0  0  0  0
  -27.2664  -33.3612   26.2120 H   0  0  0  0  0  0
  -28.3847  -32.6909   25.0331 H   0  0  0  0  0  0
  -28.0713  -31.8421   26.5392 H   0  0  0  0  0  0
  -28.2605  -38.0114   24.7503 H   0  0  0  0  0  0
  -28.1067  -36.2641   24.6262 H   0  0  0  0  0  0
  -27.2284  -37.1463   25.8848 H   0  0  0  0  0  0
  -20.9279  -29.8770   21.6972 H   0  0  0  0  0  0
  -26.0167  -38.2872   24.1431 H   0  0  0  0  0  0
  -27.8942  -16.4845   19.8206 H   0  0  0  0  0  0
  -31.7693  -17.4509   21.3783 H   0  0  0  0  0  0
  -26.8481  -16.9578   17.9141 H   0  0  0  0  0  0
  -25.6186  -18.1875   17.6213 H   0  0  0  0  0  0
  -25.8010  -17.5100   19.2374 H   0  0  0  0  0  0
  -29.9031  -24.4594   21.1270 H   0  0  0  0  0  0
  -28.2089  -24.4893   21.5615 H   0  0  0  0  0  0
  -29.6942  -21.4203   21.4154 H   0  0  0  0  0  0
  -30.7660  -22.2762   20.3143 H   0  0  0  0  0  0
  -27.8031  -25.0889   18.9703 H   0  0  0  0  0  0
  -29.4806  -25.4289   18.9611 H   0  0  0  0  0  0
  -29.0590  -15.0523   21.4907 H   0  0  0  0  0  0
  -28.7960  -20.9760   18.8493 H   0  0  0  0  0  0
  1 25  1  0  0  0
  1 30  2  0  0  0
  1 83  1  0  0  0
  2  3  1  0  0  0
  2 25  1  0  0  0
  2 87  1  0  0  0
  2 88  1  0  0  0
  3  4  1  0  0  0
  3 89  1  0  0  0
  3 90  1  0  0  0
  4  5  1  0  0  0
  4 91  1  0  0  0
  4 92  1  0  0  0
  5  6  1  0  0  0
  5 26  1  0  0  0
  5 93  1  0  0  0
  6 25  1  0  0  0
  6 94  1  0  0  0
  6 95  1  0  0  0
  7  8  2  0  0  0
  7 26  1  0  0  0
  7 29  1  0  0  0
  8  9  1  0  0  0
  8 22  1  0  0  0
  9 10  1  0  0  0
  9 27  2  0  0  0
 10 11  2  0  0  0
 10 15  1  0  0  0
 11 12  1  0  0  0
 11 96  1  0  0  0
 12 13  2  0  0  0
 12 97  1  0  0  0
 13 14  1  0  0  0
 13 31  1  0  0  0
 14 15  2  0  0  0
 14 98  1  0  0  0
 15 99  1  0  0  0
 16 17  2  0  0  0
 16 21  1  0  0  0
 16 31  1  0  0  0
 17 18  1  0  0  0
 17100  1  0  0  0
 18 19  2  0  0  0
 18101  1  0  0  0
 19 20  1  0  0  0
 19 24  1  0  0  0
 20 21  2  0  0  0
 20102  1  0  0  0
 21 23  1  0  0  0
 22 28  1  0  0  0
 22 32  2  0  0  0
 26 27  1  0  0  0
 28103  1  0  0  0
 28104  1  0  0  0
 29105  1  0  0  0
 29106  1  0  0  0
 33 34  1  0  0  0
 33 66  1  0  0  0
 33 70  2  0  0  0
 34 36  1  0  0  0
 34 59  1  0  0  0
 34107  1  0  0  0
 35 44  2  0  0  0
 35 45  1  0  0  0
 35 68  1  0  0  0
 36 56  1  0  0  0
 36108  1  0  0  0
 37 39  1  0  0  0
 37 47  1  0  0  0
 37 66  1  0  0  0
 37109  1  0  0  0
 38 43  2  0  0  0
 38 46  1  0  0  0
 38 47  1  0  0  0
 39 64  1  0  0  0
 39 67  2  0  0  0
 40 52  1  0  0  0
 40 53  2  0  0  0
 40 58  1  0  0  0
 41110  1  0  0  0
 41111  1  0  0  0
 41112  1  0  0  0
 41 48  1  0  0  0
 42 43  1  0  0  0
 42 66  1  0  0  0
 42113  1  0  0  0
 42114  1  0  0  0
 43 44  1  0  0  0
 44115  1  0  0  0
 45 46  2  0  0  0
 45116  1  0  0  0
 46117  1  0  0  0
 47118  1  0  0  0
 47119  1  0  0  0
 48 56  1  0  0  0
 48 65  1  0  0  0
 48120  1  0  0  0
 49 50  1  0  0  0
 49 53  1  0  0  0
 49 64  1  0  0  0
 49121  1  0  0  0
 50 51  1  0  0  0
 50122  1  0  0  0
 50123  1  0  0  0
 51 52  1  0  0  0
 51124  1  0  0  0
 51125  1  0  0  0
 52126  1  0  0  0
 52127  1  0  0  0
 53 54  1  0  0  0
 54 55  2  0  0  0
 54128  1  0  0  0
 55 57  1  0  0  0
 55129  1  0  0  0
 56 69  2  0  0  0
 57 58  2  0  0  0
 57130  1  0  0  0
 58131  1  0  0  0
 59 60  1  0  0  0
 59 61  1  0  0  0
 59 62  1  0  0  0
 60132  1  0  0  0
 60133  1  0  0  0
 60134  1  0  0  0
 61135  1  0  0  0
 61136  1  0  0  0
 61137  1  0  0  0
 62138  1  0  0  0
 62139  1  0  0  0
 62140  1  0  0  0
 63 65  1  0  0  0
 63141  1  0  0  0
 63142  1  0  0  0
 63143  1  0  0  0
 64144  1  0  0  0
 65145  1  0  0  0
 68 81  1  0  0  0
 71 73  2  0  0  0
 71 74  1  0  0  0
 71146  1  0  0  0
 72 74  2  0  0  0
 72 82  1  0  0  0
 72147  1  0  0  0
 73 75  1  0  0  0
 73 76  1  0  0  0
 74 83  1  0  0  0
 75 82  2  0  0  0
 75 84  1  0  0  0
 76 78  1  0  0  0
 76 85  2  0  0  0
 77 79  1  0  0  0
 77 80  1  0  0  0
 77 86  2  0  0  0
 78148  1  0  0  0
 78149  1  0  0  0
 78150  1  0  0  0
 79 81  1  0  0  0
 79151  1  0  0  0
 79152  1  0  0  0
 80 84  1  0  0  0
 80153  1  0  0  0
 80154  1  0  0  0
 81155  1  0  0  0
 81156  1  0  0  0
 83157  1  0  0  0
 84158  1  0  0  0
M  ISO  4   1 100  68 101  81 101  83 100
M  END
> <chiral flag>
0

> <version>
0

> <s_m_source_file>
/data/baiqing/PycharmProjects/Reinvent-master-3.2/result/LINK_invent/BTK/process_docking_weight1_custom_product_contain_oxygen_bond_distance_aromatic_linkinvent_7_9_3/rearranged_h_0166.sdf

> <i_m_source_file_index>
23

> <r_mmod_Potential_Energy-OPLS-2005>
-296.190551757812

> <r_mmod_Stretch_Energy-OPLS-2005>
40.8370971679688

> <r_mmod_Bend_Energy-OPLS-2005>
117.560218811035

> <r_mmod_Torsional_Energy-OPLS-2005>
260.972290039062

> <r_mmod_Improper_Torsional_Energy-OPLS-2005>
12.1865663528442

> <r_mmod_Van_der_Waal_Energy-OPLS-2005>
163.110214233398

> <r_mmod_Electrostatic_Energy-OPLS-2005>
-645.490356445312

> <r_mmod_Solvation_Energy-OPLS-2005>
-259.001708984375

> <b_mmod_Minimization_Converged-OPLS-2005>
0

> <r_mmod_RMS_Derivative-OPLS-2005>
3.56472516059875

$$$$
23
                    3D
 Structure written by MMmdl.
156164  0  0  1  0            999 V2000
  -30.6906  -14.4813   20.5758 C   0  0  0  0  0  0
  -30.4355  -12.3152   19.4170 C   0  0  0  0  0  0
  -29.5005  -12.5093   18.2053 C   0  0  0  0  0  0
  -28.0198  -12.3693   18.6159 C   0  0  0  0  0  0
  -27.6658  -13.2029   19.8765 C   0  0  2  0  0  0
  -28.7096  -12.9705   20.9930 C   0  0  0  0  0  0
  -25.2620  -13.8151   20.5684 C   0  0  0  0  0  0
  -24.1857  -13.0439   20.9173 C   0  0  0  0  0  0
  -24.6397  -11.6903   20.8732 C   0  0  0  0  0  0
  -23.9059  -10.4296   21.0404 C   0  0  0  0  0  0
  -24.3617   -9.4205   21.9175 C   0  0  0  0  0  0
  -23.6297   -8.2240   22.0744 C   0  0  0  0  0  0
  -22.4269   -8.0281   21.3546 C   0  0  0  0  0  0
  -21.9899   -9.0257   20.4643 C   0  0  0  0  0  0
  -22.7229  -10.2135   20.3060 C   0  0  0  0  0  0
  -21.6846   -6.0737   22.5277 C   0  0  0  0  0  0
  -21.4007   -6.5642   23.8208 C   0  0  0  0  0  0
  -21.3652   -5.6790   24.9171 C   0  0  0  0  0  0
  -21.6039   -4.3055   24.7221 C   0  0  0  0  0  0
  -21.8825   -3.8151   23.4346 C   0  0  0  0  0  0
  -21.9200   -4.6969   22.3398 C   0  0  0  0  0  0
  -22.7883  -13.5250   21.1838 C   0  0  0  0  0  0
  -22.1672   -4.2160   21.0978 F   0  0  0  0  0  0
  -21.5628   -3.4536   25.7733 F   0  0  0  0  0  0
  -30.0403  -13.2907   20.4438 N   0  0  0  0  0  0
  -26.3046  -12.9305   20.3357 N   0  0  0  0  0  0
  -25.9317  -11.6469   20.5737 N   0  0  0  0  0  0
  -22.0521  -12.8252   22.0388 N   0  0  0  0  0  0
  -25.4404  -15.1866   20.4123 N   0  0  0  0  0  0
  -31.8155  -14.6786   20.1088 O   0  0  0  0  0  0
  -21.6638   -6.8877   21.4236 O   0  0  0  0  0  0
  -22.3573  -14.5552   20.6679 O   0  0  0  0  0  0
  -24.6154  -31.8667   23.2099 C   0  0  0  0  0  0
  -25.9052  -32.4818   23.8398 C   0  0  1  0  0  0
  -27.2439  -27.4319   20.1053 C   0  0  0  0  0  0
  -25.5917  -33.8616   24.2331 N   0  0  0  0  0  0
  -23.4045  -30.4861   21.5502 C   0  0  2  0  0  0
  -24.8561  -28.9487   20.1195 C   0  0  0  0  0  0
  -22.7407  -29.4635   22.5010 C   0  0  0  0  0  0
  -18.0260  -28.1367   22.8479 C   0  0  0  0  0  0
  -24.1472  -36.7296   23.2624 C   0  0  0  0  0  0
  -25.9326  -30.8313   21.3645 C   0  0  0  0  0  0
  -26.0148  -29.4632   20.7161 C   0  0  0  0  0  0
  -27.2147  -28.7121   20.7055 C   0  0  0  0  0  0
  -26.0699  -26.9277   19.5094 C   0  0  0  0  0  0
  -24.8785  -27.6794   19.5130 C   0  0  0  0  0  0
  -23.6139  -29.8116   20.1679 C   0  0  0  0  0  0
  -25.4084  -36.3098   24.0335 C   0  0  1  0  0  0
  -20.5846  -28.3642   23.1320 C   0  0  2  0  0  0
  -20.6744  -26.9371   22.5427 C   0  0  0  0  0  0
  -19.5740  -26.6368   21.5199 C   0  0  0  0  0  0
  -18.1908  -26.7923   22.1590 C   0  0  0  0  0  0
  -19.1513  -28.8821   23.2892 C   0  0  0  0  0  0
  -18.9449  -30.1432   23.8896 C   0  0  0  0  0  0
  -17.6453  -30.6577   24.0545 C   0  0  0  0  0  0
  -25.9019  -34.9470   23.5119 C   0  0  0  0  0  0
  -16.5340  -29.9070   23.6333 C   0  0  0  0  0  0
  -16.7249  -28.6484   23.0361 C   0  0  0  0  0  0
  -26.4489  -31.6607   25.0732 C   0  0  0  0  0  0
  -25.3774  -31.3792   26.1519 C   0  0  0  0  0  0
  -27.0270  -30.3019   24.6131 C   0  0  0  0  0  0
  -27.6094  -32.4311   25.7465 C   0  0  0  0  0  0
  -27.5593  -37.1750   24.8428 C   0  0  0  0  0  0
  -21.4129  -29.3011   22.3738 N   0  0  0  0  0  0
  -26.4255  -37.3803   23.9455 N   0  0  0  0  0  0
  -24.6684  -31.0763   22.0999 N   0  0  0  0  0  0
  -23.4173  -28.8173   23.3054 O   0  0  0  0  0  0
  -28.3992  -26.6823   20.0613 O   0  0  0  0  0  0
  -26.5556  -34.8921   22.4664 O   0  0  0  0  0  0
  -23.5345  -32.1424   23.7490 O   0  0  0  0  0  0
  -29.0031  -17.7015   21.2838 C   0  0  0  0  0  0
  -31.4143  -17.5137   21.1462 C   0  0  0  0  0  0
  -29.1016  -19.1085   21.4205 C   0  0  0  0  0  0
  -30.3763  -19.7334   21.4603 C   0  0  0  0  0  0
  -30.1485  -16.8827   21.1658 C   0  0  0  0  0  0
  -31.5254  -18.9156   21.2940 C   0  0  0  0  0  0
  -28.4446  -25.5469   20.8424 C   0  0  0  0  0  0
  -29.1611  -24.4428   20.5221 C   0  0  0  0  0  0
  -29.2189  -23.3041   21.4516 C   0  0  0  0  0  0
  -27.8242  -19.9176   21.5669 C   0  0  0  0  0  0
  -30.5558  -21.2188   21.8437 C   0  0  0  0  0  0
  -29.9482  -15.4618   21.1317 N   0  0  0  0  0  0
  -29.9455  -22.2623   20.9960 N   0  0  0  0  0  0
  -28.7174  -23.3004   22.5779 O   0  0  0  0  0  0
  -29.8396  -24.4003   19.3643 O   0  0  0  0  0  0
  -32.7622  -19.4689   21.3214 F   0  0  0  0  0  0
  -31.4771  -12.4290   19.1106 H   0  0  0  0  0  0
  -30.3524  -11.3017   19.8124 H   0  0  0  0  0  0
  -29.7418  -11.7867   17.4249 H   0  0  0  0  0  0
  -29.6685  -13.4959   17.7704 H   0  0  0  0  0  0
  -27.8239  -11.3123   18.8031 H   0  0  0  0  0  0
  -27.3755  -12.6570   17.7848 H   0  0  0  0  0  0
  -27.7121  -14.2529   19.5853 H   0  0  0  0  0  0
  -28.6905  -11.9264   21.3110 H   0  0  0  0  0  0
  -28.4687  -13.5463   21.8878 H   0  0  0  0  0  0
  -25.2769   -9.5676   22.4741 H   0  0  0  0  0  0
  -24.0024   -7.4617   22.7440 H   0  0  0  0  0  0
  -21.0837   -8.8771   19.8944 H   0  0  0  0  0  0
  -22.3690  -10.9676   19.6176 H   0  0  0  0  0  0
  -21.1986   -7.6144   23.9711 H   0  0  0  0  0  0
  -21.1465   -6.0519   25.9068 H   0  0  0  0  0  0
  -22.0612   -2.7616   23.2844 H   0  0  0  0  0  0
  -22.4150  -11.9943   22.4826 H   0  0  0  0  0  0
  -21.1129  -13.1268   22.2559 H   0  0  0  0  0  0
  -24.6811  -15.8511   20.5138 H   0  0  0  0  0  0
  -26.2951  -15.6125   20.0776 H   0  0  0  0  0  0
  -26.7124  -32.5538   23.1164 H   0  0  0  0  0  0
  -25.0164  -33.9790   25.0540 H   0  0  0  0  0  0
  -22.6921  -31.3005   21.4075 H   0  0  0  0  0  0
  -23.3773  -35.9584   23.3212 H   0  0  0  0  0  0
  -24.3592  -36.8987   22.2054 H   0  0  0  0  0  0
  -23.7166  -37.6445   23.6697 H   0  0  0  0  0  0
  -26.0412  -31.5973   20.5955 H   0  0  0  0  0  0
  -26.8204  -30.8908   21.9819 H   0  0  0  0  0  0
  -28.1123  -29.1054   21.1613 H   0  0  0  0  0  0
  -26.0848  -25.9541   19.0394 H   0  0  0  0  0  0
  -23.9883  -27.2759   19.0495 H   0  0  0  0  0  0
  -23.7130  -30.5795   19.4005 H   0  0  0  0  0  0
  -22.7414  -29.2219   19.8807 H   0  0  0  0  0  0
  -25.1238  -36.1940   25.0824 H   0  0  0  0  0  0
  -20.9918  -28.3210   24.1447 H   0  0  0  0  0  0
  -20.5605  -26.2241   23.3611 H   0  0  0  0  0  0
  -21.6630  -26.7401   22.1260 H   0  0  0  0  0  0
  -19.6896  -25.6281   21.1230 H   0  0  0  0  0  0
  -19.6692  -27.3168   20.6722 H   0  0  0  0  0  0
  -17.4185  -26.6683   21.3981 H   0  0  0  0  0  0
  -18.0272  -26.0060   22.8971 H   0  0  0  0  0  0
  -19.7936  -30.7242   24.2266 H   0  0  0  0  0  0
  -17.5019  -31.6271   24.5130 H   0  0  0  0  0  0
  -15.5345  -30.2964   23.7683 H   0  0  0  0  0  0
  -15.8645  -28.0798   22.7100 H   0  0  0  0  0  0
  -24.5898  -30.7159   25.7930 H   0  0  0  0  0  0
  -24.9031  -32.2991   26.4948 H   0  0  0  0  0  0
  -25.8148  -30.9002   27.0289 H   0  0  0  0  0  0
  -26.2786  -29.6796   24.1210 H   0  0  0  0  0  0
  -27.4021  -29.7254   25.4600 H   0  0  0  0  0  0
  -27.8646  -30.4286   23.9264 H   0  0  0  0  0  0
  -27.2756  -33.3625   26.2047 H   0  0  0  0  0  0
  -28.3892  -32.6842   25.0273 H   0  0  0  0  0  0
  -28.0769  -31.8431   26.5371 H   0  0  0  0  0  0
  -28.2526  -38.0133   24.7646 H   0  0  0  0  0  0
  -28.1166  -36.2688   24.6013 H   0  0  0  0  0  0
  -27.2362  -37.1126   25.8831 H   0  0  0  0  0  0
  -20.9281  -29.8727   21.6956 H   0  0  0  0  0  0
  -26.0134  -38.2844   24.1600 H   0  0  0  0  0  0
  -28.0252  -17.2378   21.2917 H   0  0  0  0  0  0
  -32.3235  -16.9360   21.0623 H   0  0  0  0  0  0
  -27.8623  -25.6439   21.7514 H   0  0  0  0  0  0
  -26.9494  -19.2754   21.6722 H   0  0  0  0  0  0
  -27.6720  -20.5434   20.6872 H   0  0  0  0  0  0
  -27.8687  -20.5606   22.4449 H   0  0  0  0  0  0
  -31.6185  -21.4530   21.9024 H   0  0  0  0  0  0
  -30.2066  -21.3077   22.8737 H   0  0  0  0  0  0
  -29.0387  -15.1471   21.4321 H   0  0  0  0  0  0
  -30.3026  -22.3693   20.0557 H   0  0  0  0  0  0
  -29.6892  -25.2306   18.9306 H   0  0  0  0  0  0
  1 25  1  0  0  0
  1 30  2  0  0  0
  1 82  1  0  0  0
  2  3  1  0  0  0
  2 25  1  0  0  0
  2 87  1  0  0  0
  2 88  1  0  0  0
  3  4  1  0  0  0
  3 89  1  0  0  0
  3 90  1  0  0  0
  4  5  1  0  0  0
  4 91  1  0  0  0
  4 92  1  0  0  0
  5  6  1  0  0  0
  5 26  1  0  0  0
  5 93  1  0  0  0
  6 25  1  0  0  0
  6 94  1  0  0  0
  6 95  1  0  0  0
  7  8  2  0  0  0
  7 26  1  0  0  0
  7 29  1  0  0  0
  8  9  1  0  0  0
  8 22  1  0  0  0
  9 10  1  0  0  0
  9 27  2  0  0  0
 10 11  2  0  0  0
 10 15  1  0  0  0
 11 12  1  0  0  0
 11 96  1  0  0  0
 12 13  2  0  0  0
 12 97  1  0  0  0
 13 14  1  0  0  0
 13 31  1  0  0  0
 14 15  2  0  0  0
 14 98  1  0  0  0
 15 99  1  0  0  0
 16 17  2  0  0  0
 16 21  1  0  0  0
 16 31  1  0  0  0
 17 18  1  0  0  0
 17100  1  0  0  0
 18 19  2  0  0  0
 18101  1  0  0  0
 19 20  1  0  0  0
 19 24  1  0  0  0
 20 21  2  0  0  0
 20102  1  0  0  0
 21 23  1  0  0  0
 22 28  1  0  0  0
 22 32  2  0  0  0
 26 27  1  0  0  0
 28103  1  0  0  0
 28104  1  0  0  0
 29105  1  0  0  0
 29106  1  0  0  0
 33 34  1  0  0  0
 33 66  1  0  0  0
 33 70  2  0  0  0
 34 36  1  0  0  0
 34 59  1  0  0  0
 34107  1  0  0  0
 35 44  2  0  0  0
 35 45  1  0  0  0
 35 68  1  0  0  0
 36 56  1  0  0  0
 36108  1  0  0  0
 37 39  1  0  0  0
 37 47  1  0  0  0
 37 66  1  0  0  0
 37109  1  0  0  0
 38 43  2  0  0  0
 38 46  1  0  0  0
 38 47  1  0  0  0
 39 64  1  0  0  0
 39 67  2  0  0  0
 40 52  1  0  0  0
 40 53  2  0  0  0
 40 58  1  0  0  0
 41110  1  0  0  0
 41111  1  0  0  0
 41112  1  0  0  0
 41 48  1  0  0  0
 42 43  1  0  0  0
 42 66  1  0  0  0
 42113  1  0  0  0
 42114  1  0  0  0
 43 44  1  0  0  0
 44115  1  0  0  0
 45 46  2  0  0  0
 45116  1  0  0  0
 46117  1  0  0  0
 47118  1  0  0  0
 47119  1  0  0  0
 48 56  1  0  0  0
 48 65  1  0  0  0
 48120  1  0  0  0
 49 50  1  0  0  0
 49 53  1  0  0  0
 49 64  1  0  0  0
 49121  1  0  0  0
 50 51  1  0  0  0
 50122  1  0  0  0
 50123  1  0  0  0
 51 52  1  0  0  0
 51124  1  0  0  0
 51125  1  0  0  0
 52126  1  0  0  0
 52127  1  0  0  0
 53 54  1  0  0  0
 54 55  2  0  0  0
 54128  1  0  0  0
 55 57  1  0  0  0
 55129  1  0  0  0
 56 69  2  0  0  0
 57 58  2  0  0  0
 57130  1  0  0  0
 58131  1  0  0  0
 59 60  1  0  0  0
 59 61  1  0  0  0
 59 62  1  0  0  0
 60132  1  0  0  0
 60133  1  0  0  0
 60134  1  0  0  0
 61135  1  0  0  0
 61136  1  0  0  0
 61137  1  0  0  0
 62138  1  0  0  0
 62139  1  0  0  0
 62140  1  0  0  0
 63 65  1  0  0  0
 63141  1  0  0  0
 63142  1  0  0  0
 63143  1  0  0  0
 64144  1  0  0  0
 65145  1  0  0  0
 68 77  1  0  0  0
 71 73  2  0  0  0
 71 75  1  0  0  0
 71146  1  0  0  0
 72 75  2  0  0  0
 72 76  1  0  0  0
 72147  1  0  0  0
 73 74  1  0  0  0
 73 80  1  0  0  0
 74 76  2  0  0  0
 74 81  1  0  0  0
 75 82  1  0  0  0
 76 86  1  0  0  0
 77 78  2  0  0  0
 77148  1  0  0  0
 78 79  1  0  0  0
 78 85  1  0  0  0
 79 83  1  0  0  0
 79 84  2  0  0  0
 80149  1  0  0  0
 80150  1  0  0  0
 80151  1  0  0  0
 81 83  1  0  0  0
 81152  1  0  0  0
 81153  1  0  0  0
 82154  1  0  0  0
 83155  1  0  0  0
 85156  1  0  0  0
M  ISO  4   1 100  68 101  77 101  82 100
M  END
> <chiral flag>
0

> <version>
0

> <s_m_source_file>
/data/baiqing/PycharmProjects/Reinvent-master-3.2/result/LINK_invent/BTK/process_docking_weight1_custom_product_contain_oxygen_bond_distance_aromatic_linkinvent_7_9_3/rearranged_h_0166.sdf

> <i_m_source_file_index>
24

> <r_mmod_Potential_Energy-OPLS-2005>
-121.808479309082

> <r_mmod_Stretch_Energy-OPLS-2005>
41.212329864502

> <r_mmod_Bend_Energy-OPLS-2005>
103.31559753418

> <r_mmod_Torsional_Energy-OPLS-2005>
217.558731079102

> <r_mmod_Improper_Torsional_Energy-OPLS-2005>
5.55590724945068

> <r_mmod_Van_der_Waal_Energy-OPLS-2005>
156.076568603516

> <r_mmod_Electrostatic_Energy-OPLS-2005>
-441.082824707031

> <r_mmod_Solvation_Energy-OPLS-2005>
-216.949279785156

> <b_mmod_Minimization_Converged-OPLS-2005>
0

> <r_mmod_RMS_Derivative-OPLS-2005>
1.90476071834564

$$$$
24
                    3D
 Structure written by MMmdl.
164173  0  0  1  0            999 V2000
  -30.6581  -14.5140   20.5822 C   0  0  0  0  0  0
  -30.4330  -12.3365   19.4237 C   0  0  0  0  0  0
  -29.4970  -12.5151   18.2084 C   0  0  0  0  0  0
  -28.0180  -12.3672   18.6190 C   0  0  0  0  0  0
  -27.6618  -13.2037   19.8767 C   0  0  2  0  0  0
  -28.7021  -12.9737   20.9957 C   0  0  0  0  0  0
  -25.2590  -13.8148   20.5702 C   0  0  0  0  0  0
  -24.1832  -13.0439   20.9173 C   0  0  0  0  0  0
  -24.6385  -11.6903   20.8733 C   0  0  0  0  0  0
  -23.9053  -10.4286   21.0417 C   0  0  0  0  0  0
  -24.3606   -9.4204   21.9195 C   0  0  0  0  0  0
  -23.6286   -8.2238   22.0761 C   0  0  0  0  0  0
  -22.4264   -8.0281   21.3555 C   0  0  0  0  0  0
  -21.9907   -9.0244   20.4651 C   0  0  0  0  0  0
  -22.7230  -10.2127   20.3061 C   0  0  0  0  0  0
  -21.6850   -6.0746   22.5287 C   0  0  0  0  0  0
  -21.4007   -6.5648   23.8218 C   0  0  0  0  0  0
  -21.3653   -5.6796   24.9177 C   0  0  0  0  0  0
  -21.6036   -4.3061   24.7226 C   0  0  0  0  0  0
  -21.8820   -3.8154   23.4349 C   0  0  0  0  0  0
  -21.9188   -4.6974   22.3405 C   0  0  0  0  0  0
  -22.7857  -13.5241   21.1842 C   0  0  0  0  0  0
  -22.1663   -4.2159   21.0987 F   0  0  0  0  0  0
  -21.5619   -3.4545   25.7744 F   0  0  0  0  0  0
  -30.0318  -13.3093   20.4554 N   0  0  0  0  0  0
  -26.3015  -12.9319   20.3374 N   0  0  0  0  0  0
  -25.9303  -11.6476   20.5757 N   0  0  0  0  0  0
  -22.0486  -12.8233   22.0403 N   0  0  0  0  0  0
  -25.4324  -15.1877   20.4135 N   0  0  0  0  0  0
  -31.7672  -14.7446   20.0888 O   0  0  0  0  0  0
  -21.6633   -6.8878   21.4248 O   0  0  0  0  0  0
  -22.3549  -14.5554   20.6703 O   0  0  0  0  0  0
  -24.6202  -31.8644   23.2129 C   0  0  0  0  0  0
  -25.9067  -32.4808   23.8416 C   0  0  1  0  0  0
  -27.2115  -27.3625   20.0803 C   0  0  0  0  0  0
  -25.5889  -33.8615   24.2341 N   0  0  0  0  0  0
  -23.4102  -30.4950   21.5542 C   0  0  2  0  0  0
  -24.8483  -28.9627   20.1131 C   0  0  0  0  0  0
  -22.7432  -29.4656   22.4969 C   0  0  0  0  0  0
  -18.0273  -28.1373   22.8498 C   0  0  0  0  0  0
  -24.1488  -36.7290   23.2657 C   0  0  0  0  0  0
  -25.9524  -30.8003   21.3859 C   0  0  0  0  0  0
  -26.0186  -29.4360   20.7196 C   0  0  0  0  0  0
  -27.1980  -28.6414   20.7082 C   0  0  0  0  0  0
  -26.0182  -26.9448   19.4402 C   0  0  0  0  0  0
  -24.8474  -27.7167   19.4752 C   0  0  0  0  0  0
  -23.6189  -29.8418   20.1658 C   0  0  0  0  0  0
  -25.4109  -36.3109   24.0358 C   0  0  1  0  0  0
  -20.5878  -28.3665   23.1300 C   0  0  2  0  0  0
  -20.6766  -26.9396   22.5415 C   0  0  0  0  0  0
  -19.5737  -26.6368   21.5226 C   0  0  0  0  0  0
  -18.1911  -26.7921   22.1627 C   0  0  0  0  0  0
  -19.1532  -28.8829   23.2905 C   0  0  0  0  0  0
  -18.9464  -30.1430   23.8921 C   0  0  0  0  0  0
  -17.6462  -30.6584   24.0560 C   0  0  0  0  0  0
  -25.9035  -34.9466   23.5154 C   0  0  0  0  0  0
  -16.5358  -29.9080   23.6343 C   0  0  0  0  0  0
  -16.7265  -28.6484   23.0376 C   0  0  0  0  0  0
  -26.4473  -31.6587   25.0759 C   0  0  0  0  0  0
  -25.3719  -31.3660   26.1489 C   0  0  0  0  0  0
  -27.0355  -30.3043   24.6188 C   0  0  0  0  0  0
  -27.6053  -32.4320   25.7488 C   0  0  0  0  0  0
  -27.5585  -37.1794   24.8478 C   0  0  0  0  0  0
  -21.4157  -29.3045   22.3707 N   0  0  0  0  0  0
  -26.4302  -37.3791   23.9420 N   0  0  0  0  0  0
  -24.6791  -31.0699   22.1061 N   0  0  0  0  0  0
  -23.4175  -28.8179   23.3021 O   0  0  0  0  0  0
  -28.3492  -26.5522   20.1214 O   0  0  0  0  0  0
  -26.5637  -34.8907   22.4737 O   0  0  0  0  0  0
  -23.5370  -32.1416   23.7480 O   0  0  0  0  0  0
  -29.3067  -17.4189   19.8652 C   0  0  0  0  0  0
  -29.9161  -16.8082   20.9403 C   0  0  0  0  0  0
  -29.8685  -19.3400   20.9998 C   0  0  0  0  0  0
  -29.0699  -24.1001   20.3037 C   0  0  0  0  0  0
  -28.5396  -20.7132   23.4426 C   0  0  0  0  0  0
  -27.4106  -20.5732   22.4082 C   0  0  0  0  0  0
  -29.8783  -21.1553   22.8099 C   0  0  0  0  0  0
  -27.5654  -21.5946   21.2688 C   0  0  0  0  0  0
  -30.0148  -20.8465   21.2949 C   0  0  1  0  0  0
  -31.4103  -21.2907   20.8030 C   0  0  0  0  0  0
  -29.1316  -22.6882   19.6329 C   0  0  0  0  0  0
  -28.2768  -25.2050   19.5469 C   0  0  0  0  0  0
  -29.2949  -18.8286   19.9001 N   0  0  0  0  0  0
  -29.9452  -15.4682   21.2232 N   0  0  0  0  0  0
  -28.8709  -21.4965   20.5363 N   0  3  2  0  0  0
  -29.6112  -24.3198   21.3916 O   0  0  0  0  0  0
  -30.5301  -18.0437   22.0303 S   0  0  0  0  0  0
  -31.4746  -12.4611   19.1220 H   0  0  0  0  0  0
  -30.3587  -11.3216   19.8166 H   0  0  0  0  0  0
  -29.7425  -11.7848   17.4363 H   0  0  0  0  0  0
  -29.6547  -13.4973   17.7610 H   0  0  0  0  0  0
  -27.8312  -11.3095   18.8127 H   0  0  0  0  0  0
  -27.3667  -12.6416   17.7891 H   0  0  0  0  0  0
  -27.7071  -14.2533   19.5850 H   0  0  0  0  0  0
  -28.6884  -11.9281   21.3083 H   0  0  0  0  0  0
  -28.4479  -13.5432   21.8906 H   0  0  0  0  0  0
  -25.2755   -9.5687   22.4768 H   0  0  0  0  0  0
  -23.9998   -7.4635   22.7483 H   0  0  0  0  0  0
  -21.0837   -8.8754   19.8956 H   0  0  0  0  0  0
  -22.3689  -10.9662   19.6160 H   0  0  0  0  0  0
  -21.2003   -7.6155   23.9726 H   0  0  0  0  0  0
  -21.1469   -6.0530   25.9080 H   0  0  0  0  0  0
  -22.0602   -2.7621   23.2849 H   0  0  0  0  0  0
  -22.4083  -11.9884   22.4778 H   0  0  0  0  0  0
  -21.1112  -13.1275   22.2603 H   0  0  0  0  0  0
  -24.6675  -15.8440   20.5240 H   0  0  0  0  0  0
  -26.2879  -15.6283   20.1023 H   0  0  0  0  0  0
  -26.7107  -32.5459   23.1125 H   0  0  0  0  0  0
  -24.9971  -33.9785   25.0442 H   0  0  0  0  0  0
  -22.7044  -31.3173   21.4202 H   0  0  0  0  0  0
  -23.3769  -35.9606   23.3335 H   0  0  0  0  0  0
  -24.3586  -36.8893   22.2072 H   0  0  0  0  0  0
  -23.7196  -37.6481   23.6660 H   0  0  0  0  0  0
  -26.1012  -31.5705   20.6284 H   0  0  0  0  0  0
  -26.8266  -30.8293   22.0234 H   0  0  0  0  0  0
  -28.0925  -28.9994   21.1978 H   0  0  0  0  0  0
  -25.9332  -26.0221   18.8900 H   0  0  0  0  0  0
  -23.9493  -27.3547   18.9940 H   0  0  0  0  0  0
  -23.7357  -30.6257   19.4168 H   0  0  0  0  0  0
  -22.7368  -29.2774   19.8582 H   0  0  0  0  0  0
  -25.1269  -36.2001   25.0857 H   0  0  0  0  0  0
  -20.9976  -28.3228   24.1417 H   0  0  0  0  0  0
  -20.5682  -26.2266   23.3607 H   0  0  0  0  0  0
  -21.6628  -26.7425   22.1202 H   0  0  0  0  0  0
  -19.6921  -25.6281   21.1238 H   0  0  0  0  0  0
  -19.6704  -27.3185   20.6771 H   0  0  0  0  0  0
  -17.4192  -26.6692   21.4015 H   0  0  0  0  0  0
  -18.0317  -26.0045   22.9006 H   0  0  0  0  0  0
  -19.7947  -30.7235   24.2301 H   0  0  0  0  0  0
  -17.5028  -31.6280   24.5132 H   0  0  0  0  0  0
  -15.5360  -30.2991   23.7655 H   0  0  0  0  0  0
  -15.8661  -28.0796   22.7123 H   0  0  0  0  0  0
  -24.5916  -30.7000   25.7779 H   0  0  0  0  0  0
  -24.8882  -32.2792   26.4969 H   0  0  0  0  0  0
  -25.8053  -30.8778   27.0229 H   0  0  0  0  0  0
  -26.2929  -29.6765   24.1262 H   0  0  0  0  0  0
  -27.4137  -29.7326   25.4671 H   0  0  0  0  0  0
  -27.8754  -30.4383   23.9377 H   0  0  0  0  0  0
  -27.2703  -33.3639   26.2057 H   0  0  0  0  0  0
  -28.3839  -32.6848   25.0276 H   0  0  0  0  0  0
  -28.0749  -31.8441   26.5391 H   0  0  0  0  0  0
  -28.2597  -38.0103   24.7546 H   0  0  0  0  0  0
  -28.1090  -36.2623   24.6280 H   0  0  0  0  0  0
  -27.2307  -37.1411   25.8888 H   0  0  0  0  0  0
  -20.9304  -29.8787   21.6956 H   0  0  0  0  0  0
  -26.0208  -38.2881   24.1408 H   0  0  0  0  0  0
  -28.8116  -16.9176   19.0446 H   0  0  0  0  0  0
  -28.6568  -19.7685   23.9747 H   0  0  0  0  0  0
  -28.2585  -21.4447   24.2020 H   0  0  0  0  0  0
  -26.4462  -20.7084   22.9004 H   0  0  0  0  0  0
  -27.3849  -19.5606   22.0041 H   0  0  0  0  0  0
  -30.7009  -20.7026   23.3651 H   0  0  0  0  0  0
  -29.9946  -22.2293   22.9565 H   0  0  0  0  0  0
  -27.4332  -22.5804   21.7121 H   0  0  0  0  0  0
  -26.7512  -21.4756   20.5535 H   0  0  0  0  0  0
  -32.1957  -20.7662   21.3488 H   0  0  0  0  0  0
  -31.5840  -22.3562   20.9507 H   0  0  0  0  0  0
  -31.5574  -21.0581   19.7477 H   0  0  0  0  0  0
  -30.0778  -22.5926   19.1033 H   0  0  0  0  0  0
  -28.3736  -22.6706   18.8496 H   0  0  0  0  0  0
  -27.2676  -24.8030   19.5534 H   0  0  0  0  0  0
  -28.6044  -25.2382   18.5075 H   0  0  0  0  0  0
  -29.1076  -15.1059   21.6539 H   0  0  0  0  0  0
  -28.7154  -20.7412   19.8762 H   0  0  0  0  0  0
  1 25  1  0  0  0
  1 30  2  0  0  0
  1 84  1  0  0  0
  2  3  1  0  0  0
  2 25  1  0  0  0
  2 88  1  0  0  0
  2 89  1  0  0  0
  3  4  1  0  0  0
  3 90  1  0  0  0
  3 91  1  0  0  0
  4  5  1  0  0  0
  4 92  1  0  0  0
  4 93  1  0  0  0
  5  6  1  0  0  0
  5 26  1  0  0  0
  5 94  1  0  0  0
  6 25  1  0  0  0
  6 95  1  0  0  0
  6 96  1  0  0  0
  7  8  2  0  0  0
  7 26  1  0  0  0
  7 29  1  0  0  0
  8  9  1  0  0  0
  8 22  1  0  0  0
  9 10  1  0  0  0
  9 27  2  0  0  0
 10 11  2  0  0  0
 10 15  1  0  0  0
 11 12  1  0  0  0
 11 97  1  0  0  0
 12 13  2  0  0  0
 12 98  1  0  0  0
 13 14  1  0  0  0
 13 31  1  0  0  0
 14 15  2  0  0  0
 14 99  1  0  0  0
 15100  1  0  0  0
 16 17  2  0  0  0
 16 21  1  0  0  0
 16 31  1  0  0  0
 17 18  1  0  0  0
 17101  1  0  0  0
 18 19  2  0  0  0
 18102  1  0  0  0
 19 20  1  0  0  0
 19 24  1  0  0  0
 20 21  2  0  0  0
 20103  1  0  0  0
 21 23  1  0  0  0
 22 28  1  0  0  0
 22 32  2  0  0  0
 26 27  1  0  0  0
 28104  1  0  0  0
 28105  1  0  0  0
 29106  1  0  0  0
 29107  1  0  0  0
 33 34  1  0  0  0
 33 66  1  0  0  0
 33 70  2  0  0  0
 34 36  1  0  0  0
 34 59  1  0  0  0
 34108  1  0  0  0
 35 44  2  0  0  0
 35 45  1  0  0  0
 35 68  1  0  0  0
 36 56  1  0  0  0
 36109  1  0  0  0
 37 39  1  0  0  0
 37 47  1  0  0  0
 37 66  1  0  0  0
 37110  1  0  0  0
 38 43  2  0  0  0
 38 46  1  0  0  0
 38 47  1  0  0  0
 39 64  1  0  0  0
 39 67  2  0  0  0
 40 52  1  0  0  0
 40 53  2  0  0  0
 40 58  1  0  0  0
 41111  1  0  0  0
 41112  1  0  0  0
 41113  1  0  0  0
 41 48  1  0  0  0
 42 43  1  0  0  0
 42 66  1  0  0  0
 42114  1  0  0  0
 42115  1  0  0  0
 43 44  1  0  0  0
 44116  1  0  0  0
 45 46  2  0  0  0
 45117  1  0  0  0
 46118  1  0  0  0
 47119  1  0  0  0
 47120  1  0  0  0
 48 56  1  0  0  0
 48 65  1  0  0  0
 48121  1  0  0  0
 49 50  1  0  0  0
 49 53  1  0  0  0
 49 64  1  0  0  0
 49122  1  0  0  0
 50 51  1  0  0  0
 50123  1  0  0  0
 50124  1  0  0  0
 51 52  1  0  0  0
 51125  1  0  0  0
 51126  1  0  0  0
 52127  1  0  0  0
 52128  1  0  0  0
 53 54  1  0  0  0
 54 55  2  0  0  0
 54129  1  0  0  0
 55 57  1  0  0  0
 55130  1  0  0  0
 56 69  2  0  0  0
 57 58  2  0  0  0
 57131  1  0  0  0
 58132  1  0  0  0
 59 60  1  0  0  0
 59 61  1  0  0  0
 59 62  1  0  0  0
 60133  1  0  0  0
 60134  1  0  0  0
 60135  1  0  0  0
 61136  1  0  0  0
 61137  1  0  0  0
 61138  1  0  0  0
 62139  1  0  0  0
 62140  1  0  0  0
 62141  1  0  0  0
 63 65  1  0  0  0
 63142  1  0  0  0
 63143  1  0  0  0
 63144  1  0  0  0
 64145  1  0  0  0
 65146  1  0  0  0
 68 82  1  0  0  0
 71 72  2  0  0  0
 71 83  1  0  0  0
 71147  1  0  0  0
 72 84  1  0  0  0
 72 87  1  0  0  0
 73 79  1  0  0  0
 73 83  2  0  0  0
 73 87  1  0  0  0
 74 81  1  0  0  0
 74 82  1  0  0  0
 74 86  2  0  0  0
 75 76  1  0  0  0
 75 77  1  0  0  0
 75148  1  0  0  0
 75149  1  0  0  0
 76 78  1  0  0  0
 76150  1  0  0  0
 76151  1  0  0  0
 77 79  1  0  0  0
 77152  1  0  0  0
 77153  1  0  0  0
 78 85  1  0  0  0
 78154  1  0  0  0
 78155  1  0  0  0
 79 80  1  0  0  0
 79 85  1  0  0  0
 80156  1  0  0  0
 80157  1  0  0  0
 80158  1  0  0  0
 81159  1  0  0  0
 81160  1  0  0  0
 81 85  1  0  0  0
 82161  1  0  0  0
 82162  1  0  0  0
 84163  1  0  0  0
 85164  1  0  0  0
M  CHG  1  85   1
M  ISO  4   1 100  68 101  82 101  84 100
M  END
> <chiral flag>
0

> <version>
0

> <s_m_source_file>
/data/baiqing/PycharmProjects/Reinvent-master-3.2/result/LINK_invent/BTK/process_docking_weight1_custom_product_contain_oxygen_bond_distance_aromatic_linkinvent_7_9_3/rearranged_h_0166.sdf

> <i_m_source_file_index>
25

> <r_mmod_Potential_Energy-OPLS-2005>
-185.288375854492

> <r_mmod_Stretch_Energy-OPLS-2005>
58.3771896362305

> <r_mmod_Bend_Energy-OPLS-2005>
140.29817199707

> <r_mmod_Torsional_Energy-OPLS-2005>
277.58544921875

> <r_mmod_Improper_Torsional_Energy-OPLS-2005>
4.63573837280273

> <r_mmod_Van_der_Waal_Energy-OPLS-2005>
145.110107421875

> <r_mmod_Electrostatic_Energy-OPLS-2005>
-378.359222412109

> <r_mmod_Solvation_Energy-OPLS-2005>
-457.483337402344

> <b_mmod_Minimization_Converged-OPLS-2005>
0

> <r_mmod_RMS_Derivative-OPLS-2005>
2.55600237846375

$$$$
25
                    3D
 Structure written by MMmdl.
152160  0  0  1  0            999 V2000
  -30.6976  -14.4349   20.5928 C   0  0  0  0  0  0
  -30.4245  -12.2913   19.4114 C   0  0  0  0  0  0
  -29.4929  -12.5197   18.2031 C   0  0  0  0  0  0
  -28.0123  -12.3861   18.6138 C   0  0  0  0  0  0
  -27.6657  -13.2047   19.8870 C   0  0  2  0  0  0
  -28.7075  -12.9428   20.9992 C   0  0  0  0  0  0
  -25.2574  -13.8136   20.5676 C   0  0  0  0  0  0
  -24.1814  -13.0417   20.9129 C   0  0  0  0  0  0
  -24.6381  -11.6891   20.8717 C   0  0  0  0  0  0
  -23.9045  -10.4281   21.0396 C   0  0  0  0  0  0
  -24.3601   -9.4199   21.9180 C   0  0  0  0  0  0
  -23.6283   -8.2234   22.0749 C   0  0  0  0  0  0
  -22.4267   -8.0270   21.3542 C   0  0  0  0  0  0
  -21.9897   -9.0238   20.4643 C   0  0  0  0  0  0
  -22.7218  -10.2117   20.3046 C   0  0  0  0  0  0
  -21.6846   -6.0730   22.5279 C   0  0  0  0  0  0
  -21.4008   -6.5635   23.8212 C   0  0  0  0  0  0
  -21.3662   -5.6788   24.9178 C   0  0  0  0  0  0
  -21.6051   -4.3052   24.7227 C   0  0  0  0  0  0
  -21.8814   -3.8140   23.4346 C   0  0  0  0  0  0
  -21.9190   -4.6960   22.3404 C   0  0  0  0  0  0
  -22.7840  -13.5223   21.1829 C   0  0  0  0  0  0
  -22.1658   -4.2144   21.0983 F   0  0  0  0  0  0
  -21.5639   -3.4535   25.7739 F   0  0  0  0  0  0
  -30.0438  -13.2519   20.4563 N   0  0  0  0  0  0
  -26.3044  -12.9322   20.3437 N   0  0  0  0  0  0
  -25.9320  -11.6481   20.5792 N   0  0  0  0  0  0
  -22.0485  -12.8219   22.0392 N   0  0  0  0  0  0
  -25.4260  -15.1855   20.4151 N   0  0  0  0  0  0
  -31.8008  -14.6643   20.0886 O   0  0  0  0  0  0
  -21.6634   -6.8868   21.4236 O   0  0  0  0  0  0
  -22.3525  -14.5544   20.6704 O   0  0  0  0  0  0
  -24.6140  -31.8699   23.2098 C   0  0  0  0  0  0
  -25.9032  -32.4831   23.8407 C   0  0  1  0  0  0
  -27.2423  -27.4448   20.0724 C   0  0  0  0  0  0
  -25.5888  -33.8628   24.2336 N   0  0  0  0  0  0
  -23.4015  -30.4937   21.5506 C   0  0  2  0  0  0
  -24.8455  -28.9558   20.1180 C   0  0  0  0  0  0
  -22.7395  -29.4683   22.4999 C   0  0  0  0  0  0
  -18.0268  -28.1388   22.8496 C   0  0  0  0  0  0
  -24.1486  -36.7324   23.2638 C   0  0  0  0  0  0
  -25.9298  -30.8341   21.3625 C   0  0  0  0  0  0
  -26.0044  -29.4674   20.7116 C   0  0  0  0  0  0
  -27.1997  -28.7162   20.6914 C   0  0  0  0  0  0
  -26.0527  -26.9342   19.4991 C   0  0  0  0  0  0
  -24.8623  -27.6859   19.5175 C   0  0  0  0  0  0
  -23.6085  -29.8243   20.1662 C   0  0  0  0  0  0
  -25.4102  -36.3119   24.0343 C   0  0  1  0  0  0
  -20.5857  -28.3669   23.1333 C   0  0  2  0  0  0
  -20.6762  -26.9415   22.5421 C   0  0  0  0  0  0
  -19.5741  -26.6397   21.5218 C   0  0  0  0  0  0
  -18.1914  -26.7935   22.1625 C   0  0  0  0  0  0
  -19.1514  -28.8839   23.2918 C   0  0  0  0  0  0
  -18.9443  -30.1439   23.8936 C   0  0  0  0  0  0
  -17.6449  -30.6599   24.0561 C   0  0  0  0  0  0
  -25.9029  -34.9485   23.5142 C   0  0  0  0  0  0
  -16.5334  -29.9105   23.6329 C   0  0  0  0  0  0
  -16.7258  -28.6515   23.0358 C   0  0  0  0  0  0
  -26.4456  -31.6606   25.0727 C   0  0  0  0  0  0
  -25.3727  -31.3703   26.1471 C   0  0  0  0  0  0
  -27.0280  -30.3049   24.6103 C   0  0  0  0  0  0
  -27.6050  -32.4304   25.7486 C   0  0  0  0  0  0
  -27.5589  -37.1812   24.8460 C   0  0  0  0  0  0
  -21.4125  -29.3044   22.3730 N   0  0  0  0  0  0
  -26.4292  -37.3802   23.9411 N   0  0  0  0  0  0
  -24.6668  -31.0799   22.0997 N   0  0  0  0  0  0
  -23.4166  -28.8231   23.3044 O   0  0  0  0  0  0
  -28.4487  -26.7717   20.0729 O   0  0  0  0  0  0
  -26.5598  -34.8933   22.4710 O   0  0  0  0  0  0
  -23.5331  -32.1468   23.7478 O   0  0  0  0  0  0
  -28.7965  -18.8458   20.6621 C   0  0  0  0  0  0
  -31.1989  -17.5169   20.7097 C   0  0  0  0  0  0
  -30.0286  -16.7765   20.9653 C   0  0  0  0  0  0
  -28.8128  -17.4729   20.9502 C   0  0  0  0  0  0
  -30.0111  -19.5145   20.3890 C   0  0  0  0  0  0
  -28.9444  -24.3663   20.0691 C   0  0  0  0  0  0
  -29.1155  -21.8028   19.7542 C   0  0  0  0  0  0
  -29.6198  -23.1952   19.3312 C   0  0  0  0  0  0
  -28.6561  -25.6247   19.2320 C   0  0  0  0  0  0
  -31.1843  -18.8404   20.4324 N   0  0  0  0  0  0
  -30.0020  -15.3803   21.2416 N   0  0  0  0  0  0
  -30.0721  -20.9018   20.0684 N   0  0  0  0  0  0
  -28.7119  -24.3359   21.2851 O   0  0  0  0  0  0
  -27.9041  -21.5630   19.7407 O   0  0  0  0  0  0
  -27.6573  -16.8090   21.1957 F   0  0  0  0  0  0
  -31.4701  -12.3902   19.1134 H   0  0  0  0  0  0
  -30.3183  -11.2722   19.7865 H   0  0  0  0  0  0
  -29.7247  -11.8100   17.4080 H   0  0  0  0  0  0
  -29.6678  -13.5134   17.7875 H   0  0  0  0  0  0
  -27.8110  -11.3291   18.7885 H   0  0  0  0  0  0
  -27.3636  -12.6858   17.7898 H   0  0  0  0  0  0
  -27.7206  -14.2604   19.6164 H   0  0  0  0  0  0
  -28.6777  -11.8951   21.3026 H   0  0  0  0  0  0
  -28.4702  -13.5052   21.9029 H   0  0  0  0  0  0
  -25.2742   -9.5683   22.4761 H   0  0  0  0  0  0
  -23.9992   -7.4624   22.7464 H   0  0  0  0  0  0
  -21.0827   -8.8748   19.8953 H   0  0  0  0  0  0
  -22.3671  -10.9653   19.6157 H   0  0  0  0  0  0
  -21.1987   -7.6142   23.9714 H   0  0  0  0  0  0
  -21.1501   -6.0522   25.9083 H   0  0  0  0  0  0
  -22.0595   -2.7603   23.2845 H   0  0  0  0  0  0
  -22.4090  -11.9867   22.4757 H   0  0  0  0  0  0
  -21.1117  -13.1267   22.2633 H   0  0  0  0  0  0
  -24.6689  -15.8389   20.5781 H   0  0  0  0  0  0
  -26.3221  -15.6448   20.2990 H   0  0  0  0  0  0
  -26.7102  -32.5543   23.1175 H   0  0  0  0  0  0
  -25.0027  -33.9795   25.0469 H   0  0  0  0  0  0
  -22.6930  -31.3128   21.4103 H   0  0  0  0  0  0
  -23.3751  -35.9656   23.3294 H   0  0  0  0  0  0
  -24.3606  -36.8938   22.2059 H   0  0  0  0  0  0
  -23.7224  -37.6523   23.6657 H   0  0  0  0  0  0
  -26.0434  -31.5993   20.5917 H   0  0  0  0  0  0
  -26.8179  -30.8887   21.9813 H   0  0  0  0  0  0
  -28.0977  -29.1146   21.1430 H   0  0  0  0  0  0
  -26.0049  -25.9566   19.0456 H   0  0  0  0  0  0
  -23.9639  -27.2810   19.0714 H   0  0  0  0  0  0
  -23.7202  -30.5995   19.4062 H   0  0  0  0  0  0
  -22.7304  -29.2461   19.8702 H   0  0  0  0  0  0
  -25.1277  -36.2002   25.0837 H   0  0  0  0  0  0
  -20.9947  -28.3229   24.1451 H   0  0  0  0  0  0
  -20.5676  -26.2280   23.3602 H   0  0  0  0  0  0
  -21.6637  -26.7482   22.1206 H   0  0  0  0  0  0
  -19.6908  -25.6313   21.1244 H   0  0  0  0  0  0
  -19.6679  -27.3215   20.6754 H   0  0  0  0  0  0
  -17.4190  -26.6685   21.4021 H   0  0  0  0  0  0
  -18.0307  -26.0076   22.9018 H   0  0  0  0  0  0
  -19.7916  -30.7232   24.2340 H   0  0  0  0  0  0
  -17.5010  -31.6290   24.5142 H   0  0  0  0  0  0
  -15.5334  -30.3016   23.7647 H   0  0  0  0  0  0
  -15.8649  -28.0838   22.7076 H   0  0  0  0  0  0
  -24.5892  -30.7059   25.7804 H   0  0  0  0  0  0
  -24.8916  -32.2848   26.4954 H   0  0  0  0  0  0
  -25.8068  -30.8846   27.0217 H   0  0  0  0  0  0
  -26.2826  -29.6807   24.1145 H   0  0  0  0  0  0
  -27.4037  -29.7278   25.4566 H   0  0  0  0  0  0
  -27.8676  -30.4363   23.9266 H   0  0  0  0  0  0
  -27.2699  -33.3587   26.2125 H   0  0  0  0  0  0
  -28.3837  -32.6876   25.0293 H   0  0  0  0  0  0
  -28.0753  -31.8382   26.5347 H   0  0  0  0  0  0
  -28.2591  -38.0126   24.7541 H   0  0  0  0  0  0
  -28.1098  -36.2662   24.6240 H   0  0  0  0  0  0
  -27.2324  -37.1407   25.8866 H   0  0  0  0  0  0
  -20.9272  -29.8744   21.6935 H   0  0  0  0  0  0
  -26.0186  -38.2881   24.1417 H   0  0  0  0  0  0
  -27.8442  -19.3500   20.6545 H   0  0  0  0  0  0
  -32.1778  -17.0613   20.7383 H   0  0  0  0  0  0
  -30.6958  -23.2713   19.4875 H   0  0  0  0  0  0
  -29.4517  -23.3020   18.2602 H   0  0  0  0  0  0
  -27.8532  -25.4228   18.5282 H   0  0  0  0  0  0
  -29.5356  -25.8224   18.6200 H   0  0  0  0  0  0
  -29.1317  -15.0461   21.6296 H   0  0  0  0  0  0
  -31.0144  -21.2569   20.0022 H   0  0  0  0  0  0
  1 25  1  0  0  0
  1 30  2  0  0  0
  1 81  1  0  0  0
  2  3  1  0  0  0
  2 25  1  0  0  0
  2 86  1  0  0  0
  2 87  1  0  0  0
  3  4  1  0  0  0
  3 88  1  0  0  0
  3 89  1  0  0  0
  4  5  1  0  0  0
  4 90  1  0  0  0
  4 91  1  0  0  0
  5  6  1  0  0  0
  5 26  1  0  0  0
  5 92  1  0  0  0
  6 25  1  0  0  0
  6 93  1  0  0  0
  6 94  1  0  0  0
  7  8  2  0  0  0
  7 26  1  0  0  0
  7 29  1  0  0  0
  8  9  1  0  0  0
  8 22  1  0  0  0
  9 10  1  0  0  0
  9 27  2  0  0  0
 10 11  2  0  0  0
 10 15  1  0  0  0
 11 12  1  0  0  0
 11 95  1  0  0  0
 12 13  2  0  0  0
 12 96  1  0  0  0
 13 14  1  0  0  0
 13 31  1  0  0  0
 14 15  2  0  0  0
 14 97  1  0  0  0
 15 98  1  0  0  0
 16 17  2  0  0  0
 16 21  1  0  0  0
 16 31  1  0  0  0
 17 18  1  0  0  0
 17 99  1  0  0  0
 18 19  2  0  0  0
 18100  1  0  0  0
 19 20  1  0  0  0
 19 24  1  0  0  0
 20 21  2  0  0  0
 20101  1  0  0  0
 21 23  1  0  0  0
 22 28  1  0  0  0
 22 32  2  0  0  0
 26 27  1  0  0  0
 28102  1  0  0  0
 28103  1  0  0  0
 29104  1  0  0  0
 29105  1  0  0  0
 33 34  1  0  0  0
 33 66  1  0  0  0
 33 70  2  0  0  0
 34 36  1  0  0  0
 34 59  1  0  0  0
 34106  1  0  0  0
 35 44  2  0  0  0
 35 45  1  0  0  0
 35 68  1  0  0  0
 36 56  1  0  0  0
 36107  1  0  0  0
 37 39  1  0  0  0
 37 47  1  0  0  0
 37 66  1  0  0  0
 37108  1  0  0  0
 38 43  2  0  0  0
 38 46  1  0  0  0
 38 47  1  0  0  0
 39 64  1  0  0  0
 39 67  2  0  0  0
 40 52  1  0  0  0
 40 53  2  0  0  0
 40 58  1  0  0  0
 41109  1  0  0  0
 41110  1  0  0  0
 41111  1  0  0  0
 41 48  1  0  0  0
 42 43  1  0  0  0
 42 66  1  0  0  0
 42112  1  0  0  0
 42113  1  0  0  0
 43 44  1  0  0  0
 44114  1  0  0  0
 45 46  2  0  0  0
 45115  1  0  0  0
 46116  1  0  0  0
 47117  1  0  0  0
 47118  1  0  0  0
 48 56  1  0  0  0
 48 65  1  0  0  0
 48119  1  0  0  0
 49 50  1  0  0  0
 49 53  1  0  0  0
 49 64  1  0  0  0
 49120  1  0  0  0
 50 51  1  0  0  0
 50121  1  0  0  0
 50122  1  0  0  0
 51 52  1  0  0  0
 51123  1  0  0  0
 51124  1  0  0  0
 52125  1  0  0  0
 52126  1  0  0  0
 53 54  1  0  0  0
 54 55  2  0  0  0
 54127  1  0  0  0
 55 57  1  0  0  0
 55128  1  0  0  0
 56 69  2  0  0  0
 57 58  2  0  0  0
 57129  1  0  0  0
 58130  1  0  0  0
 59 60  1  0  0  0
 59 61  1  0  0  0
 59 62  1  0  0  0
 60131  1  0  0  0
 60132  1  0  0  0
 60133  1  0  0  0
 61134  1  0  0  0
 61135  1  0  0  0
 61136  1  0  0  0
 62137  1  0  0  0
 62138  1  0  0  0
 62139  1  0  0  0
 63 65  1  0  0  0
 63140  1  0  0  0
 63141  1  0  0  0
 63142  1  0  0  0
 64143  1  0  0  0
 65144  1  0  0  0
 68 79  1  0  0  0
 71 74  2  0  0  0
 71 75  1  0  0  0
 71145  1  0  0  0
 72 73  2  0  0  0
 72 80  1  0  0  0
 72146  1  0  0  0
 73 74  1  0  0  0
 73 81  1  0  0  0
 74 85  1  0  0  0
 75 80  2  0  0  0
 75 82  1  0  0  0
 76 78  1  0  0  0
 76 79  1  0  0  0
 76 83  2  0  0  0
 77 78  1  0  0  0
 77 82  1  0  0  0
 77 84  2  0  0  0
 78147  1  0  0  0
 78148  1  0  0  0
 79149  1  0  0  0
 79150  1  0  0  0
 81151  1  0  0  0
 82152  1  0  0  0
M  ISO  4   1 100  68 101  79 101  81 100
M  END
> <chiral flag>
0

> <version>
0

> <s_m_source_file>
/data/baiqing/PycharmProjects/Reinvent-master-3.2/result/LINK_invent/BTK/process_docking_weight1_custom_product_contain_oxygen_bond_distance_aromatic_linkinvent_7_9_3/rearranged_h_0166.sdf

> <i_m_source_file_index>
26

> <r_mmod_Potential_Energy-OPLS-2005>
-353.282196044922

> <r_mmod_Stretch_Energy-OPLS-2005>
35.3367462158203

> <r_mmod_Bend_Energy-OPLS-2005>
120.630897521973

> <r_mmod_Torsional_Energy-OPLS-2005>
224.882720947266

> <r_mmod_Improper_Torsional_Energy-OPLS-2005>
5.43610763549805

> <r_mmod_Van_der_Waal_Energy-OPLS-2005>
165.531524658203

> <r_mmod_Electrostatic_Energy-OPLS-2005>
-663.346557617188

> <r_mmod_Solvation_Energy-OPLS-2005>
-251.764007568359

> <b_mmod_Minimization_Converged-OPLS-2005>
0

> <r_mmod_RMS_Derivative-OPLS-2005>
1.77672743797302

$$$$
26
                    3D
 Structure written by MMmdl.
153161  0  0  1  0            999 V2000
  -30.6990  -14.4805   20.5518 C   0  0  0  0  0  0
  -30.4312  -12.2974   19.4517 C   0  0  0  0  0  0
  -29.5094  -12.4686   18.2249 C   0  0  0  0  0  0
  -28.0255  -12.3513   18.6227 C   0  0  0  0  0  0
  -27.6615  -13.2078   19.8650 C   0  0  2  0  0  0
  -28.6971  -13.0097   20.9955 C   0  0  0  0  0  0
  -25.2588  -13.8158   20.5670 C   0  0  0  0  0  0
  -24.1828  -13.0438   20.9153 C   0  0  0  0  0  0
  -24.6371  -11.6901   20.8703 C   0  0  0  0  0  0
  -23.9044  -10.4294   21.0383 C   0  0  0  0  0  0
  -24.3588   -9.4207   21.9161 C   0  0  0  0  0  0
  -23.6256   -8.2252   22.0753 C   0  0  0  0  0  0
  -22.4240   -8.0267   21.3552 C   0  0  0  0  0  0
  -21.9879   -9.0250   20.4652 C   0  0  0  0  0  0
  -22.7219  -10.2113   20.3053 C   0  0  0  0  0  0
  -21.6819   -6.0711   22.5279 C   0  0  0  0  0  0
  -21.3991   -6.5615   23.8201 C   0  0  0  0  0  0
  -21.3694   -5.6774   24.9174 C   0  0  0  0  0  0
  -21.6069   -4.3042   24.7224 C   0  0  0  0  0  0
  -21.8828   -3.8133   23.4350 C   0  0  0  0  0  0
  -21.9181   -4.6952   22.3403 C   0  0  0  0  0  0
  -22.7851  -13.5252   21.1823 C   0  0  0  0  0  0
  -22.1662   -4.2145   21.0985 F   0  0  0  0  0  0
  -21.5653   -3.4531   25.7741 F   0  0  0  0  0  0
  -30.0360  -13.2963   20.4567 N   0  0  0  0  0  0
  -26.3003  -12.9330   20.3281 N   0  0  0  0  0  0
  -25.9287  -11.6486   20.5680 N   0  0  0  0  0  0
  -22.0448  -12.8279   22.0371 N   0  0  0  0  0  0
  -25.4325  -15.1877   20.4171 N   0  0  0  0  0  0
  -31.8561  -14.6339   20.1445 O   0  0  0  0  0  0
  -21.6617   -6.8849   21.4224 O   0  0  0  0  0  0
  -22.3577  -14.5564   20.6668 O   0  0  0  0  0  0
  -24.6153  -31.8698   23.2118 C   0  0  0  0  0  0
  -25.9043  -32.4834   23.8411 C   0  0  1  0  0  0
  -27.2185  -27.4322   20.0975 C   0  0  0  0  0  0
  -25.5892  -33.8628   24.2350 N   0  0  0  0  0  0
  -23.4005  -30.4997   21.5526 C   0  0  2  0  0  0
  -24.8435  -28.9734   20.1091 C   0  0  0  0  0  0
  -22.7404  -29.4686   22.4962 C   0  0  0  0  0  0
  -18.0268  -28.1376   22.8496 C   0  0  0  0  0  0
  -24.1481  -36.7334   23.2637 C   0  0  0  0  0  0
  -25.9309  -30.8414   21.3596 C   0  0  0  0  0  0
  -26.0063  -29.4756   20.7060 C   0  0  0  0  0  0
  -27.1997  -28.7141   20.6944 C   0  0  0  0  0  0
  -26.0375  -26.9567   19.4798 C   0  0  0  0  0  0
  -24.8542  -27.7138   19.4916 C   0  0  0  0  0  0
  -23.6081  -29.8429   20.1634 C   0  0  0  0  0  0
  -25.4089  -36.3124   24.0351 C   0  0  1  0  0  0
  -20.5859  -28.3672   23.1310 C   0  0  2  0  0  0
  -20.6753  -26.9395   22.5415 C   0  0  0  0  0  0
  -19.5723  -26.6383   21.5202 C   0  0  0  0  0  0
  -18.1913  -26.7921   22.1630 C   0  0  0  0  0  0
  -19.1521  -28.8832   23.2919 C   0  0  0  0  0  0
  -18.9455  -30.1438   23.8934 C   0  0  0  0  0  0
  -17.6466  -30.6582   24.0571 C   0  0  0  0  0  0
  -25.9010  -34.9479   23.5146 C   0  0  0  0  0  0
  -16.5358  -29.9094   23.6318 C   0  0  0  0  0  0
  -16.7264  -28.6508   23.0341 C   0  0  0  0  0  0
  -26.4466  -31.6602   25.0726 C   0  0  0  0  0  0
  -25.3771  -31.3716   26.1518 C   0  0  0  0  0  0
  -27.0275  -30.3049   24.6070 C   0  0  0  0  0  0
  -27.6069  -32.4292   25.7475 C   0  0  0  0  0  0
  -27.5575  -37.1818   24.8463 C   0  0  0  0  0  0
  -21.4119  -29.3057   22.3719 N   0  0  0  0  0  0
  -26.4284  -37.3807   23.9414 N   0  0  0  0  0  0
  -24.6682  -31.0832   22.1010 N   0  0  0  0  0  0
  -23.4204  -28.8176   23.2950 O   0  0  0  0  0  0
  -28.3595  -26.6559   20.1444 O   0  0  0  0  0  0
  -26.5572  -34.8931   22.4710 O   0  0  0  0  0  0
  -23.5354  -32.1430   23.7534 O   0  0  0  0  0  0
  -29.9782  -19.3463   19.0157 C   0  0  0  0  0  0
  -30.1423  -18.1680   18.2759 C   0  0  0  0  0  0
  -29.8023  -18.0322   21.0633 C   0  0  0  0  0  0
  -29.7813  -19.3012   20.4157 C   0  0  0  0  0  0
  -29.9925  -16.8285   20.3228 C   0  0  0  0  0  0
  -30.1246  -16.9190   18.9122 C   0  0  0  0  0  0
  -29.1078  -23.0145   21.2664 C   0  0  0  0  0  0
  -29.3397  -24.4269   20.6540 C   0  0  0  0  0  0
  -29.6025  -21.8032   20.4540 C   0  0  0  0  0  0
  -28.0899  -25.2486   20.3183 C   0  0  0  0  0  0
  -29.9688  -15.5390   20.9606 N   0  0  0  0  0  0
  -29.5524  -20.4918   21.1382 N   0  0  0  0  0  0
  -28.5636  -22.8681   22.3695 O   0  0  0  0  0  0
  -30.4822  -24.8553   20.4399 O   0  0  0  0  0  0
  -30.1874  -15.8124   18.1363 F   0  0  0  0  0  0
  -31.4781  -12.3925   19.1580 H   0  0  0  0  0  0
  -30.3337  -11.2947   19.8691 H   0  0  0  0  0  0
  -29.7493  -11.7123   17.4767 H   0  0  0  0  0  0
  -29.6926  -13.4311   17.7468 H   0  0  0  0  0  0
  -27.8184  -11.3000   18.8246 H   0  0  0  0  0  0
  -27.3949  -12.6282   17.7774 H   0  0  0  0  0  0
  -27.7023  -14.2496   19.5461 H   0  0  0  0  0  0
  -28.6640  -11.9845   21.3622 H   0  0  0  0  0  0
  -28.4549  -13.6342   21.8565 H   0  0  0  0  0  0
  -25.2747   -9.5691   22.4711 H   0  0  0  0  0  0
  -23.9976   -7.4662   22.7494 H   0  0  0  0  0  0
  -21.0813   -8.8780   19.8946 H   0  0  0  0  0  0
  -22.3698  -10.9642   19.6148 H   0  0  0  0  0  0
  -21.1935   -7.6113   23.9705 H   0  0  0  0  0  0
  -21.1518   -6.0493   25.9076 H   0  0  0  0  0  0
  -22.0566   -2.7587   23.2843 H   0  0  0  0  0  0
  -22.4016  -11.9969   22.4838 H   0  0  0  0  0  0
  -21.1066  -13.1382   22.2510 H   0  0  0  0  0  0
  -24.6700  -15.8449   20.5454 H   0  0  0  0  0  0
  -26.2927  -15.6298   20.1207 H   0  0  0  0  0  0
  -26.7122  -32.5557   23.1188 H   0  0  0  0  0  0
  -25.0058  -33.9781   25.0507 H   0  0  0  0  0  0
  -22.6900  -31.3189   21.4187 H   0  0  0  0  0  0
  -23.3723  -35.9687   23.3324 H   0  0  0  0  0  0
  -24.3591  -36.8920   22.2049 H   0  0  0  0  0  0
  -23.7259  -37.6559   23.6631 H   0  0  0  0  0  0
  -26.0342  -31.6065   20.5877 H   0  0  0  0  0  0
  -26.8248  -30.9024   21.9699 H   0  0  0  0  0  0
  -28.0942  -29.0955   21.1663 H   0  0  0  0  0  0
  -26.0049  -26.0010   18.9806 H   0  0  0  0  0  0
  -23.9611  -27.3250   19.0238 H   0  0  0  0  0  0
  -23.7233  -30.6231   19.4094 H   0  0  0  0  0  0
  -22.7290  -29.2710   19.8605 H   0  0  0  0  0  0
  -25.1254  -36.2001   25.0843 H   0  0  0  0  0  0
  -20.9979  -28.3240   24.1418 H   0  0  0  0  0  0
  -20.5618  -26.2266   23.3610 H   0  0  0  0  0  0
  -21.6638  -26.7411   22.1233 H   0  0  0  0  0  0
  -19.6871  -25.6294   21.1226 H   0  0  0  0  0  0
  -19.6646  -27.3192   20.6728 H   0  0  0  0  0  0
  -17.4163  -26.6677   21.4056 H   0  0  0  0  0  0
  -18.0316  -26.0069   22.9028 H   0  0  0  0  0  0
  -19.7930  -30.7236   24.2340 H   0  0  0  0  0  0
  -17.5015  -31.6268   24.5163 H   0  0  0  0  0  0
  -15.5354  -30.3015   23.7592 H   0  0  0  0  0  0
  -15.8664  -28.0829   22.7036 H   0  0  0  0  0  0
  -24.5861  -30.7147   25.7880 H   0  0  0  0  0  0
  -24.9061  -32.2882   26.5074 H   0  0  0  0  0  0
  -25.8148  -30.8797   27.0215 H   0  0  0  0  0  0
  -26.2798  -29.6816   24.1154 H   0  0  0  0  0  0
  -27.4089  -29.7268   25.4492 H   0  0  0  0  0  0
  -27.8610  -30.4364   23.9170 H   0  0  0  0  0  0
  -27.2716  -33.3576   26.2109 H   0  0  0  0  0  0
  -28.3851  -32.6880   25.0282 H   0  0  0  0  0  0
  -28.0773  -31.8382   26.5345 H   0  0  0  0  0  0
  -28.2608  -38.0099   24.7495 H   0  0  0  0  0  0
  -28.1057  -36.2635   24.6293 H   0  0  0  0  0  0
  -27.2315  -37.1500   25.8875 H   0  0  0  0  0  0
  -20.9225  -29.8882   21.7059 H   0  0  0  0  0  0
  -26.0175  -38.2889   24.1407 H   0  0  0  0  0  0
  -29.9890  -20.2710   18.4598 H   0  0  0  0  0  0
  -30.2544  -18.2224   17.2047 H   0  0  0  0  0  0
  -29.6704  -17.9780   22.1358 H   0  0  0  0  0  0
  -30.6194  -22.0036   20.1150 H   0  0  0  0  0  0
  -28.9663  -21.7718   19.5683 H   0  0  0  0  0  0
  -27.3474  -25.1054   21.1054 H   0  0  0  0  0  0
  -27.6849  -24.8273   19.3984 H   0  0  0  0  0  0
  -29.1438  -15.3301   21.5024 H   0  0  0  0  0  0
  -29.3836  -20.4916   22.1436 H   0  0  0  0  0  0
  1 25  1  0  0  0
  1 30  2  0  0  0
  1 81  1  0  0  0
  2  3  1  0  0  0
  2 25  1  0  0  0
  2 86  1  0  0  0
  2 87  1  0  0  0
  3  4  1  0  0  0
  3 88  1  0  0  0
  3 89  1  0  0  0
  4  5  1  0  0  0
  4 90  1  0  0  0
  4 91  1  0  0  0
  5  6  1  0  0  0
  5 26  1  0  0  0
  5 92  1  0  0  0
  6 25  1  0  0  0
  6 93  1  0  0  0
  6 94  1  0  0  0
  7  8  2  0  0  0
  7 26  1  0  0  0
  7 29  1  0  0  0
  8  9  1  0  0  0
  8 22  1  0  0  0
  9 10  1  0  0  0
  9 27  2  0  0  0
 10 11  2  0  0  0
 10 15  1  0  0  0
 11 12  1  0  0  0
 11 95  1  0  0  0
 12 13  2  0  0  0
 12 96  1  0  0  0
 13 14  1  0  0  0
 13 31  1  0  0  0
 14 15  2  0  0  0
 14 97  1  0  0  0
 15 98  1  0  0  0
 16 17  2  0  0  0
 16 21  1  0  0  0
 16 31  1  0  0  0
 17 18  1  0  0  0
 17 99  1  0  0  0
 18 19  2  0  0  0
 18100  1  0  0  0
 19 20  1  0  0  0
 19 24  1  0  0  0
 20 21  2  0  0  0
 20101  1  0  0  0
 21 23  1  0  0  0
 22 28  1  0  0  0
 22 32  2  0  0  0
 26 27  1  0  0  0
 28102  1  0  0  0
 28103  1  0  0  0
 29104  1  0  0  0
 29105  1  0  0  0
 33 34  1  0  0  0
 33 66  1  0  0  0
 33 70  2  0  0  0
 34 36  1  0  0  0
 34 59  1  0  0  0
 34106  1  0  0  0
 35 44  2  0  0  0
 35 45  1  0  0  0
 35 68  1  0  0  0
 36 56  1  0  0  0
 36107  1  0  0  0
 37 39  1  0  0  0
 37 47  1  0  0  0
 37 66  1  0  0  0
 37108  1  0  0  0
 38 43  2  0  0  0
 38 46  1  0  0  0
 38 47  1  0  0  0
 39 64  1  0  0  0
 39 67  2  0  0  0
 40 52  1  0  0  0
 40 53  2  0  0  0
 40 58  1  0  0  0
 41109  1  0  0  0
 41110  1  0  0  0
 41111  1  0  0  0
 41 48  1  0  0  0
 42 43  1  0  0  0
 42 66  1  0  0  0
 42112  1  0  0  0
 42113  1  0  0  0
 43 44  1  0  0  0
 44114  1  0  0  0
 45 46  2  0  0  0
 45115  1  0  0  0
 46116  1  0  0  0
 47117  1  0  0  0
 47118  1  0  0  0
 48 56  1  0  0  0
 48 65  1  0  0  0
 48119  1  0  0  0
 49 50  1  0  0  0
 49 53  1  0  0  0
 49 64  1  0  0  0
 49120  1  0  0  0
 50 51  1  0  0  0
 50121  1  0  0  0
 50122  1  0  0  0
 51 52  1  0  0  0
 51123  1  0  0  0
 51124  1  0  0  0
 52125  1  0  0  0
 52126  1  0  0  0
 53 54  1  0  0  0
 54 55  2  0  0  0
 54127  1  0  0  0
 55 57  1  0  0  0
 55128  1  0  0  0
 56 69  2  0  0  0
 57 58  2  0  0  0
 57129  1  0  0  0
 58130  1  0  0  0
 59 60  1  0  0  0
 59 61  1  0  0  0
 59 62  1  0  0  0
 60131  1  0  0  0
 60132  1  0  0  0
 60133  1  0  0  0
 61134  1  0  0  0
 61135  1  0  0  0
 61136  1  0  0  0
 62137  1  0  0  0
 62138  1  0  0  0
 62139  1  0  0  0
 63 65  1  0  0  0
 63140  1  0  0  0
 63141  1  0  0  0
 63142  1  0  0  0
 64143  1  0  0  0
 65144  1  0  0  0
 68 80  1  0  0  0
 71 72  2  0  0  0
 71 74  1  0  0  0
 71145  1  0  0  0
 72 76  1  0  0  0
 72146  1  0  0  0
 73 74  2  0  0  0
 73 75  1  0  0  0
 73147  1  0  0  0
 74 82  1  0  0  0
 75 76  2  0  0  0
 75 81  1  0  0  0
 76 85  1  0  0  0
 77 78  1  0  0  0
 77 79  1  0  0  0
 77 83  2  0  0  0
 78 80  1  0  0  0
 78 84  2  0  0  0
 79 82  1  0  0  0
 79148  1  0  0  0
 79149  1  0  0  0
 80150  1  0  0  0
 80151  1  0  0  0
 81152  1  0  0  0
 82153  1  0  0  0
M  ISO  4   1 100  68 101  80 101  81 100
M  END
> <chiral flag>
0

> <version>
0

> <s_m_source_file>
/data/baiqing/PycharmProjects/Reinvent-master-3.2/result/LINK_invent/BTK/process_docking_weight1_custom_product_contain_oxygen_bond_distance_aromatic_linkinvent_7_9_3/rearranged_h_0166.sdf

> <i_m_source_file_index>
27

> <r_mmod_Potential_Energy-OPLS-2005>
42.6359443664551

> <r_mmod_Stretch_Energy-OPLS-2005>
41.9319305419922

> <r_mmod_Bend_Energy-OPLS-2005>
101.135780334473

> <r_mmod_Torsional_Energy-OPLS-2005>
256.544891357422

> <r_mmod_Improper_Torsional_Energy-OPLS-2005>
5.26361608505249

> <r_mmod_Van_der_Waal_Energy-OPLS-2005>
162.011123657227

> <r_mmod_Electrostatic_Energy-OPLS-2005>
-287.267425537109

> <r_mmod_Solvation_Energy-OPLS-2005>
-254.415451049805

> <b_mmod_Minimization_Converged-OPLS-2005>
0

> <r_mmod_RMS_Derivative-OPLS-2005>
3.5086305141449

$$$$
27
                    3D
 Structure written by MMmdl.
171180  0  0  1  0            999 V2000
  -30.6525  -14.5367   20.5396 C   0  0  0  0  0  0
  -30.4343  -12.3343   19.4371 C   0  0  0  0  0  0
  -29.5045  -12.5094   18.2157 C   0  0  0  0  0  0
  -28.0244  -12.3632   18.6243 C   0  0  0  0  0  0
  -27.6632  -13.2062   19.8759 C   0  0  2  0  0  0
  -28.7045  -12.9971   20.9998 C   0  0  0  0  0  0
  -25.2600  -13.8142   20.5654 C   0  0  0  0  0  0
  -24.1856  -13.0429   20.9178 C   0  0  0  0  0  0
  -24.6403  -11.6898   20.8736 C   0  0  0  0  0  0
  -23.9059  -10.4289   21.0408 C   0  0  0  0  0  0
  -24.3609   -9.4203   21.9185 C   0  0  0  0  0  0
  -23.6290   -8.2234   22.0750 C   0  0  0  0  0  0
  -22.4275   -8.0275   21.3537 C   0  0  0  0  0  0
  -21.9904   -9.0253   20.4641 C   0  0  0  0  0  0
  -22.7230  -10.2133   20.3055 C   0  0  0  0  0  0
  -21.6852   -6.0733   22.5277 C   0  0  0  0  0  0
  -21.4014   -6.5635   23.8215 C   0  0  0  0  0  0
  -21.3661   -5.6789   24.9175 C   0  0  0  0  0  0
  -21.6049   -4.3051   24.7222 C   0  0  0  0  0  0
  -21.8825   -3.8143   23.4344 C   0  0  0  0  0  0
  -21.9194   -4.6963   22.3401 C   0  0  0  0  0  0
  -22.7881  -13.5238   21.1846 C   0  0  0  0  0  0
  -22.1663   -4.2144   21.0981 F   0  0  0  0  0  0
  -21.5630   -3.4540   25.7738 F   0  0  0  0  0  0
  -30.0332  -13.3234   20.4525 N   0  0  0  0  0  0
  -26.3036  -12.9313   20.3356 N   0  0  0  0  0  0
  -25.9328  -11.6474   20.5762 N   0  0  0  0  0  0
  -22.0513  -12.8240   22.0402 N   0  0  0  0  0  0
  -25.4304  -15.1852   20.3992 N   0  0  0  0  0  0
  -31.7843  -14.7331   20.0852 O   0  0  0  0  0  0
  -21.6635   -6.8875   21.4240 O   0  0  0  0  0  0
  -22.3578  -14.5550   20.6699 O   0  0  0  0  0  0
  -24.6196  -31.8646   23.2075 C   0  0  0  0  0  0
  -25.9070  -32.4799   23.8381 C   0  0  1  0  0  0
  -27.2273  -27.3868   20.1089 C   0  0  0  0  0  0
  -25.5919  -33.8600   24.2317 N   0  0  0  0  0  0
  -23.4097  -30.4889   21.5484 C   0  0  2  0  0  0
  -24.8562  -28.9504   20.1138 C   0  0  0  0  0  0
  -22.7434  -29.4653   22.4968 C   0  0  0  0  0  0
  -18.0276  -28.1374   22.8491 C   0  0  0  0  0  0
  -24.1488  -36.7299   23.2638 C   0  0  0  0  0  0
  -25.9438  -30.8169   21.3675 C   0  0  0  0  0  0
  -26.0207  -29.4486   20.7123 C   0  0  0  0  0  0
  -27.2121  -28.6772   20.7013 C   0  0  0  0  0  0
  -26.0462  -26.9244   19.4868 C   0  0  0  0  0  0
  -24.8662  -27.6901   19.4947 C   0  0  0  0  0  0
  -23.6206  -29.8221   20.1634 C   0  0  0  0  0  0
  -25.4108  -36.3097   24.0341 C   0  0  1  0  0  0
  -20.5869  -28.3673   23.1304 C   0  0  2  0  0  0
  -20.6764  -26.9405   22.5414 C   0  0  0  0  0  0
  -19.5746  -26.6382   21.5207 C   0  0  0  0  0  0
  -18.1925  -26.7923   22.1620 C   0  0  0  0  0  0
  -19.1526  -28.8841   23.2892 C   0  0  0  0  0  0
  -18.9452  -30.1444   23.8907 C   0  0  0  0  0  0
  -17.6454  -30.6584   24.0562 C   0  0  0  0  0  0
  -25.9042  -34.9463   23.5125 C   0  0  0  0  0  0
  -16.5345  -29.9086   23.6328 C   0  0  0  0  0  0
  -16.7264  -28.6497   23.0357 C   0  0  0  0  0  0
  -26.4489  -31.6587   25.0721 C   0  0  0  0  0  0
  -25.3753  -31.3701   26.1472 C   0  0  0  0  0  0
  -27.0316  -30.3022   24.6123 C   0  0  0  0  0  0
  -27.6070  -32.4304   25.7481 C   0  0  0  0  0  0
  -27.5581  -37.1800   24.8463 C   0  0  0  0  0  0
  -21.4157  -29.3037   22.3705 N   0  0  0  0  0  0
  -26.4287  -37.3786   23.9417 N   0  0  0  0  0  0
  -24.6758  -31.0716   22.0989 N   0  0  0  0  0  0
  -23.4188  -28.8189   23.3019 O   0  0  0  0  0  0
  -28.3605  -26.5852   20.1253 O   0  0  0  0  0  0
  -26.5600  -34.8920   22.4685 O   0  0  0  0  0  0
  -23.5376  -32.1415   23.7445 O   0  0  0  0  0  0
  -28.1530  -18.7511   20.2121 C   0  0  0  0  0  0
  -30.4271  -18.9347   19.4120 C   0  0  0  0  0  0
  -28.4575  -17.4901   20.7803 C   0  0  0  0  0  0
  -30.7289  -17.6627   19.9694 C   0  0  0  0  0  0
  -29.1117  -19.4690   19.4568 C   0  0  0  0  0  0
  -29.7263  -16.8887   20.6079 C   0  0  0  0  0  0
  -29.0908  -24.1686   19.9555 C   0  0  0  0  0  0
  -28.9339  -22.2093   16.0281 C   0  0  0  0  0  0
  -28.9356  -19.9727   17.0319 C   0  0  0  0  0  0
  -28.5737  -22.8029   17.3979 C   0  0  0  0  0  0
  -28.6281  -20.5512   18.4466 C   0  0  2  0  0  0
  -28.4036  -20.7843   15.8409 C   0  0  0  0  0  0
  -28.9702  -20.2072   14.5282 C   0  0  0  0  0  0
  -26.8614  -20.7356   15.7471 C   0  0  0  0  0  0
  -28.6097  -22.6822   19.8586 C   0  0  0  0  0  0
  -28.1514  -25.2220   20.6077 C   0  0  0  0  0  0
  -29.8939  -15.5304   21.0653 N   0  0  0  0  0  0
  -29.0496  -22.0053   18.5836 N   0  3  2  0  0  0
  -30.2058  -24.4926   19.5296 O   0  0  0  0  0  0
  -31.4783  -12.4465   19.1392 H   0  0  0  0  0  0
  -30.3488  -11.3244   19.8414 H   0  0  0  0  0  0
  -29.7528  -11.7774   17.4462 H   0  0  0  0  0  0
  -29.6657  -13.4911   17.7666 H   0  0  0  0  0  0
  -27.8408  -11.3074   18.8260 H   0  0  0  0  0  0
  -27.3738  -12.6298   17.7907 H   0  0  0  0  0  0
  -27.7043  -14.2527   19.5731 H   0  0  0  0  0  0
  -28.6925  -11.9602   21.3388 H   0  0  0  0  0  0
  -28.4560  -13.5903   21.8806 H   0  0  0  0  0  0
  -25.2754   -9.5687   22.4755 H   0  0  0  0  0  0
  -23.9999   -7.4627   22.7471 H   0  0  0  0  0  0
  -21.0829   -8.8776   19.8951 H   0  0  0  0  0  0
  -22.3687  -10.9674   19.6164 H   0  0  0  0  0  0
  -21.2003   -7.6147   23.9719 H   0  0  0  0  0  0
  -21.1477   -6.0513   25.9078 H   0  0  0  0  0  0
  -22.0602   -2.7605   23.2841 H   0  0  0  0  0  0
  -22.4115  -11.9889   22.4780 H   0  0  0  0  0  0
  -21.1137  -13.1287   22.2609 H   0  0  0  0  0  0
  -24.6534  -15.8309   20.4809 H   0  0  0  0  0  0
  -26.2597  -15.6099   20.0052 H   0  0  0  0  0  0
  -26.7143  -32.5497   23.1139 H   0  0  0  0  0  0
  -25.0093  -33.9753   25.0483 H   0  0  0  0  0  0
  -22.7014  -31.3077   21.4075 H   0  0  0  0  0  0
  -23.3750  -35.9630   23.3292 H   0  0  0  0  0  0
  -24.3585  -36.8918   22.2052 H   0  0  0  0  0  0
  -23.7235  -37.6502   23.6653 H   0  0  0  0  0  0
  -26.0640  -31.5823   20.5996 H   0  0  0  0  0  0
  -26.8288  -30.8672   21.9900 H   0  0  0  0  0  0
  -28.1086  -29.0560   21.1718 H   0  0  0  0  0  0
  -26.0269  -25.9658   18.9892 H   0  0  0  0  0  0
  -23.9738  -27.3046   19.0212 H   0  0  0  0  0  0
  -23.7337  -30.5969   19.4041 H   0  0  0  0  0  0
  -22.7437  -29.2444   19.8646 H   0  0  0  0  0  0
  -25.1282  -36.1954   25.0833 H   0  0  0  0  0  0
  -20.9958  -28.3229   24.1423 H   0  0  0  0  0  0
  -20.5652  -26.2281   23.3599 H   0  0  0  0  0  0
  -21.6636  -26.7436   22.1212 H   0  0  0  0  0  0
  -19.6903  -25.6294   21.1233 H   0  0  0  0  0  0
  -19.6684  -27.3197   20.6738 H   0  0  0  0  0  0
  -17.4194  -26.6670   21.4021 H   0  0  0  0  0  0
  -18.0328  -26.0061   22.9011 H   0  0  0  0  0  0
  -19.7929  -30.7253   24.2284 H   0  0  0  0  0  0
  -17.5014  -31.6268   24.5154 H   0  0  0  0  0  0
  -15.5348  -30.2994   23.7645 H   0  0  0  0  0  0
  -15.8659  -28.0815   22.7081 H   0  0  0  0  0  0
  -24.5935  -30.7034   25.7812 H   0  0  0  0  0  0
  -24.8935  -32.2856   26.4916 H   0  0  0  0  0  0
  -25.8114  -30.8879   27.0230 H   0  0  0  0  0  0
  -26.2861  -29.6780   24.1181 H   0  0  0  0  0  0
  -27.4071  -29.7267   25.4592 H   0  0  0  0  0  0
  -27.8708  -30.4319   23.9286 H   0  0  0  0  0  0
  -27.2700  -33.3603   26.2071 H   0  0  0  0  0  0
  -28.3874  -32.6859   25.0300 H   0  0  0  0  0  0
  -28.0745  -31.8415   26.5381 H   0  0  0  0  0  0
  -28.2591  -38.0106   24.7532 H   0  0  0  0  0  0
  -28.1087  -36.2640   24.6260 H   0  0  0  0  0  0
  -27.2305  -37.1413   25.8866 H   0  0  0  0  0  0
  -20.9318  -29.8769   21.6933 H   0  0  0  0  0  0
  -26.0171  -38.2860   24.1432 H   0  0  0  0  0  0
  -27.1319  -19.1030   20.2693 H   0  0  0  0  0  0
  -31.1977  -19.4397   18.8465 H   0  0  0  0  0  0
  -27.6688  -16.9507   21.2871 H   0  0  0  0  0  0
  -31.7271  -17.2681   19.8425 H   0  0  0  0  0  0
  -30.0192  -22.2254   15.9113 H   0  0  0  0  0  0
  -28.5436  -22.8573   15.2414 H   0  0  0  0  0  0
  -28.5405  -18.9573   16.9674 H   0  0  0  0  0  0
  -30.0153  -19.8710   16.9176 H   0  0  0  0  0  0
  -27.4929  -22.9362   17.4622 H   0  0  0  0  0  0
  -28.9912  -23.8080   17.3883 H   0  0  0  0  0  0
  -27.5413  -20.5689   18.5402 H   0  0  0  0  0  0
  -30.0611  -20.2270   14.5135 H   0  0  0  0  0  0
  -28.6265  -20.7759   13.6632 H   0  0  0  0  0  0
  -28.6631  -19.1712   14.3801 H   0  0  0  0  0  0
  -26.3622  -21.1038   16.6424 H   0  0  0  0  0  0
  -26.5096  -19.7151   15.5867 H   0  0  0  0  0  0
  -26.4978  -21.3336   14.9102 H   0  0  0  0  0  0
  -27.5227  -22.6520   19.9354 H   0  0  0  0  0  0
  -29.0037  -22.1353   20.7149 H   0  0  0  0  0  0
  -28.3391  -25.2164   21.6814 H   0  0  0  0  0  0
  -27.1236  -24.8857   20.4814 H   0  0  0  0  0  0
  -29.0863  -15.1621   21.5447 H   0  0  0  0  0  0
  -30.0583  -22.0382   18.5809 H   0  0  0  0  0  0
  1 25  1  0  0  0
  1 30  2  0  0  0
  1 87  1  0  0  0
  2  3  1  0  0  0
  2 25  1  0  0  0
  2 90  1  0  0  0
  2 91  1  0  0  0
  3  4  1  0  0  0
  3 92  1  0  0  0
  3 93  1  0  0  0
  4  5  1  0  0  0
  4 94  1  0  0  0
  4 95  1  0  0  0
  5  6  1  0  0  0
  5 26  1  0  0  0
  5 96  1  0  0  0
  6 25  1  0  0  0
  6 97  1  0  0  0
  6 98  1  0  0  0
  7  8  2  0  0  0
  7 26  1  0  0  0
  7 29  1  0  0  0
  8  9  1  0  0  0
  8 22  1  0  0  0
  9 10  1  0  0  0
  9 27  2  0  0  0
 10 11  2  0  0  0
 10 15  1  0  0  0
 11 12  1  0  0  0
 11 99  1  0  0  0
 12 13  2  0  0  0
 12100  1  0  0  0
 13 14  1  0  0  0
 13 31  1  0  0  0
 14 15  2  0  0  0
 14101  1  0  0  0
 15102  1  0  0  0
 16 17  2  0  0  0
 16 21  1  0  0  0
 16 31  1  0  0  0
 17 18  1  0  0  0
 17103  1  0  0  0
 18 19  2  0  0  0
 18104  1  0  0  0
 19 20  1  0  0  0
 19 24  1  0  0  0
 20 21  2  0  0  0
 20105  1  0  0  0
 21 23  1  0  0  0
 22 28  1  0  0  0
 22 32  2  0  0  0
 26 27  1  0  0  0
 28106  1  0  0  0
 28107  1  0  0  0
 29108  1  0  0  0
 29109  1  0  0  0
 33 34  1  0  0  0
 33 66  1  0  0  0
 33 70  2  0  0  0
 34 36  1  0  0  0
 34 59  1  0  0  0
 34110  1  0  0  0
 35 44  2  0  0  0
 35 45  1  0  0  0
 35 68  1  0  0  0
 36 56  1  0  0  0
 36111  1  0  0  0
 37 39  1  0  0  0
 37 47  1  0  0  0
 37 66  1  0  0  0
 37112  1  0  0  0
 38 43  2  0  0  0
 38 46  1  0  0  0
 38 47  1  0  0  0
 39 64  1  0  0  0
 39 67  2  0  0  0
 40 52  1  0  0  0
 40 53  2  0  0  0
 40 58  1  0  0  0
 41113  1  0  0  0
 41114  1  0  0  0
 41115  1  0  0  0
 41 48  1  0  0  0
 42 43  1  0  0  0
 42 66  1  0  0  0
 42116  1  0  0  0
 42117  1  0  0  0
 43 44  1  0  0  0
 44118  1  0  0  0
 45 46  2  0  0  0
 45119  1  0  0  0
 46120  1  0  0  0
 47121  1  0  0  0
 47122  1  0  0  0
 48 56  1  0  0  0
 48 65  1  0  0  0
 48123  1  0  0  0
 49 50  1  0  0  0
 49 53  1  0  0  0
 49 64  1  0  0  0
 49124  1  0  0  0
 50 51  1  0  0  0
 50125  1  0  0  0
 50126  1  0  0  0
 51 52  1  0  0  0
 51127  1  0  0  0
 51128  1  0  0  0
 52129  1  0  0  0
 52130  1  0  0  0
 53 54  1  0  0  0
 54 55  2  0  0  0
 54131  1  0  0  0
 55 57  1  0  0  0
 55132  1  0  0  0
 56 69  2  0  0  0
 57 58  2  0  0  0
 57133  1  0  0  0
 58134  1  0  0  0
 59 60  1  0  0  0
 59 61  1  0  0  0
 59 62  1  0  0  0
 60135  1  0  0  0
 60136  1  0  0  0
 60137  1  0  0  0
 61138  1  0  0  0
 61139  1  0  0  0
 61140  1  0  0  0
 62141  1  0  0  0
 62142  1  0  0  0
 62143  1  0  0  0
 63 65  1  0  0  0
 63144  1  0  0  0
 63145  1  0  0  0
 63146  1  0  0  0
 64147  1  0  0  0
 65148  1  0  0  0
 68 86  1  0  0  0
 71 73  2  0  0  0
 71 75  1  0  0  0
 71149  1  0  0  0
 72 74  1  0  0  0
 72 75  2  0  0  0
 72150  1  0  0  0
 73 76  1  0  0  0
 73151  1  0  0  0
 74 76  2  0  0  0
 74152  1  0  0  0
 75 81  1  0  0  0
 76 87  1  0  0  0
 77 85  1  0  0  0
 77 86  1  0  0  0
 77 89  2  0  0  0
 78 80  1  0  0  0
 78 82  1  0  0  0
 78153  1  0  0  0
 78154  1  0  0  0
 79 81  1  0  0  0
 79 82  1  0  0  0
 79155  1  0  0  0
 79156  1  0  0  0
 80 88  1  0  0  0
 80157  1  0  0  0
 80158  1  0  0  0
 81 88  1  0  0  0
 81159  1  0  0  0
 82 83  1  0  0  0
 82 84  1  0  0  0
 83160  1  0  0  0
 83161  1  0  0  0
 83162  1  0  0  0
 84163  1  0  0  0
 84164  1  0  0  0
 84165  1  0  0  0
 85166  1  0  0  0
 85167  1  0  0  0
 85 88  1  0  0  0
 86168  1  0  0  0
 86169  1  0  0  0
 87170  1  0  0  0
 88171  1  0  0  0
M  CHG  1  88   1
M  ISO  4   1 100  68 101  86 101  87 100
M  END
> <chiral flag>
0

> <version>
0

> <s_m_source_file>
/data/baiqing/PycharmProjects/Reinvent-master-3.2/result/LINK_invent/BTK/process_docking_weight1_custom_product_contain_oxygen_bond_distance_aromatic_linkinvent_7_9_3/rearranged_h_0166.sdf

> <i_m_source_file_index>
28

> <r_mmod_Potential_Energy-OPLS-2005>
-87.432991027832

> <r_mmod_Stretch_Energy-OPLS-2005>
59.2596435546875

> <r_mmod_Bend_Energy-OPLS-2005>
134.362365722656

> <r_mmod_Torsional_Energy-OPLS-2005>
293.451202392578

> <r_mmod_Improper_Torsional_Energy-OPLS-2005>
8.19661712646484

> <r_mmod_Van_der_Waal_Energy-OPLS-2005>
159.215774536133

> <r_mmod_Electrostatic_Energy-OPLS-2005>
-315.687652587891

> <r_mmod_Solvation_Energy-OPLS-2005>
-448.687194824219

> <b_mmod_Minimization_Converged-OPLS-2005>
0

> <r_mmod_RMS_Derivative-OPLS-2005>
1.01700615882874

$$$$
28
                    3D
 Structure written by MMmdl.
154162  0  0  1  0            999 V2000
  -30.6850  -14.5596   20.4230 C   0  0  0  0  0  0
  -30.4179  -12.3265   19.4493 C   0  0  0  0  0  0
  -29.5017  -12.4833   18.2184 C   0  0  0  0  0  0
  -28.0201  -12.3470   18.6212 C   0  0  0  0  0  0
  -27.6496  -13.2181   19.8520 C   0  0  2  0  0  0
  -28.6993  -13.0896   20.9815 C   0  0  0  0  0  0
  -25.2572  -13.8201   20.5639 C   0  0  0  0  0  0
  -24.1825  -13.0463   20.9170 C   0  0  0  0  0  0
  -24.6387  -11.6917   20.8724 C   0  0  0  0  0  0
  -23.9061  -10.4307   21.0399 C   0  0  0  0  0  0
  -24.3632   -9.4220   21.9155 C   0  0  0  0  0  0
  -23.6305   -8.2259   22.0743 C   0  0  0  0  0  0
  -22.4284   -8.0288   21.3538 C   0  0  0  0  0  0
  -21.9919   -9.0257   20.4636 C   0  0  0  0  0  0
  -22.7248  -10.2134   20.3048 C   0  0  0  0  0  0
  -21.6871   -6.0723   22.5269 C   0  0  0  0  0  0
  -21.4013   -6.5633   23.8203 C   0  0  0  0  0  0
  -21.3671   -5.6786   24.9164 C   0  0  0  0  0  0
  -21.6075   -4.3051   24.7232 C   0  0  0  0  0  0
  -21.8820   -3.8139   23.4352 C   0  0  0  0  0  0
  -21.9193   -4.6945   22.3395 C   0  0  0  0  0  0
  -22.7848  -13.5238   21.1814 C   0  0  0  0  0  0
  -22.1643   -4.2140   21.0962 F   0  0  0  0  0  0
  -21.5657   -3.4525   25.7739 F   0  0  0  0  0  0
  -30.0222  -13.3714   20.4061 N   0  0  0  0  0  0
  -26.2999  -12.9351   20.3275 N   0  0  0  0  0  0
  -25.9343  -11.6514   20.5781 N   0  0  0  0  0  0
  -22.0499  -12.8218   22.0403 N   0  0  0  0  0  0
  -25.4284  -15.1911   20.3947 N   0  0  0  0  0  0
  -31.8891  -14.6253   20.1610 O   0  0  0  0  0  0
  -21.6658   -6.8874   21.4233 O   0  0  0  0  0  0
  -22.3513  -14.5528   20.6630 O   0  0  0  0  0  0
  -24.6186  -31.8670   23.2017 C   0  0  0  0  0  0
  -25.9048  -32.4823   23.8350 C   0  0  1  0  0  0
  -27.2368  -27.3879   20.1015 C   0  0  0  0  0  0
  -25.5858  -33.8611   24.2269 N   0  0  0  0  0  0
  -23.4110  -30.4847   21.5471 C   0  0  2  0  0  0
  -24.8559  -28.9436   20.1121 C   0  0  0  0  0  0
  -22.7479  -29.4614   22.4995 C   0  0  0  0  0  0
  -18.0276  -28.1366   22.8511 C   0  0  0  0  0  0
  -24.1493  -36.7336   23.2652 C   0  0  0  0  0  0
  -25.9439  -30.8136   21.3671 C   0  0  0  0  0  0
  -26.0164  -29.4447   20.7124 C   0  0  0  0  0  0
  -27.2055  -28.6733   20.7036 C   0  0  0  0  0  0
  -26.0546  -26.9095   19.4953 C   0  0  0  0  0  0
  -24.8723  -27.6759   19.5017 C   0  0  0  0  0  0
  -23.6213  -29.8171   20.1624 C   0  0  0  0  0  0
  -25.4117  -36.3123   24.0343 C   0  0  1  0  0  0
  -20.5890  -28.3632   23.1344 C   0  0  2  0  0  0
  -20.6759  -26.9355   22.5448 C   0  0  0  0  0  0
  -19.5726  -26.6351   21.5256 C   0  0  0  0  0  0
  -18.1904  -26.7902   22.1644 C   0  0  0  0  0  0
  -19.1534  -28.8819   23.2914 C   0  0  0  0  0  0
  -18.9451  -30.1440   23.8907 C   0  0  0  0  0  0
  -17.6441  -30.6566   24.0561 C   0  0  0  0  0  0
  -25.9034  -34.9483   23.5112 C   0  0  0  0  0  0
  -16.5340  -29.9070   23.6319 C   0  0  0  0  0  0
  -16.7263  -28.6498   23.0331 C   0  0  0  0  0  0
  -26.4420  -31.6627   25.0724 C   0  0  0  0  0  0
  -25.3627  -31.3802   26.1443 C   0  0  0  0  0  0
  -27.0194  -30.3030   24.6148 C   0  0  0  0  0  0
  -27.5980  -32.4367   25.7493 C   0  0  0  0  0  0
  -27.5599  -37.1836   24.8454 C   0  0  0  0  0  0
  -21.4197  -29.2981   22.3741 N   0  0  0  0  0  0
  -26.4304  -37.3812   23.9400 N   0  0  0  0  0  0
  -24.6764  -31.0731   22.0939 N   0  0  0  0  0  0
  -23.4240  -28.8158   23.3051 O   0  0  0  0  0  0
  -28.4130  -26.6510   20.1500 O   0  0  0  0  0  0
  -26.5645  -34.8950   22.4707 O   0  0  0  0  0  0
  -23.5367  -32.1425   23.7378 O   0  0  0  0  0  0
  -29.8358  -19.1719   19.3151 C   0  0  0  0  0  0
  -30.9132  -18.8983   18.4936 C   0  0  0  0  0  0
  -30.2043  -16.9591   19.8940 C   0  0  0  0  0  0
  -29.0085  -20.4091   19.1578 C   0  0  0  0  0  0
  -29.0746  -21.5840   19.8464 C   0  0  0  0  0  0
  -28.2029  -22.7579   19.4889 C   0  0  0  0  0  0
  -30.0713  -25.3728   19.1211 C   0  0  0  0  0  0
  -28.2283  -24.0909   20.3026 C   0  0  0  0  0  0
  -28.5786  -25.3795   19.4701 C   0  0  1  0  0  0
  -29.4109  -18.0434   20.0643 N   0  0  0  0  0  0
  -31.5291  -19.7002   17.5297 N   0  0  0  0  0  0
  -29.9247  -15.6835   20.5120 N   0  0  0  0  0  0
  -27.4225  -22.6997   18.5332 O   0  0  0  0  0  0
  -31.5115  -17.2747   18.7364 S   0  0  0  0  0  0
  -31.4649  -12.4054   19.1508 H   0  0  0  0  0  0
  -30.3035  -11.3355   19.8943 H   0  0  0  0  0  0
  -29.7560  -11.7404   17.4604 H   0  0  0  0  0  0
  -29.6735  -13.4598   17.7601 H   0  0  0  0  0  0
  -27.8286  -11.2934   18.8263 H   0  0  0  0  0  0
  -27.3823  -12.6052   17.7757 H   0  0  0  0  0  0
  -27.6629  -14.2520   19.5070 H   0  0  0  0  0  0
  -28.6881  -12.0826   21.4050 H   0  0  0  0  0  0
  -28.4672  -13.7690   21.8050 H   0  0  0  0  0  0
  -25.2779   -9.5705   22.4707 H   0  0  0  0  0  0
  -24.0014   -7.4680   22.7461 H   0  0  0  0  0  0
  -21.0860   -8.8791   19.8946 H   0  0  0  0  0  0
  -22.3702  -10.9675   19.6165 H   0  0  0  0  0  0
  -21.1974   -7.6134   23.9694 H   0  0  0  0  0  0
  -21.1507   -6.0509   25.9064 H   0  0  0  0  0  0
  -22.0587   -2.7596   23.2853 H   0  0  0  0  0  0
  -22.4109  -11.9886   22.4829 H   0  0  0  0  0  0
  -21.1120  -13.1255   22.2585 H   0  0  0  0  0  0
  -24.6665  -15.8542   20.4868 H   0  0  0  0  0  0
  -26.2743  -15.6216   20.0440 H   0  0  0  0  0  0
  -26.7129  -32.5513   23.1126 H   0  0  0  0  0  0
  -24.9910  -33.9739   25.0345 H   0  0  0  0  0  0
  -22.6982  -31.2996   21.4078 H   0  0  0  0  0  0
  -23.3739  -35.9689   23.3330 H   0  0  0  0  0  0
  -24.3600  -36.8929   22.2069 H   0  0  0  0  0  0
  -23.7253  -37.6549   23.6650 H   0  0  0  0  0  0
  -26.0786  -31.5757   20.5977 H   0  0  0  0  0  0
  -26.8242  -30.8593   21.9975 H   0  0  0  0  0  0
  -28.1014  -29.0585   21.1710 H   0  0  0  0  0  0
  -26.0189  -25.9372   19.0260 H   0  0  0  0  0  0
  -23.9810  -27.2792   19.0352 H   0  0  0  0  0  0
  -23.7402  -30.5929   19.4059 H   0  0  0  0  0  0
  -22.7444  -29.2457   19.8609 H   0  0  0  0  0  0
  -25.1309  -36.2000   25.0840 H   0  0  0  0  0  0
  -20.9969  -28.3175   24.1478 H   0  0  0  0  0  0
  -20.5696  -26.2226   23.3646 H   0  0  0  0  0  0
  -21.6620  -26.7391   22.1220 H   0  0  0  0  0  0
  -19.6850  -25.6273   21.1265 H   0  0  0  0  0  0
  -19.6656  -27.3204   20.6827 H   0  0  0  0  0  0
  -17.4195  -26.6724   21.4007 H   0  0  0  0  0  0
  -18.0198  -26.0044   22.9025 H   0  0  0  0  0  0
  -19.7923  -30.7263   24.2266 H   0  0  0  0  0  0
  -17.4985  -31.6251   24.5145 H   0  0  0  0  0  0
  -15.5328  -30.2955   23.7620 H   0  0  0  0  0  0
  -15.8675  -28.0818   22.6983 H   0  0  0  0  0  0
  -24.5762  -30.7210   25.7752 H   0  0  0  0  0  0
  -24.8878  -32.3001   26.4882 H   0  0  0  0  0  0
  -25.7917  -30.8942   27.0213 H   0  0  0  0  0  0
  -26.2739  -29.6901   24.1067 H   0  0  0  0  0  0
  -27.3729  -29.7199   25.4658 H   0  0  0  0  0  0
  -27.8703  -30.4286   23.9446 H   0  0  0  0  0  0
  -27.2539  -33.3610   26.2158 H   0  0  0  0  0  0
  -28.3736  -32.7036   25.0298 H   0  0  0  0  0  0
  -28.0711  -31.8457   26.5346 H   0  0  0  0  0  0
  -28.2622  -38.0125   24.7481 H   0  0  0  0  0  0
  -28.1077  -36.2655   24.6278 H   0  0  0  0  0  0
  -27.2336  -37.1511   25.8862 H   0  0  0  0  0  0
  -20.9356  -29.8703   21.6967 H   0  0  0  0  0  0
  -26.0199  -38.2908   24.1334 H   0  0  0  0  0  0
  -28.2891  -20.3355   18.3534 H   0  0  0  0  0  0
  -29.7731  -21.6929   20.6611 H   0  0  0  0  0  0
  -30.3554  -24.4619   18.5920 H   0  0  0  0  0  0
  -30.6766  -25.4323   20.0294 H   0  0  0  0  0  0
  -30.3319  -26.2217   18.4841 H   0  0  0  0  0  0
  -28.9048  -23.9854   21.1512 H   0  0  0  0  0  0
  -27.2347  -24.2107   20.7354 H   0  0  0  0  0  0
  -28.0296  -25.3783   18.5299 H   0  0  0  0  0  0
  -31.3357  -20.6866   17.3920 H   0  0  0  0  0  0
  -32.2217  -19.3542   16.8753 H   0  0  0  0  0  0
  -28.9833  -15.5651   20.8450 H   0  0  0  0  0  0
  1 25  1  0  0  0
  1 30  2  0  0  0
  1 82  1  0  0  0
  2  3  1  0  0  0
  2 25  1  0  0  0
  2 85  1  0  0  0
  2 86  1  0  0  0
  3  4  1  0  0  0
  3 87  1  0  0  0
  3 88  1  0  0  0
  4  5  1  0  0  0
  4 89  1  0  0  0
  4 90  1  0  0  0
  5  6  1  0  0  0
  5 26  1  0  0  0
  5 91  1  0  0  0
  6 25  1  0  0  0
  6 92  1  0  0  0
  6 93  1  0  0  0
  7  8  2  0  0  0
  7 26  1  0  0  0
  7 29  1  0  0  0
  8  9  1  0  0  0
  8 22  1  0  0  0
  9 10  1  0  0  0
  9 27  2  0  0  0
 10 11  2  0  0  0
 10 15  1  0  0  0
 11 12  1  0  0  0
 11 94  1  0  0  0
 12 13  2  0  0  0
 12 95  1  0  0  0
 13 14  1  0  0  0
 13 31  1  0  0  0
 14 15  2  0  0  0
 14 96  1  0  0  0
 15 97  1  0  0  0
 16 17  2  0  0  0
 16 21  1  0  0  0
 16 31  1  0  0  0
 17 18  1  0  0  0
 17 98  1  0  0  0
 18 19  2  0  0  0
 18 99  1  0  0  0
 19 20  1  0  0  0
 19 24  1  0  0  0
 20 21  2  0  0  0
 20100  1  0  0  0
 21 23  1  0  0  0
 22 28  1  0  0  0
 22 32  2  0  0  0
 26 27  1  0  0  0
 28101  1  0  0  0
 28102  1  0  0  0
 29103  1  0  0  0
 29104  1  0  0  0
 33 34  1  0  0  0
 33 66  1  0  0  0
 33 70  2  0  0  0
 34 36  1  0  0  0
 34 59  1  0  0  0
 34105  1  0  0  0
 35 44  2  0  0  0
 35 45  1  0  0  0
 35 68  1  0  0  0
 36 56  1  0  0  0
 36106  1  0  0  0
 37 39  1  0  0  0
 37 47  1  0  0  0
 37 66  1  0  0  0
 37107  1  0  0  0
 38 43  2  0  0  0
 38 46  1  0  0  0
 38 47  1  0  0  0
 39 64  1  0  0  0
 39 67  2  0  0  0
 40 52  1  0  0  0
 40 53  2  0  0  0
 40 58  1  0  0  0
 41108  1  0  0  0
 41109  1  0  0  0
 41110  1  0  0  0
 41 48  1  0  0  0
 42 43  1  0  0  0
 42 66  1  0  0  0
 42111  1  0  0  0
 42112  1  0  0  0
 43 44  1  0  0  0
 44113  1  0  0  0
 45 46  2  0  0  0
 45114  1  0  0  0
 46115  1  0  0  0
 47116  1  0  0  0
 47117  1  0  0  0
 48 56  1  0  0  0
 48 65  1  0  0  0
 48118  1  0  0  0
 49 50  1  0  0  0
 49 53  1  0  0  0
 49 64  1  0  0  0
 49119  1  0  0  0
 50 51  1  0  0  0
 50120  1  0  0  0
 50121  1  0  0  0
 51 52  1  0  0  0
 51122  1  0  0  0
 51123  1  0  0  0
 52124  1  0  0  0
 52125  1  0  0  0
 53 54  1  0  0  0
 54 55  2  0  0  0
 54126  1  0  0  0
 55 57  1  0  0  0
 55127  1  0  0  0
 56 69  2  0  0  0
 57 58  2  0  0  0
 57128  1  0  0  0
 58129  1  0  0  0
 59 60  1  0  0  0
 59 61  1  0  0  0
 59 62  1  0  0  0
 60130  1  0  0  0
 60131  1  0  0  0
 60132  1  0  0  0
 61133  1  0  0  0
 61134  1  0  0  0
 61135  1  0  0  0
 62136  1  0  0  0
 62137  1  0  0  0
 62138  1  0  0  0
 63 65  1  0  0  0
 63139  1  0  0  0
 63140  1  0  0  0
 63141  1  0  0  0
 64142  1  0  0  0
 65143  1  0  0  0
 68 79  1  0  0  0
 71 72  2  0  0  0
 71 74  1  0  0  0
 71 80  1  0  0  0
 72 81  1  0  0  0
 72 84  1  0  0  0
 73 80  2  0  0  0
 73 82  1  0  0  0
 73 84  1  0  0  0
 74 75  2  0  0  0
 74144  1  0  0  0
 75 76  1  0  0  0
 75145  1  0  0  0
 76 78  1  0  0  0
 76 83  2  0  0  0
 77146  1  0  0  0
 77147  1  0  0  0
 77148  1  0  0  0
 77 79  1  0  0  0
 78 79  1  0  0  0
 78149  1  0  0  0
 78150  1  0  0  0
 79151  1  0  0  0
 81152  1  0  0  0
 81153  1  0  0  0
 82154  1  0  0  0
M  ISO  4   1 100  68 101  79 101  82 100
M  END
> <chiral flag>
0

> <version>
0

> <s_m_source_file>
/data/baiqing/PycharmProjects/Reinvent-master-3.2/result/LINK_invent/BTK/process_docking_weight1_custom_product_contain_oxygen_bond_distance_aromatic_linkinvent_7_9_3/rearranged_h_0166.sdf

> <i_m_source_file_index>
29

> <r_mmod_Potential_Energy-OPLS-2005>
-58.6510047912598

> <r_mmod_Stretch_Energy-OPLS-2005>
50.1500053405762

> <r_mmod_Bend_Energy-OPLS-2005>
126.049827575684

> <r_mmod_Torsional_Energy-OPLS-2005>
236.361923217773

> <r_mmod_Improper_Torsional_Energy-OPLS-2005>
8.57821369171143

> <r_mmod_Van_der_Waal_Energy-OPLS-2005>
126.943672180176

> <r_mmod_Electrostatic_Energy-OPLS-2005>
-412.840484619141

> <r_mmod_Solvation_Energy-OPLS-2005>
-226.102783203125

> <b_mmod_Minimization_Converged-OPLS-2005>
0

> <r_mmod_RMS_Derivative-OPLS-2005>
5.14878129959106

$$$$
29
                    3D
 Structure written by MMmdl.
169178  0  0  1  0            999 V2000
  -30.6426  -14.6228   20.4698 C   0  0  0  0  0  0
  -30.4334  -12.3710   19.4681 C   0  0  0  0  0  0
  -29.5146  -12.4765   18.2307 C   0  0  0  0  0  0
  -28.0327  -12.3440   18.6350 C   0  0  0  0  0  0
  -27.6551  -13.2200   19.8604 C   0  0  2  0  0  0
  -28.6958  -13.0905   20.9949 C   0  0  0  0  0  0
  -25.2568  -13.8180   20.5644 C   0  0  0  0  0  0
  -24.1831  -13.0447   20.9181 C   0  0  0  0  0  0
  -24.6404  -11.6920   20.8722 C   0  0  0  0  0  0
  -23.9081  -10.4295   21.0388 C   0  0  0  0  0  0
  -24.3631   -9.4215   21.9168 C   0  0  0  0  0  0
  -23.6317   -8.2252   22.0739 C   0  0  0  0  0  0
  -22.4306   -8.0287   21.3534 C   0  0  0  0  0  0
  -21.9924   -9.0259   20.4641 C   0  0  0  0  0  0
  -22.7244  -10.2147   20.3049 C   0  0  0  0  0  0
  -21.6858   -6.0752   22.5280 C   0  0  0  0  0  0
  -21.4006   -6.5645   23.8220 C   0  0  0  0  0  0
  -21.3652   -5.6790   24.9174 C   0  0  0  0  0  0
  -21.6052   -4.3059   24.7214 C   0  0  0  0  0  0
  -21.8812   -3.8160   23.4326 C   0  0  0  0  0  0
  -21.9185   -4.6977   22.3394 C   0  0  0  0  0  0
  -22.7842  -13.5236   21.1841 C   0  0  0  0  0  0
  -22.1652   -4.2161   21.0971 F   0  0  0  0  0  0
  -21.5643   -3.4540   25.7725 F   0  0  0  0  0  0
  -30.0157  -13.4066   20.4327 N   0  0  0  0  0  0
  -26.2997  -12.9369   20.3282 N   0  0  0  0  0  0
  -25.9339  -11.6529   20.5746 N   0  0  0  0  0  0
  -22.0478  -12.8244   22.0401 N   0  0  0  0  0  0
  -25.4325  -15.1891   20.4043 N   0  0  0  0  0  0
  -31.8168  -14.7438   20.1007 O   0  0  0  0  0  0
  -21.6644   -6.8897   21.4251 O   0  0  0  0  0  0
  -22.3530  -14.5553   20.6702 O   0  0  0  0  0  0
  -24.6220  -31.8599   23.2032 C   0  0  0  0  0  0
  -25.9080  -32.4776   23.8361 C   0  0  1  0  0  0
  -27.2408  -27.3475   20.1129 C   0  0  0  0  0  0
  -25.5911  -33.8575   24.2292 N   0  0  0  0  0  0
  -23.4164  -30.4808   21.5423 C   0  0  2  0  0  0
  -24.8668  -28.9377   20.1084 C   0  0  0  0  0  0
  -22.7466  -29.4609   22.4926 C   0  0  0  0  0  0
  -18.0278  -28.1374   22.8481 C   0  0  0  0  0  0
  -24.1480  -36.7298   23.2639 C   0  0  0  0  0  0
  -25.9528  -30.7986   21.3706 C   0  0  0  0  0  0
  -26.0288  -29.4269   20.7160 C   0  0  0  0  0  0
  -27.2116  -28.6376   20.7190 C   0  0  0  0  0  0
  -26.0488  -26.8924   19.5014 C   0  0  0  0  0  0
  -24.8766  -27.6742   19.4955 C   0  0  0  0  0  0
  -23.6313  -29.8112   20.1572 C   0  0  0  0  0  0
  -25.4105  -36.3080   24.0331 C   0  0  1  0  0  0
  -20.5880  -28.3679   23.1278 C   0  0  2  0  0  0
  -20.6758  -26.9400   22.5408 C   0  0  0  0  0  0
  -19.5743  -26.6375   21.5199 C   0  0  0  0  0  0
  -18.1923  -26.7919   22.1609 C   0  0  0  0  0  0
  -19.1537  -28.8842   23.2870 C   0  0  0  0  0  0
  -18.9462  -30.1445   23.8887 C   0  0  0  0  0  0
  -17.6466  -30.6580   24.0555 C   0  0  0  0  0  0
  -25.9044  -34.9449   23.5111 C   0  0  0  0  0  0
  -16.5355  -29.9091   23.6313 C   0  0  0  0  0  0
  -16.7269  -28.6500   23.0348 C   0  0  0  0  0  0
  -26.4491  -31.6581   25.0720 C   0  0  0  0  0  0
  -25.3748  -31.3721   26.1469 C   0  0  0  0  0  0
  -27.0323  -30.3002   24.6155 C   0  0  0  0  0  0
  -27.6055  -32.4313   25.7482 C   0  0  0  0  0  0
  -27.5579  -37.1798   24.8463 C   0  0  0  0  0  0
  -21.4184  -29.3040   22.3683 N   0  0  0  0  0  0
  -26.4288  -37.3776   23.9411 N   0  0  0  0  0  0
  -24.6814  -31.0644   22.0952 N   0  0  0  0  0  0
  -23.4209  -28.8156   23.2992 O   0  0  0  0  0  0
  -28.3794  -26.5397   20.2054 O   0  0  0  0  0  0
  -26.5620  -34.8919   22.4681 O   0  0  0  0  0  0
  -23.5385  -32.1384   23.7371 O   0  0  0  0  0  0
  -29.2653  -18.9988   18.1275 C   0  0  0  0  0  0
  -29.4980  -16.6439   18.5501 C   0  0  0  0  0  0
  -29.2523  -17.6869   17.6470 C   0  0  0  0  0  0
  -29.4966  -19.2565   19.4927 C   0  0  0  0  0  0
  -29.7282  -16.9039   19.9200 C   0  0  0  0  0  0
  -31.1556  -22.6282   20.6267 C   0  0  0  0  0  0
  -30.5133  -21.2474   20.9506 C   0  0  0  0  0  0
  -28.1033  -21.4668   20.0374 C   0  0  0  0  0  0
  -30.2639  -23.9096   20.6264 C   0  0  0  0  0  0
  -27.9539  -23.0511   20.0688 C   0  0  0  0  0  0
  -29.5003  -20.7799   19.8879 C   0  0  2  0  0  0
  -29.1084  -23.9944   19.5824 C   0  0  1  0  0  0
  -28.9615  -17.4044   16.1862 C   0  0  0  0  0  0
  -30.5683  -24.0006   17.5802 C   0  0  0  0  0  0
  -28.6561  -25.4982   19.2212 C   0  0  0  0  0  0
  -29.6800  -18.2127   20.3803 N   0  0  0  0  0  0
  -29.8767  -15.7210   20.7546 N   0  0  0  0  0  0
  -29.5165  -23.4004   18.3402 O   0  0  0  0  0  0
  -31.4800  -12.4709   19.1734 H   0  0  0  0  0  0
  -30.3499  -11.3823   19.9207 H   0  0  0  0  0  0
  -29.7755  -11.6976   17.5113 H   0  0  0  0  0  0
  -29.6779  -13.4241   17.7175 H   0  0  0  0  0  0
  -27.8533  -11.2931   18.8652 H   0  0  0  0  0  0
  -27.3872  -12.5789   17.7880 H   0  0  0  0  0  0
  -27.6733  -14.2530   19.5143 H   0  0  0  0  0  0
  -28.6938  -12.0793   21.4064 H   0  0  0  0  0  0
  -28.4463  -13.7519   21.8258 H   0  0  0  0  0  0
  -25.2792   -9.5705   22.4719 H   0  0  0  0  0  0
  -24.0041   -7.4641   22.7462 H   0  0  0  0  0  0
  -21.0852   -8.8776   19.8947 H   0  0  0  0  0  0
  -22.3704  -10.9675   19.6152 H   0  0  0  0  0  0
  -21.1999   -7.6151   23.9734 H   0  0  0  0  0  0
  -21.1481   -6.0509   25.9082 H   0  0  0  0  0  0
  -22.0603   -2.7620   23.2817 H   0  0  0  0  0  0
  -22.4103  -11.9922   22.4823 H   0  0  0  0  0  0
  -21.1085  -13.1265   22.2589 H   0  0  0  0  0  0
  -24.6740  -15.8520   20.5238 H   0  0  0  0  0  0
  -26.2894  -15.6190   20.0795 H   0  0  0  0  0  0
  -26.7146  -32.5461   23.1112 H   0  0  0  0  0  0
  -25.0026  -33.9717   25.0415 H   0  0  0  0  0  0
  -22.7077  -31.2976   21.3970 H   0  0  0  0  0  0
  -23.3743  -35.9629   23.3284 H   0  0  0  0  0  0
  -24.3572  -36.8937   22.2059 H   0  0  0  0  0  0
  -23.7238  -37.6494   23.6677 H   0  0  0  0  0  0
  -26.0810  -31.5592   20.5997 H   0  0  0  0  0  0
  -26.8336  -30.8482   21.9993 H   0  0  0  0  0  0
  -28.1022  -29.0067   21.2074 H   0  0  0  0  0  0
  -25.9819  -25.9079   19.0621 H   0  0  0  0  0  0
  -23.9788  -27.2876   19.0337 H   0  0  0  0  0  0
  -23.7481  -30.5836   19.3960 H   0  0  0  0  0  0
  -22.7534  -29.2340   19.8593 H   0  0  0  0  0  0
  -25.1278  -36.1927   25.0824 H   0  0  0  0  0  0
  -20.9965  -28.3250   24.1403 H   0  0  0  0  0  0
  -20.5626  -26.2297   23.3614 H   0  0  0  0  0  0
  -21.6631  -26.7405   22.1228 H   0  0  0  0  0  0
  -19.6902  -25.6289   21.1229 H   0  0  0  0  0  0
  -19.6681  -27.3180   20.6730 H   0  0  0  0  0  0
  -17.4193  -26.6662   21.4011 H   0  0  0  0  0  0
  -18.0324  -26.0065   22.9008 H   0  0  0  0  0  0
  -19.7944  -30.7247   24.2263 H   0  0  0  0  0  0
  -17.5029  -31.6255   24.5171 H   0  0  0  0  0  0
  -15.5360  -30.2991   23.7637 H   0  0  0  0  0  0
  -15.8668  -28.0813   22.7075 H   0  0  0  0  0  0
  -24.5908  -30.7079   25.7825 H   0  0  0  0  0  0
  -24.8963  -32.2888   26.4919 H   0  0  0  0  0  0
  -25.8097  -30.8895   27.0229 H   0  0  0  0  0  0
  -26.2882  -29.6757   24.1203 H   0  0  0  0  0  0
  -27.4045  -29.7254   25.4646 H   0  0  0  0  0  0
  -27.8741  -30.4280   23.9348 H   0  0  0  0  0  0
  -27.2674  -33.3615   26.2058 H   0  0  0  0  0  0
  -28.3874  -32.6868   25.0322 H   0  0  0  0  0  0
  -28.0720  -31.8444   26.5406 H   0  0  0  0  0  0
  -28.2592  -38.0096   24.7501 H   0  0  0  0  0  0
  -28.1072  -36.2627   24.6280 H   0  0  0  0  0  0
  -27.2301  -37.1441   25.8866 H   0  0  0  0  0  0
  -20.9366  -29.8788   21.6913 H   0  0  0  0  0  0
  -26.0161  -38.2844   24.1424 H   0  0  0  0  0  0
  -29.0875  -19.8169   17.4423 H   0  0  0  0  0  0
  -29.4830  -15.6320   18.1750 H   0  0  0  0  0  0
  -31.6742  -22.5521   19.6702 H   0  0  0  0  0  0
  -31.9535  -22.7927   21.3525 H   0  0  0  0  0  0
  -30.0739  -21.2327   21.9474 H   0  0  0  0  0  0
  -31.3269  -20.5217   20.9736 H   0  0  0  0  0  0
  -27.5066  -21.1206   19.1917 H   0  0  0  0  0  0
  -27.6045  -21.0469   20.9130 H   0  0  0  0  0  0
  -30.9259  -24.7633   20.4756 H   0  0  0  0  0  0
  -29.8577  -24.0594   21.6282 H   0  0  0  0  0  0
  -27.7002  -23.3432   21.0876 H   0  0  0  0  0  0
  -27.0586  -23.2954   19.4966 H   0  0  0  0  0  0
  -29.9169  -21.1918   18.9732 H   0  0  0  0  0  0
  -29.2779  -18.2367   15.5553 H   0  0  0  0  0  0
  -27.8930  -17.2495   16.0382 H   0  0  0  0  0  0
  -29.4825  -16.5113   15.8437 H   0  0  0  0  0  0
  -31.3729  -24.3998   18.1985 H   0  0  0  0  0  0
  -30.1919  -24.7991   16.9392 H   0  0  0  0  0  0
  -31.0048  -23.2488   16.9217 H   0  0  0  0  0  0
  -27.9167  -25.4571   18.4246 H   0  0  0  0  0  0
  -29.5046  -25.9715   18.7315 H   0  0  0  0  0  0
  -29.0634  -15.5168   21.3137 H   0  0  0  0  0  0
  1 25  1  0  0  0
  1 30  2  0  0  0
  1 87  1  0  0  0
  2  3  1  0  0  0
  2 25  1  0  0  0
  2 89  1  0  0  0
  2 90  1  0  0  0
  3  4  1  0  0  0
  3 91  1  0  0  0
  3 92  1  0  0  0
  4  5  1  0  0  0
  4 93  1  0  0  0
  4 94  1  0  0  0
  5  6  1  0  0  0
  5 26  1  0  0  0
  5 95  1  0  0  0
  6 25  1  0  0  0
  6 96  1  0  0  0
  6 97  1  0  0  0
  7  8  2  0  0  0
  7 26  1  0  0  0
  7 29  1  0  0  0
  8  9  1  0  0  0
  8 22  1  0  0  0
  9 10  1  0  0  0
  9 27  2  0  0  0
 10 11  2  0  0  0
 10 15  1  0  0  0
 11 12  1  0  0  0
 11 98  1  0  0  0
 12 13  2  0  0  0
 12 99  1  0  0  0
 13 14  1  0  0  0
 13 31  1  0  0  0
 14 15  2  0  0  0
 14100  1  0  0  0
 15101  1  0  0  0
 16 17  2  0  0  0
 16 21  1  0  0  0
 16 31  1  0  0  0
 17 18  1  0  0  0
 17102  1  0  0  0
 18 19  2  0  0  0
 18103  1  0  0  0
 19 20  1  0  0  0
 19 24  1  0  0  0
 20 21  2  0  0  0
 20104  1  0  0  0
 21 23  1  0  0  0
 22 28  1  0  0  0
 22 32  2  0  0  0
 26 27  1  0  0  0
 28105  1  0  0  0
 28106  1  0  0  0
 29107  1  0  0  0
 29108  1  0  0  0
 33 34  1  0  0  0
 33 66  1  0  0  0
 33 70  2  0  0  0
 34 36  1  0  0  0
 34 59  1  0  0  0
 34109  1  0  0  0
 35 44  2  0  0  0
 35 45  1  0  0  0
 35 68  1  0  0  0
 36 56  1  0  0  0
 36110  1  0  0  0
 37 39  1  0  0  0
 37 47  1  0  0  0
 37 66  1  0  0  0
 37111  1  0  0  0
 38 43  2  0  0  0
 38 46  1  0  0  0
 38 47  1  0  0  0
 39 64  1  0  0  0
 39 67  2  0  0  0
 40 52  1  0  0  0
 40 53  2  0  0  0
 40 58  1  0  0  0
 41112  1  0  0  0
 41113  1  0  0  0
 41114  1  0  0  0
 41 48  1  0  0  0
 42 43  1  0  0  0
 42 66  1  0  0  0
 42115  1  0  0  0
 42116  1  0  0  0
 43 44  1  0  0  0
 44117  1  0  0  0
 45 46  2  0  0  0
 45118  1  0  0  0
 46119  1  0  0  0
 47120  1  0  0  0
 47121  1  0  0  0
 48 56  1  0  0  0
 48 65  1  0  0  0
 48122  1  0  0  0
 49 50  1  0  0  0
 49 53  1  0  0  0
 49 64  1  0  0  0
 49123  1  0  0  0
 50 51  1  0  0  0
 50124  1  0  0  0
 50125  1  0  0  0
 51 52  1  0  0  0
 51126  1  0  0  0
 51127  1  0  0  0
 52128  1  0  0  0
 52129  1  0  0  0
 53 54  1  0  0  0
 54 55  2  0  0  0
 54130  1  0  0  0
 55 57  1  0  0  0
 55131  1  0  0  0
 56 69  2  0  0  0
 57 58  2  0  0  0
 57132  1  0  0  0
 58133  1  0  0  0
 59 60  1  0  0  0
 59 61  1  0  0  0
 59 62  1  0  0  0
 60134  1  0  0  0
 60135  1  0  0  0
 60136  1  0  0  0
 61137  1  0  0  0
 61138  1  0  0  0
 61139  1  0  0  0
 62140  1  0  0  0
 62141  1  0  0  0
 62142  1  0  0  0
 63 65  1  0  0  0
 63143  1  0  0  0
 63144  1  0  0  0
 63145  1  0  0  0
 64146  1  0  0  0
 65147  1  0  0  0
 68 85  1  0  0  0
 71 73  2  0  0  0
 71 74  1  0  0  0
 71148  1  0  0  0
 72 73  1  0  0  0
 72 75  2  0  0  0
 72149  1  0  0  0
 73 83  1  0  0  0
 74 86  2  0  0  0
 74 81  1  0  0  0
 75 86  1  0  0  0
 75 87  1  0  0  0
 76 77  1  0  0  0
 76 79  1  0  0  0
 76150  1  0  0  0
 76151  1  0  0  0
 77 81  1  0  0  0
 77152  1  0  0  0
 77153  1  0  0  0
 78 80  1  0  0  0
 78 81  1  0  0  0
 78154  1  0  0  0
 78155  1  0  0  0
 79 82  1  0  0  0
 79156  1  0  0  0
 79157  1  0  0  0
 80 82  1  0  0  0
 80158  1  0  0  0
 80159  1  0  0  0
 81160  1  0  0  0
 82 85  1  0  0  0
 82 88  1  0  0  0
 83161  1  0  0  0
 83162  1  0  0  0
 83163  1  0  0  0
 84 88  1  0  0  0
 84164  1  0  0  0
 84165  1  0  0  0
 84166  1  0  0  0
 85167  1  0  0  0
 85168  1  0  0  0
 87169  1  0  0  0
M  ISO  4   1 100  68 101  85 101  87 100
M  END
> <chiral flag>
0

> <version>
0

> <s_m_source_file>
/data/baiqing/PycharmProjects/Reinvent-master-3.2/result/LINK_invent/BTK/process_docking_weight1_custom_product_contain_oxygen_bond_distance_aromatic_linkinvent_7_9_3/rearranged_h_0166.sdf

> <i_m_source_file_index>
30

> <r_mmod_Potential_Energy-OPLS-2005>
44.3091926574707

> <r_mmod_Stretch_Energy-OPLS-2005>
79.5748443603516

> <r_mmod_Bend_Energy-OPLS-2005>
193.008239746094

> <r_mmod_Torsional_Energy-OPLS-2005>
299.615447998047

> <r_mmod_Improper_Torsional_Energy-OPLS-2005>
6.7357063293457

> <r_mmod_Van_der_Waal_Energy-OPLS-2005>
151.494094848633

> <r_mmod_Electrostatic_Energy-OPLS-2005>
-510.657043457031

> <r_mmod_Solvation_Energy-OPLS-2005>
-218.027450561523

> <b_mmod_Minimization_Converged-OPLS-2005>
0

> <r_mmod_RMS_Derivative-OPLS-2005>
2.89189386367798

$$$$
30
                    3D
 Structure written by MMmdl.
152160  0  0  1  0            999 V2000
  -30.7051  -14.5277   20.5356 C   0  0  0  0  0  0
  -30.4128  -12.3333   19.4374 C   0  0  0  0  0  0
  -29.4915  -12.4927   18.2114 C   0  0  0  0  0  0
  -28.0142  -12.3535   18.6252 C   0  0  0  0  0  0
  -27.6521  -13.2176   19.8639 C   0  0  2  0  0  0
  -28.6958  -13.0581   20.9912 C   0  0  0  0  0  0
  -25.2542  -13.8170   20.5660 C   0  0  0  0  0  0
  -24.1820  -13.0435   20.9199 C   0  0  0  0  0  0
  -24.6398  -11.6910   20.8757 C   0  0  0  0  0  0
  -23.9074  -10.4288   21.0412 C   0  0  0  0  0  0
  -24.3626   -9.4197   21.9186 C   0  0  0  0  0  0
  -23.6296   -8.2235   22.0758 C   0  0  0  0  0  0
  -22.4278   -8.0278   21.3549 C   0  0  0  0  0  0
  -21.9913   -9.0253   20.4654 C   0  0  0  0  0  0
  -22.7246  -10.2129   20.3061 C   0  0  0  0  0  0
  -21.6852   -6.0739   22.5280 C   0  0  0  0  0  0
  -21.4010   -6.5645   23.8212 C   0  0  0  0  0  0
  -21.3654   -5.6797   24.9176 C   0  0  0  0  0  0
  -21.6043   -4.3059   24.7225 C   0  0  0  0  0  0
  -21.8819   -3.8149   23.4347 C   0  0  0  0  0  0
  -21.9190   -4.6967   22.3402 C   0  0  0  0  0  0
  -22.7838  -13.5219   21.1854 C   0  0  0  0  0  0
  -22.1658   -4.2149   21.0979 F   0  0  0  0  0  0
  -21.5628   -3.4544   25.7736 F   0  0  0  0  0  0
  -30.0170  -13.3563   20.4224 N   0  0  0  0  0  0
  -26.2984  -12.9363   20.3337 N   0  0  0  0  0  0
  -25.9327  -11.6518   20.5788 N   0  0  0  0  0  0
  -22.0490  -12.8214   22.0412 N   0  0  0  0  0  0
  -25.4238  -15.1871   20.3982 N   0  0  0  0  0  0
  -31.8610  -14.6403   20.1201 O   0  0  0  0  0  0
  -21.6638   -6.8880   21.4238 O   0  0  0  0  0  0
  -22.3525  -14.5523   20.6701 O   0  0  0  0  0  0
  -24.6185  -31.8661   23.2080 C   0  0  0  0  0  0
  -25.9068  -32.4810   23.8381 C   0  0  1  0  0  0
  -27.2218  -27.3938   20.1115 C   0  0  0  0  0  0
  -25.5925  -33.8607   24.2317 N   0  0  0  0  0  0
  -23.4072  -30.4904   21.5491 C   0  0  2  0  0  0
  -24.8525  -28.9540   20.1120 C   0  0  0  0  0  0
  -22.7431  -29.4651   22.4973 C   0  0  0  0  0  0
  -18.0278  -28.1385   22.8503 C   0  0  0  0  0  0
  -24.1486  -36.7291   23.2632 C   0  0  0  0  0  0
  -25.9401  -30.8214   21.3653 C   0  0  0  0  0  0
  -26.0165  -29.4532   20.7117 C   0  0  0  0  0  0
  -27.2071  -28.6828   20.7041 C   0  0  0  0  0  0
  -26.0440  -26.9280   19.4877 C   0  0  0  0  0  0
  -24.8640  -27.6933   19.4927 C   0  0  0  0  0  0
  -23.6166  -29.8247   20.1629 C   0  0  0  0  0  0
  -25.4103  -36.3093   24.0344 C   0  0  1  0  0  0
  -20.5873  -28.3670   23.1319 C   0  0  2  0  0  0
  -20.6766  -26.9403   22.5417 C   0  0  0  0  0  0
  -19.5739  -26.6390   21.5221 C   0  0  0  0  0  0
  -18.1924  -26.7929   22.1636 C   0  0  0  0  0  0
  -19.1528  -28.8844   23.2904 C   0  0  0  0  0  0
  -18.9454  -30.1451   23.8904 C   0  0  0  0  0  0
  -17.6456  -30.6589   24.0566 C   0  0  0  0  0  0
  -25.9049  -34.9471   23.5123 C   0  0  0  0  0  0
  -16.5346  -29.9087   23.6331 C   0  0  0  0  0  0
  -16.7267  -28.6507   23.0350 C   0  0  0  0  0  0
  -26.4485  -31.6594   25.0715 C   0  0  0  0  0  0
  -25.3756  -31.3730   26.1477 C   0  0  0  0  0  0
  -27.0284  -30.3024   24.6098 C   0  0  0  0  0  0
  -27.6075  -32.4297   25.7466 C   0  0  0  0  0  0
  -27.5593  -37.1771   24.8443 C   0  0  0  0  0  0
  -21.4155  -29.3032   22.3718 N   0  0  0  0  0  0
  -26.4266  -37.3800   23.9449 N   0  0  0  0  0  0
  -24.6737  -31.0744   22.0991 N   0  0  0  0  0  0
  -23.4198  -28.8195   23.3017 O   0  0  0  0  0  0
  -28.3541  -26.5971   20.1283 O   0  0  0  0  0  0
  -26.5595  -34.8932   22.4675 O   0  0  0  0  0  0
  -23.5368  -32.1418   23.7464 O   0  0  0  0  0  0
  -30.4384  -19.4545   20.4137 C   0  0  0  0  0  0
  -29.8751  -18.2457   20.9435 C   0  0  0  0  0  0
  -28.5712  -18.5862   21.2322 C   0  0  0  0  0  0
  -29.4745  -20.4245   20.4561 C   0  0  0  0  0  0
  -28.9120  -22.7125   20.4038 C   0  0  0  0  0  0
  -29.0579  -24.1806   19.9631 C   0  0  0  0  0  0
  -27.4190  -17.8396   21.8165 C   0  0  0  0  0  0
  -30.6662  -16.9451   21.1835 C   0  0  0  0  0  0
  -28.1508  -25.2436   20.6371 C   0  0  0  0  0  0
  -29.6553  -21.7312   20.0248 N   0  0  0  0  0  0
  -30.0322  -15.6173   20.9838 N   0  0  0  0  0  0
  -29.8788  -24.5262   19.1008 O   0  0  0  0  0  0
  -28.3156  -19.9103   20.9446 O   0  0  0  0  0  0
  -31.4587  -12.4168   19.1372 H   0  0  0  0  0  0
  -30.3069  -11.3367   19.8695 H   0  0  0  0  0  0
  -29.7377  -11.7464   17.4547 H   0  0  0  0  0  0
  -29.6555  -13.4663   17.7469 H   0  0  0  0  0  0
  -27.8325  -11.3004   18.8426 H   0  0  0  0  0  0
  -27.3612  -12.6037   17.7880 H   0  0  0  0  0  0
  -27.6789  -14.2564   19.5349 H   0  0  0  0  0  0
  -28.6845  -12.0402   21.3833 H   0  0  0  0  0  0
  -28.4586  -13.7063   21.8356 H   0  0  0  0  0  0
  -25.2773   -9.5665   22.4757 H   0  0  0  0  0  0
  -24.0002   -7.4623   22.7476 H   0  0  0  0  0  0
  -21.0845   -8.8778   19.8962 H   0  0  0  0  0  0
  -22.3709  -10.9671   19.6168 H   0  0  0  0  0  0
  -21.2001   -7.6155   23.9714 H   0  0  0  0  0  0
  -21.1474   -6.0531   25.9080 H   0  0  0  0  0  0
  -22.0598   -2.7613   23.2845 H   0  0  0  0  0  0
  -22.4113  -11.9864   22.4774 H   0  0  0  0  0  0
  -21.1109  -13.1245   22.2639 H   0  0  0  0  0  0
  -24.6486  -15.8356   20.4792 H   0  0  0  0  0  0
  -26.2581  -15.6116   20.0149 H   0  0  0  0  0  0
  -26.7136  -32.5508   23.1141 H   0  0  0  0  0  0
  -25.0114  -33.9764   25.0487 H   0  0  0  0  0  0
  -22.6982  -31.3090   21.4108 H   0  0  0  0  0  0
  -23.3773  -35.9592   23.3243 H   0  0  0  0  0  0
  -24.3603  -36.8950   22.2056 H   0  0  0  0  0  0
  -23.7200  -37.6473   23.6663 H   0  0  0  0  0  0
  -26.0572  -31.5877   20.5973 H   0  0  0  0  0  0
  -26.8265  -30.8740   21.9856 H   0  0  0  0  0  0
  -28.1029  -29.0612   21.1763 H   0  0  0  0  0  0
  -26.0292  -25.9675   18.9930 H   0  0  0  0  0  0
  -23.9727  -27.3088   19.0159 H   0  0  0  0  0  0
  -23.7262  -30.5997   19.4032 H   0  0  0  0  0  0
  -22.7395  -29.2463   19.8670 H   0  0  0  0  0  0
  -25.1270  -36.1934   25.0833 H   0  0  0  0  0  0
  -20.9974  -28.3223   24.1437 H   0  0  0  0  0  0
  -20.5687  -26.2270   23.3606 H   0  0  0  0  0  0
  -21.6632  -26.7457   22.1197 H   0  0  0  0  0  0
  -19.6900  -25.6306   21.1235 H   0  0  0  0  0  0
  -19.6682  -27.3210   20.6760 H   0  0  0  0  0  0
  -17.4201  -26.6694   21.4029 H   0  0  0  0  0  0
  -18.0314  -26.0066   22.9030 H   0  0  0  0  0  0
  -19.7929  -30.7266   24.2273 H   0  0  0  0  0  0
  -17.5013  -31.6271   24.5161 H   0  0  0  0  0  0
  -15.5345  -30.2989   23.7656 H   0  0  0  0  0  0
  -15.8670  -28.0832   22.7049 H   0  0  0  0  0  0
  -24.5867  -30.7155   25.7815 H   0  0  0  0  0  0
  -24.9029  -32.2907   26.4984 H   0  0  0  0  0  0
  -25.8103  -30.8833   27.0199 H   0  0  0  0  0  0
  -26.2809  -29.6802   24.1164 H   0  0  0  0  0  0
  -27.4052  -29.7252   25.4553 H   0  0  0  0  0  0
  -27.8661  -30.4327   23.9240 H   0  0  0  0  0  0
  -27.2728  -33.3616   26.2032 H   0  0  0  0  0  0
  -28.3889  -32.6817   25.0284 H   0  0  0  0  0  0
  -28.0729  -31.8414   26.5385 H   0  0  0  0  0  0
  -28.2525  -38.0154   24.7629 H   0  0  0  0  0  0
  -28.1172  -36.2698   24.6072 H   0  0  0  0  0  0
  -27.2345  -37.1180   25.8846 H   0  0  0  0  0  0
  -20.9309  -29.8765   21.6955 H   0  0  0  0  0  0
  -26.0145  -38.2853   24.1543 H   0  0  0  0  0  0
  -31.4531  -19.6014   20.0691 H   0  0  0  0  0  0
  -28.0999  -22.5236   21.1122 H   0  0  0  0  0  0
  -27.7095  -16.8411   22.1408 H   0  0  0  0  0  0
  -26.6172  -17.7364   21.0852 H   0  0  0  0  0  0
  -27.0153  -18.3646   22.6825 H   0  0  0  0  0  0
  -31.0309  -16.9761   22.2108 H   0  0  0  0  0  0
  -31.5597  -17.0294   20.5621 H   0  0  0  0  0  0
  -28.3729  -25.2508   21.7048 H   0  0  0  0  0  0
  -27.1171  -24.9122   20.5450 H   0  0  0  0  0  0
  -29.0727  -15.4962   21.2662 H   0  0  0  0  0  0
  1 25  1  0  0  0
  1 30  2  0  0  0
  1 81  1  0  0  0
  2  3  1  0  0  0
  2 25  1  0  0  0
  2 84  1  0  0  0
  2 85  1  0  0  0
  3  4  1  0  0  0
  3 86  1  0  0  0
  3 87  1  0  0  0
  4  5  1  0  0  0
  4 88  1  0  0  0
  4 89  1  0  0  0
  5  6  1  0  0  0
  5 26  1  0  0  0
  5 90  1  0  0  0
  6 25  1  0  0  0
  6 91  1  0  0  0
  6 92  1  0  0  0
  7  8  2  0  0  0
  7 26  1  0  0  0
  7 29  1  0  0  0
  8  9  1  0  0  0
  8 22  1  0  0  0
  9 10  1  0  0  0
  9 27  2  0  0  0
 10 11  2  0  0  0
 10 15  1  0  0  0
 11 12  1  0  0  0
 11 93  1  0  0  0
 12 13  2  0  0  0
 12 94  1  0  0  0
 13 14  1  0  0  0
 13 31  1  0  0  0
 14 15  2  0  0  0
 14 95  1  0  0  0
 15 96  1  0  0  0
 16 17  2  0  0  0
 16 21  1  0  0  0
 16 31  1  0  0  0
 17 18  1  0  0  0
 17 97  1  0  0  0
 18 19  2  0  0  0
 18 98  1  0  0  0
 19 20  1  0  0  0
 19 24  1  0  0  0
 20 21  2  0  0  0
 20 99  1  0  0  0
 21 23  1  0  0  0
 22 28  1  0  0  0
 22 32  2  0  0  0
 26 27  1  0  0  0
 28100  1  0  0  0
 28101  1  0  0  0
 29102  1  0  0  0
 29103  1  0  0  0
 33 34  1  0  0  0
 33 66  1  0  0  0
 33 70  2  0  0  0
 34 36  1  0  0  0
 34 59  1  0  0  0
 34104  1  0  0  0
 35 44  2  0  0  0
 35 45  1  0  0  0
 35 68  1  0  0  0
 36 56  1  0  0  0
 36105  1  0  0  0
 37 39  1  0  0  0
 37 47  1  0  0  0
 37 66  1  0  0  0
 37106  1  0  0  0
 38 43  2  0  0  0
 38 46  1  0  0  0
 38 47  1  0  0  0
 39 64  1  0  0  0
 39 67  2  0  0  0
 40 52  1  0  0  0
 40 53  2  0  0  0
 40 58  1  0  0  0
 41107  1  0  0  0
 41108  1  0  0  0
 41109  1  0  0  0
 41 48  1  0  0  0
 42 43  1  0  0  0
 42 66  1  0  0  0
 42110  1  0  0  0
 42111  1  0  0  0
 43 44  1  0  0  0
 44112  1  0  0  0
 45 46  2  0  0  0
 45113  1  0  0  0
 46114  1  0  0  0
 47115  1  0  0  0
 47116  1  0  0  0
 48 56  1  0  0  0
 48 65  1  0  0  0
 48117  1  0  0  0
 49 50  1  0  0  0
 49 53  1  0  0  0
 49 64  1  0  0  0
 49118  1  0  0  0
 50 51  1  0  0  0
 50119  1  0  0  0
 50120  1  0  0  0
 51 52  1  0  0  0
 51121  1  0  0  0
 51122  1  0  0  0
 52123  1  0  0  0
 52124  1  0  0  0
 53 54  1  0  0  0
 54 55  2  0  0  0
 54125  1  0  0  0
 55 57  1  0  0  0
 55126  1  0  0  0
 56 69  2  0  0  0
 57 58  2  0  0  0
 57127  1  0  0  0
 58128  1  0  0  0
 59 60  1  0  0  0
 59 61  1  0  0  0
 59 62  1  0  0  0
 60129  1  0  0  0
 60130  1  0  0  0
 60131  1  0  0  0
 61132  1  0  0  0
 61133  1  0  0  0
 61134  1  0  0  0
 62135  1  0  0  0
 62136  1  0  0  0
 62137  1  0  0  0
 63 65  1  0  0  0
 63138  1  0  0  0
 63139  1  0  0  0
 63140  1  0  0  0
 64141  1  0  0  0
 65142  1  0  0  0
 68 79  1  0  0  0
 71 72  1  0  0  0
 71 74  2  0  0  0
 71143  1  0  0  0
 72 73  2  0  0  0
 72 78  1  0  0  0
 73 77  1  0  0  0
 73 83  1  0  0  0
 74 80  1  0  0  0
 74 83  1  0  0  0
 75 76  1  0  0  0
 75 80  2  0  0  0
 75144  1  0  0  0
 76 79  1  0  0  0
 76 82  2  0  0  0
 77145  1  0  0  0
 77146  1  0  0  0
 77147  1  0  0  0
 78 81  1  0  0  0
 78148  1  0  0  0
 78149  1  0  0  0
 79150  1  0  0  0
 79151  1  0  0  0
 81152  1  0  0  0
M  ISO  4   1 100  68 101  79 101  81 100
M  END
> <chiral flag>
0

> <version>
0

> <s_m_source_file>
/data/baiqing/PycharmProjects/Reinvent-master-3.2/result/LINK_invent/BTK/process_docking_weight1_custom_product_contain_oxygen_bond_distance_aromatic_linkinvent_7_9_3/rearranged_h_0166.sdf

> <i_m_source_file_index>
31

> <r_mmod_Potential_Energy-OPLS-2005>
-106.327857971191

> <r_mmod_Stretch_Energy-OPLS-2005>
46.416919708252

> <r_mmod_Bend_Energy-OPLS-2005>
115.176704406738

> <r_mmod_Torsional_Energy-OPLS-2005>
213.492767333984

> <r_mmod_Improper_Torsional_Energy-OPLS-2005>
3.76399612426758

> <r_mmod_Van_der_Waal_Energy-OPLS-2005>
124.956649780273

> <r_mmod_Electrostatic_Energy-OPLS-2005>
-388.156463623047

> <r_mmod_Solvation_Energy-OPLS-2005>
-245.465621948242

> <b_mmod_Minimization_Converged-OPLS-2005>
0

> <r_mmod_RMS_Derivative-OPLS-2005>
1.16974079608917

$$$$
31
                    3D
 Structure written by MMmdl.
162170  0  0  1  0            999 V2000
  -30.6443  -14.7295   20.4438 C   0  0  0  0  0  0
  -30.4221  -12.4413   19.4676 C   0  0  0  0  0  0
  -29.5015  -12.5068   18.2305 C   0  0  0  0  0  0
  -28.0286  -12.3415   18.6483 C   0  0  0  0  0  0
  -27.6381  -13.2422   19.8523 C   0  0  2  0  0  0
  -28.6908  -13.1843   20.9826 C   0  0  0  0  0  0
  -25.2387  -13.8121   20.5669 C   0  0  0  0  0  0
  -24.1726  -13.0338   20.9150 C   0  0  0  0  0  0
  -24.6400  -11.6856   20.8732 C   0  0  0  0  0  0
  -23.9091  -10.4238   21.0396 C   0  0  0  0  0  0
  -24.3629   -9.4165   21.9187 C   0  0  0  0  0  0
  -23.6296   -8.2213   22.0766 C   0  0  0  0  0  0
  -22.4280   -8.0262   21.3550 C   0  0  0  0  0  0
  -21.9916   -9.0227   20.4644 C   0  0  0  0  0  0
  -22.7257  -10.2095   20.3048 C   0  0  0  0  0  0
  -21.6840   -6.0730   22.5280 C   0  0  0  0  0  0
  -21.4012   -6.5633   23.8212 C   0  0  0  0  0  0
  -21.3659   -5.6790   24.9176 C   0  0  0  0  0  0
  -21.6047   -4.3054   24.7226 C   0  0  0  0  0  0
  -21.8816   -3.8148   23.4344 C   0  0  0  0  0  0
  -21.9185   -4.6963   22.3401 C   0  0  0  0  0  0
  -22.7756  -13.5121   21.1833 C   0  0  0  0  0  0
  -22.1658   -4.2149   21.0981 F   0  0  0  0  0  0
  -21.5621   -3.4543   25.7742 F   0  0  0  0  0  0
  -29.9927  -13.5180   20.3900 N   0  0  0  0  0  0
  -26.2928  -12.9432   20.3352 N   0  0  0  0  0  0
  -25.9358  -11.6551   20.5802 N   0  0  0  0  0  0
  -22.0428  -12.8134   22.0423 N   0  0  0  0  0  0
  -25.3756  -15.1841   20.4157 N   0  0  0  0  0  0
  -31.8358  -14.7823   20.1316 O   0  0  0  0  0  0
  -21.6627   -6.8873   21.4246 O   0  0  0  0  0  0
  -22.3437  -14.5442   20.6711 O   0  0  0  0  0  0
  -24.6302  -31.8553   23.1933 C   0  0  0  0  0  0
  -25.9133  -32.4760   23.8291 C   0  0  1  0  0  0
  -27.2364  -27.2753   20.1047 C   0  0  0  0  0  0
  -25.5927  -33.8563   24.2220 N   0  0  0  0  0  0
  -23.4253  -30.4732   21.5380 C   0  0  2  0  0  0
  -24.8710  -28.9103   20.1097 C   0  0  0  0  0  0
  -22.7487  -29.4615   22.4931 C   0  0  0  0  0  0
  -18.0288  -28.1392   22.8509 C   0  0  0  0  0  0
  -24.1491  -36.7294   23.2636 C   0  0  0  0  0  0
  -25.9684  -30.7675   21.3697 C   0  0  0  0  0  0
  -26.0403  -29.3902   20.7102 C   0  0  0  0  0  0
  -27.2184  -28.5832   20.6950 C   0  0  0  0  0  0
  -26.0323  -26.8390   19.5136 C   0  0  0  0  0  0
  -24.8707  -27.6413   19.5052 C   0  0  0  0  0  0
  -23.6400  -29.7949   20.1583 C   0  0  0  0  0  0
  -25.4123  -36.3074   24.0317 C   0  0  1  0  0  0
  -20.5885  -28.3716   23.1282 C   0  0  2  0  0  0
  -20.6776  -26.9436   22.5409 C   0  0  0  0  0  0
  -19.5740  -26.6384   21.5225 C   0  0  0  0  0  0
  -18.1919  -26.7946   22.1627 C   0  0  0  0  0  0
  -19.1544  -28.8872   23.2882 C   0  0  0  0  0  0
  -18.9467  -30.1480   23.8892 C   0  0  0  0  0  0
  -17.6465  -30.6605   24.0566 C   0  0  0  0  0  0
  -25.9060  -34.9450   23.5069 C   0  0  0  0  0  0
  -16.5361  -29.9095   23.6343 C   0  0  0  0  0  0
  -16.7278  -28.6505   23.0387 C   0  0  0  0  0  0
  -26.4485  -31.6616   25.0704 C   0  0  0  0  0  0
  -25.3693  -31.3802   26.1434 C   0  0  0  0  0  0
  -27.0344  -30.3025   24.6220 C   0  0  0  0  0  0
  -27.6019  -32.4386   25.7477 C   0  0  0  0  0  0
  -27.5607  -37.1782   24.8442 C   0  0  0  0  0  0
  -21.4197  -29.3066   22.3679 N   0  0  0  0  0  0
  -26.4291  -37.3786   23.9428 N   0  0  0  0  0  0
  -24.6939  -31.0511   22.0906 N   0  0  0  0  0  0
  -23.4191  -28.8168   23.3037 O   0  0  0  0  0  0
  -28.3901  -26.4666   20.1970 O   0  0  0  0  0  0
  -26.5637  -34.8924   22.4639 O   0  0  0  0  0  0
  -23.5459  -32.1382   23.7243 O   0  0  0  0  0  0
  -31.6061  -17.7044   20.7895 C   0  0  0  0  0  0
  -31.1307  -20.0996   20.5887 C   0  0  0  0  0  0
  -29.3156  -18.4727   20.3908 C   0  0  0  0  0  0
  -30.2528  -17.3476   20.5819 C   0  0  0  0  0  0
  -29.7445  -19.8869   20.4094 C   0  0  0  0  0  0
  -32.0345  -19.0414   20.7828 C   0  0  0  0  0  0
  -27.8713  -18.1160   20.2160 C   0  0  0  0  0  0
  -28.4338  -23.7792   20.1966 C   0  0  0  0  0  0
  -26.9915  -18.9785   19.3178 C   0  0  0  0  0  0
  -28.2830  -25.1698   18.0125 C   0  0  0  0  0  0
  -30.2862  -25.3784   19.4679 C   0  0  0  0  0  0
  -29.3586  -22.4864   19.9349 C   0  0  0  0  0  0
  -28.7556  -25.1915   19.4824 C   0  0  0  0  0  0
  -29.8924  -15.8884   20.6128 N   0  0  0  0  0  0
  -28.9049  -21.0803   20.3160 N   0  0  0  0  0  0
  -27.3683  -17.1094   20.7195 O   0  0  0  0  0  0
  -27.4464  -23.6680   20.9285 O   0  0  0  0  0  0
  -33.3455  -19.3163   20.9857 F   0  0  0  0  0  0
  -31.4666  -12.5380   19.1655 H   0  0  0  0  0  0
  -30.3407  -11.4679   19.9544 H   0  0  0  0  0  0
  -29.7745  -11.7338   17.5110 H   0  0  0  0  0  0
  -29.6361  -13.4620   17.7196 H   0  0  0  0  0  0
  -27.8809  -11.2925   18.9075 H   0  0  0  0  0  0
  -27.3700  -12.5389   17.8012 H   0  0  0  0  0  0
  -27.6226  -14.2644   19.4733 H   0  0  0  0  0  0
  -28.7203  -12.1921   21.4344 H   0  0  0  0  0  0
  -28.4390  -13.8807   21.7843 H   0  0  0  0  0  0
  -25.2768   -9.5635   22.4769 H   0  0  0  0  0  0
  -23.9979   -7.4610   22.7504 H   0  0  0  0  0  0
  -21.0834   -8.8747   19.8969 H   0  0  0  0  0  0
  -22.3712  -10.9632   19.6154 H   0  0  0  0  0  0
  -21.2012   -7.6138   23.9709 H   0  0  0  0  0  0
  -21.1483   -6.0529   25.9073 H   0  0  0  0  0  0
  -22.0594   -2.7612   23.2847 H   0  0  0  0  0  0
  -22.4041  -11.9786   22.4786 H   0  0  0  0  0  0
  -21.1070  -13.1199   22.2669 H   0  0  0  0  0  0
  -24.5929  -15.8004   20.6018 H   0  0  0  0  0  0
  -26.2569  -15.6941   20.3676 H   0  0  0  0  0  0
  -26.7198  -32.5393   23.1025 H   0  0  0  0  0  0
  -25.0108  -33.9703   25.0389 H   0  0  0  0  0  0
  -22.7216  -31.2944   21.3868 H   0  0  0  0  0  0
  -23.3786  -35.9586   23.3207 H   0  0  0  0  0  0
  -24.3601  -36.9033   22.2073 H   0  0  0  0  0  0
  -23.7193  -37.6433   23.6741 H   0  0  0  0  0  0
  -26.1052  -31.5259   20.5978 H   0  0  0  0  0  0
  -26.8460  -30.8171   22.0027 H   0  0  0  0  0  0
  -28.1202  -28.9481   21.1662 H   0  0  0  0  0  0
  -25.9495  -25.8472   19.1024 H   0  0  0  0  0  0
  -23.9678  -27.2555   19.0539 H   0  0  0  0  0  0
  -23.7578  -30.5633   19.3938 H   0  0  0  0  0  0
  -22.7588  -29.2227   19.8621 H   0  0  0  0  0  0
  -25.1295  -36.1897   25.0801 H   0  0  0  0  0  0
  -20.9987  -28.3300   24.1398 H   0  0  0  0  0  0
  -20.5702  -26.2333   23.3619 H   0  0  0  0  0  0
  -21.6649  -26.7459   22.1209 H   0  0  0  0  0  0
  -19.6899  -25.6283   21.1285 H   0  0  0  0  0  0
  -19.6669  -27.3171   20.6736 H   0  0  0  0  0  0
  -17.4199  -26.6760   21.4000 H   0  0  0  0  0  0
  -18.0267  -26.0053   22.8973 H   0  0  0  0  0  0
  -19.7935  -30.7315   24.2254 H   0  0  0  0  0  0
  -17.5010  -31.6292   24.5151 H   0  0  0  0  0  0
  -15.5364  -30.3003   23.7654 H   0  0  0  0  0  0
  -15.8681  -28.0814   22.7121 H   0  0  0  0  0  0
  -24.5841  -30.7181   25.7772 H   0  0  0  0  0  0
  -24.8916  -32.2998   26.4837 H   0  0  0  0  0  0
  -25.8000  -30.8993   27.0229 H   0  0  0  0  0  0
  -26.2948  -29.6764   24.1227 H   0  0  0  0  0  0
  -27.3994  -29.7308   25.4760 H   0  0  0  0  0  0
  -27.8819  -30.4289   23.9482 H   0  0  0  0  0  0
  -27.2623  -33.3734   26.1957 H   0  0  0  0  0  0
  -28.3878  -32.6906   25.0338 H   0  0  0  0  0  0
  -28.0628  -31.8584   26.5480 H   0  0  0  0  0  0
  -28.2536  -38.0166   24.7633 H   0  0  0  0  0  0
  -28.1202  -36.2715   24.6089 H   0  0  0  0  0  0
  -27.2351  -37.1209   25.8842 H   0  0  0  0  0  0
  -20.9392  -29.8808   21.6893 H   0  0  0  0  0  0
  -26.0158  -38.2841   24.1494 H   0  0  0  0  0  0
  -32.3621  -16.9577   20.9756 H   0  0  0  0  0  0
  -31.5464  -21.0938   20.6215 H   0  0  0  0  0  0
  -27.5871  -19.5031   18.5716 H   0  0  0  0  0  0
  -26.4426  -19.7046   19.9154 H   0  0  0  0  0  0
  -26.2673  -18.3553   18.7933 H   0  0  0  0  0  0
  -28.9268  -24.5344   17.4037 H   0  0  0  0  0  0
  -28.3040  -26.1655   17.5693 H   0  0  0  0  0  0
  -27.2790  -24.7657   17.8975 H   0  0  0  0  0  0
  -30.8033  -24.5796   18.9364 H   0  0  0  0  0  0
  -30.6893  -25.4179   20.4803 H   0  0  0  0  0  0
  -30.5601  -26.3112   18.9742 H   0  0  0  0  0  0
  -30.2908  -22.7058   20.4527 H   0  0  0  0  0  0
  -29.6066  -22.4794   18.8722 H   0  0  0  0  0  0
  -28.9032  -15.7111   20.7303 H   0  0  0  0  0  0
  -27.8958  -20.9646   20.2945 H   0  0  0  0  0  0
  1 25  1  0  0  0
  1 30  2  0  0  0
  1 84  1  0  0  0
  2  3  1  0  0  0
  2 25  1  0  0  0
  2 89  1  0  0  0
  2 90  1  0  0  0
  3  4  1  0  0  0
  3 91  1  0  0  0
  3 92  1  0  0  0
  4  5  1  0  0  0
  4 93  1  0  0  0
  4 94  1  0  0  0
  5  6  1  0  0  0
  5 26  1  0  0  0
  5 95  1  0  0  0
  6 25  1  0  0  0
  6 96  1  0  0  0
  6 97  1  0  0  0
  7  8  2  0  0  0
  7 26  1  0  0  0
  7 29  1  0  0  0
  8  9  1  0  0  0
  8 22  1  0  0  0
  9 10  1  0  0  0
  9 27  2  0  0  0
 10 11  2  0  0  0
 10 15  1  0  0  0
 11 12  1  0  0  0
 11 98  1  0  0  0
 12 13  2  0  0  0
 12 99  1  0  0  0
 13 14  1  0  0  0
 13 31  1  0  0  0
 14 15  2  0  0  0
 14100  1  0  0  0
 15101  1  0  0  0
 16 17  2  0  0  0
 16 21  1  0  0  0
 16 31  1  0  0  0
 17 18  1  0  0  0
 17102  1  0  0  0
 18 19  2  0  0  0
 18103  1  0  0  0
 19 20  1  0  0  0
 19 24  1  0  0  0
 20 21  2  0  0  0
 20104  1  0  0  0
 21 23  1  0  0  0
 22 28  1  0  0  0
 22 32  2  0  0  0
 26 27  1  0  0  0
 28105  1  0  0  0
 28106  1  0  0  0
 29107  1  0  0  0
 29108  1  0  0  0
 33 34  1  0  0  0
 33 66  1  0  0  0
 33 70  2  0  0  0
 34 36  1  0  0  0
 34 59  1  0  0  0
 34109  1  0  0  0
 35 44  2  0  0  0
 35 45  1  0  0  0
 35 68  1  0  0  0
 36 56  1  0  0  0
 36110  1  0  0  0
 37 39  1  0  0  0
 37 47  1  0  0  0
 37 66  1  0  0  0
 37111  1  0  0  0
 38 43  2  0  0  0
 38 46  1  0  0  0
 38 47  1  0  0  0
 39 64  1  0  0  0
 39 67  2  0  0  0
 40 52  1  0  0  0
 40 53  2  0  0  0
 40 58  1  0  0  0
 41112  1  0  0  0
 41113  1  0  0  0
 41114  1  0  0  0
 41 48  1  0  0  0
 42 43  1  0  0  0
 42 66  1  0  0  0
 42115  1  0  0  0
 42116  1  0  0  0
 43 44  1  0  0  0
 44117  1  0  0  0
 45 46  2  0  0  0
 45118  1  0  0  0
 46119  1  0  0  0
 47120  1  0  0  0
 47121  1  0  0  0
 48 56  1  0  0  0
 48 65  1  0  0  0
 48122  1  0  0  0
 49 50  1  0  0  0
 49 53  1  0  0  0
 49 64  1  0  0  0
 49123  1  0  0  0
 50 51  1  0  0  0
 50124  1  0  0  0
 50125  1  0  0  0
 51 52  1  0  0  0
 51126  1  0  0  0
 51127  1  0  0  0
 52128  1  0  0  0
 52129  1  0  0  0
 53 54  1  0  0  0
 54 55  2  0  0  0
 54130  1  0  0  0
 55 57  1  0  0  0
 55131  1  0  0  0
 56 69  2  0  0  0
 57 58  2  0  0  0
 57132  1  0  0  0
 58133  1  0  0  0
 59 60  1  0  0  0
 59 61  1  0  0  0
 59 62  1  0  0  0
 60134  1  0  0  0
 60135  1  0  0  0
 60136  1  0  0  0
 61137  1  0  0  0
 61138  1  0  0  0
 61139  1  0  0  0
 62140  1  0  0  0
 62141  1  0  0  0
 62142  1  0  0  0
 63 65  1  0  0  0
 63143  1  0  0  0
 63144  1  0  0  0
 63145  1  0  0  0
 64146  1  0  0  0
 65147  1  0  0  0
 68 83  1  0  0  0
 71 74  2  0  0  0
 71 76  1  0  0  0
 71148  1  0  0  0
 72 75  1  0  0  0
 72 76  2  0  0  0
 72149  1  0  0  0
 73 74  1  0  0  0
 73 75  2  0  0  0
 73 77  1  0  0  0
 74 84  1  0  0  0
 75 85  1  0  0  0
 76 88  1  0  0  0
 77 79  1  0  0  0
 77 86  2  0  0  0
 78 82  1  0  0  0
 78 83  1  0  0  0
 78 87  2  0  0  0
 79150  1  0  0  0
 79151  1  0  0  0
 79152  1  0  0  0
 80153  1  0  0  0
 80154  1  0  0  0
 80155  1  0  0  0
 80 83  1  0  0  0
 81 83  1  0  0  0
 81156  1  0  0  0
 81157  1  0  0  0
 81158  1  0  0  0
 82 85  1  0  0  0
 82159  1  0  0  0
 82160  1  0  0  0
 84161  1  0  0  0
 85162  1  0  0  0
M  ISO  4   1 100  68 101  83 101  84 100
M  END
> <chiral flag>
0

> <version>
0

> <s_m_source_file>
/data/baiqing/PycharmProjects/Reinvent-master-3.2/result/LINK_invent/BTK/process_docking_weight1_custom_product_contain_oxygen_bond_distance_aromatic_linkinvent_7_9_3/rearranged_h_0166.sdf

> <i_m_source_file_index>
32

> <r_mmod_Potential_Energy-OPLS-2005>
422.068817138672

> <r_mmod_Stretch_Energy-OPLS-2005>
142.98420715332

> <r_mmod_Bend_Energy-OPLS-2005>
214.932052612305

> <r_mmod_Torsional_Energy-OPLS-2005>
244.885772705078

> <r_mmod_Improper_Torsional_Energy-OPLS-2005>
7.16472101211548

> <r_mmod_Van_der_Waal_Energy-OPLS-2005>
153.190307617188

> <r_mmod_Electrostatic_Energy-OPLS-2005>
-197.987091064453

> <r_mmod_Solvation_Energy-OPLS-2005>
-218.907165527344

> <b_mmod_Minimization_Converged-OPLS-2005>
0

> <r_mmod_RMS_Derivative-OPLS-2005>
1.9459148645401

$$$$
32
                    3D
 Structure written by MMmdl.
158166  0  0  1  0            999 V2000
  -30.6570  -14.6189   20.5555 C   0  0  0  0  0  0
  -30.4426  -12.3937   19.4581 C   0  0  0  0  0  0
  -29.5156  -12.5066   18.2296 C   0  0  0  0  0  0
  -28.0449  -12.3188   18.6470 C   0  0  0  0  0  0
  -27.6578  -13.2047   19.8627 C   0  0  2  0  0  0
  -28.6993  -13.0729   20.9981 C   0  0  0  0  0  0
  -25.2626  -13.8125   20.5690 C   0  0  0  0  0  0
  -24.1867  -13.0401   20.9166 C   0  0  0  0  0  0
  -24.6414  -11.6862   20.8677 C   0  0  0  0  0  0
  -23.9050  -10.4265   21.0345 C   0  0  0  0  0  0
  -24.3611   -9.4196   21.9134 C   0  0  0  0  0  0
  -23.6296   -8.2226   22.0726 C   0  0  0  0  0  0
  -22.4267   -8.0266   21.3530 C   0  0  0  0  0  0
  -21.9895   -9.0228   20.4623 C   0  0  0  0  0  0
  -22.7218  -10.2111   20.3016 C   0  0  0  0  0  0
  -21.6861   -6.0723   22.5273 C   0  0  0  0  0  0
  -21.4028   -6.5633   23.8217 C   0  0  0  0  0  0
  -21.3659   -5.6784   24.9179 C   0  0  0  0  0  0
  -21.6035   -4.3050   24.7226 C   0  0  0  0  0  0
  -21.8819   -3.8139   23.4361 C   0  0  0  0  0  0
  -21.9209   -4.6945   22.3415 C   0  0  0  0  0  0
  -22.7907  -13.5226   21.1834 C   0  0  0  0  0  0
  -22.1672   -4.2135   21.0991 F   0  0  0  0  0  0
  -21.5621   -3.4541   25.7745 F   0  0  0  0  0  0
  -30.0142  -13.4149   20.4359 N   0  0  0  0  0  0
  -26.3016  -12.9271   20.3279 N   0  0  0  0  0  0
  -25.9340  -11.6433   20.5702 N   0  0  0  0  0  0
  -22.0539  -12.8189   22.0366 N   0  0  0  0  0  0
  -25.4375  -15.1846   20.4232 N   0  0  0  0  0  0
  -31.8091  -14.7736   20.1488 O   0  0  0  0  0  0
  -21.6653   -6.8858   21.4224 O   0  0  0  0  0  0
  -22.3582  -14.5542   20.6706 O   0  0  0  0  0  0
  -24.6215  -31.8631   23.2020 C   0  0  0  0  0  0
  -25.9114  -32.4817   23.8343 C   0  0  1  0  0  0
  -27.2328  -27.3747   20.0961 C   0  0  0  0  0  0
  -25.5997  -33.8602   24.2340 N   0  0  0  0  0  0
  -23.4129  -30.4792   21.5510 C   0  0  2  0  0  0
  -24.8627  -28.9395   20.1118 C   0  0  0  0  0  0
  -22.7487  -29.4557   22.4995 C   0  0  0  0  0  0
  -18.0287  -28.1355   22.8466 C   0  0  0  0  0  0
  -24.1479  -36.7263   23.2579 C   0  0  0  0  0  0
  -25.9449  -30.8086   21.3630 C   0  0  0  0  0  0
  -26.0272  -29.4360   20.7140 C   0  0  0  0  0  0
  -27.2192  -28.6592   20.7087 C   0  0  0  0  0  0
  -26.0543  -26.9145   19.4783 C   0  0  0  0  0  0
  -24.8757  -27.6801   19.4910 C   0  0  0  0  0  0
  -23.6227  -29.8082   20.1673 C   0  0  0  0  0  0
  -25.4096  -36.3093   24.0327 C   0  0  1  0  0  0
  -20.5886  -28.3623   23.1300 C   0  0  2  0  0  0
  -20.6774  -26.9330   22.5427 C   0  0  0  0  0  0
  -19.5774  -26.6335   21.5196 C   0  0  0  0  0  0
  -18.1932  -26.7928   22.1569 C   0  0  0  0  0  0
  -19.1532  -28.8816   23.2882 C   0  0  0  0  0  0
  -18.9460  -30.1434   23.8873 C   0  0  0  0  0  0
  -17.6462  -30.6555   24.0537 C   0  0  0  0  0  0
  -25.9042  -34.9478   23.5105 C   0  0  0  0  0  0
  -16.5363  -29.9025   23.6327 C   0  0  0  0  0  0
  -16.7280  -28.6452   23.0336 C   0  0  0  0  0  0
  -26.4544  -31.6583   25.0676 C   0  0  0  0  0  0
  -25.3816  -31.3849   26.1464 C   0  0  0  0  0  0
  -27.0243  -30.2959   24.6057 C   0  0  0  0  0  0
  -27.6162  -32.4231   25.7469 C   0  0  0  0  0  0
  -27.5631  -37.1746   24.8429 C   0  0  0  0  0  0
  -21.4193  -29.2987   22.3743 N   0  0  0  0  0  0
  -26.4273  -37.3806   23.9453 N   0  0  0  0  0  0
  -24.6796  -31.0667   22.0980 N   0  0  0  0  0  0
  -23.4266  -28.8093   23.3030 O   0  0  0  0  0  0
  -28.3289  -26.5241   20.0888 O   0  0  0  0  0  0
  -26.5514  -34.8942   22.4598 O   0  0  0  0  0  0
  -23.5388  -32.1402   23.7351 O   0  0  0  0  0  0
  -29.2666  -19.2396   18.4054 C   0  0  0  0  0  0
  -29.6274  -18.1517   19.2220 C   0  0  0  0  0  0
  -29.0954  -20.5278   18.9491 C   0  0  0  0  0  0
  -29.6194  -19.6393   21.1786 C   0  0  0  0  0  0
  -29.8192  -18.3106   20.6109 C   0  0  0  0  0  0
  -29.2631  -20.7733   20.3354 C   0  0  0  0  0  0
  -28.4976  -25.7543   21.2261 C   0  0  0  0  0  0
  -29.6953  -19.8169   22.6746 C   0  0  0  0  0  0
  -28.7448  -24.4145   21.3882 C   0  0  0  0  0  0
  -28.8983  -23.3783   20.3298 C   0  0  0  0  0  0
  -30.6161  -20.9011   23.2453 C   0  0  0  0  0  0
  -30.3594  -17.0592   21.4008 C   0  0  0  0  0  0
  -29.0459  -22.1234   20.8738 N   0  0  0  0  0  0
  -29.9201  -15.6738   21.0241 N   0  0  0  0  0  0
  -29.0435  -19.1287   23.4640 O   0  0  0  0  0  0
  -28.9054  -23.6094   19.1214 O   0  0  0  0  0  0
  -28.8611  -23.9933   22.6602 O   0  0  0  0  0  0
  -31.4858  -12.5107   19.1612 H   0  0  0  0  0  0
  -30.3722  -11.3982   19.8996 H   0  0  0  0  0  0
  -29.7917  -11.7622   17.4824 H   0  0  0  0  0  0
  -29.6456  -13.4794   17.7541 H   0  0  0  0  0  0
  -27.9162  -11.2664   18.9032 H   0  0  0  0  0  0
  -27.3796  -12.5075   17.8046 H   0  0  0  0  0  0
  -27.6791  -14.2363   19.5123 H   0  0  0  0  0  0
  -28.7123  -12.0534   21.3878 H   0  0  0  0  0  0
  -28.4346  -13.7111   21.8437 H   0  0  0  0  0  0
  -25.2767   -9.5690   22.4711 H   0  0  0  0  0  0
  -24.0030   -7.4628   22.7444 H   0  0  0  0  0  0
  -21.0837   -8.8733   19.8942 H   0  0  0  0  0  0
  -22.3665  -10.9639   19.6147 H   0  0  0  0  0  0
  -21.2015   -7.6148   23.9720 H   0  0  0  0  0  0
  -21.1476   -6.0518   25.9082 H   0  0  0  0  0  0
  -22.0599   -2.7597   23.2879 H   0  0  0  0  0  0
  -22.4204  -11.9855   22.4729 H   0  0  0  0  0  0
  -21.1130  -13.1146   22.2512 H   0  0  0  0  0  0
  -24.6707  -15.8335   20.5479 H   0  0  0  0  0  0
  -26.2977  -15.6367   20.1377 H   0  0  0  0  0  0
  -26.7168  -32.5559   23.1065 H   0  0  0  0  0  0
  -25.0517  -33.9802   25.0744 H   0  0  0  0  0  0
  -22.6975  -31.2920   21.4114 H   0  0  0  0  0  0
  -23.3837  -35.9499   23.3168 H   0  0  0  0  0  0
  -24.3596  -36.8921   22.2007 H   0  0  0  0  0  0
  -23.7121  -37.6401   23.6613 H   0  0  0  0  0  0
  -26.0520  -31.5691   20.5868 H   0  0  0  0  0  0
  -26.8307  -30.8676   21.9827 H   0  0  0  0  0  0
  -28.1173  -29.0263   21.1852 H   0  0  0  0  0  0
  -26.0463  -25.9445   18.9971 H   0  0  0  0  0  0
  -23.9780  -27.2929   19.0265 H   0  0  0  0  0  0
  -23.7211  -30.5810   19.4036 H   0  0  0  0  0  0
  -22.7457  -29.2224   19.8797 H   0  0  0  0  0  0
  -25.1222  -36.1918   25.0816 H   0  0  0  0  0  0
  -20.9944  -28.3151   24.1428 H   0  0  0  0  0  0
  -20.5595  -26.2171   23.3585 H   0  0  0  0  0  0
  -21.6642  -26.7313   22.1247 H   0  0  0  0  0  0
  -19.6901  -25.6246   21.1169 H   0  0  0  0  0  0
  -19.6735  -27.3176   20.6750 H   0  0  0  0  0  0
  -17.4204  -26.6684   21.3964 H   0  0  0  0  0  0
  -18.0293  -26.0071   22.8937 H   0  0  0  0  0  0
  -19.7937  -30.7254   24.2192 H   0  0  0  0  0  0
  -17.5001  -31.6236   24.5122 H   0  0  0  0  0  0
  -15.5351  -30.2881   23.7691 H   0  0  0  0  0  0
  -15.8687  -28.0762   22.7038 H   0  0  0  0  0  0
  -24.6070  -30.7011   25.7986 H   0  0  0  0  0  0
  -24.8961  -32.3079   26.4645 H   0  0  0  0  0  0
  -25.8226  -30.9353   27.0360 H   0  0  0  0  0  0
  -26.2756  -29.6862   24.0983 H   0  0  0  0  0  0
  -27.3812  -29.7057   25.4506 H   0  0  0  0  0  0
  -27.8709  -30.4223   23.9299 H   0  0  0  0  0  0
  -27.2892  -33.3599   26.1997 H   0  0  0  0  0  0
  -28.4090  -32.6627   25.0367 H   0  0  0  0  0  0
  -28.0676  -31.8327   26.5449 H   0  0  0  0  0  0
  -28.2522  -38.0182   24.7660 H   0  0  0  0  0  0
  -28.1267  -36.2715   24.5978 H   0  0  0  0  0  0
  -27.2398  -37.1056   25.8841 H   0  0  0  0  0  0
  -20.9304  -29.8739   21.7016 H   0  0  0  0  0  0
  -26.0163  -38.2834   24.1646 H   0  0  0  0  0  0
  -29.1254  -19.0813   17.3459 H   0  0  0  0  0  0
  -29.7767  -17.1822   18.7653 H   0  0  0  0  0  0
  -28.8082  -21.3166   18.2669 H   0  0  0  0  0  0
  -28.4072  -26.3914   22.0935 H   0  0  0  0  0  0
  -31.1811  -21.3999   22.4585 H   0  0  0  0  0  0
  -31.3282  -20.4702   23.9532 H   0  0  0  0  0  0
  -30.0269  -21.6481   23.7828 H   0  0  0  0  0  0
  -30.1188  -17.1498   22.4590 H   0  0  0  0  0  0
  -31.4496  -17.1066   21.3521 H   0  0  0  0  0  0
  -29.0190  -22.2085   21.8822 H   0  0  0  0  0  0
  -28.9777  -15.4431   21.3001 H   0  0  0  0  0  0
  -28.7922  -24.7586   23.2168 H   0  0  0  0  0  0
  1 25  1  0  0  0
  1 30  2  0  0  0
  1 84  1  0  0  0
  2  3  1  0  0  0
  2 25  1  0  0  0
  2 88  1  0  0  0
  2 89  1  0  0  0
  3  4  1  0  0  0
  3 90  1  0  0  0
  3 91  1  0  0  0
  4  5  1  0  0  0
  4 92  1  0  0  0
  4 93  1  0  0  0
  5  6  1  0  0  0
  5 26  1  0  0  0
  5 94  1  0  0  0
  6 25  1  0  0  0
  6 95  1  0  0  0
  6 96  1  0  0  0
  7  8  2  0  0  0
  7 26  1  0  0  0
  7 29  1  0  0  0
  8  9  1  0  0  0
  8 22  1  0  0  0
  9 10  1  0  0  0
  9 27  2  0  0  0
 10 11  2  0  0  0
 10 15  1  0  0  0
 11 12  1  0  0  0
 11 97  1  0  0  0
 12 13  2  0  0  0
 12 98  1  0  0  0
 13 14  1  0  0  0
 13 31  1  0  0  0
 14 15  2  0  0  0
 14 99  1  0  0  0
 15100  1  0  0  0
 16 17  2  0  0  0
 16 21  1  0  0  0
 16 31  1  0  0  0
 17 18  1  0  0  0
 17101  1  0  0  0
 18 19  2  0  0  0
 18102  1  0  0  0
 19 20  1  0  0  0
 19 24  1  0  0  0
 20 21  2  0  0  0
 20103  1  0  0  0
 21 23  1  0  0  0
 22 28  1  0  0  0
 22 32  2  0  0  0
 26 27  1  0  0  0
 28104  1  0  0  0
 28105  1  0  0  0
 29106  1  0  0  0
 29107  1  0  0  0
 33 34  1  0  0  0
 33 66  1  0  0  0
 33 70  2  0  0  0
 34 36  1  0  0  0
 34 59  1  0  0  0
 34108  1  0  0  0
 35 44  2  0  0  0
 35 45  1  0  0  0
 35 68  1  0  0  0
 36 56  1  0  0  0
 36109  1  0  0  0
 37 39  1  0  0  0
 37 47  1  0  0  0
 37 66  1  0  0  0
 37110  1  0  0  0
 38 43  2  0  0  0
 38 46  1  0  0  0
 38 47  1  0  0  0
 39 64  1  0  0  0
 39 67  2  0  0  0
 40 52  1  0  0  0
 40 53  2  0  0  0
 40 58  1  0  0  0
 41111  1  0  0  0
 41112  1  0  0  0
 41113  1  0  0  0
 41 48  1  0  0  0
 42 43  1  0  0  0
 42 66  1  0  0  0
 42114  1  0  0  0
 42115  1  0  0  0
 43 44  1  0  0  0
 44116  1  0  0  0
 45 46  2  0  0  0
 45117  1  0  0  0
 46118  1  0  0  0
 47119  1  0  0  0
 47120  1  0  0  0
 48 56  1  0  0  0
 48 65  1  0  0  0
 48121  1  0  0  0
 49 50  1  0  0  0
 49 53  1  0  0  0
 49 64  1  0  0  0
 49122  1  0  0  0
 50 51  1  0  0  0
 50123  1  0  0  0
 50124  1  0  0  0
 51 52  1  0  0  0
 51125  1  0  0  0
 51126  1  0  0  0
 52127  1  0  0  0
 52128  1  0  0  0
 53 54  1  0  0  0
 54 55  2  0  0  0
 54129  1  0  0  0
 55 57  1  0  0  0
 55130  1  0  0  0
 56 69  2  0  0  0
 57 58  2  0  0  0
 57131  1  0  0  0
 58132  1  0  0  0
 59 60  1  0  0  0
 59 61  1  0  0  0
 59 62  1  0  0  0
 60133  1  0  0  0
 60134  1  0  0  0
 60135  1  0  0  0
 61136  1  0  0  0
 61137  1  0  0  0
 61138  1  0  0  0
 62139  1  0  0  0
 62140  1  0  0  0
 62141  1  0  0  0
 63 65  1  0  0  0
 63142  1  0  0  0
 63143  1  0  0  0
 63144  1  0  0  0
 64145  1  0  0  0
 65146  1  0  0  0
 68 77  1  0  0  0
 71 72  2  0  0  0
 71 73  1  0  0  0
 71147  1  0  0  0
 72 75  1  0  0  0
 72148  1  0  0  0
 73 76  2  0  0  0
 73149  1  0  0  0
 74 75  2  0  0  0
 74 76  1  0  0  0
 74 78  1  0  0  0
 75 82  1  0  0  0
 76 83  1  0  0  0
 77 79  2  0  0  0
 77150  1  0  0  0
 78 81  1  0  0  0
 78 85  2  0  0  0
 79 80  1  0  0  0
 79 87  1  0  0  0
 80 83  1  0  0  0
 80 86  2  0  0  0
 81151  1  0  0  0
 81152  1  0  0  0
 81153  1  0  0  0
 82 84  1  0  0  0
 82154  1  0  0  0
 82155  1  0  0  0
 83156  1  0  0  0
 84157  1  0  0  0
 87158  1  0  0  0
M  ISO  4   1 100  68 101  77 101  84 100
M  END
> <chiral flag>
0

> <version>
0

> <s_m_source_file>
/data/baiqing/PycharmProjects/Reinvent-master-3.2/result/LINK_invent/BTK/process_docking_weight1_custom_product_contain_oxygen_bond_distance_aromatic_linkinvent_7_9_3/rearranged_h_0166.sdf

> <i_m_source_file_index>
33

> <r_mmod_Potential_Energy-OPLS-2005>
3.23482990264893

> <r_mmod_Stretch_Energy-OPLS-2005>
79.1905364990234

> <r_mmod_Bend_Energy-OPLS-2005>
150.000961303711

> <r_mmod_Torsional_Energy-OPLS-2005>
250.206298828125

> <r_mmod_Improper_Torsional_Energy-OPLS-2005>
3.44099402427673

> <r_mmod_Van_der_Waal_Energy-OPLS-2005>
149.297348022461

> <r_mmod_Electrostatic_Energy-OPLS-2005>
-423.965393066406

> <r_mmod_Solvation_Energy-OPLS-2005>
-242.556488037109

> <b_mmod_Minimization_Converged-OPLS-2005>
0

> <r_mmod_RMS_Derivative-OPLS-2005>
6.15257263183594

$$$$
33
                    3D
 Structure written by MMmdl.
158167  0  0  1  0            999 V2000
  -30.6839  -14.5258   20.6001 C   0  0  0  0  0  0
  -30.4348  -12.3475   19.4333 C   0  0  0  0  0  0
  -29.5012  -12.5028   18.2145 C   0  0  0  0  0  0
  -28.0247  -12.3517   18.6300 C   0  0  0  0  0  0
  -27.6629  -13.2050   19.8734 C   0  0  2  0  0  0
  -28.7007  -13.0038   20.9983 C   0  0  0  0  0  0
  -25.2611  -13.8154   20.5690 C   0  0  0  0  0  0
  -24.1855  -13.0439   20.9159 C   0  0  0  0  0  0
  -24.6399  -11.6903   20.8734 C   0  0  0  0  0  0
  -23.9070  -10.4288   21.0420 C   0  0  0  0  0  0
  -24.3614   -9.4197   21.9192 C   0  0  0  0  0  0
  -23.6277   -8.2243   22.0771 C   0  0  0  0  0  0
  -22.4261   -8.0285   21.3560 C   0  0  0  0  0  0
  -21.9906   -9.0267   20.4668 C   0  0  0  0  0  0
  -22.7246  -10.2139   20.3068 C   0  0  0  0  0  0
  -21.6844   -6.0743   22.5282 C   0  0  0  0  0  0
  -21.4011   -6.5646   23.8217 C   0  0  0  0  0  0
  -21.3650   -5.6801   24.9181 C   0  0  0  0  0  0
  -21.6039   -4.3067   24.7231 C   0  0  0  0  0  0
  -21.8811   -3.8154   23.4353 C   0  0  0  0  0  0
  -21.9190   -4.6972   22.3407 C   0  0  0  0  0  0
  -22.7879  -13.5259   21.1821 C   0  0  0  0  0  0
  -22.1661   -4.2153   21.0989 F   0  0  0  0  0  0
  -21.5615   -3.4551   25.7743 F   0  0  0  0  0  0
  -30.0293  -13.3335   20.4536 N   0  0  0  0  0  0
  -26.3040  -12.9312   20.3361 N   0  0  0  0  0  0
  -25.9325  -11.6473   20.5763 N   0  0  0  0  0  0
  -22.0512  -12.8263   22.0377 N   0  0  0  0  0  0
  -25.4351  -15.1871   20.4110 N   0  0  0  0  0  0
  -31.7640  -14.7531   20.0443 O   0  0  0  0  0  0
  -21.6625   -6.8889   21.4247 O   0  0  0  0  0  0
  -22.3580  -14.5563   20.6674 O   0  0  0  0  0  0
  -24.6189  -31.8649   23.2067 C   0  0  0  0  0  0
  -25.9067  -32.4803   23.8378 C   0  0  1  0  0  0
  -27.2353  -27.3876   20.0944 C   0  0  0  0  0  0
  -25.5907  -33.8602   24.2306 N   0  0  0  0  0  0
  -23.4089  -30.4880   21.5468 C   0  0  2  0  0  0
  -24.8541  -28.9467   20.1136 C   0  0  0  0  0  0
  -22.7412  -29.4654   22.4956 C   0  0  0  0  0  0
  -18.0258  -28.1379   22.8502 C   0  0  0  0  0  0
  -24.1487  -36.7299   23.2640 C   0  0  0  0  0  0
  -25.9418  -30.8159   21.3662 C   0  0  0  0  0  0
  -26.0170  -29.4469   20.7100 C   0  0  0  0  0  0
  -27.2072  -28.6753   20.6960 C   0  0  0  0  0  0
  -26.0428  -26.9066   19.5068 C   0  0  0  0  0  0
  -24.8646  -27.6771   19.5114 C   0  0  0  0  0  0
  -23.6187  -29.8190   20.1628 C   0  0  0  0  0  0
  -25.4107  -36.3096   24.0338 C   0  0  1  0  0  0
  -20.5850  -28.3664   23.1290 C   0  0  2  0  0  0
  -20.6738  -26.9391   22.5395 C   0  0  0  0  0  0
  -19.5695  -26.6357   21.5219 C   0  0  0  0  0  0
  -18.1881  -26.7919   22.1643 C   0  0  0  0  0  0
  -19.1513  -28.8842   23.2891 C   0  0  0  0  0  0
  -18.9443  -30.1454   23.8890 C   0  0  0  0  0  0
  -17.6447  -30.6597   24.0555 C   0  0  0  0  0  0
  -25.9034  -34.9464   23.5118 C   0  0  0  0  0  0
  -16.5336  -29.9084   23.6343 C   0  0  0  0  0  0
  -16.7250  -28.6505   23.0365 C   0  0  0  0  0  0
  -26.4475  -31.6604   25.0734 C   0  0  0  0  0  0
  -25.3730  -31.3739   26.1486 C   0  0  0  0  0  0
  -27.0326  -30.3040   24.6158 C   0  0  0  0  0  0
  -27.6042  -32.4342   25.7486 C   0  0  0  0  0  0
  -27.5575  -37.1805   24.8464 C   0  0  0  0  0  0
  -21.4133  -29.3035   22.3691 N   0  0  0  0  0  0
  -26.4286  -37.3778   23.9410 N   0  0  0  0  0  0
  -24.6749  -31.0715   22.0978 N   0  0  0  0  0  0
  -23.4159  -28.8188   23.3014 O   0  0  0  0  0  0
  -28.4093  -26.6440   20.1339 O   0  0  0  0  0  0
  -26.5601  -34.8927   22.4684 O   0  0  0  0  0  0
  -23.5372  -32.1419   23.7437 O   0  0  0  0  0  0
  -27.9053  -20.9292   20.7711 C   0  0  0  0  0  0
  -28.9983  -21.5002   20.1650 C   0  0  0  0  0  0
  -29.4841  -19.4136   20.7530 C   0  0  0  0  0  0
  -28.5849  -24.1042   20.1744 C   0  0  0  0  0  0
  -30.9696  -16.7448   23.1804 C   0  0  0  0  0  0
  -30.3988  -18.0805   22.6815 C   0  0  0  0  0  0
  -30.0842  -15.5722   22.7278 C   0  0  0  0  0  0
  -29.5104  -16.7787   20.6431 C   0  0  0  0  0  0
  -30.1827  -18.1071   21.1547 C   0  0  1  0  0  0
  -29.1757  -22.8521   19.4510 C   0  0  0  0  0  0
  -28.5695  -25.4280   19.3485 C   0  0  0  0  0  0
  -29.9972  -20.5067   20.1596 N   0  0  0  0  0  0
  -30.0135  -15.5129   21.2638 N   0  0  0  0  0  0
  -28.1691  -24.0682   21.3389 O   0  0  0  0  0  0
  -28.2002  -19.6357   21.1520 O   0  0  0  0  0  0
  -31.4760  -12.4686   19.1281 H   0  0  0  0  0  0
  -30.3665  -11.3380   19.8428 H   0  0  0  0  0  0
  -29.7505  -11.7607   17.4552 H   0  0  0  0  0  0
  -29.6573  -13.4788   17.7522 H   0  0  0  0  0  0
  -27.8537  -11.2974   18.8479 H   0  0  0  0  0  0
  -27.3680  -12.5979   17.7954 H   0  0  0  0  0  0
  -27.7042  -14.2498   19.5632 H   0  0  0  0  0  0
  -28.4328  -13.6025   21.8681 H   0  0  0  0  0  0
  -28.6919  -11.9692   21.3455 H   0  0  0  0  0  0
  -25.2762   -9.5642   22.4769 H   0  0  0  0  0  0
  -23.9962   -7.4634   22.7493 H   0  0  0  0  0  0
  -21.0835   -8.8802   19.8981 H   0  0  0  0  0  0
  -22.3718  -10.9681   19.6172 H   0  0  0  0  0  0
  -21.2001   -7.6156   23.9717 H   0  0  0  0  0  0
  -21.1481   -6.0544   25.9087 H   0  0  0  0  0  0
  -22.0594   -2.7617   23.2861 H   0  0  0  0  0  0
  -22.4096  -11.9904   22.4747 H   0  0  0  0  0  0
  -21.1144  -13.1331   22.2592 H   0  0  0  0  0  0
  -24.6687  -15.8447   20.5054 H   0  0  0  0  0  0
  -26.2971  -15.6233   20.1093 H   0  0  0  0  0  0
  -26.7137  -32.5491   23.1139 H   0  0  0  0  0  0
  -25.0073  -33.9744   25.0465 H   0  0  0  0  0  0
  -22.7009  -31.3069   21.4055 H   0  0  0  0  0  0
  -23.3746  -35.9633   23.3312 H   0  0  0  0  0  0
  -24.3581  -36.8899   22.2049 H   0  0  0  0  0  0
  -23.7239  -37.6508   23.6651 H   0  0  0  0  0  0
  -26.0610  -31.5826   20.5998 H   0  0  0  0  0  0
  -26.8261  -30.8655   21.9899 H   0  0  0  0  0  0
  -28.1059  -29.0608   21.1578 H   0  0  0  0  0  0
  -25.9834  -25.9259   19.0621 H   0  0  0  0  0  0
  -23.9654  -27.2788   19.0613 H   0  0  0  0  0  0
  -23.7316  -30.5932   19.4023 H   0  0  0  0  0  0
  -22.7413  -29.2424   19.8646 H   0  0  0  0  0  0
  -25.1283  -36.1948   25.0825 H   0  0  0  0  0  0
  -20.9955  -28.3222   24.1407 H   0  0  0  0  0  0
  -20.5675  -26.2258   23.3579 H   0  0  0  0  0  0
  -21.6585  -26.7429   22.1140 H   0  0  0  0  0  0
  -19.6834  -25.6258   21.1274 H   0  0  0  0  0  0
  -19.6615  -27.3140   20.6723 H   0  0  0  0  0  0
  -17.4131  -26.6693   21.4057 H   0  0  0  0  0  0
  -18.0260  -26.0062   22.9044 H   0  0  0  0  0  0
  -19.7919  -30.7271   24.2235 H   0  0  0  0  0  0
  -17.4991  -31.6285   24.5144 H   0  0  0  0  0  0
  -15.5329  -30.2967   23.7676 H   0  0  0  0  0  0
  -15.8646  -28.0829   22.7084 H   0  0  0  0  0  0
  -24.5882  -30.7109   25.7822 H   0  0  0  0  0  0
  -24.8956  -32.2908   26.4943 H   0  0  0  0  0  0
  -25.8066  -30.8892   27.0237 H   0  0  0  0  0  0
  -26.2896  -29.6804   24.1171 H   0  0  0  0  0  0
  -27.4027  -29.7285   25.4649 H   0  0  0  0  0  0
  -27.8756  -30.4362   23.9377 H   0  0  0  0  0  0
  -27.2651  -33.3624   26.2100 H   0  0  0  0  0  0
  -28.3818  -32.6932   25.0289 H   0  0  0  0  0  0
  -28.0758  -31.8457   26.5365 H   0  0  0  0  0  0
  -28.2594  -38.0100   24.7496 H   0  0  0  0  0  0
  -28.1072  -36.2625   24.6308 H   0  0  0  0  0  0
  -27.2298  -37.1471   25.8870 H   0  0  0  0  0  0
  -20.9289  -29.8758   21.6917 H   0  0  0  0  0  0
  -26.0178  -38.2850   24.1420 H   0  0  0  0  0  0
  -26.9028  -21.2828   20.9802 H   0  0  0  0  0  0
  -31.0384  -16.7592   24.2687 H   0  0  0  0  0  0
  -31.9881  -16.6122   22.8116 H   0  0  0  0  0  0
  -31.0559  -18.9000   22.9756 H   0  0  0  0  0  0
  -29.4468  -18.2623   23.1822 H   0  0  0  0  0  0
  -29.0760  -15.6846   23.1265 H   0  0  0  0  0  0
  -30.4711  -14.6388   23.1435 H   0  0  0  0  0  0
  -29.5860  -16.7234   19.5562 H   0  0  0  0  0  0
  -28.4426  -16.8258   20.8595 H   0  0  0  0  0  0
  -31.1732  -18.1393   20.6978 H   0  0  0  0  0  0
  -28.7228  -22.8031   18.4613 H   0  0  0  0  0  0
  -30.2343  -23.0477   19.2835 H   0  0  0  0  0  0
  -27.8557  -25.3508   18.5309 H   0  0  0  0  0  0
  -29.5419  -25.5025   18.8626 H   0  0  0  0  0  0
  1 25  1  0  0  0
  1 30  2  0  0  0
  1 83  1  0  0  0
  2  3  1  0  0  0
  2 25  1  0  0  0
  2 86  1  0  0  0
  2 87  1  0  0  0
  3  4  1  0  0  0
  3 88  1  0  0  0
  3 89  1  0  0  0
  4  5  1  0  0  0
  4 90  1  0  0  0
  4 91  1  0  0  0
  5  6  1  0  0  0
  5 26  1  0  0  0
  5 92  1  0  0  0
  6 25  1  0  0  0
  6 93  1  0  0  0
  6 94  1  0  0  0
  7  8  2  0  0  0
  7 26  1  0  0  0
  7 29  1  0  0  0
  8  9  1  0  0  0
  8 22  1  0  0  0
  9 10  1  0  0  0
  9 27  2  0  0  0
 10 11  2  0  0  0
 10 15  1  0  0  0
 11 12  1  0  0  0
 11 95  1  0  0  0
 12 13  2  0  0  0
 12 96  1  0  0  0
 13 14  1  0  0  0
 13 31  1  0  0  0
 14 15  2  0  0  0
 14 97  1  0  0  0
 15 98  1  0  0  0
 16 17  2  0  0  0
 16 21  1  0  0  0
 16 31  1  0  0  0
 17 18  1  0  0  0
 17 99  1  0  0  0
 18 19  2  0  0  0
 18100  1  0  0  0
 19 20  1  0  0  0
 19 24  1  0  0  0
 20 21  2  0  0  0
 20101  1  0  0  0
 21 23  1  0  0  0
 22 28  1  0  0  0
 22 32  2  0  0  0
 26 27  1  0  0  0
 28102  1  0  0  0
 28103  1  0  0  0
 29104  1  0  0  0
 29105  1  0  0  0
 33 34  1  0  0  0
 33 66  1  0  0  0
 33 70  2  0  0  0
 34 36  1  0  0  0
 34 59  1  0  0  0
 34106  1  0  0  0
 35 44  2  0  0  0
 35 45  1  0  0  0
 35 68  1  0  0  0
 36 56  1  0  0  0
 36107  1  0  0  0
 37 39  1  0  0  0
 37 47  1  0  0  0
 37 66  1  0  0  0
 37108  1  0  0  0
 38 43  2  0  0  0
 38 46  1  0  0  0
 38 47  1  0  0  0
 39 64  1  0  0  0
 39 67  2  0  0  0
 40 52  1  0  0  0
 40 53  2  0  0  0
 40 58  1  0  0  0
 41109  1  0  0  0
 41110  1  0  0  0
 41111  1  0  0  0
 41 48  1  0  0  0
 42 43  1  0  0  0
 42 66  1  0  0  0
 42112  1  0  0  0
 42113  1  0  0  0
 43 44  1  0  0  0
 44114  1  0  0  0
 45 46  2  0  0  0
 45115  1  0  0  0
 46116  1  0  0  0
 47117  1  0  0  0
 47118  1  0  0  0
 48 56  1  0  0  0
 48 65  1  0  0  0
 48119  1  0  0  0
 49 50  1  0  0  0
 49 53  1  0  0  0
 49 64  1  0  0  0
 49120  1  0  0  0
 50 51  1  0  0  0
 50121  1  0  0  0
 50122  1  0  0  0
 51 52  1  0  0  0
 51123  1  0  0  0
 51124  1  0  0  0
 52125  1  0  0  0
 52126  1  0  0  0
 53 54  1  0  0  0
 54 55  2  0  0  0
 54127  1  0  0  0
 55 57  1  0  0  0
 55128  1  0  0  0
 56 69  2  0  0  0
 57 58  2  0  0  0
 57129  1  0  0  0
 58130  1  0  0  0
 59 60  1  0  0  0
 59 61  1  0  0  0
 59 62  1  0  0  0
 60131  1  0  0  0
 60132  1  0  0  0
 60133  1  0  0  0
 61134  1  0  0  0
 61135  1  0  0  0
 61136  1  0  0  0
 62137  1  0  0  0
 62138  1  0  0  0
 62139  1  0  0  0
 63 65  1  0  0  0
 63140  1  0  0  0
 63141  1  0  0  0
 63142  1  0  0  0
 64143  1  0  0  0
 65144  1  0  0  0
 68 81  1  0  0  0
 71 72  2  0  0  0
 71 85  1  0  0  0
 71145  1  0  0  0
 72 80  1  0  0  0
 72 82  1  0  0  0
 73 82  2  0  0  0
 73 85  1  0  0  0
 73 79  1  0  0  0
 74 80  1  0  0  0
 74 81  1  0  0  0
 74 84  2  0  0  0
 75 76  1  0  0  0
 75 77  1  0  0  0
 75146  1  0  0  0
 75147  1  0  0  0
 76 79  1  0  0  0
 76148  1  0  0  0
 76149  1  0  0  0
 77 83  1  0  0  0
 77150  1  0  0  0
 77151  1  0  0  0
 78 79  1  0  0  0
 78 83  1  0  0  0
 78152  1  0  0  0
 78153  1  0  0  0
 79154  1  0  0  0
 80155  1  0  0  0
 80156  1  0  0  0
 81157  1  0  0  0
 81158  1  0  0  0
M  ISO  4   1 100  68 101  81 101  83 100
M  END
> <chiral flag>
0

> <version>
0

> <s_m_source_file>
/data/baiqing/PycharmProjects/Reinvent-master-3.2/result/LINK_invent/BTK/process_docking_weight1_custom_product_contain_oxygen_bond_distance_aromatic_linkinvent_7_9_3/rearranged_h_0166.sdf

> <i_m_source_file_index>
34

> <r_mmod_Potential_Energy-OPLS-2005>
184.351776123047

> <r_mmod_Stretch_Energy-OPLS-2005>
54.8704833984375

> <r_mmod_Bend_Energy-OPLS-2005>
129.662063598633

> <r_mmod_Torsional_Energy-OPLS-2005>
316.131774902344

> <r_mmod_Improper_Torsional_Energy-OPLS-2005>
5.21560335159302

> <r_mmod_Van_der_Waal_Energy-OPLS-2005>
122.249656677246

> <r_mmod_Electrostatic_Energy-OPLS-2005>
-230.444534301758

> <r_mmod_Solvation_Energy-OPLS-2005>
-233.404632568359

> <b_mmod_Minimization_Converged-OPLS-2005>
0

> <r_mmod_RMS_Derivative-OPLS-2005>
1.87949478626251

$$$$
34
                    3D
 Structure written by MMmdl.
157166  0  0  1  0            999 V2000
  -30.6479  -14.6353   20.4413 C   0  0  0  0  0  0
  -30.4170  -12.3772   19.4623 C   0  0  0  0  0  0
  -29.5032  -12.5024   18.2242 C   0  0  0  0  0  0
  -28.0231  -12.3539   18.6280 C   0  0  0  0  0  0
  -27.6460  -13.2285   19.8542 C   0  0  2  0  0  0
  -28.6888  -13.1182   20.9887 C   0  0  0  0  0  0
  -25.2533  -13.8199   20.5693 C   0  0  0  0  0  0
  -24.1816  -13.0449   20.9197 C   0  0  0  0  0  0
  -24.6400  -11.6922   20.8730 C   0  0  0  0  0  0
  -23.9078  -10.4297   21.0396 C   0  0  0  0  0  0
  -24.3637   -9.4215   21.9174 C   0  0  0  0  0  0
  -23.6318   -8.2247   22.0741 C   0  0  0  0  0  0
  -22.4293   -8.0278   21.3541 C   0  0  0  0  0  0
  -21.9930   -9.0249   20.4635 C   0  0  0  0  0  0
  -22.7255  -10.2132   20.3045 C   0  0  0  0  0  0
  -21.6860   -6.0747   22.5282 C   0  0  0  0  0  0
  -21.4009   -6.5651   23.8217 C   0  0  0  0  0  0
  -21.3659   -5.6801   24.9179 C   0  0  0  0  0  0
  -21.6046   -4.3065   24.7230 C   0  0  0  0  0  0
  -21.8815   -3.8156   23.4350 C   0  0  0  0  0  0
  -21.9196   -4.6973   22.3408 C   0  0  0  0  0  0
  -22.7840  -13.5234   21.1875 C   0  0  0  0  0  0
  -22.1665   -4.2161   21.0989 F   0  0  0  0  0  0
  -21.5631   -3.4543   25.7743 F   0  0  0  0  0  0
  -30.0039  -13.4270   20.4162 N   0  0  0  0  0  0
  -26.2953  -12.9403   20.3285 N   0  0  0  0  0  0
  -25.9325  -11.6543   20.5734 N   0  0  0  0  0  0
  -22.0498  -12.8187   22.0418 N   0  0  0  0  0  0
  -25.4256  -15.1927   20.4123 N   0  0  0  0  0  0
  -31.8425  -14.7142   20.1393 O   0  0  0  0  0  0
  -21.6650   -6.8881   21.4239 O   0  0  0  0  0  0
  -22.3511  -14.5544   20.6744 O   0  0  0  0  0  0
  -24.6261  -31.8584   23.2025 C   0  0  0  0  0  0
  -25.9114  -32.4770   23.8352 C   0  0  1  0  0  0
  -27.2173  -27.3296   20.1216 C   0  0  0  0  0  0
  -25.5932  -33.8574   24.2278 N   0  0  0  0  0  0
  -23.4193  -30.4828   21.5443 C   0  0  2  0  0  0
  -24.8652  -28.9369   20.1104 C   0  0  0  0  0  0
  -22.7475  -29.4629   22.4938 C   0  0  0  0  0  0
  -18.0285  -28.1393   22.8495 C   0  0  0  0  0  0
  -24.1488  -36.7289   23.2643 C   0  0  0  0  0  0
  -25.9583  -30.7944   21.3696 C   0  0  0  0  0  0
  -26.0332  -29.4219   20.7142 C   0  0  0  0  0  0
  -27.2174  -28.6288   20.7106 C   0  0  0  0  0  0
  -26.0346  -26.8895   19.4963 C   0  0  0  0  0  0
  -24.8665  -27.6748   19.4927 C   0  0  0  0  0  0
  -23.6322  -29.8150   20.1597 C   0  0  0  0  0  0
  -25.4113  -36.3081   24.0325 C   0  0  1  0  0  0
  -20.5887  -28.3695   23.1292 C   0  0  2  0  0  0
  -20.6776  -26.9419   22.5427 C   0  0  0  0  0  0
  -19.5753  -26.6389   21.5228 C   0  0  0  0  0  0
  -18.1929  -26.7942   22.1628 C   0  0  0  0  0  0
  -19.1536  -28.8863   23.2889 C   0  0  0  0  0  0
  -18.9455  -30.1469   23.8904 C   0  0  0  0  0  0
  -17.6452  -30.6595   24.0574 C   0  0  0  0  0  0
  -25.9052  -34.9447   23.5097 C   0  0  0  0  0  0
  -16.5346  -29.9091   23.6340 C   0  0  0  0  0  0
  -16.7273  -28.6510   23.0358 C   0  0  0  0  0  0
  -26.4499  -31.6581   25.0718 C   0  0  0  0  0  0
  -25.3729  -31.3704   26.1440 C   0  0  0  0  0  0
  -27.0343  -30.3010   24.6167 C   0  0  0  0  0  0
  -27.6077  -32.4304   25.7476 C   0  0  0  0  0  0
  -27.5573  -37.1806   24.8460 C   0  0  0  0  0  0
  -21.4188  -29.3044   22.3677 N   0  0  0  0  0  0
  -26.4284  -37.3780   23.9408 N   0  0  0  0  0  0
  -24.6871  -31.0607   22.0967 N   0  0  0  0  0  0
  -23.4205  -28.8169   23.3013 O   0  0  0  0  0  0
  -28.3027  -26.4518   20.1476 O   0  0  0  0  0  0
  -26.5618  -34.8915   22.4663 O   0  0  0  0  0  0
  -23.5427  -32.1372   23.7368 O   0  0  0  0  0  0
  -30.8326  -18.1640   17.8294 C   0  0  0  0  0  0
  -30.4569  -19.4186   18.3335 C   0  0  0  0  0  0
  -30.6326  -17.0003   18.5840 C   0  0  0  0  0  0
  -29.6401  -18.3503   20.3613 C   0  0  0  0  0  0
  -29.8380  -19.5672   19.5961 C   0  0  0  0  0  0
  -30.0615  -17.0479   19.8779 C   0  0  0  0  0  0
  -28.5007  -23.8088   20.5348 C   0  0  0  0  0  0
  -28.5909  -22.7846   21.6899 C   0  0  0  0  0  0
  -28.6450  -21.2749   21.2829 C   0  0  0  0  0  0
  -28.9651  -22.0267   18.9455 C   0  0  0  0  0  0
  -29.5426  -21.0590   20.0542 C   0  0  2  0  0  0
  -28.1146  -25.2696   21.0122 C   0  0  0  0  0  0
  -28.7229  -23.4502   19.3232 N   0  0  0  0  0  0
  -29.8912  -15.7756   20.5958 N   0  0  0  0  0  0
  -31.4641  -12.4648   19.1693 H   0  0  0  0  0  0
  -30.3177  -11.3893   19.9149 H   0  0  0  0  0  0
  -29.7658  -11.7480   17.4816 H   0  0  0  0  0  0
  -29.6583  -13.4705   17.7452 H   0  0  0  0  0  0
  -27.8464  -11.3013   18.8522 H   0  0  0  0  0  0
  -27.3774  -12.5949   17.7822 H   0  0  0  0  0  0
  -27.6552  -14.2606   19.5019 H   0  0  0  0  0  0
  -28.6898  -12.1145   21.4164 H   0  0  0  0  0  0
  -28.4456  -13.7978   21.8064 H   0  0  0  0  0  0
  -25.2780   -9.5698   22.4750 H   0  0  0  0  0  0
  -24.0033   -7.4639   22.7453 H   0  0  0  0  0  0
  -21.0869   -8.8760   19.8940 H   0  0  0  0  0  0
  -22.3710  -10.9669   19.6152 H   0  0  0  0  0  0
  -21.1986   -7.6157   23.9727 H   0  0  0  0  0  0
  -21.1487   -6.0532   25.9088 H   0  0  0  0  0  0
  -22.0593   -2.7620   23.2852 H   0  0  0  0  0  0
  -22.4138  -11.9850   22.4783 H   0  0  0  0  0  0
  -21.1094  -13.1156   22.2614 H   0  0  0  0  0  0
  -24.6617  -15.8496   20.5228 H   0  0  0  0  0  0
  -26.2785  -15.6299   20.0859 H   0  0  0  0  0  0
  -26.7190  -32.5443   23.1111 H   0  0  0  0  0  0
  -25.0081  -33.9721   25.0425 H   0  0  0  0  0  0
  -22.7136  -31.3035   21.4017 H   0  0  0  0  0  0
  -23.3753  -35.9618   23.3284 H   0  0  0  0  0  0
  -24.3591  -36.8929   22.2064 H   0  0  0  0  0  0
  -23.7227  -37.6477   23.6681 H   0  0  0  0  0  0
  -26.0837  -31.5567   20.5998 H   0  0  0  0  0  0
  -26.8424  -30.8455   21.9936 H   0  0  0  0  0  0
  -28.1146  -28.9925   21.1909 H   0  0  0  0  0  0
  -26.0085  -25.9144   19.0294 H   0  0  0  0  0  0
  -23.9694  -27.2985   19.0208 H   0  0  0  0  0  0
  -23.7471  -30.5906   19.4011 H   0  0  0  0  0  0
  -22.7529  -29.2411   19.8605 H   0  0  0  0  0  0
  -25.1301  -36.1917   25.0817 H   0  0  0  0  0  0
  -20.9983  -28.3262   24.1410 H   0  0  0  0  0  0
  -20.5675  -26.2306   23.3624 H   0  0  0  0  0  0
  -21.6637  -26.7454   22.1205 H   0  0  0  0  0  0
  -19.6905  -25.6299   21.1258 H   0  0  0  0  0  0
  -19.6685  -27.3207   20.6765 H   0  0  0  0  0  0
  -17.4205  -26.6715   21.4021 H   0  0  0  0  0  0
  -18.0308  -26.0069   22.9005 H   0  0  0  0  0  0
  -19.7927  -30.7296   24.2260 H   0  0  0  0  0  0
  -17.5000  -31.6275   24.5176 H   0  0  0  0  0  0
  -15.5349  -30.2991   23.7666 H   0  0  0  0  0  0
  -15.8668  -28.0838   22.7065 H   0  0  0  0  0  0
  -24.5936  -30.7014   25.7765 H   0  0  0  0  0  0
  -24.8879  -32.2853   26.4855 H   0  0  0  0  0  0
  -25.8055  -30.8896   27.0221 H   0  0  0  0  0  0
  -26.2916  -29.6746   24.1207 H   0  0  0  0  0  0
  -27.4063  -29.7277   25.4672 H   0  0  0  0  0  0
  -27.8772  -30.4308   23.9372 H   0  0  0  0  0  0
  -27.2736  -33.3639   26.2013 H   0  0  0  0  0  0
  -28.3908  -32.6793   25.0300 H   0  0  0  0  0  0
  -28.0710  -31.8426   26.5410 H   0  0  0  0  0  0
  -28.2592  -38.0110   24.7522 H   0  0  0  0  0  0
  -28.1075  -36.2640   24.6271 H   0  0  0  0  0  0
  -27.2293  -37.1415   25.8865 H   0  0  0  0  0  0
  -20.9365  -29.8739   21.6865 H   0  0  0  0  0  0
  -26.0150  -38.2846   24.1430 H   0  0  0  0  0  0
  -31.2966  -18.0932   16.8552 H   0  0  0  0  0  0
  -30.6836  -20.2753   17.7174 H   0  0  0  0  0  0
  -30.9352  -16.0622   18.1403 H   0  0  0  0  0  0
  -29.1891  -18.4204   21.3410 H   0  0  0  0  0  0
  -27.7562  -22.9451   22.3728 H   0  0  0  0  0  0
  -29.4896  -23.0222   22.2604 H   0  0  0  0  0  0
  -27.6404  -20.9143   21.0622 H   0  0  0  0  0  0
  -29.0059  -20.6887   22.1288 H   0  0  0  0  0  0
  -28.0352  -21.6021   18.5620 H   0  0  0  0  0  0
  -29.6371  -22.0466   18.0906 H   0  0  0  0  0  0
  -30.5284  -21.4432   20.3184 H   0  0  0  0  0  0
  -28.6987  -25.4735   21.9099 H   0  0  0  0  0  0
  -27.0826  -25.2181   21.3648 H   0  0  0  0  0  0
  -29.0058  -15.6501   21.0637 H   0  0  0  0  0  0
  1 25  1  0  0  0
  1 30  2  0  0  0
  1 84  1  0  0  0
  2  3  1  0  0  0
  2 25  1  0  0  0
  2 85  1  0  0  0
  2 86  1  0  0  0
  3  4  1  0  0  0
  3 87  1  0  0  0
  3 88  1  0  0  0
  4  5  1  0  0  0
  4 89  1  0  0  0
  4 90  1  0  0  0
  5  6  1  0  0  0
  5 26  1  0  0  0
  5 91  1  0  0  0
  6 25  1  0  0  0
  6 92  1  0  0  0
  6 93  1  0  0  0
  7  8  2  0  0  0
  7 26  1  0  0  0
  7 29  1  0  0  0
  8  9  1  0  0  0
  8 22  1  0  0  0
  9 10  1  0  0  0
  9 27  2  0  0  0
 10 11  2  0  0  0
 10 15  1  0  0  0
 11 12  1  0  0  0
 11 94  1  0  0  0
 12 13  2  0  0  0
 12 95  1  0  0  0
 13 14  1  0  0  0
 13 31  1  0  0  0
 14 15  2  0  0  0
 14 96  1  0  0  0
 15 97  1  0  0  0
 16 17  2  0  0  0
 16 21  1  0  0  0
 16 31  1  0  0  0
 17 18  1  0  0  0
 17 98  1  0  0  0
 18 19  2  0  0  0
 18 99  1  0  0  0
 19 20  1  0  0  0
 19 24  1  0  0  0
 20 21  2  0  0  0
 20100  1  0  0  0
 21 23  1  0  0  0
 22 28  1  0  0  0
 22 32  2  0  0  0
 26 27  1  0  0  0
 28101  1  0  0  0
 28102  1  0  0  0
 29103  1  0  0  0
 29104  1  0  0  0
 33 34  1  0  0  0
 33 66  1  0  0  0
 33 70  2  0  0  0
 34 36  1  0  0  0
 34 59  1  0  0  0
 34105  1  0  0  0
 35 44  2  0  0  0
 35 45  1  0  0  0
 35 68  1  0  0  0
 36 56  1  0  0  0
 36106  1  0  0  0
 37 39  1  0  0  0
 37 47  1  0  0  0
 37 66  1  0  0  0
 37107  1  0  0  0
 38 43  2  0  0  0
 38 46  1  0  0  0
 38 47  1  0  0  0
 39 64  1  0  0  0
 39 67  2  0  0  0
 40 52  1  0  0  0
 40 53  2  0  0  0
 40 58  1  0  0  0
 41108  1  0  0  0
 41109  1  0  0  0
 41110  1  0  0  0
 41 48  1  0  0  0
 42 43  1  0  0  0
 42 66  1  0  0  0
 42111  1  0  0  0
 42112  1  0  0  0
 43 44  1  0  0  0
 44113  1  0  0  0
 45 46  2  0  0  0
 45114  1  0  0  0
 46115  1  0  0  0
 47116  1  0  0  0
 47117  1  0  0  0
 48 56  1  0  0  0
 48 65  1  0  0  0
 48118  1  0  0  0
 49 50  1  0  0  0
 49 53  1  0  0  0
 49 64  1  0  0  0
 49119  1  0  0  0
 50 51  1  0  0  0
 50120  1  0  0  0
 50121  1  0  0  0
 51 52  1  0  0  0
 51122  1  0  0  0
 51123  1  0  0  0
 52124  1  0  0  0
 52125  1  0  0  0
 53 54  1  0  0  0
 54 55  2  0  0  0
 54126  1  0  0  0
 55 57  1  0  0  0
 55127  1  0  0  0
 56 69  2  0  0  0
 57 58  2  0  0  0
 57128  1  0  0  0
 58129  1  0  0  0
 59 60  1  0  0  0
 59 61  1  0  0  0
 59 62  1  0  0  0
 60130  1  0  0  0
 60131  1  0  0  0
 60132  1  0  0  0
 61133  1  0  0  0
 61134  1  0  0  0
 61135  1  0  0  0
 62136  1  0  0  0
 62137  1  0  0  0
 62138  1  0  0  0
 63 65  1  0  0  0
 63139  1  0  0  0
 63140  1  0  0  0
 63141  1  0  0  0
 64142  1  0  0  0
 65143  1  0  0  0
 68 82  1  0  0  0
 71 72  2  0  0  0
 71 73  1  0  0  0
 71144  1  0  0  0
 72 75  1  0  0  0
 72145  1  0  0  0
 73 76  2  0  0  0
 73146  1  0  0  0
 74 75  2  0  0  0
 74 76  1  0  0  0
 74147  1  0  0  0
 75 81  1  0  0  0
 76 84  1  0  0  0
 77 78  1  0  0  0
 77 82  1  0  0  0
 77 83  2  0  0  0
 78 79  1  0  0  0
 78148  1  0  0  0
 78149  1  0  0  0
 79 81  1  0  0  0
 79150  1  0  0  0
 79151  1  0  0  0
 80 81  1  0  0  0
 80 83  1  0  0  0
 80152  1  0  0  0
 80153  1  0  0  0
 81154  1  0  0  0
 82155  1  0  0  0
 82156  1  0  0  0
 84157  1  0  0  0
M  ISO  4   1 100  68 101  82 101  84 100
M  END
> <chiral flag>
0

> <version>
0

> <s_m_source_file>
/data/baiqing/PycharmProjects/Reinvent-master-3.2/result/LINK_invent/BTK/process_docking_weight1_custom_product_contain_oxygen_bond_distance_aromatic_linkinvent_7_9_3/rearranged_h_0166.sdf

> <i_m_source_file_index>
35

> <r_mmod_Potential_Energy-OPLS-2005>
165.029388427734

> <r_mmod_Stretch_Energy-OPLS-2005>
89.0428009033203

> <r_mmod_Bend_Energy-OPLS-2005>
149.961654663086

> <r_mmod_Torsional_Energy-OPLS-2005>
268.567260742188

> <r_mmod_Improper_Torsional_Energy-OPLS-2005>
5.8834810256958

> <r_mmod_Van_der_Waal_Energy-OPLS-2005>
151.84504699707

> <r_mmod_Electrostatic_Energy-OPLS-2005>
-328.292266845703

> <r_mmod_Solvation_Energy-OPLS-2005>
-222.992706298828

> <b_mmod_Minimization_Converged-OPLS-2005>
0

> <r_mmod_RMS_Derivative-OPLS-2005>
1.62119257450104

$$$$
35
                    3D
 Structure written by MMmdl.
158166  0  0  1  0            999 V2000
  -30.7042  -14.5781   20.5173 C   0  0  0  0  0  0
  -30.4120  -12.3599   19.4548 C   0  0  0  0  0  0
  -29.4958  -12.4971   18.2224 C   0  0  0  0  0  0
  -28.0200  -12.3490   18.6354 C   0  0  0  0  0  0
  -27.6491  -13.2261   19.8621 C   0  0  2  0  0  0
  -28.6933  -13.1031   20.9952 C   0  0  0  0  0  0
  -25.2526  -13.8192   20.5690 C   0  0  0  0  0  0
  -24.1807  -13.0445   20.9198 C   0  0  0  0  0  0
  -24.6393  -11.6923   20.8748 C   0  0  0  0  0  0
  -23.9068  -10.4295   21.0403 C   0  0  0  0  0  0
  -24.3619   -9.4210   21.9182 C   0  0  0  0  0  0
  -23.6294   -8.2244   22.0752 C   0  0  0  0  0  0
  -22.4277   -8.0278   21.3541 C   0  0  0  0  0  0
  -21.9910   -9.0254   20.4644 C   0  0  0  0  0  0
  -22.7239  -10.2135   20.3055 C   0  0  0  0  0  0
  -21.6856   -6.0734   22.5279 C   0  0  0  0  0  0
  -21.4016   -6.5640   23.8209 C   0  0  0  0  0  0
  -21.3660   -5.6795   24.9174 C   0  0  0  0  0  0
  -21.6044   -4.3056   24.7225 C   0  0  0  0  0  0
  -21.8822   -3.8146   23.4348 C   0  0  0  0  0  0
  -21.9193   -4.6961   22.3401 C   0  0  0  0  0  0
  -22.7830  -13.5229   21.1856 C   0  0  0  0  0  0
  -22.1664   -4.2147   21.0978 F   0  0  0  0  0  0
  -21.5627   -3.4542   25.7738 F   0  0  0  0  0  0
  -30.0118  -13.4022   20.4221 N   0  0  0  0  0  0
  -26.2968  -12.9402   20.3334 N   0  0  0  0  0  0
  -25.9327  -11.6546   20.5779 N   0  0  0  0  0  0
  -22.0477  -12.8217   22.0413 N   0  0  0  0  0  0
  -25.4208  -15.1906   20.4079 N   0  0  0  0  0  0
  -31.8603  -14.6514   20.0952 O   0  0  0  0  0  0
  -21.6644   -6.8876   21.4237 O   0  0  0  0  0  0
  -22.3511  -14.5531   20.6697 O   0  0  0  0  0  0
  -24.6213  -31.8631   23.2052 C   0  0  0  0  0  0
  -25.9076  -32.4800   23.8369 C   0  0  1  0  0  0
  -27.2280  -27.3757   20.1081 C   0  0  0  0  0  0
  -25.5904  -33.8599   24.2295 N   0  0  0  0  0  0
  -23.4140  -30.4854   21.5452 C   0  0  2  0  0  0
  -24.8648  -28.9483   20.1061 C   0  0  0  0  0  0
  -22.7456  -29.4634   22.4945 C   0  0  0  0  0  0
  -18.0284  -28.1390   22.8487 C   0  0  0  0  0  0
  -24.1486  -36.7306   23.2634 C   0  0  0  0  0  0
  -25.9488  -30.8112   21.3685 C   0  0  0  0  0  0
  -26.0283  -29.4427   20.7116 C   0  0  0  0  0  0
  -27.2172  -28.6634   20.7114 C   0  0  0  0  0  0
  -26.0531  -26.9163   19.4837 C   0  0  0  0  0  0
  -24.8749  -27.6875   19.4848 C   0  0  0  0  0  0
  -23.6272  -29.8191   20.1593 C   0  0  0  0  0  0
  -25.4108  -36.3098   24.0331 C   0  0  1  0  0  0
  -20.5880  -28.3688   23.1294 C   0  0  2  0  0  0
  -20.6769  -26.9414   22.5412 C   0  0  0  0  0  0
  -19.5744  -26.6388   21.5213 C   0  0  0  0  0  0
  -18.1926  -26.7934   22.1628 C   0  0  0  0  0  0
  -19.1534  -28.8857   23.2889 C   0  0  0  0  0  0
  -18.9454  -30.1460   23.8904 C   0  0  0  0  0  0
  -17.6452  -30.6589   24.0567 C   0  0  0  0  0  0
  -25.9038  -34.9468   23.5115 C   0  0  0  0  0  0
  -16.5346  -29.9086   23.6331 C   0  0  0  0  0  0
  -16.7272  -28.6508   23.0348 C   0  0  0  0  0  0
  -26.4485  -31.6592   25.0718 C   0  0  0  0  0  0
  -25.3735  -31.3712   26.1454 C   0  0  0  0  0  0
  -27.0311  -30.3018   24.6136 C   0  0  0  0  0  0
  -27.6051  -32.4324   25.7483 C   0  0  0  0  0  0
  -27.5587  -37.1794   24.8454 C   0  0  0  0  0  0
  -21.4175  -29.3040   22.3688 N   0  0  0  0  0  0
  -26.4287  -37.3792   23.9421 N   0  0  0  0  0  0
  -24.6796  -31.0681   22.0978 N   0  0  0  0  0  0
  -23.4198  -28.8176   23.3010 O   0  0  0  0  0  0
  -28.2991  -26.4955   20.1712 O   0  0  0  0  0  0
  -26.5611  -34.8931   22.4680 O   0  0  0  0  0  0
  -23.5388  -32.1407   23.7406 O   0  0  0  0  0  0
  -32.4785  -18.5146   21.4662 C   0  0  0  0  0  0
  -31.7230  -19.6594   21.1826 C   0  0  0  0  0  0
  -31.8934  -17.2446   21.4038 C   0  0  0  0  0  0
  -29.7620  -18.2627   20.7637 C   0  0  0  0  0  0
  -30.3418  -19.5863   20.8735 C   0  0  0  0  0  0
  -30.5472  -17.0693   21.0061 C   0  0  0  0  0  0
  -28.3169  -25.7223   21.3236 C   0  0  0  0  0  0
  -28.6178  -24.4031   21.5461 C   0  0  0  0  0  0
  -29.0230  -23.3259   20.5566 C   0  0  0  0  0  0
  -29.8890  -22.0911   21.1063 C   0  0  0  0  0  0
  -27.3803  -18.0765   21.6161 C   0  0  0  0  0  0
  -28.2933  -18.1199   20.3844 C   0  0  0  0  0  0
  -29.6042  -20.8327   20.6342 N   0  0  0  0  0  0
  -30.0258  -15.7052   20.9011 N   0  0  0  0  0  0
  -28.7275  -23.3816   19.3578 O   0  0  0  0  0  0
  -30.7832  -22.3108   21.9325 O   0  0  0  0  0  0
  -28.5238  -23.9913   22.8219 O   0  0  0  0  0  0
  -31.4582  -12.4367   19.1539 H   0  0  0  0  0  0
  -30.3082  -11.3705   19.9033 H   0  0  0  0  0  0
  -29.7508  -11.7438   17.4759 H   0  0  0  0  0  0
  -29.6527  -13.4669   17.7474 H   0  0  0  0  0  0
  -27.8495  -11.2971   18.8676 H   0  0  0  0  0  0
  -27.3669  -12.5825   17.7937 H   0  0  0  0  0  0
  -27.6639  -14.2595   19.5148 H   0  0  0  0  0  0
  -28.6888  -12.0971   21.4169 H   0  0  0  0  0  0
  -28.4524  -13.7765   21.8188 H   0  0  0  0  0  0
  -25.2764   -9.5690   22.4759 H   0  0  0  0  0  0
  -24.0006   -7.4636   22.7472 H   0  0  0  0  0  0
  -21.0842   -8.8771   19.8950 H   0  0  0  0  0  0
  -22.3692  -10.9675   19.6166 H   0  0  0  0  0  0
  -21.2011   -7.6151   23.9711 H   0  0  0  0  0  0
  -21.1479   -6.0527   25.9074 H   0  0  0  0  0  0
  -22.0601   -2.7609   23.2849 H   0  0  0  0  0  0
  -22.4102  -11.9886   22.4809 H   0  0  0  0  0  0
  -21.1092  -13.1234   22.2619 H   0  0  0  0  0  0
  -24.6502  -15.8408   20.5135 H   0  0  0  0  0  0
  -26.2650  -15.6289   20.0661 H   0  0  0  0  0  0
  -26.7145  -32.5501   23.1127 H   0  0  0  0  0  0
  -25.0059  -33.9749   25.0444 H   0  0  0  0  0  0
  -22.7053  -31.3040   21.4027 H   0  0  0  0  0  0
  -23.3753  -35.9632   23.3290 H   0  0  0  0  0  0
  -24.3583  -36.8934   22.2048 H   0  0  0  0  0  0
  -23.7231  -37.6505   23.6657 H   0  0  0  0  0  0
  -26.0687  -31.5773   20.6013 H   0  0  0  0  0  0
  -26.8329  -30.8634   21.9921 H   0  0  0  0  0  0
  -28.1101  -29.0282   21.2002 H   0  0  0  0  0  0
  -26.0435  -25.9366   19.0268 H   0  0  0  0  0  0
  -23.9803  -27.3009   19.0154 H   0  0  0  0  0  0
  -23.7371  -30.5957   19.4015 H   0  0  0  0  0  0
  -22.7505  -29.2412   19.8609 H   0  0  0  0  0  0
  -25.1278  -36.1950   25.0821 H   0  0  0  0  0  0
  -20.9976  -28.3268   24.1414 H   0  0  0  0  0  0
  -20.5673  -26.2300   23.3613 H   0  0  0  0  0  0
  -21.6635  -26.7446   22.1194 H   0  0  0  0  0  0
  -19.6900  -25.6299   21.1239 H   0  0  0  0  0  0
  -19.6676  -27.3207   20.6747 H   0  0  0  0  0  0
  -17.4188  -26.6695   21.4036 H   0  0  0  0  0  0
  -18.0324  -26.0080   22.9026 H   0  0  0  0  0  0
  -19.7924  -30.7280   24.2280 H   0  0  0  0  0  0
  -17.4997  -31.6267   24.5168 H   0  0  0  0  0  0
  -15.5343  -30.2981   23.7646 H   0  0  0  0  0  0
  -15.8680  -28.0824   22.7050 H   0  0  0  0  0  0
  -24.5914  -30.7056   25.7786 H   0  0  0  0  0  0
  -24.8924  -32.2869   26.4900 H   0  0  0  0  0  0
  -25.8079  -30.8880   27.0213 H   0  0  0  0  0  0
  -26.2861  -29.6788   24.1172 H   0  0  0  0  0  0
  -27.4027  -29.7262   25.4623 H   0  0  0  0  0  0
  -27.8729  -30.4312   23.9330 H   0  0  0  0  0  0
  -27.2651  -33.3607   26.2089 H   0  0  0  0  0  0
  -28.3843  -32.6912   25.0300 H   0  0  0  0  0  0
  -28.0739  -31.8433   26.5377 H   0  0  0  0  0  0
  -28.2568  -38.0128   24.7556 H   0  0  0  0  0  0
  -28.1119  -36.2662   24.6201 H   0  0  0  0  0  0
  -27.2315  -37.1345   25.8858 H   0  0  0  0  0  0
  -20.9355  -29.8756   21.6889 H   0  0  0  0  0  0
  -26.0173  -38.2859   24.1465 H   0  0  0  0  0  0
  -33.5220  -18.6111   21.7306 H   0  0  0  0  0  0
  -32.2499  -20.6004   21.2169 H   0  0  0  0  0  0
  -32.5200  -16.4008   21.6542 H   0  0  0  0  0  0
  -28.0343  -26.3395   22.1671 H   0  0  0  0  0  0
  -26.3340  -17.9867   21.3227 H   0  0  0  0  0  0
  -27.4793  -18.9834   22.2138 H   0  0  0  0  0  0
  -27.6191  -17.2272   22.2567 H   0  0  0  0  0  0
  -28.1534  -17.2208   19.7842 H   0  0  0  0  0  0
  -27.9938  -18.9399   19.7320 H   0  0  0  0  0  0
  -28.7877  -20.7808   20.0407 H   0  0  0  0  0  0
  -29.0405  -15.5821   21.0730 H   0  0  0  0  0  0
  -28.2712  -24.7379   23.3484 H   0  0  0  0  0  0
  1 25  1  0  0  0
  1 30  2  0  0  0
  1 84  1  0  0  0
  2  3  1  0  0  0
  2 25  1  0  0  0
  2 88  1  0  0  0
  2 89  1  0  0  0
  3  4  1  0  0  0
  3 90  1  0  0  0
  3 91  1  0  0  0
  4  5  1  0  0  0
  4 92  1  0  0  0
  4 93  1  0  0  0
  5  6  1  0  0  0
  5 26  1  0  0  0
  5 94  1  0  0  0
  6 25  1  0  0  0
  6 95  1  0  0  0
  6 96  1  0  0  0
  7  8  2  0  0  0
  7 26  1  0  0  0
  7 29  1  0  0  0
  8  9  1  0  0  0
  8 22  1  0  0  0
  9 10  1  0  0  0
  9 27  2  0  0  0
 10 11  2  0  0  0
 10 15  1  0  0  0
 11 12  1  0  0  0
 11 97  1  0  0  0
 12 13  2  0  0  0
 12 98  1  0  0  0
 13 14  1  0  0  0
 13 31  1  0  0  0
 14 15  2  0  0  0
 14 99  1  0  0  0
 15100  1  0  0  0
 16 17  2  0  0  0
 16 21  1  0  0  0
 16 31  1  0  0  0
 17 18  1  0  0  0
 17101  1  0  0  0
 18 19  2  0  0  0
 18102  1  0  0  0
 19 20  1  0  0  0
 19 24  1  0  0  0
 20 21  2  0  0  0
 20103  1  0  0  0
 21 23  1  0  0  0
 22 28  1  0  0  0
 22 32  2  0  0  0
 26 27  1  0  0  0
 28104  1  0  0  0
 28105  1  0  0  0
 29106  1  0  0  0
 29107  1  0  0  0
 33 34  1  0  0  0
 33 66  1  0  0  0
 33 70  2  0  0  0
 34 36  1  0  0  0
 34 59  1  0  0  0
 34108  1  0  0  0
 35 44  2  0  0  0
 35 45  1  0  0  0
 35 68  1  0  0  0
 36 56  1  0  0  0
 36109  1  0  0  0
 37 39  1  0  0  0
 37 47  1  0  0  0
 37 66  1  0  0  0
 37110  1  0  0  0
 38 43  2  0  0  0
 38 46  1  0  0  0
 38 47  1  0  0  0
 39 64  1  0  0  0
 39 67  2  0  0  0
 40 52  1  0  0  0
 40 53  2  0  0  0
 40 58  1  0  0  0
 41111  1  0  0  0
 41112  1  0  0  0
 41113  1  0  0  0
 41 48  1  0  0  0
 42 43  1  0  0  0
 42 66  1  0  0  0
 42114  1  0  0  0
 42115  1  0  0  0
 43 44  1  0  0  0
 44116  1  0  0  0
 45 46  2  0  0  0
 45117  1  0  0  0
 46118  1  0  0  0
 47119  1  0  0  0
 47120  1  0  0  0
 48 56  1  0  0  0
 48 65  1  0  0  0
 48121  1  0  0  0
 49 50  1  0  0  0
 49 53  1  0  0  0
 49 64  1  0  0  0
 49122  1  0  0  0
 50 51  1  0  0  0
 50123  1  0  0  0
 50124  1  0  0  0
 51 52  1  0  0  0
 51125  1  0  0  0
 51126  1  0  0  0
 52127  1  0  0  0
 52128  1  0  0  0
 53 54  1  0  0  0
 54 55  2  0  0  0
 54129  1  0  0  0
 55 57  1  0  0  0
 55130  1  0  0  0
 56 69  2  0  0  0
 57 58  2  0  0  0
 57131  1  0  0  0
 58132  1  0  0  0
 59 60  1  0  0  0
 59 61  1  0  0  0
 59 62  1  0  0  0
 60133  1  0  0  0
 60134  1  0  0  0
 60135  1  0  0  0
 61136  1  0  0  0
 61137  1  0  0  0
 61138  1  0  0  0
 62139  1  0  0  0
 62140  1  0  0  0
 62141  1  0  0  0
 63 65  1  0  0  0
 63142  1  0  0  0
 63143  1  0  0  0
 63144  1  0  0  0
 64145  1  0  0  0
 65146  1  0  0  0
 68 77  1  0  0  0
 71 72  2  0  0  0
 71 73  1  0  0  0
 71147  1  0  0  0
 72 75  1  0  0  0
 72148  1  0  0  0
 73 76  2  0  0  0
 73149  1  0  0  0
 74 75  2  0  0  0
 74 76  1  0  0  0
 74 82  1  0  0  0
 75 83  1  0  0  0
 76 84  1  0  0  0
 77 78  2  0  0  0
 77150  1  0  0  0
 78 79  1  0  0  0
 78 87  1  0  0  0
 79 80  1  0  0  0
 79 85  2  0  0  0
 80 83  1  0  0  0
 80 86  2  0  0  0
 81 82  1  0  0  0
 81151  1  0  0  0
 81152  1  0  0  0
 81153  1  0  0  0
 82154  1  0  0  0
 82155  1  0  0  0
 83156  1  0  0  0
 84157  1  0  0  0
 87158  1  0  0  0
M  ISO  4   1 100  68 101  77 101  84 100
M  END
> <chiral flag>
0

> <version>
0

> <s_m_source_file>
/data/baiqing/PycharmProjects/Reinvent-master-3.2/result/LINK_invent/BTK/process_docking_weight1_custom_product_contain_oxygen_bond_distance_aromatic_linkinvent_7_9_3/rearranged_h_0166.sdf

> <i_m_source_file_index>
36

> <r_mmod_Potential_Energy-OPLS-2005>
157.895843505859

> <r_mmod_Stretch_Energy-OPLS-2005>
75.9012832641602

> <r_mmod_Bend_Energy-OPLS-2005>
136.092514038086

> <r_mmod_Torsional_Energy-OPLS-2005>
245.298370361328

> <r_mmod_Improper_Torsional_Energy-OPLS-2005>
4.62293481826782

> <r_mmod_Van_der_Waal_Energy-OPLS-2005>
153.955703735352

> <r_mmod_Electrostatic_Energy-OPLS-2005>
-255.556396484375

> <r_mmod_Solvation_Energy-OPLS-2005>
-238.875549316406

> <b_mmod_Minimization_Converged-OPLS-2005>
0

> <r_mmod_RMS_Derivative-OPLS-2005>
0.784565329551697

$$$$
36
                    3D
 Structure written by MMmdl.
164173  0  0  1  0            999 V2000
  -30.7006  -14.5702   20.5358 C   0  0  0  0  0  0
  -30.4176  -12.3633   19.4378 C   0  0  0  0  0  0
  -29.4927  -12.5071   18.2128 C   0  0  0  0  0  0
  -28.0164  -12.3570   18.6292 C   0  0  0  0  0  0
  -27.6520  -13.2228   19.8650 C   0  0  2  0  0  0
  -28.7006  -13.0815   20.9918 C   0  0  0  0  0  0
  -25.2546  -13.8193   20.5715 C   0  0  0  0  0  0
  -24.1824  -13.0450   20.9214 C   0  0  0  0  0  0
  -24.6401  -11.6925   20.8763 C   0  0  0  0  0  0
  -23.9071  -10.4304   21.0418 C   0  0  0  0  0  0
  -24.3618   -9.4218   21.9196 C   0  0  0  0  0  0
  -23.6291   -8.2251   22.0762 C   0  0  0  0  0  0
  -22.4275   -8.0290   21.3546 C   0  0  0  0  0  0
  -21.9918   -9.0265   20.4651 C   0  0  0  0  0  0
  -22.7243  -10.2151   20.3066 C   0  0  0  0  0  0
  -21.6847   -6.0751   22.5279 C   0  0  0  0  0  0
  -21.4008   -6.5650   23.8216 C   0  0  0  0  0  0
  -21.3661   -5.6801   24.9176 C   0  0  0  0  0  0
  -21.6049   -4.3064   24.7222 C   0  0  0  0  0  0
  -21.8817   -3.8159   23.4340 C   0  0  0  0  0  0
  -21.9187   -4.6978   22.3399 C   0  0  0  0  0  0
  -22.7845  -13.5235   21.1869 C   0  0  0  0  0  0
  -22.1659   -4.2165   21.0978 F   0  0  0  0  0  0
  -21.5630   -3.4554   25.7737 F   0  0  0  0  0  0
  -30.0159  -13.3932   20.4162 N   0  0  0  0  0  0
  -26.2990  -12.9396   20.3361 N   0  0  0  0  0  0
  -25.9333  -11.6541   20.5788 N   0  0  0  0  0  0
  -22.0482  -12.8233   22.0415 N   0  0  0  0  0  0
  -25.4234  -15.1921   20.4116 N   0  0  0  0  0  0
  -31.8617  -14.6705   20.1288 O   0  0  0  0  0  0
  -21.6632   -6.8892   21.4238 O   0  0  0  0  0  0
  -22.3542  -14.5546   20.6710 O   0  0  0  0  0  0
  -24.6263  -31.8607   23.2058 C   0  0  0  0  0  0
  -25.9117  -32.4781   23.8379 C   0  0  1  0  0  0
  -27.2212  -27.3290   20.1030 C   0  0  0  0  0  0
  -25.5940  -33.8582   24.2295 N   0  0  0  0  0  0
  -23.4179  -30.4887   21.5496 C   0  0  2  0  0  0
  -24.8631  -28.9514   20.1108 C   0  0  0  0  0  0
  -22.7458  -29.4629   22.4928 C   0  0  0  0  0  0
  -18.0291  -28.1382   22.8496 C   0  0  0  0  0  0
  -24.1482  -36.7283   23.2631 C   0  0  0  0  0  0
  -25.9607  -30.7929   21.3792 C   0  0  0  0  0  0
  -26.0337  -29.4238   20.7174 C   0  0  0  0  0  0
  -27.2143  -28.6226   20.7094 C   0  0  0  0  0  0
  -26.0224  -26.9178   19.4664 C   0  0  0  0  0  0
  -24.8578  -27.7017   19.4809 C   0  0  0  0  0  0
  -23.6311  -29.8299   20.1637 C   0  0  0  0  0  0
  -25.4106  -36.3067   24.0317 C   0  0  1  0  0  0
  -20.5885  -28.3690   23.1277 C   0  0  2  0  0  0
  -20.6772  -26.9409   22.5409 C   0  0  0  0  0  0
  -19.5746  -26.6386   21.5209 C   0  0  0  0  0  0
  -18.1927  -26.7929   22.1620 C   0  0  0  0  0  0
  -19.1541  -28.8851   23.2882 C   0  0  0  0  0  0
  -18.9466  -30.1453   23.8897 C   0  0  0  0  0  0
  -17.6464  -30.6591   24.0567 C   0  0  0  0  0  0
  -25.9055  -34.9441   23.5098 C   0  0  0  0  0  0
  -16.5352  -29.9092   23.6337 C   0  0  0  0  0  0
  -16.7277  -28.6502   23.0373 C   0  0  0  0  0  0
  -26.4516  -31.6592   25.0748 C   0  0  0  0  0  0
  -25.3746  -31.3711   26.1471 C   0  0  0  0  0  0
  -27.0388  -30.3018   24.6215 C   0  0  0  0  0  0
  -27.6074  -32.4336   25.7515 C   0  0  0  0  0  0
  -27.5586  -37.1763   24.8444 C   0  0  0  0  0  0
  -21.4171  -29.3046   22.3666 N   0  0  0  0  0  0
  -26.4266  -37.3786   23.9433 N   0  0  0  0  0  0
  -24.6874  -31.0614   22.1026 N   0  0  0  0  0  0
  -23.4174  -28.8147   23.2998 O   0  0  0  0  0  0
  -28.3380  -26.4736   20.1563 O   0  0  0  0  0  0
  -26.5617  -34.8900   22.4662 O   0  0  0  0  0  0
  -23.5425  -32.1432   23.7372 O   0  0  0  0  0  0
  -32.3034  -18.3780   22.1948 C   0  0  0  0  0  0
  -31.5999  -19.5568   21.8924 C   0  0  0  0  0  0
  -31.7748  -17.1209   21.8604 C   0  0  0  0  0  0
  -29.8072  -18.2205   20.9305 C   0  0  0  0  0  0
  -30.3351  -19.5186   21.2585 C   0  0  0  0  0  0
  -30.5250  -17.0047   21.2100 C   0  0  0  0  0  0
  -29.4180  -21.2570   19.5191 C   0  0  0  0  0  0
  -30.1332  -22.1239   21.7243 C   0  0  0  0  0  0
  -28.5992  -22.5752   19.3081 C   0  0  0  0  0  0
  -29.3099  -23.4370   21.5129 C   0  0  0  0  0  0
  -29.5570  -20.8593   21.0063 C   0  0  2  0  0  0
  -29.1413  -23.8596   20.0234 C   0  0  2  0  0  0
  -31.2426  -25.0908   19.9056 C   0  0  0  0  0  0
  -28.1226  -25.0640   19.7681 C   0  0  0  0  0  0
  -29.9998  -15.6793   20.9182 N   0  0  0  0  0  0
  -30.3869  -24.0936   19.3596 O   0  0  0  0  0  0
  -31.4611  -12.4532   19.1322 H   0  0  0  0  0  0
  -30.3220  -11.3677   19.8767 H   0  0  0  0  0  0
  -29.7449  -11.7622   17.4565 H   0  0  0  0  0  0
  -29.6477  -13.4803   17.7448 H   0  0  0  0  0  0
  -27.8401  -11.3039   18.8477 H   0  0  0  0  0  0
  -27.3617  -12.6056   17.7915 H   0  0  0  0  0  0
  -27.6711  -14.2598   19.5293 H   0  0  0  0  0  0
  -28.7020  -12.0668   21.3929 H   0  0  0  0  0  0
  -28.4631  -13.7356   21.8320 H   0  0  0  0  0  0
  -25.2759   -9.5698   22.4780 H   0  0  0  0  0  0
  -24.0004   -7.4645   22.7480 H   0  0  0  0  0  0
  -21.0855   -8.8785   19.8947 H   0  0  0  0  0  0
  -22.3695  -10.9697   19.6188 H   0  0  0  0  0  0
  -21.2002   -7.6163   23.9719 H   0  0  0  0  0  0
  -21.1488   -6.0537   25.9078 H   0  0  0  0  0  0
  -22.0595   -2.7621   23.2836 H   0  0  0  0  0  0
  -22.4080  -11.9877   22.4792 H   0  0  0  0  0  0
  -21.1101  -13.1274   22.2613 H   0  0  0  0  0  0
  -24.6547  -15.8452   20.5182 H   0  0  0  0  0  0
  -26.2712  -15.6321   20.0779 H   0  0  0  0  0  0
  -26.7182  -32.5445   23.1124 H   0  0  0  0  0  0
  -25.0073  -33.9764   25.0424 H   0  0  0  0  0  0
  -22.7122  -31.3101   21.4110 H   0  0  0  0  0  0
  -23.3768  -35.9590   23.3243 H   0  0  0  0  0  0
  -24.3580  -36.8989   22.2063 H   0  0  0  0  0  0
  -23.7205  -37.6444   23.6713 H   0  0  0  0  0  0
  -26.0936  -31.5584   20.6143 H   0  0  0  0  0  0
  -26.8406  -30.8379   22.0090 H   0  0  0  0  0  0
  -28.1098  -28.9789   21.1990 H   0  0  0  0  0  0
  -25.9391  -25.9716   18.9551 H   0  0  0  0  0  0
  -23.9596  -27.3330   19.0063 H   0  0  0  0  0  0
  -23.7468  -30.6109   19.4115 H   0  0  0  0  0  0
  -22.7514  -29.2601   19.8627 H   0  0  0  0  0  0
  -25.1276  -36.1904   25.0806 H   0  0  0  0  0  0
  -20.9984  -28.3284   24.1397 H   0  0  0  0  0  0
  -20.5685  -26.2301   23.3609 H   0  0  0  0  0  0
  -21.6640  -26.7443   22.1211 H   0  0  0  0  0  0
  -19.6906  -25.6304   21.1244 H   0  0  0  0  0  0
  -19.6682  -27.3186   20.6733 H   0  0  0  0  0  0
  -17.4198  -26.6700   21.4017 H   0  0  0  0  0  0
  -18.0304  -26.0071   22.9012 H   0  0  0  0  0  0
  -19.7945  -30.7274   24.2257 H   0  0  0  0  0  0
  -17.5031  -31.6275   24.5174 H   0  0  0  0  0  0
  -15.5358  -30.2992   23.7669 H   0  0  0  0  0  0
  -15.8676  -28.0813   22.7093 H   0  0  0  0  0  0
  -24.5935  -30.7049   25.7790 H   0  0  0  0  0  0
  -24.8905  -32.2864   26.4884 H   0  0  0  0  0  0
  -25.8075  -30.8900   27.0252 H   0  0  0  0  0  0
  -26.2986  -29.6722   24.1262 H   0  0  0  0  0  0
  -27.4137  -29.7312   25.4726 H   0  0  0  0  0  0
  -27.8824  -30.4325   23.9429 H   0  0  0  0  0  0
  -27.2717  -33.3682   26.2023 H   0  0  0  0  0  0
  -28.3915  -32.6828   25.0351 H   0  0  0  0  0  0
  -28.0706  -31.8502   26.5490 H   0  0  0  0  0  0
  -28.2506  -38.0159   24.7641 H   0  0  0  0  0  0
  -28.1193  -36.2699   24.6094 H   0  0  0  0  0  0
  -27.2324  -37.1189   25.8845 H   0  0  0  0  0  0
  -20.9322  -29.8798   21.6920 H   0  0  0  0  0  0
  -26.0135  -38.2828   24.1569 H   0  0  0  0  0  0
  -33.2573  -18.4384   22.6999 H   0  0  0  0  0  0
  -32.0560  -20.4899   22.1863 H   0  0  0  0  0  0
  -32.3463  -16.2431   22.1254 H   0  0  0  0  0  0
  -28.8371  -18.1609   20.4577 H   0  0  0  0  0  0
  -30.4088  -21.3691   19.0774 H   0  0  0  0  0  0
  -28.9365  -20.4449   18.9730 H   0  0  0  0  0  0
  -30.2125  -21.9297   22.7951 H   0  0  0  0  0  0
  -31.1479  -22.3106   21.3693 H   0  0  0  0  0  0
  -27.5786  -22.3895   19.6483 H   0  0  0  0  0  0
  -28.5145  -22.7613   18.2366 H   0  0  0  0  0  0
  -29.7502  -24.2503   22.0889 H   0  0  0  0  0  0
  -28.3206  -23.2873   21.9472 H   0  0  0  0  0  0
  -28.5558  -20.6905   21.4049 H   0  0  0  0  0  0
  -32.1341  -25.1706   19.2822 H   0  0  0  0  0  0
  -31.5805  -24.8374   20.9093 H   0  0  0  0  0  0
  -30.7736  -26.0722   19.9277 H   0  0  0  0  0  0
  -27.1984  -24.7351   20.2449 H   0  0  0  0  0  0
  -27.9291  -25.0767   18.6948 H   0  0  0  0  0  0
  -29.0041  -15.5537   21.0206 H   0  0  0  0  0  0
  1 25  1  0  0  0
  1 30  2  0  0  0
  1 85  1  0  0  0
  2  3  1  0  0  0
  2 25  1  0  0  0
  2 87  1  0  0  0
  2 88  1  0  0  0
  3  4  1  0  0  0
  3 89  1  0  0  0
  3 90  1  0  0  0
  4  5  1  0  0  0
  4 91  1  0  0  0
  4 92  1  0  0  0
  5  6  1  0  0  0
  5 26  1  0  0  0
  5 93  1  0  0  0
  6 25  1  0  0  0
  6 94  1  0  0  0
  6 95  1  0  0  0
  7  8  2  0  0  0
  7 26  1  0  0  0
  7 29  1  0  0  0
  8  9  1  0  0  0
  8 22  1  0  0  0
  9 10  1  0  0  0
  9 27  2  0  0  0
 10 11  2  0  0  0
 10 15  1  0  0  0
 11 12  1  0  0  0
 11 96  1  0  0  0
 12 13  2  0  0  0
 12 97  1  0  0  0
 13 14  1  0  0  0
 13 31  1  0  0  0
 14 15  2  0  0  0
 14 98  1  0  0  0
 15 99  1  0  0  0
 16 17  2  0  0  0
 16 21  1  0  0  0
 16 31  1  0  0  0
 17 18  1  0  0  0
 17100  1  0  0  0
 18 19  2  0  0  0
 18101  1  0  0  0
 19 20  1  0  0  0
 19 24  1  0  0  0
 20 21  2  0  0  0
 20102  1  0  0  0
 21 23  1  0  0  0
 22 28  1  0  0  0
 22 32  2  0  0  0
 26 27  1  0  0  0
 28103  1  0  0  0
 28104  1  0  0  0
 29105  1  0  0  0
 29106  1  0  0  0
 33 34  1  0  0  0
 33 66  1  0  0  0
 33 70  2  0  0  0
 34 36  1  0  0  0
 34 59  1  0  0  0
 34107  1  0  0  0
 35 44  2  0  0  0
 35 45  1  0  0  0
 35 68  1  0  0  0
 36 56  1  0  0  0
 36108  1  0  0  0
 37 39  1  0  0  0
 37 47  1  0  0  0
 37 66  1  0  0  0
 37109  1  0  0  0
 38 43  2  0  0  0
 38 46  1  0  0  0
 38 47  1  0  0  0
 39 64  1  0  0  0
 39 67  2  0  0  0
 40 52  1  0  0  0
 40 53  2  0  0  0
 40 58  1  0  0  0
 41110  1  0  0  0
 41111  1  0  0  0
 41112  1  0  0  0
 41 48  1  0  0  0
 42 43  1  0  0  0
 42 66  1  0  0  0
 42113  1  0  0  0
 42114  1  0  0  0
 43 44  1  0  0  0
 44115  1  0  0  0
 45 46  2  0  0  0
 45116  1  0  0  0
 46117  1  0  0  0
 47118  1  0  0  0
 47119  1  0  0  0
 48 56  1  0  0  0
 48 65  1  0  0  0
 48120  1  0  0  0
 49 50  1  0  0  0
 49 53  1  0  0  0
 49 64  1  0  0  0
 49121  1  0  0  0
 50 51  1  0  0  0
 50122  1  0  0  0
 50123  1  0  0  0
 51 52  1  0  0  0
 51124  1  0  0  0
 51125  1  0  0  0
 52126  1  0  0  0
 52127  1  0  0  0
 53 54  1  0  0  0
 54 55  2  0  0  0
 54128  1  0  0  0
 55 57  1  0  0  0
 55129  1  0  0  0
 56 69  2  0  0  0
 57 58  2  0  0  0
 57130  1  0  0  0
 58131  1  0  0  0
 59 60  1  0  0  0
 59 61  1  0  0  0
 59 62  1  0  0  0
 60132  1  0  0  0
 60133  1  0  0  0
 60134  1  0  0  0
 61135  1  0  0  0
 61136  1  0  0  0
 61137  1  0  0  0
 62138  1  0  0  0
 62139  1  0  0  0
 62140  1  0  0  0
 63 65  1  0  0  0
 63141  1  0  0  0
 63142  1  0  0  0
 63143  1  0  0  0
 64144  1  0  0  0
 65145  1  0  0  0
 68 84  1  0  0  0
 71 72  2  0  0  0
 71 73  1  0  0  0
 71146  1  0  0  0
 72 75  1  0  0  0
 72147  1  0  0  0
 73 76  2  0  0  0
 73148  1  0  0  0
 74 75  2  0  0  0
 74 76  1  0  0  0
 74149  1  0  0  0
 75 81  1  0  0  0
 76 85  1  0  0  0
 77 79  1  0  0  0
 77 81  1  0  0  0
 77150  1  0  0  0
 77151  1  0  0  0
 78 80  1  0  0  0
 78 81  1  0  0  0
 78152  1  0  0  0
 78153  1  0  0  0
 79 82  1  0  0  0
 79154  1  0  0  0
 79155  1  0  0  0
 80 82  1  0  0  0
 80156  1  0  0  0
 80157  1  0  0  0
 81158  1  0  0  0
 82 84  1  0  0  0
 82 86  1  0  0  0
 83 86  1  0  0  0
 83159  1  0  0  0
 83160  1  0  0  0
 83161  1  0  0  0
 84162  1  0  0  0
 84163  1  0  0  0
 85164  1  0  0  0
M  ISO  4   1 100  68 101  84 101  85 100
M  END
> <chiral flag>
0

> <version>
0

> <s_m_source_file>
/data/baiqing/PycharmProjects/Reinvent-master-3.2/result/LINK_invent/BTK/process_docking_weight1_custom_product_contain_oxygen_bond_distance_aromatic_linkinvent_7_9_3/rearranged_h_0166.sdf

> <i_m_source_file_index>
37

> <r_mmod_Potential_Energy-OPLS-2005>
78.4158172607422

> <r_mmod_Stretch_Energy-OPLS-2005>
74.2648620605469

> <r_mmod_Bend_Energy-OPLS-2005>
144.966415405273

> <r_mmod_Torsional_Energy-OPLS-2005>
237.212219238281

> <r_mmod_Improper_Torsional_Energy-OPLS-2005>
4.63951301574707

> <r_mmod_Van_der_Waal_Energy-OPLS-2005>
163.539916992188

> <r_mmod_Electrostatic_Energy-OPLS-2005>
-376.734710693359

> <r_mmod_Solvation_Energy-OPLS-2005>
-208.397491455078

> <b_mmod_Minimization_Converged-OPLS-2005>
0

> <r_mmod_RMS_Derivative-OPLS-2005>
2.06654739379883

$$$$
37
                    3D
 Structure written by MMmdl.
159167  0  0  1  0            999 V2000
  -30.6989  -14.4948   20.5789 C   0  0  0  0  0  0
  -30.4144  -12.3242   19.4471 C   0  0  0  0  0  0
  -29.4973  -12.5098   18.2221 C   0  0  0  0  0  0
  -28.0207  -12.3434   18.6306 C   0  0  0  0  0  0
  -27.6500  -13.2108   19.8648 C   0  0  2  0  0  0
  -28.6821  -13.0282   21.0008 C   0  0  0  0  0  0
  -25.2508  -13.8201   20.5643 C   0  0  0  0  0  0
  -24.1776  -13.0468   20.9198 C   0  0  0  0  0  0
  -24.6336  -11.6943   20.8732 C   0  0  0  0  0  0
  -23.9030  -10.4324   21.0417 C   0  0  0  0  0  0
  -24.3596   -9.4230   21.9183 C   0  0  0  0  0  0
  -23.6283   -8.2253   22.0755 C   0  0  0  0  0  0
  -22.4259   -8.0293   21.3555 C   0  0  0  0  0  0
  -21.9903   -9.0253   20.4628 C   0  0  0  0  0  0
  -22.7229  -10.2140   20.3045 C   0  0  0  0  0  0
  -21.6844   -6.0740   22.5300 C   0  0  0  0  0  0
  -21.4001   -6.5643   23.8230 C   0  0  0  0  0  0
  -21.3656   -5.6781   24.9185 C   0  0  0  0  0  0
  -21.6068   -4.3052   24.7228 C   0  0  0  0  0  0
  -21.8818   -3.8146   23.4341 C   0  0  0  0  0  0
  -21.9176   -4.6971   22.3404 C   0  0  0  0  0  0
  -22.7789  -13.5246   21.1847 C   0  0  0  0  0  0
  -22.1633   -4.2152   21.0988 F   0  0  0  0  0  0
  -21.5651   -3.4536   25.7750 F   0  0  0  0  0  0
  -30.0161  -13.3244   20.4522 N   0  0  0  0  0  0
  -26.2922  -12.9361   20.3285 N   0  0  0  0  0  0
  -25.9248  -11.6528   20.5726 N   0  0  0  0  0  0
  -22.0399  -12.8244   22.0417 N   0  0  0  0  0  0
  -25.4243  -15.1908   20.3992 N   0  0  0  0  0  0
  -31.8354  -14.6333   20.1143 O   0  0  0  0  0  0
  -21.6636   -6.8887   21.4267 O   0  0  0  0  0  0
  -22.3472  -14.5527   20.6657 O   0  0  0  0  0  0
  -24.6140  -31.8644   23.2017 C   0  0  0  0  0  0
  -25.9016  -32.4799   23.8337 C   0  0  1  0  0  0
  -27.2330  -27.4057   20.1152 C   0  0  0  0  0  0
  -25.5839  -33.8598   24.2262 N   0  0  0  0  0  0
  -23.4022  -30.4858   21.5436 C   0  0  2  0  0  0
  -24.8493  -28.9463   20.1075 C   0  0  0  0  0  0
  -22.7394  -29.4651   22.4973 C   0  0  0  0  0  0
  -18.0255  -28.1390   22.8482 C   0  0  0  0  0  0
  -24.1468  -36.7323   23.2648 C   0  0  0  0  0  0
  -25.9282  -30.8294   21.3483 C   0  0  0  0  0  0
  -26.0051  -29.4549   20.7100 C   0  0  0  0  0  0
  -27.1944  -28.6892   20.7140 C   0  0  0  0  0  0
  -26.0533  -26.9135   19.5076 C   0  0  0  0  0  0
  -24.8719  -27.6792   19.4977 C   0  0  0  0  0  0
  -23.6042  -29.8042   20.1611 C   0  0  0  0  0  0
  -25.4088  -36.3105   24.0340 C   0  0  1  0  0  0
  -20.5852  -28.3650   23.1325 C   0  0  2  0  0  0
  -20.6738  -26.9382   22.5431 C   0  0  0  0  0  0
  -19.5730  -26.6387   21.5210 C   0  0  0  0  0  0
  -18.1903  -26.7933   22.1622 C   0  0  0  0  0  0
  -19.1514  -28.8832   23.2904 C   0  0  0  0  0  0
  -18.9446  -30.1448   23.8907 C   0  0  0  0  0  0
  -17.6453  -30.6590   24.0572 C   0  0  0  0  0  0
  -25.9022  -34.9473   23.5116 C   0  0  0  0  0  0
  -16.5339  -29.9109   23.6322 C   0  0  0  0  0  0
  -16.7248  -28.6535   23.0315 C   0  0  0  0  0  0
  -26.4421  -31.6597   25.0689 C   0  0  0  0  0  0
  -25.3678  -31.3713   26.1437 C   0  0  0  0  0  0
  -27.0248  -30.3051   24.6045 C   0  0  0  0  0  0
  -27.5998  -32.4310   25.7452 C   0  0  0  0  0  0
  -27.5573  -37.1790   24.8453 C   0  0  0  0  0  0
  -21.4118  -29.3027   22.3727 N   0  0  0  0  0  0
  -26.4265  -37.3801   23.9428 N   0  0  0  0  0  0
  -24.6674  -31.0752   22.0907 N   0  0  0  0  0  0
  -23.4168  -28.8208   23.3025 O   0  0  0  0  0  0
  -28.4181  -26.6907   20.1742 O   0  0  0  0  0  0
  -26.5633  -34.8937   22.4707 O   0  0  0  0  0  0
  -23.5333  -32.1387   23.7419 O   0  0  0  0  0  0
  -29.6886  -18.0106   20.7042 C   0  0  0  0  0  0
  -31.8148  -17.1862   21.5399 C   0  0  0  0  0  0
  -31.6159  -19.5181   20.8128 C   0  0  0  0  0  0
  -30.4963  -16.9126   21.1197 C   0  0  0  0  0  0
  -30.2305  -19.3209   20.5514 C   0  0  0  0  0  0
  -32.3749  -18.4607   21.3682 C   0  0  0  0  0  0
  -28.9518  -22.8096   19.8732 C   0  0  0  0  0  0
  -28.4316  -24.1806   20.4383 C   0  0  0  0  0  0
  -33.0371  -20.6546   19.0465 C   0  0  0  0  0  0
  -32.3722  -20.7896   20.4255 C   0  0  0  0  0  0
  -29.1201  -21.5666   20.7934 C   0  0  0  0  0  0
  -28.5704  -25.4170   19.5070 C   0  0  0  0  0  0
  -30.0173  -15.5528   21.0907 N   0  0  0  0  0  0
  -29.4017  -20.3356   20.0184 N   0  0  0  0  0  0
  -29.2488  -22.7075   18.6752 O   0  0  0  0  0  0
  -27.9250  -24.2634   21.5654 O   0  0  0  0  0  0
  -33.6799  -18.6443   21.6832 F   0  0  0  0  0  0
  -31.4623  -12.4107   19.1540 H   0  0  0  0  0  0
  -30.3060  -11.3183   19.8551 H   0  0  0  0  0  0
  -29.7598  -11.7965   17.4410 H   0  0  0  0  0  0
  -29.6496  -13.5026   17.7968 H   0  0  0  0  0  0
  -27.8578  -11.2883   18.8600 H   0  0  0  0  0  0
  -27.3602  -12.5731   17.7943 H   0  0  0  0  0  0
  -27.6837  -14.2540   19.5452 H   0  0  0  0  0  0
  -28.6554  -12.0033   21.3735 H   0  0  0  0  0  0
  -28.4303  -13.6515   21.8602 H   0  0  0  0  0  0
  -25.2745   -9.5735   22.4742 H   0  0  0  0  0  0
  -24.0009   -7.4669   22.7484 H   0  0  0  0  0  0
  -21.0844   -8.8759   19.8927 H   0  0  0  0  0  0
  -22.3689  -10.9656   19.6136 H   0  0  0  0  0  0
  -21.1988   -7.6145   23.9748 H   0  0  0  0  0  0
  -21.1474   -6.0501   25.9094 H   0  0  0  0  0  0
  -22.0589   -2.7605   23.2841 H   0  0  0  0  0  0
  -22.3909  -11.9877   22.4825 H   0  0  0  0  0  0
  -21.1006  -13.1279   22.2585 H   0  0  0  0  0  0
  -24.6662  -15.8539   20.5294 H   0  0  0  0  0  0
  -26.2731  -15.6245   20.0579 H   0  0  0  0  0  0
  -26.7093  -32.5499   23.1111 H   0  0  0  0  0  0
  -24.9838  -33.9715   25.0302 H   0  0  0  0  0  0
  -22.6925  -31.3010   21.3971 H   0  0  0  0  0  0
  -23.3728  -35.9656   23.3279 H   0  0  0  0  0  0
  -24.3563  -36.8980   22.2067 H   0  0  0  0  0  0
  -23.7205  -37.6513   23.6686 H   0  0  0  0  0  0
  -26.0180  -31.5790   20.5597 H   0  0  0  0  0  0
  -26.8270  -30.9089   21.9484 H   0  0  0  0  0  0
  -28.0842  -29.0767   21.1898 H   0  0  0  0  0  0
  -26.0104  -25.9352   19.0552 H   0  0  0  0  0  0
  -23.9840  -27.2819   19.0237 H   0  0  0  0  0  0
  -23.6770  -30.5613   19.3798 H   0  0  0  0  0  0
  -22.7362  -29.1970   19.8956 H   0  0  0  0  0  0
  -25.1260  -36.1958   25.0830 H   0  0  0  0  0  0
  -20.9943  -28.3209   24.1450 H   0  0  0  0  0  0
  -20.5592  -26.2254   23.3609 H   0  0  0  0  0  0
  -21.6607  -26.7390   22.1251 H   0  0  0  0  0  0
  -19.6877  -25.6305   21.1223 H   0  0  0  0  0  0
  -19.6690  -27.3206   20.6751 H   0  0  0  0  0  0
  -17.4164  -26.6657   21.4037 H   0  0  0  0  0  0
  -18.0322  -26.0094   22.9037 H   0  0  0  0  0  0
  -19.7926  -30.7264   24.2274 H   0  0  0  0  0  0
  -17.5010  -31.6265   24.5186 H   0  0  0  0  0  0
  -15.5345  -30.3020   23.7653 H   0  0  0  0  0  0
  -15.8639  -28.0890   22.6991 H   0  0  0  0  0  0
  -24.5814  -30.7111   25.7757 H   0  0  0  0  0  0
  -24.8903  -32.2878   26.4917 H   0  0  0  0  0  0
  -25.8009  -30.8827   27.0169 H   0  0  0  0  0  0
  -26.2782  -29.6818   24.1107 H   0  0  0  0  0  0
  -27.4045  -29.7282   25.4481 H   0  0  0  0  0  0
  -27.8588  -30.4391   23.9156 H   0  0  0  0  0  0
  -27.2617  -33.3591   26.2060 H   0  0  0  0  0  0
  -28.3786  -32.6889   25.0271 H   0  0  0  0  0  0
  -28.0677  -31.8408   26.5332 H   0  0  0  0  0  0
  -28.2564  -38.0116   24.7546 H   0  0  0  0  0  0
  -28.1090  -36.2650   24.6200 H   0  0  0  0  0  0
  -27.2302  -37.1346   25.8857 H   0  0  0  0  0  0
  -20.9269  -29.8734   21.6942 H   0  0  0  0  0  0
  -26.0153  -38.2872   24.1468 H   0  0  0  0  0  0
  -28.6581  -17.8407   20.4185 H   0  0  0  0  0  0
  -32.4463  -16.3988   21.9252 H   0  0  0  0  0  0
  -33.6460  -21.5316   18.8148 H   0  0  0  0  0  0
  -32.2912  -20.5419   18.2593 H   0  0  0  0  0  0
  -33.6880  -19.7788   19.0037 H   0  0  0  0  0  0
  -33.1391  -20.9877   21.1737 H   0  0  0  0  0  0
  -31.7394  -21.6705   20.4180 H   0  0  0  0  0  0
  -28.2100  -21.4256   21.3784 H   0  0  0  0  0  0
  -29.9116  -21.7716   21.5120 H   0  0  0  0  0  0
  -27.9354  -25.3245   18.6264 H   0  0  0  0  0  0
  -29.5953  -25.4023   19.1335 H   0  0  0  0  0  0
  -29.0468  -15.3914   21.3177 H   0  0  0  0  0  0
  -29.6628  -20.6243   19.0757 H   0  0  0  0  0  0
  1 25  1  0  0  0
  1 30  2  0  0  0
  1 83  1  0  0  0
  2  3  1  0  0  0
  2 25  1  0  0  0
  2 88  1  0  0  0
  2 89  1  0  0  0
  3  4  1  0  0  0
  3 90  1  0  0  0
  3 91  1  0  0  0
  4  5  1  0  0  0
  4 92  1  0  0  0
  4 93  1  0  0  0
  5  6  1  0  0  0
  5 26  1  0  0  0
  5 94  1  0  0  0
  6 25  1  0  0  0
  6 95  1  0  0  0
  6 96  1  0  0  0
  7  8  2  0  0  0
  7 26  1  0  0  0
  7 29  1  0  0  0
  8  9  1  0  0  0
  8 22  1  0  0  0
  9 10  1  0  0  0
  9 27  2  0  0  0
 10 11  2  0  0  0
 10 15  1  0  0  0
 11 12  1  0  0  0
 11 97  1  0  0  0
 12 13  2  0  0  0
 12 98  1  0  0  0
 13 14  1  0  0  0
 13 31  1  0  0  0
 14 15  2  0  0  0
 14 99  1  0  0  0
 15100  1  0  0  0
 16 17  2  0  0  0
 16 21  1  0  0  0
 16 31  1  0  0  0
 17 18  1  0  0  0
 17101  1  0  0  0
 18 19  2  0  0  0
 18102  1  0  0  0
 19 20  1  0  0  0
 19 24  1  0  0  0
 20 21  2  0  0  0
 20103  1  0  0  0
 21 23  1  0  0  0
 22 28  1  0  0  0
 22 32  2  0  0  0
 26 27  1  0  0  0
 28104  1  0  0  0
 28105  1  0  0  0
 29106  1  0  0  0
 29107  1  0  0  0
 33 34  1  0  0  0
 33 66  1  0  0  0
 33 70  2  0  0  0
 34 36  1  0  0  0
 34 59  1  0  0  0
 34108  1  0  0  0
 35 44  2  0  0  0
 35 45  1  0  0  0
 35 68  1  0  0  0
 36 56  1  0  0  0
 36109  1  0  0  0
 37 39  1  0  0  0
 37 47  1  0  0  0
 37 66  1  0  0  0
 37110  1  0  0  0
 38 43  2  0  0  0
 38 46  1  0  0  0
 38 47  1  0  0  0
 39 64  1  0  0  0
 39 67  2  0  0  0
 40 52  1  0  0  0
 40 53  2  0  0  0
 40 58  1  0  0  0
 41111  1  0  0  0
 41112  1  0  0  0
 41113  1  0  0  0
 41 48  1  0  0  0
 42 43  1  0  0  0
 42 66  1  0  0  0
 42114  1  0  0  0
 42115  1  0  0  0
 43 44  1  0  0  0
 44116  1  0  0  0
 45 46  2  0  0  0
 45117  1  0  0  0
 46118  1  0  0  0
 47119  1  0  0  0
 47120  1  0  0  0
 48 56  1  0  0  0
 48 65  1  0  0  0
 48121  1  0  0  0
 49 50  1  0  0  0
 49 53  1  0  0  0
 49 64  1  0  0  0
 49122  1  0  0  0
 50 51  1  0  0  0
 50123  1  0  0  0
 50124  1  0  0  0
 51 52  1  0  0  0
 51125  1  0  0  0
 51126  1  0  0  0
 52127  1  0  0  0
 52128  1  0  0  0
 53 54  1  0  0  0
 54 55  2  0  0  0
 54129  1  0  0  0
 55 57  1  0  0  0
 55130  1  0  0  0
 56 69  2  0  0  0
 57 58  2  0  0  0
 57131  1  0  0  0
 58132  1  0  0  0
 59 60  1  0  0  0
 59 61  1  0  0  0
 59 62  1  0  0  0
 60133  1  0  0  0
 60134  1  0  0  0
 60135  1  0  0  0
 61136  1  0  0  0
 61137  1  0  0  0
 61138  1  0  0  0
 62139  1  0  0  0
 62140  1  0  0  0
 62141  1  0  0  0
 63 65  1  0  0  0
 63142  1  0  0  0
 63143  1  0  0  0
 63144  1  0  0  0
 64145  1  0  0  0
 65146  1  0  0  0
 68 82  1  0  0  0
 71 74  2  0  0  0
 71 75  1  0  0  0
 71147  1  0  0  0
 72 74  1  0  0  0
 72 76  2  0  0  0
 72148  1  0  0  0
 73 75  2  0  0  0
 73 76  1  0  0  0
 73 80  1  0  0  0
 74 83  1  0  0  0
 75 84  1  0  0  0
 76 87  1  0  0  0
 77 78  1  0  0  0
 77 81  1  0  0  0
 77 85  2  0  0  0
 78 82  1  0  0  0
 78 86  2  0  0  0
 79 80  1  0  0  0
 79149  1  0  0  0
 79150  1  0  0  0
 79151  1  0  0  0
 80152  1  0  0  0
 80153  1  0  0  0
 81 84  1  0  0  0
 81154  1  0  0  0
 81155  1  0  0  0
 82156  1  0  0  0
 82157  1  0  0  0
 83158  1  0  0  0
 84159  1  0  0  0
M  ISO  4   1 100  68 101  82 101  83 100
M  END
> <chiral flag>
0

> <version>
0

> <s_m_source_file>
/data/baiqing/PycharmProjects/Reinvent-master-3.2/result/LINK_invent/BTK/process_docking_weight1_custom_product_contain_oxygen_bond_distance_aromatic_linkinvent_7_9_3/rearranged_h_0166.sdf

> <i_m_source_file_index>
38

> <r_mmod_Potential_Energy-OPLS-2005>
143.784698486328

> <r_mmod_Stretch_Energy-OPLS-2005>
49.5749397277832

> <r_mmod_Bend_Energy-OPLS-2005>
118.001533508301

> <r_mmod_Torsional_Energy-OPLS-2005>
242.658081054688

> <r_mmod_Improper_Torsional_Energy-OPLS-2005>
9.7724666595459

> <r_mmod_Van_der_Waal_Energy-OPLS-2005>
153.838836669922

> <r_mmod_Electrostatic_Energy-OPLS-2005>
-216.810882568359

> <r_mmod_Solvation_Energy-OPLS-2005>
-231.642395019531

> <b_mmod_Minimization_Converged-OPLS-2005>
0

> <r_mmod_RMS_Derivative-OPLS-2005>
3.96118831634521

$$$$
38
                    3D
 Structure written by MMmdl.
164172  0  0  1  0            999 V2000
  -30.6592  -14.5069   20.5041 C   0  0  0  0  0  0
  -30.4304  -12.3003   19.4417 C   0  0  0  0  0  0
  -29.5003  -12.4570   18.2182 C   0  0  0  0  0  0
  -28.0166  -12.3477   18.6253 C   0  0  0  0  0  0
  -27.6611  -13.2009   19.8738 C   0  0  2  0  0  0
  -28.7032  -13.0060   21.0020 C   0  0  0  0  0  0
  -25.2590  -13.8145   20.5676 C   0  0  0  0  0  0
  -24.1845  -13.0444   20.9192 C   0  0  0  0  0  0
  -24.6400  -11.6897   20.8796 C   0  0  0  0  0  0
  -23.9088  -10.4285   21.0458 C   0  0  0  0  0  0
  -24.3640   -9.4181   21.9224 C   0  0  0  0  0  0
  -23.6309   -8.2218   22.0768 C   0  0  0  0  0  0
  -22.4280   -8.0282   21.3574 C   0  0  0  0  0  0
  -21.9939   -9.0257   20.4667 C   0  0  0  0  0  0
  -22.7264  -10.2139   20.3102 C   0  0  0  0  0  0
  -21.6839   -6.0738   22.5291 C   0  0  0  0  0  0
  -21.3997   -6.5651   23.8219 C   0  0  0  0  0  0
  -21.3659   -5.6810   24.9188 C   0  0  0  0  0  0
  -21.6047   -4.3075   24.7239 C   0  0  0  0  0  0
  -21.8805   -3.8159   23.4365 C   0  0  0  0  0  0
  -21.9184   -4.6967   22.3413 C   0  0  0  0  0  0
  -22.7866  -13.5238   21.1845 C   0  0  0  0  0  0
  -22.1667   -4.2148   21.0992 F   0  0  0  0  0  0
  -21.5619   -3.4552   25.7754 F   0  0  0  0  0  0
  -30.0339  -13.3009   20.4460 N   0  0  0  0  0  0
  -26.3029  -12.9309   20.3388 N   0  0  0  0  0  0
  -25.9330  -11.6487   20.5870 N   0  0  0  0  0  0
  -22.0491  -12.8251   22.0411 N   0  0  0  0  0  0
  -25.4326  -15.1861   20.4044 N   0  0  0  0  0  0
  -31.8074  -14.6928   20.0889 O   0  0  0  0  0  0
  -21.6631   -6.8889   21.4266 O   0  0  0  0  0  0
  -22.3572  -14.5553   20.6684 O   0  0  0  0  0  0
  -24.6127  -31.8658   23.2113 C   0  0  0  0  0  0
  -25.9028  -32.4806   23.8406 C   0  0  1  0  0  0
  -27.2347  -27.4398   20.1114 C   0  0  0  0  0  0
  -25.5881  -33.8609   24.2327 N   0  0  0  0  0  0
  -23.4008  -30.4878   21.5498 C   0  0  2  0  0  0
  -24.8500  -28.9516   20.1172 C   0  0  0  0  0  0
  -22.7403  -29.4642   22.5012 C   0  0  0  0  0  0
  -18.0271  -28.1358   22.8481 C   0  0  0  0  0  0
  -24.1476  -36.7312   23.2639 C   0  0  0  0  0  0
  -25.9280  -30.8349   21.3655 C   0  0  0  0  0  0
  -26.0070  -29.4687   20.7139 C   0  0  0  0  0  0
  -27.2039  -28.7204   20.7064 C   0  0  0  0  0  0
  -26.0678  -26.9350   19.4991 C   0  0  0  0  0  0
  -24.8750  -27.6842   19.5053 C   0  0  0  0  0  0
  -23.6092  -29.8146   20.1658 C   0  0  0  0  0  0
  -25.4092  -36.3104   24.0338 C   0  0  1  0  0  0
  -20.5854  -28.3639   23.1316 C   0  0  2  0  0  0
  -20.6753  -26.9372   22.5412 C   0  0  0  0  0  0
  -19.5742  -26.6366   21.5196 C   0  0  0  0  0  0
  -18.1920  -26.7900   22.1607 C   0  0  0  0  0  0
  -19.1515  -28.8820   23.2890 C   0  0  0  0  0  0
  -18.9447  -30.1428   23.8893 C   0  0  0  0  0  0
  -17.6446  -30.6566   24.0554 C   0  0  0  0  0  0
  -25.9018  -34.9468   23.5128 C   0  0  0  0  0  0
  -16.5338  -29.9058   23.6328 C   0  0  0  0  0  0
  -16.7257  -28.6480   23.0343 C   0  0  0  0  0  0
  -26.4464  -31.6593   25.0740 C   0  0  0  0  0  0
  -25.3760  -31.3688   26.1514 C   0  0  0  0  0  0
  -27.0291  -30.3040   24.6111 C   0  0  0  0  0  0
  -27.6045  -32.4317   25.7483 C   0  0  0  0  0  0
  -27.5568  -37.1802   24.8457 C   0  0  0  0  0  0
  -21.4130  -29.3013   22.3742 N   0  0  0  0  0  0
  -26.4276  -37.3791   23.9408 N   0  0  0  0  0  0
  -24.6644  -31.0772   22.1007 N   0  0  0  0  0  0
  -23.4176  -28.8204   23.3064 O   0  0  0  0  0  0
  -28.4046  -26.7174   20.1035 O   0  0  0  0  0  0
  -26.5584  -34.8913   22.4697 O   0  0  0  0  0  0
  -23.5327  -32.1411   23.7517 O   0  0  0  0  0  0
  -29.5491  -16.4954   18.5770 C   0  0  0  0  0  0
  -29.1142  -17.8918   20.5108 C   0  0  0  0  0  0
  -29.0811  -17.5014   17.7033 C   0  0  0  0  0  0
  -28.6536  -18.7485   18.2497 C   0  0  0  0  0  0
  -29.5478  -16.6535   19.9772 C   0  0  0  0  0  0
  -28.7033  -18.9574   19.6592 C   0  0  0  0  0  0
  -29.0287  -17.1919   16.2441 C   0  0  0  0  0  0
  -28.3881  -25.4111   20.5486 C   0  0  0  0  0  0
  -29.5119  -24.6669   20.5172 C   0  0  0  0  0  0
  -29.6163  -23.2435   20.9564 C   0  0  0  0  0  0
  -28.6058  -20.8949   21.2916 C   0  0  0  0  0  0
  -26.6203  -19.6958   17.0434 C   0  0  0  0  0  0
  -28.1201  -19.8609   17.3315 C   0  0  0  0  0  0
  -28.3530  -22.4217   21.3172 C   0  0  0  0  0  0
  -29.5702  -16.1945   15.6801 N   0  0  0  0  0  0
  -28.3081  -20.2509   20.1445 N   0  0  0  0  0  0
  -29.8666  -15.5485   20.8394 N   0  0  0  0  0  0
  -30.7305  -22.7122   21.0459 O   0  0  0  0  0  0
  -29.0064  -20.3255   22.3108 O   0  0  0  0  0  0
  -30.6412  -25.2293   20.0599 O   0  0  0  0  0  0
  -31.4725  -12.4095   19.1338 H   0  0  0  0  0  0
  -30.3494  -11.2983   19.8670 H   0  0  0  0  0  0
  -29.7337  -11.6961   17.4695 H   0  0  0  0  0  0
  -29.6799  -13.4130   17.7302 H   0  0  0  0  0  0
  -27.8081  -11.2973   18.8303 H   0  0  0  0  0  0
  -27.3787  -12.6207   17.7835 H   0  0  0  0  0  0
  -27.6953  -14.2434   19.5601 H   0  0  0  0  0  0
  -28.6831  -11.9819   21.3766 H   0  0  0  0  0  0
  -28.4720  -13.6391   21.8611 H   0  0  0  0  0  0
  -25.2790   -9.5617   22.4812 H   0  0  0  0  0  0
  -23.9979   -7.4614   22.7515 H   0  0  0  0  0  0
  -21.0841   -8.8808   19.9014 H   0  0  0  0  0  0
  -22.3735  -10.9690   19.6230 H   0  0  0  0  0  0
  -21.1995   -7.6163   23.9702 H   0  0  0  0  0  0
  -21.1506   -6.0574   25.9084 H   0  0  0  0  0  0
  -22.0587   -2.7617   23.2894 H   0  0  0  0  0  0
  -22.4097  -11.9913   22.4813 H   0  0  0  0  0  0
  -21.1122  -13.1308   22.2630 H   0  0  0  0  0  0
  -24.6661  -15.8418   20.5006 H   0  0  0  0  0  0
  -26.2865  -15.6203   20.0792 H   0  0  0  0  0  0
  -26.7098  -32.5527   23.1170 H   0  0  0  0  0  0
  -25.0056  -33.9764   25.0486 H   0  0  0  0  0  0
  -22.6890  -31.3035   21.4085 H   0  0  0  0  0  0
  -23.3725  -35.9659   23.3312 H   0  0  0  0  0  0
  -24.3567  -36.8918   22.2052 H   0  0  0  0  0  0
  -23.7240  -37.6524   23.6647 H   0  0  0  0  0  0
  -26.0439  -31.6034   20.5997 H   0  0  0  0  0  0
  -26.8135  -30.8834   21.9879 H   0  0  0  0  0  0
  -28.1002  -29.1145   21.1640 H   0  0  0  0  0  0
  -26.0821  -25.9675   19.0170 H   0  0  0  0  0  0
  -23.9868  -27.2803   19.0391 H   0  0  0  0  0  0
  -23.7105  -30.5854   19.4006 H   0  0  0  0  0  0
  -22.7344  -29.2280   19.8776 H   0  0  0  0  0  0
  -25.1267  -36.1966   25.0830 H   0  0  0  0  0  0
  -20.9927  -28.3186   24.1440 H   0  0  0  0  0  0
  -20.5626  -26.2239   23.3594 H   0  0  0  0  0  0
  -21.6629  -26.7388   22.1229 H   0  0  0  0  0  0
  -19.6892  -25.6282   21.1215 H   0  0  0  0  0  0
  -19.6677  -27.3180   20.6733 H   0  0  0  0  0  0
  -17.4182  -26.6644   21.4017 H   0  0  0  0  0  0
  -18.0314  -26.0033   22.8999 H   0  0  0  0  0  0
  -19.7931  -30.7246   24.2246 H   0  0  0  0  0  0
  -17.5004  -31.6250   24.5152 H   0  0  0  0  0  0
  -15.5330  -30.2950   23.7663 H   0  0  0  0  0  0
  -15.8665  -28.0796   22.7046 H   0  0  0  0  0  0
  -24.5916  -30.7030   25.7880 H   0  0  0  0  0  0
  -24.8970  -32.2839   26.5017 H   0  0  0  0  0  0
  -25.8162  -30.8839   27.0241 H   0  0  0  0  0  0
  -26.2824  -29.6796   24.1185 H   0  0  0  0  0  0
  -27.4077  -29.7281   25.4567 H   0  0  0  0  0  0
  -27.8658  -30.4357   23.9245 H   0  0  0  0  0  0
  -27.2661  -33.3601   26.2098 H   0  0  0  0  0  0
  -28.3829  -32.6902   25.0290 H   0  0  0  0  0  0
  -28.0739  -31.8422   26.5369 H   0  0  0  0  0  0
  -28.2594  -38.0093   24.7508 H   0  0  0  0  0  0
  -28.1055  -36.2630   24.6268 H   0  0  0  0  0  0
  -27.2295  -37.1437   25.8863 H   0  0  0  0  0  0
  -20.9294  -29.8726   21.6961 H   0  0  0  0  0  0
  -26.0164  -38.2867   24.1420 H   0  0  0  0  0  0
  -29.8568  -15.5533   18.1559 H   0  0  0  0  0  0
  -29.0979  -18.0109   21.5830 H   0  0  0  0  0  0
  -28.4669  -17.8799   15.6085 H   0  0  0  0  0  0
  -27.4248  -25.0785   20.9139 H   0  0  0  0  0  0
  -26.2481  -20.5036   16.4120 H   0  0  0  0  0  0
  -26.0357  -19.7015   17.9647 H   0  0  0  0  0  0
  -26.4172  -18.7544   16.5309 H   0  0  0  0  0  0
  -28.6738  -19.8874   16.3944 H   0  0  0  0  0  0
  -28.3042  -20.8514   17.7469 H   0  0  0  0  0  0
  -27.5409  -22.6701   20.6347 H   0  0  0  0  0  0
  -28.0274  -22.7096   22.3171 H   0  0  0  0  0  0
  -30.0737  -15.6115   16.3371 H   0  0  0  0  0  0
  -27.8868  -20.8445   19.4440 H   0  0  0  0  0  0
  -29.1259  -15.3056   21.4804 H   0  0  0  0  0  0
  -30.4226  -26.1251   19.8354 H   0  0  0  0  0  0
  1 25  1  0  0  0
  1 30  2  0  0  0
  1 87  1  0  0  0
  2  3  1  0  0  0
  2 25  1  0  0  0
  2 91  1  0  0  0
  2 92  1  0  0  0
  3  4  1  0  0  0
  3 93  1  0  0  0
  3 94  1  0  0  0
  4  5  1  0  0  0
  4 95  1  0  0  0
  4 96  1  0  0  0
  5  6  1  0  0  0
  5 26  1  0  0  0
  5 97  1  0  0  0
  6 25  1  0  0  0
  6 98  1  0  0  0
  6 99  1  0  0  0
  7  8  2  0  0  0
  7 26  1  0  0  0
  7 29  1  0  0  0
  8  9  1  0  0  0
  8 22  1  0  0  0
  9 10  1  0  0  0
  9 27  2  0  0  0
 10 11  2  0  0  0
 10 15  1  0  0  0
 11 12  1  0  0  0
 11100  1  0  0  0
 12 13  2  0  0  0
 12101  1  0  0  0
 13 14  1  0  0  0
 13 31  1  0  0  0
 14 15  2  0  0  0
 14102  1  0  0  0
 15103  1  0  0  0
 16 17  2  0  0  0
 16 21  1  0  0  0
 16 31  1  0  0  0
 17 18  1  0  0  0
 17104  1  0  0  0
 18 19  2  0  0  0
 18105  1  0  0  0
 19 20  1  0  0  0
 19 24  1  0  0  0
 20 21  2  0  0  0
 20106  1  0  0  0
 21 23  1  0  0  0
 22 28  1  0  0  0
 22 32  2  0  0  0
 26 27  1  0  0  0
 28107  1  0  0  0
 28108  1  0  0  0
 29109  1  0  0  0
 29110  1  0  0  0
 33 34  1  0  0  0
 33 66  1  0  0  0
 33 70  2  0  0  0
 34 36  1  0  0  0
 34 59  1  0  0  0
 34111  1  0  0  0
 35 44  2  0  0  0
 35 45  1  0  0  0
 35 68  1  0  0  0
 36 56  1  0  0  0
 36112  1  0  0  0
 37 39  1  0  0  0
 37 47  1  0  0  0
 37 66  1  0  0  0
 37113  1  0  0  0
 38 43  2  0  0  0
 38 46  1  0  0  0
 38 47  1  0  0  0
 39 64  1  0  0  0
 39 67  2  0  0  0
 40 52  1  0  0  0
 40 53  2  0  0  0
 40 58  1  0  0  0
 41114  1  0  0  0
 41115  1  0  0  0
 41116  1  0  0  0
 41 48  1  0  0  0
 42 43  1  0  0  0
 42 66  1  0  0  0
 42117  1  0  0  0
 42118  1  0  0  0
 43 44  1  0  0  0
 44119  1  0  0  0
 45 46  2  0  0  0
 45120  1  0  0  0
 46121  1  0  0  0
 47122  1  0  0  0
 47123  1  0  0  0
 48 56  1  0  0  0
 48 65  1  0  0  0
 48124  1  0  0  0
 49 50  1  0  0  0
 49 53  1  0  0  0
 49 64  1  0  0  0
 49125  1  0  0  0
 50 51  1  0  0  0
 50126  1  0  0  0
 50127  1  0  0  0
 51 52  1  0  0  0
 51128  1  0  0  0
 51129  1  0  0  0
 52130  1  0  0  0
 52131  1  0  0  0
 53 54  1  0  0  0
 54 55  2  0  0  0
 54132  1  0  0  0
 55 57  1  0  0  0
 55133  1  0  0  0
 56 69  2  0  0  0
 57 58  2  0  0  0
 57134  1  0  0  0
 58135  1  0  0  0
 59 60  1  0  0  0
 59 61  1  0  0  0
 59 62  1  0  0  0
 60136  1  0  0  0
 60137  1  0  0  0
 60138  1  0  0  0
 61139  1  0  0  0
 61140  1  0  0  0
 61141  1  0  0  0
 62142  1  0  0  0
 62143  1  0  0  0
 62144  1  0  0  0
 63 65  1  0  0  0
 63145  1  0  0  0
 63146  1  0  0  0
 63147  1  0  0  0
 64148  1  0  0  0
 65149  1  0  0  0
 68 78  1  0  0  0
 71 73  2  0  0  0
 71 75  1  0  0  0
 71150  1  0  0  0
 72 75  2  0  0  0
 72 76  1  0  0  0
 72151  1  0  0  0
 73 74  1  0  0  0
 73 77  1  0  0  0
 74 76  2  0  0  0
 74 83  1  0  0  0
 75 87  1  0  0  0
 76 86  1  0  0  0
 77 85  2  0  0  0
 77152  1  0  0  0
 78 79  2  0  0  0
 78153  1  0  0  0
 79 80  1  0  0  0
 79 90  1  0  0  0
 80 84  1  0  0  0
 80 88  2  0  0  0
 81 84  1  0  0  0
 81 86  1  0  0  0
 81 89  2  0  0  0
 82 83  1  0  0  0
 82154  1  0  0  0
 82155  1  0  0  0
 82156  1  0  0  0
 83157  1  0  0  0
 83158  1  0  0  0
 84159  1  0  0  0
 84160  1  0  0  0
 85161  1  0  0  0
 86162  1  0  0  0
 87163  1  0  0  0
 90164  1  0  0  0
M  ISO  4   1 100  68 101  78 101  87 100
M  END
> <chiral flag>
0

> <version>
0

> <s_m_source_file>
/data/baiqing/PycharmProjects/Reinvent-master-3.2/result/LINK_invent/BTK/process_docking_weight1_custom_product_contain_oxygen_bond_distance_aromatic_linkinvent_7_9_3/rearranged_h_0166.sdf

> <i_m_source_file_index>
39

> <r_mmod_Potential_Energy-OPLS-2005>
-53.2148475646973

> <r_mmod_Stretch_Energy-OPLS-2005>
44.9878807067871

> <r_mmod_Bend_Energy-OPLS-2005>
109.682922363281

> <r_mmod_Torsional_Energy-OPLS-2005>
254.391479492188

> <r_mmod_Improper_Torsional_Energy-OPLS-2005>
8.67966175079346

> <r_mmod_Van_der_Waal_Energy-OPLS-2005>
165.884414672852

> <r_mmod_Electrostatic_Energy-OPLS-2005>
-372.12060546875

> <r_mmod_Solvation_Energy-OPLS-2005>
-280.884552001953

> <b_mmod_Minimization_Converged-OPLS-2005>
0

> <r_mmod_RMS_Derivative-OPLS-2005>
3.0933473110199

$$$$
39
                    3D
 Structure written by MMmdl.
156164  0  0  1  0            999 V2000
  -30.6632  -14.4902   20.5476 C   0  0  0  0  0  0
  -30.4275  -12.3051   19.4320 C   0  0  0  0  0  0
  -29.4967  -12.4956   18.2142 C   0  0  0  0  0  0
  -28.0155  -12.3644   18.6210 C   0  0  0  0  0  0
  -27.6601  -13.1996   19.8790 C   0  0  2  0  0  0
  -28.7005  -12.9741   21.0007 C   0  0  0  0  0  0
  -25.2582  -13.8143   20.5687 C   0  0  0  0  0  0
  -24.1823  -13.0434   20.9172 C   0  0  0  0  0  0
  -24.6359  -11.6890   20.8723 C   0  0  0  0  0  0
  -23.9027  -10.4284   21.0395 C   0  0  0  0  0  0
  -24.3595   -9.4203   21.9171 C   0  0  0  0  0  0
  -23.6278   -8.2237   22.0753 C   0  0  0  0  0  0
  -22.4263   -8.0270   21.3539 C   0  0  0  0  0  0
  -21.9887   -9.0238   20.4637 C   0  0  0  0  0  0
  -22.7205  -10.2121   20.3036 C   0  0  0  0  0  0
  -21.6859   -6.0726   22.5277 C   0  0  0  0  0  0
  -21.4016   -6.5634   23.8207 C   0  0  0  0  0  0
  -21.3657   -5.6788   24.9171 C   0  0  0  0  0  0
  -21.6041   -4.3051   24.7222 C   0  0  0  0  0  0
  -21.8819   -3.8142   23.4344 C   0  0  0  0  0  0
  -21.9189   -4.6954   22.3400 C   0  0  0  0  0  0
  -22.7846  -13.5238   21.1826 C   0  0  0  0  0  0
  -22.1667   -4.2139   21.0977 F   0  0  0  0  0  0
  -21.5623   -3.4536   25.7735 F   0  0  0  0  0  0
  -30.0341  -13.2850   20.4579 N   0  0  0  0  0  0
  -26.3003  -12.9287   20.3374 N   0  0  0  0  0  0
  -25.9283  -11.6453   20.5770 N   0  0  0  0  0  0
  -22.0482  -12.8248   22.0390 N   0  0  0  0  0  0
  -25.4325  -15.1871   20.4135 N   0  0  0  0  0  0
  -31.7778  -14.7045   20.0620 O   0  0  0  0  0  0
  -21.6634   -6.8866   21.4240 O   0  0  0  0  0  0
  -22.3532  -14.5542   20.6666 O   0  0  0  0  0  0
  -24.6144  -31.8675   23.2120 C   0  0  0  0  0  0
  -25.9031  -32.4827   23.8406 C   0  0  1  0  0  0
  -27.2266  -27.4240   20.1030 C   0  0  0  0  0  0
  -25.5896  -33.8631   24.2335 N   0  0  0  0  0  0
  -23.4047  -30.4895   21.5523 C   0  0  2  0  0  0
  -24.8525  -28.9619   20.1107 C   0  0  0  0  0  0
  -22.7419  -29.4628   22.4988 C   0  0  0  0  0  0
  -18.0284  -28.1357   22.8467 C   0  0  0  0  0  0
  -24.1492  -36.7321   23.2637 C   0  0  0  0  0  0
  -25.9347  -30.8307   21.3675 C   0  0  0  0  0  0
  -26.0145  -29.4673   20.7094 C   0  0  0  0  0  0
  -27.2093  -28.7072   20.6997 C   0  0  0  0  0  0
  -26.0534  -26.9468   19.4794 C   0  0  0  0  0  0
  -24.8680  -27.7025   19.4885 C   0  0  0  0  0  0
  -23.6153  -29.8283   20.1647 C   0  0  0  0  0  0
  -25.4109  -36.3123   24.0341 C   0  0  1  0  0  0
  -20.5866  -28.3618   23.1297 C   0  0  2  0  0  0
  -20.6747  -26.9339   22.5430 C   0  0  0  0  0  0
  -19.5715  -26.6266   21.5275 C   0  0  0  0  0  0
  -18.1922  -26.7867   22.1698 C   0  0  0  0  0  0
  -19.1531  -28.8806   23.2885 C   0  0  0  0  0  0
  -18.9475  -30.1391   23.8934 C   0  0  0  0  0  0
  -17.6478  -30.6535   24.0621 C   0  0  0  0  0  0
  -25.9020  -34.9485   23.5128 C   0  0  0  0  0  0
  -16.5370  -29.9050   23.6351 C   0  0  0  0  0  0
  -16.7280  -28.6485   23.0334 C   0  0  0  0  0  0
  -26.4464  -31.6609   25.0738 C   0  0  0  0  0  0
  -25.3725  -31.3720   26.1478 C   0  0  0  0  0  0
  -27.0304  -30.3053   24.6128 C   0  0  0  0  0  0
  -27.6044  -32.4328   25.7497 C   0  0  0  0  0  0
  -27.5584  -37.1816   24.8465 C   0  0  0  0  0  0
  -21.4144  -29.2962   22.3675 N   0  0  0  0  0  0
  -26.4299  -37.3803   23.9403 N   0  0  0  0  0  0
  -24.6690  -31.0752   22.1032 N   0  0  0  0  0  0
  -23.4184  -28.8202   23.3050 O   0  0  0  0  0  0
  -28.3468  -26.6207   20.1467 O   0  0  0  0  0  0
  -26.5587  -34.8929   22.4692 O   0  0  0  0  0  0
  -23.5338  -32.1446   23.7501 O   0  0  0  0  0  0
  -28.5861  -17.8715   18.5479 C   0  0  0  0  0  0
  -29.1269  -16.7068   19.1199 C   0  0  0  0  0  0
  -29.5755  -17.9449   21.1648 C   0  0  0  0  0  0
  -28.5201  -19.0791   19.2725 C   0  0  0  0  0  0
  -29.5898  -16.7150   20.4538 C   0  0  0  0  0  0
  -29.0845  -19.1466   20.5769 C   0  0  0  0  0  0
  -28.6800  -22.8073   21.0281 C   0  0  0  0  0  0
  -29.0269  -24.2196   20.4451 C   0  0  0  0  0  0
  -27.7662  -20.2360   18.6278 C   0  0  0  0  0  0
  -29.6036  -21.5984   20.7388 C   0  0  0  0  0  0
  -28.1018  -25.3829   20.8612 C   0  0  0  0  0  0
  -29.9375  -15.4833   21.1037 N   0  0  0  0  0  0
  -29.1128  -20.3362   21.3367 N   0  0  0  0  0  0
  -27.6601  -22.6408   21.7112 O   0  0  0  0  0  0
  -29.9892  -24.3895   19.6843 O   0  0  0  0  0  0
  -31.4712  -12.4149   19.1319 H   0  0  0  0  0  0
  -30.3420  -11.2915   19.8282 H   0  0  0  0  0  0
  -29.7341  -11.7598   17.4445 H   0  0  0  0  0  0
  -29.6734  -13.4736   17.7651 H   0  0  0  0  0  0
  -27.8184  -11.3095   18.8145 H   0  0  0  0  0  0
  -27.3691  -12.6465   17.7887 H   0  0  0  0  0  0
  -27.7021  -14.2457   19.5831 H   0  0  0  0  0  0
  -28.6771  -11.9358   21.3339 H   0  0  0  0  0  0
  -28.4559  -13.5658   21.8843 H   0  0  0  0  0  0
  -25.2740   -9.5693   22.4741 H   0  0  0  0  0  0
  -23.9989   -7.4638   22.7482 H   0  0  0  0  0  0
  -21.0813   -8.8729   19.8959 H   0  0  0  0  0  0
  -22.3645  -10.9647   19.6142 H   0  0  0  0  0  0
  -21.2019   -7.6143   23.9709 H   0  0  0  0  0  0
  -21.1484   -6.0521   25.9074 H   0  0  0  0  0  0
  -22.0601   -2.7602   23.2842 H   0  0  0  0  0  0
  -22.4095  -11.9925   22.4808 H   0  0  0  0  0  0
  -21.1089  -13.1261   22.2563 H   0  0  0  0  0  0
  -24.6660  -15.8418   20.5195 H   0  0  0  0  0  0
  -26.2944  -15.6322   20.1247 H   0  0  0  0  0  0
  -26.7090  -32.5543   23.1162 H   0  0  0  0  0  0
  -25.0099  -33.9801   25.0511 H   0  0  0  0  0  0
  -22.6950  -31.3062   21.4153 H   0  0  0  0  0  0
  -23.3755  -35.9654   23.3312 H   0  0  0  0  0  0
  -24.3586  -36.8924   22.2050 H   0  0  0  0  0  0
  -23.7245  -37.6528   23.6641 H   0  0  0  0  0  0
  -26.0476  -31.5993   20.6019 H   0  0  0  0  0  0
  -26.8224  -30.8832   21.9860 H   0  0  0  0  0  0
  -28.1030  -29.0876   21.1740 H   0  0  0  0  0  0
  -26.0497  -25.9838   18.9898 H   0  0  0  0  0  0
  -23.9760  -27.3121   19.0170 H   0  0  0  0  0  0
  -23.7269  -30.6087   19.4115 H   0  0  0  0  0  0
  -22.7406  -29.2515   19.8632 H   0  0  0  0  0  0
  -25.1284  -36.1995   25.0835 H   0  0  0  0  0  0
  -20.9964  -28.3210   24.1413 H   0  0  0  0  0  0
  -20.5700  -26.2251   23.3641 H   0  0  0  0  0  0
  -21.6598  -26.7331   22.1200 H   0  0  0  0  0  0
  -19.6844  -25.6133   21.1389 H   0  0  0  0  0  0
  -19.6649  -27.3011   20.6755 H   0  0  0  0  0  0
  -17.4147  -26.6509   21.4160 H   0  0  0  0  0  0
  -18.0401  -26.0095   22.9193 H   0  0  0  0  0  0
  -19.7971  -30.7170   24.2350 H   0  0  0  0  0  0
  -17.5055  -31.6181   24.5309 H   0  0  0  0  0  0
  -15.5382  -30.2946   23.7727 H   0  0  0  0  0  0
  -15.8671  -28.0797   22.7074 H   0  0  0  0  0  0
  -24.5882  -30.7090   25.7799 H   0  0  0  0  0  0
  -24.8933  -32.2885   26.4937 H   0  0  0  0  0  0
  -25.8057  -30.8867   27.0229 H   0  0  0  0  0  0
  -26.2863  -29.6812   24.1164 H   0  0  0  0  0  0
  -27.4049  -29.7289   25.4593 H   0  0  0  0  0  0
  -27.8705  -30.4376   23.9307 H   0  0  0  0  0  0
  -27.2664  -33.3610   26.2118 H   0  0  0  0  0  0
  -28.3832  -32.6917   25.0311 H   0  0  0  0  0  0
  -28.0741  -31.8432   26.5382 H   0  0  0  0  0  0
  -28.2604  -38.0109   24.7505 H   0  0  0  0  0  0
  -28.1075  -36.2639   24.6298 H   0  0  0  0  0  0
  -27.2299  -37.1480   25.8867 H   0  0  0  0  0  0
  -20.9312  -29.8523   21.6750 H   0  0  0  0  0  0
  -26.0192  -38.2883   24.1394 H   0  0  0  0  0  0
  -28.1818  -17.8206   17.5461 H   0  0  0  0  0  0
  -29.1237  -15.8002   18.5320 H   0  0  0  0  0  0
  -29.9361  -17.9622   22.1844 H   0  0  0  0  0  0
  -28.4381  -20.8993   18.0847 H   0  0  0  0  0  0
  -27.2114  -20.8133   19.3675 H   0  0  0  0  0  0
  -27.0321  -19.8599   17.9131 H   0  0  0  0  0  0
  -29.7482  -21.5117   19.6648 H   0  0  0  0  0  0
  -30.5884  -21.8268   21.1485 H   0  0  0  0  0  0
  -28.2346  -25.5638   21.9275 H   0  0  0  0  0  0
  -27.0754  -25.0375   20.7324 H   0  0  0  0  0  0
  -29.2204  -15.1423   21.7283 H   0  0  0  0  0  0
  -28.2564  -20.5196   21.8590 H   0  0  0  0  0  0
  1 25  1  0  0  0
  1 30  2  0  0  0
  1 82  1  0  0  0
  2  3  1  0  0  0
  2 25  1  0  0  0
  2 86  1  0  0  0
  2 87  1  0  0  0
  3  4  1  0  0  0
  3 88  1  0  0  0
  3 89  1  0  0  0
  4  5  1  0  0  0
  4 90  1  0  0  0
  4 91  1  0  0  0
  5  6  1  0  0  0
  5 26  1  0  0  0
  5 92  1  0  0  0
  6 25  1  0  0  0
  6 93  1  0  0  0
  6 94  1  0  0  0
  7  8  2  0  0  0
  7 26  1  0  0  0
  7 29  1  0  0  0
  8  9  1  0  0  0
  8 22  1  0  0  0
  9 10  1  0  0  0
  9 27  2  0  0  0
 10 11  2  0  0  0
 10 15  1  0  0  0
 11 12  1  0  0  0
 11 95  1  0  0  0
 12 13  2  0  0  0
 12 96  1  0  0  0
 13 14  1  0  0  0
 13 31  1  0  0  0
 14 15  2  0  0  0
 14 97  1  0  0  0
 15 98  1  0  0  0
 16 17  2  0  0  0
 16 21  1  0  0  0
 16 31  1  0  0  0
 17 18  1  0  0  0
 17 99  1  0  0  0
 18 19  2  0  0  0
 18100  1  0  0  0
 19 20  1  0  0  0
 19 24  1  0  0  0
 20 21  2  0  0  0
 20101  1  0  0  0
 21 23  1  0  0  0
 22 28  1  0  0  0
 22 32  2  0  0  0
 26 27  1  0  0  0
 28102  1  0  0  0
 28103  1  0  0  0
 29104  1  0  0  0
 29105  1  0  0  0
 33 34  1  0  0  0
 33 66  1  0  0  0
 33 70  2  0  0  0
 34 36  1  0  0  0
 34 59  1  0  0  0
 34106  1  0  0  0
 35 44  2  0  0  0
 35 45  1  0  0  0
 35 68  1  0  0  0
 36 56  1  0  0  0
 36107  1  0  0  0
 37 39  1  0  0  0
 37 47  1  0  0  0
 37 66  1  0  0  0
 37108  1  0  0  0
 38 43  2  0  0  0
 38 46  1  0  0  0
 38 47  1  0  0  0
 39 64  1  0  0  0
 39 67  2  0  0  0
 40 52  1  0  0  0
 40 53  2  0  0  0
 40 58  1  0  0  0
 41109  1  0  0  0
 41110  1  0  0  0
 41111  1  0  0  0
 41 48  1  0  0  0
 42 43  1  0  0  0
 42 66  1  0  0  0
 42112  1  0  0  0
 42113  1  0  0  0
 43 44  1  0  0  0
 44114  1  0  0  0
 45 46  2  0  0  0
 45115  1  0  0  0
 46116  1  0  0  0
 47117  1  0  0  0
 47118  1  0  0  0
 48 56  1  0  0  0
 48 65  1  0  0  0
 48119  1  0  0  0
 49 50  1  0  0  0
 49 53  1  0  0  0
 49 64  1  0  0  0
 49120  1  0  0  0
 50 51  1  0  0  0
 50121  1  0  0  0
 50122  1  0  0  0
 51 52  1  0  0  0
 51123  1  0  0  0
 51124  1  0  0  0
 52125  1  0  0  0
 52126  1  0  0  0
 53 54  1  0  0  0
 54 55  2  0  0  0
 54127  1  0  0  0
 55 57  1  0  0  0
 55128  1  0  0  0
 56 69  2  0  0  0
 57 58  2  0  0  0
 57129  1  0  0  0
 58130  1  0  0  0
 59 60  1  0  0  0
 59 61  1  0  0  0
 59 62  1  0  0  0
 60131  1  0  0  0
 60132  1  0  0  0
 60133  1  0  0  0
 61134  1  0  0  0
 61135  1  0  0  0
 61136  1  0  0  0
 62137  1  0  0  0
 62138  1  0  0  0
 62139  1  0  0  0
 63 65  1  0  0  0
 63140  1  0  0  0
 63141  1  0  0  0
 63142  1  0  0  0
 64143  1  0  0  0
 65144  1  0  0  0
 68 81  1  0  0  0
 71 72  2  0  0  0
 71 74  1  0  0  0
 71145  1  0  0  0
 72 75  1  0  0  0
 72146  1  0  0  0
 73 75  2  0  0  0
 73 76  1  0  0  0
 73147  1  0  0  0
 74 76  2  0  0  0
 74 79  1  0  0  0
 75 82  1  0  0  0
 76 83  1  0  0  0
 77 78  1  0  0  0
 77 80  1  0  0  0
 77 84  2  0  0  0
 78 81  1  0  0  0
 78 85  2  0  0  0
 79148  1  0  0  0
 79149  1  0  0  0
 79150  1  0  0  0
 80 83  1  0  0  0
 80151  1  0  0  0
 80152  1  0  0  0
 81153  1  0  0  0
 81154  1  0  0  0
 82155  1  0  0  0
 83156  1  0  0  0
M  ISO  4   1 100  68 101  81 101  82 100
M  END
> <chiral flag>
0

> <version>
0

> <s_m_source_file>
/data/baiqing/PycharmProjects/Reinvent-master-3.2/result/LINK_invent/BTK/process_docking_weight1_custom_product_contain_oxygen_bond_distance_aromatic_linkinvent_7_9_3/rearranged_h_0166.sdf

> <i_m_source_file_index>
40

> <r_mmod_Potential_Energy-OPLS-2005>
95.5131988525391

> <r_mmod_Stretch_Energy-OPLS-2005>
44.4435653686523

> <r_mmod_Bend_Energy-OPLS-2005>
100.606262207031

> <r_mmod_Torsional_Energy-OPLS-2005>
288.836364746094

> <r_mmod_Improper_Torsional_Energy-OPLS-2005>
10.8385601043701

> <r_mmod_Van_der_Waal_Energy-OPLS-2005>
149.748062133789

> <r_mmod_Electrostatic_Energy-OPLS-2005>
-276.490478515625

> <r_mmod_Solvation_Energy-OPLS-2005>
-239.320404052734

> <b_mmod_Minimization_Converged-OPLS-2005>
0

> <r_mmod_RMS_Derivative-OPLS-2005>
2.65488052368164

$$$$
40
                    3D
 Structure written by MMmdl.
153161  0  0  1  0            999 V2000
  -30.7147  -14.4890   20.5353 C   0  0  0  0  0  0
  -30.4129  -12.3016   19.4399 C   0  0  0  0  0  0
  -29.4954  -12.4910   18.2145 C   0  0  0  0  0  0
  -28.0161  -12.3533   18.6232 C   0  0  0  0  0  0
  -27.6542  -13.2157   19.8620 C   0  0  2  0  0  0
  -28.6979  -13.0535   20.9909 C   0  0  0  0  0  0
  -25.2554  -13.8156   20.5701 C   0  0  0  0  0  0
  -24.1823  -13.0419   20.9188 C   0  0  0  0  0  0
  -24.6399  -11.6898   20.8736 C   0  0  0  0  0  0
  -23.9069  -10.4284   21.0402 C   0  0  0  0  0  0
  -24.3619   -9.4201   21.9182 C   0  0  0  0  0  0
  -23.6292   -8.2239   22.0754 C   0  0  0  0  0  0
  -22.4274   -8.0278   21.3543 C   0  0  0  0  0  0
  -21.9909   -9.0252   20.4647 C   0  0  0  0  0  0
  -22.7240  -10.2129   20.3054 C   0  0  0  0  0  0
  -21.6851   -6.0735   22.5279 C   0  0  0  0  0  0
  -21.4012   -6.5640   23.8212 C   0  0  0  0  0  0
  -21.3659   -5.6794   24.9175 C   0  0  0  0  0  0
  -21.6044   -4.3056   24.7226 C   0  0  0  0  0  0
  -21.8819   -3.8147   23.4347 C   0  0  0  0  0  0
  -21.9192   -4.6963   22.3403 C   0  0  0  0  0  0
  -22.7846  -13.5215   21.1855 C   0  0  0  0  0  0
  -22.1662   -4.2149   21.0980 F   0  0  0  0  0  0
  -21.5629   -3.4540   25.7738 F   0  0  0  0  0  0
  -30.0310  -13.3164   20.4350 N   0  0  0  0  0  0
  -26.2996  -12.9358   20.3326 N   0  0  0  0  0  0
  -25.9327  -11.6506   20.5755 N   0  0  0  0  0  0
  -22.0494  -12.8208   22.0416 N   0  0  0  0  0  0
  -25.4205  -15.1874   20.4161 N   0  0  0  0  0  0
  -31.8724  -14.5879   20.1209 O   0  0  0  0  0  0
  -21.6636   -6.8877   21.4241 O   0  0  0  0  0  0
  -22.3524  -14.5520   20.6707 O   0  0  0  0  0  0
  -24.6162  -31.8679   23.2110 C   0  0  0  0  0  0
  -25.9053  -32.4822   23.8402 C   0  0  1  0  0  0
  -27.2251  -27.4153   20.0958 C   0  0  0  0  0  0
  -25.5908  -33.8620   24.2329 N   0  0  0  0  0  0
  -23.4039  -30.4945   21.5519 C   0  0  2  0  0  0
  -24.8479  -28.9641   20.1114 C   0  0  0  0  0  0
  -22.7417  -29.4664   22.4979 C   0  0  0  0  0  0
  -18.0274  -28.1378   22.8490 C   0  0  0  0  0  0
  -24.1487  -36.7312   23.2638 C   0  0  0  0  0  0
  -25.9363  -30.8273   21.3686 C   0  0  0  0  0  0
  -26.0106  -29.4626   20.7117 C   0  0  0  0  0  0
  -27.2011  -28.6960   20.7011 C   0  0  0  0  0  0
  -26.0426  -26.9481   19.4715 C   0  0  0  0  0  0
  -24.8602  -27.7074   19.4875 C   0  0  0  0  0  0
  -23.6120  -29.8330   20.1644 C   0  0  0  0  0  0
  -25.4109  -36.3109   24.0339 C   0  0  1  0  0  0
  -20.5866  -28.3667   23.1310 C   0  0  2  0  0  0
  -20.6765  -26.9402   22.5414 C   0  0  0  0  0  0
  -19.5742  -26.6384   21.5212 C   0  0  0  0  0  0
  -18.1921  -26.7924   22.1624 C   0  0  0  0  0  0
  -19.1524  -28.8838   23.2898 C   0  0  0  0  0  0
  -18.9454  -30.1441   23.8912 C   0  0  0  0  0  0
  -17.6458  -30.6585   24.0564 C   0  0  0  0  0  0
  -25.9038  -34.9474   23.5129 C   0  0  0  0  0  0
  -16.5347  -29.9088   23.6328 C   0  0  0  0  0  0
  -16.7264  -28.6504   23.0351 C   0  0  0  0  0  0
  -26.4477  -31.6602   25.0730 C   0  0  0  0  0  0
  -25.3744  -31.3708   26.1480 C   0  0  0  0  0  0
  -27.0308  -30.3043   24.6113 C   0  0  0  0  0  0
  -27.6054  -32.4320   25.7491 C   0  0  0  0  0  0
  -27.5581  -37.1809   24.8465 C   0  0  0  0  0  0
  -21.4144  -29.3036   22.3716 N   0  0  0  0  0  0
  -26.4294  -37.3794   23.9409 N   0  0  0  0  0  0
  -24.6705  -31.0772   22.1019 N   0  0  0  0  0  0
  -23.4184  -28.8196   23.3017 O   0  0  0  0  0  0
  -28.3811  -26.6528   20.1393 O   0  0  0  0  0  0
  -26.5596  -34.8924   22.4688 O   0  0  0  0  0  0
  -23.5352  -32.1437   23.7497 O   0  0  0  0  0  0
  -30.5323  -19.6252   21.1744 C   0  0  0  0  0  0
  -30.0933  -18.4232   20.5311 C   0  0  0  0  0  0
  -28.9906  -18.7968   19.7956 C   0  0  0  0  0  0
  -29.7116  -20.6292   20.7409 C   0  0  0  0  0  0
  -29.1696  -22.8705   20.4671 C   0  0  0  0  0  0
  -29.2869  -24.3810   20.6409 C   0  0  0  0  0  0
  -30.8026  -17.0709   20.5445 C   0  0  0  0  0  0
  -28.2296  -25.2312   19.9092 C   0  0  0  0  0  0
  -30.0073  -15.7989   20.9841 C   0  0  0  0  0  0
  -28.0836  -18.0523   18.8597 C   0  0  0  0  0  0
  -29.8853  -21.9687   21.0343 N   0  0  0  0  0  0
  -30.1640  -24.9125   21.3366 O   0  0  0  0  0  0
  -28.7429  -20.1413   19.9243 O   0  0  0  0  0  0
  -28.7579  -17.1612   18.1321 F   0  0  0  0  0  0
  -27.1468  -17.3855   19.5311 F   0  0  0  0  0  0
  -27.4639  -18.8725   18.0100 F   0  0  0  0  0  0
  -31.4606  -12.3705   19.1427 H   0  0  0  0  0  0
  -30.2900  -11.3023   19.8605 H   0  0  0  0  0  0
  -29.7390  -11.7578   17.4447 H   0  0  0  0  0  0
  -29.6671  -13.4724   17.7693 H   0  0  0  0  0  0
  -27.8313  -11.3002   18.8380 H   0  0  0  0  0  0
  -27.3672  -12.6091   17.7849 H   0  0  0  0  0  0
  -27.6768  -14.2525   19.5286 H   0  0  0  0  0  0
  -28.6660  -12.0423   21.3992 H   0  0  0  0  0  0
  -28.4719  -13.7211   21.8234 H   0  0  0  0  0  0
  -25.2765   -9.5676   22.4755 H   0  0  0  0  0  0
  -24.0001   -7.4629   22.7473 H   0  0  0  0  0  0
  -21.0839   -8.8771   19.8953 H   0  0  0  0  0  0
  -22.3699  -10.9669   19.6164 H   0  0  0  0  0  0
  -21.2004   -7.6148   23.9715 H   0  0  0  0  0  0
  -21.1481   -6.0524   25.9077 H   0  0  0  0  0  0
  -22.0600   -2.7610   23.2847 H   0  0  0  0  0  0
  -22.4112  -11.9868   22.4800 H   0  0  0  0  0  0
  -21.1116  -13.1238   22.2635 H   0  0  0  0  0  0
  -24.6486  -15.8333   20.5339 H   0  0  0  0  0  0
  -26.2695  -15.6470   20.1111 H   0  0  0  0  0  0
  -26.7121  -32.5526   23.1162 H   0  0  0  0  0  0
  -25.0070  -33.9785   25.0481 H   0  0  0  0  0  0
  -22.6930  -31.3122   21.4157 H   0  0  0  0  0  0
  -23.3746  -35.9648   23.3312 H   0  0  0  0  0  0
  -24.3583  -36.8914   22.2050 H   0  0  0  0  0  0
  -23.7239  -37.6521   23.6645 H   0  0  0  0  0  0
  -26.0538  -31.5951   20.6024 H   0  0  0  0  0  0
  -26.8226  -30.8763   21.9895 H   0  0  0  0  0  0
  -28.0956  -29.0743   21.1760 H   0  0  0  0  0  0
  -26.0050  -25.9972   18.9609 H   0  0  0  0  0  0
  -23.9686  -27.3220   19.0119 H   0  0  0  0  0  0
  -23.7218  -30.6111   19.4082 H   0  0  0  0  0  0
  -22.7348  -29.2561   19.8660 H   0  0  0  0  0  0
  -25.1284  -36.1979   25.0832 H   0  0  0  0  0  0
  -20.9959  -28.3235   24.1430 H   0  0  0  0  0  0
  -20.5671  -26.2276   23.3604 H   0  0  0  0  0  0
  -21.6635  -26.7445   22.1202 H   0  0  0  0  0  0
  -19.6906  -25.6299   21.1231 H   0  0  0  0  0  0
  -19.6683  -27.3204   20.6750 H   0  0  0  0  0  0
  -17.4191  -26.6673   21.4025 H   0  0  0  0  0  0
  -18.0319  -26.0065   22.9018 H   0  0  0  0  0  0
  -19.7932  -30.7246   24.2292 H   0  0  0  0  0  0
  -17.5017  -31.6270   24.5156 H   0  0  0  0  0  0
  -15.5349  -30.2995   23.7647 H   0  0  0  0  0  0
  -15.8663  -28.0827   22.7061 H   0  0  0  0  0  0
  -24.5916  -30.7056   25.7815 H   0  0  0  0  0  0
  -24.8937  -32.2865   26.4936 H   0  0  0  0  0  0
  -25.8098  -30.8871   27.0232 H   0  0  0  0  0  0
  -26.2850  -29.6805   24.1171 H   0  0  0  0  0  0
  -27.4078  -29.7280   25.4573 H   0  0  0  0  0  0
  -27.8689  -30.4359   23.9266 H   0  0  0  0  0  0
  -27.2675  -33.3612   26.2093 H   0  0  0  0  0  0
  -28.3851  -32.6893   25.0309 H   0  0  0  0  0  0
  -28.0738  -31.8430   26.5387 H   0  0  0  0  0  0
  -28.2601  -38.0101   24.7511 H   0  0  0  0  0  0
  -28.1071  -36.2633   24.6294 H   0  0  0  0  0  0
  -27.2299  -37.1463   25.8868 H   0  0  0  0  0  0
  -20.9300  -29.8770   21.6954 H   0  0  0  0  0  0
  -26.0186  -38.2874   24.1412 H   0  0  0  0  0  0
  -31.3937  -19.7497   21.8166 H   0  0  0  0  0  0
  -28.3811  -22.5676   19.7722 H   0  0  0  0  0  0
  -31.6931  -17.1616   21.1684 H   0  0  0  0  0  0
  -31.1736  -16.9366   19.5268 H   0  0  0  0  0  0
  -27.2647  -24.8814   20.2771 H   0  0  0  0  0  0
  -28.2733  -25.0262   18.8393 H   0  0  0  0  0  0
  -29.0201  -15.8200   20.5289 H   0  0  0  0  0  0
  -29.8585  -15.7922   22.0638 H   0  0  0  0  0  0
  1 25  1  0  0  0
  1 30  2  0  0  0
  1 79  1  0  0  0
  2  3  1  0  0  0
  2 25  1  0  0  0
  2 87  1  0  0  0
  2 88  1  0  0  0
  3  4  1  0  0  0
  3 89  1  0  0  0
  3 90  1  0  0  0
  4  5  1  0  0  0
  4 91  1  0  0  0
  4 92  1  0  0  0
  5  6  1  0  0  0
  5 26  1  0  0  0
  5 93  1  0  0  0
  6 25  1  0  0  0
  6 94  1  0  0  0
  6 95  1  0  0  0
  7  8  2  0  0  0
  7 26  1  0  0  0
  7 29  1  0  0  0
  8  9  1  0  0  0
  8 22  1  0  0  0
  9 10  1  0  0  0
  9 27  2  0  0  0
 10 11  2  0  0  0
 10 15  1  0  0  0
 11 12  1  0  0  0
 11 96  1  0  0  0
 12 13  2  0  0  0
 12 97  1  0  0  0
 13 14  1  0  0  0
 13 31  1  0  0  0
 14 15  2  0  0  0
 14 98  1  0  0  0
 15 99  1  0  0  0
 16 17  2  0  0  0
 16 21  1  0  0  0
 16 31  1  0  0  0
 17 18  1  0  0  0
 17100  1  0  0  0
 18 19  2  0  0  0
 18101  1  0  0  0
 19 20  1  0  0  0
 19 24  1  0  0  0
 20 21  2  0  0  0
 20102  1  0  0  0
 21 23  1  0  0  0
 22 28  1  0  0  0
 22 32  2  0  0  0
 26 27  1  0  0  0
 28103  1  0  0  0
 28104  1  0  0  0
 29105  1  0  0  0
 29106  1  0  0  0
 33 34  1  0  0  0
 33 66  1  0  0  0
 33 70  2  0  0  0
 34 36  1  0  0  0
 34 59  1  0  0  0
 34107  1  0  0  0
 35 44  2  0  0  0
 35 45  1  0  0  0
 35 68  1  0  0  0
 36 56  1  0  0  0
 36108  1  0  0  0
 37 39  1  0  0  0
 37 47  1  0  0  0
 37 66  1  0  0  0
 37109  1  0  0  0
 38 43  2  0  0  0
 38 46  1  0  0  0
 38 47  1  0  0  0
 39 64  1  0  0  0
 39 67  2  0  0  0
 40 52  1  0  0  0
 40 53  2  0  0  0
 40 58  1  0  0  0
 41110  1  0  0  0
 41111  1  0  0  0
 41112  1  0  0  0
 41 48  1  0  0  0
 42 43  1  0  0  0
 42 66  1  0  0  0
 42113  1  0  0  0
 42114  1  0  0  0
 43 44  1  0  0  0
 44115  1  0  0  0
 45 46  2  0  0  0
 45116  1  0  0  0
 46117  1  0  0  0
 47118  1  0  0  0
 47119  1  0  0  0
 48 56  1  0  0  0
 48 65  1  0  0  0
 48120  1  0  0  0
 49 50  1  0  0  0
 49 53  1  0  0  0
 49 64  1  0  0  0
 49121  1  0  0  0
 50 51  1  0  0  0
 50122  1  0  0  0
 50123  1  0  0  0
 51 52  1  0  0  0
 51124  1  0  0  0
 51125  1  0  0  0
 52126  1  0  0  0
 52127  1  0  0  0
 53 54  1  0  0  0
 54 55  2  0  0  0
 54128  1  0  0  0
 55 57  1  0  0  0
 55129  1  0  0  0
 56 69  2  0  0  0
 57 58  2  0  0  0
 57130  1  0  0  0
 58131  1  0  0  0
 59 60  1  0  0  0
 59 61  1  0  0  0
 59 62  1  0  0  0
 60132  1  0  0  0
 60133  1  0  0  0
 60134  1  0  0  0
 61135  1  0  0  0
 61136  1  0  0  0
 61137  1  0  0  0
 62138  1  0  0  0
 62139  1  0  0  0
 62140  1  0  0  0
 63 65  1  0  0  0
 63141  1  0  0  0
 63142  1  0  0  0
 63143  1  0  0  0
 64144  1  0  0  0
 65145  1  0  0  0
 68 78  1  0  0  0
 71 72  1  0  0  0
 71 74  2  0  0  0
 71146  1  0  0  0
 72 73  2  0  0  0
 72 77  1  0  0  0
 73 80  1  0  0  0
 73 83  1  0  0  0
 74 81  1  0  0  0
 74 83  1  0  0  0
 75 76  1  0  0  0
 75 81  2  0  0  0
 75147  1  0  0  0
 76 78  1  0  0  0
 76 82  2  0  0  0
 77 79  1  0  0  0
 77148  1  0  0  0
 77149  1  0  0  0
 78150  1  0  0  0
 78151  1  0  0  0
 79152  1  0  0  0
 79153  1  0  0  0
 80 84  1  0  0  0
 80 85  1  0  0  0
 80 86  1  0  0  0
M  ISO  4   1 100  68 101  78 101  79 100
M  END
> <chiral flag>
0

> <version>
0

> <s_m_source_file>
/data/baiqing/PycharmProjects/Reinvent-master-3.2/result/LINK_invent/BTK/process_docking_weight1_custom_product_contain_oxygen_bond_distance_aromatic_linkinvent_7_9_3/rearranged_h_0166.sdf

> <i_m_source_file_index>
41

> <r_mmod_Potential_Energy-OPLS-2005>
-8.82108306884766

> <r_mmod_Stretch_Energy-OPLS-2005>
39.9337463378906

> <r_mmod_Bend_Energy-OPLS-2005>
104.732749938965

> <r_mmod_Torsional_Energy-OPLS-2005>
174.441497802734

> <r_mmod_Improper_Torsional_Energy-OPLS-2005>
4.67911386489868

> <r_mmod_Van_der_Waal_Energy-OPLS-2005>
131.898498535156

> <r_mmod_Electrostatic_Energy-OPLS-2005>
-263.464752197266

> <r_mmod_Solvation_Energy-OPLS-2005>
-220.413589477539

> <b_mmod_Minimization_Converged-OPLS-2005>
0

> <r_mmod_RMS_Derivative-OPLS-2005>
0.372022956609726

$$$$
41
                    3D
 Structure written by MMmdl.
150158  0  0  1  0            999 V2000
  -30.6482  -14.8256   20.4861 C   0  0  0  0  0  0
  -30.4364  -12.5243   19.5049 C   0  0  0  0  0  0
  -29.5104  -12.4530   18.2717 C   0  0  0  0  0  0
  -28.0719  -12.1839   18.7388 C   0  0  0  0  0  0
  -27.6323  -13.1889   19.8320 C   0  0  2  0  0  0
  -28.6646  -13.2856   20.9768 C   0  0  0  0  0  0
  -25.2645  -13.8120   20.5739 C   0  0  0  0  0  0
  -24.1870  -13.0483   20.9230 C   0  0  0  0  0  0
  -24.6386  -11.6908   20.8860 C   0  0  0  0  0  0
  -23.9046  -10.4312   21.0493 C   0  0  0  0  0  0
  -24.3602   -9.4214   21.9242 C   0  0  0  0  0  0
  -23.6279   -8.2245   22.0779 C   0  0  0  0  0  0
  -22.4258   -8.0312   21.3570 C   0  0  0  0  0  0
  -21.9886   -9.0299   20.4694 C   0  0  0  0  0  0
  -22.7212  -10.2172   20.3129 C   0  0  0  0  0  0
  -21.6827   -6.0746   22.5294 C   0  0  0  0  0  0
  -21.3988   -6.5639   23.8217 C   0  0  0  0  0  0
  -21.3653   -5.6793   24.9180 C   0  0  0  0  0  0
  -21.6016   -4.3066   24.7235 C   0  0  0  0  0  0
  -21.8811   -3.8156   23.4358 C   0  0  0  0  0  0
  -21.9197   -4.6972   22.3414 C   0  0  0  0  0  0
  -22.7910  -13.5307   21.1859 C   0  0  0  0  0  0
  -22.1671   -4.2153   21.0995 F   0  0  0  0  0  0
  -21.5649   -3.4572   25.7762 F   0  0  0  0  0  0
  -29.9651  -13.6269   20.3833 N   0  0  0  0  0  0
  -26.2927  -12.9182   20.3287 N   0  0  0  0  0  0
  -25.9280  -11.6396   20.5850 N   0  0  0  0  0  0
  -22.0514  -12.8325   22.0407 N   0  0  0  0  0  0
  -25.4644  -15.1852   20.4221 N   0  0  0  0  0  0
  -31.8225  -14.8561   20.1076 O   0  0  0  0  0  0
  -21.6619   -6.8898   21.4263 O   0  0  0  0  0  0
  -22.3671  -14.5669   20.6726 O   0  0  0  0  0  0
  -24.6309  -31.8556   23.2012 C   0  0  0  0  0  0
  -25.9123  -32.4751   23.8354 C   0  0  1  0  0  0
  -27.2121  -27.2625   20.0969 C   0  0  0  0  0  0
  -25.5916  -33.8560   24.2265 N   0  0  0  0  0  0
  -23.4258  -30.4802   21.5458 C   0  0  2  0  0  0
  -24.8710  -28.9365   20.1034 C   0  0  0  0  0  0
  -22.7482  -29.4628   22.4931 C   0  0  0  0  0  0
  -18.0291  -28.1392   22.8456 C   0  0  0  0  0  0
  -24.1488  -36.7286   23.2644 C   0  0  0  0  0  0
  -25.9723  -30.7657   21.3791 C   0  0  0  0  0  0
  -26.0426  -29.3864   20.7233 C   0  0  0  0  0  0
  -27.2108  -28.5588   20.7217 C   0  0  0  0  0  0
  -26.0246  -26.9054   19.4152 C   0  0  0  0  0  0
  -24.8695  -27.7045   19.4392 C   0  0  0  0  0  0
  -23.6400  -29.8204   20.1600 C   0  0  0  0  0  0
  -25.4107  -36.3069   24.0333 C   0  0  1  0  0  0
  -20.5897  -28.3732   23.1316 C   0  0  2  0  0  0
  -20.6807  -26.9414   22.5501 C   0  0  0  0  0  0
  -19.5815  -26.6338   21.5256 C   0  0  0  0  0  0
  -18.1951  -26.7910   22.1626 C   0  0  0  0  0  0
  -19.1530  -28.8878   23.2855 C   0  0  0  0  0  0
  -18.9419  -30.1493   23.8844 C   0  0  0  0  0  0
  -17.6430  -30.6619   24.0511 C   0  0  0  0  0  0
  -25.9057  -34.9426   23.5115 C   0  0  0  0  0  0
  -16.5328  -29.9084   23.6275 C   0  0  0  0  0  0
  -16.7275  -28.6502   23.0328 C   0  0  0  0  0  0
  -26.4512  -31.6577   25.0741 C   0  0  0  0  0  0
  -25.3764  -31.3716   26.1482 C   0  0  0  0  0  0
  -27.0346  -30.3002   24.6207 C   0  0  0  0  0  0
  -27.6080  -32.4305   25.7510 C   0  0  0  0  0  0
  -27.5573  -37.1806   24.8474 C   0  0  0  0  0  0
  -21.4178  -29.3105   22.3692 N   0  0  0  0  0  0
  -26.4275  -37.3783   23.9424 N   0  0  0  0  0  0
  -24.6962  -31.0521   22.0992 N   0  0  0  0  0  0
  -23.4183  -28.8120   23.2971 O   0  0  0  0  0  0
  -28.2924  -26.3468   20.1697 O   0  0  0  0  0  0
  -26.5633  -34.8904   22.4686 O   0  0  0  0  0  0
  -23.5460  -32.1360   23.7311 O   0  0  0  0  0  0
  -27.7515  -18.0692   18.8730 C   0  0  0  0  0  0
  -28.5193  -16.9973   19.3692 C   0  0  0  0  0  0
  -27.9825  -19.3789   19.3317 C   0  0  0  0  0  0
  -29.4658  -17.1968   20.3942 C   0  0  0  0  0  0
  -28.9840  -19.6209   20.2819 C   0  0  0  0  0  0
  -28.8770  -23.7167   20.4209 C   0  0  0  0  0  0
  -28.6107  -22.2017   19.9603 C   0  0  0  0  0  0
  -28.0804  -24.9223   19.7175 C   0  0  0  0  0  0
  -29.6688  -18.5258   20.8220 N   0  0  0  0  0  0
  -30.0712  -15.9814   21.0124 N   0  0  0  0  0  0
  -29.2430  -20.9976   20.6583 N   0  0  0  0  0  0
  -29.6960  -23.9427   21.3176 O   0  0  0  0  0  0
  -31.4637  -12.6632   19.1705 H   0  0  0  0  0  0
  -30.4397  -11.5907   20.0707 H   0  0  0  0  0  0
  -29.8453  -11.6568   17.6047 H   0  0  0  0  0  0
  -29.5460  -13.3790   17.6974 H   0  0  0  0  0  0
  -28.0679  -11.1757   19.1627 H   0  0  0  0  0  0
  -27.3748  -12.1567   17.9008 H   0  0  0  0  0  0
  -27.5761  -14.1488   19.3343 H   0  0  0  0  0  0
  -28.7302  -12.3536   21.5420 H   0  0  0  0  0  0
  -28.3450  -14.0584   21.6803 H   0  0  0  0  0  0
  -25.2742   -9.5642   22.4835 H   0  0  0  0  0  0
  -24.0009   -7.4611   22.7446 H   0  0  0  0  0  0
  -21.0814   -8.8814   19.8986 H   0  0  0  0  0  0
  -22.3684  -10.9757   19.6282 H   0  0  0  0  0  0
  -21.1956   -7.6142   23.9726 H   0  0  0  0  0  0
  -21.1477   -6.0537   25.9077 H   0  0  0  0  0  0
  -22.0595   -2.7629   23.2879 H   0  0  0  0  0  0
  -22.4123  -11.9992   22.4825 H   0  0  0  0  0  0
  -21.1217  -13.1493   22.2757 H   0  0  0  0  0  0
  -24.7317  -15.8659   20.5762 H   0  0  0  0  0  0
  -26.3627  -15.6139   20.2471 H   0  0  0  0  0  0
  -26.7218  -32.5413   23.1109 H   0  0  0  0  0  0
  -25.0011  -33.9741   25.0366 H   0  0  0  0  0  0
  -22.7221  -31.3015   21.4059 H   0  0  0  0  0  0
  -23.3734  -35.9643   23.3318 H   0  0  0  0  0  0
  -24.3581  -36.8916   22.2068 H   0  0  0  0  0  0
  -23.7264  -37.6510   23.6650 H   0  0  0  0  0  0
  -26.1075  -31.5246   20.6062 H   0  0  0  0  0  0
  -26.8508  -30.8223   22.0086 H   0  0  0  0  0  0
  -28.1037  -28.8970   21.2297 H   0  0  0  0  0  0
  -25.9382  -25.9919   18.8455 H   0  0  0  0  0  0
  -23.9849  -27.3730   18.9143 H   0  0  0  0  0  0
  -23.7468  -30.6010   19.4038 H   0  0  0  0  0  0
  -22.7571  -29.2547   19.8621 H   0  0  0  0  0  0
  -25.1286  -36.1932   25.0831 H   0  0  0  0  0  0
  -20.9994  -28.3390   24.1447 H   0  0  0  0  0  0
  -20.5568  -26.2360   23.3712 H   0  0  0  0  0  0
  -21.6743  -26.7395   22.1440 H   0  0  0  0  0  0
  -19.7045  -25.6203   21.1369 H   0  0  0  0  0  0
  -19.6762  -27.3084   20.6720 H   0  0  0  0  0  0
  -17.4267  -26.6593   21.4007 H   0  0  0  0  0  0
  -18.0260  -26.0064   22.9057 H   0  0  0  0  0  0
  -19.7913  -30.7286   24.2252 H   0  0  0  0  0  0
  -17.4984  -31.6306   24.5117 H   0  0  0  0  0  0
  -15.5272  -30.2933   23.7616 H   0  0  0  0  0  0
  -15.8736  -28.0707   22.7120 H   0  0  0  0  0  0
  -24.5917  -30.7083   25.7826 H   0  0  0  0  0  0
  -24.8951  -32.2876   26.4930 H   0  0  0  0  0  0
  -25.8100  -30.8896   27.0246 H   0  0  0  0  0  0
  -26.2907  -29.6775   24.1232 H   0  0  0  0  0  0
  -27.4057  -29.7267   25.4710 H   0  0  0  0  0  0
  -27.8784  -30.4309   23.9423 H   0  0  0  0  0  0
  -27.2699  -33.3584   26.2121 H   0  0  0  0  0  0
  -28.3870  -32.6903   25.0331 H   0  0  0  0  0  0
  -28.0758  -31.8400   26.5420 H   0  0  0  0  0  0
  -28.2616  -38.0073   24.7457 H   0  0  0  0  0  0
  -28.1034  -36.2607   24.6333 H   0  0  0  0  0  0
  -27.2286  -37.1493   25.8876 H   0  0  0  0  0  0
  -20.9329  -29.8919   21.6986 H   0  0  0  0  0  0
  -26.0151  -38.2876   24.1378 H   0  0  0  0  0  0
  -26.9797  -17.8867   18.1368 H   0  0  0  0  0  0
  -28.3297  -16.0229   18.9528 H   0  0  0  0  0  0
  -27.3773  -20.1827   18.9350 H   0  0  0  0  0  0
  -28.8941  -22.1585   18.9042 H   0  0  0  0  0  0
  -27.5270  -22.0689   19.9890 H   0  0  0  0  0  0
  -28.2919  -24.8802   18.6445 H   0  0  0  0  0  0
  -27.0346  -24.6454   19.8392 H   0  0  0  0  0  0
  -30.6644  -16.2870   21.7672 H   0  0  0  0  0  0
  -29.9180  -21.2039   21.3874 H   0  0  0  0  0  0
  1 25  1  0  0  0
  1 30  2  0  0  0
  1 80  1  0  0  0
  2  3  1  0  0  0
  2 25  1  0  0  0
  2 83  1  0  0  0
  2 84  1  0  0  0
  3  4  1  0  0  0
  3 85  1  0  0  0
  3 86  1  0  0  0
  4  5  1  0  0  0
  4 87  1  0  0  0
  4 88  1  0  0  0
  5  6  1  0  0  0
  5 26  1  0  0  0
  5 89  1  0  0  0
  6 25  1  0  0  0
  6 90  1  0  0  0
  6 91  1  0  0  0
  7  8  2  0  0  0
  7 26  1  0  0  0
  7 29  1  0  0  0
  8  9  1  0  0  0
  8 22  1  0  0  0
  9 10  1  0  0  0
  9 27  2  0  0  0
 10 11  2  0  0  0
 10 15  1  0  0  0
 11 12  1  0  0  0
 11 92  1  0  0  0
 12 13  2  0  0  0
 12 93  1  0  0  0
 13 14  1  0  0  0
 13 31  1  0  0  0
 14 15  2  0  0  0
 14 94  1  0  0  0
 15 95  1  0  0  0
 16 17  2  0  0  0
 16 21  1  0  0  0
 16 31  1  0  0  0
 17 18  1  0  0  0
 17 96  1  0  0  0
 18 19  2  0  0  0
 18 97  1  0  0  0
 19 20  1  0  0  0
 19 24  1  0  0  0
 20 21  2  0  0  0
 20 98  1  0  0  0
 21 23  1  0  0  0
 22 28  1  0  0  0
 22 32  2  0  0  0
 26 27  1  0  0  0
 28 99  1  0  0  0
 28100  1  0  0  0
 29101  1  0  0  0
 29102  1  0  0  0
 33 34  1  0  0  0
 33 66  1  0  0  0
 33 70  2  0  0  0
 34 36  1  0  0  0
 34 59  1  0  0  0
 34103  1  0  0  0
 35 44  2  0  0  0
 35 45  1  0  0  0
 35 68  1  0  0  0
 36 56  1  0  0  0
 36104  1  0  0  0
 37 39  1  0  0  0
 37 47  1  0  0  0
 37 66  1  0  0  0
 37105  1  0  0  0
 38 43  2  0  0  0
 38 46  1  0  0  0
 38 47  1  0  0  0
 39 64  1  0  0  0
 39 67  2  0  0  0
 40 52  1  0  0  0
 40 53  2  0  0  0
 40 58  1  0  0  0
 41106  1  0  0  0
 41107  1  0  0  0
 41108  1  0  0  0
 41 48  1  0  0  0
 42 43  1  0  0  0
 42 66  1  0  0  0
 42109  1  0  0  0
 42110  1  0  0  0
 43 44  1  0  0  0
 44111  1  0  0  0
 45 46  2  0  0  0
 45112  1  0  0  0
 46113  1  0  0  0
 47114  1  0  0  0
 47115  1  0  0  0
 48 56  1  0  0  0
 48 65  1  0  0  0
 48116  1  0  0  0
 49 50  1  0  0  0
 49 53  1  0  0  0
 49 64  1  0  0  0
 49117  1  0  0  0
 50 51  1  0  0  0
 50118  1  0  0  0
 50119  1  0  0  0
 51 52  1  0  0  0
 51120  1  0  0  0
 51121  1  0  0  0
 52122  1  0  0  0
 52123  1  0  0  0
 53 54  1  0  0  0
 54 55  2  0  0  0
 54124  1  0  0  0
 55 57  1  0  0  0
 55125  1  0  0  0
 56 69  2  0  0  0
 57 58  2  0  0  0
 57126  1  0  0  0
 58127  1  0  0  0
 59 60  1  0  0  0
 59 61  1  0  0  0
 59 62  1  0  0  0
 60128  1  0  0  0
 60129  1  0  0  0
 60130  1  0  0  0
 61131  1  0  0  0
 61132  1  0  0  0
 61133  1  0  0  0
 62134  1  0  0  0
 62135  1  0  0  0
 62136  1  0  0  0
 63 65  1  0  0  0
 63137  1  0  0  0
 63138  1  0  0  0
 63139  1  0  0  0
 64140  1  0  0  0
 65141  1  0  0  0
 68 78  1  0  0  0
 71 72  2  0  0  0
 71 73  1  0  0  0
 71142  1  0  0  0
 72 74  1  0  0  0
 72143  1  0  0  0
 73 75  2  0  0  0
 73144  1  0  0  0
 74 79  2  0  0  0
 74 80  1  0  0  0
 75 79  1  0  0  0
 75 81  1  0  0  0
 76 77  1  0  0  0
 76 78  1  0  0  0
 76 82  2  0  0  0
 77 81  1  0  0  0
 77145  1  0  0  0
 77146  1  0  0  0
 78147  1  0  0  0
 78148  1  0  0  0
 80149  1  0  0  0
 81150  1  0  0  0
M  ISO  4   1 100  68 101  78 101  80 100
M  END
> <chiral flag>
0

> <version>
0

> <s_m_source_file>
/data/baiqing/PycharmProjects/Reinvent-master-3.2/result/LINK_invent/BTK/process_docking_weight1_custom_product_contain_oxygen_bond_distance_aromatic_linkinvent_7_9_3/rearranged_h_0166.sdf

> <i_m_source_file_index>
42

> <r_mmod_Potential_Energy-OPLS-2005>
12.9118328094482

> <r_mmod_Stretch_Energy-OPLS-2005>
131.854461669922

> <r_mmod_Bend_Energy-OPLS-2005>
197.938842773438

> <r_mmod_Torsional_Energy-OPLS-2005>
247.652786254883

> <r_mmod_Improper_Torsional_Energy-OPLS-2005>
5.85845708847046

> <r_mmod_Van_der_Waal_Energy-OPLS-2005>
144.393676757812

> <r_mmod_Electrostatic_Energy-OPLS-2005>
-580.594543457031

> <r_mmod_Solvation_Energy-OPLS-2005>
-253.978530883789

> <b_mmod_Minimization_Converged-OPLS-2005>
0

> <r_mmod_RMS_Derivative-OPLS-2005>
6.53633213043213

$$$$
42
                    3D
 Structure written by MMmdl.
156164  0  0  1  0            999 V2000
  -30.6717  -14.5823   20.5421 C   0  0  0  0  0  0
  -30.4274  -12.3810   19.3943 C   0  0  0  0  0  0
  -29.4752  -12.4665   18.1853 C   0  0  0  0  0  0
  -28.0058  -12.3081   18.6238 C   0  0  0  0  0  0
  -27.6359  -13.2026   19.8376 C   0  0  2  0  0  0
  -28.6935  -13.0610   20.9524 C   0  0  0  0  0  0
  -25.2508  -13.8166   20.5815 C   0  0  0  0  0  0
  -24.1773  -13.0443   20.9287 C   0  0  0  0  0  0
  -24.6332  -11.6897   20.8828 C   0  0  0  0  0  0
  -23.9012  -10.4296   21.0489 C   0  0  0  0  0  0
  -24.3585   -9.4192   21.9253 C   0  0  0  0  0  0
  -23.6267   -8.2220   22.0776 C   0  0  0  0  0  0
  -22.4252   -8.0287   21.3579 C   0  0  0  0  0  0
  -21.9897   -9.0246   20.4652 C   0  0  0  0  0  0
  -22.7207  -10.2142   20.3085 C   0  0  0  0  0  0
  -21.6790   -6.0739   22.5305 C   0  0  0  0  0  0
  -21.3976   -6.5642   23.8248 C   0  0  0  0  0  0
  -21.3645   -5.6782   24.9212 C   0  0  0  0  0  0
  -21.6045   -4.3052   24.7244 C   0  0  0  0  0  0
  -21.8783   -3.8153   23.4358 C   0  0  0  0  0  0
  -21.9197   -4.6978   22.3431 C   0  0  0  0  0  0
  -22.7757  -13.5259   21.1806 C   0  0  0  0  0  0
  -22.1659   -4.2176   21.0991 F   0  0  0  0  0  0
  -21.5637   -3.4524   25.7746 F   0  0  0  0  0  0
  -30.0010  -13.4025   20.3685 N   0  0  0  0  0  0
  -26.2875  -12.9314   20.3262 N   0  0  0  0  0  0
  -25.9248  -11.6495   20.5774 N   0  0  0  0  0  0
  -22.0280  -12.8389   22.0339 N   0  0  0  0  0  0
  -25.4220  -15.1903   20.4346 N   0  0  0  0  0  0
  -31.8499  -14.7159   20.2023 O   0  0  0  0  0  0
  -21.6597   -6.8903   21.4273 O   0  0  0  0  0  0
  -22.3529  -14.5575   20.6547 O   0  0  0  0  0  0
  -24.6396  -31.8567   23.2081 C   0  0  0  0  0  0
  -25.9214  -32.4793   23.8454 C   0  0  1  0  0  0
  -27.2315  -27.2974   20.0784 C   0  0  0  0  0  0
  -25.6046  -33.8611   24.2365 N   0  0  0  0  0  0
  -23.4384  -30.4863   21.5520 C   0  0  2  0  0  0
  -24.8773  -28.9398   20.1042 C   0  0  0  0  0  0
  -22.7550  -29.4638   22.4921 C   0  0  0  0  0  0
  -18.0360  -28.1413   22.8091 C   0  0  0  0  0  0
  -24.1504  -36.7364   23.2631 C   0  0  0  0  0  0
  -25.9864  -30.7710   21.3816 C   0  0  0  0  0  0
  -26.0504  -29.3995   20.7154 C   0  0  0  0  0  0
  -27.2302  -28.5913   20.6942 C   0  0  0  0  0  0
  -26.0290  -26.9001   19.4456 C   0  0  0  0  0  0
  -24.8694  -27.6961   19.4609 C   0  0  0  0  0  0
  -23.6561  -29.8368   20.1587 C   0  0  0  0  0  0
  -25.4102  -36.3120   24.0344 C   0  0  1  0  0  0
  -20.5940  -28.3691   23.1177 C   0  0  2  0  0  0
  -20.6801  -26.9323   22.5546 C   0  0  0  0  0  0
  -19.6003  -26.6197   21.5171 C   0  0  0  0  0  0
  -18.1994  -26.8071   22.1007 C   0  0  0  0  0  0
  -19.1567  -28.8779   23.2743 C   0  0  0  0  0  0
  -18.9406  -30.1205   23.9069 C   0  0  0  0  0  0
  -17.6410  -30.6308   24.0747 C   0  0  0  0  0  0
  -25.9056  -34.9487   23.5122 C   0  0  0  0  0  0
  -16.5328  -29.8974   23.6140 C   0  0  0  0  0  0
  -16.7370  -28.6582   22.9870 C   0  0  0  0  0  0
  -26.4533  -31.6609   25.0863 C   0  0  0  0  0  0
  -25.3739  -31.3743   26.1596 C   0  0  0  0  0  0
  -27.0401  -30.3029   24.6311 C   0  0  0  0  0  0
  -27.6066  -32.4383   25.7611 C   0  0  0  0  0  0
  -27.5603  -37.1869   24.8467 C   0  0  0  0  0  0
  -21.4258  -29.2918   22.3447 N   0  0  0  0  0  0
  -26.4320  -37.3789   23.9391 N   0  0  0  0  0  0
  -24.7115  -31.0577   22.1026 N   0  0  0  0  0  0
  -23.4163  -28.8268   23.3132 O   0  0  0  0  0  0
  -28.3372  -26.4180   20.0984 O   0  0  0  0  0  0
  -26.5549  -34.8937   22.4653 O   0  0  0  0  0  0
  -23.5543  -32.1329   23.7394 O   0  0  0  0  0  0
  -30.0952  -15.7623   23.2436 C   0  0  0  0  0  0
  -29.9442  -16.3823   24.4942 C   0  0  0  0  0  0
  -29.6939  -18.5175   23.3764 C   0  0  0  0  0  0
  -30.0077  -16.4971   22.0260 C   0  0  0  0  0  0
  -29.8291  -17.9392   22.0818 C   0  0  0  0  0  0
  -29.7422  -17.7651   24.5597 C   0  0  0  0  0  0
  -29.1152  -23.9018   20.1347 C   0  0  0  0  0  0
  -29.9568  -20.2031   20.9330 C   0  0  0  0  0  0
  -28.5652  -22.4341   20.3432 C   0  0  0  0  0  0
  -28.1207  -25.0176   19.6320 C   0  0  0  0  0  0
  -29.4191  -21.1848   19.8401 C   0  0  0  0  0  0
  -29.6668  -18.8525   20.9491 N   0  0  0  0  0  0
  -29.9106  -15.6781   20.8433 N   0  0  0  0  0  0
  -30.3101  -24.1561   20.3370 O   0  0  0  0  0  0
  -30.7308  -20.7014   21.7545 O   0  0  0  0  0  0
  -29.5616  -18.3840   25.7541 F   0  0  0  0  0  0
  -31.4556  -12.5340   19.0599 H   0  0  0  0  0  0
  -30.4019  -11.3869   19.8447 H   0  0  0  0  0  0
  -29.7237  -11.7022   17.4451 H   0  0  0  0  0  0
  -29.5986  -13.4205   17.6759 H   0  0  0  0  0  0
  -27.8589  -11.2587   18.8916 H   0  0  0  0  0  0
  -27.3288  -12.5032   17.7910 H   0  0  0  0  0  0
  -27.6554  -14.2303   19.4809 H   0  0  0  0  0  0
  -28.6993  -12.0364   21.3201 H   0  0  0  0  0  0
  -28.4530  -13.6948   21.8076 H   0  0  0  0  0  0
  -25.2706   -9.5635   22.4874 H   0  0  0  0  0  0
  -23.9938   -7.4578   22.7475 H   0  0  0  0  0  0
  -21.0825   -8.8739   19.8957 H   0  0  0  0  0  0
  -22.3657  -10.9691   19.6198 H   0  0  0  0  0  0
  -21.1923   -7.6133   23.9759 H   0  0  0  0  0  0
  -21.1505   -6.0516   25.9115 H   0  0  0  0  0  0
  -22.0585   -2.7614   23.2842 H   0  0  0  0  0  0
  -22.3803  -12.0163   22.4979 H   0  0  0  0  0  0
  -21.0840  -13.1464   22.2270 H   0  0  0  0  0  0
  -24.6580  -15.8417   20.5784 H   0  0  0  0  0  0
  -26.2602  -15.6395   20.0924 H   0  0  0  0  0  0
  -26.7300  -32.5363   23.1221 H   0  0  0  0  0  0
  -25.0448  -33.9755   25.0679 H   0  0  0  0  0  0
  -22.7432  -31.3164   21.4118 H   0  0  0  0  0  0
  -23.3746  -35.9740   23.3280 H   0  0  0  0  0  0
  -24.3603  -36.8978   22.2060 H   0  0  0  0  0  0
  -23.7304  -37.6602   23.6601 H   0  0  0  0  0  0
  -26.1366  -31.5280   20.6131 H   0  0  0  0  0  0
  -26.8596  -30.8156   22.0172 H   0  0  0  0  0  0
  -28.1301  -28.9544   21.1730 H   0  0  0  0  0  0
  -25.9416  -25.9668   18.9077 H   0  0  0  0  0  0
  -23.9779  -27.3400   18.9626 H   0  0  0  0  0  0
  -23.8124  -30.6319   19.4285 H   0  0  0  0  0  0
  -22.7655  -29.3033   19.8202 H   0  0  0  0  0  0
  -25.1267  -36.2057   25.0846 H   0  0  0  0  0  0
  -21.0027  -28.3450   24.1315 H   0  0  0  0  0  0
  -20.5448  -26.2333   23.3852 H   0  0  0  0  0  0
  -21.6717  -26.7222   22.1578 H   0  0  0  0  0  0
  -19.7099  -25.6023   21.1435 H   0  0  0  0  0  0
  -19.7441  -27.2711   20.6549 H   0  0  0  0  0  0
  -17.4575  -26.7273   21.3055 H   0  0  0  0  0  0
  -17.9771  -26.0092   22.8099 H   0  0  0  0  0  0
  -19.7861  -30.6791   24.2856 H   0  0  0  0  0  0
  -17.4952  -31.5784   24.5740 H   0  0  0  0  0  0
  -15.5296  -30.2823   23.7388 H   0  0  0  0  0  0
  -15.8797  -28.1034   22.6231 H   0  0  0  0  0  0
  -24.5859  -30.7141   25.7936 H   0  0  0  0  0  0
  -24.8998  -32.2928   26.5087 H   0  0  0  0  0  0
  -25.8087  -30.8880   27.0345 H   0  0  0  0  0  0
  -26.2988  -29.6770   24.1316 H   0  0  0  0  0  0
  -27.4100  -29.7288   25.4833 H   0  0  0  0  0  0
  -27.8856  -30.4347   23.9535 H   0  0  0  0  0  0
  -27.2610  -33.3629   26.2218 H   0  0  0  0  0  0
  -28.3811  -32.7065   25.0421 H   0  0  0  0  0  0
  -28.0793  -31.8549   26.5512 H   0  0  0  0  0  0
  -28.2629  -38.0152   24.7455 H   0  0  0  0  0  0
  -28.1084  -36.2701   24.6324 H   0  0  0  0  0  0
  -27.2321  -37.1553   25.8867 H   0  0  0  0  0  0
  -20.9524  -29.8217   21.6273 H   0  0  0  0  0  0
  -26.0236  -38.2902   24.1290 H   0  0  0  0  0  0
  -30.2149  -14.6895   23.2465 H   0  0  0  0  0  0
  -29.9457  -15.7937   25.4021 H   0  0  0  0  0  0
  -29.5030  -19.5680   23.4989 H   0  0  0  0  0  0
  -27.6015  -22.3792   19.8264 H   0  0  0  0  0  0
  -28.3157  -22.3141   21.4015 H   0  0  0  0  0  0
  -27.1337  -24.6565   19.9152 H   0  0  0  0  0  0
  -28.1583  -25.0068   18.5350 H   0  0  0  0  0  0
  -30.2742  -21.5407   19.2535 H   0  0  0  0  0  0
  -28.8183  -20.6073   19.1398 H   0  0  0  0  0  0
  -29.1969  -18.4654   20.1428 H   0  0  0  0  0  0
  -28.9501  -15.5422   20.5712 H   0  0  0  0  0  0
  1 25  1  0  0  0
  1 30  2  0  0  0
  1 83  1  0  0  0
  2  3  1  0  0  0
  2 25  1  0  0  0
  2 87  1  0  0  0
  2 88  1  0  0  0
  3  4  1  0  0  0
  3 89  1  0  0  0
  3 90  1  0  0  0
  4  5  1  0  0  0
  4 91  1  0  0  0
  4 92  1  0  0  0
  5  6  1  0  0  0
  5 26  1  0  0  0
  5 93  1  0  0  0
  6 25  1  0  0  0
  6 94  1  0  0  0
  6 95  1  0  0  0
  7  8  2  0  0  0
  7 26  1  0  0  0
  7 29  1  0  0  0
  8  9  1  0  0  0
  8 22  1  0  0  0
  9 10  1  0  0  0
  9 27  2  0  0  0
 10 11  2  0  0  0
 10 15  1  0  0  0
 11 12  1  0  0  0
 11 96  1  0  0  0
 12 13  2  0  0  0
 12 97  1  0  0  0
 13 14  1  0  0  0
 13 31  1  0  0  0
 14 15  2  0  0  0
 14 98  1  0  0  0
 15 99  1  0  0  0
 16 17  2  0  0  0
 16 21  1  0  0  0
 16 31  1  0  0  0
 17 18  1  0  0  0
 17100  1  0  0  0
 18 19  2  0  0  0
 18101  1  0  0  0
 19 20  1  0  0  0
 19 24  1  0  0  0
 20 21  2  0  0  0
 20102  1  0  0  0
 21 23  1  0  0  0
 22 28  1  0  0  0
 22 32  2  0  0  0
 26 27  1  0  0  0
 28103  1  0  0  0
 28104  1  0  0  0
 29105  1  0  0  0
 29106  1  0  0  0
 33 34  1  0  0  0
 33 66  1  0  0  0
 33 70  2  0  0  0
 34 36  1  0  0  0
 34 59  1  0  0  0
 34107  1  0  0  0
 35 44  2  0  0  0
 35 45  1  0  0  0
 35 68  1  0  0  0
 36 56  1  0  0  0
 36108  1  0  0  0
 37 39  1  0  0  0
 37 47  1  0  0  0
 37 66  1  0  0  0
 37109  1  0  0  0
 38 43  2  0  0  0
 38 46  1  0  0  0
 38 47  1  0  0  0
 39 64  1  0  0  0
 39 67  2  0  0  0
 40 52  1  0  0  0
 40 53  2  0  0  0
 40 58  1  0  0  0
 41110  1  0  0  0
 41111  1  0  0  0
 41112  1  0  0  0
 41 48  1  0  0  0
 42 43  1  0  0  0
 42 66  1  0  0  0
 42113  1  0  0  0
 42114  1  0  0  0
 43 44  1  0  0  0
 44115  1  0  0  0
 45 46  2  0  0  0
 45116  1  0  0  0
 46117  1  0  0  0
 47118  1  0  0  0
 47119  1  0  0  0
 48 56  1  0  0  0
 48 65  1  0  0  0
 48120  1  0  0  0
 49 50  1  0  0  0
 49 53  1  0  0  0
 49 64  1  0  0  0
 49121  1  0  0  0
 50 51  1  0  0  0
 50122  1  0  0  0
 50123  1  0  0  0
 51 52  1  0  0  0
 51124  1  0  0  0
 51125  1  0  0  0
 52126  1  0  0  0
 52127  1  0  0  0
 53 54  1  0  0  0
 54 55  2  0  0  0
 54128  1  0  0  0
 55 57  1  0  0  0
 55129  1  0  0  0
 56 69  2  0  0  0
 57 58  2  0  0  0
 57130  1  0  0  0
 58131  1  0  0  0
 59 60  1  0  0  0
 59 61  1  0  0  0
 59 62  1  0  0  0
 60132  1  0  0  0
 60133  1  0  0  0
 60134  1  0  0  0
 61135  1  0  0  0
 61136  1  0  0  0
 61137  1  0  0  0
 62138  1  0  0  0
 62139  1  0  0  0
 62140  1  0  0  0
 63 65  1  0  0  0
 63141  1  0  0  0
 63142  1  0  0  0
 63143  1  0  0  0
 64144  1  0  0  0
 65145  1  0  0  0
 68 80  1  0  0  0
 71 72  2  0  0  0
 71 74  1  0  0  0
 71146  1  0  0  0
 72 76  1  0  0  0
 72147  1  0  0  0
 73 75  1  0  0  0
 73 76  2  0  0  0
 73148  1  0  0  0
 74 75  2  0  0  0
 74 83  1  0  0  0
 75 82  1  0  0  0
 76 86  1  0  0  0
 77 79  1  0  0  0
 77 80  1  0  0  0
 77 84  2  0  0  0
 78 81  1  0  0  0
 78 82  1  0  0  0
 78 85  2  0  0  0
 79 81  1  0  0  0
 79149  1  0  0  0
 79150  1  0  0  0
 80151  1  0  0  0
 80152  1  0  0  0
 81153  1  0  0  0
 81154  1  0  0  0
 82155  1  0  0  0
 83156  1  0  0  0
M  ISO  4   1 100  68 101  80 101  83 100
M  END
> <chiral flag>
0

> <version>
0

> <s_m_source_file>
/data/baiqing/PycharmProjects/Reinvent-master-3.2/result/LINK_invent/BTK/process_docking_weight1_custom_product_contain_oxygen_bond_distance_aromatic_linkinvent_7_9_3/rearranged_h_0166.sdf

> <i_m_source_file_index>
43

> <r_mmod_Potential_Energy-OPLS-2005>
-25.0120449066162

> <r_mmod_Stretch_Energy-OPLS-2005>
88.3907012939453

> <r_mmod_Bend_Energy-OPLS-2005>
145.651672363281

> <r_mmod_Torsional_Energy-OPLS-2005>
274.867309570312

> <r_mmod_Improper_Torsional_Energy-OPLS-2005>
11.3363380432129

> <r_mmod_Van_der_Waal_Energy-OPLS-2005>
153.395111083984

> <r_mmod_Electrostatic_Energy-OPLS-2005>
-476.918334960938

> <r_mmod_Solvation_Energy-OPLS-2005>
-274.860534667969

> <b_mmod_Minimization_Converged-OPLS-2005>
0

> <r_mmod_RMS_Derivative-OPLS-2005>
10.7244863510132

$$$$
43
                    3D
 Structure written by MMmdl.
153161  0  0  1  0            999 V2000
  -30.6957  -14.5152   20.5699 C   0  0  0  0  0  0
  -30.4244  -12.3378   19.4248 C   0  0  0  0  0  0
  -29.4944  -12.5036   18.2051 C   0  0  0  0  0  0
  -28.0170  -12.3557   18.6202 C   0  0  0  0  0  0
  -27.6550  -13.2115   19.8639 C   0  0  2  0  0  0
  -28.6989  -13.0278   20.9879 C   0  0  0  0  0  0
  -25.2567  -13.8172   20.5679 C   0  0  0  0  0  0
  -24.1827  -13.0439   20.9182 C   0  0  0  0  0  0
  -24.6390  -11.6908   20.8726 C   0  0  0  0  0  0
  -23.9058  -10.4290   21.0395 C   0  0  0  0  0  0
  -24.3616   -9.4207   21.9169 C   0  0  0  0  0  0
  -23.6293   -8.2239   22.0743 C   0  0  0  0  0  0
  -22.4271   -8.0275   21.3539 C   0  0  0  0  0  0
  -21.9900   -9.0250   20.4645 C   0  0  0  0  0  0
  -22.7228  -10.2128   20.3048 C   0  0  0  0  0  0
  -21.6850   -6.0728   22.5279 C   0  0  0  0  0  0
  -21.4013   -6.5636   23.8211 C   0  0  0  0  0  0
  -21.3658   -5.6789   24.9175 C   0  0  0  0  0  0
  -21.6045   -4.3051   24.7226 C   0  0  0  0  0  0
  -21.8821   -3.8141   23.4349 C   0  0  0  0  0  0
  -21.9198   -4.6957   22.3406 C   0  0  0  0  0  0
  -22.7852  -13.5235   21.1855 C   0  0  0  0  0  0
  -22.1664   -4.2142   21.0984 F   0  0  0  0  0  0
  -21.5627   -3.4533   25.7736 F   0  0  0  0  0  0
  -30.0214  -13.3399   20.4254 N   0  0  0  0  0  0
  -26.2992  -12.9345   20.3315 N   0  0  0  0  0  0
  -25.9314  -11.6505   20.5746 N   0  0  0  0  0  0
  -22.0501  -12.8225   22.0414 N   0  0  0  0  0  0
  -25.4303  -15.1891   20.4101 N   0  0  0  0  0  0
  -31.8468  -14.6654   20.1490 O   0  0  0  0  0  0
  -21.6640   -6.8868   21.4238 O   0  0  0  0  0  0
  -22.3542  -14.5543   20.6707 O   0  0  0  0  0  0
  -24.6197  -31.8675   23.2105 C   0  0  0  0  0  0
  -25.9080  -32.4817   23.8404 C   0  0  1  0  0  0
  -27.2174  -27.3872   20.0924 C   0  0  0  0  0  0
  -25.5929  -33.8618   24.2327 N   0  0  0  0  0  0
  -23.4084  -30.4967   21.5518 C   0  0  2  0  0  0
  -24.8507  -28.9673   20.1109 C   0  0  0  0  0  0
  -22.7438  -29.4675   22.4963 C   0  0  0  0  0  0
  -18.0275  -28.1389   22.8489 C   0  0  0  0  0  0
  -24.1490  -36.7308   23.2627 C   0  0  0  0  0  0
  -25.9459  -30.8172   21.3744 C   0  0  0  0  0  0
  -26.0179  -29.4524   20.7135 C   0  0  0  0  0  0
  -27.2042  -28.6710   20.7013 C   0  0  0  0  0  0
  -26.0271  -26.9490   19.4592 C   0  0  0  0  0  0
  -24.8532  -27.7168   19.4793 C   0  0  0  0  0  0
  -23.6180  -29.8407   20.1637 C   0  0  0  0  0  0
  -25.4108  -36.3108   24.0335 C   0  0  1  0  0  0
  -20.5873  -28.3689   23.1299 C   0  0  2  0  0  0
  -20.6769  -26.9418   22.5418 C   0  0  0  0  0  0
  -19.5751  -26.6392   21.5218 C   0  0  0  0  0  0
  -18.1927  -26.7936   22.1620 C   0  0  0  0  0  0
  -19.1527  -28.8852   23.2895 C   0  0  0  0  0  0
  -18.9455  -30.1452   23.8914 C   0  0  0  0  0  0
  -17.6457  -30.6591   24.0565 C   0  0  0  0  0  0
  -25.9051  -34.9475   23.5127 C   0  0  0  0  0  0
  -16.5347  -29.9094   23.6325 C   0  0  0  0  0  0
  -16.7267  -28.6512   23.0347 C   0  0  0  0  0  0
  -26.4480  -31.6597   25.0741 C   0  0  0  0  0  0
  -25.3736  -31.3780   26.1501 C   0  0  0  0  0  0
  -27.0245  -30.2991   24.6172 C   0  0  0  0  0  0
  -27.6107  -32.4278   25.7459 C   0  0  0  0  0  0
  -27.5607  -37.1778   24.8438 C   0  0  0  0  0  0
  -21.4162  -29.3051   22.3695 N   0  0  0  0  0  0
  -26.4281  -37.3809   23.9442 N   0  0  0  0  0  0
  -24.6765  -31.0749   22.1025 N   0  0  0  0  0  0
  -23.4198  -28.8202   23.3004 O   0  0  0  0  0  0
  -28.3526  -26.5798   20.1405 O   0  0  0  0  0  0
  -26.5610  -34.8927   22.4686 O   0  0  0  0  0  0
  -23.5377  -32.1449   23.7471 O   0  0  0  0  0  0
  -32.0651  -18.2457   22.6108 C   0  0  0  0  0  0
  -31.4284  -19.4204   22.1736 C   0  0  0  0  0  0
  -31.5928  -16.9848   22.2099 C   0  0  0  0  0  0
  -29.8056  -18.0756   20.9551 C   0  0  0  0  0  0
  -30.2956  -19.3679   21.3231 C   0  0  0  0  0  0
  -30.4629  -16.8768   21.3699 C   0  0  0  0  0  0
  -29.0453  -22.8209   20.3836 C   0  0  0  0  0  0
  -29.2159  -24.1761   20.3453 C   0  0  0  0  0  0
  -30.0508  -21.8589   20.8593 C   0  0  0  0  0  0
  -28.1551  -25.1679   19.8383 C   0  0  0  0  0  0
  -29.6217  -20.5666   20.8668 N   0  0  0  0  0  0
  -29.9703  -15.5727   21.0134 N   0  0  0  0  0  0
  -31.1885  -22.1996   21.1961 O   0  0  0  0  0  0
  -30.3235  -24.8207   20.7494 O   0  0  0  0  0  0
  -31.4667  -12.4461   19.1196 H   0  0  0  0  0  0
  -30.3393  -11.3333   19.8423 H   0  0  0  0  0  0
  -29.7422  -11.7672   17.4393 H   0  0  0  0  0  0
  -29.6520  -13.4835   17.7499 H   0  0  0  0  0  0
  -27.8380  -11.3009   18.8324 H   0  0  0  0  0  0
  -27.3642  -12.6103   17.7845 H   0  0  0  0  0  0
  -27.6867  -14.2532   19.5442 H   0  0  0  0  0  0
  -28.6871  -12.0000   21.3541 H   0  0  0  0  0  0
  -28.4593  -13.6519   21.8504 H   0  0  0  0  0  0
  -25.2766   -9.5679   22.4735 H   0  0  0  0  0  0
  -24.0004   -7.4627   22.7454 H   0  0  0  0  0  0
  -21.0825   -8.8769   19.8957 H   0  0  0  0  0  0
  -22.3685  -10.9663   19.6155 H   0  0  0  0  0  0
  -21.1999   -7.6144   23.9713 H   0  0  0  0  0  0
  -21.1477   -6.0518   25.9076 H   0  0  0  0  0  0
  -22.0602   -2.7602   23.2852 H   0  0  0  0  0  0
  -22.4124  -11.9893   22.4811 H   0  0  0  0  0  0
  -21.1120  -13.1245   22.2626 H   0  0  0  0  0  0
  -24.6656  -15.8458   20.5204 H   0  0  0  0  0  0
  -26.2811  -15.6259   20.0793 H   0  0  0  0  0  0
  -26.7149  -32.5502   23.1161 H   0  0  0  0  0  0
  -25.0078  -33.9778   25.0470 H   0  0  0  0  0  0
  -22.6995  -31.3162   21.4167 H   0  0  0  0  0  0
  -23.3787  -35.9600   23.3207 H   0  0  0  0  0  0
  -24.3620  -36.9007   22.2063 H   0  0  0  0  0  0
  -23.7183  -37.6461   23.6693 H   0  0  0  0  0  0
  -26.0734  -31.5864   20.6114 H   0  0  0  0  0  0
  -26.8285  -30.8598   22.0011 H   0  0  0  0  0  0
  -28.1011  -29.0395   21.1805 H   0  0  0  0  0  0
  -25.9664  -26.0060   18.9376 H   0  0  0  0  0  0
  -23.9592  -27.3430   18.9987 H   0  0  0  0  0  0
  -23.7337  -30.6213   19.4107 H   0  0  0  0  0  0
  -22.7386  -29.2697   19.8612 H   0  0  0  0  0  0
  -25.1269  -36.1959   25.0823 H   0  0  0  0  0  0
  -20.9971  -28.3261   24.1416 H   0  0  0  0  0  0
  -20.5669  -26.2306   23.3617 H   0  0  0  0  0  0
  -21.6639  -26.7456   22.1211 H   0  0  0  0  0  0
  -19.6913  -25.6303   21.1250 H   0  0  0  0  0  0
  -19.6692  -27.3200   20.6745 H   0  0  0  0  0  0
  -17.4202  -26.6691   21.4018 H   0  0  0  0  0  0
  -18.0316  -26.0073   22.9010 H   0  0  0  0  0  0
  -19.7930  -30.7258   24.2302 H   0  0  0  0  0  0
  -17.5013  -31.6274   24.5163 H   0  0  0  0  0  0
  -15.5350  -30.3006   23.7641 H   0  0  0  0  0  0
  -15.8664  -28.0839   22.7052 H   0  0  0  0  0  0
  -24.5850  -30.7193   25.7845 H   0  0  0  0  0  0
  -24.9001  -32.2975   26.4958 H   0  0  0  0  0  0
  -25.8053  -30.8917   27.0256 H   0  0  0  0  0  0
  -26.2766  -29.6788   24.1219 H   0  0  0  0  0  0
  -27.3924  -29.7222   25.4666 H   0  0  0  0  0  0
  -27.8674  -30.4220   23.9369 H   0  0  0  0  0  0
  -27.2810  -33.3630   26.1994 H   0  0  0  0  0  0
  -28.3928  -32.6733   25.0261 H   0  0  0  0  0  0
  -28.0748  -31.8400   26.5388 H   0  0  0  0  0  0
  -28.2550  -38.0149   24.7609 H   0  0  0  0  0  0
  -28.1178  -36.2697   24.6085 H   0  0  0  0  0  0
  -27.2365  -37.1199   25.8842 H   0  0  0  0  0  0
  -20.9323  -29.8788   21.6926 H   0  0  0  0  0  0
  -26.0165  -38.2867   24.1528 H   0  0  0  0  0  0
  -32.9226  -18.3144   23.2652 H   0  0  0  0  0  0
  -31.8330  -20.3557   22.5274 H   0  0  0  0  0  0
  -32.0984  -16.0996   22.5715 H   0  0  0  0  0  0
  -28.9265  -18.0030   20.3301 H   0  0  0  0  0  0
  -28.0988  -22.4328   20.0331 H   0  0  0  0  0  0
  -27.2209  -24.8147   20.2780 H   0  0  0  0  0  0
  -28.0752  -25.0460   18.7568 H   0  0  0  0  0  0
  -28.6973  -20.4260   20.4841 H   0  0  0  0  0  0
  -28.9790  -15.4157   21.1135 H   0  0  0  0  0  0
  -30.9412  -24.1577   21.0457 H   0  0  0  0  0  0
  1 25  1  0  0  0
  1 30  2  0  0  0
  1 82  1  0  0  0
  2  3  1  0  0  0
  2 25  1  0  0  0
  2 85  1  0  0  0
  2 86  1  0  0  0
  3  4  1  0  0  0
  3 87  1  0  0  0
  3 88  1  0  0  0
  4  5  1  0  0  0
  4 89  1  0  0  0
  4 90  1  0  0  0
  5  6  1  0  0  0
  5 26  1  0  0  0
  5 91  1  0  0  0
  6 25  1  0  0  0
  6 92  1  0  0  0
  6 93  1  0  0  0
  7  8  2  0  0  0
  7 26  1  0  0  0
  7 29  1  0  0  0
  8  9  1  0  0  0
  8 22  1  0  0  0
  9 10  1  0  0  0
  9 27  2  0  0  0
 10 11  2  0  0  0
 10 15  1  0  0  0
 11 12  1  0  0  0
 11 94  1  0  0  0
 12 13  2  0  0  0
 12 95  1  0  0  0
 13 14  1  0  0  0
 13 31  1  0  0  0
 14 15  2  0  0  0
 14 96  1  0  0  0
 15 97  1  0  0  0
 16 17  2  0  0  0
 16 21  1  0  0  0
 16 31  1  0  0  0
 17 18  1  0  0  0
 17 98  1  0  0  0
 18 19  2  0  0  0
 18 99  1  0  0  0
 19 20  1  0  0  0
 19 24  1  0  0  0
 20 21  2  0  0  0
 20100  1  0  0  0
 21 23  1  0  0  0
 22 28  1  0  0  0
 22 32  2  0  0  0
 26 27  1  0  0  0
 28101  1  0  0  0
 28102  1  0  0  0
 29103  1  0  0  0
 29104  1  0  0  0
 33 34  1  0  0  0
 33 66  1  0  0  0
 33 70  2  0  0  0
 34 36  1  0  0  0
 34 59  1  0  0  0
 34105  1  0  0  0
 35 44  2  0  0  0
 35 45  1  0  0  0
 35 68  1  0  0  0
 36 56  1  0  0  0
 36106  1  0  0  0
 37 39  1  0  0  0
 37 47  1  0  0  0
 37 66  1  0  0  0
 37107  1  0  0  0
 38 43  2  0  0  0
 38 46  1  0  0  0
 38 47  1  0  0  0
 39 64  1  0  0  0
 39 67  2  0  0  0
 40 52  1  0  0  0
 40 53  2  0  0  0
 40 58  1  0  0  0
 41108  1  0  0  0
 41109  1  0  0  0
 41110  1  0  0  0
 41 48  1  0  0  0
 42 43  1  0  0  0
 42 66  1  0  0  0
 42111  1  0  0  0
 42112  1  0  0  0
 43 44  1  0  0  0
 44113  1  0  0  0
 45 46  2  0  0  0
 45114  1  0  0  0
 46115  1  0  0  0
 47116  1  0  0  0
 47117  1  0  0  0
 48 56  1  0  0  0
 48 65  1  0  0  0
 48118  1  0  0  0
 49 50  1  0  0  0
 49 53  1  0  0  0
 49 64  1  0  0  0
 49119  1  0  0  0
 50 51  1  0  0  0
 50120  1  0  0  0
 50121  1  0  0  0
 51 52  1  0  0  0
 51122  1  0  0  0
 51123  1  0  0  0
 52124  1  0  0  0
 52125  1  0  0  0
 53 54  1  0  0  0
 54 55  2  0  0  0
 54126  1  0  0  0
 55 57  1  0  0  0
 55127  1  0  0  0
 56 69  2  0  0  0
 57 58  2  0  0  0
 57128  1  0  0  0
 58129  1  0  0  0
 59 60  1  0  0  0
 59 61  1  0  0  0
 59 62  1  0  0  0
 60130  1  0  0  0
 60131  1  0  0  0
 60132  1  0  0  0
 61133  1  0  0  0
 61134  1  0  0  0
 61135  1  0  0  0
 62136  1  0  0  0
 62137  1  0  0  0
 62138  1  0  0  0
 63 65  1  0  0  0
 63139  1  0  0  0
 63140  1  0  0  0
 63141  1  0  0  0
 64142  1  0  0  0
 65143  1  0  0  0
 68 80  1  0  0  0
 71 72  2  0  0  0
 71 73  1  0  0  0
 71144  1  0  0  0
 72 75  1  0  0  0
 72145  1  0  0  0
 73 76  2  0  0  0
 73146  1  0  0  0
 74 75  2  0  0  0
 74 76  1  0  0  0
 74147  1  0  0  0
 75 81  1  0  0  0
 76 82  1  0  0  0
 77 78  2  0  0  0
 77 79  1  0  0  0
 77148  1  0  0  0
 78 80  1  0  0  0
 78 84  1  0  0  0
 79 81  1  0  0  0
 79 83  2  0  0  0
 80149  1  0  0  0
 80150  1  0  0  0
 81151  1  0  0  0
 82152  1  0  0  0
 84153  1  0  0  0
M  ISO  4   1 100  68 101  80 101  82 100
M  END
> <chiral flag>
0

> <version>
0

> <s_m_source_file>
/data/baiqing/PycharmProjects/Reinvent-master-3.2/result/LINK_invent/BTK/process_docking_weight1_custom_product_contain_oxygen_bond_distance_aromatic_linkinvent_7_9_3/rearranged_h_0166.sdf

> <i_m_source_file_index>
44

> <r_mmod_Potential_Energy-OPLS-2005>
-31.7063388824463

> <r_mmod_Stretch_Energy-OPLS-2005>
51.1959075927734

> <r_mmod_Bend_Energy-OPLS-2005>
107.525802612305

> <r_mmod_Torsional_Energy-OPLS-2005>
214.582122802734

> <r_mmod_Improper_Torsional_Energy-OPLS-2005>
4.39582538604736

> <r_mmod_Van_der_Waal_Energy-OPLS-2005>
171.004135131836

> <r_mmod_Electrostatic_Energy-OPLS-2005>
-358.092132568359

> <r_mmod_Solvation_Energy-OPLS-2005>
-245.975006103516

> <b_mmod_Minimization_Converged-OPLS-2005>
0

> <r_mmod_RMS_Derivative-OPLS-2005>
1.09996569156647

$$$$
45
                    3D
 Structure written by MMmdl.
161169  0  0  1  0            999 V2000
  -30.7313  -14.4597   20.5048 C   0  0  0  0  0  0
  -30.4090  -12.2796   19.4340 C   0  0  0  0  0  0
  -29.4898  -12.4712   18.2099 C   0  0  0  0  0  0
  -28.0082  -12.3662   18.6194 C   0  0  0  0  0  0
  -27.6580  -13.2157   19.8715 C   0  0  2  0  0  0
  -28.7038  -13.0319   20.9965 C   0  0  0  0  0  0
  -25.2568  -13.8197   20.5718 C   0  0  0  0  0  0
  -24.1827  -13.0449   20.9196 C   0  0  0  0  0  0
  -24.6404  -11.6924   20.8755 C   0  0  0  0  0  0
  -23.9060  -10.4311   21.0426 C   0  0  0  0  0  0
  -24.3621   -9.4214   21.9187 C   0  0  0  0  0  0
  -23.6309   -8.2245   22.0747 C   0  0  0  0  0  0
  -22.4281   -8.0297   21.3554 C   0  0  0  0  0  0
  -21.9926   -9.0261   20.4634 C   0  0  0  0  0  0
  -22.7246  -10.2144   20.3055 C   0  0  0  0  0  0
  -21.6860   -6.0740   22.5283 C   0  0  0  0  0  0
  -21.4012   -6.5647   23.8215 C   0  0  0  0  0  0
  -21.3668   -5.6798   24.9181 C   0  0  0  0  0  0
  -21.6043   -4.3060   24.7234 C   0  0  0  0  0  0
  -21.8820   -3.8145   23.4360 C   0  0  0  0  0  0
  -21.9195   -4.6966   22.3406 C   0  0  0  0  0  0
  -22.7852  -13.5236   21.1864 C   0  0  0  0  0  0
  -22.1661   -4.2150   21.0979 F   0  0  0  0  0  0
  -21.5633   -3.4539   25.7744 F   0  0  0  0  0  0
  -30.0347  -13.2948   20.4294 N   0  0  0  0  0  0
  -26.3014  -12.9380   20.3396 N   0  0  0  0  0  0
  -25.9339  -11.6531   20.5809 N   0  0  0  0  0  0
  -22.0490  -12.8217   22.0405 N   0  0  0  0  0  0
  -25.4289  -15.1921   20.4175 N   0  0  0  0  0  0
  -31.9038  -14.5652   20.1371 O   0  0  0  0  0  0
  -21.6650   -6.8894   21.4246 O   0  0  0  0  0  0
  -22.3535  -14.5544   20.6727 O   0  0  0  0  0  0
  -24.6113  -31.8694   23.2105 C   0  0  0  0  0  0
  -25.9022  -32.4826   23.8386 C   0  0  1  0  0  0
  -27.2495  -27.4621   20.0914 C   0  0  0  0  0  0
  -25.5891  -33.8628   24.2333 N   0  0  0  0  0  0
  -23.4005  -30.4892   21.5510 C   0  0  2  0  0  0
  -24.8515  -28.9497   20.1210 C   0  0  0  0  0  0
  -22.7401  -29.4646   22.5007 C   0  0  0  0  0  0
  -18.0270  -28.1358   22.8481 C   0  0  0  0  0  0
  -24.1487  -36.7311   23.2636 C   0  0  0  0  0  0
  -25.9252  -30.8384   21.3625 C   0  0  0  0  0  0
  -26.0065  -29.4704   20.7195 C   0  0  0  0  0  0
  -27.2097  -28.7300   20.7095 C   0  0  0  0  0  0
  -26.0829  -26.9456   19.4954 C   0  0  0  0  0  0
  -24.8810  -27.6817   19.5117 C   0  0  0  0  0  0
  -23.6112  -29.8144   20.1680 C   0  0  0  0  0  0
  -25.4098  -36.3122   24.0349 C   0  0  1  0  0  0
  -20.5851  -28.3633   23.1318 C   0  0  2  0  0  0
  -20.6756  -26.9371   22.5410 C   0  0  0  0  0  0
  -19.5742  -26.6373   21.5202 C   0  0  0  0  0  0
  -18.1922  -26.7909   22.1606 C   0  0  0  0  0  0
  -19.1515  -28.8819   23.2908 C   0  0  0  0  0  0
  -18.9446  -30.1435   23.8906 C   0  0  0  0  0  0
  -17.6448  -30.6573   24.0547 C   0  0  0  0  0  0
  -25.9039  -34.9485   23.5146 C   0  0  0  0  0  0
  -16.5343  -29.9064   23.6324 C   0  0  0  0  0  0
  -16.7259  -28.6484   23.0340 C   0  0  0  0  0  0
  -26.4450  -31.6590   25.0703 C   0  0  0  0  0  0
  -25.3735  -31.3682   26.1465 C   0  0  0  0  0  0
  -27.0270  -30.3044   24.6056 C   0  0  0  0  0  0
  -27.6031  -32.4283   25.7469 C   0  0  0  0  0  0
  -27.5600  -37.1775   24.8440 C   0  0  0  0  0  0
  -21.4124  -29.3023   22.3753 N   0  0  0  0  0  0
  -26.4274  -37.3813   23.9453 N   0  0  0  0  0  0
  -24.6635  -31.0804   22.1008 N   0  0  0  0  0  0
  -23.4182  -28.8220   23.3066 O   0  0  0  0  0  0
  -28.4168  -26.7474   20.0065 O   0  0  0  0  0  0
  -26.5592  -34.8937   22.4700 O   0  0  0  0  0  0
  -23.5317  -32.1417   23.7531 O   0  0  0  0  0  0
  -30.6482  -18.0490   18.0773 C   0  0  0  0  0  0
  -30.6799  -17.9617   20.8811 C   0  0  0  0  0  0
  -31.1065  -19.1855   18.7831 C   0  0  0  0  0  0
  -31.0829  -19.1489   20.2101 C   0  0  0  0  0  0
  -30.3012  -16.8074   20.1548 C   0  0  0  0  0  0
  -30.2371  -16.8868   18.7473 C   0  0  0  0  0  0
  -31.6377  -20.3439   17.9868 C   0  0  0  0  0  0
  -30.5278  -22.5612   21.3376 C   0  0  0  0  0  0
  -28.9628  -24.4646   20.6826 C   0  0  0  0  0  0
  -31.1750  -20.4873   16.5401 C   0  0  0  0  0  0
  -29.3785  -23.4731   21.7782 C   0  0  0  0  0  0
  -30.2968  -21.0445   21.4476 C   0  0  0  0  0  0
  -28.6958  -25.9115   21.1314 C   0  0  0  0  0  0
  -30.0227  -15.5643   20.8040 N   0  0  0  0  0  0
  -31.4456  -20.2623   20.9863 N   0  0  0  0  0  0
  -32.4259  -21.1832   18.4318 O   0  0  0  0  0  0
  -31.6155  -23.0114   20.9564 O   0  0  0  0  0  0
  -28.7890  -24.1088   19.5087 O   0  0  0  0  0  0
  -29.7968  -15.8323   18.0231 F   0  0  0  0  0  0
  -31.4559  -12.3476   19.1326 H   0  0  0  0  0  0
  -30.2813  -11.2813   19.8544 H   0  0  0  0  0  0
  -29.7144  -11.7228   17.4488 H   0  0  0  0  0  0
  -29.6792  -13.4384   17.7448 H   0  0  0  0  0  0
  -27.7991  -11.3144   18.8163 H   0  0  0  0  0  0
  -27.3676  -12.6522   17.7847 H   0  0  0  0  0  0
  -27.6922  -14.2593   19.5573 H   0  0  0  0  0  0
  -28.6682  -12.0149   21.3892 H   0  0  0  0  0  0
  -28.4872  -13.6867   21.8426 H   0  0  0  0  0  0
  -25.2778   -9.5689   22.4765 H   0  0  0  0  0  0
  -24.0018   -7.4634   22.7471 H   0  0  0  0  0  0
  -21.0853   -8.8775   19.8943 H   0  0  0  0  0  0
  -22.3709  -10.9679   19.6169 H   0  0  0  0  0  0
  -21.1990   -7.6145   23.9724 H   0  0  0  0  0  0
  -21.1493   -6.0524   25.9086 H   0  0  0  0  0  0
  -22.0587   -2.7604   23.2870 H   0  0  0  0  0  0
  -22.4110  -11.9887   22.4811 H   0  0  0  0  0  0
  -21.1092  -13.1235   22.2594 H   0  0  0  0  0  0
  -24.6651  -15.8509   20.5274 H   0  0  0  0  0  0
  -26.2848  -15.6321   20.1050 H   0  0  0  0  0  0
  -26.7103  -32.5561   23.1161 H   0  0  0  0  0  0
  -25.0070  -33.9776   25.0498 H   0  0  0  0  0  0
  -22.6879  -31.3043   21.4088 H   0  0  0  0  0  0
  -23.3781  -35.9604   23.3229 H   0  0  0  0  0  0
  -24.3621  -36.8989   22.2068 H   0  0  0  0  0  0
  -23.7179  -37.6477   23.6678 H   0  0  0  0  0  0
  -26.0336  -31.6010   20.5897 H   0  0  0  0  0  0
  -26.8132  -30.8954   21.9812 H   0  0  0  0  0  0
  -28.1065  -29.1343   21.1587 H   0  0  0  0  0  0
  -26.1123  -25.9780   19.0119 H   0  0  0  0  0  0
  -23.9943  -27.2724   19.0480 H   0  0  0  0  0  0
  -23.7178  -30.5844   19.4035 H   0  0  0  0  0  0
  -22.7338  -29.2328   19.8773 H   0  0  0  0  0  0
  -25.1256  -36.1967   25.0831 H   0  0  0  0  0  0
  -20.9935  -28.3182   24.1436 H   0  0  0  0  0  0
  -20.5663  -26.2237   23.3584 H   0  0  0  0  0  0
  -21.6635  -26.7417   22.1217 H   0  0  0  0  0  0
  -19.6922  -25.6294   21.1213 H   0  0  0  0  0  0
  -19.6698  -27.3197   20.6743 H   0  0  0  0  0  0
  -17.4196  -26.6661   21.4000 H   0  0  0  0  0  0
  -18.0318  -26.0041   22.8991 H   0  0  0  0  0  0
  -19.7924  -30.7255   24.2276 H   0  0  0  0  0  0
  -17.5001  -31.6256   24.5140 H   0  0  0  0  0  0
  -15.5344  -30.2982   23.7646 H   0  0  0  0  0  0
  -15.8650  -28.0828   22.7039 H   0  0  0  0  0  0
  -24.5897  -30.7034   25.7799 H   0  0  0  0  0  0
  -24.8949  -32.2839   26.4941 H   0  0  0  0  0  0
  -25.8112  -30.8826   27.0197 H   0  0  0  0  0  0
  -26.2799  -29.6817   24.1125 H   0  0  0  0  0  0
  -27.4067  -29.7253   25.4484 H   0  0  0  0  0  0
  -27.8620  -30.4370   23.9172 H   0  0  0  0  0  0
  -27.2662  -33.3567   26.2077 H   0  0  0  0  0  0
  -28.3837  -32.6842   25.0293 H   0  0  0  0  0  0
  -28.0702  -31.8381   26.5368 H   0  0  0  0  0  0
  -28.2508  -38.0183   24.7665 H   0  0  0  0  0  0
  -28.1207  -36.2726   24.6026 H   0  0  0  0  0  0
  -27.2362  -37.1146   25.8846 H   0  0  0  0  0  0
  -20.9283  -29.8738   21.6967 H   0  0  0  0  0  0
  -26.0165  -38.2868   24.1545 H   0  0  0  0  0  0
  -30.6231  -18.0279   16.9987 H   0  0  0  0  0  0
  -30.7057  -17.9208   21.9607 H   0  0  0  0  0  0
  -31.6471  -19.7329   15.9135 H   0  0  0  0  0  0
  -31.4380  -21.4694   16.1467 H   0  0  0  0  0  0
  -30.0941  -20.3740   16.4757 H   0  0  0  0  0  0
  -29.6751  -24.0116   22.6777 H   0  0  0  0  0  0
  -28.5192  -22.8567   22.0401 H   0  0  0  0  0  0
  -29.4024  -20.8001   20.8729 H   0  0  0  0  0  0
  -30.0899  -20.8061   22.4917 H   0  0  0  0  0  0
  -29.5765  -26.2997   21.6423 H   0  0  0  0  0  0
  -27.8737  -25.9175   21.8485 H   0  0  0  0  0  0
  -29.0864  -15.4222   21.1489 H   0  0  0  0  0  0
  -32.0553  -20.9102   20.4799 H   0  0  0  0  0  0
  1 25  1  0  0  0
  1 30  2  0  0  0
  1 84  1  0  0  0
  2  3  1  0  0  0
  2 25  1  0  0  0
  2 90  1  0  0  0
  2 91  1  0  0  0
  3  4  1  0  0  0
  3 92  1  0  0  0
  3 93  1  0  0  0
  4  5  1  0  0  0
  4 94  1  0  0  0
  4 95  1  0  0  0
  5  6  1  0  0  0
  5 26  1  0  0  0
  5 96  1  0  0  0
  6 25  1  0  0  0
  6 97  1  0  0  0
  6 98  1  0  0  0
  7  8  2  0  0  0
  7 26  1  0  0  0
  7 29  1  0  0  0
  8  9  1  0  0  0
  8 22  1  0  0  0
  9 10  1  0  0  0
  9 27  2  0  0  0
 10 11  2  0  0  0
 10 15  1  0  0  0
 11 12  1  0  0  0
 11 99  1  0  0  0
 12 13  2  0  0  0
 12100  1  0  0  0
 13 14  1  0  0  0
 13 31  1  0  0  0
 14 15  2  0  0  0
 14101  1  0  0  0
 15102  1  0  0  0
 16 17  2  0  0  0
 16 21  1  0  0  0
 16 31  1  0  0  0
 17 18  1  0  0  0
 17103  1  0  0  0
 18 19  2  0  0  0
 18104  1  0  0  0
 19 20  1  0  0  0
 19 24  1  0  0  0
 20 21  2  0  0  0
 20105  1  0  0  0
 21 23  1  0  0  0
 22 28  1  0  0  0
 22 32  2  0  0  0
 26 27  1  0  0  0
 28106  1  0  0  0
 28107  1  0  0  0
 29108  1  0  0  0
 29109  1  0  0  0
 33 34  1  0  0  0
 33 66  1  0  0  0
 33 70  2  0  0  0
 34 36  1  0  0  0
 34 59  1  0  0  0
 34110  1  0  0  0
 35 44  2  0  0  0
 35 45  1  0  0  0
 35 68  1  0  0  0
 36 56  1  0  0  0
 36111  1  0  0  0
 37 39  1  0  0  0
 37 47  1  0  0  0
 37 66  1  0  0  0
 37112  1  0  0  0
 38 43  2  0  0  0
 38 46  1  0  0  0
 38 47  1  0  0  0
 39 64  1  0  0  0
 39 67  2  0  0  0
 40 52  1  0  0  0
 40 53  2  0  0  0
 40 58  1  0  0  0
 41113  1  0  0  0
 41114  1  0  0  0
 41115  1  0  0  0
 41 48  1  0  0  0
 42 43  1  0  0  0
 42 66  1  0  0  0
 42116  1  0  0  0
 42117  1  0  0  0
 43 44  1  0  0  0
 44118  1  0  0  0
 45 46  2  0  0  0
 45119  1  0  0  0
 46120  1  0  0  0
 47121  1  0  0  0
 47122  1  0  0  0
 48 56  1  0  0  0
 48 65  1  0  0  0
 48123  1  0  0  0
 49 50  1  0  0  0
 49 53  1  0  0  0
 49 64  1  0  0  0
 49124  1  0  0  0
 50 51  1  0  0  0
 50125  1  0  0  0
 50126  1  0  0  0
 51 52  1  0  0  0
 51127  1  0  0  0
 51128  1  0  0  0
 52129  1  0  0  0
 52130  1  0  0  0
 53 54  1  0  0  0
 54 55  2  0  0  0
 54131  1  0  0  0
 55 57  1  0  0  0
 55132  1  0  0  0
 56 69  2  0  0  0
 57 58  2  0  0  0
 57133  1  0  0  0
 58134  1  0  0  0
 59 60  1  0  0  0
 59 61  1  0  0  0
 59 62  1  0  0  0
 60135  1  0  0  0
 60136  1  0  0  0
 60137  1  0  0  0
 61138  1  0  0  0
 61139  1  0  0  0
 61140  1  0  0  0
 62141  1  0  0  0
 62142  1  0  0  0
 62143  1  0  0  0
 63 65  1  0  0  0
 63144  1  0  0  0
 63145  1  0  0  0
 63146  1  0  0  0
 64147  1  0  0  0
 65148  1  0  0  0
 68 83  1  0  0  0
 71 73  2  0  0  0
 71 76  1  0  0  0
 71149  1  0  0  0
 72 74  2  0  0  0
 72 75  1  0  0  0
 72150  1  0  0  0
 73 74  1  0  0  0
 73 77  1  0  0  0
 74 85  1  0  0  0
 75 76  2  0  0  0
 75 84  1  0  0  0
 76 89  1  0  0  0
 77 80  1  0  0  0
 77 86  2  0  0  0
 78 81  1  0  0  0
 78 82  1  0  0  0
 78 87  2  0  0  0
 79 81  1  0  0  0
 79 83  1  0  0  0
 79 88  2  0  0  0
 80151  1  0  0  0
 80152  1  0  0  0
 80153  1  0  0  0
 81154  1  0  0  0
 81155  1  0  0  0
 82 85  1  0  0  0
 82156  1  0  0  0
 82157  1  0  0  0
 83158  1  0  0  0
 83159  1  0  0  0
 84160  1  0  0  0
 85161  1  0  0  0
M  ISO  4   1 100  68 101  83 101  84 100
M  END
> <chiral flag>
0

> <version>
0

> <s_m_source_file>
/data/baiqing/PycharmProjects/Reinvent-master-3.2/result/LINK_invent/BTK/process_docking_weight1_custom_product_contain_oxygen_bond_distance_aromatic_linkinvent_7_9_3/rearranged_h_0166.sdf

> <i_m_source_file_index>
45

> <r_mmod_Potential_Energy-OPLS-2005>
-40.2048835754395

> <r_mmod_Stretch_Energy-OPLS-2005>
37.8171539306641

> <r_mmod_Bend_Energy-OPLS-2005>
91.7999954223633

> <r_mmod_Torsional_Energy-OPLS-2005>
321.891632080078

> <r_mmod_Improper_Torsional_Energy-OPLS-2005>
12.992377281189

> <r_mmod_Van_der_Waal_Energy-OPLS-2005>
154.671295166016

> <r_mmod_Electrostatic_Energy-OPLS-2005>
-406.864135742188

> <r_mmod_Solvation_Energy-OPLS-2005>
-267.741790771484

> <b_mmod_Minimization_Converged-OPLS-2005>
0

> <r_mmod_RMS_Derivative-OPLS-2005>
3.00054430961609

$$$$
46
                    3D
 Structure written by MMmdl.
161169  0  0  1  0            999 V2000
  -30.6603  -14.5446   20.4921 C   0  0  0  0  0  0
  -30.4286  -12.3325   19.4324 C   0  0  0  0  0  0
  -29.5000  -12.4917   18.2090 C   0  0  0  0  0  0
  -28.0154  -12.3698   18.6121 C   0  0  0  0  0  0
  -27.6567  -13.2118   19.8681 C   0  0  2  0  0  0
  -28.7035  -13.0234   20.9896 C   0  0  0  0  0  0
  -25.2585  -13.8170   20.5656 C   0  0  0  0  0  0
  -24.1836  -13.0452   20.9166 C   0  0  0  0  0  0
  -24.6396  -11.6916   20.8727 C   0  0  0  0  0  0
  -23.9066  -10.4312   21.0392 C   0  0  0  0  0  0
  -24.3632   -9.4227   21.9165 C   0  0  0  0  0  0
  -23.6313   -8.2264   22.0740 C   0  0  0  0  0  0
  -22.4297   -8.0298   21.3536 C   0  0  0  0  0  0
  -21.9922   -9.0259   20.4642 C   0  0  0  0  0  0
  -22.7234  -10.2140   20.3043 C   0  0  0  0  0  0
  -21.6861   -6.0743   22.5277 C   0  0  0  0  0  0
  -21.4024   -6.5644   23.8210 C   0  0  0  0  0  0
  -21.3672   -5.6788   24.9167 C   0  0  0  0  0  0
  -21.6062   -4.3054   24.7210 C   0  0  0  0  0  0
  -21.8832   -3.8154   23.4329 C   0  0  0  0  0  0
  -21.9203   -4.6975   22.3389 C   0  0  0  0  0  0
  -22.7856  -13.5259   21.1816 C   0  0  0  0  0  0
  -22.1651   -4.2162   21.0960 F   0  0  0  0  0  0
  -21.5633   -3.4528   25.7719 F   0  0  0  0  0  0
  -30.0265  -13.3383   20.4307 N   0  0  0  0  0  0
  -26.3012  -12.9342   20.3341 N   0  0  0  0  0  0
  -25.9328  -11.6507   20.5778 N   0  0  0  0  0  0
  -22.0478  -12.8268   22.0381 N   0  0  0  0  0  0
  -25.4353  -15.1877   20.4031 N   0  0  0  0  0  0
  -31.8247  -14.6982   20.1122 O   0  0  0  0  0  0
  -21.6660   -6.8884   21.4240 O   0  0  0  0  0  0
  -22.3550  -14.5553   20.6637 O   0  0  0  0  0  0
  -24.6195  -31.8668   23.2087 C   0  0  0  0  0  0
  -25.9064  -32.4829   23.8406 C   0  0  1  0  0  0
  -27.2214  -27.3784   20.0983 C   0  0  0  0  0  0
  -25.5910  -33.8625   24.2332 N   0  0  0  0  0  0
  -23.4084  -30.4934   21.5516 C   0  0  2  0  0  0
  -24.8513  -28.9618   20.1133 C   0  0  0  0  0  0
  -22.7439  -29.4653   22.4966 C   0  0  0  0  0  0
  -18.0277  -28.1375   22.8494 C   0  0  0  0  0  0
  -24.1478  -36.7315   23.2637 C   0  0  0  0  0  0
  -25.9445  -30.8153   21.3717 C   0  0  0  0  0  0
  -26.0165  -29.4460   20.7183 C   0  0  0  0  0  0
  -27.1990  -28.6602   20.7138 C   0  0  0  0  0  0
  -26.0318  -26.9414   19.4614 C   0  0  0  0  0  0
  -24.8572  -27.7103   19.4846 C   0  0  0  0  0  0
  -23.6180  -29.8351   20.1642 C   0  0  0  0  0  0
  -25.4099  -36.3114   24.0338 C   0  0  1  0  0  0
  -20.5875  -28.3672   23.1301 C   0  0  2  0  0  0
  -20.6761  -26.9402   22.5407 C   0  0  0  0  0  0
  -19.5741  -26.6376   21.5210 C   0  0  0  0  0  0
  -18.1919  -26.7922   22.1622 C   0  0  0  0  0  0
  -19.1528  -28.8842   23.2891 C   0  0  0  0  0  0
  -18.9458  -30.1449   23.8907 C   0  0  0  0  0  0
  -17.6456  -30.6581   24.0565 C   0  0  0  0  0  0
  -25.9036  -34.9480   23.5126 C   0  0  0  0  0  0
  -16.5347  -29.9083   23.6324 C   0  0  0  0  0  0
  -16.7262  -28.6496   23.0350 C   0  0  0  0  0  0
  -26.4473  -31.6626   25.0751 C   0  0  0  0  0  0
  -25.3724  -31.3742   26.1493 C   0  0  0  0  0  0
  -27.0313  -30.3071   24.6157 C   0  0  0  0  0  0
  -27.6042  -32.4356   25.7515 C   0  0  0  0  0  0
  -27.5580  -37.1809   24.8463 C   0  0  0  0  0  0
  -21.4158  -29.3036   22.3703 N   0  0  0  0  0  0
  -26.4287  -37.3804   23.9412 N   0  0  0  0  0  0
  -24.6767  -31.0729   22.1020 N   0  0  0  0  0  0
  -23.4199  -28.8177   23.3000 O   0  0  0  0  0  0
  -28.3757  -26.5972   20.1594 O   0  0  0  0  0  0
  -26.5589  -34.8922   22.4689 O   0  0  0  0  0  0
  -23.5373  -32.1449   23.7455 O   0  0  0  0  0  0
  -30.0513  -18.1251   20.4293 C   0  0  0  0  0  0
  -29.5033  -16.6367   18.5890 C   0  0  0  0  0  0
  -29.8205  -19.0344   18.1508 C   0  0  0  0  0  0
  -29.8250  -16.7987   19.9513 C   0  0  0  0  0  0
  -30.0740  -19.2525   19.5443 C   0  0  0  0  0  0
  -29.5098  -17.7255   17.7034 C   0  0  0  0  0  0
  -29.9938  -20.1057   17.1137 C   0  0  0  0  0  0
  -29.1409  -22.7164   19.8513 C   0  0  0  0  0  0
  -29.0363  -24.1580   20.4867 C   0  0  0  0  0  0
  -28.8477  -21.5916   15.3338 C   0  0  0  0  0  0
  -28.9481  -20.2008   15.9892 C   0  0  0  0  0  0
  -29.5222  -21.4583   20.6918 C   0  0  0  0  0  0
  -28.3627  -25.2459   19.6071 C   0  0  0  0  0  0
  -29.8824  -15.6187   20.7821 N   0  0  0  0  0  0
  -30.4722  -20.5304   20.0254 N   0  0  0  0  0  0
  -30.9328  -20.9115   17.1357 O   0  0  0  0  0  0
  -28.9101  -22.5783   18.6476 O   0  0  0  0  0  0
  -29.4649  -24.4045   21.6221 O   0  0  0  0  0  0
  -29.2701  -17.4651   16.3948 F   0  0  0  0  0  0
  -31.4698  -12.4461   19.1244 H   0  0  0  0  0  0
  -30.3448  -11.3283   19.8505 H   0  0  0  0  0  0
  -29.7396  -11.7375   17.4592 H   0  0  0  0  0  0
  -29.6780  -13.4559   17.7310 H   0  0  0  0  0  0
  -27.8087  -11.3160   18.7982 H   0  0  0  0  0  0
  -27.3797  -12.6561   17.7718 H   0  0  0  0  0  0
  -27.6878  -14.2544   19.5577 H   0  0  0  0  0  0
  -28.6907  -11.9931   21.3465 H   0  0  0  0  0  0
  -28.4719  -13.6406   21.8593 H   0  0  0  0  0  0
  -25.2784   -9.5696   22.4737 H   0  0  0  0  0  0
  -24.0032   -7.4662   22.7453 H   0  0  0  0  0  0
  -21.0848   -8.8760   19.8965 H   0  0  0  0  0  0
  -22.3672  -10.9674   19.6152 H   0  0  0  0  0  0
  -21.2005   -7.6149   23.9708 H   0  0  0  0  0  0
  -21.1476   -6.0509   25.9069 H   0  0  0  0  0  0
  -22.0598   -2.7620   23.2805 H   0  0  0  0  0  0
  -22.4096  -11.9961   22.4823 H   0  0  0  0  0  0
  -21.1086  -13.1278   22.2538 H   0  0  0  0  0  0
  -24.6754  -15.8503   20.5120 H   0  0  0  0  0  0
  -26.2900  -15.6223   20.0796 H   0  0  0  0  0  0
  -26.7132  -32.5518   23.1157 H   0  0  0  0  0  0
  -25.0072  -33.9810   25.0488 H   0  0  0  0  0  0
  -22.6999  -31.3129   21.4147 H   0  0  0  0  0  0
  -23.3745  -35.9645   23.3297 H   0  0  0  0  0  0
  -24.3579  -36.8936   22.2055 H   0  0  0  0  0  0
  -23.7220  -37.6509   23.6664 H   0  0  0  0  0  0
  -26.0614  -31.5774   20.6004 H   0  0  0  0  0  0
  -26.8315  -30.8701   21.9912 H   0  0  0  0  0  0
  -28.0922  -29.0273   21.2017 H   0  0  0  0  0  0
  -25.9488  -26.0086   18.9285 H   0  0  0  0  0  0
  -23.9639  -27.3360   19.0027 H   0  0  0  0  0  0
  -23.7295  -30.6133   19.4081 H   0  0  0  0  0  0
  -22.7399  -29.2606   19.8644 H   0  0  0  0  0  0
  -25.1267  -36.1976   25.0833 H   0  0  0  0  0  0
  -20.9972  -28.3219   24.1423 H   0  0  0  0  0  0
  -20.5653  -26.2280   23.3598 H   0  0  0  0  0  0
  -21.6631  -26.7423   22.1214 H   0  0  0  0  0  0
  -19.6890  -25.6284   21.1250 H   0  0  0  0  0  0
  -19.6677  -27.3175   20.6735 H   0  0  0  0  0  0
  -17.4189  -26.6681   21.4018 H   0  0  0  0  0  0
  -18.0312  -26.0059   22.9016 H   0  0  0  0  0  0
  -19.7931  -30.7258   24.2286 H   0  0  0  0  0  0
  -17.5011  -31.6273   24.5146 H   0  0  0  0  0  0
  -15.5350  -30.2987   23.7645 H   0  0  0  0  0  0
  -15.8665  -28.0816   22.7068 H   0  0  0  0  0  0
  -24.5879  -30.7116   25.7819 H   0  0  0  0  0  0
  -24.8940  -32.2905   26.4966 H   0  0  0  0  0  0
  -25.8060  -30.8882   27.0244 H   0  0  0  0  0  0
  -26.2878  -29.6832   24.1188 H   0  0  0  0  0  0
  -27.4045  -29.7311   25.4631 H   0  0  0  0  0  0
  -27.8727  -30.4387   23.9350 H   0  0  0  0  0  0
  -27.2662  -33.3650   26.2113 H   0  0  0  0  0  0
  -28.3844  -32.6937   25.0340 H   0  0  0  0  0  0
  -28.0731  -31.8479   26.5417 H   0  0  0  0  0  0
  -28.2588  -38.0116   24.7522 H   0  0  0  0  0  0
  -28.1083  -36.2647   24.6263 H   0  0  0  0  0  0
  -27.2311  -37.1428   25.8870 H   0  0  0  0  0  0
  -20.9315  -29.8799   21.6964 H   0  0  0  0  0  0
  -26.0168  -38.2879   24.1425 H   0  0  0  0  0  0
  -30.2837  -18.2694   21.4752 H   0  0  0  0  0  0
  -29.2886  -15.6589   18.1862 H   0  0  0  0  0  0
  -28.1406  -21.5760   14.5048 H   0  0  0  0  0  0
  -29.8084  -21.9204   14.9372 H   0  0  0  0  0  0
  -28.5026  -22.3429   16.0444 H   0  0  0  0  0  0
  -27.9757  -19.9056   16.3833 H   0  0  0  0  0  0
  -29.2109  -19.4774   15.2187 H   0  0  0  0  0  0
  -28.6008  -20.9321   20.9447 H   0  0  0  0  0  0
  -29.9575  -21.7918   21.6337 H   0  0  0  0  0  0
  -27.3667  -24.8441   19.4603 H   0  0  0  0  0  0
  -28.8482  -25.2659   18.6323 H   0  0  0  0  0  0
  -29.0156  -15.3834   21.2426 H   0  0  0  0  0  0
  -30.9705  -21.0506   19.3014 H   0  0  0  0  0  0
  1 25  1  0  0  0
  1 30  2  0  0  0
  1 84  1  0  0  0
  2  3  1  0  0  0
  2 25  1  0  0  0
  2 90  1  0  0  0
  2 91  1  0  0  0
  3  4  1  0  0  0
  3 92  1  0  0  0
  3 93  1  0  0  0
  4  5  1  0  0  0
  4 94  1  0  0  0
  4 95  1  0  0  0
  5  6  1  0  0  0
  5 26  1  0  0  0
  5 96  1  0  0  0
  6 25  1  0  0  0
  6 97  1  0  0  0
  6 98  1  0  0  0
  7  8  2  0  0  0
  7 26  1  0  0  0
  7 29  1  0  0  0
  8  9  1  0  0  0
  8 22  1  0  0  0
  9 10  1  0  0  0
  9 27  2  0  0  0
 10 11  2  0  0  0
 10 15  1  0  0  0
 11 12  1  0  0  0
 11 99  1  0  0  0
 12 13  2  0  0  0
 12100  1  0  0  0
 13 14  1  0  0  0
 13 31  1  0  0  0
 14 15  2  0  0  0
 14101  1  0  0  0
 15102  1  0  0  0
 16 17  2  0  0  0
 16 21  1  0  0  0
 16 31  1  0  0  0
 17 18  1  0  0  0
 17103  1  0  0  0
 18 19  2  0  0  0
 18104  1  0  0  0
 19 20  1  0  0  0
 19 24  1  0  0  0
 20 21  2  0  0  0
 20105  1  0  0  0
 21 23  1  0  0  0
 22 28  1  0  0  0
 22 32  2  0  0  0
 26 27  1  0  0  0
 28106  1  0  0  0
 28107  1  0  0  0
 29108  1  0  0  0
 29109  1  0  0  0
 33 34  1  0  0  0
 33 66  1  0  0  0
 33 70  2  0  0  0
 34 36  1  0  0  0
 34 59  1  0  0  0
 34110  1  0  0  0
 35 44  2  0  0  0
 35 45  1  0  0  0
 35 68  1  0  0  0
 36 56  1  0  0  0
 36111  1  0  0  0
 37 39  1  0  0  0
 37 47  1  0  0  0
 37 66  1  0  0  0
 37112  1  0  0  0
 38 43  2  0  0  0
 38 46  1  0  0  0
 38 47  1  0  0  0
 39 64  1  0  0  0
 39 67  2  0  0  0
 40 52  1  0  0  0
 40 53  2  0  0  0
 40 58  1  0  0  0
 41113  1  0  0  0
 41114  1  0  0  0
 41115  1  0  0  0
 41 48  1  0  0  0
 42 43  1  0  0  0
 42 66  1  0  0  0
 42116  1  0  0  0
 42117  1  0  0  0
 43 44  1  0  0  0
 44118  1  0  0  0
 45 46  2  0  0  0
 45119  1  0  0  0
 46120  1  0  0  0
 47121  1  0  0  0
 47122  1  0  0  0
 48 56  1  0  0  0
 48 65  1  0  0  0
 48123  1  0  0  0
 49 50  1  0  0  0
 49 53  1  0  0  0
 49 64  1  0  0  0
 49124  1  0  0  0
 50 51  1  0  0  0
 50125  1  0  0  0
 50126  1  0  0  0
 51 52  1  0  0  0
 51127  1  0  0  0
 51128  1  0  0  0
 52129  1  0  0  0
 52130  1  0  0  0
 53 54  1  0  0  0
 54 55  2  0  0  0
 54131  1  0  0  0
 55 57  1  0  0  0
 55132  1  0  0  0
 56 69  2  0  0  0
 57 58  2  0  0  0
 57133  1  0  0  0
 58134  1  0  0  0
 59 60  1  0  0  0
 59 61  1  0  0  0
 59 62  1  0  0  0
 60135  1  0  0  0
 60136  1  0  0  0
 60137  1  0  0  0
 61138  1  0  0  0
 61139  1  0  0  0
 61140  1  0  0  0
 62141  1  0  0  0
 62142  1  0  0  0
 62143  1  0  0  0
 63 65  1  0  0  0
 63144  1  0  0  0
 63145  1  0  0  0
 63146  1  0  0  0
 64147  1  0  0  0
 65148  1  0  0  0
 68 83  1  0  0  0
 71 74  2  0  0  0
 71 75  1  0  0  0
 71149  1  0  0  0
 72 74  1  0  0  0
 72 76  2  0  0  0
 72150  1  0  0  0
 73 75  2  0  0  0
 73 76  1  0  0  0
 73 77  1  0  0  0
 74 84  1  0  0  0
 75 85  1  0  0  0
 76 89  1  0  0  0
 77 81  1  0  0  0
 77 86  2  0  0  0
 78 79  1  0  0  0
 78 82  1  0  0  0
 78 87  2  0  0  0
 79 83  1  0  0  0
 79 88  2  0  0  0
 80 81  1  0  0  0
 80151  1  0  0  0
 80152  1  0  0  0
 80153  1  0  0  0
 81154  1  0  0  0
 81155  1  0  0  0
 82 85  1  0  0  0
 82156  1  0  0  0
 82157  1  0  0  0
 83158  1  0  0  0
 83159  1  0  0  0
 84160  1  0  0  0
 85161  1  0  0  0
M  ISO  4   1 100  68 101  83 101  84 100
M  END
> <chiral flag>
0

> <version>
0

> <s_m_source_file>
/data/baiqing/PycharmProjects/Reinvent-master-3.2/result/LINK_invent/BTK/process_docking_weight1_custom_product_contain_oxygen_bond_distance_aromatic_linkinvent_7_9_3/rearranged_h_0166.sdf

> <i_m_source_file_index>
46

> <r_mmod_Potential_Energy-OPLS-2005>
291.407806396484

> <r_mmod_Stretch_Energy-OPLS-2005>
59.4103393554688

> <r_mmod_Bend_Energy-OPLS-2005>
123.508155822754

> <r_mmod_Torsional_Energy-OPLS-2005>
303.385864257812

> <r_mmod_Improper_Torsional_Energy-OPLS-2005>
13.4648265838623

> <r_mmod_Van_der_Waal_Energy-OPLS-2005>
152.776351928711

> <r_mmod_Electrostatic_Energy-OPLS-2005>
-137.906341552734

> <r_mmod_Solvation_Energy-OPLS-2005>
-249.518966674805

> <b_mmod_Minimization_Converged-OPLS-2005>
0

> <r_mmod_RMS_Derivative-OPLS-2005>
2.62188601493835

$$$$
47
                    3D
 Structure written by MMmdl.
173181  0  0  1  0            999 V2000
  -30.6444  -14.6159   20.5043 C   0  0  0  0  0  0
  -30.4281  -12.3545   19.5003 C   0  0  0  0  0  0
  -29.5180  -12.4530   18.2538 C   0  0  0  0  0  0
  -28.0365  -12.3039   18.6631 C   0  0  0  0  0  0
  -27.6538  -13.2099   19.8654 C   0  0  2  0  0  0
  -28.6839  -13.1034   21.0139 C   0  0  0  0  0  0
  -25.2570  -13.8159   20.5723 C   0  0  0  0  0  0
  -24.1826  -13.0430   20.9250 C   0  0  0  0  0  0
  -24.6412  -11.6922   20.8798 C   0  0  0  0  0  0
  -23.9082  -10.4295   21.0441 C   0  0  0  0  0  0
  -24.3656   -9.4196   21.9184 C   0  0  0  0  0  0
  -23.6339   -8.2201   22.0734 C   0  0  0  0  0  0
  -22.4276   -8.0258   21.3566 C   0  0  0  0  0  0
  -21.9969   -9.0226   20.4633 C   0  0  0  0  0  0
  -22.7275  -10.2121   20.3069 C   0  0  0  0  0  0
  -21.6834   -6.0768   22.5321 C   0  0  0  0  0  0
  -21.3954   -6.5676   23.8257 C   0  0  0  0  0  0
  -21.3682   -5.6828   24.9227 C   0  0  0  0  0  0
  -21.6069   -4.3092   24.7264 C   0  0  0  0  0  0
  -21.8801   -3.8186   23.4378 C   0  0  0  0  0  0
  -21.9173   -4.6998   22.3433 C   0  0  0  0  0  0
  -22.7855  -13.5215   21.1972 C   0  0  0  0  0  0
  -22.1644   -4.2191   21.1009 F   0  0  0  0  0  0
  -21.5703   -3.4571   25.7786 F   0  0  0  0  0  0
  -30.0087  -13.4023   20.4551 N   0  0  0  0  0  0
  -26.2999  -12.9310   20.3343 N   0  0  0  0  0  0
  -25.9340  -11.6501   20.5826 N   0  0  0  0  0  0
  -22.0589  -12.8060   22.0502 N   0  0  0  0  0  0
  -25.4353  -15.1829   20.4130 N   0  0  0  0  0  0
  -31.8091  -14.7471   20.1176 O   0  0  0  0  0  0
  -21.6594   -6.8879   21.4274 O   0  0  0  0  0  0
  -22.3491  -14.5557   20.6884 O   0  0  0  0  0  0
  -24.6293  -31.8615   23.2065 C   0  0  0  0  0  0
  -25.9162  -32.4787   23.8395 C   0  0  1  0  0  0
  -27.2085  -27.3201   20.1056 C   0  0  0  0  0  0
  -25.5981  -33.8600   24.2307 N   0  0  0  0  0  0
  -23.4203  -30.4909   21.5512 C   0  0  2  0  0  0
  -24.8587  -28.9496   20.1086 C   0  0  0  0  0  0
  -22.7456  -29.4664   22.4986 C   0  0  0  0  0  0
  -18.0294  -28.1339   22.8548 C   0  0  0  0  0  0
  -24.1501  -36.7299   23.2639 C   0  0  0  0  0  0
  -25.9656  -30.7846   21.3796 C   0  0  0  0  0  0
  -26.0298  -29.4184   20.7157 C   0  0  0  0  0  0
  -27.2028  -28.6132   20.7089 C   0  0  0  0  0  0
  -26.0131  -26.8982   19.4713 C   0  0  0  0  0  0
  -24.8528  -27.6968   19.4774 C   0  0  0  0  0  0
  -23.6334  -29.8392   20.1589 C   0  0  0  0  0  0
  -25.4130  -36.3096   24.0326 C   0  0  1  0  0  0
  -20.5875  -28.3664   23.1415 C   0  0  2  0  0  0
  -20.6776  -26.9370   22.5517 C   0  0  0  0  0  0
  -19.5812  -26.6323   21.5288 C   0  0  0  0  0  0
  -18.1916  -26.7969   22.1556 C   0  0  0  0  0  0
  -19.1547  -28.8804   23.2970 C   0  0  0  0  0  0
  -18.9442  -30.1377   23.9002 C   0  0  0  0  0  0
  -17.6474  -30.6580   24.0595 C   0  0  0  0  0  0
  -25.9055  -34.9454   23.5109 C   0  0  0  0  0  0
  -16.5353  -29.9092   23.6305 C   0  0  0  0  0  0
  -16.7307  -28.6472   23.0373 C   0  0  0  0  0  0
  -26.4530  -31.6629   25.0790 C   0  0  0  0  0  0
  -25.3720  -31.3752   26.1465 C   0  0  0  0  0  0
  -27.0367  -30.3058   24.6257 C   0  0  0  0  0  0
  -27.6132  -32.4337   25.7548 C   0  0  0  0  0  0
  -27.5591  -37.1834   24.8476 C   0  0  0  0  0  0
  -21.4172  -29.3052   22.3810 N   0  0  0  0  0  0
  -26.4313  -37.3785   23.9399 N   0  0  0  0  0  0
  -24.6900  -31.0675   22.0996 N   0  0  0  0  0  0
  -23.4172  -28.8208   23.3057 O   0  0  0  0  0  0
  -28.3504  -26.5140   20.1675 O   0  0  0  0  0  0
  -26.5615  -34.8911   22.4655 O   0  0  0  0  0  0
  -23.5487  -32.1377   23.7424 O   0  0  0  0  0  0
  -29.5523  -19.1846   19.0367 C   0  0  0  0  0  0
  -29.4429  -18.7454   17.7082 C   0  0  0  0  0  0
  -29.4820  -16.4596   18.4948 C   0  0  0  0  0  0
  -29.6448  -18.2913   20.1316 C   0  0  0  0  0  0
  -29.6798  -16.8520   19.8513 C   0  0  0  0  0  0
  -29.3879  -17.3765   17.4409 C   0  0  0  0  0  0
  -29.8557  -19.0055   21.4360 C   0  0  0  0  0  0
  -28.8623  -24.0742   20.8082 C   0  0  0  0  0  0
  -26.6259  -21.5883   23.8052 C   0  0  0  0  0  0
  -26.2393  -19.3084   22.8149 C   0  0  0  0  0  0
  -24.6811  -21.1965   22.3094 C   0  0  0  0  0  0
  -29.1103  -22.5611   20.4192 C   0  0  0  0  0  0
  -28.3373  -25.0975   19.7371 C   0  0  0  0  0  0
  -27.0174  -21.1868   21.2714 C   0  0  0  0  0  0
  -28.5524  -21.4481   21.4105 C   0  0  1  0  0  0
  -26.1691  -20.8224   22.5439 C   0  0  0  0  0  0
  -30.6293  -18.3949   22.3361 N   0  0  0  0  0  0
  -29.8857  -15.7301   20.7863 N   0  0  0  0  0  0
  -29.4336  -20.2659   21.8177 N   0  3  0  0  0  0
  -29.1085  -24.4640   21.9531 O   0  0  0  0  0  0
  -29.2553  -16.9385   16.1643 F   0  0  0  0  0  0
  -31.4813  -12.4449   19.2277 H   0  0  0  0  0  0
  -30.3257  -11.3690   19.9647 H   0  0  0  0  0  0
  -29.7893  -11.6996   17.5164 H   0  0  0  0  0  0
  -29.6652  -13.4051   17.7508 H   0  0  0  0  0  0
  -27.8856  -11.2599   18.9460 H   0  0  0  0  0  0
  -27.3746  -12.4893   17.8152 H   0  0  0  0  0  0
  -27.6650  -14.2312   19.4846 H   0  0  0  0  0  0
  -28.6673  -12.1014   21.4478 H   0  0  0  0  0  0
  -28.4268  -13.7857   21.8247 H   0  0  0  0  0  0
  -25.2832   -9.5667   22.4734 H   0  0  0  0  0  0
  -24.0097   -7.4580   22.7440 H   0  0  0  0  0  0
  -21.0913   -8.8757   19.8913 H   0  0  0  0  0  0
  -22.3770  -10.9657   19.6167 H   0  0  0  0  0  0
  -21.1863   -7.6179   23.9777 H   0  0  0  0  0  0
  -21.1545   -6.0561   25.9143 H   0  0  0  0  0  0
  -22.0542   -2.7644   23.2880 H   0  0  0  0  0  0
  -22.4179  -11.9561   22.4601 H   0  0  0  0  0  0
  -21.1252  -13.1021   22.2967 H   0  0  0  0  0  0
  -24.6902  -15.8532   20.5449 H   0  0  0  0  0  0
  -26.2957  -15.6076   20.0963 H   0  0  0  0  0  0
  -26.7230  -32.5423   23.1134 H   0  0  0  0  0  0
  -25.0201  -33.9717   25.0507 H   0  0  0  0  0  0
  -22.7122  -31.3121   21.4129 H   0  0  0  0  0  0
  -23.3749  -35.9649   23.3326 H   0  0  0  0  0  0
  -24.3606  -36.8869   22.2047 H   0  0  0  0  0  0
  -23.7276  -37.6508   23.6625 H   0  0  0  0  0  0
  -26.1228  -31.5554   20.6229 H   0  0  0  0  0  0
  -26.8384  -30.8159   22.0241 H   0  0  0  0  0  0
  -28.1045  -28.9674   21.1835 H   0  0  0  0  0  0
  -25.9239  -25.9544   18.9611 H   0  0  0  0  0  0
  -23.9525  -27.3452   18.9905 H   0  0  0  0  0  0
  -23.7683  -30.6215   19.4137 H   0  0  0  0  0  0
  -22.7481  -29.2820   19.8488 H   0  0  0  0  0  0
  -25.1316  -36.1945   25.0825 H   0  0  0  0  0  0
  -20.9906  -28.3205   24.1537 H   0  0  0  0  0  0
  -20.5689  -26.2240   23.3709 H   0  0  0  0  0  0
  -21.6661  -26.7547   22.1276 H   0  0  0  0  0  0
  -19.6943  -25.6215   21.1362 H   0  0  0  0  0  0
  -19.6824  -27.3073   20.6779 H   0  0  0  0  0  0
  -17.4206  -26.6938   21.3883 H   0  0  0  0  0  0
  -18.0283  -25.9994   22.8825 H   0  0  0  0  0  0
  -19.7940  -30.7107   24.2418 H   0  0  0  0  0  0
  -17.5070  -31.6242   24.5264 H   0  0  0  0  0  0
  -15.5358  -30.3004   23.7610 H   0  0  0  0  0  0
  -15.8718  -28.0767   22.7138 H   0  0  0  0  0  0
  -24.5916  -30.7105   25.7732 H   0  0  0  0  0  0
  -24.8861  -32.2875   26.4907 H   0  0  0  0  0  0
  -25.7969  -30.8880   27.0251 H   0  0  0  0  0  0
  -26.2916  -29.6829   24.1257 H   0  0  0  0  0  0
  -27.4022  -29.7326   25.4786 H   0  0  0  0  0  0
  -27.8834  -30.4356   23.9520 H   0  0  0  0  0  0
  -27.2810  -33.3638   26.2178 H   0  0  0  0  0  0
  -28.3917  -32.6894   25.0352 H   0  0  0  0  0  0
  -28.0835  -31.8426   26.5406 H   0  0  0  0  0  0
  -28.2649  -38.0100   24.7508 H   0  0  0  0  0  0
  -28.1065  -36.2637   24.6327 H   0  0  0  0  0  0
  -27.2330  -37.1506   25.8892 H   0  0  0  0  0  0
  -20.9244  -29.9000   21.7236 H   0  0  0  0  0  0
  -26.0192  -38.2882   24.1311 H   0  0  0  0  0  0
  -29.6230  -20.2496   19.1984 H   0  0  0  0  0  0
  -29.4103  -19.4563   16.8970 H   0  0  0  0  0  0
  -29.4266  -15.4273   18.2099 H   0  0  0  0  0  0
  -25.9755  -21.3907   24.6575 H   0  0  0  0  0  0
  -26.6145  -22.6704   23.6458 H   0  0  0  0  0  0
  -27.6308  -21.3073   24.1222 H   0  0  0  0  0  0
  -25.6320  -19.0247   23.6774 H   0  0  0  0  0  0
  -27.2584  -18.9883   23.0166 H   0  0  0  0  0  0
  -25.8762  -18.7325   21.9615 H   0  0  0  0  0  0
  -24.0633  -20.9734   23.1858 H   0  0  0  0  0  0
  -24.2455  -20.6596   21.4667 H   0  0  0  0  0  0
  -24.5598  -22.2615   22.1159 H   0  0  0  0  0  0
  -30.1893  -22.4421   20.3178 H   0  0  0  0  0  0
  -28.6964  -22.4082   19.4248 H   0  0  0  0  0  0
  -27.3562  -24.7354   19.4483 H   0  0  0  0  0  0
  -28.9705  -25.0248   18.8511 H   0  0  0  0  0  0
  -26.8251  -20.4686   20.4727 H   0  0  0  0  0  0
  -26.5981  -22.1171   20.8945 H   0  0  0  0  0  0
  -28.6321  -22.0108   22.3343 H   0  0  0  0  0  0
  -31.0342  -18.8535   23.1386 H   0  0  0  0  0  0
  -30.9208  -17.4417   22.1719 H   0  0  0  0  0  0
  -29.0898  -15.5269   21.3708 H   0  0  0  0  0  0
  -29.8024  -20.4978   22.7294 H   0  0  0  0  0  0
  1 25  1  0  0  0
  1 30  2  0  0  0
  1 88  1  0  0  0
  2  3  1  0  0  0
  2 25  1  0  0  0
  2 92  1  0  0  0
  2 93  1  0  0  0
  3  4  1  0  0  0
  3 94  1  0  0  0
  3 95  1  0  0  0
  4  5  1  0  0  0
  4 96  1  0  0  0
  4 97  1  0  0  0
  5  6  1  0  0  0
  5 26  1  0  0  0
  5 98  1  0  0  0
  6 25  1  0  0  0
  6 99  1  0  0  0
  6100  1  0  0  0
  7  8  2  0  0  0
  7 26  1  0  0  0
  7 29  1  0  0  0
  8  9  1  0  0  0
  8 22  1  0  0  0
  9 10  1  0  0  0
  9 27  2  0  0  0
 10 11  2  0  0  0
 10 15  1  0  0  0
 11 12  1  0  0  0
 11101  1  0  0  0
 12 13  2  0  0  0
 12102  1  0  0  0
 13 14  1  0  0  0
 13 31  1  0  0  0
 14 15  2  0  0  0
 14103  1  0  0  0
 15104  1  0  0  0
 16 17  2  0  0  0
 16 21  1  0  0  0
 16 31  1  0  0  0
 17 18  1  0  0  0
 17105  1  0  0  0
 18 19  2  0  0  0
 18106  1  0  0  0
 19 20  1  0  0  0
 19 24  1  0  0  0
 20 21  2  0  0  0
 20107  1  0  0  0
 21 23  1  0  0  0
 22 28  1  0  0  0
 22 32  2  0  0  0
 26 27  1  0  0  0
 28108  1  0  0  0
 28109  1  0  0  0
 29110  1  0  0  0
 29111  1  0  0  0
 33 34  1  0  0  0
 33 66  1  0  0  0
 33 70  2  0  0  0
 34 36  1  0  0  0
 34 59  1  0  0  0
 34112  1  0  0  0
 35 44  2  0  0  0
 35 45  1  0  0  0
 35 68  1  0  0  0
 36 56  1  0  0  0
 36113  1  0  0  0
 37 39  1  0  0  0
 37 47  1  0  0  0
 37 66  1  0  0  0
 37114  1  0  0  0
 38 43  2  0  0  0
 38 46  1  0  0  0
 38 47  1  0  0  0
 39 64  1  0  0  0
 39 67  2  0  0  0
 40 52  1  0  0  0
 40 53  2  0  0  0
 40 58  1  0  0  0
 41115  1  0  0  0
 41116  1  0  0  0
 41117  1  0  0  0
 41 48  1  0  0  0
 42 43  1  0  0  0
 42 66  1  0  0  0
 42118  1  0  0  0
 42119  1  0  0  0
 43 44  1  0  0  0
 44120  1  0  0  0
 45 46  2  0  0  0
 45121  1  0  0  0
 46122  1  0  0  0
 47123  1  0  0  0
 47124  1  0  0  0
 48 56  1  0  0  0
 48 65  1  0  0  0
 48125  1  0  0  0
 49 50  1  0  0  0
 49 53  1  0  0  0
 49 64  1  0  0  0
 49126  1  0  0  0
 50 51  1  0  0  0
 50127  1  0  0  0
 50128  1  0  0  0
 51 52  1  0  0  0
 51129  1  0  0  0
 51130  1  0  0  0
 52131  1  0  0  0
 52132  1  0  0  0
 53 54  1  0  0  0
 54 55  2  0  0  0
 54133  1  0  0  0
 55 57  1  0  0  0
 55134  1  0  0  0
 56 69  2  0  0  0
 57 58  2  0  0  0
 57135  1  0  0  0
 58136  1  0  0  0
 59 60  1  0  0  0
 59 61  1  0  0  0
 59 62  1  0  0  0
 60137  1  0  0  0
 60138  1  0  0  0
 60139  1  0  0  0
 61140  1  0  0  0
 61141  1  0  0  0
 61142  1  0  0  0
 62143  1  0  0  0
 62144  1  0  0  0
 62145  1  0  0  0
 63 65  1  0  0  0
 63146  1  0  0  0
 63147  1  0  0  0
 63148  1  0  0  0
 64149  1  0  0  0
 65150  1  0  0  0
 68 83  1  0  0  0
 71 72  2  0  0  0
 71 74  1  0  0  0
 71151  1  0  0  0
 72 76  1  0  0  0
 72152  1  0  0  0
 73 75  1  0  0  0
 73 76  2  0  0  0
 73153  1  0  0  0
 74 75  2  0  0  0
 74 77  1  0  0  0
 75 88  1  0  0  0
 76 91  1  0  0  0
 77 87  1  0  0  0
 77 89  2  0  0  0
 78 82  1  0  0  0
 78 83  1  0  0  0
 78 90  2  0  0  0
 79154  1  0  0  0
 79155  1  0  0  0
 79156  1  0  0  0
 79 86  1  0  0  0
 80 86  1  0  0  0
 80157  1  0  0  0
 80158  1  0  0  0
 80159  1  0  0  0
 81 86  1  0  0  0
 81160  1  0  0  0
 81161  1  0  0  0
 81162  1  0  0  0
 82163  1  0  0  0
 82164  1  0  0  0
 82 85  1  0  0  0
 83165  1  0  0  0
 83166  1  0  0  0
 84 85  1  0  0  0
 84 86  1  0  0  0
 84167  1  0  0  0
 84168  1  0  0  0
 85 89  1  0  0  0
 85169  1  0  0  0
 87170  1  0  0  0
 87171  1  0  0  0
 88172  1  0  0  0
 89173  1  0  0  0
M  CHG  1  89   1
M  ISO  4   1 100  68 101  83 101  88 100
M  END
> <chiral flag>
0

> <version>
0

> <s_m_source_file>
/data/baiqing/PycharmProjects/Reinvent-master-3.2/result/LINK_invent/BTK/process_docking_weight1_custom_product_contain_oxygen_bond_distance_aromatic_linkinvent_7_9_3/rearranged_h_0166.sdf

> <i_m_source_file_index>
47

> <r_mmod_Potential_Energy-OPLS-2005>
141.528747558594

> <r_mmod_Stretch_Energy-OPLS-2005>
96.0768127441406

> <r_mmod_Bend_Energy-OPLS-2005>
229.30110168457

> <r_mmod_Torsional_Energy-OPLS-2005>
260.265075683594

> <r_mmod_Improper_Torsional_Energy-OPLS-2005>
8.86430644989014

> <r_mmod_Van_der_Waal_Energy-OPLS-2005>
138.461990356445

> <r_mmod_Electrostatic_Energy-OPLS-2005>
-195.842727661133

> <r_mmod_Solvation_Energy-OPLS-2005>
-442.3046875

> <b_mmod_Minimization_Converged-OPLS-2005>
0

> <r_mmod_RMS_Derivative-OPLS-2005>
8.80782032012939

$$$$
48
                    3D
 Structure written by MMmdl.
156164  0  0  1  0            999 V2000
  -30.7385  -14.4043   20.6457 C   0  0  0  0  0  0
  -30.4221  -12.2952   19.4142 C   0  0  0  0  0  0
  -29.4991  -12.5407   18.2051 C   0  0  0  0  0  0
  -28.0195  -12.3962   18.6094 C   0  0  0  0  0  0
  -27.6682  -13.2098   19.8822 C   0  0  2  0  0  0
  -28.7028  -12.9513   21.0013 C   0  0  0  0  0  0
  -25.2588  -13.8180   20.5689 C   0  0  0  0  0  0
  -24.1829  -13.0453   20.9139 C   0  0  0  0  0  0
  -24.6380  -11.6918   20.8696 C   0  0  0  0  0  0
  -23.9046  -10.4287   21.0398 C   0  0  0  0  0  0
  -24.3599   -9.4206   21.9179 C   0  0  0  0  0  0
  -23.6276   -8.2246   22.0759 C   0  0  0  0  0  0
  -22.4257   -8.0268   21.3563 C   0  0  0  0  0  0
  -21.9882   -9.0242   20.4679 C   0  0  0  0  0  0
  -22.7209  -10.2122   20.3067 C   0  0  0  0  0  0
  -21.6846   -6.0729   22.5272 C   0  0  0  0  0  0
  -21.4024   -6.5630   23.8210 C   0  0  0  0  0  0
  -21.3664   -5.6776   24.9159 C   0  0  0  0  0  0
  -21.6041   -4.3036   24.7207 C   0  0  0  0  0  0
  -21.8820   -3.8133   23.4321 C   0  0  0  0  0  0
  -21.9204   -4.6959   22.3385 C   0  0  0  0  0  0
  -22.7865  -13.5274   21.1830 C   0  0  0  0  0  0
  -22.1668   -4.2164   21.0969 F   0  0  0  0  0  0
  -21.5624   -3.4511   25.7710 F   0  0  0  0  0  0
  -30.0491  -13.2462   20.4715 N   0  0  0  0  0  0
  -26.3037  -12.9358   20.3337 N   0  0  0  0  0  0
  -25.9295  -11.6501   20.5686 N   0  0  0  0  0  0
  -22.0485  -12.8294   22.0393 N   0  0  0  0  0  0
  -25.4301  -15.1919   20.4223 N   0  0  0  0  0  0
  -31.7941  -14.6549   20.0487 O   0  0  0  0  0  0
  -21.6635   -6.8855   21.4241 O   0  0  0  0  0  0
  -22.3546  -14.5581   20.6677 O   0  0  0  0  0  0
  -24.6134  -31.8721   23.2150 C   0  0  0  0  0  0
  -25.9039  -32.4847   23.8445 C   0  0  1  0  0  0
  -27.2225  -27.4674   20.0610 C   0  0  0  0  0  0
  -25.5894  -33.8644   24.2355 N   0  0  0  0  0  0
  -23.3976  -30.4986   21.5600 C   0  0  2  0  0  0
  -24.8352  -28.9719   20.1160 C   0  0  0  0  0  0
  -22.7416  -29.4663   22.5052 C   0  0  0  0  0  0
  -18.0270  -28.1379   22.8503 C   0  0  0  0  0  0
  -24.1477  -36.7330   23.2636 C   0  0  0  0  0  0
  -25.9281  -30.8415   21.3676 C   0  0  0  0  0  0
  -25.9979  -29.4822   20.7043 C   0  0  0  0  0  0
  -27.1965  -28.7400   20.6667 C   0  0  0  0  0  0
  -26.0361  -26.9582   19.4818 C   0  0  0  0  0  0
  -24.8467  -27.7072   19.5048 C   0  0  0  0  0  0
  -23.6007  -29.8418   20.1702 C   0  0  0  0  0  0
  -25.4090  -36.3135   24.0349 C   0  0  1  0  0  0
  -20.5857  -28.3656   23.1359 C   0  0  2  0  0  0
  -20.6751  -26.9397   22.5452 C   0  0  0  0  0  0
  -19.5726  -26.6393   21.5242 C   0  0  0  0  0  0
  -18.1899  -26.7940   22.1639 C   0  0  0  0  0  0
  -19.1521  -28.8835   23.2922 C   0  0  0  0  0  0
  -18.9444  -30.1445   23.8933 C   0  0  0  0  0  0
  -17.6444  -30.6586   24.0575 C   0  0  0  0  0  0
  -25.9029  -34.9493   23.5150 C   0  0  0  0  0  0
  -16.5336  -29.9094   23.6322 C   0  0  0  0  0  0
  -16.7261  -28.6507   23.0350 C   0  0  0  0  0  0
  -26.4463  -31.6645   25.0794 C   0  0  0  0  0  0
  -25.3736  -31.3812   26.1578 C   0  0  0  0  0  0
  -27.0277  -30.3070   24.6199 C   0  0  0  0  0  0
  -27.6063  -32.4382   25.7494 C   0  0  0  0  0  0
  -27.5609  -37.1777   24.8438 C   0  0  0  0  0  0
  -21.4148  -29.3017   22.3779 N   0  0  0  0  0  0
  -26.4267  -37.3823   23.9455 N   0  0  0  0  0  0
  -24.6646  -31.0854   22.1038 N   0  0  0  0  0  0
  -23.4210  -28.8192   23.3064 O   0  0  0  0  0  0
  -28.4037  -26.7663   20.0389 O   0  0  0  0  0  0
  -26.5594  -34.8934   22.4720 O   0  0  0  0  0  0
  -23.5328  -32.1474   23.7550 O   0  0  0  0  0  0
  -30.6700  -17.2976   22.7735 C   0  0  0  0  0  0
  -30.4393  -16.6446   21.5923 C   0  0  0  0  0  0
  -30.5638  -18.7732   20.7825 C   0  0  0  0  0  0
  -29.7287  -22.2488   20.0295 C   0  0  0  0  0  0
  -31.7812  -19.9612   18.9006 C   0  0  0  0  0  0
  -29.5329  -23.3442   21.0778 C   0  0  0  0  0  0
  -29.6259  -24.7890   20.5531 C   0  0  0  0  0  0
  -28.3002  -25.3454   20.0290 C   0  0  0  0  0  0
  -30.5095  -19.8815   19.7614 C   0  0  2  0  0  0
  -30.3640  -17.4850   20.4730 N   0  0  0  0  0  0
  -30.2170  -15.2522   21.5418 N   0  0  0  0  0  0
  -30.2927  -21.1276   20.4852 N   0  0  0  0  0  0
  -29.3727  -22.4020   18.8609 O   0  0  0  0  0  0
  -30.9155  -19.0035   22.5066 S   0  0  0  0  0  0
  -31.4683  -12.3915   19.1188 H   0  0  0  0  0  0
  -30.3112  -11.2734   19.7780 H   0  0  0  0  0  0
  -29.7375  -11.8438   17.4012 H   0  0  0  0  0  0
  -29.6742  -13.5393   17.8017 H   0  0  0  0  0  0
  -27.8212  -11.3379   18.7764 H   0  0  0  0  0  0
  -27.3782  -12.7018   17.7826 H   0  0  0  0  0  0
  -27.7275  -14.2649   19.6130 H   0  0  0  0  0  0
  -28.6634  -11.9089   21.3222 H   0  0  0  0  0  0
  -28.4467  -13.5272   21.8896 H   0  0  0  0  0  0
  -25.2738   -9.5697   22.4738 H   0  0  0  0  0  0
  -24.0002   -7.4637   22.7459 H   0  0  0  0  0  0
  -21.0811   -8.8748   19.8989 H   0  0  0  0  0  0
  -22.3650  -10.9647   19.6168 H   0  0  0  0  0  0
  -21.2022   -7.6139   23.9709 H   0  0  0  0  0  0
  -21.1494   -6.0505   25.9068 H   0  0  0  0  0  0
  -22.0607   -2.7605   23.2804 H   0  0  0  0  0  0
  -22.4052  -11.9967   22.4842 H   0  0  0  0  0  0
  -21.1132  -13.1399   22.2577 H   0  0  0  0  0  0
  -24.6713  -15.8497   20.5645 H   0  0  0  0  0  0
  -26.2997  -15.6457   20.1705 H   0  0  0  0  0  0
  -26.7126  -32.5543   23.1219 H   0  0  0  0  0  0
  -25.0026  -33.9821   25.0489 H   0  0  0  0  0  0
  -22.6827  -31.3143   21.4326 H   0  0  0  0  0  0
  -23.3765  -35.9635   23.3235 H   0  0  0  0  0  0
  -24.3606  -36.9015   22.2068 H   0  0  0  0  0  0
  -23.7176  -37.6492   23.6691 H   0  0  0  0  0  0
  -26.0579  -31.6122   20.6061 H   0  0  0  0  0  0
  -26.8091  -30.8762   21.9962 H   0  0  0  0  0  0
  -28.1013  -29.1398   21.1038 H   0  0  0  0  0  0
  -26.0186  -25.9949   18.9948 H   0  0  0  0  0  0
  -23.9507  -27.3126   19.0459 H   0  0  0  0  0  0
  -23.7147  -30.6268   19.4209 H   0  0  0  0  0  0
  -22.7197  -29.2733   19.8678 H   0  0  0  0  0  0
  -25.1237  -36.1990   25.0835 H   0  0  0  0  0  0
  -20.9946  -28.3203   24.1481 H   0  0  0  0  0  0
  -20.5678  -26.2249   23.3624 H   0  0  0  0  0  0
  -21.6615  -26.7454   22.1225 H   0  0  0  0  0  0
  -19.6873  -25.6310   21.1246 H   0  0  0  0  0  0
  -19.6653  -27.3227   20.6784 H   0  0  0  0  0  0
  -17.4181  -26.6732   21.4017 H   0  0  0  0  0  0
  -18.0252  -26.0073   22.9018 H   0  0  0  0  0  0
  -19.7911  -30.7251   24.2320 H   0  0  0  0  0  0
  -17.4995  -31.6263   24.5187 H   0  0  0  0  0  0
  -15.5337  -30.3002   23.7619 H   0  0  0  0  0  0
  -15.8667  -28.0835   22.7052 H   0  0  0  0  0  0
  -24.5799  -30.7276   25.7950 H   0  0  0  0  0  0
  -24.9059  -32.3006   26.5110 H   0  0  0  0  0  0
  -25.8072  -30.8903   27.0301 H   0  0  0  0  0  0
  -26.2819  -29.6834   24.1249 H   0  0  0  0  0  0
  -27.4024  -29.7315   25.4679 H   0  0  0  0  0  0
  -27.8679  -30.4383   23.9374 H   0  0  0  0  0  0
  -27.2696  -33.3660   26.2126 H   0  0  0  0  0  0
  -28.3784  -32.6995   25.0249 H   0  0  0  0  0  0
  -28.0842  -31.8508   26.5341 H   0  0  0  0  0  0
  -28.2539  -38.0161   24.7645 H   0  0  0  0  0  0
  -28.1186  -36.2714   24.6021 H   0  0  0  0  0  0
  -27.2390  -37.1158   25.8848 H   0  0  0  0  0  0
  -20.9313  -29.8763   21.7019 H   0  0  0  0  0  0
  -26.0162  -38.2890   24.1537 H   0  0  0  0  0  0
  -30.7400  -16.8885   23.7747 H   0  0  0  0  0  0
  -31.9529  -19.0181   18.3802 H   0  0  0  0  0  0
  -32.6651  -20.1724   19.5018 H   0  0  0  0  0  0
  -31.6920  -20.7410   18.1427 H   0  0  0  0  0  0
  -30.2996  -23.2207   21.8425 H   0  0  0  0  0  0
  -28.5808  -23.1746   21.5816 H   0  0  0  0  0  0
  -30.3980  -24.8815   19.7868 H   0  0  0  0  0  0
  -29.9492  -25.4180   21.3831 H   0  0  0  0  0  0
  -27.4931  -25.0323   20.6932 H   0  0  0  0  0  0
  -28.0812  -24.9674   19.0297 H   0  0  0  0  0  0
  -29.6513  -19.6951   19.1140 H   0  0  0  0  0  0
  -29.4786  -14.8916   22.1268 H   0  0  0  0  0  0
  -30.5315  -21.1062   21.4657 H   0  0  0  0  0  0
  1 25  1  0  0  0
  1 30  2  0  0  0
  1 81  1  0  0  0
  2  3  1  0  0  0
  2 25  1  0  0  0
  2 85  1  0  0  0
  2 86  1  0  0  0
  3  4  1  0  0  0
  3 87  1  0  0  0
  3 88  1  0  0  0
  4  5  1  0  0  0
  4 89  1  0  0  0
  4 90  1  0  0  0
  5  6  1  0  0  0
  5 26  1  0  0  0
  5 91  1  0  0  0
  6 25  1  0  0  0
  6 92  1  0  0  0
  6 93  1  0  0  0
  7  8  2  0  0  0
  7 26  1  0  0  0
  7 29  1  0  0  0
  8  9  1  0  0  0
  8 22  1  0  0  0
  9 10  1  0  0  0
  9 27  2  0  0  0
 10 11  2  0  0  0
 10 15  1  0  0  0
 11 12  1  0  0  0
 11 94  1  0  0  0
 12 13  2  0  0  0
 12 95  1  0  0  0
 13 14  1  0  0  0
 13 31  1  0  0  0
 14 15  2  0  0  0
 14 96  1  0  0  0
 15 97  1  0  0  0
 16 17  2  0  0  0
 16 21  1  0  0  0
 16 31  1  0  0  0
 17 18  1  0  0  0
 17 98  1  0  0  0
 18 19  2  0  0  0
 18 99  1  0  0  0
 19 20  1  0  0  0
 19 24  1  0  0  0
 20 21  2  0  0  0
 20100  1  0  0  0
 21 23  1  0  0  0
 22 28  1  0  0  0
 22 32  2  0  0  0
 26 27  1  0  0  0
 28101  1  0  0  0
 28102  1  0  0  0
 29103  1  0  0  0
 29104  1  0  0  0
 33 34  1  0  0  0
 33 66  1  0  0  0
 33 70  2  0  0  0
 34 36  1  0  0  0
 34 59  1  0  0  0
 34105  1  0  0  0
 35 44  2  0  0  0
 35 45  1  0  0  0
 35 68  1  0  0  0
 36 56  1  0  0  0
 36106  1  0  0  0
 37 39  1  0  0  0
 37 47  1  0  0  0
 37 66  1  0  0  0
 37107  1  0  0  0
 38 43  2  0  0  0
 38 46  1  0  0  0
 38 47  1  0  0  0
 39 64  1  0  0  0
 39 67  2  0  0  0
 40 52  1  0  0  0
 40 53  2  0  0  0
 40 58  1  0  0  0
 41108  1  0  0  0
 41109  1  0  0  0
 41110  1  0  0  0
 41 48  1  0  0  0
 42 43  1  0  0  0
 42 66  1  0  0  0
 42111  1  0  0  0
 42112  1  0  0  0
 43 44  1  0  0  0
 44113  1  0  0  0
 45 46  2  0  0  0
 45114  1  0  0  0
 46115  1  0  0  0
 47116  1  0  0  0
 47117  1  0  0  0
 48 56  1  0  0  0
 48 65  1  0  0  0
 48118  1  0  0  0
 49 50  1  0  0  0
 49 53  1  0  0  0
 49 64  1  0  0  0
 49119  1  0  0  0
 50 51  1  0  0  0
 50120  1  0  0  0
 50121  1  0  0  0
 51 52  1  0  0  0
 51122  1  0  0  0
 51123  1  0  0  0
 52124  1  0  0  0
 52125  1  0  0  0
 53 54  1  0  0  0
 54 55  2  0  0  0
 54126  1  0  0  0
 55 57  1  0  0  0
 55127  1  0  0  0
 56 69  2  0  0  0
 57 58  2  0  0  0
 57128  1  0  0  0
 58129  1  0  0  0
 59 60  1  0  0  0
 59 61  1  0  0  0
 59 62  1  0  0  0
 60130  1  0  0  0
 60131  1  0  0  0
 60132  1  0  0  0
 61133  1  0  0  0
 61134  1  0  0  0
 61135  1  0  0  0
 62136  1  0  0  0
 62137  1  0  0  0
 62138  1  0  0  0
 63 65  1  0  0  0
 63139  1  0  0  0
 63140  1  0  0  0
 63141  1  0  0  0
 64142  1  0  0  0
 65143  1  0  0  0
 68 78  1  0  0  0
 71 72  2  0  0  0
 71 84  1  0  0  0
 71144  1  0  0  0
 72 80  1  0  0  0
 72 81  1  0  0  0
 73 79  1  0  0  0
 73 80  2  0  0  0
 73 84  1  0  0  0
 74 76  1  0  0  0
 74 82  1  0  0  0
 74 83  2  0  0  0
 75145  1  0  0  0
 75146  1  0  0  0
 75147  1  0  0  0
 75 79  1  0  0  0
 76 77  1  0  0  0
 76148  1  0  0  0
 76149  1  0  0  0
 77 78  1  0  0  0
 77150  1  0  0  0
 77151  1  0  0  0
 78152  1  0  0  0
 78153  1  0  0  0
 79 82  1  0  0  0
 79154  1  0  0  0
 81155  1  0  0  0
 82156  1  0  0  0
M  ISO  4   1 100  68 101  78 101  81 100
M  END
> <chiral flag>
0

> <version>
0

> <s_m_source_file>
/data/baiqing/PycharmProjects/Reinvent-master-3.2/result/LINK_invent/BTK/process_docking_weight1_custom_product_contain_oxygen_bond_distance_aromatic_linkinvent_7_9_3/rearranged_h_0166.sdf

> <i_m_source_file_index>
48

> <r_mmod_Potential_Energy-OPLS-2005>
-256.241485595703

> <r_mmod_Stretch_Energy-OPLS-2005>
30.5083522796631

> <r_mmod_Bend_Energy-OPLS-2005>
94.7114639282227

> <r_mmod_Torsional_Energy-OPLS-2005>
194.672897338867

> <r_mmod_Improper_Torsional_Energy-OPLS-2005>
2.4498610496521

> <r_mmod_Van_der_Waal_Energy-OPLS-2005>
136.512939453125

> <r_mmod_Electrostatic_Energy-OPLS-2005>
-479.398681640625

> <r_mmod_Solvation_Energy-OPLS-2005>
-244.593933105469

> <b_mmod_Minimization_Converged-OPLS-2005>
0

> <r_mmod_RMS_Derivative-OPLS-2005>
3.49095559120178

$$$$
49
                    3D
 Structure written by MMmdl.
153161  0  0  1  0            999 V2000
  -30.7384  -14.4241   20.5847 C   0  0  0  0  0  0
  -30.4029  -12.2779   19.4270 C   0  0  0  0  0  0
  -29.4874  -12.4973   18.2075 C   0  0  0  0  0  0
  -28.0074  -12.3664   18.6135 C   0  0  0  0  0  0
  -27.6543  -13.2080   19.8693 C   0  0  2  0  0  0
  -28.6913  -13.0014   20.9941 C   0  0  0  0  0  0
  -25.2539  -13.8178   20.5662 C   0  0  0  0  0  0
  -24.1794  -13.0437   20.9157 C   0  0  0  0  0  0
  -24.6353  -11.6910   20.8716 C   0  0  0  0  0  0
  -23.9025  -10.4299   21.0400 C   0  0  0  0  0  0
  -24.3583   -9.4218   21.9176 C   0  0  0  0  0  0
  -23.6266   -8.2248   22.0751 C   0  0  0  0  0  0
  -22.4253   -8.0274   21.3545 C   0  0  0  0  0  0
  -21.9894   -9.0236   20.4637 C   0  0  0  0  0  0
  -22.7209  -10.2122   20.3043 C   0  0  0  0  0  0
  -21.6858   -6.0723   22.5270 C   0  0  0  0  0  0
  -21.4019   -6.5625   23.8204 C   0  0  0  0  0  0
  -21.3657   -5.6774   24.9167 C   0  0  0  0  0  0
  -21.6043   -4.3038   24.7224 C   0  0  0  0  0  0
  -21.8813   -3.8134   23.4346 C   0  0  0  0  0  0
  -21.9195   -4.6951   22.3400 C   0  0  0  0  0  0
  -22.7824  -13.5228   21.1842 C   0  0  0  0  0  0
  -22.1656   -4.2129   21.0977 F   0  0  0  0  0  0
  -21.5639   -3.4526   25.7739 F   0  0  0  0  0  0
  -30.0285  -13.2720   20.4436 N   0  0  0  0  0  0
  -26.2963  -12.9341   20.3326 N   0  0  0  0  0  0
  -25.9273  -11.6498   20.5744 N   0  0  0  0  0  0
  -22.0473  -12.8213   22.0407 N   0  0  0  0  0  0
  -25.4267  -15.1903   20.4109 N   0  0  0  0  0  0
  -31.8678  -14.5448   20.1023 O   0  0  0  0  0  0
  -21.6639   -6.8861   21.4230 O   0  0  0  0  0  0
  -22.3500  -14.5523   20.6693 O   0  0  0  0  0  0
  -24.6116  -31.8705   23.2142 C   0  0  0  0  0  0
  -25.9023  -32.4832   23.8419 C   0  0  1  0  0  0
  -27.2314  -27.4529   20.0867 C   0  0  0  0  0  0
  -25.5902  -33.8629   24.2368 N   0  0  0  0  0  0
  -23.3974  -30.4963   21.5538 C   0  0  2  0  0  0
  -24.8409  -28.9647   20.1158 C   0  0  0  0  0  0
  -22.7394  -29.4668   22.4999 C   0  0  0  0  0  0
  -18.0264  -28.1367   22.8488 C   0  0  0  0  0  0
  -24.1489  -36.7320   23.2640 C   0  0  0  0  0  0
  -25.9251  -30.8388   21.3656 C   0  0  0  0  0  0
  -25.9985  -29.4741   20.7149 C   0  0  0  0  0  0
  -27.1928  -28.7222   20.7039 C   0  0  0  0  0  0
  -26.0501  -26.9529   19.4842 C   0  0  0  0  0  0
  -24.8595  -27.7025   19.5004 C   0  0  0  0  0  0
  -23.6043  -29.8326   20.1662 C   0  0  0  0  0  0
  -25.4108  -36.3126   24.0353 C   0  0  1  0  0  0
  -20.5850  -28.3652   23.1314 C   0  0  2  0  0  0
  -20.6749  -26.9390   22.5409 C   0  0  0  0  0  0
  -19.5735  -26.6381   21.5199 C   0  0  0  0  0  0
  -18.1911  -26.7912   22.1612 C   0  0  0  0  0  0
  -19.1512  -28.8829   23.2899 C   0  0  0  0  0  0
  -18.9444  -30.1431   23.8910 C   0  0  0  0  0  0
  -17.6451  -30.6578   24.0558 C   0  0  0  0  0  0
  -25.9033  -34.9479   23.5158 C   0  0  0  0  0  0
  -16.5341  -29.9086   23.6314 C   0  0  0  0  0  0
  -16.7253  -28.6495   23.0347 C   0  0  0  0  0  0
  -26.4457  -31.6580   25.0724 C   0  0  0  0  0  0
  -25.3732  -31.3633   26.1471 C   0  0  0  0  0  0
  -27.0286  -30.3037   24.6058 C   0  0  0  0  0  0
  -27.6059  -32.4263   25.7481 C   0  0  0  0  0  0
  -27.5586  -37.1822   24.8472 C   0  0  0  0  0  0
  -21.4127  -29.3034   22.3738 N   0  0  0  0  0  0
  -26.4301  -37.3801   23.9412 N   0  0  0  0  0  0
  -24.6629  -31.0831   22.1028 N   0  0  0  0  0  0
  -23.4177  -28.8207   23.3028 O   0  0  0  0  0  0
  -28.4176  -26.7487   20.1047 O   0  0  0  0  0  0
  -26.5585  -34.8922   22.4711 O   0  0  0  0  0  0
  -23.5320  -32.1440   23.7562 O   0  0  0  0  0  0
  -29.4874  -18.6758   19.3087 C   0  0  0  0  0  0
  -29.2844  -20.0650   19.3674 C   0  0  0  0  0  0
  -29.5053  -17.8705   20.4724 C   0  0  0  0  0  0
  -29.0690  -20.6984   20.6114 C   0  0  0  0  0  0
  -29.2707  -18.5047   21.7277 C   0  0  0  0  0  0
  -29.0538  -19.9045   21.7790 C   0  0  0  0  0  0
  -29.8586  -16.4362   20.2521 C   0  0  0  0  0  0
  -28.4337  -25.4617   19.6358 C   0  0  0  0  0  0
  -28.6689  -24.3988   20.4289 C   0  0  0  0  0  0
  -28.6527  -23.0563   19.8487 C   0  0  0  0  0  0
  -30.0564  -15.5090   21.1170 N   0  0  0  0  0  0
  -29.2629  -17.8104   22.9444 N   0  0  0  0  0  0
  -28.9169  -22.1086   20.7650 N   0  0  0  0  0  0
  -28.4017  -22.8127   18.6661 O   0  0  0  0  0  0
  -28.9083  -24.5783   21.7387 O   0  0  0  0  0  0
  -28.8463  -20.5014   22.9804 F   0  0  0  0  0  0
  -31.4499  -12.3450   19.1282 H   0  0  0  0  0  0
  -30.2722  -11.2710   19.8267 H   0  0  0  0  0  0
  -29.7240  -11.7782   17.4215 H   0  0  0  0  0  0
  -29.6654  -13.4856   17.7819 H   0  0  0  0  0  0
  -27.8091  -11.3114   18.8045 H   0  0  0  0  0  0
  -27.3636  -12.6483   17.7788 H   0  0  0  0  0  0
  -27.6965  -14.2533   19.5681 H   0  0  0  0  0  0
  -28.6507  -11.9764   21.3662 H   0  0  0  0  0  0
  -28.4596  -13.6340   21.8517 H   0  0  0  0  0  0
  -25.2735   -9.5712   22.4745 H   0  0  0  0  0  0
  -23.9986   -7.4654   22.7478 H   0  0  0  0  0  0
  -21.0835   -8.8738   19.8940 H   0  0  0  0  0  0
  -22.3659  -10.9648   19.6146 H   0  0  0  0  0  0
  -21.1997   -7.6136   23.9698 H   0  0  0  0  0  0
  -21.1494   -6.0513   25.9066 H   0  0  0  0  0  0
  -22.0596   -2.7594   23.2850 H   0  0  0  0  0  0
  -22.4091  -11.9874   22.4791 H   0  0  0  0  0  0
  -21.1090  -13.1234   22.2604 H   0  0  0  0  0  0
  -24.6680  -15.8526   20.5344 H   0  0  0  0  0  0
  -26.2946  -15.6321   20.1323 H   0  0  0  0  0  0
  -26.7092  -32.5542   23.1183 H   0  0  0  0  0  0
  -25.0063  -33.9793   25.0520 H   0  0  0  0  0  0
  -22.6843  -31.3120   21.4187 H   0  0  0  0  0  0
  -23.3752  -35.9650   23.3303 H   0  0  0  0  0  0
  -24.3587  -36.8923   22.2052 H   0  0  0  0  0  0
  -23.7233  -37.6528   23.6640 H   0  0  0  0  0  0
  -26.0384  -31.6024   20.5951 H   0  0  0  0  0  0
  -26.8131  -30.8912   21.9836 H   0  0  0  0  0  0
  -28.0866  -29.1115   21.1707 H   0  0  0  0  0  0
  -26.0274  -25.9882   18.9972 H   0  0  0  0  0  0
  -23.9668  -27.3074   19.0348 H   0  0  0  0  0  0
  -23.7166  -30.6089   19.4083 H   0  0  0  0  0  0
  -22.7265  -29.2568   19.8676 H   0  0  0  0  0  0
  -25.1283  -36.2005   25.0847 H   0  0  0  0  0  0
  -20.9939  -28.3206   24.1434 H   0  0  0  0  0  0
  -20.5651  -26.2258   23.3588 H   0  0  0  0  0  0
  -21.6623  -26.7431   22.1206 H   0  0  0  0  0  0
  -19.6898  -25.6299   21.1212 H   0  0  0  0  0  0
  -19.6674  -27.3197   20.6731 H   0  0  0  0  0  0
  -17.4182  -26.6649   21.4013 H   0  0  0  0  0  0
  -18.0323  -26.0048   22.9006 H   0  0  0  0  0  0
  -19.7930  -30.7236   24.2288 H   0  0  0  0  0  0
  -17.5015  -31.6257   24.5164 H   0  0  0  0  0  0
  -15.5349  -30.3005   23.7629 H   0  0  0  0  0  0
  -15.8641  -28.0827   22.7063 H   0  0  0  0  0  0
  -24.5951  -30.6935   25.7789 H   0  0  0  0  0  0
  -24.8860  -32.2754   26.4927 H   0  0  0  0  0  0
  -25.8105  -30.8801   27.0219 H   0  0  0  0  0  0
  -26.2815  -29.6803   24.1134 H   0  0  0  0  0  0
  -27.4102  -29.7259   25.4486 H   0  0  0  0  0  0
  -27.8630  -30.4376   23.9168 H   0  0  0  0  0  0
  -27.2728  -33.3572   26.2074 H   0  0  0  0  0  0
  -28.3867  -32.6782   25.0295 H   0  0  0  0  0  0
  -28.0719  -31.8348   26.5373 H   0  0  0  0  0  0
  -28.2613  -38.0111   24.7527 H   0  0  0  0  0  0
  -28.1076  -36.2647   24.6301 H   0  0  0  0  0  0
  -27.2301  -37.1479   25.8873 H   0  0  0  0  0  0
  -20.9276  -29.8779   21.6986 H   0  0  0  0  0  0
  -26.0200  -38.2886   24.1392 H   0  0  0  0  0  0
  -29.6699  -18.2355   18.3386 H   0  0  0  0  0  0
  -29.3301  -20.6199   18.4421 H   0  0  0  0  0  0
  -29.9925  -16.2090   19.1867 H   0  0  0  0  0  0
  -28.2396  -25.4051   18.5719 H   0  0  0  0  0  0
  -29.1594  -16.8002   22.9226 H   0  0  0  0  0  0
  -28.8408  -18.2650   23.7474 H   0  0  0  0  0  0
  -29.0108  -22.4687   21.7072 H   0  0  0  0  0  0
  -28.8713  -25.5135   21.8979 H   0  0  0  0  0  0
  1 25  1  0  0  0
  1 30  2  0  0  0
  1 81  1  0  0  0
  2  3  1  0  0  0
  2 25  1  0  0  0
  2 87  1  0  0  0
  2 88  1  0  0  0
  3  4  1  0  0  0
  3 89  1  0  0  0
  3 90  1  0  0  0
  4  5  1  0  0  0
  4 91  1  0  0  0
  4 92  1  0  0  0
  5  6  1  0  0  0
  5 26  1  0  0  0
  5 93  1  0  0  0
  6 25  1  0  0  0
  6 94  1  0  0  0
  6 95  1  0  0  0
  7  8  2  0  0  0
  7 26  1  0  0  0
  7 29  1  0  0  0
  8  9  1  0  0  0
  8 22  1  0  0  0
  9 10  1  0  0  0
  9 27  2  0  0  0
 10 11  2  0  0  0
 10 15  1  0  0  0
 11 12  1  0  0  0
 11 96  1  0  0  0
 12 13  2  0  0  0
 12 97  1  0  0  0
 13 14  1  0  0  0
 13 31  1  0  0  0
 14 15  2  0  0  0
 14 98  1  0  0  0
 15 99  1  0  0  0
 16 17  2  0  0  0
 16 21  1  0  0  0
 16 31  1  0  0  0
 17 18  1  0  0  0
 17100  1  0  0  0
 18 19  2  0  0  0
 18101  1  0  0  0
 19 20  1  0  0  0
 19 24  1  0  0  0
 20 21  2  0  0  0
 20102  1  0  0  0
 21 23  1  0  0  0
 22 28  1  0  0  0
 22 32  2  0  0  0
 26 27  1  0  0  0
 28103  1  0  0  0
 28104  1  0  0  0
 29105  1  0  0  0
 29106  1  0  0  0
 33 34  1  0  0  0
 33 66  1  0  0  0
 33 70  2  0  0  0
 34 36  1  0  0  0
 34 59  1  0  0  0
 34107  1  0  0  0
 35 44  2  0  0  0
 35 45  1  0  0  0
 35 68  1  0  0  0
 36 56  1  0  0  0
 36108  1  0  0  0
 37 39  1  0  0  0
 37 47  1  0  0  0
 37 66  1  0  0  0
 37109  1  0  0  0
 38 43  2  0  0  0
 38 46  1  0  0  0
 38 47  1  0  0  0
 39 64  1  0  0  0
 39 67  2  0  0  0
 40 52  1  0  0  0
 40 53  2  0  0  0
 40 58  1  0  0  0
 41110  1  0  0  0
 41111  1  0  0  0
 41112  1  0  0  0
 41 48  1  0  0  0
 42 43  1  0  0  0
 42 66  1  0  0  0
 42113  1  0  0  0
 42114  1  0  0  0
 43 44  1  0  0  0
 44115  1  0  0  0
 45 46  2  0  0  0
 45116  1  0  0  0
 46117  1  0  0  0
 47118  1  0  0  0
 47119  1  0  0  0
 48 56  1  0  0  0
 48 65  1  0  0  0
 48120  1  0  0  0
 49 50  1  0  0  0
 49 53  1  0  0  0
 49 64  1  0  0  0
 49121  1  0  0  0
 50 51  1  0  0  0
 50122  1  0  0  0
 50123  1  0  0  0
 51 52  1  0  0  0
 51124  1  0  0  0
 51125  1  0  0  0
 52126  1  0  0  0
 52127  1  0  0  0
 53 54  1  0  0  0
 54 55  2  0  0  0
 54128  1  0  0  0
 55 57  1  0  0  0
 55129  1  0  0  0
 56 69  2  0  0  0
 57 58  2  0  0  0
 57130  1  0  0  0
 58131  1  0  0  0
 59 60  1  0  0  0
 59 61  1  0  0  0
 59 62  1  0  0  0
 60132  1  0  0  0
 60133  1  0  0  0
 60134  1  0  0  0
 61135  1  0  0  0
 61136  1  0  0  0
 61137  1  0  0  0
 62138  1  0  0  0
 62139  1  0  0  0
 62140  1  0  0  0
 63 65  1  0  0  0
 63141  1  0  0  0
 63142  1  0  0  0
 63143  1  0  0  0
 64144  1  0  0  0
 65145  1  0  0  0
 68 78  1  0  0  0
 71 72  2  0  0  0
 71 73  1  0  0  0
 71146  1  0  0  0
 72 74  1  0  0  0
 72147  1  0  0  0
 73 75  2  0  0  0
 73 77  1  0  0  0
 74 76  2  0  0  0
 74 83  1  0  0  0
 75 76  1  0  0  0
 75 82  1  0  0  0
 76 86  1  0  0  0
 77 81  2  0  0  0
 77148  1  0  0  0
 78 79  2  0  0  0
 78149  1  0  0  0
 79 80  1  0  0  0
 79 85  1  0  0  0
 80 83  1  0  0  0
 80 84  2  0  0  0
 82150  1  0  0  0
 82151  1  0  0  0
 83152  1  0  0  0
 85153  1  0  0  0
M  ISO  4   1 100  68 101  78 101  81 100
M  END
> <chiral flag>
0

> <version>
0

> <s_m_source_file>
/data/baiqing/PycharmProjects/Reinvent-master-3.2/result/LINK_invent/BTK/process_docking_weight1_custom_product_contain_oxygen_bond_distance_aromatic_linkinvent_7_9_3/rearranged_h_0166.sdf

> <i_m_source_file_index>
49

> <r_mmod_Potential_Energy-OPLS-2005>
-21.413724899292

> <r_mmod_Stretch_Energy-OPLS-2005>
36.8899993896484

> <r_mmod_Bend_Energy-OPLS-2005>
109.764366149902

> <r_mmod_Torsional_Energy-OPLS-2005>
181.387771606445

> <r_mmod_Improper_Torsional_Energy-OPLS-2005>
7.09074783325195

> <r_mmod_Van_der_Waal_Energy-OPLS-2005>
185.546478271484

> <r_mmod_Electrostatic_Energy-OPLS-2005>
-358.388824462891

> <r_mmod_Solvation_Energy-OPLS-2005>
-196.048477172852

> <b_mmod_Minimization_Converged-OPLS-2005>
0

> <r_mmod_RMS_Derivative-OPLS-2005>
2.06327152252197

$$$$
50
                    3D
 Structure written by MMmdl.
159167  0  0  1  0            999 V2000
  -30.6508  -14.5574   20.4880 C   0  0  0  0  0  0
  -30.4212  -12.3344   19.4523 C   0  0  0  0  0  0
  -29.5020  -12.4974   18.2220 C   0  0  0  0  0  0
  -28.0196  -12.3590   18.6225 C   0  0  0  0  0  0
  -27.6515  -13.2154   19.8649 C   0  0  2  0  0  0
  -28.6921  -13.0472   20.9965 C   0  0  0  0  0  0
  -25.2541  -13.8185   20.5677 C   0  0  0  0  0  0
  -24.1809  -13.0453   20.9201 C   0  0  0  0  0  0
  -24.6368  -11.6918   20.8740 C   0  0  0  0  0  0
  -23.9034  -10.4303   21.0392 C   0  0  0  0  0  0
  -24.3587   -9.4224   21.9170 C   0  0  0  0  0  0
  -23.6284   -8.2246   22.0742 C   0  0  0  0  0  0
  -22.4265   -8.0274   21.3538 C   0  0  0  0  0  0
  -21.9890   -9.0242   20.4643 C   0  0  0  0  0  0
  -22.7207  -10.2135   20.3054 C   0  0  0  0  0  0
  -21.6849   -6.0724   22.5271 C   0  0  0  0  0  0
  -21.4014   -6.5631   23.8201 C   0  0  0  0  0  0
  -21.3672   -5.6788   24.9173 C   0  0  0  0  0  0
  -21.6048   -4.3052   24.7218 C   0  0  0  0  0  0
  -21.8822   -3.8135   23.4341 C   0  0  0  0  0  0
  -21.9194   -4.6953   22.3397 C   0  0  0  0  0  0
  -22.7835  -13.5237   21.1877 C   0  0  0  0  0  0
  -22.1652   -4.2133   21.0977 F   0  0  0  0  0  0
  -21.5649   -3.4537   25.7734 F   0  0  0  0  0  0
  -30.0163  -13.3514   20.4379 N   0  0  0  0  0  0
  -26.2963  -12.9355   20.3311 N   0  0  0  0  0  0
  -25.9296  -11.6508   20.5745 N   0  0  0  0  0  0
  -22.0481  -12.8226   22.0443 N   0  0  0  0  0  0
  -25.4283  -15.1906   20.4053 N   0  0  0  0  0  0
  -31.8240  -14.6908   20.1302 O   0  0  0  0  0  0
  -21.6641   -6.8860   21.4231 O   0  0  0  0  0  0
  -22.3517  -14.5536   20.6726 O   0  0  0  0  0  0
  -24.6177  -31.8646   23.2043 C   0  0  0  0  0  0
  -25.9058  -32.4800   23.8353 C   0  0  1  0  0  0
  -27.2328  -27.3911   20.1080 C   0  0  0  0  0  0
  -25.5897  -33.8598   24.2283 N   0  0  0  0  0  0
  -23.4074  -30.4860   21.5470 C   0  0  2  0  0  0
  -24.8527  -28.9429   20.1154 C   0  0  0  0  0  0
  -22.7424  -29.4643   22.4975 C   0  0  0  0  0  0
  -18.0275  -28.1376   22.8491 C   0  0  0  0  0  0
  -24.1488  -36.7306   23.2641 C   0  0  0  0  0  0
  -25.9396  -30.8179   21.3614 C   0  0  0  0  0  0
  -26.0156  -29.4487   20.7089 C   0  0  0  0  0  0
  -27.2086  -28.6834   20.6942 C   0  0  0  0  0  0
  -26.0477  -26.9072   19.5096 C   0  0  0  0  0  0
  -24.8662  -27.6737   19.5109 C   0  0  0  0  0  0
  -23.6167  -29.8145   20.1632 C   0  0  0  0  0  0
  -25.4115  -36.3098   24.0331 C   0  0  1  0  0  0
  -20.5863  -28.3667   23.1309 C   0  0  2  0  0  0
  -20.6765  -26.9400   22.5421 C   0  0  0  0  0  0
  -19.5745  -26.6377   21.5214 C   0  0  0  0  0  0
  -18.1922  -26.7922   22.1624 C   0  0  0  0  0  0
  -19.1525  -28.8839   23.2895 C   0  0  0  0  0  0
  -18.9453  -30.1444   23.8908 C   0  0  0  0  0  0
  -17.6457  -30.6584   24.0563 C   0  0  0  0  0  0
  -25.9045  -34.9467   23.5111 C   0  0  0  0  0  0
  -16.5347  -29.9085   23.6325 C   0  0  0  0  0  0
  -16.7265  -28.6499   23.0350 C   0  0  0  0  0  0
  -26.4474  -31.6593   25.0699 C   0  0  0  0  0  0
  -25.3721  -31.3724   26.1433 C   0  0  0  0  0  0
  -27.0314  -30.3029   24.6104 C   0  0  0  0  0  0
  -27.6033  -32.4327   25.7471 C   0  0  0  0  0  0
  -27.5581  -37.1808   24.8465 C   0  0  0  0  0  0
  -21.4148  -29.3030   22.3714 N   0  0  0  0  0  0
  -26.4295  -37.3785   23.9408 N   0  0  0  0  0  0
  -24.6738  -31.0715   22.0960 N   0  0  0  0  0  0
  -23.4182  -28.8195   23.3036 O   0  0  0  0  0  0
  -28.3988  -26.6410   20.1274 O   0  0  0  0  0  0
  -26.5619  -34.8927   22.4680 O   0  0  0  0  0  0
  -23.5360  -32.1422   23.7420 O   0  0  0  0  0  0
  -30.6369  -17.2416   19.0624 C   0  0  0  0  0  0
  -30.1279  -19.6210   19.1488 C   0  0  0  0  0  0
  -29.3248  -18.1352   20.9317 C   0  0  0  0  0  0
  -29.9647  -17.0064   20.2876 C   0  0  0  0  0  0
  -29.4280  -19.4687   20.3665 C   0  0  0  0  0  0
  -30.7206  -18.5256   18.5036 C   0  0  0  0  0  0
  -28.5822  -17.9034   22.2163 C   0  0  0  0  0  0
  -29.8570  -23.0074   20.6366 C   0  0  0  0  0  0
  -29.6622  -24.5363   20.4481 C   0  0  0  0  0  0
  -27.1803  -18.4944   22.3344 C   0  0  0  0  0  0
  -28.7318  -21.9811   20.3489 C   0  0  0  0  0  0
  -28.2980  -25.1860   20.0954 C   0  0  0  0  0  0
  -30.9759  -22.5439   21.0247 N   0  0  0  0  0  0
  -29.8649  -15.6315   20.7790 N   0  0  0  0  0  0
  -28.8840  -20.6371   20.9847 N   0  0  0  0  0  0
  -29.0128  -17.2151   23.1476 O   0  0  0  0  0  0
  -30.6414  -25.2826   20.5989 O   0  0  0  0  0  0
  -31.3774  -18.7090   17.3326 F   0  0  0  0  0  0
  -31.4676  -12.4306   19.1584 H   0  0  0  0  0  0
  -30.3237  -11.3363   19.8814 H   0  0  0  0  0  0
  -29.7577  -11.7574   17.4622 H   0  0  0  0  0  0
  -29.6667  -13.4737   17.7649 H   0  0  0  0  0  0
  -27.8314  -11.3056   18.8310 H   0  0  0  0  0  0
  -27.3763  -12.6201   17.7812 H   0  0  0  0  0  0
  -27.6785  -14.2565   19.5413 H   0  0  0  0  0  0
  -28.6769  -12.0267   21.3830 H   0  0  0  0  0  0
  -28.4504  -13.6904   21.8435 H   0  0  0  0  0  0
  -25.2723   -9.5702   22.4754 H   0  0  0  0  0  0
  -24.0000   -7.4633   22.7456 H   0  0  0  0  0  0
  -21.0825   -8.8749   19.8941 H   0  0  0  0  0  0
  -22.3645  -10.9668   19.6167 H   0  0  0  0  0  0
  -21.1990   -7.6135   23.9697 H   0  0  0  0  0  0
  -21.1501   -6.0522   25.9081 H   0  0  0  0  0  0
  -22.0590   -2.7595   23.2842 H   0  0  0  0  0  0
  -22.4071  -11.9867   22.4813 H   0  0  0  0  0  0
  -21.1107  -13.1262   22.2654 H   0  0  0  0  0  0
  -24.6565  -15.8426   20.4889 H   0  0  0  0  0  0
  -26.2586  -15.6109   20.0080 H   0  0  0  0  0  0
  -26.7127  -32.5495   23.1109 H   0  0  0  0  0  0
  -25.0028  -33.9746   25.0415 H   0  0  0  0  0  0
  -22.6973  -31.3041   21.4045 H   0  0  0  0  0  0
  -23.3743  -35.9643   23.3312 H   0  0  0  0  0  0
  -24.3579  -36.8917   22.2053 H   0  0  0  0  0  0
  -23.7245  -37.6514   23.6656 H   0  0  0  0  0  0
  -26.0567  -31.5808   20.5910 H   0  0  0  0  0  0
  -26.8256  -30.8709   21.9830 H   0  0  0  0  0  0
  -28.1068  -29.0719   21.1539 H   0  0  0  0  0  0
  -26.0190  -25.9368   19.0365 H   0  0  0  0  0  0
  -23.9720  -27.2777   19.0495 H   0  0  0  0  0  0
  -23.7265  -30.5870   19.4012 H   0  0  0  0  0  0
  -22.7394  -29.2353   19.8690 H   0  0  0  0  0  0
  -25.1293  -36.1957   25.0822 H   0  0  0  0  0  0
  -20.9957  -28.3239   24.1429 H   0  0  0  0  0  0
  -20.5660  -26.2281   23.3614 H   0  0  0  0  0  0
  -21.6638  -26.7438   22.1219 H   0  0  0  0  0  0
  -19.6911  -25.6288   21.1242 H   0  0  0  0  0  0
  -19.6686  -27.3188   20.6745 H   0  0  0  0  0  0
  -17.4197  -26.6667   21.4022 H   0  0  0  0  0  0
  -18.0323  -26.0059   22.9015 H   0  0  0  0  0  0
  -19.7934  -30.7249   24.2284 H   0  0  0  0  0  0
  -17.5018  -31.6266   24.5161 H   0  0  0  0  0  0
  -15.5350  -30.2997   23.7639 H   0  0  0  0  0  0
  -15.8661  -28.0820   22.7067 H   0  0  0  0  0  0
  -24.5871  -30.7103   25.7761 H   0  0  0  0  0  0
  -24.8936  -32.2892   26.4884 H   0  0  0  0  0  0
  -25.8040  -30.8873   27.0193 H   0  0  0  0  0  0
  -26.2872  -29.6782   24.1146 H   0  0  0  0  0  0
  -27.4066  -29.7275   25.4579 H   0  0  0  0  0  0
  -27.8710  -30.4341   23.9274 H   0  0  0  0  0  0
  -27.2631  -33.3612   26.2068 H   0  0  0  0  0  0
  -28.3829  -32.6915   25.0295 H   0  0  0  0  0  0
  -28.0716  -31.8444   26.5373 H   0  0  0  0  0  0
  -28.2604  -38.0100   24.7507 H   0  0  0  0  0  0
  -28.1073  -36.2632   24.6297 H   0  0  0  0  0  0
  -27.2300  -37.1463   25.8868 H   0  0  0  0  0  0
  -20.9315  -29.8753   21.6929 H   0  0  0  0  0  0
  -26.0184  -38.2863   24.1395 H   0  0  0  0  0  0
  -31.0922  -16.4355   18.5079 H   0  0  0  0  0  0
  -30.2480  -20.5887   18.6871 H   0  0  0  0  0  0
  -26.7683  -18.7006   21.3474 H   0  0  0  0  0  0
  -27.2057  -19.4232   22.9027 H   0  0  0  0  0  0
  -26.5185  -17.7944   22.8444 H   0  0  0  0  0  0
  -28.6023  -21.8844   19.2711 H   0  0  0  0  0  0
  -27.7930  -22.4026   20.7119 H   0  0  0  0  0  0
  -27.5487  -24.8481   20.8131 H   0  0  0  0  0  0
  -27.9949  -24.8513   19.1029 H   0  0  0  0  0  0
  -31.6158  -23.3195   21.1655 H   0  0  0  0  0  0
  -29.0087  -15.3947   21.2558 H   0  0  0  0  0  0
  -28.7857  -20.6457   21.9939 H   0  0  0  0  0  0
  1 25  1  0  0  0
  1 30  2  0  0  0
  1 84  1  0  0  0
  2  3  1  0  0  0
  2 25  1  0  0  0
  2 89  1  0  0  0
  2 90  1  0  0  0
  3  4  1  0  0  0
  3 91  1  0  0  0
  3 92  1  0  0  0
  4  5  1  0  0  0
  4 93  1  0  0  0
  4 94  1  0  0  0
  5  6  1  0  0  0
  5 26  1  0  0  0
  5 95  1  0  0  0
  6 25  1  0  0  0
  6 96  1  0  0  0
  6 97  1  0  0  0
  7  8  2  0  0  0
  7 26  1  0  0  0
  7 29  1  0  0  0
  8  9  1  0  0  0
  8 22  1  0  0  0
  9 10  1  0  0  0
  9 27  2  0  0  0
 10 11  2  0  0  0
 10 15  1  0  0  0
 11 12  1  0  0  0
 11 98  1  0  0  0
 12 13  2  0  0  0
 12 99  1  0  0  0
 13 14  1  0  0  0
 13 31  1  0  0  0
 14 15  2  0  0  0
 14100  1  0  0  0
 15101  1  0  0  0
 16 17  2  0  0  0
 16 21  1  0  0  0
 16 31  1  0  0  0
 17 18  1  0  0  0
 17102  1  0  0  0
 18 19  2  0  0  0
 18103  1  0  0  0
 19 20  1  0  0  0
 19 24  1  0  0  0
 20 21  2  0  0  0
 20104  1  0  0  0
 21 23  1  0  0  0
 22 28  1  0  0  0
 22 32  2  0  0  0
 26 27  1  0  0  0
 28105  1  0  0  0
 28106  1  0  0  0
 29107  1  0  0  0
 29108  1  0  0  0
 33 34  1  0  0  0
 33 66  1  0  0  0
 33 70  2  0  0  0
 34 36  1  0  0  0
 34 59  1  0  0  0
 34109  1  0  0  0
 35 44  2  0  0  0
 35 45  1  0  0  0
 35 68  1  0  0  0
 36 56  1  0  0  0
 36110  1  0  0  0
 37 39  1  0  0  0
 37 47  1  0  0  0
 37 66  1  0  0  0
 37111  1  0  0  0
 38 43  2  0  0  0
 38 46  1  0  0  0
 38 47  1  0  0  0
 39 64  1  0  0  0
 39 67  2  0  0  0
 40 52  1  0  0  0
 40 53  2  0  0  0
 40 58  1  0  0  0
 41112  1  0  0  0
 41113  1  0  0  0
 41114  1  0  0  0
 41 48  1  0  0  0
 42 43  1  0  0  0
 42 66  1  0  0  0
 42115  1  0  0  0
 42116  1  0  0  0
 43 44  1  0  0  0
 44117  1  0  0  0
 45 46  2  0  0  0
 45118  1  0  0  0
 46119  1  0  0  0
 47120  1  0  0  0
 47121  1  0  0  0
 48 56  1  0  0  0
 48 65  1  0  0  0
 48122  1  0  0  0
 49 50  1  0  0  0
 49 53  1  0  0  0
 49 64  1  0  0  0
 49123  1  0  0  0
 50 51  1  0  0  0
 50124  1  0  0  0
 50125  1  0  0  0
 51 52  1  0  0  0
 51126  1  0  0  0
 51127  1  0  0  0
 52128  1  0  0  0
 52129  1  0  0  0
 53 54  1  0  0  0
 54 55  2  0  0  0
 54130  1  0  0  0
 55 57  1  0  0  0
 55131  1  0  0  0
 56 69  2  0  0  0
 57 58  2  0  0  0
 57132  1  0  0  0
 58133  1  0  0  0
 59 60  1  0  0  0
 59 61  1  0  0  0
 59 62  1  0  0  0
 60134  1  0  0  0
 60135  1  0  0  0
 60136  1  0  0  0
 61137  1  0  0  0
 61138  1  0  0  0
 61139  1  0  0  0
 62140  1  0  0  0
 62141  1  0  0  0
 62142  1  0  0  0
 63 65  1  0  0  0
 63143  1  0  0  0
 63144  1  0  0  0
 63145  1  0  0  0
 64146  1  0  0  0
 65147  1  0  0  0
 68 82  1  0  0  0
 71 74  2  0  0  0
 71 76  1  0  0  0
 71148  1  0  0  0
 72 75  1  0  0  0
 72 76  2  0  0  0
 72149  1  0  0  0
 73 74  1  0  0  0
 73 75  2  0  0  0
 73 77  1  0  0  0
 74 84  1  0  0  0
 75 85  1  0  0  0
 76 88  1  0  0  0
 77 80  1  0  0  0
 77 86  2  0  0  0
 78 79  1  0  0  0
 78 81  1  0  0  0
 78 83  2  0  0  0
 79 82  1  0  0  0
 79 87  2  0  0  0
 80150  1  0  0  0
 80151  1  0  0  0
 80152  1  0  0  0
 81 85  1  0  0  0
 81153  1  0  0  0
 81154  1  0  0  0
 82155  1  0  0  0
 82156  1  0  0  0
 83157  1  0  0  0
 84158  1  0  0  0
 85159  1  0  0  0
M  ISO  4   1 100  68 101  82 101  84 100
M  END
> <chiral flag>
0

> <version>
0

> <s_m_source_file>
/data/baiqing/PycharmProjects/Reinvent-master-3.2/result/LINK_invent/BTK/process_docking_weight1_custom_product_contain_oxygen_bond_distance_aromatic_linkinvent_7_9_3/rearranged_h_0166.sdf

> <i_m_source_file_index>
50

> <r_mmod_Potential_Energy-OPLS-2005>
246.600952148438

> <r_mmod_Stretch_Energy-OPLS-2005>
67.714485168457

> <r_mmod_Bend_Energy-OPLS-2005>
131.091003417969

> <r_mmod_Torsional_Energy-OPLS-2005>
257.034393310547

> <r_mmod_Improper_Torsional_Energy-OPLS-2005>
6.08083248138428

> <r_mmod_Van_der_Waal_Energy-OPLS-2005>
159.634643554688

> <r_mmod_Electrostatic_Energy-OPLS-2005>
-136.886474609375

> <r_mmod_Solvation_Energy-OPLS-2005>
-263.397186279297

> <b_mmod_Minimization_Converged-OPLS-2005>
0

> <r_mmod_RMS_Derivative-OPLS-2005>
1.86331057548523

$$$$
51
                    3D
 Structure written by MMmdl.
153161  0  0  1  0            999 V2000
  -30.7034  -14.4349   20.6261 C   0  0  0  0  0  0
  -30.4276  -12.3000   19.4034 C   0  0  0  0  0  0
  -29.4897  -12.5068   18.1974 C   0  0  0  0  0  0
  -28.0157  -12.3620   18.6177 C   0  0  0  0  0  0
  -27.6691  -13.1944   19.8764 C   0  0  2  0  0  0
  -28.7077  -12.9429   20.9922 C   0  0  0  0  0  0
  -25.2666  -13.8146   20.5710 C   0  0  0  0  0  0
  -24.1876  -13.0446   20.9153 C   0  0  0  0  0  0
  -24.6384  -11.6889   20.8695 C   0  0  0  0  0  0
  -23.9034  -10.4293   21.0374 C   0  0  0  0  0  0
  -24.3579   -9.4213   21.9151 C   0  0  0  0  0  0
  -23.6254   -8.2251   22.0749 C   0  0  0  0  0  0
  -22.4222   -8.0300   21.3555 C   0  0  0  0  0  0
  -21.9855   -9.0272   20.4669 C   0  0  0  0  0  0
  -22.7198  -10.2132   20.3048 C   0  0  0  0  0  0
  -21.6871   -6.0701   22.5270 C   0  0  0  0  0  0
  -21.4031   -6.5595   23.8203 C   0  0  0  0  0  0
  -21.3663   -5.6737   24.9162 C   0  0  0  0  0  0
  -21.6039   -4.3003   24.7206 C   0  0  0  0  0  0
  -21.8827   -3.8121   23.4318 C   0  0  0  0  0  0
  -21.9197   -4.6944   22.3384 C   0  0  0  0  0  0
  -22.7913  -13.5291   21.1803 C   0  0  0  0  0  0
  -22.1682   -4.2129   21.0949 F   0  0  0  0  0  0
  -21.5603   -3.4495   25.7719 F   0  0  0  0  0  0
  -30.0504  -13.2547   20.4553 N   0  0  0  0  0  0
  -26.3063  -12.9289   20.3354 N   0  0  0  0  0  0
  -25.9299  -11.6451   20.5708 N   0  0  0  0  0  0
  -22.0513  -12.8360   22.0387 N   0  0  0  0  0  0
  -25.4463  -15.1861   20.4200 N   0  0  0  0  0  0
  -31.7448  -14.7355   20.0319 O   0  0  0  0  0  0
  -21.6629   -6.8872   21.4242 O   0  0  0  0  0  0
  -22.3634  -14.5618   20.6665 O   0  0  0  0  0  0
  -24.6086  -31.8725   23.2168 C   0  0  0  0  0  0
  -25.8996  -32.4844   23.8464 C   0  0  1  0  0  0
  -27.2221  -27.4511   20.1087 C   0  0  0  0  0  0
  -25.5864  -33.8642   24.2368 N   0  0  0  0  0  0
  -23.3988  -30.4979   21.5524 C   0  0  2  0  0  0
  -24.8498  -28.9770   20.1072 C   0  0  0  0  0  0
  -22.7365  -29.4682   22.4959 C   0  0  0  0  0  0
  -18.0281  -28.1359   22.8490 C   0  0  0  0  0  0
  -24.1471  -36.7319   23.2643 C   0  0  0  0  0  0
  -25.9301  -30.8417   21.3774 C   0  0  0  0  0  0
  -26.0086  -29.4862   20.7087 C   0  0  0  0  0  0
  -27.2027  -28.7299   20.7063 C   0  0  0  0  0  0
  -26.0548  -26.9613   19.4874 C   0  0  0  0  0  0
  -24.8668  -27.7129   19.4935 C   0  0  0  0  0  0
  -23.6118  -29.8428   20.1610 C   0  0  0  0  0  0
  -25.4068  -36.3112   24.0353 C   0  0  1  0  0  0
  -20.5865  -28.3652   23.1299 C   0  0  2  0  0  0
  -20.6756  -26.9378   22.5420 C   0  0  0  0  0  0
  -19.5729  -26.6360   21.5197 C   0  0  0  0  0  0
  -18.1912  -26.7902   22.1621 C   0  0  0  0  0  0
  -19.1535  -28.8818   23.2888 C   0  0  0  0  0  0
  -18.9470  -30.1416   23.8902 C   0  0  0  0  0  0
  -17.6486  -30.6569   24.0555 C   0  0  0  0  0  0
  -25.9004  -34.9488   23.5154 C   0  0  0  0  0  0
  -16.5368  -29.9079   23.6323 C   0  0  0  0  0  0
  -16.7274  -28.6491   23.0339 C   0  0  0  0  0  0
  -26.4449  -31.6627   25.0802 C   0  0  0  0  0  0
  -25.3793  -31.3846   26.1650 C   0  0  0  0  0  0
  -27.0211  -30.3017   24.6244 C   0  0  0  0  0  0
  -27.6090  -32.4336   25.7446 C   0  0  0  0  0  0
  -27.5592  -37.1753   24.8418 C   0  0  0  0  0  0
  -21.4094  -29.3034   22.3701 N   0  0  0  0  0  0
  -26.4237  -37.3817   23.9464 N   0  0  0  0  0  0
  -24.6629  -31.0830   22.1069 N   0  0  0  0  0  0
  -23.4153  -28.8209   23.2990 O   0  0  0  0  0  0
  -28.3448  -26.6602   20.1653 O   0  0  0  0  0  0
  -26.5563  -34.8918   22.4715 O   0  0  0  0  0  0
  -23.5271  -32.1498   23.7542 O   0  0  0  0  0  0
  -28.7471  -18.5153   22.4921 C   0  0  0  0  0  0
  -30.5873  -17.5760   20.6725 C   0  0  0  0  0  0
  -29.9404  -16.6428   21.5182 C   0  0  0  0  0  0
  -28.9861  -17.1365   22.4188 C   0  0  0  0  0  0
  -29.4753  -19.3720   21.6562 C   0  0  0  0  0  0
  -28.5175  -22.8962   20.9489 C   0  0  0  0  0  0
  -28.8208  -24.2330   20.2493 C   0  0  0  0  0  0
  -29.4605  -21.7009   20.7132 C   0  0  0  0  0  0
  -28.1431  -25.4489   20.9183 C   0  0  0  0  0  0
  -30.3593  -18.9140   20.7438 N   0  0  0  0  0  0
  -30.1415  -15.2327   21.5383 N   0  0  0  0  0  0
  -29.3188  -20.7510   21.8174 N   0  0  0  0  0  0
  -27.5378  -22.7715   21.6970 O   0  0  0  0  0  0
  -28.2957  -16.2768   23.2096 F   0  0  0  0  0  0
  -31.4704  -12.4069   19.0971 H   0  0  0  0  0  0
  -30.3316  -11.2818   19.7824 H   0  0  0  0  0  0
  -29.7112  -11.7782   17.4148 H   0  0  0  0  0  0
  -29.6583  -13.4916   17.7591 H   0  0  0  0  0  0
  -27.8310  -11.3048   18.8173 H   0  0  0  0  0  0
  -27.3582  -12.6356   17.7921 H   0  0  0  0  0  0
  -27.7265  -14.2434   19.5846 H   0  0  0  0  0  0
  -28.6858  -11.9011   21.3126 H   0  0  0  0  0  0
  -28.4359  -13.5115   21.8834 H   0  0  0  0  0  0
  -25.2703   -9.5679   22.4741 H   0  0  0  0  0  0
  -23.9967   -7.4634   22.7444 H   0  0  0  0  0  0
  -21.0776   -8.8775   19.8990 H   0  0  0  0  0  0
  -22.3637  -10.9653   19.6164 H   0  0  0  0  0  0
  -21.2033   -7.6094   23.9709 H   0  0  0  0  0  0
  -21.1478   -6.0452   25.9053 H   0  0  0  0  0  0
  -22.0593   -2.7582   23.2822 H   0  0  0  0  0  0
  -22.4056  -12.0021   22.4856 H   0  0  0  0  0  0
  -21.1167  -13.1528   22.2557 H   0  0  0  0  0  0
  -24.7033  -15.8570   20.5828 H   0  0  0  0  0  0
  -26.3163  -15.6213   20.1467 H   0  0  0  0  0  0
  -26.7084  -32.5534   23.1228 H   0  0  0  0  0  0
  -24.9961  -33.9851   25.0468 H   0  0  0  0  0  0
  -22.6830  -31.3126   21.4180 H   0  0  0  0  0  0
  -23.3805  -35.9572   23.3151 H   0  0  0  0  0  0
  -24.3649  -36.9103   22.2101 H   0  0  0  0  0  0
  -23.7122  -37.6422   23.6768 H   0  0  0  0  0  0
  -26.0684  -31.6264   20.6328 H   0  0  0  0  0  0
  -26.8029  -30.8688   22.0169 H   0  0  0  0  0  0
  -28.0924  -29.1100   21.1881 H   0  0  0  0  0  0
  -26.0591  -25.9866   19.0214 H   0  0  0  0  0  0
  -23.9746  -27.3127   19.0293 H   0  0  0  0  0  0
  -23.7259  -30.6312   19.4152 H   0  0  0  0  0  0
  -22.7363  -29.2715   19.8484 H   0  0  0  0  0  0
  -25.1234  -36.1963   25.0849 H   0  0  0  0  0  0
  -20.9972  -28.3253   24.1402 H   0  0  0  0  0  0
  -20.5641  -26.2254   23.3611 H   0  0  0  0  0  0
  -21.6634  -26.7406   22.1227 H   0  0  0  0  0  0
  -19.6878  -25.6260   21.1230 H   0  0  0  0  0  0
  -19.6650  -27.3171   20.6713 H   0  0  0  0  0  0
  -17.4164  -26.6653   21.4031 H   0  0  0  0  0  0
  -18.0324  -26.0043   22.9024 H   0  0  0  0  0  0
  -19.7952  -30.7219   24.2265 H   0  0  0  0  0  0
  -17.5052  -31.6257   24.5131 H   0  0  0  0  0  0
  -15.5367  -30.2980   23.7614 H   0  0  0  0  0  0
  -15.8681  -28.0791   22.7046 H   0  0  0  0  0  0
  -24.5554  -30.7724   25.7981 H   0  0  0  0  0  0
  -24.9550  -32.3101   26.5546 H   0  0  0  0  0  0
  -25.8101  -30.8517   27.0133 H   0  0  0  0  0  0
  -26.2725  -29.6787   24.1343 H   0  0  0  0  0  0
  -27.3934  -29.7273   25.4735 H   0  0  0  0  0  0
  -27.8622  -30.4229   23.9419 H   0  0  0  0  0  0
  -27.2745  -33.3583   26.2135 H   0  0  0  0  0  0
  -28.3754  -32.6990   25.0164 H   0  0  0  0  0  0
  -28.0926  -31.8445   26.5232 H   0  0  0  0  0  0
  -28.2484  -38.0173   24.7688 H   0  0  0  0  0  0
  -28.1214  -36.2748   24.5916 H   0  0  0  0  0  0
  -27.2410  -37.1031   25.8832 H   0  0  0  0  0  0
  -20.9191  -29.8810   21.7006 H   0  0  0  0  0  0
  -26.0133  -38.2861   24.1619 H   0  0  0  0  0  0
  -28.0171  -18.8881   23.1952 H   0  0  0  0  0  0
  -31.2994  -17.2657   19.9221 H   0  0  0  0  0  0
  -28.4916  -24.1556   19.2124 H   0  0  0  0  0  0
  -29.9000  -24.3766   20.2313 H   0  0  0  0  0  0
  -30.4974  -22.0426   20.6614 H   0  0  0  0  0  0
  -29.2138  -21.2345   19.7555 H   0  0  0  0  0  0
  -28.5552  -25.5981   21.9184 H   0  0  0  0  0  0
  -27.0833  -25.2342   21.0808 H   0  0  0  0  0  0
  -29.4831  -14.7525   22.1357 H   0  0  0  0  0  0
  -28.6414  -21.0691   22.5073 H   0  0  0  0  0  0
  1 25  1  0  0  0
  1 30  2  0  0  0
  1 81  1  0  0  0
  2  3  1  0  0  0
  2 25  1  0  0  0
  2 85  1  0  0  0
  2 86  1  0  0  0
  3  4  1  0  0  0
  3 87  1  0  0  0
  3 88  1  0  0  0
  4  5  1  0  0  0
  4 89  1  0  0  0
  4 90  1  0  0  0
  5  6  1  0  0  0
  5 26  1  0  0  0
  5 91  1  0  0  0
  6 25  1  0  0  0
  6 92  1  0  0  0
  6 93  1  0  0  0
  7  8  2  0  0  0
  7 26  1  0  0  0
  7 29  1  0  0  0
  8  9  1  0  0  0
  8 22  1  0  0  0
  9 10  1  0  0  0
  9 27  2  0  0  0
 10 11  2  0  0  0
 10 15  1  0  0  0
 11 12  1  0  0  0
 11 94  1  0  0  0
 12 13  2  0  0  0
 12 95  1  0  0  0
 13 14  1  0  0  0
 13 31  1  0  0  0
 14 15  2  0  0  0
 14 96  1  0  0  0
 15 97  1  0  0  0
 16 17  2  0  0  0
 16 21  1  0  0  0
 16 31  1  0  0  0
 17 18  1  0  0  0
 17 98  1  0  0  0
 18 19  2  0  0  0
 18 99  1  0  0  0
 19 20  1  0  0  0
 19 24  1  0  0  0
 20 21  2  0  0  0
 20100  1  0  0  0
 21 23  1  0  0  0
 22 28  1  0  0  0
 22 32  2  0  0  0
 26 27  1  0  0  0
 28101  1  0  0  0
 28102  1  0  0  0
 29103  1  0  0  0
 29104  1  0  0  0
 33 34  1  0  0  0
 33 66  1  0  0  0
 33 70  2  0  0  0
 34 36  1  0  0  0
 34 59  1  0  0  0
 34105  1  0  0  0
 35 44  2  0  0  0
 35 45  1  0  0  0
 35 68  1  0  0  0
 36 56  1  0  0  0
 36106  1  0  0  0
 37 39  1  0  0  0
 37 47  1  0  0  0
 37 66  1  0  0  0
 37107  1  0  0  0
 38 43  2  0  0  0
 38 46  1  0  0  0
 38 47  1  0  0  0
 39 64  1  0  0  0
 39 67  2  0  0  0
 40 52  1  0  0  0
 40 53  2  0  0  0
 40 58  1  0  0  0
 41108  1  0  0  0
 41109  1  0  0  0
 41110  1  0  0  0
 41 48  1  0  0  0
 42 43  1  0  0  0
 42 66  1  0  0  0
 42111  1  0  0  0
 42112  1  0  0  0
 43 44  1  0  0  0
 44113  1  0  0  0
 45 46  2  0  0  0
 45114  1  0  0  0
 46115  1  0  0  0
 47116  1  0  0  0
 47117  1  0  0  0
 48 56  1  0  0  0
 48 65  1  0  0  0
 48118  1  0  0  0
 49 50  1  0  0  0
 49 53  1  0  0  0
 49 64  1  0  0  0
 49119  1  0  0  0
 50 51  1  0  0  0
 50120  1  0  0  0
 50121  1  0  0  0
 51 52  1  0  0  0
 51122  1  0  0  0
 51123  1  0  0  0
 52124  1  0  0  0
 52125  1  0  0  0
 53 54  1  0  0  0
 54 55  2  0  0  0
 54126  1  0  0  0
 55 57  1  0  0  0
 55127  1  0  0  0
 56 69  2  0  0  0
 57 58  2  0  0  0
 57128  1  0  0  0
 58129  1  0  0  0
 59 60  1  0  0  0
 59 61  1  0  0  0
 59 62  1  0  0  0
 60130  1  0  0  0
 60131  1  0  0  0
 60132  1  0  0  0
 61133  1  0  0  0
 61134  1  0  0  0
 61135  1  0  0  0
 62136  1  0  0  0
 62137  1  0  0  0
 62138  1  0  0  0
 63 65  1  0  0  0
 63139  1  0  0  0
 63140  1  0  0  0
 63141  1  0  0  0
 64142  1  0  0  0
 65143  1  0  0  0
 68 79  1  0  0  0
 71 74  2  0  0  0
 71 75  1  0  0  0
 71144  1  0  0  0
 72 73  2  0  0  0
 72 80  1  0  0  0
 72145  1  0  0  0
 73 74  1  0  0  0
 73 81  1  0  0  0
 74 84  1  0  0  0
 75 80  2  0  0  0
 75 82  1  0  0  0
 76 77  1  0  0  0
 76 78  1  0  0  0
 76 83  2  0  0  0
 77 79  1  0  0  0
 77146  1  0  0  0
 77147  1  0  0  0
 78 82  1  0  0  0
 78148  1  0  0  0
 78149  1  0  0  0
 79150  1  0  0  0
 79151  1  0  0  0
 81152  1  0  0  0
 82153  1  0  0  0
M  ISO  4   1 100  68 101  79 101  81 100
M  END
> <chiral flag>
0

> <version>
0

> <s_m_source_file>
/data/baiqing/PycharmProjects/Reinvent-master-3.2/result/LINK_invent/BTK/process_docking_weight1_custom_product_contain_oxygen_bond_distance_aromatic_linkinvent_7_9_3/rearranged_h_0166.sdf

> <i_m_source_file_index>
51

> <r_mmod_Potential_Energy-OPLS-2005>
-432.076599121094

> <r_mmod_Stretch_Energy-OPLS-2005>
34.3091278076172

> <r_mmod_Bend_Energy-OPLS-2005>
107.456901550293

> <r_mmod_Torsional_Energy-OPLS-2005>
232.636566162109

> <r_mmod_Improper_Torsional_Energy-OPLS-2005>
6.28636074066162

> <r_mmod_Van_der_Waal_Energy-OPLS-2005>
162.606307983398

> <r_mmod_Electrostatic_Energy-OPLS-2005>
-756.158935546875

> <r_mmod_Solvation_Energy-OPLS-2005>
-232.471267700195

> <b_mmod_Minimization_Converged-OPLS-2005>
0

> <r_mmod_RMS_Derivative-OPLS-2005>
5.27598857879639

$$$$
52
                    3D
 Structure written by MMmdl.
170178  0  0  1  0            999 V2000
  -30.7644  -14.4226   20.6729 C   0  0  0  0  0  0
  -30.4267  -12.3189   19.4119 C   0  0  0  0  0  0
  -29.4950  -12.5355   18.2044 C   0  0  0  0  0  0
  -28.0209  -12.3782   18.6193 C   0  0  0  0  0  0
  -27.6680  -13.2089   19.8814 C   0  0  2  0  0  0
  -28.7083  -12.9802   20.9999 C   0  0  0  0  0  0
  -25.2601  -13.8148   20.5676 C   0  0  0  0  0  0
  -24.1845  -13.0437   20.9159 C   0  0  0  0  0  0
  -24.6398  -11.6904   20.8702 C   0  0  0  0  0  0
  -23.9052  -10.4298   21.0403 C   0  0  0  0  0  0
  -24.3602   -9.4215   21.9178 C   0  0  0  0  0  0
  -23.6271   -8.2255   22.0768 C   0  0  0  0  0  0
  -22.4252   -8.0291   21.3555 C   0  0  0  0  0  0
  -21.9890   -9.0267   20.4659 C   0  0  0  0  0  0
  -22.7226  -10.2141   20.3059 C   0  0  0  0  0  0
  -21.6860   -6.0734   22.5271 C   0  0  0  0  0  0
  -21.4028   -6.5631   23.8207 C   0  0  0  0  0  0
  -21.3650   -5.6780   24.9156 C   0  0  0  0  0  0
  -21.6048   -4.3046   24.7213 C   0  0  0  0  0  0
  -21.8812   -3.8139   23.4330 C   0  0  0  0  0  0
  -21.9198   -4.6959   22.3395 C   0  0  0  0  0  0
  -22.7862  -13.5261   21.1823 C   0  0  0  0  0  0
  -22.1661   -4.2140   21.0971 F   0  0  0  0  0  0
  -21.5625   -3.4533   25.7726 F   0  0  0  0  0  0
  -30.0498  -13.2819   20.4608 N   0  0  0  0  0  0
  -26.3053  -12.9328   20.3371 N   0  0  0  0  0  0
  -25.9328  -11.6485   20.5736 N   0  0  0  0  0  0
  -22.0486  -12.8272   22.0381 N   0  0  0  0  0  0
  -25.4309  -15.1869   20.4127 N   0  0  0  0  0  0
  -31.7940  -14.6826   20.0472 O   0  0  0  0  0  0
  -21.6638   -6.8871   21.4235 O   0  0  0  0  0  0
  -22.3550  -14.5570   20.6663 O   0  0  0  0  0  0
  -24.6159  -31.8679   23.2081 C   0  0  0  0  0  0
  -25.9062  -32.4817   23.8367 C   0  0  1  0  0  0
  -27.2394  -27.4411   20.0932 C   0  0  0  0  0  0
  -25.5915  -33.8601   24.2328 N   0  0  0  0  0  0
  -23.4037  -30.4892   21.5483 C   0  0  2  0  0  0
  -24.8530  -28.9562   20.1105 C   0  0  0  0  0  0
  -22.7404  -29.4658   22.4970 C   0  0  0  0  0  0
  -18.0273  -28.1376   22.8489 C   0  0  0  0  0  0
  -24.1490  -36.7311   23.2634 C   0  0  0  0  0  0
  -25.9312  -30.8363   21.3591 C   0  0  0  0  0  0
  -26.0125  -29.4708   20.7056 C   0  0  0  0  0  0
  -27.2110  -28.7199   20.6947 C   0  0  0  0  0  0
  -26.0687  -26.9402   19.4892 C   0  0  0  0  0  0
  -24.8752  -27.6892   19.4993 C   0  0  0  0  0  0
  -23.6128  -29.8204   20.1635 C   0  0  0  0  0  0
  -25.4108  -36.3103   24.0330 C   0  0  1  0  0  0
  -20.5860  -28.3663   23.1307 C   0  0  2  0  0  0
  -20.6764  -26.9393   22.5410 C   0  0  0  0  0  0
  -19.5744  -26.6383   21.5204 C   0  0  0  0  0  0
  -18.1928  -26.7920   22.1619 C   0  0  0  0  0  0
  -19.1527  -28.8824   23.2895 C   0  0  0  0  0  0
  -18.9451  -30.1435   23.8906 C   0  0  0  0  0  0
  -17.6457  -30.6576   24.0562 C   0  0  0  0  0  0
  -25.9035  -34.9469   23.5113 C   0  0  0  0  0  0
  -16.5348  -29.9081   23.6320 C   0  0  0  0  0  0
  -16.7264  -28.6493   23.0341 C   0  0  0  0  0  0
  -26.4490  -31.6585   25.0691 C   0  0  0  0  0  0
  -25.3770  -31.3699   26.1455 C   0  0  0  0  0  0
  -27.0291  -30.3008   24.6052 C   0  0  0  0  0  0
  -27.6047  -32.4304   25.7477 C   0  0  0  0  0  0
  -27.5579  -37.1810   24.8463 C   0  0  0  0  0  0
  -21.4130  -29.3034   22.3718 N   0  0  0  0  0  0
  -26.4298  -37.3780   23.9401 N   0  0  0  0  0  0
  -24.6686  -31.0783   22.0980 N   0  0  0  0  0  0
  -23.4175  -28.8192   23.3014 O   0  0  0  0  0  0
  -28.3796  -26.6693   20.1126 O   0  0  0  0  0  0
  -26.5584  -34.8926   22.4682 O   0  0  0  0  0  0
  -23.5349  -32.1424   23.7483 O   0  0  0  0  0  0
  -29.1417  -17.2156   23.9287 C   0  0  0  0  0  0
  -27.8108  -19.2108   23.5909 C   0  0  0  0  0  0
  -29.4673  -18.5377   21.9276 C   0  0  0  0  0  0
  -28.1201  -18.0802   24.3688 C   0  0  0  0  0  0
  -29.8519  -17.4093   22.7168 C   0  0  0  0  0  0
  -28.4887  -19.4612   22.3839 C   0  0  0  0  0  0
  -27.3840  -17.7597   25.6262 C   0  0  0  0  0  0
  -32.3133  -16.8496   22.0088 C   0  0  0  0  0  0
  -28.7970  -21.6355   21.1812 C   0  0  0  0  0  0
  -26.3788  -18.7790   26.1455 C   0  0  0  0  0  0
  -32.7242  -19.3208   22.4926 C   0  0  0  0  0  0
  -32.5775  -18.2339   21.4107 C   0  0  0  0  0  0
  -28.0500  -22.9860   21.1225 C   0  0  0  0  0  0
  -28.6883  -24.1792   20.3545 C   0  0  0  0  0  0
  -28.2839  -25.5343   20.9909 C   0  0  0  0  0  0
  -30.8805  -16.3386   22.3903 C   0  0  2  0  0  0
  -28.0627  -20.6279   21.6846 N   0  0  0  0  0  0
  -30.2789  -15.2184   21.6419 N   0  0  0  0  0  0
  -27.5533  -16.7146   26.2632 O   0  0  0  0  0  0
  -33.3019  -16.1370   22.2166 O   0  0  0  0  0  0
  -29.9576  -21.5155   20.7843 O   0  0  0  0  0  0
  -31.4706  -12.4189   19.1094 H   0  0  0  0  0  0
  -30.3309  -11.3001   19.7888 H   0  0  0  0  0  0
  -29.7372  -11.8319   17.4064 H   0  0  0  0  0  0
  -29.6580  -13.5316   17.7914 H   0  0  0  0  0  0
  -27.8478  -11.3195   18.8125 H   0  0  0  0  0  0
  -27.3602  -12.6473   17.7931 H   0  0  0  0  0  0
  -27.7155  -14.2612   19.5983 H   0  0  0  0  0  0
  -28.6813  -11.9421   21.3323 H   0  0  0  0  0  0
  -28.4456  -13.5661   21.8825 H   0  0  0  0  0  0
  -25.2752   -9.5670   22.4746 H   0  0  0  0  0  0
  -23.9979   -7.4645   22.7494 H   0  0  0  0  0  0
  -21.0815   -8.8776   19.8972 H   0  0  0  0  0  0
  -22.3684  -10.9665   19.6157 H   0  0  0  0  0  0
  -21.2027   -7.6139   23.9695 H   0  0  0  0  0  0
  -21.1482   -6.0517   25.9058 H   0  0  0  0  0  0
  -22.0603   -2.7602   23.2830 H   0  0  0  0  0  0
  -22.4103  -11.9939   22.4769 H   0  0  0  0  0  0
  -21.1115  -13.1336   22.2597 H   0  0  0  0  0  0
  -24.6637  -15.8399   20.5249 H   0  0  0  0  0  0
  -26.2930  -15.6317   20.1216 H   0  0  0  0  0  0
  -26.7134  -32.5531   23.1127 H   0  0  0  0  0  0
  -25.0089  -33.9747   25.0492 H   0  0  0  0  0  0
  -22.6936  -31.3057   21.4077 H   0  0  0  0  0  0
  -23.3727  -35.9666   23.3319 H   0  0  0  0  0  0
  -24.3586  -36.8907   22.2046 H   0  0  0  0  0  0
  -23.7269  -37.6532   23.6635 H   0  0  0  0  0  0
  -26.0399  -31.6044   20.5914 H   0  0  0  0  0  0
  -26.8190  -30.8924   21.9769 H   0  0  0  0  0  0
  -28.1062  -29.1081   21.1585 H   0  0  0  0  0  0
  -26.0785  -25.9647   19.0238 H   0  0  0  0  0  0
  -23.9854  -27.2863   19.0357 H   0  0  0  0  0  0
  -23.7162  -30.5944   19.4023 H   0  0  0  0  0  0
  -22.7375  -29.2380   19.8707 H   0  0  0  0  0  0
  -25.1287  -36.1949   25.0812 H   0  0  0  0  0  0
  -20.9961  -28.3244   24.1425 H   0  0  0  0  0  0
  -20.5651  -26.2273   23.3607 H   0  0  0  0  0  0
  -21.6640  -26.7433   22.1213 H   0  0  0  0  0  0
  -19.6913  -25.6299   21.1221 H   0  0  0  0  0  0
  -19.6681  -27.3202   20.6739 H   0  0  0  0  0  0
  -17.4195  -26.6665   21.4028 H   0  0  0  0  0  0
  -18.0325  -26.0060   22.9005 H   0  0  0  0  0  0
  -19.7929  -30.7239   24.2290 H   0  0  0  0  0  0
  -17.5012  -31.6257   24.5166 H   0  0  0  0  0  0
  -15.5350  -30.2985   23.7625 H   0  0  0  0  0  0
  -15.8669  -28.0815   22.7051 H   0  0  0  0  0  0
  -24.5944  -30.7032   25.7833 H   0  0  0  0  0  0
  -24.8957  -32.2851   26.4899 H   0  0  0  0  0  0
  -25.8147  -30.8897   27.0212 H   0  0  0  0  0  0
  -26.2817  -29.6796   24.1105 H   0  0  0  0  0  0
  -27.4056  -29.7214   25.4492 H   0  0  0  0  0  0
  -27.8652  -30.4302   23.9179 H   0  0  0  0  0  0
  -27.2638  -33.3583   26.2077 H   0  0  0  0  0  0
  -28.3856  -32.6906   25.0327 H   0  0  0  0  0  0
  -28.0706  -31.8416   26.5391 H   0  0  0  0  0  0
  -28.2600  -38.0102   24.7484 H   0  0  0  0  0  0
  -28.1063  -36.2624   24.6307 H   0  0  0  0  0  0
  -27.2284  -37.1492   25.8865 H   0  0  0  0  0  0
  -20.9305  -29.8767   21.6943 H   0  0  0  0  0  0
  -26.0177  -38.2848   24.1404 H   0  0  0  0  0  0
  -29.3735  -16.3559   24.5438 H   0  0  0  0  0  0
  -27.0383  -19.8960   23.9096 H   0  0  0  0  0  0
  -29.9006  -18.7071   20.9556 H   0  0  0  0  0  0
  -25.8840  -18.4004   27.0402 H   0  0  0  0  0  0
  -25.6164  -18.9811   25.3934 H   0  0  0  0  0  0
  -26.8853  -19.7115   26.3995 H   0  0  0  0  0  0
  -32.6151  -20.3165   22.0613 H   0  0  0  0  0  0
  -33.7057  -19.2684   22.9656 H   0  0  0  0  0  0
  -31.9748  -19.2186   23.2800 H   0  0  0  0  0  0
  -31.8226  -18.4862   20.6738 H   0  0  0  0  0  0
  -33.5060  -18.1864   20.8417 H   0  0  0  0  0  0
  -27.9259  -23.2758   22.1667 H   0  0  0  0  0  0
  -27.0410  -22.8245   20.7404 H   0  0  0  0  0  0
  -28.3549  -24.1415   19.3175 H   0  0  0  0  0  0
  -29.7752  -24.1062   20.3305 H   0  0  0  0  0  0
  -28.9203  -25.7251   21.8550 H   0  0  0  0  0  0
  -27.2774  -25.4415   21.4004 H   0  0  0  0  0  0
  -31.0893  -15.8304   23.3331 H   0  0  0  0  0  0
  -27.1173  -20.9135   21.8999 H   0  0  0  0  0  0
  -29.4084  -14.8956   22.0294 H   0  0  0  0  0  0
  1 25  1  0  0  0
  1 30  2  0  0  0
  1 88  1  0  0  0
  2  3  1  0  0  0
  2 25  1  0  0  0
  2 92  1  0  0  0
  2 93  1  0  0  0
  3  4  1  0  0  0
  3 94  1  0  0  0
  3 95  1  0  0  0
  4  5  1  0  0  0
  4 96  1  0  0  0
  4 97  1  0  0  0
  5  6  1  0  0  0
  5 26  1  0  0  0
  5 98  1  0  0  0
  6 25  1  0  0  0
  6 99  1  0  0  0
  6100  1  0  0  0
  7  8  2  0  0  0
  7 26  1  0  0  0
  7 29  1  0  0  0
  8  9  1  0  0  0
  8 22  1  0  0  0
  9 10  1  0  0  0
  9 27  2  0  0  0
 10 11  2  0  0  0
 10 15  1  0  0  0
 11 12  1  0  0  0
 11101  1  0  0  0
 12 13  2  0  0  0
 12102  1  0  0  0
 13 14  1  0  0  0
 13 31  1  0  0  0
 14 15  2  0  0  0
 14103  1  0  0  0
 15104  1  0  0  0
 16 17  2  0  0  0
 16 21  1  0  0  0
 16 31  1  0  0  0
 17 18  1  0  0  0
 17105  1  0  0  0
 18 19  2  0  0  0
 18106  1  0  0  0
 19 20  1  0  0  0
 19 24  1  0  0  0
 20 21  2  0  0  0
 20107  1  0  0  0
 21 23  1  0  0  0
 22 28  1  0  0  0
 22 32  2  0  0  0
 26 27  1  0  0  0
 28108  1  0  0  0
 28109  1  0  0  0
 29110  1  0  0  0
 29111  1  0  0  0
 33 34  1  0  0  0
 33 66  1  0  0  0
 33 70  2  0  0  0
 34 36  1  0  0  0
 34 59  1  0  0  0
 34112  1  0  0  0
 35 44  2  0  0  0
 35 45  1  0  0  0
 35 68  1  0  0  0
 36 56  1  0  0  0
 36113  1  0  0  0
 37 39  1  0  0  0
 37 47  1  0  0  0
 37 66  1  0  0  0
 37114  1  0  0  0
 38 43  2  0  0  0
 38 46  1  0  0  0
 38 47  1  0  0  0
 39 64  1  0  0  0
 39 67  2  0  0  0
 40 52  1  0  0  0
 40 53  2  0  0  0
 40 58  1  0  0  0
 41115  1  0  0  0
 41116  1  0  0  0
 41117  1  0  0  0
 41 48  1  0  0  0
 42 43  1  0  0  0
 42 66  1  0  0  0
 42118  1  0  0  0
 42119  1  0  0  0
 43 44  1  0  0  0
 44120  1  0  0  0
 45 46  2  0  0  0
 45121  1  0  0  0
 46122  1  0  0  0
 47123  1  0  0  0
 47124  1  0  0  0
 48 56  1  0  0  0
 48 65  1  0  0  0
 48125  1  0  0  0
 49 50  1  0  0  0
 49 53  1  0  0  0
 49 64  1  0  0  0
 49126  1  0  0  0
 50 51  1  0  0  0
 50127  1  0  0  0
 50128  1  0  0  0
 51 52  1  0  0  0
 51129  1  0  0  0
 51130  1  0  0  0
 52131  1  0  0  0
 52132  1  0  0  0
 53 54  1  0  0  0
 54 55  2  0  0  0
 54133  1  0  0  0
 55 57  1  0  0  0
 55134  1  0  0  0
 56 69  2  0  0  0
 57 58  2  0  0  0
 57135  1  0  0  0
 58136  1  0  0  0
 59 60  1  0  0  0
 59 61  1  0  0  0
 59 62  1  0  0  0
 60137  1  0  0  0
 60138  1  0  0  0
 60139  1  0  0  0
 61140  1  0  0  0
 61141  1  0  0  0
 61142  1  0  0  0
 62143  1  0  0  0
 62144  1  0  0  0
 62145  1  0  0  0
 63 65  1  0  0  0
 63146  1  0  0  0
 63147  1  0  0  0
 63148  1  0  0  0
 64149  1  0  0  0
 65150  1  0  0  0
 68 85  1  0  0  0
 71 74  2  0  0  0
 71 75  1  0  0  0
 71151  1  0  0  0
 72 74  1  0  0  0
 72 76  2  0  0  0
 72152  1  0  0  0
 73 75  2  0  0  0
 73 76  1  0  0  0
 73153  1  0  0  0
 74 77  1  0  0  0
 75 86  1  0  0  0
 76 87  1  0  0  0
 77 80  1  0  0  0
 77 89  2  0  0  0
 78 82  1  0  0  0
 78 86  1  0  0  0
 78 90  2  0  0  0
 79 83  1  0  0  0
 79 87  1  0  0  0
 79 91  2  0  0  0
 80154  1  0  0  0
 80155  1  0  0  0
 80156  1  0  0  0
 81 82  1  0  0  0
 81157  1  0  0  0
 81158  1  0  0  0
 81159  1  0  0  0
 82160  1  0  0  0
 82161  1  0  0  0
 83 84  1  0  0  0
 83162  1  0  0  0
 83163  1  0  0  0
 84 85  1  0  0  0
 84164  1  0  0  0
 84165  1  0  0  0
 85166  1  0  0  0
 85167  1  0  0  0
 86 88  1  0  0  0
 86168  1  0  0  0
 87169  1  0  0  0
 88170  1  0  0  0
M  ISO  4   1 100  68 101  85 101  88 100
M  END
> <chiral flag>
0

> <version>
0

> <s_m_source_file>
/data/baiqing/PycharmProjects/Reinvent-master-3.2/result/LINK_invent/BTK/process_docking_weight1_custom_product_contain_oxygen_bond_distance_aromatic_linkinvent_7_9_3/rearranged_h_0166.sdf

> <i_m_source_file_index>
52

> <r_mmod_Potential_Energy-OPLS-2005>
-122.664337158203

> <r_mmod_Stretch_Energy-OPLS-2005>
44.6121673583984

> <r_mmod_Bend_Energy-OPLS-2005>
167.894378662109

> <r_mmod_Torsional_Energy-OPLS-2005>
274.863159179688

> <r_mmod_Improper_Torsional_Energy-OPLS-2005>
3.91444516181946

> <r_mmod_Van_der_Waal_Energy-OPLS-2005>
158.419937133789

> <r_mmod_Electrostatic_Energy-OPLS-2005>
-521.206176757812

> <r_mmod_Solvation_Energy-OPLS-2005>
-261.149169921875

> <b_mmod_Minimization_Converged-OPLS-2005>
0

> <r_mmod_RMS_Derivative-OPLS-2005>
3.39581799507141

$$$$
53
                    3D
 Structure written by MMmdl.
156164  0  0  1  0            999 V2000
  -30.6967  -14.5108   20.5360 C   0  0  0  0  0  0
  -30.4144  -12.3232   19.4344 C   0  0  0  0  0  0
  -29.4976  -12.5100   18.2097 C   0  0  0  0  0  0
  -28.0177  -12.3708   18.6181 C   0  0  0  0  0  0
  -27.6565  -13.2176   19.8691 C   0  0  2  0  0  0
  -28.6974  -13.0338   20.9954 C   0  0  0  0  0  0
  -25.2548  -13.8173   20.5659 C   0  0  0  0  0  0
  -24.1817  -13.0435   20.9162 C   0  0  0  0  0  0
  -24.6390  -11.6911   20.8712 C   0  0  0  0  0  0
  -23.9066  -10.4292   21.0380 C   0  0  0  0  0  0
  -24.3612   -9.4211   21.9162 C   0  0  0  0  0  0
  -23.6283   -8.2254   22.0742 C   0  0  0  0  0  0
  -22.4257   -8.0289   21.3545 C   0  0  0  0  0  0
  -21.9895   -9.0262   20.4640 C   0  0  0  0  0  0
  -22.7236  -10.2131   20.3037 C   0  0  0  0  0  0
  -21.6860   -6.0728   22.5281 C   0  0  0  0  0  0
  -21.4029   -6.5625   23.8220 C   0  0  0  0  0  0
  -21.3651   -5.6769   24.9176 C   0  0  0  0  0  0
  -21.6034   -4.3041   24.7227 C   0  0  0  0  0  0
  -21.8820   -3.8138   23.4348 C   0  0  0  0  0  0
  -21.9198   -4.6954   22.3400 C   0  0  0  0  0  0
  -22.7846  -13.5241   21.1831 C   0  0  0  0  0  0
  -22.1669   -4.2143   21.0977 F   0  0  0  0  0  0
  -21.5609   -3.4522   25.7737 F   0  0  0  0  0  0
  -30.0226  -13.3316   20.4336 N   0  0  0  0  0  0
  -26.3001  -12.9364   20.3344 N   0  0  0  0  0  0
  -25.9323  -11.6513   20.5746 N   0  0  0  0  0  0
  -22.0464  -12.8265   22.0382 N   0  0  0  0  0  0
  -25.4223  -15.1878   20.4035 N   0  0  0  0  0  0
  -31.8453  -14.6479   20.1052 O   0  0  0  0  0  0
  -21.6632   -6.8879   21.4244 O   0  0  0  0  0  0
  -22.3561  -14.5564   20.6688 O   0  0  0  0  0  0
  -24.6185  -31.8666   23.2083 C   0  0  0  0  0  0
  -25.9067  -32.4814   23.8396 C   0  0  1  0  0  0
  -27.2263  -27.4038   20.1065 C   0  0  0  0  0  0
  -25.5923  -33.8606   24.2344 N   0  0  0  0  0  0
  -23.4091  -30.4882   21.5509 C   0  0  2  0  0  0
  -24.8560  -28.9536   20.1123 C   0  0  0  0  0  0
  -22.7449  -29.4636   22.4983 C   0  0  0  0  0  0
  -18.0290  -28.1366   22.8487 C   0  0  0  0  0  0
  -24.1488  -36.7298   23.2636 C   0  0  0  0  0  0
  -25.9416  -30.8219   21.3677 C   0  0  0  0  0  0
  -26.0192  -29.4556   20.7112 C   0  0  0  0  0  0
  -27.2119  -28.6898   20.7018 C   0  0  0  0  0  0
  -26.0497  -26.9286   19.4907 C   0  0  0  0  0  0
  -24.8677  -27.6914   19.4957 C   0  0  0  0  0  0
  -23.6193  -29.8236   20.1649 C   0  0  0  0  0  0
  -25.4103  -36.3098   24.0348 C   0  0  1  0  0  0
  -20.5883  -28.3658   23.1304 C   0  0  2  0  0  0
  -20.6775  -26.9386   22.5412 C   0  0  0  0  0  0
  -19.5752  -26.6370   21.5208 C   0  0  0  0  0  0
  -18.1929  -26.7921   22.1603 C   0  0  0  0  0  0
  -19.1536  -28.8832   23.2894 C   0  0  0  0  0  0
  -18.9459  -30.1433   23.8911 C   0  0  0  0  0  0
  -17.6458  -30.6567   24.0558 C   0  0  0  0  0  0
  -25.9035  -34.9468   23.5142 C   0  0  0  0  0  0
  -16.5351  -29.9066   23.6312 C   0  0  0  0  0  0
  -16.7279  -28.6477   23.0349 C   0  0  0  0  0  0
  -26.4470  -31.6583   25.0727 C   0  0  0  0  0  0
  -25.3729  -31.3731   26.1490 C   0  0  0  0  0  0
  -27.0261  -30.3009   24.6105 C   0  0  0  0  0  0
  -27.6097  -32.4259   25.7450 C   0  0  0  0  0  0
  -27.5586  -37.1795   24.8457 C   0  0  0  0  0  0
  -21.4173  -29.3015   22.3718 N   0  0  0  0  0  0
  -26.4289  -37.3785   23.9413 N   0  0  0  0  0  0
  -24.6748  -31.0738   22.0999 N   0  0  0  0  0  0
  -23.4208  -28.8175   23.3036 O   0  0  0  0  0  0
  -28.3485  -26.5988   20.1320 O   0  0  0  0  0  0
  -26.5585  -34.8920   22.4693 O   0  0  0  0  0  0
  -23.5370  -32.1436   23.7452 O   0  0  0  0  0  0
  -28.0839  -19.7955   21.5214 C   0  0  0  0  0  0
  -28.3764  -18.4101   21.7496 C   0  0  0  0  0  0
  -29.5598  -18.1366   21.0832 C   0  0  0  0  0  0
  -29.0972  -20.2740   20.7482 C   0  0  0  0  0  0
  -27.6032  -17.4283   22.5528 C   0  0  0  0  0  0
  -28.7887  -24.1088   20.1729 C   0  0  0  0  0  0
  -26.5062  -17.9712   23.4629 C   0  0  0  0  0  0
  -30.5292  -16.9677   20.9409 C   0  0  0  0  0  0
  -28.4876  -22.7200   20.8058 C   0  0  0  0  0  0
  -28.1436  -25.3488   20.8458 C   0  0  0  0  0  0
  -29.2717  -21.5855   20.2714 N   0  0  0  0  0  0
  -29.9999  -15.5872   20.9596 N   0  0  0  0  0  0
  -27.8148  -16.2153   22.5236 O   0  0  0  0  0  0
  -29.5211  -24.2088   19.1810 O   0  0  0  0  0  0
  -29.9939  -19.2909   20.4588 O   0  0  0  0  0  0
  -31.4621  -12.4043   19.1400 H   0  0  0  0  0  0
  -30.3008  -11.3207   19.8483 H   0  0  0  0  0  0
  -29.7423  -11.7808   17.4361 H   0  0  0  0  0  0
  -29.6705  -13.4933   17.7673 H   0  0  0  0  0  0
  -27.8301  -11.3158   18.8186 H   0  0  0  0  0  0
  -27.3726  -12.6414   17.7815 H   0  0  0  0  0  0
  -27.6898  -14.2614   19.5560 H   0  0  0  0  0  0
  -28.6797  -12.0098   21.3708 H   0  0  0  0  0  0
  -28.4623  -13.6673   21.8508 H   0  0  0  0  0  0
  -25.2746   -9.5691   22.4748 H   0  0  0  0  0  0
  -23.9990   -7.4639   22.7457 H   0  0  0  0  0  0
  -21.0823   -8.8789   19.8940 H   0  0  0  0  0  0
  -22.3694  -10.9671   19.6151 H   0  0  0  0  0  0
  -21.2038   -7.6131   23.9742 H   0  0  0  0  0  0
  -21.1450   -6.0482   25.9079 H   0  0  0  0  0  0
  -22.0597   -2.7603   23.2854 H   0  0  0  0  0  0
  -22.4043  -11.9933   22.4799 H   0  0  0  0  0  0
  -21.1079  -13.1339   22.2530 H   0  0  0  0  0  0
  -24.6592  -15.8442   20.5181 H   0  0  0  0  0  0
  -26.2916  -15.6302   20.1347 H   0  0  0  0  0  0
  -26.7148  -32.5511   23.1163 H   0  0  0  0  0  0
  -25.0090  -33.9769   25.0505 H   0  0  0  0  0  0
  -22.6981  -31.3051   21.4115 H   0  0  0  0  0  0
  -23.3774  -35.9603   23.3264 H   0  0  0  0  0  0
  -24.3616  -36.8941   22.2060 H   0  0  0  0  0  0
  -23.7206  -37.6478   23.6671 H   0  0  0  0  0  0
  -26.0638  -31.5874   20.6006 H   0  0  0  0  0  0
  -26.8266  -30.8737   21.9899 H   0  0  0  0  0  0
  -28.1075  -29.0649   21.1771 H   0  0  0  0  0  0
  -26.0428  -25.9580   19.0144 H   0  0  0  0  0  0
  -23.9758  -27.3006   19.0251 H   0  0  0  0  0  0
  -23.7315  -30.6006   19.4081 H   0  0  0  0  0  0
  -22.7416  -29.2477   19.8657 H   0  0  0  0  0  0
  -25.1272  -36.1968   25.0843 H   0  0  0  0  0  0
  -20.9971  -28.3225   24.1425 H   0  0  0  0  0  0
  -20.5653  -26.2263   23.3602 H   0  0  0  0  0  0
  -21.6651  -26.7411   22.1220 H   0  0  0  0  0  0
  -19.6908  -25.6288   21.1217 H   0  0  0  0  0  0
  -19.6683  -27.3188   20.6745 H   0  0  0  0  0  0
  -17.4201  -26.6698   21.3998 H   0  0  0  0  0  0
  -18.0304  -26.0047   22.8975 H   0  0  0  0  0  0
  -19.7937  -30.7246   24.2290 H   0  0  0  0  0  0
  -17.5010  -31.6255   24.5145 H   0  0  0  0  0  0
  -15.5352  -30.2963   23.7617 H   0  0  0  0  0  0
  -15.8687  -28.0779   22.7071 H   0  0  0  0  0  0
  -24.5870  -30.7109   25.7840 H   0  0  0  0  0  0
  -24.8953  -32.2903   26.4945 H   0  0  0  0  0  0
  -25.8066  -30.8884   27.0244 H   0  0  0  0  0  0
  -26.2781  -29.6792   24.1170 H   0  0  0  0  0  0
  -27.4032  -29.7230   25.4552 H   0  0  0  0  0  0
  -27.8630  -30.4314   23.9242 H   0  0  0  0  0  0
  -27.2809  -33.3601   26.2009 H   0  0  0  0  0  0
  -28.3895  -32.6728   25.0234 H   0  0  0  0  0  0
  -28.0759  -31.8367   26.5354 H   0  0  0  0  0  0
  -28.2601  -38.0094   24.7529 H   0  0  0  0  0  0
  -28.1085  -36.2639   24.6240 H   0  0  0  0  0  0
  -27.2331  -37.1404   25.8866 H   0  0  0  0  0  0
  -20.9342  -29.8749   21.6944 H   0  0  0  0  0  0
  -26.0187  -38.2862   24.1424 H   0  0  0  0  0  0
  -27.2402  -20.3640   21.8862 H   0  0  0  0  0  0
  -26.1626  -18.9587   23.1595 H   0  0  0  0  0  0
  -26.8758  -18.0369   24.4863 H   0  0  0  0  0  0
  -25.6492  -17.2978   23.4496 H   0  0  0  0  0  0
  -31.2775  -17.0412   21.7318 H   0  0  0  0  0  0
  -31.0812  -17.1062   20.0087 H   0  0  0  0  0  0
  -27.4251  -22.5146   20.6696 H   0  0  0  0  0  0
  -28.6582  -22.7984   21.8801 H   0  0  0  0  0  0
  -28.5742  -25.4528   21.8415 H   0  0  0  0  0  0
  -27.0851  -25.1344   20.9963 H   0  0  0  0  0  0
  -30.0634  -21.8488   19.6898 H   0  0  0  0  0  0
  -29.0610  -15.4569   21.3194 H   0  0  0  0  0  0
  1 25  1  0  0  0
  1 30  2  0  0  0
  1 82  1  0  0  0
  2  3  1  0  0  0
  2 25  1  0  0  0
  2 86  1  0  0  0
  2 87  1  0  0  0
  3  4  1  0  0  0
  3 88  1  0  0  0
  3 89  1  0  0  0
  4  5  1  0  0  0
  4 90  1  0  0  0
  4 91  1  0  0  0
  5  6  1  0  0  0
  5 26  1  0  0  0
  5 92  1  0  0  0
  6 25  1  0  0  0
  6 93  1  0  0  0
  6 94  1  0  0  0
  7  8  2  0  0  0
  7 26  1  0  0  0
  7 29  1  0  0  0
  8  9  1  0  0  0
  8 22  1  0  0  0
  9 10  1  0  0  0
  9 27  2  0  0  0
 10 11  2  0  0  0
 10 15  1  0  0  0
 11 12  1  0  0  0
 11 95  1  0  0  0
 12 13  2  0  0  0
 12 96  1  0  0  0
 13 14  1  0  0  0
 13 31  1  0  0  0
 14 15  2  0  0  0
 14 97  1  0  0  0
 15 98  1  0  0  0
 16 17  2  0  0  0
 16 21  1  0  0  0
 16 31  1  0  0  0
 17 18  1  0  0  0
 17 99  1  0  0  0
 18 19  2  0  0  0
 18100  1  0  0  0
 19 20  1  0  0  0
 19 24  1  0  0  0
 20 21  2  0  0  0
 20101  1  0  0  0
 21 23  1  0  0  0
 22 28  1  0  0  0
 22 32  2  0  0  0
 26 27  1  0  0  0
 28102  1  0  0  0
 28103  1  0  0  0
 29104  1  0  0  0
 29105  1  0  0  0
 33 34  1  0  0  0
 33 66  1  0  0  0
 33 70  2  0  0  0
 34 36  1  0  0  0
 34 59  1  0  0  0
 34106  1  0  0  0
 35 44  2  0  0  0
 35 45  1  0  0  0
 35 68  1  0  0  0
 36 56  1  0  0  0
 36107  1  0  0  0
 37 39  1  0  0  0
 37 47  1  0  0  0
 37 66  1  0  0  0
 37108  1  0  0  0
 38 43  2  0  0  0
 38 46  1  0  0  0
 38 47  1  0  0  0
 39 64  1  0  0  0
 39 67  2  0  0  0
 40 52  1  0  0  0
 40 53  2  0  0  0
 40 58  1  0  0  0
 41109  1  0  0  0
 41110  1  0  0  0
 41111  1  0  0  0
 41 48  1  0  0  0
 42 43  1  0  0  0
 42 66  1  0  0  0
 42112  1  0  0  0
 42113  1  0  0  0
 43 44  1  0  0  0
 44114  1  0  0  0
 45 46  2  0  0  0
 45115  1  0  0  0
 46116  1  0  0  0
 47117  1  0  0  0
 47118  1  0  0  0
 48 56  1  0  0  0
 48 65  1  0  0  0
 48119  1  0  0  0
 49 50  1  0  0  0
 49 53  1  0  0  0
 49 64  1  0  0  0
 49120  1  0  0  0
 50 51  1  0  0  0
 50121  1  0  0  0
 50122  1  0  0  0
 51 52  1  0  0  0
 51123  1  0  0  0
 51124  1  0  0  0
 52125  1  0  0  0
 52126  1  0  0  0
 53 54  1  0  0  0
 54 55  2  0  0  0
 54127  1  0  0  0
 55 57  1  0  0  0
 55128  1  0  0  0
 56 69  2  0  0  0
 57 58  2  0  0  0
 57129  1  0  0  0
 58130  1  0  0  0
 59 60  1  0  0  0
 59 61  1  0  0  0
 59 62  1  0  0  0
 60131  1  0  0  0
 60132  1  0  0  0
 60133  1  0  0  0
 61134  1  0  0  0
 61135  1  0  0  0
 61136  1  0  0  0
 62137  1  0  0  0
 62138  1  0  0  0
 62139  1  0  0  0
 63 65  1  0  0  0
 63140  1  0  0  0
 63141  1  0  0  0
 63142  1  0  0  0
 64143  1  0  0  0
 65144  1  0  0  0
 68 80  1  0  0  0
 71 72  1  0  0  0
 71 74  2  0  0  0
 71145  1  0  0  0
 72 73  2  0  0  0
 72 75  1  0  0  0
 73 78  1  0  0  0
 73 85  1  0  0  0
 74 81  1  0  0  0
 74 85  1  0  0  0
 75 77  1  0  0  0
 75 83  2  0  0  0
 76 79  1  0  0  0
 76 80  1  0  0  0
 76 84  2  0  0  0
 77146  1  0  0  0
 77147  1  0  0  0
 77148  1  0  0  0
 78 82  1  0  0  0
 78149  1  0  0  0
 78150  1  0  0  0
 79 81  1  0  0  0
 79151  1  0  0  0
 79152  1  0  0  0
 80153  1  0  0  0
 80154  1  0  0  0
 81155  1  0  0  0
 82156  1  0  0  0
M  ISO  4   1 100  68 101  80 101  82 100
M  END
> <chiral flag>
0

> <version>
0

> <s_m_source_file>
/data/baiqing/PycharmProjects/Reinvent-master-3.2/result/LINK_invent/BTK/process_docking_weight1_custom_product_contain_oxygen_bond_distance_aromatic_linkinvent_7_9_3/rearranged_h_0166.sdf

> <i_m_source_file_index>
53

> <r_mmod_Potential_Energy-OPLS-2005>
-184.975936889648

> <r_mmod_Stretch_Energy-OPLS-2005>
43.5593872070312

> <r_mmod_Bend_Energy-OPLS-2005>
112.899894714355

> <r_mmod_Torsional_Energy-OPLS-2005>
238.340484619141

> <r_mmod_Improper_Torsional_Energy-OPLS-2005>
4.47932767868042

> <r_mmod_Van_der_Waal_Energy-OPLS-2005>
126.343719482422

> <r_mmod_Electrostatic_Energy-OPLS-2005>
-488.866760253906

> <r_mmod_Solvation_Energy-OPLS-2005>
-242.322463989258

> <b_mmod_Minimization_Converged-OPLS-2005>
0

> <r_mmod_RMS_Derivative-OPLS-2005>
2.07239532470703

$$$$
54
                    3D
 Structure written by MMmdl.
152160  0  0  1  0            999 V2000
  -30.5645  -14.4537   20.2078 C   0  0  0  0  0  0
  -30.4807  -12.1743   19.4358 C   0  0  0  0  0  0
  -29.4528  -12.2331   18.2917 C   0  0  0  0  0  0
  -27.9822  -12.3343   18.8035 C   0  0  0  0  0  0
  -27.7270  -13.0162   20.2313 C   0  0  2  0  0  0
  -28.8874  -12.7532   21.1813 C   0  0  0  0  0  0
  -25.4585  -14.6835   20.5041 C   0  0  0  0  0  0
  -24.3675  -13.6424   20.9631 C   0  0  0  0  0  0
  -24.6621  -12.1596   20.9408 C   0  0  0  0  0  0
  -23.9316  -10.7522   21.0702 C   0  0  0  0  0  0
  -24.3873   -9.6743   21.9098 C   0  0  0  0  0  0
  -23.6979   -8.4235   22.0597 C   0  0  0  0  0  0
  -22.4980   -8.1600   21.3547 C   0  0  0  0  0  0
  -22.0647   -9.1720   20.4704 C   0  0  0  0  0  0
  -22.7577  -10.4124   20.3323 C   0  0  0  0  0  0
  -21.7442   -6.1338   22.5141 C   0  0  0  0  0  0
  -21.4449   -6.6029   23.8132 C   0  0  0  0  0  0
  -21.3791   -5.7059   24.9019 C   0  0  0  0  0  0
  -21.6024   -4.3302   24.7028 C   0  0  0  0  0  0
  -21.8755   -3.8499   23.4107 C   0  0  0  0  0  0
  -21.9369   -4.7435   22.3231 C   0  0  0  0  0  0
  -22.8575  -13.7733   21.2467 C   0  0  0  0  0  0
  -22.1740   -4.2532   21.0826 F   0  0  0  0  0  0
  -21.5517   -3.4711   25.7497 F   0  0  0  0  0  0
  -30.1007  -13.1834   20.4177 N   0  0  0  0  0  0
  -26.3453  -13.3761   20.5832 N   0  0  0  0  0  0
  -25.9102  -12.0983   20.7944 N   0  0  0  0  0  0
  -22.2829  -12.9846   22.1599 N   0  0  0  0  0  0
  -25.6089  -16.7740   18.9037 N   0  0  0  0  0  0
  -31.7684  -14.6969   20.0880 O   0  0  0  0  0  0
  -21.7637   -6.9772   21.4158 O   0  0  0  0  0  0
  -22.1092  -14.5229   20.6485 O   0  0  0  0  0  0
  -24.6857  -31.7987   23.1617 C   0  0  0  0  0  0
  -25.9474  -32.4415   23.8089 C   0  0  1  0  0  0
  -26.7760  -26.4761   20.3540 C   0  0  0  0  0  0
  -25.6070  -33.8265   24.1945 N   0  0  0  0  0  0
  -23.4938  -30.4316   21.5176 C   0  0  2  0  0  0
  -24.8855  -28.7795   20.0871 C   0  0  0  0  0  0
  -22.7707  -29.4355   22.4653 C   0  0  0  0  0  0
  -18.0331  -28.1416   22.8455 C   0  0  0  0  0  0
  -24.1503  -36.7129   23.2644 C   0  0  0  0  0  0
  -26.0736  -30.4519   21.4619 C   0  0  0  0  0  0
  -26.0560  -29.0084   20.8165 C   0  0  0  0  0  0
  -27.0163  -27.8673   20.9317 C   0  0  0  0  0  0
  -25.7246  -26.5511   19.4343 C   0  0  0  0  0  0
  -24.7851  -27.5995   19.3458 C   0  0  0  0  0  0
  -23.7348  -29.7850   20.1265 C   0  0  0  0  0  0
  -25.4157  -36.2868   24.0268 C   0  0  1  0  0  0
  -20.5963  -28.3776   23.1128 C   0  0  2  0  0  0
  -20.6800  -26.9437   22.5390 C   0  0  0  0  0  0
  -19.5771  -26.6365   21.5211 C   0  0  0  0  0  0
  -18.1955  -26.7945   22.1617 C   0  0  0  0  0  0
  -19.1597  -28.8918   23.2781 C   0  0  0  0  0  0
  -18.9505  -30.1503   23.8826 C   0  0  0  0  0  0
  -17.6496  -30.6600   24.0553 C   0  0  0  0  0  0
  -25.9156  -34.9260   23.4935 C   0  0  0  0  0  0
  -16.5385  -29.9083   23.6350 C   0  0  0  0  0  0
  -16.7312  -28.6506   23.0366 C   0  0  0  0  0  0
  -26.4619  -31.6505   25.0759 C   0  0  0  0  0  0
  -25.3653  -31.3874   26.1355 C   0  0  0  0  0  0
  -27.0563  -30.2815   24.6795 C   0  0  0  0  0  0
  -27.6056  -32.4398   25.7556 C   0  0  0  0  0  0
  -27.5572  -37.1720   24.8456 C   0  0  0  0  0  0
  -21.4362  -29.3038   22.3431 N   0  0  0  0  0  0
  -26.4267  -37.3647   23.9414 N   0  0  0  0  0  0
  -24.7790  -30.9356   22.0942 N   0  0  0  0  0  0
  -23.4186  -28.7899   23.2933 O   0  0  0  0  0  0
  -27.2756  -25.0061   20.5459 O   0  0  0  0  0  0
  -26.5781  -34.8841   22.4544 O   0  0  0  0  0  0
  -23.5896  -32.1176   23.6545 O   0  0  0  0  0  0
  -25.7480  -14.6467   18.2257 C   0  0  0  0  0  0
  -23.9985  -15.2348   18.8340 C   0  0  0  0  0  0
  -27.0639  -16.4683   20.6292 C   0  0  0  0  0  0
  -27.3006  -15.3530   19.1576 C   0  0  0  0  0  0
  -25.4965  -17.2589   21.1031 C   0  0  0  0  0  0
  -23.9346  -16.4822   20.3544 C   0  0  0  0  0  0
  -26.3554  -23.6371   20.7352 C   0  0  0  0  0  0
  -28.7787  -15.3374   18.7420 C   0  0  0  0  0  0
  -26.0057  -22.0788   20.8744 C   0  0  0  0  0  0
  -26.4282  -20.3731   20.9111 C   0  0  0  0  0  0
  -25.5650  -19.0457   21.1466 N   0  0  0  0  0  0
  -29.6360  -15.3780   19.8163 N   0  0  0  0  0  0
  -29.1151  -15.3012   17.5574 O   0  0  0  0  0  0
  -27.6208  -20.1267   20.7272 O   0  0  0  0  0  0
  -24.6764  -22.0316   21.0485 O   0  0  0  0  0  0
  -22.7565  -17.0932   20.6356 F   0  0  0  0  0  0
  -31.4928  -12.3229   19.0529 H   0  0  0  0  0  0
  -30.4835  -11.1850   19.8955 H   0  0  0  0  0  0
  -29.5506  -11.3283   17.6896 H   0  0  0  0  0  0
  -29.7100  -13.0197   17.5920 H   0  0  0  0  0  0
  -27.6264  -11.3079   18.8987 H   0  0  0  0  0  0
  -27.3712  -12.7407   18.0091 H   0  0  0  0  0  0
  -28.0177  -13.9469   20.6035 H   0  0  0  0  0  0
  -28.9313  -11.6884   21.4142 H   0  0  0  0  0  0
  -28.8342  -13.2499   22.1594 H   0  0  0  0  0  0
  -25.2918   -9.8291   22.4808 H   0  0  0  0  0  0
  -24.1049   -7.6754   22.7250 H   0  0  0  0  0  0
  -21.1720   -9.0061   19.8838 H   0  0  0  0  0  0
  -22.3565  -11.1465   19.6478 H   0  0  0  0  0  0
  -21.2647   -7.6554   23.9769 H   0  0  0  0  0  0
  -21.1590   -6.0750   25.8931 H   0  0  0  0  0  0
  -22.0335   -2.7944   23.2504 H   0  0  0  0  0  0
  -22.8197  -12.3252   22.7041 H   0  0  0  0  0  0
  -21.2898  -13.0617   22.3277 H   0  0  0  0  0  0
  -24.7358  -17.0053   18.4464 H   0  0  0  0  0  0
  -26.3329  -16.6502   18.2094 H   0  0  0  0  0  0
  -26.7516  -32.4769   23.0740 H   0  0  0  0  0  0
  -25.0145  -33.9312   25.0049 H   0  0  0  0  0  0
  -22.8228  -31.2791   21.3619 H   0  0  0  0  0  0
  -23.3798  -35.9423   23.3223 H   0  0  0  0  0  0
  -24.3576  -36.8882   22.2076 H   0  0  0  0  0  0
  -23.7226  -37.6265   23.6782 H   0  0  0  0  0  0
  -26.3230  -31.1579   20.6686 H   0  0  0  0  0  0
  -26.9203  -30.4885   22.1333 H   0  0  0  0  0  0
  -27.8582  -27.9926   21.5979 H   0  0  0  0  0  0
  -25.4942  -25.6575   18.8717 H   0  0  0  0  0  0
  -23.9205  -27.4506   18.7132 H   0  0  0  0  0  0
  -23.9576  -30.5683   19.4011 H   0  0  0  0  0  0
  -22.8191  -29.3093   19.7710 H   0  0  0  0  0  0
  -25.1363  -36.1616   25.0755 H   0  0  0  0  0  0
  -21.0062  -28.3410   24.1248 H   0  0  0  0  0  0
  -20.5674  -26.2402   23.3653 H   0  0  0  0  0  0
  -21.6660  -26.7387   22.1201 H   0  0  0  0  0  0
  -19.6925  -25.6255   21.1291 H   0  0  0  0  0  0
  -19.6710  -27.3133   20.6707 H   0  0  0  0  0  0
  -17.4224  -26.6693   21.4021 H   0  0  0  0  0  0
  -18.0341  -26.0105   22.9029 H   0  0  0  0  0  0
  -19.7982  -30.7338   24.2161 H   0  0  0  0  0  0
  -17.5047  -31.6270   24.5171 H   0  0  0  0  0  0
  -15.5383  -30.2962   23.7716 H   0  0  0  0  0  0
  -15.8713  -28.0801   22.7120 H   0  0  0  0  0  0
  -24.5880  -30.7168   25.7672 H   0  0  0  0  0  0
  -24.8794  -32.3110   26.4509 H   0  0  0  0  0  0
  -25.7802  -30.9228   27.0309 H   0  0  0  0  0  0
  -26.3279  -29.6359   24.1879 H   0  0  0  0  0  0
  -27.3983  -29.7358   25.5601 H   0  0  0  0  0  0
  -27.9289  -30.3885   24.0349 H   0  0  0  0  0  0
  -27.2590  -33.3786   26.1891 H   0  0  0  0  0  0
  -28.3976  -32.6824   25.0458 H   0  0  0  0  0  0
  -28.0607  -31.8705   26.5671 H   0  0  0  0  0  0
  -28.2512  -38.0089   24.7562 H   0  0  0  0  0  0
  -28.1146  -36.2614   24.6210 H   0  0  0  0  0  0
  -27.2295  -37.1261   25.8856 H   0  0  0  0  0  0
  -20.9628  -29.8754   21.6576 H   0  0  0  0  0  0
  -26.0080  -38.2680   24.1462 H   0  0  0  0  0  0
  -25.8397  -14.0509   17.3296 H   0  0  0  0  0  0
  -23.0989  -14.9321   18.3183 H   0  0  0  0  0  0
  -27.9475  -16.9802   20.9794 H   0  0  0  0  0  0
  -25.4021  -24.1379   20.8357 H   0  0  0  0  0  0
  -24.6194  -19.3539   21.3141 H   0  0  0  0  0  0
  -29.0900  -15.6229   20.6253 H   0  0  0  0  0  0
  -24.4284  -21.1180   21.0813 H   0  0  0  0  0  0
  1 25  1  0  0  0
  1 30  2  0  0  0
  1 82  1  0  0  0
  2  3  1  0  0  0
  2 25  1  0  0  0
  2 87  1  0  0  0
  2 88  1  0  0  0
  3  4  1  0  0  0
  3 89  1  0  0  0
  3 90  1  0  0  0
  4  5  1  0  0  0
  4 91  1  0  0  0
  4 92  1  0  0  0
  5  6  1  0  0  0
  5 26  1  0  0  0
  5 93  1  0  0  0
  6 25  1  0  0  0
  6 94  1  0  0  0
  6 95  1  0  0  0
  7  8  2  0  0  0
  7 26  1  0  0  0
  7 29  1  0  0  0
  8  9  1  0  0  0
  8 22  1  0  0  0
  9 10  1  0  0  0
  9 27  2  0  0  0
 10 11  2  0  0  0
 10 15  1  0  0  0
 11 12  1  0  0  0
 11 96  1  0  0  0
 12 13  2  0  0  0
 12 97  1  0  0  0
 13 14  1  0  0  0
 13 31  1  0  0  0
 14 15  2  0  0  0
 14 98  1  0  0  0
 15 99  1  0  0  0
 16 17  2  0  0  0
 16 21  1  0  0  0
 16 31  1  0  0  0
 17 18  1  0  0  0
 17100  1  0  0  0
 18 19  2  0  0  0
 18101  1  0  0  0
 19 20  1  0  0  0
 19 24  1  0  0  0
 20 21  2  0  0  0
 20102  1  0  0  0
 21 23  1  0  0  0
 22 28  1  0  0  0
 22 32  2  0  0  0
 26 27  1  0  0  0
 28103  1  0  0  0
 28104  1  0  0  0
 29105  1  0  0  0
 29106  1  0  0  0
 33 34  1  0  0  0
 33 66  1  0  0  0
 33 70  2  0  0  0
 34 36  1  0  0  0
 34 59  1  0  0  0
 34107  1  0  0  0
 35 44  2  0  0  0
 35 45  1  0  0  0
 35 68  1  0  0  0
 36 56  1  0  0  0
 36108  1  0  0  0
 37 39  1  0  0  0
 37 47  1  0  0  0
 37 66  1  0  0  0
 37109  1  0  0  0
 38 43  2  0  0  0
 38 46  1  0  0  0
 38 47  1  0  0  0
 39 64  1  0  0  0
 39 67  2  0  0  0
 40 52  1  0  0  0
 40 53  2  0  0  0
 40 58  1  0  0  0
 41110  1  0  0  0
 41111  1  0  0  0
 41112  1  0  0  0
 41 48  1  0  0  0
 42 43  1  0  0  0
 42 66  1  0  0  0
 42113  1  0  0  0
 42114  1  0  0  0
 43 44  1  0  0  0
 44115  1  0  0  0
 45 46  2  0  0  0
 45116  1  0  0  0
 46117  1  0  0  0
 47118  1  0  0  0
 47119  1  0  0  0
 48 56  1  0  0  0
 48 65  1  0  0  0
 48120  1  0  0  0
 49 50  1  0  0  0
 49 53  1  0  0  0
 49 64  1  0  0  0
 49121  1  0  0  0
 50 51  1  0  0  0
 50122  1  0  0  0
 50123  1  0  0  0
 51 52  1  0  0  0
 51124  1  0  0  0
 51125  1  0  0  0
 52126  1  0  0  0
 52127  1  0  0  0
 53 54  1  0  0  0
 54 55  2  0  0  0
 54128  1  0  0  0
 55 57  1  0  0  0
 55129  1  0  0  0
 56 69  2  0  0  0
 57 58  2  0  0  0
 57130  1  0  0  0
 58131  1  0  0  0
 59 60  1  0  0  0
 59 61  1  0  0  0
 59 62  1  0  0  0
 60132  1  0  0  0
 60133  1  0  0  0
 60134  1  0  0  0
 61135  1  0  0  0
 61136  1  0  0  0
 61137  1  0  0  0
 62138  1  0  0  0
 62139  1  0  0  0
 62140  1  0  0  0
 63 65  1  0  0  0
 63141  1  0  0  0
 63142  1  0  0  0
 63143  1  0  0  0
 64144  1  0  0  0
 65145  1  0  0  0
 68 77  1  0  0  0
 71 72  2  0  0  0
 71 74  1  0  0  0
 71146  1  0  0  0
 72 76  1  0  0  0
 72147  1  0  0  0
 73 74  2  0  0  0
 73 75  1  0  0  0
 73148  1  0  0  0
 74 78  1  0  0  0
 75 76  2  0  0  0
 75 81  1  0  0  0
 76 86  1  0  0  0
 77 79  2  0  0  0
 77149  1  0  0  0
 78 82  1  0  0  0
 78 83  2  0  0  0
 79 80  1  0  0  0
 79 85  1  0  0  0
 80 81  1  0  0  0
 80 84  2  0  0  0
 81150  1  0  0  0
 82151  1  0  0  0
 85152  1  0  0  0
M  ISO  4   1 100  68 101  77 101  82 100
M  END
> <chiral flag>
0

> <version>
0

> <s_m_source_file>
/data/baiqing/PycharmProjects/Reinvent-master-3.2/result/LINK_invent/BTK/process_docking_weight1_custom_product_contain_oxygen_bond_distance_aromatic_linkinvent_7_9_3/rearranged_h_0166.sdf

> <i_m_source_file_index>
54

> <r_mmod_Potential_Energy-OPLS-2005>
12398.9931640625

> <r_mmod_Stretch_Energy-OPLS-2005>
7046.04052734375

> <r_mmod_Bend_Energy-OPLS-2005>
1105.63488769531

> <r_mmod_Torsional_Energy-OPLS-2005>
536.236267089844

> <r_mmod_Improper_Torsional_Energy-OPLS-2005>
63.6320419311523

> <r_mmod_Van_der_Waal_Energy-OPLS-2005>
2825.40283203125

> <r_mmod_Electrostatic_Energy-OPLS-2005>
-513.910705566406

> <r_mmod_Solvation_Energy-OPLS-2005>
-250.818084716797

> <b_mmod_Minimization_Converged-OPLS-2005>
0

> <r_mmod_RMS_Derivative-OPLS-2005>
0.766389906406403

$$$$
55
                    3D
 Structure written by MMmdl.
156164  0  0  1  0            999 V2000
  -30.7086  -14.4975   20.4986 C   0  0  0  0  0  0
  -30.4089  -12.2999   19.4409 C   0  0  0  0  0  0
  -29.4932  -12.4826   18.2140 C   0  0  0  0  0  0
  -28.0155  -12.3463   18.6270 C   0  0  0  0  0  0
  -27.6537  -13.2133   19.8637 C   0  0  2  0  0  0
  -28.6962  -13.0496   20.9937 C   0  0  0  0  0  0
  -25.2554  -13.8180   20.5678 C   0  0  0  0  0  0
  -24.1823  -13.0441   20.9195 C   0  0  0  0  0  0
  -24.6391  -11.6914   20.8747 C   0  0  0  0  0  0
  -23.9067  -10.4293   21.0410 C   0  0  0  0  0  0
  -24.3621   -9.4208   21.9184 C   0  0  0  0  0  0
  -23.6298   -8.2243   22.0751 C   0  0  0  0  0  0
  -22.4280   -8.0284   21.3544 C   0  0  0  0  0  0
  -21.9916   -9.0255   20.4645 C   0  0  0  0  0  0
  -22.7242  -10.2135   20.3054 C   0  0  0  0  0  0
  -21.6853   -6.0738   22.5279 C   0  0  0  0  0  0
  -21.4015   -6.5640   23.8213 C   0  0  0  0  0  0
  -21.3658   -5.6793   24.9176 C   0  0  0  0  0  0
  -21.6046   -4.3054   24.7227 C   0  0  0  0  0  0
  -21.8819   -3.8147   23.4346 C   0  0  0  0  0  0
  -21.9193   -4.6966   22.3404 C   0  0  0  0  0  0
  -22.7847  -13.5230   21.1867 C   0  0  0  0  0  0
  -22.1661   -4.2149   21.0982 F   0  0  0  0  0  0
  -21.5629   -3.4539   25.7740 F   0  0  0  0  0  0
  -30.0246  -13.3233   20.4275 N   0  0  0  0  0  0
  -26.2984  -12.9359   20.3324 N   0  0  0  0  0  0
  -25.9315  -11.6513   20.5766 N   0  0  0  0  0  0
  -22.0496  -12.8205   22.0422 N   0  0  0  0  0  0
  -25.4266  -15.1900   20.4082 N   0  0  0  0  0  0
  -31.8807  -14.5740   20.1306 O   0  0  0  0  0  0
  -21.6641   -6.8882   21.4242 O   0  0  0  0  0  0
  -22.3521  -14.5533   20.6722 O   0  0  0  0  0  0
  -24.6143  -31.8686   23.2091 C   0  0  0  0  0  0
  -25.9040  -32.4823   23.8393 C   0  0  1  0  0  0
  -27.2286  -27.4302   20.1079 C   0  0  0  0  0  0
  -25.5899  -33.8621   24.2327 N   0  0  0  0  0  0
  -23.4024  -30.4912   21.5499 C   0  0  2  0  0  0
  -24.8485  -28.9545   20.1151 C   0  0  0  0  0  0
  -22.7403  -29.4662   22.4992 C   0  0  0  0  0  0
  -18.0274  -28.1377   22.8494 C   0  0  0  0  0  0
  -24.1490  -36.7319   23.2638 C   0  0  0  0  0  0
  -25.9301  -30.8359   21.3595 C   0  0  0  0  0  0
  -26.0092  -29.4689   20.7083 C   0  0  0  0  0  0
  -27.2061  -28.7151   20.6975 C   0  0  0  0  0  0
  -26.0543  -26.9298   19.5085 C   0  0  0  0  0  0
  -24.8658  -27.6849   19.5102 C   0  0  0  0  0  0
  -23.6103  -29.8217   20.1646 C   0  0  0  0  0  0
  -25.4111  -36.3115   24.0338 C   0  0  1  0  0  0
  -20.5860  -28.3670   23.1323 C   0  0  2  0  0  0
  -20.6763  -26.9409   22.5419 C   0  0  0  0  0  0
  -19.5742  -26.6388   21.5214 C   0  0  0  0  0  0
  -18.1920  -26.7924   22.1621 C   0  0  0  0  0  0
  -19.1522  -28.8840   23.2900 C   0  0  0  0  0  0
  -18.9452  -30.1441   23.8913 C   0  0  0  0  0  0
  -17.6457  -30.6587   24.0572 C   0  0  0  0  0  0
  -25.9034  -34.9481   23.5131 C   0  0  0  0  0  0
  -16.5348  -29.9092   23.6329 C   0  0  0  0  0  0
  -16.7263  -28.6505   23.0350 C   0  0  0  0  0  0
  -26.4471  -31.6603   25.0718 C   0  0  0  0  0  0
  -25.3736  -31.3703   26.1467 C   0  0  0  0  0  0
  -27.0303  -30.3053   24.6075 C   0  0  0  0  0  0
  -27.6059  -32.4319   25.7468 C   0  0  0  0  0  0
  -27.5584  -37.1812   24.8462 C   0  0  0  0  0  0
  -21.4132  -29.3033   22.3728 N   0  0  0  0  0  0
  -26.4301  -37.3796   23.9401 N   0  0  0  0  0  0
  -24.6673  -31.0794   22.0982 N   0  0  0  0  0  0
  -23.4174  -28.8213   23.3040 O   0  0  0  0  0  0
  -28.3761  -26.6683   20.1203 O   0  0  0  0  0  0
  -26.5599  -34.8932   22.4691 O   0  0  0  0  0  0
  -23.5340  -32.1432   23.7497 O   0  0  0  0  0  0
  -31.4966  -17.4596   20.0177 C   0  0  0  0  0  0
  -30.6574  -19.7432   19.8804 C   0  0  0  0  0  0
  -29.2171  -17.9545   20.7044 C   0  0  0  0  0  0
  -31.6955  -18.8145   19.6916 C   0  0  0  0  0  0
  -30.2497  -16.9910   20.5156 C   0  0  0  0  0  0
  -29.4042  -19.3301   20.3868 C   0  0  0  0  0  0
  -28.3618  -22.8188   20.6791 C   0  0  0  0  0  0
  -28.3616  -24.1668   19.9248 C   0  0  0  0  0  0
  -28.2732  -21.5294   19.8312 C   0  0  0  0  0  0
  -28.2714  -25.4195   20.8344 C   0  0  0  0  0  0
  -32.9223  -19.2385   19.1770 N   0  0  0  0  0  0
  -29.9785  -15.5978   20.8124 N   0  0  0  0  0  0
  -28.3592  -20.2593   20.5841 N   0  0  0  0  0  0
  -28.4261  -22.7636   21.9127 O   0  0  0  0  0  0
  -31.4567  -12.3663   19.1436 H   0  0  0  0  0  0
  -30.2855  -11.3032   19.8666 H   0  0  0  0  0  0
  -29.7354  -11.7433   17.4493 H   0  0  0  0  0  0
  -29.6643  -13.4604   17.7614 H   0  0  0  0  0  0
  -27.8357  -11.2937   18.8496 H   0  0  0  0  0  0
  -27.3633  -12.5928   17.7886 H   0  0  0  0  0  0
  -27.6821  -14.2511   19.5317 H   0  0  0  0  0  0
  -28.6696  -12.0363   21.3972 H   0  0  0  0  0  0
  -28.4680  -13.7102   21.8320 H   0  0  0  0  0  0
  -25.2768   -9.5680   22.4751 H   0  0  0  0  0  0
  -24.0008   -7.4631   22.7465 H   0  0  0  0  0  0
  -21.0847   -8.8777   19.8942 H   0  0  0  0  0  0
  -22.3709  -10.9676   19.6158 H   0  0  0  0  0  0
  -21.2007   -7.6148   23.9717 H   0  0  0  0  0  0
  -21.1479   -6.0523   25.9079 H   0  0  0  0  0  0
  -22.0599   -2.7610   23.2850 H   0  0  0  0  0  0
  -22.4126  -11.9863   22.4792 H   0  0  0  0  0  0
  -21.1114  -13.1212   22.2641 H   0  0  0  0  0  0
  -24.6564  -15.8423   20.5107 H   0  0  0  0  0  0
  -26.2714  -15.6285   20.0636 H   0  0  0  0  0  0
  -26.7116  -32.5547   23.1164 H   0  0  0  0  0  0
  -25.0058  -33.9783   25.0480 H   0  0  0  0  0  0
  -22.6910  -31.3081   21.4102 H   0  0  0  0  0  0
  -23.3748  -35.9657   23.3312 H   0  0  0  0  0  0
  -24.3582  -36.8915   22.2049 H   0  0  0  0  0  0
  -23.7252  -37.6527   23.6648 H   0  0  0  0  0  0
  -26.0396  -31.6033   20.5917 H   0  0  0  0  0  0
  -26.8180  -30.8911   21.9773 H   0  0  0  0  0  0
  -28.1022  -29.1040   21.1612 H   0  0  0  0  0  0
  -26.0575  -25.9548   19.0442 H   0  0  0  0  0  0
  -23.9726  -27.2827   19.0515 H   0  0  0  0  0  0
  -23.7176  -30.5940   19.4026 H   0  0  0  0  0  0
  -22.7339  -29.2404   19.8723 H   0  0  0  0  0  0
  -25.1290  -36.1982   25.0834 H   0  0  0  0  0  0
  -20.9955  -28.3247   24.1440 H   0  0  0  0  0  0
  -20.5683  -26.2278   23.3605 H   0  0  0  0  0  0
  -21.6636  -26.7465   22.1204 H   0  0  0  0  0  0
  -19.6912  -25.6303   21.1238 H   0  0  0  0  0  0
  -19.6686  -27.3208   20.6753 H   0  0  0  0  0  0
  -17.4193  -26.6683   21.4015 H   0  0  0  0  0  0
  -18.0306  -26.0060   22.9010 H   0  0  0  0  0  0
  -19.7931  -30.7241   24.2297 H   0  0  0  0  0  0
  -17.5022  -31.6274   24.5163 H   0  0  0  0  0  0
  -15.5349  -30.3006   23.7643 H   0  0  0  0  0  0
  -15.8655  -28.0836   22.7061 H   0  0  0  0  0  0
  -24.5918  -30.7037   25.7807 H   0  0  0  0  0  0
  -24.8917  -32.2851   26.4927 H   0  0  0  0  0  0
  -25.8095  -30.8875   27.0223 H   0  0  0  0  0  0
  -26.2840  -29.6798   24.1161 H   0  0  0  0  0  0
  -27.4113  -29.7302   25.4523 H   0  0  0  0  0  0
  -27.8657  -30.4372   23.9191 H   0  0  0  0  0  0
  -27.2690  -33.3616   26.2066 H   0  0  0  0  0  0
  -28.3852  -32.6871   25.0276 H   0  0  0  0  0  0
  -28.0738  -31.8422   26.5358 H   0  0  0  0  0  0
  -28.2616  -38.0100   24.7510 H   0  0  0  0  0  0
  -28.1067  -36.2632   24.6297 H   0  0  0  0  0  0
  -27.2298  -37.1473   25.8866 H   0  0  0  0  0  0
  -20.9295  -29.8761   21.6953 H   0  0  0  0  0  0
  -26.0194  -38.2876   24.1397 H   0  0  0  0  0  0
  -32.3347  -16.8007   19.8647 H   0  0  0  0  0  0
  -30.8438  -20.7805   19.6460 H   0  0  0  0  0  0
  -28.2588  -17.6289   21.0839 H   0  0  0  0  0  0
  -27.5320  -24.1590   19.2189 H   0  0  0  0  0  0
  -29.2746  -24.2151   19.3316 H   0  0  0  0  0  0
  -29.0075  -21.5831   19.0288 H   0  0  0  0  0  0
  -27.3056  -21.5504   19.3292 H   0  0  0  0  0  0
  -29.0885  -25.4007   21.5567 H   0  0  0  0  0  0
  -27.3573  -25.3759   21.4313 H   0  0  0  0  0  0
  -33.5430  -18.5448   18.7701 H   0  0  0  0  0  0
  -32.9595  -20.1268   18.6847 H   0  0  0  0  0  0
  -29.0430  -15.3918   21.1280 H   0  0  0  0  0  0
  -27.5361  -19.9873   21.1149 H   0  0  0  0  0  0
  1 25  1  0  0  0
  1 30  2  0  0  0
  1 82  1  0  0  0
  2  3  1  0  0  0
  2 25  1  0  0  0
  2 85  1  0  0  0
  2 86  1  0  0  0
  3  4  1  0  0  0
  3 87  1  0  0  0
  3 88  1  0  0  0
  4  5  1  0  0  0
  4 89  1  0  0  0
  4 90  1  0  0  0
  5  6  1  0  0  0
  5 26  1  0  0  0
  5 91  1  0  0  0
  6 25  1  0  0  0
  6 92  1  0  0  0
  6 93  1  0  0  0
  7  8  2  0  0  0
  7 26  1  0  0  0
  7 29  1  0  0  0
  8  9  1  0  0  0
  8 22  1  0  0  0
  9 10  1  0  0  0
  9 27  2  0  0  0
 10 11  2  0  0  0
 10 15  1  0  0  0
 11 12  1  0  0  0
 11 94  1  0  0  0
 12 13  2  0  0  0
 12 95  1  0  0  0
 13 14  1  0  0  0
 13 31  1  0  0  0
 14 15  2  0  0  0
 14 96  1  0  0  0
 15 97  1  0  0  0
 16 17  2  0  0  0
 16 21  1  0  0  0
 16 31  1  0  0  0
 17 18  1  0  0  0
 17 98  1  0  0  0
 18 19  2  0  0  0
 18 99  1  0  0  0
 19 20  1  0  0  0
 19 24  1  0  0  0
 20 21  2  0  0  0
 20100  1  0  0  0
 21 23  1  0  0  0
 22 28  1  0  0  0
 22 32  2  0  0  0
 26 27  1  0  0  0
 28101  1  0  0  0
 28102  1  0  0  0
 29103  1  0  0  0
 29104  1  0  0  0
 33 34  1  0  0  0
 33 66  1  0  0  0
 33 70  2  0  0  0
 34 36  1  0  0  0
 34 59  1  0  0  0
 34105  1  0  0  0
 35 44  2  0  0  0
 35 45  1  0  0  0
 35 68  1  0  0  0
 36 56  1  0  0  0
 36106  1  0  0  0
 37 39  1  0  0  0
 37 47  1  0  0  0
 37 66  1  0  0  0
 37107  1  0  0  0
 38 43  2  0  0  0
 38 46  1  0  0  0
 38 47  1  0  0  0
 39 64  1  0  0  0
 39 67  2  0  0  0
 40 52  1  0  0  0
 40 53  2  0  0  0
 40 58  1  0  0  0
 41108  1  0  0  0
 41109  1  0  0  0
 41110  1  0  0  0
 41 48  1  0  0  0
 42 43  1  0  0  0
 42 66  1  0  0  0
 42111  1  0  0  0
 42112  1  0  0  0
 43 44  1  0  0  0
 44113  1  0  0  0
 45 46  2  0  0  0
 45114  1  0  0  0
 46115  1  0  0  0
 47116  1  0  0  0
 47117  1  0  0  0
 48 56  1  0  0  0
 48 65  1  0  0  0
 48118  1  0  0  0
 49 50  1  0  0  0
 49 53  1  0  0  0
 49 64  1  0  0  0
 49119  1  0  0  0
 50 51  1  0  0  0
 50120  1  0  0  0
 50121  1  0  0  0
 51 52  1  0  0  0
 51122  1  0  0  0
 51123  1  0  0  0
 52124  1  0  0  0
 52125  1  0  0  0
 53 54  1  0  0  0
 54 55  2  0  0  0
 54126  1  0  0  0
 55 57  1  0  0  0
 55127  1  0  0  0
 56 69  2  0  0  0
 57 58  2  0  0  0
 57128  1  0  0  0
 58129  1  0  0  0
 59 60  1  0  0  0
 59 61  1  0  0  0
 59 62  1  0  0  0
 60130  1  0  0  0
 60131  1  0  0  0
 60132  1  0  0  0
 61133  1  0  0  0
 61134  1  0  0  0
 61135  1  0  0  0
 62136  1  0  0  0
 62137  1  0  0  0
 62138  1  0  0  0
 63 65  1  0  0  0
 63139  1  0  0  0
 63140  1  0  0  0
 63141  1  0  0  0
 64142  1  0  0  0
 65143  1  0  0  0
 68 80  1  0  0  0
 71 74  2  0  0  0
 71 75  1  0  0  0
 71144  1  0  0  0
 72 74  1  0  0  0
 72 76  2  0  0  0
 72145  1  0  0  0
 73 75  2  0  0  0
 73 76  1  0  0  0
 73146  1  0  0  0
 74 81  1  0  0  0
 75 82  1  0  0  0
 76 83  1  0  0  0
 77 78  1  0  0  0
 77 79  1  0  0  0
 77 84  2  0  0  0
 78 80  1  0  0  0
 78147  1  0  0  0
 78148  1  0  0  0
 79 83  1  0  0  0
 79149  1  0  0  0
 79150  1  0  0  0
 80151  1  0  0  0
 80152  1  0  0  0
 81153  1  0  0  0
 81154  1  0  0  0
 82155  1  0  0  0
 83156  1  0  0  0
M  ISO  4   1 100  68 101  80 101  82 100
M  END
> <chiral flag>
0

> <version>
0

> <s_m_source_file>
/data/baiqing/PycharmProjects/Reinvent-master-3.2/result/LINK_invent/BTK/process_docking_weight1_custom_product_contain_oxygen_bond_distance_aromatic_linkinvent_7_9_3/rearranged_h_0166.sdf

> <i_m_source_file_index>
55

> <r_mmod_Potential_Energy-OPLS-2005>
32.8343353271484

> <r_mmod_Stretch_Energy-OPLS-2005>
43.4073638916016

> <r_mmod_Bend_Energy-OPLS-2005>
110.854888916016

> <r_mmod_Torsional_Energy-OPLS-2005>
227.603256225586

> <r_mmod_Improper_Torsional_Energy-OPLS-2005>
8.23317623138428

> <r_mmod_Van_der_Waal_Energy-OPLS-2005>
157.799743652344

> <r_mmod_Electrostatic_Energy-OPLS-2005>
-283.691223144531

> <r_mmod_Solvation_Energy-OPLS-2005>
-251.109298706055

> <b_mmod_Minimization_Converged-OPLS-2005>
0

> <r_mmod_RMS_Derivative-OPLS-2005>
1.29703438282013

$$$$
56
                    3D
 Structure written by MMmdl.
160168  0  0  1  0            999 V2000
  -30.6816  -14.5860   20.5402 C   0  0  0  0  0  0
  -30.4212  -12.3699   19.4500 C   0  0  0  0  0  0
  -29.4985  -12.5017   18.2207 C   0  0  0  0  0  0
  -28.0227  -12.3445   18.6350 C   0  0  0  0  0  0
  -27.6502  -13.2186   19.8625 C   0  0  2  0  0  0
  -28.6932  -13.0820   20.9945 C   0  0  0  0  0  0
  -25.2543  -13.8180   20.5686 C   0  0  0  0  0  0
  -24.1815  -13.0444   20.9194 C   0  0  0  0  0  0
  -24.6387  -11.6916   20.8751 C   0  0  0  0  0  0
  -23.9062  -10.4297   21.0418 C   0  0  0  0  0  0
  -24.3613   -9.4210   21.9193 C   0  0  0  0  0  0
  -23.6287   -8.2245   22.0759 C   0  0  0  0  0  0
  -22.4267   -8.0287   21.3553 C   0  0  0  0  0  0
  -21.9906   -9.0260   20.4653 C   0  0  0  0  0  0
  -22.7236  -10.2140   20.3065 C   0  0  0  0  0  0
  -21.6849   -6.0740   22.5284 C   0  0  0  0  0  0
  -21.4015   -6.5644   23.8219 C   0  0  0  0  0  0
  -21.3656   -5.6795   24.9178 C   0  0  0  0  0  0
  -21.6040   -4.3059   24.7226 C   0  0  0  0  0  0
  -21.8816   -3.8151   23.4348 C   0  0  0  0  0  0
  -21.9189   -4.6968   22.3404 C   0  0  0  0  0  0
  -22.7836  -13.5237   21.1852 C   0  0  0  0  0  0
  -22.1659   -4.2157   21.0980 F   0  0  0  0  0  0
  -21.5624   -3.4542   25.7737 F   0  0  0  0  0  0
  -30.0097  -13.3998   20.4248 N   0  0  0  0  0  0
  -26.2968  -12.9367   20.3320 N   0  0  0  0  0  0
  -25.9312  -11.6520   20.5762 N   0  0  0  0  0  0
  -22.0469  -12.8240   22.0410 N   0  0  0  0  0  0
  -25.4256  -15.1902   20.4102 N   0  0  0  0  0  0
  -31.8294  -14.7093   20.1063 O   0  0  0  0  0  0
  -21.6632   -6.8883   21.4245 O   0  0  0  0  0  0
  -22.3529  -14.5544   20.6694 O   0  0  0  0  0  0
  -24.6221  -31.8621   23.2051 C   0  0  0  0  0  0
  -25.9084  -32.4791   23.8368 C   0  0  1  0  0  0
  -27.2270  -27.3509   20.1041 C   0  0  0  0  0  0
  -25.5917  -33.8592   24.2297 N   0  0  0  0  0  0
  -23.4137  -30.4861   21.5467 C   0  0  2  0  0  0
  -24.8589  -28.9429   20.1116 C   0  0  0  0  0  0
  -22.7451  -29.4629   22.4949 C   0  0  0  0  0  0
  -18.0283  -28.1378   22.8490 C   0  0  0  0  0  0
  -24.1488  -36.7297   23.2640 C   0  0  0  0  0  0
  -25.9512  -30.8013   21.3710 C   0  0  0  0  0  0
  -26.0238  -29.4302   20.7150 C   0  0  0  0  0  0
  -27.2063  -28.6412   20.7091 C   0  0  0  0  0  0
  -26.0317  -26.8951   19.5012 C   0  0  0  0  0  0
  -24.8620  -27.6786   19.5020 C   0  0  0  0  0  0
  -23.6266  -29.8209   20.1608 C   0  0  0  0  0  0
  -25.4112  -36.3092   24.0335 C   0  0  1  0  0  0
  -20.5880  -28.3672   23.1296 C   0  0  2  0  0  0
  -20.6768  -26.9398   22.5415 C   0  0  0  0  0  0
  -19.5745  -26.6381   21.5213 C   0  0  0  0  0  0
  -18.1925  -26.7923   22.1627 C   0  0  0  0  0  0
  -19.1535  -28.8842   23.2889 C   0  0  0  0  0  0
  -18.9457  -30.1446   23.8904 C   0  0  0  0  0  0
  -17.6459  -30.6581   24.0562 C   0  0  0  0  0  0
  -25.9045  -34.9460   23.5116 C   0  0  0  0  0  0
  -16.5349  -29.9080   23.6328 C   0  0  0  0  0  0
  -16.7270  -28.6498   23.0352 C   0  0  0  0  0  0
  -26.4490  -31.6596   25.0725 C   0  0  0  0  0  0
  -25.3742  -31.3721   26.1466 C   0  0  0  0  0  0
  -27.0331  -30.3027   24.6150 C   0  0  0  0  0  0
  -27.6053  -32.4331   25.7493 C   0  0  0  0  0  0
  -27.5578  -37.1810   24.8471 C   0  0  0  0  0  0
  -21.4169  -29.3035   22.3698 N   0  0  0  0  0  0
  -26.4295  -37.3780   23.9408 N   0  0  0  0  0  0
  -24.6810  -31.0660   22.0985 N   0  0  0  0  0  0
  -23.4194  -28.8162   23.3009 O   0  0  0  0  0  0
  -28.3787  -26.5627   20.1622 O   0  0  0  0  0  0
  -26.5604  -34.8921   22.4676 O   0  0  0  0  0  0
  -23.5393  -32.1408   23.7400 O   0  0  0  0  0  0
  -31.6210  -19.5146   21.9877 C   0  0  0  0  0  0
  -32.2730  -18.3215   22.3382 C   0  0  0  0  0  0
  -30.3745  -19.5117   21.3168 C   0  0  0  0  0  0
  -30.5066  -16.9958   21.2763 C   0  0  0  0  0  0
  -31.7155  -17.0772   22.0131 C   0  0  0  0  0  0
  -29.8282  -18.2291   20.9491 C   0  0  0  0  0  0
  -29.7823  -20.8851   21.0909 C   0  0  0  0  0  0
  -28.4629  -22.4895   17.9536 C   0  0  0  0  0  0
  -28.5796  -23.9719   20.0910 C   0  0  0  0  0  0
  -28.7769  -23.4181   16.7878 C   0  0  0  0  0  0
  -28.5319  -25.3585   19.3399 C   0  0  0  0  0  0
  -29.1680  -22.7213   19.3003 C   0  0  1  0  0  0
  -29.9728  -15.6804   20.9484 N   0  0  0  0  0  0
  -29.2389  -21.3434   19.9400 N   0  0  0  0  0  0
  -29.8750  -21.7864   22.0713 N   0  3  0  0  0  0
  -27.7040  -21.5322   17.7702 O   0  0  0  0  0  0
  -28.2281  -23.8933   21.2736 O   0  0  0  0  0  0
  -32.3424  -15.9611   22.4619 F   0  0  0  0  0  0
  -28.6459  -18.1728   20.2878 F   0  0  0  0  0  0
  -31.4660  -12.4679   19.1501 H   0  0  0  0  0  0
  -30.3325  -11.3762   19.8924 H   0  0  0  0  0  0
  -29.7573  -11.7534   17.4707 H   0  0  0  0  0  0
  -29.6486  -13.4735   17.7478 H   0  0  0  0  0  0
  -27.8572  -11.2920   18.8686 H   0  0  0  0  0  0
  -27.3669  -12.5749   17.7946 H   0  0  0  0  0  0
  -27.6688  -14.2525   19.5178 H   0  0  0  0  0  0
  -28.6935  -12.0674   21.3956 H   0  0  0  0  0  0
  -28.4449  -13.7345   21.8331 H   0  0  0  0  0  0
  -25.2760   -9.5676   22.4766 H   0  0  0  0  0  0
  -23.9997   -7.4629   22.7470 H   0  0  0  0  0  0
  -21.0838   -8.8777   19.8953 H   0  0  0  0  0  0
  -22.3700  -10.9677   19.6170 H   0  0  0  0  0  0
  -21.2016   -7.6154   23.9725 H   0  0  0  0  0  0
  -21.1478   -6.0526   25.9081 H   0  0  0  0  0  0
  -22.0596   -2.7614   23.2844 H   0  0  0  0  0  0
  -22.4071  -11.9903   22.4808 H   0  0  0  0  0  0
  -21.1091  -13.1283   22.2605 H   0  0  0  0  0  0
  -24.6562  -15.8424   20.5158 H   0  0  0  0  0  0
  -26.2701  -15.6311   20.0688 H   0  0  0  0  0  0
  -26.7149  -32.5473   23.1117 H   0  0  0  0  0  0
  -25.0089  -33.9745   25.0459 H   0  0  0  0  0  0
  -22.7059  -31.3055   21.4053 H   0  0  0  0  0  0
  -23.3748  -35.9633   23.3320 H   0  0  0  0  0  0
  -24.3570  -36.8894   22.2051 H   0  0  0  0  0  0
  -23.7250  -37.6510   23.6645 H   0  0  0  0  0  0
  -26.0781  -31.5654   20.6027 H   0  0  0  0  0  0
  -26.8338  -30.8507   21.9971 H   0  0  0  0  0  0
  -28.1013  -29.0114   21.1891 H   0  0  0  0  0  0
  -25.9564  -25.9170   19.0529 H   0  0  0  0  0  0
  -23.9623  -27.2922   19.0431 H   0  0  0  0  0  0
  -23.7459  -30.5982   19.4051 H   0  0  0  0  0  0
  -22.7471  -29.2502   19.8578 H   0  0  0  0  0  0
  -25.1293  -36.1953   25.0829 H   0  0  0  0  0  0
  -20.9974  -28.3242   24.1415 H   0  0  0  0  0  0
  -20.5667  -26.2276   23.3606 H   0  0  0  0  0  0
  -21.6635  -26.7427   22.1207 H   0  0  0  0  0  0
  -19.6900  -25.6295   21.1234 H   0  0  0  0  0  0
  -19.6684  -27.3199   20.6748 H   0  0  0  0  0  0
  -17.4193  -26.6675   21.4030 H   0  0  0  0  0  0
  -18.0317  -26.0063   22.9021 H   0  0  0  0  0  0
  -19.7934  -30.7258   24.2276 H   0  0  0  0  0  0
  -17.5014  -31.6264   24.5156 H   0  0  0  0  0  0
  -15.5350  -30.2984   23.7647 H   0  0  0  0  0  0
  -15.8670  -28.0817   22.7064 H   0  0  0  0  0  0
  -24.5910  -30.7072   25.7808 H   0  0  0  0  0  0
  -24.8942  -32.2884   26.4915 H   0  0  0  0  0  0
  -25.8087  -30.8893   27.0228 H   0  0  0  0  0  0
  -26.2894  -29.6781   24.1188 H   0  0  0  0  0  0
  -27.4063  -29.7277   25.4636 H   0  0  0  0  0  0
  -27.8748  -30.4332   23.9342 H   0  0  0  0  0  0
  -27.2661  -33.3623   26.2082 H   0  0  0  0  0  0
  -28.3857  -32.6905   25.0319 H   0  0  0  0  0  0
  -28.0730  -31.8453   26.5403 H   0  0  0  0  0  0
  -28.2615  -38.0087   24.7488 H   0  0  0  0  0  0
  -28.1054  -36.2618   24.6335 H   0  0  0  0  0  0
  -27.2287  -37.1506   25.8871 H   0  0  0  0  0  0
  -20.9329  -29.8771   21.6932 H   0  0  0  0  0  0
  -26.0183  -38.2862   24.1390 H   0  0  0  0  0  0
  -32.0967  -20.4468   22.2609 H   0  0  0  0  0  0
  -33.2057  -18.3573   22.8821 H   0  0  0  0  0  0
  -27.9441  -24.0975   16.6078 H   0  0  0  0  0  0
  -28.9425  -22.8333   15.8832 H   0  0  0  0  0  0
  -29.6759  -24.0026   16.9815 H   0  0  0  0  0  0
  -27.8039  -25.3154   18.5346 H   0  0  0  0  0  0
  -29.4930  -25.4652   18.8379 H   0  0  0  0  0  0
  -30.2033  -22.9775   19.0737 H   0  0  0  0  0  0
  -28.9776  -15.5657   21.0491 H   0  0  0  0  0  0
  -28.8920  -20.6385   19.2971 H   0  0  0  0  0  0
  -30.2310  -21.5168   22.9753 H   0  0  0  0  0  0
  -29.3429  -22.6491   21.9940 H   0  0  0  0  0  0
  1 25  1  0  0  0
  1 30  2  0  0  0
  1 83  1  0  0  0
  2  3  1  0  0  0
  2 25  1  0  0  0
  2 90  1  0  0  0
  2 91  1  0  0  0
  3  4  1  0  0  0
  3 92  1  0  0  0
  3 93  1  0  0  0
  4  5  1  0  0  0
  4 94  1  0  0  0
  4 95  1  0  0  0
  5  6  1  0  0  0
  5 26  1  0  0  0
  5 96  1  0  0  0
  6 25  1  0  0  0
  6 97  1  0  0  0
  6 98  1  0  0  0
  7  8  2  0  0  0
  7 26  1  0  0  0
  7 29  1  0  0  0
  8  9  1  0  0  0
  8 22  1  0  0  0
  9 10  1  0  0  0
  9 27  2  0  0  0
 10 11  2  0  0  0
 10 15  1  0  0  0
 11 12  1  0  0  0
 11 99  1  0  0  0
 12 13  2  0  0  0
 12100  1  0  0  0
 13 14  1  0  0  0
 13 31  1  0  0  0
 14 15  2  0  0  0
 14101  1  0  0  0
 15102  1  0  0  0
 16 17  2  0  0  0
 16 21  1  0  0  0
 16 31  1  0  0  0
 17 18  1  0  0  0
 17103  1  0  0  0
 18 19  2  0  0  0
 18104  1  0  0  0
 19 20  1  0  0  0
 19 24  1  0  0  0
 20 21  2  0  0  0
 20105  1  0  0  0
 21 23  1  0  0  0
 22 28  1  0  0  0
 22 32  2  0  0  0
 26 27  1  0  0  0
 28106  1  0  0  0
 28107  1  0  0  0
 29108  1  0  0  0
 29109  1  0  0  0
 33 34  1  0  0  0
 33 66  1  0  0  0
 33 70  2  0  0  0
 34 36  1  0  0  0
 34 59  1  0  0  0
 34110  1  0  0  0
 35 44  2  0  0  0
 35 45  1  0  0  0
 35 68  1  0  0  0
 36 56  1  0  0  0
 36111  1  0  0  0
 37 39  1  0  0  0
 37 47  1  0  0  0
 37 66  1  0  0  0
 37112  1  0  0  0
 38 43  2  0  0  0
 38 46  1  0  0  0
 38 47  1  0  0  0
 39 64  1  0  0  0
 39 67  2  0  0  0
 40 52  1  0  0  0
 40 53  2  0  0  0
 40 58  1  0  0  0
 41113  1  0  0  0
 41114  1  0  0  0
 41115  1  0  0  0
 41 48  1  0  0  0
 42 43  1  0  0  0
 42 66  1  0  0  0
 42116  1  0  0  0
 42117  1  0  0  0
 43 44  1  0  0  0
 44118  1  0  0  0
 45 46  2  0  0  0
 45119  1  0  0  0
 46120  1  0  0  0
 47121  1  0  0  0
 47122  1  0  0  0
 48 56  1  0  0  0
 48 65  1  0  0  0
 48123  1  0  0  0
 49 50  1  0  0  0
 49 53  1  0  0  0
 49 64  1  0  0  0
 49124  1  0  0  0
 50 51  1  0  0  0
 50125  1  0  0  0
 50126  1  0  0  0
 51 52  1  0  0  0
 51127  1  0  0  0
 51128  1  0  0  0
 52129  1  0  0  0
 52130  1  0  0  0
 53 54  1  0  0  0
 54 55  2  0  0  0
 54131  1  0  0  0
 55 57  1  0  0  0
 55132  1  0  0  0
 56 69  2  0  0  0
 57 58  2  0  0  0
 57133  1  0  0  0
 58134  1  0  0  0
 59 60  1  0  0  0
 59 61  1  0  0  0
 59 62  1  0  0  0
 60135  1  0  0  0
 60136  1  0  0  0
 60137  1  0  0  0
 61138  1  0  0  0
 61139  1  0  0  0
 61140  1  0  0  0
 62141  1  0  0  0
 62142  1  0  0  0
 62143  1  0  0  0
 63 65  1  0  0  0
 63144  1  0  0  0
 63145  1  0  0  0
 63146  1  0  0  0
 64147  1  0  0  0
 65148  1  0  0  0
 68 81  1  0  0  0
 71 72  2  0  0  0
 71 73  1  0  0  0
 71149  1  0  0  0
 72 75  1  0  0  0
 72150  1  0  0  0
 73 76  2  0  0  0
 73 77  1  0  0  0
 74 75  2  0  0  0
 74 76  1  0  0  0
 74 83  1  0  0  0
 75 88  1  0  0  0
 76 89  1  0  0  0
 77 84  1  0  0  0
 77 85  2  0  0  0
 78 80  1  0  0  0
 78 82  1  0  0  0
 78 86  2  0  0  0
 79 81  1  0  0  0
 79 82  1  0  0  0
 79 87  2  0  0  0
 80151  1  0  0  0
 80152  1  0  0  0
 80153  1  0  0  0
 81154  1  0  0  0
 81155  1  0  0  0
 82 84  1  0  0  0
 82156  1  0  0  0
 83157  1  0  0  0
 84158  1  0  0  0
 85159  1  0  0  0
 85160  1  0  0  0
M  CHG  1  85   1
M  ISO  4   1 100  68 101  81 101  83 100
M  END
> <chiral flag>
0

> <version>
0

> <s_m_source_file>
/data/baiqing/PycharmProjects/Reinvent-master-3.2/result/LINK_invent/BTK/process_docking_weight1_custom_product_contain_oxygen_bond_distance_aromatic_linkinvent_7_9_3/rearranged_h_0166.sdf

> <i_m_source_file_index>
56

> <r_mmod_Potential_Energy-OPLS-2005>
-386.204315185547

> <r_mmod_Stretch_Energy-OPLS-2005>
73.7991333007812

> <r_mmod_Bend_Energy-OPLS-2005>
153.097274780273

> <r_mmod_Torsional_Energy-OPLS-2005>
245.43603515625

> <r_mmod_Improper_Torsional_Energy-OPLS-2005>
7.20448398590088

> <r_mmod_Van_der_Waal_Energy-OPLS-2005>
165.075164794922

> <r_mmod_Electrostatic_Energy-OPLS-2005>
-615.370727539062

> <r_mmod_Solvation_Energy-OPLS-2005>
-449.250549316406

> <b_mmod_Minimization_Converged-OPLS-2005>
0

> <r_mmod_RMS_Derivative-OPLS-2005>
0.912630498409271

$$$$
57
                    3D
 Structure written by MMmdl.
160168  0  0  1  0            999 V2000
  -30.5954  -14.7347   20.4497 C   0  0  0  0  0  0
  -30.4395  -12.4315   19.4871 C   0  0  0  0  0  0
  -29.5238  -12.4981   18.2439 C   0  0  0  0  0  0
  -28.0509  -12.3104   18.6559 C   0  0  0  0  0  0
  -27.6504  -13.2143   19.8504 C   0  0  2  0  0  0
  -28.6899  -13.1473   20.9871 C   0  0  0  0  0  0
  -25.2600  -13.7935   20.5654 C   0  0  0  0  0  0
  -24.1845  -13.0295   20.9157 C   0  0  0  0  0  0
  -24.6437  -11.6776   20.8743 C   0  0  0  0  0  0
  -23.9091  -10.4202   21.0427 C   0  0  0  0  0  0
  -24.3631   -9.4132   21.9212 C   0  0  0  0  0  0
  -23.6285   -8.2199   22.0790 C   0  0  0  0  0  0
  -22.4266   -8.0264   21.3573 C   0  0  0  0  0  0
  -21.9901   -9.0245   20.4678 C   0  0  0  0  0  0
  -22.7257  -10.2092   20.3082 C   0  0  0  0  0  0
  -21.6839   -6.0735   22.5284 C   0  0  0  0  0  0
  -21.3990   -6.5638   23.8216 C   0  0  0  0  0  0
  -21.3655   -5.6796   24.9187 C   0  0  0  0  0  0
  -21.6051   -4.3066   24.7231 C   0  0  0  0  0  0
  -21.8818   -3.8148   23.4355 C   0  0  0  0  0  0
  -21.9194   -4.6966   22.3404 C   0  0  0  0  0  0
  -22.7906  -13.5184   21.1808 C   0  0  0  0  0  0
  -22.1666   -4.2149   21.0989 F   0  0  0  0  0  0
  -21.5637   -3.4548   25.7742 F   0  0  0  0  0  0
  -29.9997  -13.4929   20.4224 N   0  0  0  0  0  0
  -26.3027  -12.9187   20.3283 N   0  0  0  0  0  0
  -25.9384  -11.6352   20.5788 N   0  0  0  0  0  0
  -22.0539  -12.8229   22.0382 N   0  0  0  0  0  0
  -25.4392  -15.1542   20.4038 N   0  0  0  0  0  0
  -31.7857  -14.8117   20.1334 O   0  0  0  0  0  0
  -21.6623   -6.8867   21.4248 O   0  0  0  0  0  0
  -22.3615  -14.5497   20.6647 O   0  0  0  0  0  0
  -24.6281  -31.8589   23.2011 C   0  0  0  0  0  0
  -25.9115  -32.4767   23.8359 C   0  0  1  0  0  0
  -27.2556  -27.3077   20.1459 C   0  0  0  0  0  0
  -25.5936  -33.8569   24.2278 N   0  0  0  0  0  0
  -23.4281  -30.4779   21.5393 C   0  0  2  0  0  0
  -24.8887  -28.9189   20.1274 C   0  0  0  0  0  0
  -22.7483  -29.4643   22.4906 C   0  0  0  0  0  0
  -18.0315  -28.1368   22.8509 C   0  0  0  0  0  0
  -24.1495  -36.7288   23.2640 C   0  0  0  0  0  0
  -25.9703  -30.7828   21.3820 C   0  0  0  0  0  0
  -26.0534  -29.4008   20.7420 C   0  0  0  0  0  0
  -27.2419  -28.6050   20.7512 C   0  0  0  0  0  0
  -26.0705  -26.8786   19.5167 C   0  0  0  0  0  0
  -24.8976  -27.6584   19.5100 C   0  0  0  0  0  0
  -23.6544  -29.8005   20.1612 C   0  0  0  0  0  0
  -25.4115  -36.3068   24.0329 C   0  0  1  0  0  0
  -20.5910  -28.3720   23.1260 C   0  0  2  0  0  0
  -20.6823  -26.9470   22.5326 C   0  0  0  0  0  0
  -19.5766  -26.6474   21.5155 C   0  0  0  0  0  0
  -18.1983  -26.7896   22.1663 C   0  0  0  0  0  0
  -19.1558  -28.8857   23.2894 C   0  0  0  0  0  0
  -18.9466  -30.1453   23.8905 C   0  0  0  0  0  0
  -17.6467  -30.6579   24.0579 C   0  0  0  0  0  0
  -25.9058  -34.9444   23.5099 C   0  0  0  0  0  0
  -16.5370  -29.9073   23.6332 C   0  0  0  0  0  0
  -16.7300  -28.6486   23.0364 C   0  0  0  0  0  0
  -26.4515  -31.6568   25.0721 C   0  0  0  0  0  0
  -25.3746  -31.3718   26.1440 C   0  0  0  0  0  0
  -27.0375  -30.2988   24.6200 C   0  0  0  0  0  0
  -27.6072  -32.4312   25.7496 C   0  0  0  0  0  0
  -27.5577  -37.1798   24.8463 C   0  0  0  0  0  0
  -21.4192  -29.3102   22.3676 N   0  0  0  0  0  0
  -26.4297  -37.3755   23.9406 N   0  0  0  0  0  0
  -24.6929  -31.0584   22.0964 N   0  0  0  0  0  0
  -23.4190  -28.8180   23.2997 O   0  0  0  0  0  0
  -28.3459  -26.4316   20.0238 O   0  0  0  0  0  0
  -26.5607  -34.8912   22.4656 O   0  0  0  0  0  0
  -23.5430  -32.1397   23.7298 O   0  0  0  0  0  0
  -28.0990  -20.2770   20.3768 C   0  0  0  0  0  0
  -28.1286  -18.8386   20.3723 C   0  0  0  0  0  0
  -29.4465  -18.4408   20.5509 C   0  0  0  0  0  0
  -29.3506  -20.7360   20.6202 C   0  0  0  0  0  0
  -30.1911  -17.1037   20.5664 C   0  0  0  0  0  0
  -28.9177  -25.7681   21.1137 C   0  0  0  0  0  0
  -29.2887  -24.4426   21.3100 C   0  0  0  0  0  0
  -29.0411  -23.2431   20.4425 C   0  0  0  0  0  0
  -24.3807  -18.0298   19.5427 C   0  0  0  0  0  0
  -25.1680  -19.2894   21.5635 C   0  0  0  0  0  0
  -26.9002  -17.9678   20.1995 C   0  0  0  0  0  0
  -25.5673  -18.7736   20.1688 C   0  0  0  0  0  0
  -29.7331  -15.8694   20.6603 N   0  0  0  0  0  0
  -29.6498  -22.0752   20.8792 N   0  0  0  0  0  0
  -28.3644  -23.2725   19.4128 O   0  0  0  0  0  0
  -30.1967  -19.6252   20.7480 O   0  0  0  0  0  0
  -29.9540  -24.1856   22.4506 O   0  0  0  0  0  0
  -31.4866  -12.5395   19.1972 H   0  0  0  0  0  0
  -30.3609  -11.4526   19.9624 H   0  0  0  0  0  0
  -29.8125  -11.7327   17.5214 H   0  0  0  0  0  0
  -29.6532  -13.4579   17.7430 H   0  0  0  0  0  0
  -27.9273  -11.2625   18.9357 H   0  0  0  0  0  0
  -27.3867  -12.4801   17.8085 H   0  0  0  0  0  0
  -27.6485  -14.2362   19.4706 H   0  0  0  0  0  0
  -28.7162  -12.1521   21.4313 H   0  0  0  0  0  0
  -28.4229  -13.8313   21.7942 H   0  0  0  0  0  0
  -25.2779   -9.5586   22.4791 H   0  0  0  0  0  0
  -23.9981   -7.4574   22.7498 H   0  0  0  0  0  0
  -21.0847   -8.8790   19.8964 H   0  0  0  0  0  0
  -22.3764  -10.9664   19.6201 H   0  0  0  0  0  0
  -21.1951   -7.6141   23.9709 H   0  0  0  0  0  0
  -21.1489   -6.0536   25.9093 H   0  0  0  0  0  0
  -22.0600   -2.7606   23.2861 H   0  0  0  0  0  0
  -22.4145  -11.9858   22.4720 H   0  0  0  0  0  0
  -21.1205  -13.1339   22.2641 H   0  0  0  0  0  0
  -24.6806  -15.8201   20.4811 H   0  0  0  0  0  0
  -26.3117  -15.5659   20.1021 H   0  0  0  0  0  0
  -26.7199  -32.5453   23.1124 H   0  0  0  0  0  0
  -25.0084  -33.9708   25.0429 H   0  0  0  0  0  0
  -22.7239  -31.2978   21.3820 H   0  0  0  0  0  0
  -23.3748  -35.9630   23.3301 H   0  0  0  0  0  0
  -24.3597  -36.8904   22.2056 H   0  0  0  0  0  0
  -23.7263  -37.6502   23.6660 H   0  0  0  0  0  0
  -26.1033  -31.5397   20.6078 H   0  0  0  0  0  0
  -26.8504  -30.8412   22.0109 H   0  0  0  0  0  0
  -28.1380  -28.9793   21.2243 H   0  0  0  0  0  0
  -26.0607  -25.9140   19.0291 H   0  0  0  0  0  0
  -24.0092  -27.2787   19.0250 H   0  0  0  0  0  0
  -23.7814  -30.5699   19.3998 H   0  0  0  0  0  0
  -22.7779  -29.2271   19.8533 H   0  0  0  0  0  0
  -25.1300  -36.1911   25.0821 H   0  0  0  0  0  0
  -21.0031  -28.3245   24.1365 H   0  0  0  0  0  0
  -20.5781  -26.2319   23.3497 H   0  0  0  0  0  0
  -21.6691  -26.7554   22.1083 H   0  0  0  0  0  0
  -19.6598  -27.3406   20.6778 H   0  0  0  0  0  0
  -19.6950  -25.6449   21.1042 H   0  0  0  0  0  0
  -17.4196  -26.6542   21.4144 H   0  0  0  0  0  0
  -18.0552  -26.0063   22.9123 H   0  0  0  0  0  0
  -19.7935  -30.7276   24.2265 H   0  0  0  0  0  0
  -17.5009  -31.6257   24.5173 H   0  0  0  0  0  0
  -15.5370  -30.2974   23.7625 H   0  0  0  0  0  0
  -15.8701  -28.0786   22.7094 H   0  0  0  0  0  0
  -24.5887  -30.7114   25.7763 H   0  0  0  0  0  0
  -24.8991  -32.2896   26.4907 H   0  0  0  0  0  0
  -25.8057  -30.8851   27.0192 H   0  0  0  0  0  0
  -26.2967  -29.6705   24.1238 H   0  0  0  0  0  0
  -27.4084  -29.7271   25.4718 H   0  0  0  0  0  0
  -27.8831  -30.4277   23.9436 H   0  0  0  0  0  0
  -27.2671  -33.3590   26.2110 H   0  0  0  0  0  0
  -28.3864  -32.6901   25.0315 H   0  0  0  0  0  0
  -28.0767  -31.8415   26.5378 H   0  0  0  0  0  0
  -28.2591  -38.0098   24.7497 H   0  0  0  0  0  0
  -28.1075  -36.2623   24.6302 H   0  0  0  0  0  0
  -27.2293  -37.1463   25.8867 H   0  0  0  0  0  0
  -20.9354  -29.8837   21.6896 H   0  0  0  0  0  0
  -26.0165  -38.2830   24.1397 H   0  0  0  0  0  0
  -27.2366  -20.9183   20.2758 H   0  0  0  0  0  0
  -31.2694  -17.2497   20.4554 H   0  0  0  0  0  0
  -29.1257  -26.4965   21.8853 H   0  0  0  0  0  0
  -23.5868  -18.7345   19.2908 H   0  0  0  0  0  0
  -23.9454  -17.3105   20.2350 H   0  0  0  0  0  0
  -24.6563  -17.5142   18.6218 H   0  0  0  0  0  0
  -24.2562  -19.8855   21.5114 H   0  0  0  0  0  0
  -25.9362  -19.9199   22.0131 H   0  0  0  0  0  0
  -24.9848  -18.4618   22.2496 H   0  0  0  0  0  0
  -26.8919  -17.2480   21.0172 H   0  0  0  0  0  0
  -27.0309  -17.4001   19.2767 H   0  0  0  0  0  0
  -25.7059  -19.6229   19.5014 H   0  0  0  0  0  0
  -30.3174  -22.2388   21.6213 H   0  0  0  0  0  0
  -30.1242  -25.0126   22.8821 H   0  0  0  0  0  0
  1 25  1  0  0  0
  1 30  2  0  0  0
  1 83  1  0  0  0
  2  3  1  0  0  0
  2 25  1  0  0  0
  2 88  1  0  0  0
  2 89  1  0  0  0
  3  4  1  0  0  0
  3 90  1  0  0  0
  3 91  1  0  0  0
  4  5  1  0  0  0
  4 92  1  0  0  0
  4 93  1  0  0  0
  5  6  1  0  0  0
  5 26  1  0  0  0
  5 94  1  0  0  0
  6 25  1  0  0  0
  6 95  1  0  0  0
  6 96  1  0  0  0
  7  8  2  0  0  0
  7 26  1  0  0  0
  7 29  1  0  0  0
  8  9  1  0  0  0
  8 22  1  0  0  0
  9 10  1  0  0  0
  9 27  2  0  0  0
 10 11  2  0  0  0
 10 15  1  0  0  0
 11 12  1  0  0  0
 11 97  1  0  0  0
 12 13  2  0  0  0
 12 98  1  0  0  0
 13 14  1  0  0  0
 13 31  1  0  0  0
 14 15  2  0  0  0
 14 99  1  0  0  0
 15100  1  0  0  0
 16 17  2  0  0  0
 16 21  1  0  0  0
 16 31  1  0  0  0
 17 18  1  0  0  0
 17101  1  0  0  0
 18 19  2  0  0  0
 18102  1  0  0  0
 19 20  1  0  0  0
 19 24  1  0  0  0
 20 21  2  0  0  0
 20103  1  0  0  0
 21 23  1  0  0  0
 22 28  1  0  0  0
 22 32  2  0  0  0
 26 27  1  0  0  0
 28104  1  0  0  0
 28105  1  0  0  0
 29106  1  0  0  0
 29107  1  0  0  0
 33 34  1  0  0  0
 33 66  1  0  0  0
 33 70  2  0  0  0
 34 36  1  0  0  0
 34 59  1  0  0  0
 34108  1  0  0  0
 35 44  2  0  0  0
 35 45  1  0  0  0
 35 68  1  0  0  0
 36 56  1  0  0  0
 36109  1  0  0  0
 37 39  1  0  0  0
 37 47  1  0  0  0
 37 66  1  0  0  0
 37110  1  0  0  0
 38 43  2  0  0  0
 38 46  1  0  0  0
 38 47  1  0  0  0
 39 64  1  0  0  0
 39 67  2  0  0  0
 40 52  1  0  0  0
 40 53  2  0  0  0
 40 58  1  0  0  0
 41111  1  0  0  0
 41112  1  0  0  0
 41113  1  0  0  0
 41 48  1  0  0  0
 42 43  1  0  0  0
 42 66  1  0  0  0
 42114  1  0  0  0
 42115  1  0  0  0
 43 44  1  0  0  0
 44116  1  0  0  0
 45 46  2  0  0  0
 45117  1  0  0  0
 46118  1  0  0  0
 47119  1  0  0  0
 47120  1  0  0  0
 48 56  1  0  0  0
 48 65  1  0  0  0
 48121  1  0  0  0
 49 50  1  0  0  0
 49 53  1  0  0  0
 49 64  1  0  0  0
 49122  1  0  0  0
 50 51  1  0  0  0
 50123  1  0  0  0
 50124  1  0  0  0
 51 52  1  0  0  0
 51125  1  0  0  0
 51126  1  0  0  0
 52127  1  0  0  0
 52128  1  0  0  0
 53 54  1  0  0  0
 54 55  2  0  0  0
 54129  1  0  0  0
 55 57  1  0  0  0
 55130  1  0  0  0
 56 69  2  0  0  0
 57 58  2  0  0  0
 57131  1  0  0  0
 58132  1  0  0  0
 59 60  1  0  0  0
 59 61  1  0  0  0
 59 62  1  0  0  0
 60133  1  0  0  0
 60134  1  0  0  0
 60135  1  0  0  0
 61136  1  0  0  0
 61137  1  0  0  0
 61138  1  0  0  0
 62139  1  0  0  0
 62140  1  0  0  0
 62141  1  0  0  0
 63 65  1  0  0  0
 63142  1  0  0  0
 63143  1  0  0  0
 63144  1  0  0  0
 64145  1  0  0  0
 65146  1  0  0  0
 68 76  1  0  0  0
 71 72  1  0  0  0
 71 74  2  0  0  0
 71147  1  0  0  0
 72 73  2  0  0  0
 72 81  1  0  0  0
 73 75  1  0  0  0
 73 86  1  0  0  0
 74 84  1  0  0  0
 74 86  1  0  0  0
 75 83  2  0  0  0
 75148  1  0  0  0
 76 77  2  0  0  0
 76149  1  0  0  0
 77 78  1  0  0  0
 77 87  1  0  0  0
 78 84  1  0  0  0
 78 85  2  0  0  0
 79150  1  0  0  0
 79151  1  0  0  0
 79152  1  0  0  0
 79 82  1  0  0  0
 80 82  1  0  0  0
 80153  1  0  0  0
 80154  1  0  0  0
 80155  1  0  0  0
 81 82  1  0  0  0
 81156  1  0  0  0
 81157  1  0  0  0
 82158  1  0  0  0
 84159  1  0  0  0
 87160  1  0  0  0
M  ISO  4   1 100  68 101  76 101  83 100
M  END
> <chiral flag>
0

> <version>
0

> <s_m_source_file>
/data/baiqing/PycharmProjects/Reinvent-master-3.2/result/LINK_invent/BTK/process_docking_weight1_custom_product_contain_oxygen_bond_distance_aromatic_linkinvent_7_9_3/rearranged_h_0166.sdf

> <i_m_source_file_index>
57

> <r_mmod_Potential_Energy-OPLS-2005>
112.59056854248

> <r_mmod_Stretch_Energy-OPLS-2005>
100.470741271973

> <r_mmod_Bend_Energy-OPLS-2005>
180.877593994141

> <r_mmod_Torsional_Energy-OPLS-2005>
205.535125732422

> <r_mmod_Improper_Torsional_Energy-OPLS-2005>
5.9787859916687

> <r_mmod_Van_der_Waal_Energy-OPLS-2005>
130.063522338867

> <r_mmod_Electrostatic_Energy-OPLS-2005>
-380.642822265625

> <r_mmod_Solvation_Energy-OPLS-2005>
-199.548828125

> <b_mmod_Minimization_Converged-OPLS-2005>
0

> <r_mmod_RMS_Derivative-OPLS-2005>
3.01606798171997

$$$$
58
                    3D
 Structure written by MMmdl.
160169  0  0  1  0            999 V2000
  -30.6582  -14.5805   20.4954 C   0  0  0  0  0  0
  -30.4293  -12.3531   19.4440 C   0  0  0  0  0  0
  -29.5015  -12.4965   18.2177 C   0  0  0  0  0  0
  -28.0244  -12.3440   18.6326 C   0  0  0  0  0  0
  -27.6533  -13.2135   19.8632 C   0  0  2  0  0  0
  -28.6990  -13.0628   20.9922 C   0  0  0  0  0  0
  -25.2558  -13.8173   20.5691 C   0  0  0  0  0  0
  -24.1825  -13.0439   20.9190 C   0  0  0  0  0  0
  -24.6392  -11.6908   20.8755 C   0  0  0  0  0  0
  -23.9059  -10.4292   21.0420 C   0  0  0  0  0  0
  -24.3617   -9.4205   21.9194 C   0  0  0  0  0  0
  -23.6288   -8.2249   22.0756 C   0  0  0  0  0  0
  -22.4274   -8.0288   21.3547 C   0  0  0  0  0  0
  -21.9908   -9.0265   20.4650 C   0  0  0  0  0  0
  -22.7238  -10.2138   20.3062 C   0  0  0  0  0  0
  -21.6852   -6.0743   22.5291 C   0  0  0  0  0  0
  -21.4016   -6.5643   23.8226 C   0  0  0  0  0  0
  -21.3656   -5.6793   24.9189 C   0  0  0  0  0  0
  -21.6038   -4.3056   24.7232 C   0  0  0  0  0  0
  -21.8809   -3.8150   23.4351 C   0  0  0  0  0  0
  -21.9188   -4.6970   22.3410 C   0  0  0  0  0  0
  -22.7847  -13.5239   21.1849 C   0  0  0  0  0  0
  -22.1656   -4.2156   21.0984 F   0  0  0  0  0  0
  -21.5620   -3.4542   25.7744 F   0  0  0  0  0  0
  -30.0212  -13.3741   20.4258 N   0  0  0  0  0  0
  -26.2982  -12.9344   20.3317 N   0  0  0  0  0  0
  -25.9318  -11.6503   20.5766 N   0  0  0  0  0  0
  -22.0479  -12.8248   22.0414 N   0  0  0  0  0  0
  -25.4247  -15.1904   20.4118 N   0  0  0  0  0  0
  -31.8301  -14.7135   20.1280 O   0  0  0  0  0  0
  -21.6626   -6.8898   21.4258 O   0  0  0  0  0  0
  -22.3534  -14.5544   20.6692 O   0  0  0  0  0  0
  -24.6218  -31.8640   23.2051 C   0  0  0  0  0  0
  -25.9084  -32.4803   23.8365 C   0  0  1  0  0  0
  -27.2255  -27.3680   20.1065 C   0  0  0  0  0  0
  -25.5920  -33.8603   24.2297 N   0  0  0  0  0  0
  -23.4126  -30.4871   21.5478 C   0  0  2  0  0  0
  -24.8568  -28.9467   20.1136 C   0  0  0  0  0  0
  -22.7448  -29.4639   22.4961 C   0  0  0  0  0  0
  -18.0281  -28.1379   22.8495 C   0  0  0  0  0  0
  -24.1488  -36.7304   23.2638 C   0  0  0  0  0  0
  -25.9482  -30.8104   21.3669 C   0  0  0  0  0  0
  -26.0230  -29.4401   20.7114 C   0  0  0  0  0  0
  -27.2111  -28.6616   20.6990 C   0  0  0  0  0  0
  -26.0370  -26.9105   19.4916 C   0  0  0  0  0  0
  -24.8622  -27.6847   19.4980 C   0  0  0  0  0  0
  -23.6240  -29.8229   20.1621 C   0  0  0  0  0  0
  -25.4112  -36.3099   24.0331 C   0  0  1  0  0  0
  -20.5881  -28.3679   23.1309 C   0  0  2  0  0  0
  -20.6772  -26.9408   22.5423 C   0  0  0  0  0  0
  -19.5745  -26.6383   21.5223 C   0  0  0  0  0  0
  -18.1924  -26.7921   22.1629 C   0  0  0  0  0  0
  -19.1531  -28.8842   23.2899 C   0  0  0  0  0  0
  -18.9456  -30.1446   23.8918 C   0  0  0  0  0  0
  -17.6457  -30.6582   24.0568 C   0  0  0  0  0  0
  -25.9043  -34.9467   23.5113 C   0  0  0  0  0  0
  -16.5350  -29.9090   23.6323 C   0  0  0  0  0  0
  -16.7267  -28.6501   23.0353 C   0  0  0  0  0  0
  -26.4481  -31.6597   25.0715 C   0  0  0  0  0  0
  -25.3732  -31.3733   26.1458 C   0  0  0  0  0  0
  -27.0307  -30.3030   24.6120 C   0  0  0  0  0  0
  -27.6047  -32.4323   25.7482 C   0  0  0  0  0  0
  -27.5582  -37.1810   24.8466 C   0  0  0  0  0  0
  -21.4166  -29.3040   22.3707 N   0  0  0  0  0  0
  -26.4295  -37.3790   23.9408 N   0  0  0  0  0  0
  -24.6796  -31.0691   22.0979 N   0  0  0  0  0  0
  -23.4194  -28.8187   23.3025 O   0  0  0  0  0  0
  -28.3665  -26.5719   20.1425 O   0  0  0  0  0  0
  -26.5607  -34.8932   22.4673 O   0  0  0  0  0  0
  -23.5394  -32.1421   23.7409 O   0  0  0  0  0  0
  -31.2730  -17.6702   20.5426 C   0  0  0  0  0  0
  -30.9613  -19.0688   20.4530 C   0  0  0  0  0  0
  -30.0771  -17.0022   20.6467 C   0  0  0  0  0  0
  -29.5953  -19.1600   20.4745 C   0  0  0  0  0  0
  -29.4546  -24.3244   20.4833 C   0  0  0  0  0  0
  -29.3909  -22.7860   20.8876 C   0  0  0  0  0  0
  -30.4682  -21.7186   16.5631 C   0  0  0  0  0  0
  -30.1066  -22.7553   17.6291 C   0  0  0  0  0  0
  -29.8223  -20.6725   17.4729 C   0  0  0  0  0  0
  -30.0718  -21.6155   18.6658 C   0  0  0  0  0  0
  -28.1760  -25.1185   20.0904 C   0  0  0  0  0  0
  -29.0576  -21.6561   19.8358 C   0  0  1  0  0  0
  -29.8637  -15.6462   20.7971 N   0  0  0  0  0  0
  -28.7598  -20.3067   20.4185 N   0  0  0  0  0  0
  -30.5485  -24.9058   20.5176 O   0  0  0  0  0  0
  -29.6465  -22.4953   22.0638 O   0  0  0  0  0  0
  -29.0349  -17.9082   20.6228 O   0  0  0  0  0  0
  -31.4738  -12.4557   19.1433 H   0  0  0  0  0  0
  -30.3426  -11.3559   19.8799 H   0  0  0  0  0  0
  -29.7531  -11.7506   17.4626 H   0  0  0  0  0  0
  -29.6536  -13.4699   17.7476 H   0  0  0  0  0  0
  -27.8557  -11.2911   18.8632 H   0  0  0  0  0  0
  -27.3682  -12.5786   17.7933 H   0  0  0  0  0  0
  -27.6722  -14.2480   19.5210 H   0  0  0  0  0  0
  -28.6931  -12.0458   21.3863 H   0  0  0  0  0  0
  -28.4559  -13.7102   21.8374 H   0  0  0  0  0  0
  -25.2775   -9.5667   22.4751 H   0  0  0  0  0  0
  -23.9999   -7.4629   22.7461 H   0  0  0  0  0  0
  -21.0835   -8.8781   19.8958 H   0  0  0  0  0  0
  -22.3706  -10.9675   19.6159 H   0  0  0  0  0  0
  -21.2017   -7.6151   23.9738 H   0  0  0  0  0  0
  -21.1487   -6.0524   25.9093 H   0  0  0  0  0  0
  -22.0590   -2.7613   23.2851 H   0  0  0  0  0  0
  -22.4100  -11.9932   22.4838 H   0  0  0  0  0  0
  -21.1091  -13.1285   22.2599 H   0  0  0  0  0  0
  -24.6501  -15.8381   20.5119 H   0  0  0  0  0  0
  -26.2693  -15.6378   20.0787 H   0  0  0  0  0  0
  -26.7160  -32.5492   23.1127 H   0  0  0  0  0  0
  -25.0091  -33.9754   25.0459 H   0  0  0  0  0  0
  -22.7046  -31.3062   21.4071 H   0  0  0  0  0  0
  -23.3750  -35.9639   23.3307 H   0  0  0  0  0  0
  -24.3583  -36.8914   22.2053 H   0  0  0  0  0  0
  -23.7242  -37.6511   23.6651 H   0  0  0  0  0  0
  -26.0695  -31.5737   20.5970 H   0  0  0  0  0  0
  -26.8332  -30.8623   21.9894 H   0  0  0  0  0  0
  -28.1094  -29.0350   21.1713 H   0  0  0  0  0  0
  -25.9936  -25.9490   19.0012 H   0  0  0  0  0  0
  -23.9670  -27.3012   19.0289 H   0  0  0  0  0  0
  -23.7439  -30.6004   19.4064 H   0  0  0  0  0  0
  -22.7444  -29.2518   19.8592 H   0  0  0  0  0  0
  -25.1289  -36.1958   25.0825 H   0  0  0  0  0  0
  -20.9965  -28.3247   24.1433 H   0  0  0  0  0  0
  -20.5684  -26.2283   23.3617 H   0  0  0  0  0  0
  -21.6642  -26.7450   22.1213 H   0  0  0  0  0  0
  -19.6910  -25.6298   21.1248 H   0  0  0  0  0  0
  -19.6684  -27.3199   20.6759 H   0  0  0  0  0  0
  -17.4201  -26.6683   21.4029 H   0  0  0  0  0  0
  -18.0313  -26.0061   22.9018 H   0  0  0  0  0  0
  -19.7932  -30.7250   24.2302 H   0  0  0  0  0  0
  -17.5015  -31.6268   24.5161 H   0  0  0  0  0  0
  -15.5352  -30.2999   23.7628 H   0  0  0  0  0  0
  -15.8672  -28.0824   22.7065 H   0  0  0  0  0  0
  -24.5898  -30.7083   25.7807 H   0  0  0  0  0  0
  -24.8936  -32.2902   26.4895 H   0  0  0  0  0  0
  -25.8076  -30.8917   27.0227 H   0  0  0  0  0  0
  -26.2858  -29.6799   24.1158 H   0  0  0  0  0  0
  -27.4046  -29.7262   25.4588 H   0  0  0  0  0  0
  -27.8707  -30.4335   23.9293 H   0  0  0  0  0  0
  -27.2658  -33.3621   26.2067 H   0  0  0  0  0  0
  -28.3853  -32.6892   25.0305 H   0  0  0  0  0  0
  -28.0718  -31.8446   26.5396 H   0  0  0  0  0  0
  -28.2608  -38.0099   24.7505 H   0  0  0  0  0  0
  -28.1065  -36.2631   24.6292 H   0  0  0  0  0  0
  -27.2302  -37.1464   25.8870 H   0  0  0  0  0  0
  -20.9330  -29.8771   21.6936 H   0  0  0  0  0  0
  -26.0177  -38.2867   24.1408 H   0  0  0  0  0  0
  -32.2594  -17.2270   20.5465 H   0  0  0  0  0  0
  -31.6652  -19.8839   20.3875 H   0  0  0  0  0  0
  -31.5455  -21.5778   16.4520 H   0  0  0  0  0  0
  -29.9760  -21.8555   15.6000 H   0  0  0  0  0  0
  -29.1281  -23.2075   17.4510 H   0  0  0  0  0  0
  -30.8721  -23.5135   17.8031 H   0  0  0  0  0  0
  -30.3527  -19.7207   17.5232 H   0  0  0  0  0  0
  -28.7614  -20.5255   17.2616 H   0  0  0  0  0  0
  -31.0922  -21.4763   19.0259 H   0  0  0  0  0  0
  -27.3677  -24.8259   20.7623 H   0  0  0  0  0  0
  -27.8892  -24.8163   19.0836 H   0  0  0  0  0  0
  -28.1115  -21.9569   19.3853 H   0  0  0  0  0  0
  -28.9186  -15.3881   21.0315 H   0  0  0  0  0  0
  -27.7716  -20.1300   20.5690 H   0  0  0  0  0  0
  1 25  1  0  0  0
  1 30  2  0  0  0
  1 83  1  0  0  0
  2  3  1  0  0  0
  2 25  1  0  0  0
  2 88  1  0  0  0
  2 89  1  0  0  0
  3  4  1  0  0  0
  3 90  1  0  0  0
  3 91  1  0  0  0
  4  5  1  0  0  0
  4 92  1  0  0  0
  4 93  1  0  0  0
  5  6  1  0  0  0
  5 26  1  0  0  0
  5 94  1  0  0  0
  6 25  1  0  0  0
  6 95  1  0  0  0
  6 96  1  0  0  0
  7  8  2  0  0  0
  7 26  1  0  0  0
  7 29  1  0  0  0
  8  9  1  0  0  0
  8 22  1  0  0  0
  9 10  1  0  0  0
  9 27  2  0  0  0
 10 11  2  0  0  0
 10 15  1  0  0  0
 11 12  1  0  0  0
 11 97  1  0  0  0
 12 13  2  0  0  0
 12 98  1  0  0  0
 13 14  1  0  0  0
 13 31  1  0  0  0
 14 15  2  0  0  0
 14 99  1  0  0  0
 15100  1  0  0  0
 16 17  2  0  0  0
 16 21  1  0  0  0
 16 31  1  0  0  0
 17 18  1  0  0  0
 17101  1  0  0  0
 18 19  2  0  0  0
 18102  1  0  0  0
 19 20  1  0  0  0
 19 24  1  0  0  0
 20 21  2  0  0  0
 20103  1  0  0  0
 21 23  1  0  0  0
 22 28  1  0  0  0
 22 32  2  0  0  0
 26 27  1  0  0  0
 28104  1  0  0  0
 28105  1  0  0  0
 29106  1  0  0  0
 29107  1  0  0  0
 33 34  1  0  0  0
 33 66  1  0  0  0
 33 70  2  0  0  0
 34 36  1  0  0  0
 34 59  1  0  0  0
 34108  1  0  0  0
 35 44  2  0  0  0
 35 45  1  0  0  0
 35 68  1  0  0  0
 36 56  1  0  0  0
 36109  1  0  0  0
 37 39  1  0  0  0
 37 47  1  0  0  0
 37 66  1  0  0  0
 37110  1  0  0  0
 38 43  2  0  0  0
 38 46  1  0  0  0
 38 47  1  0  0  0
 39 64  1  0  0  0
 39 67  2  0  0  0
 40 52  1  0  0  0
 40 53  2  0  0  0
 40 58  1  0  0  0
 41111  1  0  0  0
 41112  1  0  0  0
 41113  1  0  0  0
 41 48  1  0  0  0
 42 43  1  0  0  0
 42 66  1  0  0  0
 42114  1  0  0  0
 42115  1  0  0  0
 43 44  1  0  0  0
 44116  1  0  0  0
 45 46  2  0  0  0
 45117  1  0  0  0
 46118  1  0  0  0
 47119  1  0  0  0
 47120  1  0  0  0
 48 56  1  0  0  0
 48 65  1  0  0  0
 48121  1  0  0  0
 49 50  1  0  0  0
 49 53  1  0  0  0
 49 64  1  0  0  0
 49122  1  0  0  0
 50 51  1  0  0  0
 50123  1  0  0  0
 50124  1  0  0  0
 51 52  1  0  0  0
 51125  1  0  0  0
 51126  1  0  0  0
 52127  1  0  0  0
 52128  1  0  0  0
 53 54  1  0  0  0
 54 55  2  0  0  0
 54129  1  0  0  0
 55 57  1  0  0  0
 55130  1  0  0  0
 56 69  2  0  0  0
 57 58  2  0  0  0
 57131  1  0  0  0
 58132  1  0  0  0
 59 60  1  0  0  0
 59 61  1  0  0  0
 59 62  1  0  0  0
 60133  1  0  0  0
 60134  1  0  0  0
 60135  1  0  0  0
 61136  1  0  0  0
 61137  1  0  0  0
 61138  1  0  0  0
 62139  1  0  0  0
 62140  1  0  0  0
 62141  1  0  0  0
 63 65  1  0  0  0
 63142  1  0  0  0
 63143  1  0  0  0
 63144  1  0  0  0
 64145  1  0  0  0
 65146  1  0  0  0
 68 81  1  0  0  0
 71 72  1  0  0  0
 71 73  2  0  0  0
 71147  1  0  0  0
 72 74  2  0  0  0
 72148  1  0  0  0
 73 83  1  0  0  0
 73 87  1  0  0  0
 74 84  1  0  0  0
 74 87  1  0  0  0
 75 76  1  0  0  0
 75 81  1  0  0  0
 75 85  2  0  0  0
 76 82  1  0  0  0
 76 86  2  0  0  0
 77 78  1  0  0  0
 77 79  1  0  0  0
 77149  1  0  0  0
 77150  1  0  0  0
 78151  1  0  0  0
 78152  1  0  0  0
 78 80  1  0  0  0
 79 80  1  0  0  0
 79153  1  0  0  0
 79154  1  0  0  0
 80 82  1  0  0  0
 80155  1  0  0  0
 81156  1  0  0  0
 81157  1  0  0  0
 82 84  1  0  0  0
 82158  1  0  0  0
 83159  1  0  0  0
 84160  1  0  0  0
M  ISO  4   1 100  68 101  81 101  83 100
M  END
> <chiral flag>
0

> <version>
0

> <s_m_source_file>
/data/baiqing/PycharmProjects/Reinvent-master-3.2/result/LINK_invent/BTK/process_docking_weight1_custom_product_contain_oxygen_bond_distance_aromatic_linkinvent_7_9_3/rearranged_h_0166.sdf

> <i_m_source_file_index>
58

> <r_mmod_Potential_Energy-OPLS-2005>
133.197280883789

> <r_mmod_Stretch_Energy-OPLS-2005>
60.7315368652344

> <r_mmod_Bend_Energy-OPLS-2005>
159.002166748047

> <r_mmod_Torsional_Energy-OPLS-2005>
270.796997070312

> <r_mmod_Improper_Torsional_Energy-OPLS-2005>
5.79098033905029

> <r_mmod_Van_der_Waal_Energy-OPLS-2005>
123.368125915527

> <r_mmod_Electrostatic_Energy-OPLS-2005>
-261.234069824219

> <r_mmod_Solvation_Energy-OPLS-2005>
-256.676361083984

> <b_mmod_Minimization_Converged-OPLS-2005>
0

> <r_mmod_RMS_Derivative-OPLS-2005>
1.6398514509201

$$$$
59
                    3D
 Structure written by MMmdl.
159167  0  0  1  0            999 V2000
  -30.7232  -14.4203   20.6345 C   0  0  0  0  0  0
  -30.4194  -12.3021   19.4028 C   0  0  0  0  0  0
  -29.4866  -12.5166   18.1951 C   0  0  0  0  0  0
  -28.0096  -12.3740   18.6113 C   0  0  0  0  0  0
  -27.6628  -13.2019   19.8777 C   0  0  2  0  0  0
  -28.7017  -12.9547   20.9924 C   0  0  0  0  0  0
  -25.2620  -13.8172   20.5701 C   0  0  0  0  0  0
  -24.1847  -13.0452   20.9151 C   0  0  0  0  0  0
  -24.6382  -11.6909   20.8712 C   0  0  0  0  0  0
  -23.9046  -10.4299   21.0394 C   0  0  0  0  0  0
  -24.3605   -9.4217   21.9175 C   0  0  0  0  0  0
  -23.6289   -8.2252   22.0750 C   0  0  0  0  0  0
  -22.4270   -8.0283   21.3544 C   0  0  0  0  0  0
  -21.9899   -9.0250   20.4644 C   0  0  0  0  0  0
  -22.7220  -10.2134   20.3049 C   0  0  0  0  0  0
  -21.6853   -6.0734   22.5277 C   0  0  0  0  0  0
  -21.4016   -6.5640   23.8210 C   0  0  0  0  0  0
  -21.3660   -5.6795   24.9173 C   0  0  0  0  0  0
  -21.6043   -4.3057   24.7224 C   0  0  0  0  0  0
  -21.8820   -3.8147   23.4348 C   0  0  0  0  0  0
  -21.9194   -4.6963   22.3402 C   0  0  0  0  0  0
  -22.7873  -13.5256   21.1827 C   0  0  0  0  0  0
  -22.1662   -4.2150   21.0981 F   0  0  0  0  0  0
  -21.5627   -3.4541   25.7737 F   0  0  0  0  0  0
  -30.0343  -13.2644   20.4455 N   0  0  0  0  0  0
  -26.3033  -12.9315   20.3380 N   0  0  0  0  0  0
  -25.9305  -11.6476   20.5747 N   0  0  0  0  0  0
  -22.0517  -12.8242   22.0383 N   0  0  0  0  0  0
  -25.4423  -15.1894   20.4218 N   0  0  0  0  0  0
  -31.8115  -14.6491   20.0983 O   0  0  0  0  0  0
  -21.6641   -6.8876   21.4241 O   0  0  0  0  0  0
  -22.3550  -14.5563   20.6686 O   0  0  0  0  0  0
  -24.6118  -31.8674   23.2107 C   0  0  0  0  0  0
  -25.9017  -32.4820   23.8394 C   0  0  1  0  0  0
  -27.2382  -27.4506   20.1016 C   0  0  0  0  0  0
  -25.5887  -33.8620   24.2328 N   0  0  0  0  0  0
  -23.3995  -30.4888   21.5504 C   0  0  2  0  0  0
  -24.8463  -28.9483   20.1209 C   0  0  0  0  0  0
  -22.7391  -29.4653   22.5011 C   0  0  0  0  0  0
  -18.0260  -28.1375   22.8483 C   0  0  0  0  0  0
  -24.1491  -36.7318   23.2639 C   0  0  0  0  0  0
  -25.9241  -30.8395   21.3578 C   0  0  0  0  0  0
  -26.0029  -29.4715   20.7122 C   0  0  0  0  0  0
  -27.2031  -28.7307   20.6957 C   0  0  0  0  0  0
  -26.0693  -26.9293   19.5123 C   0  0  0  0  0  0
  -24.8728  -27.6752   19.5198 C   0  0  0  0  0  0
  -23.6072  -29.8142   20.1669 C   0  0  0  0  0  0
  -25.4111  -36.3112   24.0343 C   0  0  1  0  0  0
  -20.5848  -28.3650   23.1332 C   0  0  2  0  0  0
  -20.6751  -26.9391   22.5425 C   0  0  0  0  0  0
  -19.5733  -26.6384   21.5211 C   0  0  0  0  0  0
  -18.1911  -26.7919   22.1622 C   0  0  0  0  0  0
  -19.1510  -28.8830   23.2901 C   0  0  0  0  0  0
  -18.9444  -30.1434   23.8911 C   0  0  0  0  0  0
  -17.6449  -30.6579   24.0566 C   0  0  0  0  0  0
  -25.9036  -34.9474   23.5138 C   0  0  0  0  0  0
  -16.5338  -29.9083   23.6324 C   0  0  0  0  0  0
  -16.7250  -28.6505   23.0335 C   0  0  0  0  0  0
  -26.4458  -31.6588   25.0711 C   0  0  0  0  0  0
  -25.3739  -31.3679   26.1473 C   0  0  0  0  0  0
  -27.0282  -30.3040   24.6052 C   0  0  0  0  0  0
  -27.6046  -32.4293   25.7466 C   0  0  0  0  0  0
  -27.5583  -37.1806   24.8461 C   0  0  0  0  0  0
  -21.4123  -29.3025   22.3750 N   0  0  0  0  0  0
  -26.4294  -37.3796   23.9415 N   0  0  0  0  0  0
  -24.6637  -31.0793   22.0992 N   0  0  0  0  0  0
  -23.4167  -28.8202   23.3053 O   0  0  0  0  0  0
  -28.4281  -26.7659   20.0399 O   0  0  0  0  0  0
  -26.5601  -34.8919   22.4697 O   0  0  0  0  0  0
  -23.5318  -32.1411   23.7526 O   0  0  0  0  0  0
  -30.4754  -19.0730   22.1587 C   0  0  0  0  0  0
  -29.9728  -20.3623   21.9026 C   0  0  0  0  0  0
  -29.9870  -17.9325   21.4830 C   0  0  0  0  0  0
  -28.9607  -20.5562   20.9360 C   0  0  0  0  0  0
  -28.9408  -18.1178   20.5329 C   0  0  0  0  0  0
  -28.4395  -19.4209   20.2760 C   0  0  0  0  0  0
  -29.0104  -23.0484   20.6943 C   0  0  0  0  0  0
  -28.0839  -25.8167   22.3181 C   0  0  0  0  0  0
  -30.6821  -16.6070   21.8547 C   0  0  0  0  0  0
  -28.2019  -24.2797   20.2267 C   0  0  0  0  0  0
  -28.6275  -25.6232   20.8877 C   0  0  1  0  0  0
  -28.3848  -17.0627   19.8049 N   0  0  0  0  0  0
  -28.4181  -21.8400   20.6076 N   0  0  0  0  0  0
  -30.1136  -15.3317   21.4078 N   0  0  0  0  0  0
  -30.1693  -23.1958   21.0897 O   0  0  0  0  0  0
  -27.4547  -19.5854   19.3565 F   0  0  0  0  0  0
  -31.4622  -12.4085   19.0984 H   0  0  0  0  0  0
  -30.3243  -11.2843   19.7830 H   0  0  0  0  0  0
  -29.7228  -11.8020   17.4055 H   0  0  0  0  0  0
  -29.6537  -13.5079   17.7697 H   0  0  0  0  0  0
  -27.8181  -11.3165   18.7959 H   0  0  0  0  0  0
  -27.3569  -12.6600   17.7854 H   0  0  0  0  0  0
  -27.7156  -14.2537   19.5976 H   0  0  0  0  0  0
  -28.6749  -11.9107   21.3081 H   0  0  0  0  0  0
  -28.4541  -13.5282   21.8859 H   0  0  0  0  0  0
  -25.2751   -9.5700   22.4743 H   0  0  0  0  0  0
  -24.0001   -7.4648   22.7469 H   0  0  0  0  0  0
  -21.0831   -8.8763   19.8950 H   0  0  0  0  0  0
  -22.3673  -10.9670   19.6156 H   0  0  0  0  0  0
  -21.2010   -7.6149   23.9714 H   0  0  0  0  0  0
  -21.1480   -6.0525   25.9076 H   0  0  0  0  0  0
  -22.0599   -2.7610   23.2846 H   0  0  0  0  0  0
  -22.4134  -11.9895   22.4756 H   0  0  0  0  0  0
  -21.1138  -13.1264   22.2599 H   0  0  0  0  0  0
  -24.6936  -15.8568   20.5679 H   0  0  0  0  0  0
  -26.3299  -15.6358   20.2056 H   0  0  0  0  0  0
  -26.7086  -32.5540   23.1158 H   0  0  0  0  0  0
  -25.0035  -33.9779   25.0472 H   0  0  0  0  0  0
  -22.6882  -31.3050   21.4089 H   0  0  0  0  0  0
  -23.3749  -35.9654   23.3307 H   0  0  0  0  0  0
  -24.3586  -36.8931   22.2052 H   0  0  0  0  0  0
  -23.7244  -37.6527   23.6646 H   0  0  0  0  0  0
  -26.0278  -31.6028   20.5854 H   0  0  0  0  0  0
  -26.8161  -30.8998   21.9699 H   0  0  0  0  0  0
  -28.1032  -29.1362   21.1364 H   0  0  0  0  0  0
  -26.0905  -25.9604   19.0355 H   0  0  0  0  0  0
  -23.9832  -27.2683   19.0589 H   0  0  0  0  0  0
  -23.7134  -30.5861   19.4039 H   0  0  0  0  0  0
  -22.7321  -29.2312   19.8737 H   0  0  0  0  0  0
  -25.1281  -36.1981   25.0836 H   0  0  0  0  0  0
  -20.9927  -28.3204   24.1460 H   0  0  0  0  0  0
  -20.5658  -26.2251   23.3605 H   0  0  0  0  0  0
  -21.6621  -26.7435   22.1217 H   0  0  0  0  0  0
  -19.6905  -25.6303   21.1223 H   0  0  0  0  0  0
  -19.6688  -27.3212   20.6757 H   0  0  0  0  0  0
  -17.4185  -26.6663   21.4021 H   0  0  0  0  0  0
  -18.0305  -26.0064   22.9021 H   0  0  0  0  0  0
  -19.7922  -30.7238   24.2295 H   0  0  0  0  0  0
  -17.5006  -31.6262   24.5160 H   0  0  0  0  0  0
  -15.5338  -30.2993   23.7643 H   0  0  0  0  0  0
  -15.8649  -28.0838   22.7034 H   0  0  0  0  0  0
  -24.5917  -30.7018   25.7813 H   0  0  0  0  0  0
  -24.8921  -32.2826   26.4933 H   0  0  0  0  0  0
  -25.8109  -30.8841   27.0217 H   0  0  0  0  0  0
  -26.2810  -29.6811   24.1121 H   0  0  0  0  0  0
  -27.4093  -29.7259   25.4479 H   0  0  0  0  0  0
  -27.8621  -30.4382   23.9160 H   0  0  0  0  0  0
  -27.2680  -33.3585   26.2071 H   0  0  0  0  0  0
  -28.3835  -32.6861   25.0276 H   0  0  0  0  0  0
  -28.0728  -31.8394   26.5357 H   0  0  0  0  0  0
  -28.2590  -38.0109   24.7521 H   0  0  0  0  0  0
  -28.1087  -36.2646   24.6266 H   0  0  0  0  0  0
  -27.2302  -37.1428   25.8861 H   0  0  0  0  0  0
  -20.9281  -29.8753   21.6983 H   0  0  0  0  0  0
  -26.0189  -38.2875   24.1422 H   0  0  0  0  0  0
  -31.2639  -18.9625   22.8905 H   0  0  0  0  0  0
  -30.3828  -21.1914   22.4600 H   0  0  0  0  0  0
  -28.4024  -25.0032   22.9703 H   0  0  0  0  0  0
  -26.9940  -25.8459   22.3376 H   0  0  0  0  0  0
  -28.4508  -26.7462   22.7551 H   0  0  0  0  0  0
  -30.7132  -16.5537   22.9435 H   0  0  0  0  0  0
  -31.7252  -16.6916   21.5457 H   0  0  0  0  0  0
  -27.1360  -24.1085   20.3788 H   0  0  0  0  0  0
  -28.3496  -24.3534   19.1495 H   0  0  0  0  0  0
  -29.7133  -25.6184   20.9851 H   0  0  0  0  0  0
  -29.0264  -16.3153   19.5791 H   0  0  0  0  0  0
  -27.8520  -17.3632   18.9951 H   0  0  0  0  0  0
  -27.5129  -21.8161   20.1566 H   0  0  0  0  0  0
  -29.2000  -15.0931   21.7635 H   0  0  0  0  0  0
  1 25  1  0  0  0
  1 30  2  0  0  0
  1 84  1  0  0  0
  2  3  1  0  0  0
  2 25  1  0  0  0
  2 87  1  0  0  0
  2 88  1  0  0  0
  3  4  1  0  0  0
  3 89  1  0  0  0
  3 90  1  0  0  0
  4  5  1  0  0  0
  4 91  1  0  0  0
  4 92  1  0  0  0
  5  6  1  0  0  0
  5 26  1  0  0  0
  5 93  1  0  0  0
  6 25  1  0  0  0
  6 94  1  0  0  0
  6 95  1  0  0  0
  7  8  2  0  0  0
  7 26  1  0  0  0
  7 29  1  0  0  0
  8  9  1  0  0  0
  8 22  1  0  0  0
  9 10  1  0  0  0
  9 27  2  0  0  0
 10 11  2  0  0  0
 10 15  1  0  0  0
 11 12  1  0  0  0
 11 96  1  0  0  0
 12 13  2  0  0  0
 12 97  1  0  0  0
 13 14  1  0  0  0
 13 31  1  0  0  0
 14 15  2  0  0  0
 14 98  1  0  0  0
 15 99  1  0  0  0
 16 17  2  0  0  0
 16 21  1  0  0  0
 16 31  1  0  0  0
 17 18  1  0  0  0
 17100  1  0  0  0
 18 19  2  0  0  0
 18101  1  0  0  0
 19 20  1  0  0  0
 19 24  1  0  0  0
 20 21  2  0  0  0
 20102  1  0  0  0
 21 23  1  0  0  0
 22 28  1  0  0  0
 22 32  2  0  0  0
 26 27  1  0  0  0
 28103  1  0  0  0
 28104  1  0  0  0
 29105  1  0  0  0
 29106  1  0  0  0
 33 34  1  0  0  0
 33 66  1  0  0  0
 33 70  2  0  0  0
 34 36  1  0  0  0
 34 59  1  0  0  0
 34107  1  0  0  0
 35 44  2  0  0  0
 35 45  1  0  0  0
 35 68  1  0  0  0
 36 56  1  0  0  0
 36108  1  0  0  0
 37 39  1  0  0  0
 37 47  1  0  0  0
 37 66  1  0  0  0
 37109  1  0  0  0
 38 43  2  0  0  0
 38 46  1  0  0  0
 38 47  1  0  0  0
 39 64  1  0  0  0
 39 67  2  0  0  0
 40 52  1  0  0  0
 40 53  2  0  0  0
 40 58  1  0  0  0
 41110  1  0  0  0
 41111  1  0  0  0
 41112  1  0  0  0
 41 48  1  0  0  0
 42 43  1  0  0  0
 42 66  1  0  0  0
 42113  1  0  0  0
 42114  1  0  0  0
 43 44  1  0  0  0
 44115  1  0  0  0
 45 46  2  0  0  0
 45116  1  0  0  0
 46117  1  0  0  0
 47118  1  0  0  0
 47119  1  0  0  0
 48 56  1  0  0  0
 48 65  1  0  0  0
 48120  1  0  0  0
 49 50  1  0  0  0
 49 53  1  0  0  0
 49 64  1  0  0  0
 49121  1  0  0  0
 50 51  1  0  0  0
 50122  1  0  0  0
 50123  1  0  0  0
 51 52  1  0  0  0
 51124  1  0  0  0
 51125  1  0  0  0
 52126  1  0  0  0
 52127  1  0  0  0
 53 54  1  0  0  0
 54 55  2  0  0  0
 54128  1  0  0  0
 55 57  1  0  0  0
 55129  1  0  0  0
 56 69  2  0  0  0
 57 58  2  0  0  0
 57130  1  0  0  0
 58131  1  0  0  0
 59 60  1  0  0  0
 59 61  1  0  0  0
 59 62  1  0  0  0
 60132  1  0  0  0
 60133  1  0  0  0
 60134  1  0  0  0
 61135  1  0  0  0
 61136  1  0  0  0
 61137  1  0  0  0
 62138  1  0  0  0
 62139  1  0  0  0
 62140  1  0  0  0
 63 65  1  0  0  0
 63141  1  0  0  0
 63142  1  0  0  0
 63143  1  0  0  0
 64144  1  0  0  0
 65145  1  0  0  0
 68 81  1  0  0  0
 71 72  2  0  0  0
 71 73  1  0  0  0
 71146  1  0  0  0
 72 74  1  0  0  0
 72147  1  0  0  0
 73 75  2  0  0  0
 73 79  1  0  0  0
 74 76  2  0  0  0
 74 83  1  0  0  0
 75 76  1  0  0  0
 75 82  1  0  0  0
 76 86  1  0  0  0
 77 80  1  0  0  0
 77 83  1  0  0  0
 77 85  2  0  0  0
 78148  1  0  0  0
 78149  1  0  0  0
 78150  1  0  0  0
 78 81  1  0  0  0
 79 84  1  0  0  0
 79151  1  0  0  0
 79152  1  0  0  0
 80 81  1  0  0  0
 80153  1  0  0  0
 80154  1  0  0  0
 81155  1  0  0  0
 82156  1  0  0  0
 82157  1  0  0  0
 83158  1  0  0  0
 84159  1  0  0  0
M  ISO  4   1 100  68 101  81 101  84 100
M  END
> <chiral flag>
0

> <version>
0

> <s_m_source_file>
/data/baiqing/PycharmProjects/Reinvent-master-3.2/result/LINK_invent/BTK/process_docking_weight1_custom_product_contain_oxygen_bond_distance_aromatic_linkinvent_7_9_3/rearranged_h_0166.sdf

> <i_m_source_file_index>
59

> <r_mmod_Potential_Energy-OPLS-2005>
-88.1571731567383

> <r_mmod_Stretch_Energy-OPLS-2005>
38.0464935302734

> <r_mmod_Bend_Energy-OPLS-2005>
117.445083618164

> <r_mmod_Torsional_Energy-OPLS-2005>
220.879928588867

> <r_mmod_Improper_Torsional_Energy-OPLS-2005>
7.0626335144043

> <r_mmod_Van_der_Waal_Energy-OPLS-2005>
158.11735534668

> <r_mmod_Electrostatic_Energy-OPLS-2005>
-420.861083984375

> <r_mmod_Solvation_Energy-OPLS-2005>
-217.021408081055

> <b_mmod_Minimization_Converged-OPLS-2005>
0

> <r_mmod_RMS_Derivative-OPLS-2005>
0.871489346027374

$$$$
60
                    3D
 Structure written by MMmdl.
151159  0  0  1  0            999 V2000
  -30.7032  -14.5261   20.5148 C   0  0  0  0  0  0
  -30.4076  -12.3268   19.4454 C   0  0  0  0  0  0
  -29.4908  -12.4833   18.2153 C   0  0  0  0  0  0
  -28.0115  -12.3528   18.6260 C   0  0  0  0  0  0
  -27.6478  -13.2233   19.8602 C   0  0  2  0  0  0
  -28.6905  -13.0743   20.9912 C   0  0  0  0  0  0
  -25.2515  -13.8188   20.5713 C   0  0  0  0  0  0
  -24.1800  -13.0435   20.9218 C   0  0  0  0  0  0
  -24.6378  -11.6920   20.8763 C   0  0  0  0  0  0
  -23.9066  -10.4294   21.0410 C   0  0  0  0  0  0
  -24.3619   -9.4203   21.9181 C   0  0  0  0  0  0
  -23.6300   -8.2232   22.0750 C   0  0  0  0  0  0
  -22.4277   -8.0277   21.3545 C   0  0  0  0  0  0
  -21.9915   -9.0253   20.4647 C   0  0  0  0  0  0
  -22.7242  -10.2130   20.3057 C   0  0  0  0  0  0
  -21.6848   -6.0741   22.5285 C   0  0  0  0  0  0
  -21.4012   -6.5645   23.8223 C   0  0  0  0  0  0
  -21.3662   -5.6795   24.9182 C   0  0  0  0  0  0
  -21.6043   -4.3057   24.7226 C   0  0  0  0  0  0
  -21.8811   -3.8154   23.4349 C   0  0  0  0  0  0
  -21.9178   -4.6973   22.3405 C   0  0  0  0  0  0
  -22.7812  -13.5223   21.1867 C   0  0  0  0  0  0
  -22.1649   -4.2161   21.0981 F   0  0  0  0  0  0
  -21.5627   -3.4540   25.7735 F   0  0  0  0  0  0
  -30.0128  -13.3567   20.4210 N   0  0  0  0  0  0
  -26.2957  -12.9406   20.3332 N   0  0  0  0  0  0
  -25.9306  -11.6549   20.5773 N   0  0  0  0  0  0
  -22.0434  -12.8234   22.0428 N   0  0  0  0  0  0
  -25.4168  -15.1918   20.4144 N   0  0  0  0  0  0
  -31.8753  -14.6166   20.1411 O   0  0  0  0  0  0
  -21.6633   -6.8881   21.4246 O   0  0  0  0  0  0
  -22.3505  -14.5525   20.6698 O   0  0  0  0  0  0
  -24.6149  -31.8665   23.2077 C   0  0  0  0  0  0
  -25.9038  -32.4820   23.8383 C   0  0  1  0  0  0
  -27.2269  -27.4094   20.1222 C   0  0  0  0  0  0
  -25.5875  -33.8619   24.2304 N   0  0  0  0  0  0
  -23.4054  -30.4889   21.5478 C   0  0  2  0  0  0
  -24.8534  -28.9498   20.1167 C   0  0  0  0  0  0
  -22.7415  -29.4653   22.4971 C   0  0  0  0  0  0
  -18.0279  -28.1376   22.8497 C   0  0  0  0  0  0
  -24.1479  -36.7321   23.2642 C   0  0  0  0  0  0
  -25.9352  -30.8270   21.3633 C   0  0  0  0  0  0
  -26.0136  -29.4598   20.7119 C   0  0  0  0  0  0
  -27.2085  -28.6994   20.7039 C   0  0  0  0  0  0
  -26.0524  -26.9176   19.5181 C   0  0  0  0  0  0
  -24.8691  -27.6809   19.5117 C   0  0  0  0  0  0
  -23.6165  -29.8201   20.1632 C   0  0  0  0  0  0
  -25.4099  -36.3097   24.0329 C   0  0  1  0  0  0
  -20.5868  -28.3666   23.1319 C   0  0  2  0  0  0
  -20.6759  -26.9398   22.5421 C   0  0  0  0  0  0
  -19.5737  -26.6383   21.5210 C   0  0  0  0  0  0
  -18.1919  -26.7924   22.1626 C   0  0  0  0  0  0
  -19.1529  -28.8835   23.2907 C   0  0  0  0  0  0
  -18.9455  -30.1441   23.8920 C   0  0  0  0  0  0
  -17.6462  -30.6589   24.0568 C   0  0  0  0  0  0
  -25.9028  -34.9473   23.5112 C   0  0  0  0  0  0
  -16.5346  -29.9091   23.6327 C   0  0  0  0  0  0
  -16.7267  -28.6502   23.0358 C   0  0  0  0  0  0
  -26.4467  -31.6616   25.0716 C   0  0  0  0  0  0
  -25.3718  -31.3747   26.1466 C   0  0  0  0  0  0
  -27.0320  -30.3054   24.6125 C   0  0  0  0  0  0
  -27.6038  -32.4342   25.7482 C   0  0  0  0  0  0
  -27.5577  -37.1797   24.8454 C   0  0  0  0  0  0
  -21.4145  -29.3036   22.3721 N   0  0  0  0  0  0
  -26.4283  -37.3783   23.9407 N   0  0  0  0  0  0
  -24.6701  -31.0764   22.0977 N   0  0  0  0  0  0
  -23.4182  -28.8189   23.3011 O   0  0  0  0  0  0
  -28.3694  -26.6355   20.1395 O   0  0  0  0  0  0
  -26.5612  -34.8923   22.4687 O   0  0  0  0  0  0
  -23.5342  -32.1421   23.7470 O   0  0  0  0  0  0
  -29.6941  -19.3441   19.9748 C   0  0  0  0  0  0
  -28.5968  -19.7509   21.8846 C   0  0  0  0  0  0
  -28.9749  -20.3349   20.7055 C   0  0  0  0  0  0
  -29.7746  -18.2328   20.7814 C   0  0  0  0  0  0
  -28.3179  -22.7730   20.8958 C   0  0  0  0  0  0
  -30.6316  -16.9852   20.6811 C   0  0  0  0  0  0
  -28.2427  -24.0981   20.0847 C   0  0  0  0  0  0
  -28.2910  -25.4155   20.9184 C   0  0  0  0  0  0
  -28.7551  -21.6756   20.2346 N   0  0  0  0  0  0
  -30.0108  -15.6485   20.8247 N   0  0  0  0  0  0
  -27.9759  -22.7501   22.0803 O   0  0  0  0  0  0
  -29.0858  -18.4644   21.9437 O   0  0  0  0  0  0
  -31.4545  -12.4030   19.1468 H   0  0  0  0  0  0
  -30.2985  -11.3340   19.8851 H   0  0  0  0  0  0
  -29.7362  -11.7299   17.4652 H   0  0  0  0  0  0
  -29.6584  -13.4525   17.7429 H   0  0  0  0  0  0
  -27.8227  -11.3013   18.8453 H   0  0  0  0  0  0
  -27.3636  -12.6039   17.7851 H   0  0  0  0  0  0
  -27.6691  -14.2603   19.5243 H   0  0  0  0  0  0
  -28.6706  -12.0647   21.4029 H   0  0  0  0  0  0
  -28.4609  -13.7446   21.8215 H   0  0  0  0  0  0
  -25.2754   -9.5674   22.4774 H   0  0  0  0  0  0
  -24.0003   -7.4616   22.7470 H   0  0  0  0  0  0
  -21.0840   -8.8775   19.8964 H   0  0  0  0  0  0
  -22.3694  -10.9673   19.6181 H   0  0  0  0  0  0
  -21.2015   -7.6156   23.9731 H   0  0  0  0  0  0
  -21.1493   -6.0526   25.9083 H   0  0  0  0  0  0
  -22.0587   -2.7623   23.2839 H   0  0  0  0  0  0
  -22.4047  -11.9938   22.4908 H   0  0  0  0  0  0
  -21.1033  -13.1253   22.2558 H   0  0  0  0  0  0
  -24.6465  -15.8399   20.5402 H   0  0  0  0  0  0
  -26.2629  -15.6430   20.0916 H   0  0  0  0  0  0
  -26.7115  -32.5531   23.1153 H   0  0  0  0  0  0
  -24.9972  -33.9777   25.0408 H   0  0  0  0  0  0
  -22.6939  -31.3054   21.4062 H   0  0  0  0  0  0
  -23.3724  -35.9673   23.3314 H   0  0  0  0  0  0
  -24.3560  -36.8937   22.2051 H   0  0  0  0  0  0
  -23.7260  -37.6538   23.6659 H   0  0  0  0  0  0
  -26.0497  -31.5925   20.5935 H   0  0  0  0  0  0
  -26.8216  -30.8812   21.9837 H   0  0  0  0  0  0
  -28.1059  -29.0854   21.1663 H   0  0  0  0  0  0
  -26.0459  -25.9419   19.0564 H   0  0  0  0  0  0
  -23.9768  -27.2847   19.0468 H   0  0  0  0  0  0
  -23.7272  -30.5935   19.4024 H   0  0  0  0  0  0
  -22.7403  -29.2400   19.8681 H   0  0  0  0  0  0
  -25.1282  -36.1957   25.0823 H   0  0  0  0  0  0
  -20.9966  -28.3229   24.1437 H   0  0  0  0  0  0
  -20.5643  -26.2272   23.3607 H   0  0  0  0  0  0
  -21.6633  -26.7428   22.1220 H   0  0  0  0  0  0
  -19.6890  -25.6291   21.1244 H   0  0  0  0  0  0
  -19.6680  -27.3193   20.6739 H   0  0  0  0  0  0
  -17.4187  -26.6686   21.4036 H   0  0  0  0  0  0
  -18.0322  -26.0059   22.9019 H   0  0  0  0  0  0
  -19.7934  -30.7252   24.2299 H   0  0  0  0  0  0
  -17.5018  -31.6274   24.5165 H   0  0  0  0  0  0
  -15.5352  -30.3005   23.7630 H   0  0  0  0  0  0
  -15.8666  -28.0826   22.7062 H   0  0  0  0  0  0
  -24.5852  -30.7141   25.7808 H   0  0  0  0  0  0
  -24.8952  -32.2918   26.4935 H   0  0  0  0  0  0
  -25.8053  -30.8898   27.0220 H   0  0  0  0  0  0
  -26.2890  -29.6805   24.1157 H   0  0  0  0  0  0
  -27.4067  -29.7308   25.4606 H   0  0  0  0  0  0
  -27.8732  -30.4382   23.9308 H   0  0  0  0  0  0
  -27.2639  -33.3604   26.2137 H   0  0  0  0  0  0
  -28.3809  -32.6991   25.0291 H   0  0  0  0  0  0
  -28.0763  -31.8437   26.5337 H   0  0  0  0  0  0
  -28.2601  -38.0088   24.7500 H   0  0  0  0  0  0
  -28.1067  -36.2625   24.6276 H   0  0  0  0  0  0
  -27.2303  -37.1454   25.8859 H   0  0  0  0  0  0
  -20.9286  -29.8769   21.6969 H   0  0  0  0  0  0
  -26.0176  -38.2867   24.1405 H   0  0  0  0  0  0
  -30.1745  -19.4552   19.0119 H   0  0  0  0  0  0
  -28.0478  -20.0848   22.7551 H   0  0  0  0  0  0
  -31.4366  -17.0636   21.4133 H   0  0  0  0  0  0
  -31.1305  -17.0201   19.7103 H   0  0  0  0  0  0
  -27.3237  -24.0732   19.5014 H   0  0  0  0  0  0
  -29.0632  -24.1112   19.3671 H   0  0  0  0  0  0
  -29.1806  -25.3945   21.5504 H   0  0  0  0  0  0
  -27.4475  -25.4526   21.6117 H   0  0  0  0  0  0
  -29.0094  -21.8424   19.2716 H   0  0  0  0  0  0
  -29.0330  -15.5852   21.0626 H   0  0  0  0  0  0
  1 25  1  0  0  0
  1 30  2  0  0  0
  1 80  1  0  0  0
  2  3  1  0  0  0
  2 25  1  0  0  0
  2 83  1  0  0  0
  2 84  1  0  0  0
  3  4  1  0  0  0
  3 85  1  0  0  0
  3 86  1  0  0  0
  4  5  1  0  0  0
  4 87  1  0  0  0
  4 88  1  0  0  0
  5  6  1  0  0  0
  5 26  1  0  0  0
  5 89  1  0  0  0
  6 25  1  0  0  0
  6 90  1  0  0  0
  6 91  1  0  0  0
  7  8  2  0  0  0
  7 26  1  0  0  0
  7 29  1  0  0  0
  8  9  1  0  0  0
  8 22  1  0  0  0
  9 10  1  0  0  0
  9 27  2  0  0  0
 10 11  2  0  0  0
 10 15  1  0  0  0
 11 12  1  0  0  0
 11 92  1  0  0  0
 12 13  2  0  0  0
 12 93  1  0  0  0
 13 14  1  0  0  0
 13 31  1  0  0  0
 14 15  2  0  0  0
 14 94  1  0  0  0
 15 95  1  0  0  0
 16 17  2  0  0  0
 16 21  1  0  0  0
 16 31  1  0  0  0
 17 18  1  0  0  0
 17 96  1  0  0  0
 18 19  2  0  0  0
 18 97  1  0  0  0
 19 20  1  0  0  0
 19 24  1  0  0  0
 20 21  2  0  0  0
 20 98  1  0  0  0
 21 23  1  0  0  0
 22 28  1  0  0  0
 22 32  2  0  0  0
 26 27  1  0  0  0
 28 99  1  0  0  0
 28100  1  0  0  0
 29101  1  0  0  0
 29102  1  0  0  0
 33 34  1  0  0  0
 33 66  1  0  0  0
 33 70  2  0  0  0
 34 36  1  0  0  0
 34 59  1  0  0  0
 34103  1  0  0  0
 35 44  2  0  0  0
 35 45  1  0  0  0
 35 68  1  0  0  0
 36 56  1  0  0  0
 36104  1  0  0  0
 37 39  1  0  0  0
 37 47  1  0  0  0
 37 66  1  0  0  0
 37105  1  0  0  0
 38 43  2  0  0  0
 38 46  1  0  0  0
 38 47  1  0  0  0
 39 64  1  0  0  0
 39 67  2  0  0  0
 40 52  1  0  0  0
 40 53  2  0  0  0
 40 58  1  0  0  0
 41106  1  0  0  0
 41107  1  0  0  0
 41108  1  0  0  0
 41 48  1  0  0  0
 42 43  1  0  0  0
 42 66  1  0  0  0
 42109  1  0  0  0
 42110  1  0  0  0
 43 44  1  0  0  0
 44111  1  0  0  0
 45 46  2  0  0  0
 45112  1  0  0  0
 46113  1  0  0  0
 47114  1  0  0  0
 47115  1  0  0  0
 48 56  1  0  0  0
 48 65  1  0  0  0
 48116  1  0  0  0
 49 50  1  0  0  0
 49 53  1  0  0  0
 49 64  1  0  0  0
 49117  1  0  0  0
 50 51  1  0  0  0
 50118  1  0  0  0
 50119  1  0  0  0
 51 52  1  0  0  0
 51120  1  0  0  0
 51121  1  0  0  0
 52122  1  0  0  0
 52123  1  0  0  0
 53 54  1  0  0  0
 54 55  2  0  0  0
 54124  1  0  0  0
 55 57  1  0  0  0
 55125  1  0  0  0
 56 69  2  0  0  0
 57 58  2  0  0  0
 57126  1  0  0  0
 58127  1  0  0  0
 59 60  1  0  0  0
 59 61  1  0  0  0
 59 62  1  0  0  0
 60128  1  0  0  0
 60129  1  0  0  0
 60130  1  0  0  0
 61131  1  0  0  0
 61132  1  0  0  0
 61133  1  0  0  0
 62134  1  0  0  0
 62135  1  0  0  0
 62136  1  0  0  0
 63 65  1  0  0  0
 63137  1  0  0  0
 63138  1  0  0  0
 63139  1  0  0  0
 64140  1  0  0  0
 65141  1  0  0  0
 68 78  1  0  0  0
 71 73  1  0  0  0
 71 74  2  0  0  0
 71142  1  0  0  0
 72 73  2  0  0  0
 72 82  1  0  0  0
 72143  1  0  0  0
 73 79  1  0  0  0
 74 76  1  0  0  0
 74 82  1  0  0  0
 75 77  1  0  0  0
 75 79  1  0  0  0
 75 81  2  0  0  0
 76 80  1  0  0  0
 76144  1  0  0  0
 76145  1  0  0  0
 77 78  1  0  0  0
 77146  1  0  0  0
 77147  1  0  0  0
 78148  1  0  0  0
 78149  1  0  0  0
 79150  1  0  0  0
 80151  1  0  0  0
M  ISO  4   1 100  68 101  78 101  80 100
M  END
> <chiral flag>
0

> <version>
0

> <s_m_source_file>
/data/baiqing/PycharmProjects/Reinvent-master-3.2/result/LINK_invent/BTK/process_docking_weight1_custom_product_contain_oxygen_bond_distance_aromatic_linkinvent_7_9_3/rearranged_h_0166.sdf

> <i_m_source_file_index>
60

> <r_mmod_Potential_Energy-OPLS-2005>
-149.541763305664

> <r_mmod_Stretch_Energy-OPLS-2005>
40.818675994873

> <r_mmod_Bend_Energy-OPLS-2005>
117.506935119629

> <r_mmod_Torsional_Energy-OPLS-2005>
233.23811340332

> <r_mmod_Improper_Torsional_Energy-OPLS-2005>
5.79446458816528

> <r_mmod_Van_der_Waal_Energy-OPLS-2005>
127.719207763672

> <r_mmod_Electrostatic_Energy-OPLS-2005>
-467.3203125

> <r_mmod_Solvation_Energy-OPLS-2005>
-230.814880371094

> <b_mmod_Minimization_Converged-OPLS-2005>
0

> <r_mmod_RMS_Derivative-OPLS-2005>
2.09785175323486

$$$$
61
                    3D
 Structure written by MMmdl.
156165  0  0  1  0            999 V2000
  -30.7898  -14.2980   20.6822 C   0  0  0  0  0  0
  -30.4026  -12.2487   19.3850 C   0  0  0  0  0  0
  -29.4786  -12.5429   18.1888 C   0  0  0  0  0  0
  -28.0015  -12.4106   18.6001 C   0  0  0  0  0  0
  -27.6709  -13.2051   19.8912 C   0  0  2  0  0  0
  -28.7075  -12.9144   21.0010 C   0  0  0  0  0  0
  -25.2611  -13.8159   20.5708 C   0  0  0  0  0  0
  -24.1836  -13.0436   20.9134 C   0  0  0  0  0  0
  -24.6392  -11.6900   20.8701 C   0  0  0  0  0  0
  -23.9048  -10.4287   21.0379 C   0  0  0  0  0  0
  -24.3599   -9.4212   21.9175 C   0  0  0  0  0  0
  -23.6271   -8.2251   22.0750 C   0  0  0  0  0  0
  -22.4256   -8.0283   21.3537 C   0  0  0  0  0  0
  -21.9894   -9.0250   20.4634 C   0  0  0  0  0  0
  -22.7217  -10.2130   20.3030 C   0  0  0  0  0  0
  -21.6857   -6.0731   22.5278 C   0  0  0  0  0  0
  -21.4020   -6.5635   23.8211 C   0  0  0  0  0  0
  -21.3656   -5.6790   24.9176 C   0  0  0  0  0  0
  -21.6041   -4.3048   24.7221 C   0  0  0  0  0  0
  -21.8823   -3.8140   23.4342 C   0  0  0  0  0  0
  -21.9197   -4.6960   22.3403 C   0  0  0  0  0  0
  -22.7865  -13.5253   21.1812 C   0  0  0  0  0  0
  -22.1662   -4.2140   21.0980 F   0  0  0  0  0  0
  -21.5622   -3.4534   25.7735 F   0  0  0  0  0  0
  -30.0600  -13.1755   20.4723 N   0  0  0  0  0  0
  -26.3066  -12.9339   20.3437 N   0  0  0  0  0  0
  -25.9322  -11.6487   20.5746 N   0  0  0  0  0  0
  -22.0486  -12.8244   22.0347 N   0  0  0  0  0  0
  -25.4347  -15.1884   20.4194 N   0  0  0  0  0  0
  -31.8086  -14.5822   20.0412 O   0  0  0  0  0  0
  -21.6633   -6.8870   21.4231 O   0  0  0  0  0  0
  -22.3573  -14.5583   20.6685 O   0  0  0  0  0  0
  -24.6076  -31.8716   23.2156 C   0  0  0  0  0  0
  -25.8993  -32.4850   23.8428 C   0  0  1  0  0  0
  -27.2380  -27.4919   20.0803 C   0  0  0  0  0  0
  -25.5834  -33.8650   24.2349 N   0  0  0  0  0  0
  -23.3928  -30.4979   21.5548 C   0  0  2  0  0  0
  -24.8345  -28.9674   20.1202 C   0  0  0  0  0  0
  -22.7367  -29.4691   22.5015 C   0  0  0  0  0  0
  -18.0265  -28.1380   22.8528 C   0  0  0  0  0  0
  -24.1450  -36.7336   23.2636 C   0  0  0  0  0  0
  -25.9133  -30.8570   21.3566 C   0  0  0  0  0  0
  -25.9905  -29.4952   20.7057 C   0  0  0  0  0  0
  -27.1912  -28.7617   20.6851 C   0  0  0  0  0  0
  -26.0540  -26.9484   19.5250 C   0  0  0  0  0  0
  -24.8563  -27.6891   19.5351 C   0  0  0  0  0  0
  -23.5960  -29.8317   20.1677 C   0  0  0  0  0  0
  -25.4080  -36.3153   24.0344 C   0  0  1  0  0  0
  -20.5847  -28.3665   23.1327 C   0  0  2  0  0  0
  -20.6755  -26.9395   22.5429 C   0  0  0  0  0  0
  -19.5726  -26.6399   21.5232 C   0  0  0  0  0  0
  -18.1907  -26.7942   22.1631 C   0  0  0  0  0  0
  -19.1514  -28.8837   23.2933 C   0  0  0  0  0  0
  -18.9441  -30.1441   23.8950 C   0  0  0  0  0  0
  -17.6446  -30.6591   24.0587 C   0  0  0  0  0  0
  -25.9021  -34.9501   23.5168 C   0  0  0  0  0  0
  -16.5339  -29.9114   23.6320 C   0  0  0  0  0  0
  -16.7252  -28.6518   23.0368 C   0  0  0  0  0  0
  -26.4449  -31.6607   25.0725 C   0  0  0  0  0  0
  -25.3722  -31.3673   26.1465 C   0  0  0  0  0  0
  -27.0271  -30.3059   24.6057 C   0  0  0  0  0  0
  -27.6031  -32.4312   25.7477 C   0  0  0  0  0  0
  -27.5586  -37.1810   24.8446 C   0  0  0  0  0  0
  -21.4102  -29.3032   22.3732 N   0  0  0  0  0  0
  -26.4270  -37.3845   23.9436 N   0  0  0  0  0  0
  -24.6560  -31.0864   22.1033 N   0  0  0  0  0  0
  -23.4154  -28.8252   23.3056 O   0  0  0  0  0  0
  -28.4483  -26.8449   20.0946 O   0  0  0  0  0  0
  -26.5623  -34.8944   22.4751 O   0  0  0  0  0  0
  -23.5283  -32.1429   23.7595 O   0  0  0  0  0  0
  -29.4910  -19.1055   19.0815 C   0  0  0  0  0  0
  -29.6371  -20.4867   18.8824 C   0  0  0  0  0  0
  -29.8653  -17.1274   20.4303 C   0  0  0  0  0  0
  -30.9373  -20.6463   20.9459 C   0  0  0  0  0  0
  -31.1915  -17.2504   22.4823 C   0  0  0  0  0  0
  -30.0479  -18.5002   20.2227 C   0  0  0  0  0  0
  -30.7918  -19.2626   21.1539 C   0  0  0  0  0  0
  -30.3364  -21.2690   19.8330 C   0  0  0  0  0  0
  -30.4606  -16.4961   21.5413 C   0  0  0  0  0  0
  -31.3608  -18.6363   22.2854 C   0  0  0  0  0  0
  -28.6503  -25.7110   19.3670 C   0  0  0  0  0  0
  -29.4928  -24.7744   19.8217 C   0  0  0  0  0  0
  -29.6723  -23.5400   19.0743 C   0  0  0  0  0  0
  -30.4040  -22.6798   19.7918 N   0  0  0  0  0  0
  -30.3508  -15.0964   21.6600 N   0  0  0  0  0  0
  -29.2428  -23.3192   17.9389 O   0  0  0  0  0  0
  -30.1354  -24.9738   20.9871 O   0  0  0  0  0  0
  -32.0813  -19.3567   23.1811 F   0  0  0  0  0  0
  -31.4502  -12.3188   19.0861 H   0  0  0  0  0  0
  -30.2637  -11.2202   19.7210 H   0  0  0  0  0  0
  -29.6969  -11.8639   17.3632 H   0  0  0  0  0  0
  -29.6662  -13.5509   17.8153 H   0  0  0  0  0  0
  -27.7888  -11.3510   18.7457 H   0  0  0  0  0  0
  -27.3550  -12.7395   17.7853 H   0  0  0  0  0  0
  -27.7377  -14.2653   19.6443 H   0  0  0  0  0  0
  -28.6451  -11.8674   21.3037 H   0  0  0  0  0  0
  -28.4691  -13.4841   21.8989 H   0  0  0  0  0  0
  -25.2743   -9.5697   22.4756 H   0  0  0  0  0  0
  -23.9965   -7.4659   22.7491 H   0  0  0  0  0  0
  -21.0819   -8.8764   19.8955 H   0  0  0  0  0  0
  -22.3671  -10.9662   19.6130 H   0  0  0  0  0  0
  -21.2012   -7.6148   23.9710 H   0  0  0  0  0  0
  -21.1472   -6.0524   25.9078 H   0  0  0  0  0  0
  -22.0602   -2.7601   23.2849 H   0  0  0  0  0  0
  -22.4059  -11.9878   22.4718 H   0  0  0  0  0  0
  -21.1103  -13.1282   22.2535 H   0  0  0  0  0  0
  -24.6717  -15.8458   20.5362 H   0  0  0  0  0  0
  -26.3090  -15.6349   20.1717 H   0  0  0  0  0  0
  -26.7082  -32.5582   23.1221 H   0  0  0  0  0  0
  -24.9860  -33.9813   25.0398 H   0  0  0  0  0  0
  -22.6802  -31.3147   21.4216 H   0  0  0  0  0  0
  -23.3751  -35.9624   23.3255 H   0  0  0  0  0  0
  -24.3553  -36.9000   22.2056 H   0  0  0  0  0  0
  -23.7113  -37.6493   23.6674 H   0  0  0  0  0  0
  -26.0072  -31.6243   20.5871 H   0  0  0  0  0  0
  -26.8085  -30.9169   21.9640 H   0  0  0  0  0  0
  -28.0882  -29.1721   21.1283 H   0  0  0  0  0  0
  -26.0310  -25.9599   19.0916 H   0  0  0  0  0  0
  -23.9585  -27.2690   19.1041 H   0  0  0  0  0  0
  -23.7051  -30.6094   19.4109 H   0  0  0  0  0  0
  -22.7218  -29.2499   19.8695 H   0  0  0  0  0  0
  -25.1254  -36.2045   25.0845 H   0  0  0  0  0  0
  -20.9944  -28.3225   24.1446 H   0  0  0  0  0  0
  -20.5642  -26.2286   23.3633 H   0  0  0  0  0  0
  -21.6619  -26.7441   22.1207 H   0  0  0  0  0  0
  -19.6871  -25.6323   21.1222 H   0  0  0  0  0  0
  -19.6667  -27.3246   20.6787 H   0  0  0  0  0  0
  -17.4191  -26.6754   21.4012 H   0  0  0  0  0  0
  -18.0268  -26.0039   22.8975 H   0  0  0  0  0  0
  -19.7917  -30.7251   24.2335 H   0  0  0  0  0  0
  -17.5005  -31.6273   24.5190 H   0  0  0  0  0  0
  -15.5342  -30.3050   23.7588 H   0  0  0  0  0  0
  -15.8656  -28.0843   22.7075 H   0  0  0  0  0  0
  -24.5895  -30.7049   25.7757 H   0  0  0  0  0  0
  -24.8924  -32.2812   26.4966 H   0  0  0  0  0  0
  -25.8060  -30.8767   27.0185 H   0  0  0  0  0  0
  -26.2798  -29.6828   24.1125 H   0  0  0  0  0  0
  -27.4064  -29.7283   25.4495 H   0  0  0  0  0  0
  -27.8623  -30.4392   23.9182 H   0  0  0  0  0  0
  -27.2667  -33.3598   26.2101 H   0  0  0  0  0  0
  -28.3818  -32.6886   25.0284 H   0  0  0  0  0  0
  -28.0734  -31.8404   26.5349 H   0  0  0  0  0  0
  -28.2555  -38.0164   24.7624 H   0  0  0  0  0  0
  -28.1148  -36.2716   24.6119 H   0  0  0  0  0  0
  -27.2346  -37.1248   25.8855 H   0  0  0  0  0  0
  -20.9252  -29.8760   21.6968 H   0  0  0  0  0  0
  -26.0175  -38.2910   24.1543 H   0  0  0  0  0  0
  -28.9344  -18.5191   18.3637 H   0  0  0  0  0  0
  -29.1691  -20.9199   18.0123 H   0  0  0  0  0  0
  -29.2956  -16.5509   19.7143 H   0  0  0  0  0  0
  -31.4802  -21.2370   21.6717 H   0  0  0  0  0  0
  -31.6501  -16.7752   23.3372 H   0  0  0  0  0  0
  -28.0892  -25.6568   18.4428 H   0  0  0  0  0  0
  -30.7870  -23.1289   20.6138 H   0  0  0  0  0  0
  -29.6109  -14.7359   22.2445 H   0  0  0  0  0  0
  -29.8386  -25.8123   21.3193 H   0  0  0  0  0  0
  1 25  1  0  0  0
  1 30  2  0  0  0
  1 85  1  0  0  0
  2  3  1  0  0  0
  2 25  1  0  0  0
  2 89  1  0  0  0
  2 90  1  0  0  0
  3  4  1  0  0  0
  3 91  1  0  0  0
  3 92  1  0  0  0
  4  5  1  0  0  0
  4 93  1  0  0  0
  4 94  1  0  0  0
  5  6  1  0  0  0
  5 26  1  0  0  0
  5 95  1  0  0  0
  6 25  1  0  0  0
  6 96  1  0  0  0
  6 97  1  0  0  0
  7  8  2  0  0  0
  7 26  1  0  0  0
  7 29  1  0  0  0
  8  9  1  0  0  0
  8 22  1  0  0  0
  9 10  1  0  0  0
  9 27  2  0  0  0
 10 11  2  0  0  0
 10 15  1  0  0  0
 11 12  1  0  0  0
 11 98  1  0  0  0
 12 13  2  0  0  0
 12 99  1  0  0  0
 13 14  1  0  0  0
 13 31  1  0  0  0
 14 15  2  0  0  0
 14100  1  0  0  0
 15101  1  0  0  0
 16 17  2  0  0  0
 16 21  1  0  0  0
 16 31  1  0  0  0
 17 18  1  0  0  0
 17102  1  0  0  0
 18 19  2  0  0  0
 18103  1  0  0  0
 19 20  1  0  0  0
 19 24  1  0  0  0
 20 21  2  0  0  0
 20104  1  0  0  0
 21 23  1  0  0  0
 22 28  1  0  0  0
 22 32  2  0  0  0
 26 27  1  0  0  0
 28105  1  0  0  0
 28106  1  0  0  0
 29107  1  0  0  0
 29108  1  0  0  0
 33 34  1  0  0  0
 33 66  1  0  0  0
 33 70  2  0  0  0
 34 36  1  0  0  0
 34 59  1  0  0  0
 34109  1  0  0  0
 35 44  2  0  0  0
 35 45  1  0  0  0
 35 68  1  0  0  0
 36 56  1  0  0  0
 36110  1  0  0  0
 37 39  1  0  0  0
 37 47  1  0  0  0
 37 66  1  0  0  0
 37111  1  0  0  0
 38 43  2  0  0  0
 38 46  1  0  0  0
 38 47  1  0  0  0
 39 64  1  0  0  0
 39 67  2  0  0  0
 40 52  1  0  0  0
 40 53  2  0  0  0
 40 58  1  0  0  0
 41112  1  0  0  0
 41113  1  0  0  0
 41114  1  0  0  0
 41 48  1  0  0  0
 42 43  1  0  0  0
 42 66  1  0  0  0
 42115  1  0  0  0
 42116  1  0  0  0
 43 44  1  0  0  0
 44117  1  0  0  0
 45 46  2  0  0  0
 45118  1  0  0  0
 46119  1  0  0  0
 47120  1  0  0  0
 47121  1  0  0  0
 48 56  1  0  0  0
 48 65  1  0  0  0
 48122  1  0  0  0
 49 50  1  0  0  0
 49 53  1  0  0  0
 49 64  1  0  0  0
 49123  1  0  0  0
 50 51  1  0  0  0
 50124  1  0  0  0
 50125  1  0  0  0
 51 52  1  0  0  0
 51126  1  0  0  0
 51127  1  0  0  0
 52128  1  0  0  0
 52129  1  0  0  0
 53 54  1  0  0  0
 54 55  2  0  0  0
 54130  1  0  0  0
 55 57  1  0  0  0
 55131  1  0  0  0
 56 69  2  0  0  0
 57 58  2  0  0  0
 57132  1  0  0  0
 58133  1  0  0  0
 59 60  1  0  0  0
 59 61  1  0  0  0
 59 62  1  0  0  0
 60134  1  0  0  0
 60135  1  0  0  0
 60136  1  0  0  0
 61137  1  0  0  0
 61138  1  0  0  0
 61139  1  0  0  0
 62140  1  0  0  0
 62141  1  0  0  0
 62142  1  0  0  0
 63 65  1  0  0  0
 63143  1  0  0  0
 63144  1  0  0  0
 63145  1  0  0  0
 64146  1  0  0  0
 65147  1  0  0  0
 68 81  1  0  0  0
 71 72  2  0  0  0
 71 76  1  0  0  0
 71148  1  0  0  0
 72 78  1  0  0  0
 72149  1  0  0  0
 73 76  2  0  0  0
 73 79  1  0  0  0
 73150  1  0  0  0
 74 77  1  0  0  0
 74 78  2  0  0  0
 74151  1  0  0  0
 75 79  2  0  0  0
 75 80  1  0  0  0
 75152  1  0  0  0
 76 77  1  0  0  0
 77 80  2  0  0  0
 78 84  1  0  0  0
 79 85  1  0  0  0
 80 88  1  0  0  0
 81 82  2  0  0  0
 81153  1  0  0  0
 82 83  1  0  0  0
 82 87  1  0  0  0
 83 84  1  0  0  0
 83 86  2  0  0  0
 84154  1  0  0  0
 85155  1  0  0  0
 87156  1  0  0  0
M  ISO  4   1 100  68 101  81 101  85 100
M  END
> <chiral flag>
0

> <version>
0

> <s_m_source_file>
/data/baiqing/PycharmProjects/Reinvent-master-3.2/result/LINK_invent/BTK/process_docking_weight1_custom_product_contain_oxygen_bond_distance_aromatic_linkinvent_7_9_3/rearranged_h_0166.sdf

> <i_m_source_file_index>
61

> <r_mmod_Potential_Energy-OPLS-2005>
-56.307487487793

> <r_mmod_Stretch_Energy-OPLS-2005>
30.8362331390381

> <r_mmod_Bend_Energy-OPLS-2005>
101.735092163086

> <r_mmod_Torsional_Energy-OPLS-2005>
243.77229309082

> <r_mmod_Improper_Torsional_Energy-OPLS-2005>
5.34206533432007

> <r_mmod_Van_der_Waal_Energy-OPLS-2005>
194.031814575195

> <r_mmod_Electrostatic_Energy-OPLS-2005>
-416.935577392578

> <r_mmod_Solvation_Energy-OPLS-2005>
-224.76643371582

> <b_mmod_Minimization_Converged-OPLS-2005>
0

> <r_mmod_RMS_Derivative-OPLS-2005>
2.13270401954651

$$$$
62
                    3D
 Structure written by MMmdl.
157165  0  0  1  0            999 V2000
  -30.6494  -14.5849   20.4862 C   0  0  0  0  0  0
  -30.4190  -12.3637   19.4434 C   0  0  0  0  0  0
  -29.4836  -12.4976   18.2204 C   0  0  0  0  0  0
  -28.0098  -12.3453   18.6431 C   0  0  0  0  0  0
  -27.6437  -13.1926   19.8942 C   0  0  2  0  0  0
  -28.6972  -13.0668   21.0127 C   0  0  0  0  0  0
  -25.2527  -13.8117   20.5836 C   0  0  0  0  0  0
  -24.1765  -13.0374   20.9279 C   0  0  0  0  0  0
  -24.6313  -11.6838   20.8816 C   0  0  0  0  0  0
  -23.9026  -10.4227   21.0441 C   0  0  0  0  0  0
  -24.3605   -9.4146   21.9192 C   0  0  0  0  0  0
  -23.6281   -8.2207   22.0774 C   0  0  0  0  0  0
  -22.4256   -8.0267   21.3566 C   0  0  0  0  0  0
  -21.9885   -9.0241   20.4666 C   0  0  0  0  0  0
  -22.7222  -10.2105   20.3076 C   0  0  0  0  0  0
  -21.6858   -6.0725   22.5269 C   0  0  0  0  0  0
  -21.4027   -6.5629   23.8206 C   0  0  0  0  0  0
  -21.3682   -5.6791   24.9162 C   0  0  0  0  0  0
  -21.6062   -4.3064   24.7244 C   0  0  0  0  0  0
  -21.8835   -3.8155   23.4358 C   0  0  0  0  0  0
  -21.9209   -4.6961   22.3403 C   0  0  0  0  0  0
  -22.7831  -13.5198   21.1935 C   0  0  0  0  0  0
  -22.1694   -4.2134   21.0997 F   0  0  0  0  0  0
  -21.5616   -3.4552   25.7750 F   0  0  0  0  0  0
  -29.9972  -13.3874   20.4139 N   0  0  0  0  0  0
  -26.2914  -12.9214   20.3577 N   0  0  0  0  0  0
  -25.9218  -11.6380   20.5866 N   0  0  0  0  0  0
  -22.0522  -12.8159   22.0555 N   0  0  0  0  0  0
  -25.4267  -15.1828   20.4218 N   0  0  0  0  0  0
  -31.8598  -14.6685   20.2569 O   0  0  0  0  0  0
  -21.6644   -6.8849   21.4231 O   0  0  0  0  0  0
  -22.3494  -14.5480   20.6767 O   0  0  0  0  0  0
  -24.6202  -31.8629   23.2071 C   0  0  0  0  0  0
  -25.9074  -32.4793   23.8397 C   0  0  1  0  0  0
  -27.2405  -27.3663   20.1404 C   0  0  0  0  0  0
  -25.5919  -33.8605   24.2325 N   0  0  0  0  0  0
  -23.4133  -30.4804   21.5465 C   0  0  2  0  0  0
  -24.8649  -28.9327   20.1260 C   0  0  0  0  0  0
  -22.7449  -29.4639   22.4994 C   0  0  0  0  0  0
  -18.0281  -28.1369   22.8487 C   0  0  0  0  0  0
  -24.1483  -36.7278   23.2638 C   0  0  0  0  0  0
  -25.9464  -30.8111   21.3677 C   0  0  0  0  0  0
  -26.0277  -29.4360   20.7236 C   0  0  0  0  0  0
  -27.2186  -28.6618   20.7258 C   0  0  0  0  0  0
  -26.0613  -26.8990   19.5208 C   0  0  0  0  0  0
  -24.8773  -27.6633   19.5230 C   0  0  0  0  0  0
  -23.6271  -29.8053   20.1663 C   0  0  0  0  0  0
  -25.4104  -36.3080   24.0338 C   0  0  1  0  0  0
  -20.5862  -28.3672   23.1311 C   0  0  2  0  0  0
  -20.6755  -26.9411   22.5405 C   0  0  0  0  0  0
  -19.5753  -26.6382   21.5196 C   0  0  0  0  0  0
  -18.1931  -26.7919   22.1606 C   0  0  0  0  0  0
  -19.1515  -28.8832   23.2886 C   0  0  0  0  0  0
  -18.9464  -30.1436   23.8914 C   0  0  0  0  0  0
  -17.6462  -30.6581   24.0554 C   0  0  0  0  0  0
  -25.9047  -34.9447   23.5117 C   0  0  0  0  0  0
  -16.5357  -29.9082   23.6307 C   0  0  0  0  0  0
  -16.7266  -28.6481   23.0355 C   0  0  0  0  0  0
  -26.4473  -31.6596   25.0753 C   0  0  0  0  0  0
  -25.3748  -31.3741   26.1519 C   0  0  0  0  0  0
  -27.0309  -30.3037   24.6159 C   0  0  0  0  0  0
  -27.6048  -32.4308   25.7527 C   0  0  0  0  0  0
  -27.5560  -37.1794   24.8468 C   0  0  0  0  0  0
  -21.4157  -29.3041   22.3723 N   0  0  0  0  0  0
  -26.4273  -37.3769   23.9416 N   0  0  0  0  0  0
  -24.6784  -31.0666   22.0995 N   0  0  0  0  0  0
  -23.4175  -28.8189   23.3085 O   0  0  0  0  0  0
  -28.3793  -26.5681   20.1539 O   0  0  0  0  0  0
  -26.5594  -34.8895   22.4679 O   0  0  0  0  0  0
  -23.5364  -32.1438   23.7395 O   0  0  0  0  0  0
  -29.3686  -18.1809   21.1495 C   0  0  0  0  0  0
  -28.1423  -18.7285   21.4480 C   0  0  0  0  0  0
  -29.3634  -20.3600   20.6165 C   0  0  0  0  0  0
  -28.9009  -22.6560   20.4744 C   0  0  0  0  0  0
  -29.1702  -24.1350   20.1170 C   0  0  0  0  0  0
  -26.8938  -18.1843   22.0589 C   0  0  0  0  0  0
  -28.5491  -16.6568   18.3897 C   0  0  0  0  0  0
  -29.9293  -16.7584   21.4186 C   0  0  0  0  0  0
  -28.2125  -25.2175   20.7059 C   0  0  0  0  0  0
  -29.9250  -16.3064   18.9933 C   0  0  0  0  0  0
  -30.1202  -19.2462   20.6151 N   0  0  0  0  0  0
  -29.6613  -21.6397   20.2234 N   0  0  0  0  0  0
  -29.8733  -15.7116   20.3495 N   0  0  0  0  0  0
  -30.1371  -24.4725   19.4186 O   0  0  0  0  0  0
  -28.1296  -20.0667   21.1177 O   0  0  0  0  0  0
  -31.4572  -12.4954   19.1391 H   0  0  0  0  0  0
  -30.3598  -11.3640   19.8811 H   0  0  0  0  0  0
  -29.7224  -11.7526   17.4592 H   0  0  0  0  0  0
  -29.6331  -13.4750   17.7544 H   0  0  0  0  0  0
  -27.8349  -11.2881   18.8492 H   0  0  0  0  0  0
  -27.3505  -12.6022   17.8135 H   0  0  0  0  0  0
  -27.6525  -14.2294   19.5981 H   0  0  0  0  0  0
  -28.7090  -12.0617   21.4355 H   0  0  0  0  0  0
  -28.4613  -13.7442   21.8360 H   0  0  0  0  0  0
  -25.2795   -9.5629   22.4684 H   0  0  0  0  0  0
  -23.9997   -7.4600   22.7489 H   0  0  0  0  0  0
  -21.0829   -8.8780   19.8951 H   0  0  0  0  0  0
  -22.3747  -10.9648   19.6186 H   0  0  0  0  0  0
  -21.2022   -7.6147   23.9696 H   0  0  0  0  0  0
  -21.1493   -6.0536   25.9052 H   0  0  0  0  0  0
  -22.0593   -2.7620   23.2868 H   0  0  0  0  0  0
  -22.4122  -11.9806   22.4932 H   0  0  0  0  0  0
  -21.1157  -13.1171   22.2864 H   0  0  0  0  0  0
  -24.6627  -15.8404   20.5159 H   0  0  0  0  0  0
  -26.2880  -15.6197   20.1194 H   0  0  0  0  0  0
  -26.7151  -32.5473   23.1162 H   0  0  0  0  0  0
  -25.0146  -33.9772   25.0517 H   0  0  0  0  0  0
  -22.7076  -31.2999   21.3993 H   0  0  0  0  0  0
  -23.3735  -35.9617   23.3333 H   0  0  0  0  0  0
  -24.3579  -36.8861   22.2042 H   0  0  0  0  0  0
  -23.7244  -37.6497   23.6643 H   0  0  0  0  0  0
  -26.0541  -31.5685   20.5890 H   0  0  0  0  0  0
  -26.8389  -30.8764   21.9799 H   0  0  0  0  0  0
  -28.1067  -29.0411   21.2115 H   0  0  0  0  0  0
  -26.0510  -25.9307   19.0417 H   0  0  0  0  0  0
  -23.9821  -27.2616   19.0666 H   0  0  0  0  0  0
  -23.7414  -30.5799   19.4070 H   0  0  0  0  0  0
  -22.7518  -29.2211   19.8728 H   0  0  0  0  0  0
  -25.1264  -36.1933   25.0823 H   0  0  0  0  0  0
  -20.9934  -28.3213   24.1439 H   0  0  0  0  0  0
  -20.5622  -26.2297   23.3592 H   0  0  0  0  0  0
  -21.6635  -26.7427   22.1228 H   0  0  0  0  0  0
  -19.6932  -25.6293   21.1238 H   0  0  0  0  0  0
  -19.6687  -27.3177   20.6722 H   0  0  0  0  0  0
  -17.4187  -26.6652   21.4021 H   0  0  0  0  0  0
  -18.0350  -26.0062   22.9012 H   0  0  0  0  0  0
  -19.7943  -30.7226   24.2304 H   0  0  0  0  0  0
  -17.5034  -31.6280   24.5128 H   0  0  0  0  0  0
  -15.5357  -30.2990   23.7628 H   0  0  0  0  0  0
  -15.8676  -28.0800   22.7083 H   0  0  0  0  0  0
  -24.5937  -30.7037   25.7912 H   0  0  0  0  0  0
  -24.8920  -32.2913   26.4907 H   0  0  0  0  0  0
  -25.8113  -30.9001   27.0331 H   0  0  0  0  0  0
  -26.2902  -29.6839   24.1103 H   0  0  0  0  0  0
  -27.3963  -29.7205   25.4626 H   0  0  0  0  0  0
  -27.8777  -30.4358   23.9425 H   0  0  0  0  0  0
  -27.2696  -33.3628   26.2098 H   0  0  0  0  0  0
  -28.3898  -32.6838   25.0387 H   0  0  0  0  0  0
  -28.0703  -31.8456   26.5470 H   0  0  0  0  0  0
  -28.2570  -38.0087   24.7465 H   0  0  0  0  0  0
  -28.1055  -36.2605   24.6346 H   0  0  0  0  0  0
  -27.2292  -37.1509   25.8878 H   0  0  0  0  0  0
  -20.9324  -29.8765   21.6947 H   0  0  0  0  0  0
  -26.0146  -38.2843   24.1427 H   0  0  0  0  0  0
  -27.9583  -22.4974   21.0046 H   0  0  0  0  0  0
  -26.1032  -18.1130   21.3111 H   0  0  0  0  0  0
  -26.5351  -18.8369   22.8554 H   0  0  0  0  0  0
  -27.0503  -17.1932   22.4832 H   0  0  0  0  0  0
  -28.6774  -16.9561   17.3502 H   0  0  0  0  0  0
  -28.0648  -17.4841   18.9043 H   0  0  0  0  0  0
  -27.8468  -15.8302   18.3710 H   0  0  0  0  0  0
  -29.4258  -16.3466   22.2965 H   0  0  0  0  0  0
  -30.9745  -16.8555   21.7187 H   0  0  0  0  0  0
  -28.4356  -25.2696   21.7740 H   0  0  0  0  0  0
  -27.1863  -24.8549   20.6273 H   0  0  0  0  0  0
  -30.5610  -17.1936   19.0056 H   0  0  0  0  0  0
  -30.4272  -15.6449   18.2831 H   0  0  0  0  0  0
  1 25  1  0  0  0
  1 30  2  0  0  0
  1 83  1  0  0  0
  2  3  1  0  0  0
  2 25  1  0  0  0
  2 86  1  0  0  0
  2 87  1  0  0  0
  3  4  1  0  0  0
  3 88  1  0  0  0
  3 89  1  0  0  0
  4  5  1  0  0  0
  4 90  1  0  0  0
  4 91  1  0  0  0
  5  6  1  0  0  0
  5 26  1  0  0  0
  5 92  1  0  0  0
  6 25  1  0  0  0
  6 93  1  0  0  0
  6 94  1  0  0  0
  7  8  2  0  0  0
  7 26  1  0  0  0
  7 29  1  0  0  0
  8  9  1  0  0  0
  8 22  1  0  0  0
  9 10  1  0  0  0
  9 27  2  0  0  0
 10 11  2  0  0  0
 10 15  1  0  0  0
 11 12  1  0  0  0
 11 95  1  0  0  0
 12 13  2  0  0  0
 12 96  1  0  0  0
 13 14  1  0  0  0
 13 31  1  0  0  0
 14 15  2  0  0  0
 14 97  1  0  0  0
 15 98  1  0  0  0
 16 17  2  0  0  0
 16 21  1  0  0  0
 16 31  1  0  0  0
 17 18  1  0  0  0
 17 99  1  0  0  0
 18 19  2  0  0  0
 18100  1  0  0  0
 19 20  1  0  0  0
 19 24  1  0  0  0
 20 21  2  0  0  0
 20101  1  0  0  0
 21 23  1  0  0  0
 22 28  1  0  0  0
 22 32  2  0  0  0
 26 27  1  0  0  0
 28102  1  0  0  0
 28103  1  0  0  0
 29104  1  0  0  0
 29105  1  0  0  0
 33 34  1  0  0  0
 33 66  1  0  0  0
 33 70  2  0  0  0
 34 36  1  0  0  0
 34 59  1  0  0  0
 34106  1  0  0  0
 35 44  2  0  0  0
 35 45  1  0  0  0
 35 68  1  0  0  0
 36 56  1  0  0  0
 36107  1  0  0  0
 37 39  1  0  0  0
 37 47  1  0  0  0
 37 66  1  0  0  0
 37108  1  0  0  0
 38 43  2  0  0  0
 38 46  1  0  0  0
 38 47  1  0  0  0
 39 64  1  0  0  0
 39 67  2  0  0  0
 40 52  1  0  0  0
 40 53  2  0  0  0
 40 58  1  0  0  0
 41109  1  0  0  0
 41110  1  0  0  0
 41111  1  0  0  0
 41 48  1  0  0  0
 42 43  1  0  0  0
 42 66  1  0  0  0
 42112  1  0  0  0
 42113  1  0  0  0
 43 44  1  0  0  0
 44114  1  0  0  0
 45 46  2  0  0  0
 45115  1  0  0  0
 46116  1  0  0  0
 47117  1  0  0  0
 47118  1  0  0  0
 48 56  1  0  0  0
 48 65  1  0  0  0
 48119  1  0  0  0
 49 50  1  0  0  0
 49 53  1  0  0  0
 49 64  1  0  0  0
 49120  1  0  0  0
 50 51  1  0  0  0
 50121  1  0  0  0
 50122  1  0  0  0
 51 52  1  0  0  0
 51123  1  0  0  0
 51124  1  0  0  0
 52125  1  0  0  0
 52126  1  0  0  0
 53 54  1  0  0  0
 54 55  2  0  0  0
 54127  1  0  0  0
 55 57  1  0  0  0
 55128  1  0  0  0
 56 69  2  0  0  0
 57 58  2  0  0  0
 57129  1  0  0  0
 58130  1  0  0  0
 59 60  1  0  0  0
 59 61  1  0  0  0
 59 62  1  0  0  0
 60131  1  0  0  0
 60132  1  0  0  0
 60133  1  0  0  0
 61134  1  0  0  0
 61135  1  0  0  0
 61136  1  0  0  0
 62137  1  0  0  0
 62138  1  0  0  0
 62139  1  0  0  0
 63 65  1  0  0  0
 63140  1  0  0  0
 63141  1  0  0  0
 63142  1  0  0  0
 64143  1  0  0  0
 65144  1  0  0  0
 68 79  1  0  0  0
 71 72  2  0  0  0
 71 78  1  0  0  0
 71 81  1  0  0  0
 72 76  1  0  0  0
 72 85  1  0  0  0
 73 81  2  0  0  0
 73 82  1  0  0  0
 73 85  1  0  0  0
 74 75  1  0  0  0
 74 82  2  0  0  0
 74145  1  0  0  0
 75 79  1  0  0  0
 75 84  2  0  0  0
 76146  1  0  0  0
 76147  1  0  0  0
 76148  1  0  0  0
 77 80  1  0  0  0
 77149  1  0  0  0
 77150  1  0  0  0
 77151  1  0  0  0
 78 83  1  0  0  0
 78152  1  0  0  0
 78153  1  0  0  0
 79154  1  0  0  0
 79155  1  0  0  0
 80 83  1  0  0  0
 80156  1  0  0  0
 80157  1  0  0  0
M  ISO  4   1 100  68 101  79 101  83 100
M  END
> <chiral flag>
0

> <version>
0

> <s_m_source_file>
/data/baiqing/PycharmProjects/Reinvent-master-3.2/result/LINK_invent/BTK/process_docking_weight1_custom_product_contain_oxygen_bond_distance_aromatic_linkinvent_7_9_3/rearranged_h_0166.sdf

> <i_m_source_file_index>
62

> <r_mmod_Potential_Energy-OPLS-2005>
65.1309051513672

> <r_mmod_Stretch_Energy-OPLS-2005>
59.4529151916504

> <r_mmod_Bend_Energy-OPLS-2005>
130.102554321289

> <r_mmod_Torsional_Energy-OPLS-2005>
306.273223876953

> <r_mmod_Improper_Torsional_Energy-OPLS-2005>
18.3557415008545

> <r_mmod_Van_der_Waal_Energy-OPLS-2005>
125.213623046875

> <r_mmod_Electrostatic_Energy-OPLS-2005>
-367.345733642578

> <r_mmod_Solvation_Energy-OPLS-2005>
-244.18701171875

> <b_mmod_Minimization_Converged-OPLS-2005>
0

> <r_mmod_RMS_Derivative-OPLS-2005>
5.55876064300537

$$$$
63
                    3D
 Structure written by MMmdl.
155163  0  0  1  0            999 V2000
  -30.6345  -14.5194   20.5527 C   0  0  0  0  0  0
  -30.4446  -12.3385   19.3979 C   0  0  0  0  0  0
  -29.4900  -12.4936   18.1927 C   0  0  0  0  0  0
  -28.0132  -12.3532   18.6185 C   0  0  0  0  0  0
  -27.6620  -13.1915   19.8744 C   0  0  2  0  0  0
  -28.7133  -12.9596   20.9830 C   0  0  0  0  0  0
  -25.2644  -13.8111   20.5697 C   0  0  0  0  0  0
  -24.1884  -13.0412   20.9206 C   0  0  0  0  0  0
  -24.6406  -11.6869   20.8743 C   0  0  0  0  0  0
  -23.9056  -10.4274   21.0394 C   0  0  0  0  0  0
  -24.3607   -9.4188   21.9189 C   0  0  0  0  0  0
  -23.6291   -8.2216   22.0743 C   0  0  0  0  0  0
  -22.4274   -8.0272   21.3529 C   0  0  0  0  0  0
  -21.9903   -9.0234   20.4627 C   0  0  0  0  0  0
  -22.7216  -10.2127   20.3036 C   0  0  0  0  0  0
  -21.6855   -6.0720   22.5252 C   0  0  0  0  0  0
  -21.4003   -6.5619   23.8184 C   0  0  0  0  0  0
  -21.3662   -5.6785   24.9151 C   0  0  0  0  0  0
  -21.6046   -4.3049   24.7211 C   0  0  0  0  0  0
  -21.8833   -3.8137   23.4337 C   0  0  0  0  0  0
  -21.9198   -4.6950   22.3387 C   0  0  0  0  0  0
  -22.7914  -13.5206   21.1869 C   0  0  0  0  0  0
  -22.1668   -4.2136   21.0965 F   0  0  0  0  0  0
  -21.5647   -3.4527   25.7735 F   0  0  0  0  0  0
  -30.0280  -13.3101   20.4185 N   0  0  0  0  0  0
  -26.3063  -12.9238   20.3400 N   0  0  0  0  0  0
  -25.9328  -11.6414   20.5801 N   0  0  0  0  0  0
  -22.0525  -12.8188   22.0408 N   0  0  0  0  0  0
  -25.4376  -15.1835   20.4028 N   0  0  0  0  0  0
  -31.7920  -14.7447   20.1884 O   0  0  0  0  0  0
  -21.6637   -6.8874   21.4221 O   0  0  0  0  0  0
  -22.3589  -14.5493   20.6709 O   0  0  0  0  0  0
  -24.6134  -31.8647   23.2089 C   0  0  0  0  0  0
  -25.9002  -32.4815   23.8377 C   0  0  1  0  0  0
  -27.2432  -27.4013   20.0848 C   0  0  0  0  0  0
  -25.5861  -33.8608   24.2312 N   0  0  0  0  0  0
  -23.4038  -30.4842   21.5528 C   0  0  2  0  0  0
  -24.8554  -28.9496   20.1094 C   0  0  0  0  0  0
  -22.7415  -29.4590   22.5012 C   0  0  0  0  0  0
  -18.0226  -28.1269   22.8443 C   0  0  0  0  0  0
  -24.1489  -36.7336   23.2650 C   0  0  0  0  0  0
  -25.9359  -30.8178   21.3662 C   0  0  0  0  0  0
  -26.0149  -29.4497   20.7104 C   0  0  0  0  0  0
  -27.2070  -28.6818   20.6974 C   0  0  0  0  0  0
  -26.0593  -26.9213   19.4816 C   0  0  0  0  0  0
  -24.8737  -27.6862   19.4909 C   0  0  0  0  0  0
  -23.6154  -29.8202   20.1654 C   0  0  0  0  0  0
  -25.4113  -36.3117   24.0341 C   0  0  1  0  0  0
  -20.5845  -28.3540   23.1283 C   0  0  2  0  0  0
  -20.6785  -26.9376   22.5113 C   0  0  0  0  0  0
  -19.5684  -26.6381   21.4981 C   0  0  0  0  0  0
  -18.1836  -26.7920   22.1369 C   0  0  0  0  0  0
  -19.1495  -28.8669   23.2920 C   0  0  0  0  0  0
  -18.9443  -30.1241   23.9016 C   0  0  0  0  0  0
  -17.6462  -30.6432   24.0625 C   0  0  0  0  0  0
  -25.9017  -34.9468   23.5139 C   0  0  0  0  0  0
  -16.5343  -29.9003   23.6327 C   0  0  0  0  0  0
  -16.7223  -28.6446   23.0290 C   0  0  0  0  0  0
  -26.4429  -31.6593   25.0712 C   0  0  0  0  0  0
  -25.3733  -31.3715   26.1492 C   0  0  0  0  0  0
  -27.0273  -30.3040   24.6097 C   0  0  0  0  0  0
  -27.5987  -32.4326   25.7502 C   0  0  0  0  0  0
  -27.5576  -37.1836   24.8471 C   0  0  0  0  0  0
  -21.4127  -29.3093   22.3892 N   0  0  0  0  0  0
  -26.4289  -37.3810   23.9392 N   0  0  0  0  0  0
  -24.6694  -31.0696   22.1013 N   0  0  0  0  0  0
  -23.4199  -28.8010   23.2939 O   0  0  0  0  0  0
  -28.4286  -26.6772   20.1105 O   0  0  0  0  0  0
  -26.5613  -34.8925   22.4716 O   0  0  0  0  0  0
  -23.5320  -32.1411   23.7439 O   0  0  0  0  0  0
  -30.1583  -16.9070   22.8077 C   0  0  0  0  0  0
  -30.1984  -18.1732   23.4209 C   0  0  0  0  0  0
  -29.8590  -17.9857   20.6400 C   0  0  0  0  0  0
  -29.9944  -16.7983   21.4144 C   0  0  0  0  0  0
  -30.0720  -19.3468   22.6512 C   0  0  0  0  0  0
  -29.8871  -19.2762   21.2444 C   0  0  0  0  0  0
  -29.0095  -22.7937   19.8250 C   0  0  0  0  0  0
  -28.3331  -24.1520   20.2677 C   0  0  0  0  0  0
  -28.7633  -21.4891   20.6465 C   0  0  0  0  0  0
  -28.5763  -25.4173   19.3961 C   0  0  0  0  0  0
  -30.1668  -20.5778   23.2932 N   0  0  0  0  0  0
  -29.7626  -15.5052   20.8653 N   0  0  0  0  0  0
  -29.7943  -20.4407   20.4402 N   0  0  0  0  0  0
  -29.7311  -22.7513   18.8171 O   0  0  0  0  0  0
  -27.6205  -24.2007   21.2792 O   0  0  0  0  0  0
  -31.4725  -12.4968   19.0742 H   0  0  0  0  0  0
  -30.4111  -11.3289   19.8105 H   0  0  0  0  0  0
  -29.7323  -11.7572   17.4254 H   0  0  0  0  0  0
  -29.6368  -13.4693   17.7260 H   0  0  0  0  0  0
  -27.8294  -11.2989   18.8250 H   0  0  0  0  0  0
  -27.3534  -12.6232   17.7928 H   0  0  0  0  0  0
  -27.7012  -14.2380   19.5761 H   0  0  0  0  0  0
  -28.7156  -11.9099   21.2835 H   0  0  0  0  0  0
  -28.4817  -13.5226   21.8890 H   0  0  0  0  0  0
  -25.2740   -9.5691   22.4770 H   0  0  0  0  0  0
  -24.0006   -7.4599   22.7443 H   0  0  0  0  0  0
  -21.0839   -8.8740   19.8929 H   0  0  0  0  0  0
  -22.3652  -10.9672   19.6156 H   0  0  0  0  0  0
  -21.1961   -7.6122   23.9688 H   0  0  0  0  0  0
  -21.1485   -6.0499   25.9059 H   0  0  0  0  0  0
  -22.0621   -2.7597   23.2818 H   0  0  0  0  0  0
  -22.4119  -11.9851   22.4835 H   0  0  0  0  0  0
  -21.1138  -13.1228   22.2567 H   0  0  0  0  0  0
  -24.6712  -15.8397   20.4953 H   0  0  0  0  0  0
  -26.2848  -15.6175   20.0555 H   0  0  0  0  0  0
  -26.7071  -32.5521   23.1120 H   0  0  0  0  0  0
  -24.9979  -33.9783   25.0432 H   0  0  0  0  0  0
  -22.6894  -31.3005   21.4152 H   0  0  0  0  0  0
  -23.3744  -35.9681   23.3342 H   0  0  0  0  0  0
  -24.3585  -36.8933   22.2068 H   0  0  0  0  0  0
  -23.7253  -37.6550   23.6643 H   0  0  0  0  0  0
  -26.0496  -31.5847   20.5985 H   0  0  0  0  0  0
  -26.8198  -30.8722   21.9896 H   0  0  0  0  0  0
  -28.1019  -29.0644   21.1659 H   0  0  0  0  0  0
  -26.0166  -25.9488   19.0110 H   0  0  0  0  0  0
  -23.9826  -27.2967   19.0175 H   0  0  0  0  0  0
  -23.7199  -30.5964   19.4065 H   0  0  0  0  0  0
  -22.7384  -29.2422   19.8732 H   0  0  0  0  0  0
  -25.1287  -36.2001   25.0841 H   0  0  0  0  0  0
  -20.9921  -28.2846   24.1399 H   0  0  0  0  0  0
  -20.5920  -26.2043   23.3146 H   0  0  0  0  0  0
  -21.6591  -26.7611   22.0705 H   0  0  0  0  0  0
  -19.6554  -27.3227   20.6537 H   0  0  0  0  0  0
  -19.6869  -25.6357   21.0832 H   0  0  0  0  0  0
  -17.4163  -26.6966   21.3653 H   0  0  0  0  0  0
  -18.0025  -25.9853   22.8489 H   0  0  0  0  0  0
  -19.7945  -30.6952   24.2521 H   0  0  0  0  0  0
  -17.5024  -31.6060   24.5335 H   0  0  0  0  0  0
  -15.5351  -30.2894   23.7665 H   0  0  0  0  0  0
  -15.8603  -28.0815   22.6966 H   0  0  0  0  0  0
  -24.5877  -30.7061   25.7865 H   0  0  0  0  0  0
  -24.8960  -32.2903   26.4925 H   0  0  0  0  0  0
  -25.8119  -30.8914   27.0255 H   0  0  0  0  0  0
  -26.2813  -29.6812   24.1155 H   0  0  0  0  0  0
  -27.4059  -29.7227   25.4511 H   0  0  0  0  0  0
  -27.8619  -30.4361   23.9219 H   0  0  0  0  0  0
  -27.2543  -33.3593   26.2095 H   0  0  0  0  0  0
  -28.3793  -32.6953   25.0352 H   0  0  0  0  0  0
  -28.0646  -31.8466   26.5439 H   0  0  0  0  0  0
  -28.2608  -38.0113   24.7464 H   0  0  0  0  0  0
  -28.1038  -36.2642   24.6334 H   0  0  0  0  0  0
  -27.2288  -37.1533   25.8872 H   0  0  0  0  0  0
  -20.9238  -29.9186   21.7493 H   0  0  0  0  0  0
  -26.0196  -38.2883   24.1391 H   0  0  0  0  0  0
  -30.2295  -16.0176   23.4171 H   0  0  0  0  0  0
  -30.3334  -18.2299   24.4938 H   0  0  0  0  0  0
  -29.7046  -17.8974   19.5730 H   0  0  0  0  0  0
  -27.8011  -21.0775   20.3334 H   0  0  0  0  0  0
  -28.6511  -21.7502   21.6951 H   0  0  0  0  0  0
  -27.9621  -25.3856   18.4990 H   0  0  0  0  0  0
  -29.6047  -25.3733   19.0405 H   0  0  0  0  0  0
  -29.8027  -20.6360   24.2395 H   0  0  0  0  0  0
  -29.8922  -21.3625   22.7162 H   0  0  0  0  0  0
  -28.8240  -15.1564   20.9814 H   0  0  0  0  0  0
  -29.9731  -20.2853   19.4529 H   0  0  0  0  0  0
  1 25  1  0  0  0
  1 30  2  0  0  0
  1 82  1  0  0  0
  2  3  1  0  0  0
  2 25  1  0  0  0
  2 86  1  0  0  0
  2 87  1  0  0  0
  3  4  1  0  0  0
  3 88  1  0  0  0
  3 89  1  0  0  0
  4  5  1  0  0  0
  4 90  1  0  0  0
  4 91  1  0  0  0
  5  6  1  0  0  0
  5 26  1  0  0  0
  5 92  1  0  0  0
  6 25  1  0  0  0
  6 93  1  0  0  0
  6 94  1  0  0  0
  7  8  2  0  0  0
  7 26  1  0  0  0
  7 29  1  0  0  0
  8  9  1  0  0  0
  8 22  1  0  0  0
  9 10  1  0  0  0
  9 27  2  0  0  0
 10 11  2  0  0  0
 10 15  1  0  0  0
 11 12  1  0  0  0
 11 95  1  0  0  0
 12 13  2  0  0  0
 12 96  1  0  0  0
 13 14  1  0  0  0
 13 31  1  0  0  0
 14 15  2  0  0  0
 14 97  1  0  0  0
 15 98  1  0  0  0
 16 17  2  0  0  0
 16 21  1  0  0  0
 16 31  1  0  0  0
 17 18  1  0  0  0
 17 99  1  0  0  0
 18 19  2  0  0  0
 18100  1  0  0  0
 19 20  1  0  0  0
 19 24  1  0  0  0
 20 21  2  0  0  0
 20101  1  0  0  0
 21 23  1  0  0  0
 22 28  1  0  0  0
 22 32  2  0  0  0
 26 27  1  0  0  0
 28102  1  0  0  0
 28103  1  0  0  0
 29104  1  0  0  0
 29105  1  0  0  0
 33 34  1  0  0  0
 33 66  1  0  0  0
 33 70  2  0  0  0
 34 36  1  0  0  0
 34 59  1  0  0  0
 34106  1  0  0  0
 35 44  2  0  0  0
 35 45  1  0  0  0
 35 68  1  0  0  0
 36 56  1  0  0  0
 36107  1  0  0  0
 37 39  1  0  0  0
 37 47  1  0  0  0
 37 66  1  0  0  0
 37108  1  0  0  0
 38 43  2  0  0  0
 38 46  1  0  0  0
 38 47  1  0  0  0
 39 64  1  0  0  0
 39 67  2  0  0  0
 40 52  1  0  0  0
 40 53  2  0  0  0
 40 58  1  0  0  0
 41109  1  0  0  0
 41110  1  0  0  0
 41111  1  0  0  0
 41 48  1  0  0  0
 42 43  1  0  0  0
 42 66  1  0  0  0
 42112  1  0  0  0
 42113  1  0  0  0
 43 44  1  0  0  0
 44114  1  0  0  0
 45 46  2  0  0  0
 45115  1  0  0  0
 46116  1  0  0  0
 47117  1  0  0  0
 47118  1  0  0  0
 48 56  1  0  0  0
 48 65  1  0  0  0
 48119  1  0  0  0
 49 50  1  0  0  0
 49 53  1  0  0  0
 49 64  1  0  0  0
 49120  1  0  0  0
 50 51  1  0  0  0
 50121  1  0  0  0
 50122  1  0  0  0
 51 52  1  0  0  0
 51123  1  0  0  0
 51124  1  0  0  0
 52125  1  0  0  0
 52126  1  0  0  0
 53 54  1  0  0  0
 54 55  2  0  0  0
 54127  1  0  0  0
 55 57  1  0  0  0
 55128  1  0  0  0
 56 69  2  0  0  0
 57 58  2  0  0  0
 57129  1  0  0  0
 58130  1  0  0  0
 59 60  1  0  0  0
 59 61  1  0  0  0
 59 62  1  0  0  0
 60131  1  0  0  0
 60132  1  0  0  0
 60133  1  0  0  0
 61134  1  0  0  0
 61135  1  0  0  0
 61136  1  0  0  0
 62137  1  0  0  0
 62138  1  0  0  0
 62139  1  0  0  0
 63 65  1  0  0  0
 63140  1  0  0  0
 63141  1  0  0  0
 63142  1  0  0  0
 64143  1  0  0  0
 65144  1  0  0  0
 68 80  1  0  0  0
 71 72  2  0  0  0
 71 74  1  0  0  0
 71145  1  0  0  0
 72 75  1  0  0  0
 72146  1  0  0  0
 73 74  2  0  0  0
 73 76  1  0  0  0
 73147  1  0  0  0
 74 82  1  0  0  0
 75 76  2  0  0  0
 75 81  1  0  0  0
 76 83  1  0  0  0
 77 78  1  0  0  0
 77 79  1  0  0  0
 77 84  2  0  0  0
 78 80  1  0  0  0
 78 85  2  0  0  0
 79 83  1  0  0  0
 79148  1  0  0  0
 79149  1  0  0  0
 80150  1  0  0  0
 80151  1  0  0  0
 81152  1  0  0  0
 81153  1  0  0  0
 82154  1  0  0  0
 83155  1  0  0  0
M  ISO  4   1 100  68 101  80 101  82 100
M  END
> <chiral flag>
0

> <version>
0

> <s_m_source_file>
/data/baiqing/PycharmProjects/Reinvent-master-3.2/result/LINK_invent/BTK/process_docking_weight1_custom_product_contain_oxygen_bond_distance_aromatic_linkinvent_7_9_3/rearranged_h_0166.sdf

> <i_m_source_file_index>
63

> <r_mmod_Potential_Energy-OPLS-2005>
18.1691417694092

> <r_mmod_Stretch_Energy-OPLS-2005>
50.1972503662109

> <r_mmod_Bend_Energy-OPLS-2005>
120.532424926758

> <r_mmod_Torsional_Energy-OPLS-2005>
246.459991455078

> <r_mmod_Improper_Torsional_Energy-OPLS-2005>
15.9320735931396

> <r_mmod_Van_der_Waal_Energy-OPLS-2005>
149.540603637695

> <r_mmod_Electrostatic_Energy-OPLS-2005>
-327.4873046875

> <r_mmod_Solvation_Energy-OPLS-2005>
-257.929992675781

> <b_mmod_Minimization_Converged-OPLS-2005>
0

> <r_mmod_RMS_Derivative-OPLS-2005>
5.53355026245117

$$$$
64
                    3D
 Structure written by MMmdl.
156164  0  0  1  0            999 V2000
  -30.7194  -14.4792   20.5521 C   0  0  0  0  0  0
  -30.4182  -12.3032   19.4269 C   0  0  0  0  0  0
  -29.4947  -12.5003   18.2076 C   0  0  0  0  0  0
  -28.0169  -12.3642   18.6186 C   0  0  0  0  0  0
  -27.6604  -13.2104   19.8693 C   0  0  2  0  0  0
  -28.7045  -13.0101   20.9929 C   0  0  0  0  0  0
  -25.2594  -13.8174   20.5709 C   0  0  0  0  0  0
  -24.1840  -13.0444   20.9191 C   0  0  0  0  0  0
  -24.6389  -11.6912   20.8712 C   0  0  0  0  0  0
  -23.9041  -10.4300   21.0390 C   0  0  0  0  0  0
  -24.3596   -9.4226   21.9180 C   0  0  0  0  0  0
  -23.6287   -8.2250   22.0742 C   0  0  0  0  0  0
  -22.4270   -8.0274   21.3535 C   0  0  0  0  0  0
  -21.9890   -9.0245   20.4641 C   0  0  0  0  0  0
  -22.7202  -10.2139   20.3048 C   0  0  0  0  0  0
  -21.6855   -6.0732   22.5282 C   0  0  0  0  0  0
  -21.4014   -6.5630   23.8216 C   0  0  0  0  0  0
  -21.3664   -5.6779   24.9179 C   0  0  0  0  0  0
  -21.6044   -4.3041   24.7225 C   0  0  0  0  0  0
  -21.8817   -3.8137   23.4344 C   0  0  0  0  0  0
  -21.9199   -4.6961   22.3405 C   0  0  0  0  0  0
  -22.7865  -13.5252   21.1852 C   0  0  0  0  0  0
  -22.1669   -4.2146   21.0984 F   0  0  0  0  0  0
  -21.5632   -3.4526   25.7738 F   0  0  0  0  0  0
  -30.0381  -13.3027   20.4392 N   0  0  0  0  0  0
  -26.3016  -12.9343   20.3331 N   0  0  0  0  0  0
  -25.9316  -11.6498   20.5727 N   0  0  0  0  0  0
  -22.0480  -12.8259   22.0405 N   0  0  0  0  0  0
  -25.4327  -15.1892   20.4172 N   0  0  0  0  0  0
  -31.8563  -14.6145   20.0911 O   0  0  0  0  0  0
  -21.6637   -6.8868   21.4241 O   0  0  0  0  0  0
  -22.3559  -14.5555   20.6695 O   0  0  0  0  0  0
  -24.6141  -31.8695   23.2104 C   0  0  0  0  0  0
  -25.9033  -32.4833   23.8414 C   0  0  1  0  0  0
  -27.2430  -27.4498   20.0942 C   0  0  0  0  0  0
  -25.5866  -33.8635   24.2334 N   0  0  0  0  0  0
  -23.4025  -30.4894   21.5533 C   0  0  2  0  0  0
  -24.8502  -28.9496   20.1229 C   0  0  0  0  0  0
  -22.7403  -29.4654   22.5032 C   0  0  0  0  0  0
  -18.0258  -28.1348   22.8496 C   0  0  0  0  0  0
  -24.1470  -36.7335   23.2634 C   0  0  0  0  0  0
  -25.9299  -30.8363   21.3614 C   0  0  0  0  0  0
  -26.0101  -29.4677   20.7167 C   0  0  0  0  0  0
  -27.2115  -28.7258   20.6988 C   0  0  0  0  0  0
  -26.0712  -26.9358   19.5028 C   0  0  0  0  0  0
  -24.8739  -27.6798   19.5168 C   0  0  0  0  0  0
  -23.6113  -29.8172   20.1698 C   0  0  0  0  0  0
  -25.4079  -36.3136   24.0350 C   0  0  1  0  0  0
  -20.5848  -28.3637   23.1320 C   0  0  2  0  0  0
  -20.6755  -26.9376   22.5414 C   0  0  0  0  0  0
  -19.5744  -26.6370   21.5201 C   0  0  0  0  0  0
  -18.1918  -26.7899   22.1618 C   0  0  0  0  0  0
  -19.1507  -28.8816   23.2903 C   0  0  0  0  0  0
  -18.9444  -30.1425   23.8916 C   0  0  0  0  0  0
  -17.6449  -30.6568   24.0551 C   0  0  0  0  0  0
  -25.9016  -34.9492   23.5150 C   0  0  0  0  0  0
  -16.5336  -29.9070   23.6309 C   0  0  0  0  0  0
  -16.7253  -28.6473   23.0355 C   0  0  0  0  0  0
  -26.4460  -31.6608   25.0737 C   0  0  0  0  0  0
  -25.3732  -31.3706   26.1495 C   0  0  0  0  0  0
  -27.0278  -30.3058   24.6095 C   0  0  0  0  0  0
  -27.6055  -32.4321   25.7477 C   0  0  0  0  0  0
  -27.5586  -37.1798   24.8450 C   0  0  0  0  0  0
  -21.4131  -29.3013   22.3748 N   0  0  0  0  0  0
  -26.4275  -37.3817   23.9430 N   0  0  0  0  0  0
  -24.6681  -31.0784   22.1015 N   0  0  0  0  0  0
  -23.4175  -28.8195   23.3072 O   0  0  0  0  0  0
  -28.4113  -26.7320   20.0189 O   0  0  0  0  0  0
  -26.5595  -34.8950   22.4721 O   0  0  0  0  0  0
  -23.5340  -32.1457   23.7499 O   0  0  0  0  0  0
  -29.5591  -19.1427   21.7545 C   0  0  0  0  0  0
  -29.3622  -17.7433   21.7200 C   0  0  0  0  0  0
  -30.6812  -19.7182   21.1208 C   0  0  0  0  0  0
  -30.2903  -16.9127   21.0547 C   0  0  0  0  0  0
  -31.5383  -18.8160   20.4438 C   0  0  0  0  0  0
  -30.9266  -21.1794   21.2557 C   0  0  0  0  0  0
  -29.0912  -24.4070   20.4319 C   0  0  0  0  0  0
  -30.0016  -23.5461   21.3210 C   0  0  0  0  0  0
  -28.5651  -25.7279   21.0278 C   0  0  0  0  0  0
  -31.3527  -17.4777   20.4220 N   0  0  0  0  0  0
  -32.6766  -19.2302   19.7600 N   0  0  0  0  0  0
  -30.0241  -15.5045   21.0936 N   0  0  0  0  0  0
  -29.9491  -22.0903   21.0317 N   0  0  0  0  0  0
  -32.1329  -21.6226   21.6548 N   0  3  0  0  0  0
  -28.7907  -24.0468   19.2871 O   0  0  0  0  0  0
  -31.4641  -12.3820   19.1255 H   0  0  0  0  0  0
  -30.3026  -11.2970   19.8341 H   0  0  0  0  0  0
  -29.7351  -11.7719   17.4322 H   0  0  0  0  0  0
  -29.6655  -13.4835   17.7661 H   0  0  0  0  0  0
  -27.8258  -11.3098   18.8203 H   0  0  0  0  0  0
  -27.3678  -12.6369   17.7856 H   0  0  0  0  0  0
  -27.6991  -14.2532   19.5571 H   0  0  0  0  0  0
  -28.6791  -11.9815   21.3546 H   0  0  0  0  0  0
  -28.4658  -13.6279   21.8601 H   0  0  0  0  0  0
  -25.2744   -9.5712   22.4748 H   0  0  0  0  0  0
  -24.0012   -7.4634   22.7447 H   0  0  0  0  0  0
  -21.0820   -8.8746   19.8948 H   0  0  0  0  0  0
  -22.3645  -10.9666   19.6146 H   0  0  0  0  0  0
  -21.1995   -7.6135   23.9715 H   0  0  0  0  0  0
  -21.1492   -6.0511   25.9082 H   0  0  0  0  0  0
  -22.0591   -2.7599   23.2842 H   0  0  0  0  0  0
  -22.4078  -11.9932   22.4821 H   0  0  0  0  0  0
  -21.1089  -13.1292   22.2574 H   0  0  0  0  0  0
  -24.6670  -15.8442   20.5335 H   0  0  0  0  0  0
  -26.2866  -15.6299   20.0981 H   0  0  0  0  0  0
  -26.7107  -32.5561   23.1183 H   0  0  0  0  0  0
  -24.9994  -33.9813   25.0467 H   0  0  0  0  0  0
  -22.6897  -31.3049   21.4124 H   0  0  0  0  0  0
  -23.3756  -35.9642   23.3286 H   0  0  0  0  0  0
  -24.3590  -36.8970   22.2049 H   0  0  0  0  0  0
  -23.7206  -37.6530   23.6665 H   0  0  0  0  0  0
  -26.0341  -31.5968   20.5855 H   0  0  0  0  0  0
  -26.8203  -30.8983   21.9767 H   0  0  0  0  0  0
  -28.1137  -29.1295   21.1379 H   0  0  0  0  0  0
  -26.0914  -25.9680   19.0211 H   0  0  0  0  0  0
  -23.9833  -27.2732   19.0559 H   0  0  0  0  0  0
  -23.7180  -30.5917   19.4091 H   0  0  0  0  0  0
  -22.7352  -29.2356   19.8775 H   0  0  0  0  0  0
  -25.1251  -36.2014   25.0841 H   0  0  0  0  0  0
  -20.9941  -28.3204   24.1442 H   0  0  0  0  0  0
  -20.5645  -26.2248   23.3598 H   0  0  0  0  0  0
  -21.6628  -26.7419   22.1216 H   0  0  0  0  0  0
  -19.6908  -25.6289   21.1214 H   0  0  0  0  0  0
  -19.6676  -27.3193   20.6738 H   0  0  0  0  0  0
  -17.4185  -26.6645   21.4015 H   0  0  0  0  0  0
  -18.0321  -26.0020   22.8994 H   0  0  0  0  0  0
  -19.7927  -30.7221   24.2304 H   0  0  0  0  0  0
  -17.5007  -31.6260   24.5139 H   0  0  0  0  0  0
  -15.5338  -30.2982   23.7620 H   0  0  0  0  0  0
  -15.8650  -28.0796   22.7073 H   0  0  0  0  0  0
  -24.5870  -30.7092   25.7838 H   0  0  0  0  0  0
  -24.8952  -32.2851   26.5017 H   0  0  0  0  0  0
  -25.8077  -30.8819   27.0223 H   0  0  0  0  0  0
  -26.2812  -29.6823   24.1165 H   0  0  0  0  0  0
  -27.4071  -29.7293   25.4539 H   0  0  0  0  0  0
  -27.8638  -30.4390   23.9229 H   0  0  0  0  0  0
  -27.2699  -33.3623   26.2084 H   0  0  0  0  0  0
  -28.3827  -32.6879   25.0261 H   0  0  0  0  0  0
  -28.0762  -31.8424   26.5354 H   0  0  0  0  0  0
  -28.2565  -38.0139   24.7585 H   0  0  0  0  0  0
  -28.1121  -36.2676   24.6153 H   0  0  0  0  0  0
  -27.2331  -37.1320   25.8861 H   0  0  0  0  0  0
  -20.9300  -29.8734   21.6961 H   0  0  0  0  0  0
  -26.0181  -38.2902   24.1473 H   0  0  0  0  0  0
  -28.8676  -19.7691   22.2963 H   0  0  0  0  0  0
  -28.5032  -17.3243   22.2251 H   0  0  0  0  0  0
  -29.7346  -23.7116   22.3640 H   0  0  0  0  0  0
  -31.0187  -23.9129   21.1913 H   0  0  0  0  0  0
  -29.2555  -26.0949   21.7866 H   0  0  0  0  0  0
  -27.6174  -25.5189   21.5256 H   0  0  0  0  0  0
  -32.7205  -20.1782   19.4041 H   0  0  0  0  0  0
  -33.1448  -18.5548   19.1691 H   0  0  0  0  0  0
  -29.1384  -15.2411   21.4924 H   0  0  0  0  0  0
  -29.0893  -21.7847   20.5950 H   0  0  0  0  0  0
  -32.8905  -20.9699   21.8088 H   0  0  0  0  0  0
  -32.3490  -22.5999   21.7738 H   0  0  0  0  0  0
  1 25  1  0  0  0
  1 30  2  0  0  0
  1 82  1  0  0  0
  2  3  1  0  0  0
  2 25  1  0  0  0
  2 86  1  0  0  0
  2 87  1  0  0  0
  3  4  1  0  0  0
  3 88  1  0  0  0
  3 89  1  0  0  0
  4  5  1  0  0  0
  4 90  1  0  0  0
  4 91  1  0  0  0
  5  6  1  0  0  0
  5 26  1  0  0  0
  5 92  1  0  0  0
  6 25  1  0  0  0
  6 93  1  0  0  0
  6 94  1  0  0  0
  7  8  2  0  0  0
  7 26  1  0  0  0
  7 29  1  0  0  0
  8  9  1  0  0  0
  8 22  1  0  0  0
  9 10  1  0  0  0
  9 27  2  0  0  0
 10 11  2  0  0  0
 10 15  1  0  0  0
 11 12  1  0  0  0
 11 95  1  0  0  0
 12 13  2  0  0  0
 12 96  1  0  0  0
 13 14  1  0  0  0
 13 31  1  0  0  0
 14 15  2  0  0  0
 14 97  1  0  0  0
 15 98  1  0  0  0
 16 17  2  0  0  0
 16 21  1  0  0  0
 16 31  1  0  0  0
 17 18  1  0  0  0
 17 99  1  0  0  0
 18 19  2  0  0  0
 18100  1  0  0  0
 19 20  1  0  0  0
 19 24  1  0  0  0
 20 21  2  0  0  0
 20101  1  0  0  0
 21 23  1  0  0  0
 22 28  1  0  0  0
 22 32  2  0  0  0
 26 27  1  0  0  0
 28102  1  0  0  0
 28103  1  0  0  0
 29104  1  0  0  0
 29105  1  0  0  0
 33 34  1  0  0  0
 33 66  1  0  0  0
 33 70  2  0  0  0
 34 36  1  0  0  0
 34 59  1  0  0  0
 34106  1  0  0  0
 35 44  2  0  0  0
 35 45  1  0  0  0
 35 68  1  0  0  0
 36 56  1  0  0  0
 36107  1  0  0  0
 37 39  1  0  0  0
 37 47  1  0  0  0
 37 66  1  0  0  0
 37108  1  0  0  0
 38 43  2  0  0  0
 38 46  1  0  0  0
 38 47  1  0  0  0
 39 64  1  0  0  0
 39 67  2  0  0  0
 40 52  1  0  0  0
 40 53  2  0  0  0
 40 58  1  0  0  0
 41109  1  0  0  0
 41110  1  0  0  0
 41111  1  0  0  0
 41 48  1  0  0  0
 42 43  1  0  0  0
 42 66  1  0  0  0
 42112  1  0  0  0
 42113  1  0  0  0
 43 44  1  0  0  0
 44114  1  0  0  0
 45 46  2  0  0  0
 45115  1  0  0  0
 46116  1  0  0  0
 47117  1  0  0  0
 47118  1  0  0  0
 48 56  1  0  0  0
 48 65  1  0  0  0
 48119  1  0  0  0
 49 50  1  0  0  0
 49 53  1  0  0  0
 49 64  1  0  0  0
 49120  1  0  0  0
 50 51  1  0  0  0
 50121  1  0  0  0
 50122  1  0  0  0
 51 52  1  0  0  0
 51123  1  0  0  0
 51124  1  0  0  0
 52125  1  0  0  0
 52126  1  0  0  0
 53 54  1  0  0  0
 54 55  2  0  0  0
 54127  1  0  0  0
 55 57  1  0  0  0
 55128  1  0  0  0
 56 69  2  0  0  0
 57 58  2  0  0  0
 57129  1  0  0  0
 58130  1  0  0  0
 59 60  1  0  0  0
 59 61  1  0  0  0
 59 62  1  0  0  0
 60131  1  0  0  0
 60132  1  0  0  0
 60133  1  0  0  0
 61134  1  0  0  0
 61135  1  0  0  0
 61136  1  0  0  0
 62137  1  0  0  0
 62138  1  0  0  0
 62139  1  0  0  0
 63 65  1  0  0  0
 63140  1  0  0  0
 63141  1  0  0  0
 63142  1  0  0  0
 64143  1  0  0  0
 65144  1  0  0  0
 68 79  1  0  0  0
 71 72  2  0  0  0
 71 73  1  0  0  0
 71145  1  0  0  0
 72 74  1  0  0  0
 72146  1  0  0  0
 73 75  2  0  0  0
 73 76  1  0  0  0
 74 80  2  0  0  0
 74 82  1  0  0  0
 75 80  1  0  0  0
 75 81  1  0  0  0
 76 83  1  0  0  0
 76 84  2  0  0  0
 77 78  1  0  0  0
 77 79  1  0  0  0
 77 85  2  0  0  0
 78 83  1  0  0  0
 78147  1  0  0  0
 78148  1  0  0  0
 79149  1  0  0  0
 79150  1  0  0  0
 81151  1  0  0  0
 81152  1  0  0  0
 82153  1  0  0  0
 83154  1  0  0  0
 84155  1  0  0  0
 84156  1  0  0  0
M  CHG  1  84   1
M  ISO  4   1 100  68 101  79 101  82 100
M  END
> <chiral flag>
0

> <version>
0

> <s_m_source_file>
/data/baiqing/PycharmProjects/Reinvent-master-3.2/result/LINK_invent/BTK/process_docking_weight1_custom_product_contain_oxygen_bond_distance_aromatic_linkinvent_7_9_3/rearranged_h_0166.sdf

> <i_m_source_file_index>
64

> <r_mmod_Potential_Energy-OPLS-2005>
-289.44677734375

> <r_mmod_Stretch_Energy-OPLS-2005>
39.0776138305664

> <r_mmod_Bend_Energy-OPLS-2005>
104.108963012695

> <r_mmod_Torsional_Energy-OPLS-2005>
238.166641235352

> <r_mmod_Improper_Torsional_Energy-OPLS-2005>
6.1569652557373

> <r_mmod_Van_der_Waal_Energy-OPLS-2005>
150.68571472168

> <r_mmod_Electrostatic_Energy-OPLS-2005>
-326.019927978516

> <r_mmod_Solvation_Energy-OPLS-2005>
-514.067260742188

> <b_mmod_Minimization_Converged-OPLS-2005>
0

> <r_mmod_RMS_Derivative-OPLS-2005>
2.64954733848572

$$$$
65
                    3D
 Structure written by MMmdl.
167176  0  0  1  0            999 V2000
  -30.7447  -14.3924   20.6715 C   0  0  0  0  0  0
  -30.4249  -12.2998   19.3892 C   0  0  0  0  0  0
  -29.4877  -12.5383   18.1892 C   0  0  0  0  0  0
  -28.0115  -12.3914   18.6074 C   0  0  0  0  0  0
  -27.6714  -13.2022   19.8855 C   0  0  2  0  0  0
  -28.7134  -12.9262   20.9938 C   0  0  0  0  0  0
  -25.2593  -13.8106   20.5602 C   0  0  0  0  0  0
  -24.1829  -13.0394   20.9062 C   0  0  0  0  0  0
  -24.6408  -11.6871   20.8668 C   0  0  0  0  0  0
  -23.9071  -10.4270   21.0377 C   0  0  0  0  0  0
  -24.3632   -9.4193   21.9173 C   0  0  0  0  0  0
  -23.6303   -8.2233   22.0752 C   0  0  0  0  0  0
  -22.4280   -8.0272   21.3542 C   0  0  0  0  0  0
  -21.9906   -9.0241   20.4636 C   0  0  0  0  0  0
  -22.7237  -10.2117   20.3035 C   0  0  0  0  0  0
  -21.6840   -6.0738   22.5273 C   0  0  0  0  0  0
  -21.4024   -6.5643   23.8212 C   0  0  0  0  0  0
  -21.3666   -5.6789   24.9169 C   0  0  0  0  0  0
  -21.6032   -4.3049   24.7210 C   0  0  0  0  0  0
  -21.8830   -3.8150   23.4330 C   0  0  0  0  0  0
  -21.9196   -4.6970   22.3391 C   0  0  0  0  0  0
  -22.7867  -13.5194   21.1774 C   0  0  0  0  0  0
  -22.1658   -4.2161   21.0963 F   0  0  0  0  0  0
  -21.5629   -3.4531   25.7725 F   0  0  0  0  0  0
  -30.0594  -13.2353   20.4637 N   0  0  0  0  0  0
  -26.3086  -12.9303   20.3426 N   0  0  0  0  0  0
  -25.9353  -11.6457   20.5778 N   0  0  0  0  0  0
  -22.0540  -12.8195   22.0365 N   0  0  0  0  0  0
  -25.4268  -15.1815   20.4073 N   0  0  0  0  0  0
  -31.7606  -14.7076   20.0420 O   0  0  0  0  0  0
  -21.6630   -6.8885   21.4238 O   0  0  0  0  0  0
  -22.3523  -14.5515   20.6654 O   0  0  0  0  0  0
  -24.6106  -31.8694   23.2112 C   0  0  0  0  0  0
  -25.9008  -32.4836   23.8374 C   0  0  1  0  0  0
  -27.2315  -27.4223   20.0807 C   0  0  0  0  0  0
  -25.5878  -33.8626   24.2321 N   0  0  0  0  0  0
  -23.3988  -30.4921   21.5531 C   0  0  2  0  0  0
  -24.8438  -28.9633   20.1090 C   0  0  0  0  0  0
  -22.7396  -29.4639   22.4984 C   0  0  0  0  0  0
  -18.0304  -28.1348   22.8476 C   0  0  0  0  0  0
  -24.1533  -36.7264   23.2640 C   0  0  0  0  0  0
  -25.9269  -30.8296   21.3651 C   0  0  0  0  0  0
  -26.0032  -29.4638   20.7101 C   0  0  0  0  0  0
  -27.1936  -28.6978   20.6973 C   0  0  0  0  0  0
  -26.0450  -26.9389   19.4786 C   0  0  0  0  0  0
  -24.8611  -27.7017   19.4926 C   0  0  0  0  0  0
  -23.6051  -29.8295   20.1659 C   0  0  0  0  0  0
  -25.4166  -36.3102   24.0334 C   0  0  1  0  0  0
  -20.5875  -28.3610   23.1344 C   0  0  2  0  0  0
  -20.6809  -26.9355   22.5416 C   0  0  0  0  0  0
  -19.5793  -26.6363   21.5214 C   0  0  0  0  0  0
  -18.1962  -26.7891   22.1613 C   0  0  0  0  0  0
  -19.1538  -28.8800   23.2901 C   0  0  0  0  0  0
  -18.9474  -30.1426   23.8878 C   0  0  0  0  0  0
  -17.6467  -30.6547   24.0559 C   0  0  0  0  0  0
  -25.9084  -34.9473   23.5139 C   0  0  0  0  0  0
  -16.5366  -29.9038   23.6326 C   0  0  0  0  0  0
  -16.7286  -28.6472   23.0312 C   0  0  0  0  0  0
  -26.4444  -31.6607   25.0687 C   0  0  0  0  0  0
  -25.3681  -31.3723   26.1411 C   0  0  0  0  0  0
  -27.0279  -30.3065   24.6028 C   0  0  0  0  0  0
  -27.6032  -32.4315   25.7428 C   0  0  0  0  0  0
  -27.5615  -37.1794   24.8479 C   0  0  0  0  0  0
  -21.4117  -29.2983   22.3729 N   0  0  0  0  0  0
  -26.4355  -37.3785   23.9396 N   0  0  0  0  0  0
  -24.6640  -31.0782   22.1014 N   0  0  0  0  0  0
  -23.4181  -28.8192   23.3018 O   0  0  0  0  0  0
  -28.4282  -26.7238   20.1213 O   0  0  0  0  0  0
  -26.5635  -34.8921   22.4699 O   0  0  0  0  0  0
  -23.5305  -32.1470   23.7505 O   0  0  0  0  0  0
  -28.4143  -18.3154   21.9204 C   0  0  0  0  0  0
  -31.0951  -17.4967   21.6933 C   0  0  0  0  0  0
  -29.4373  -19.2835   22.0280 C   0  0  0  0  0  0
  -30.0609  -16.5320   21.6605 C   0  0  0  0  0  0
  -28.7248  -16.9562   21.7523 C   0  0  0  0  0  0
  -30.7863  -18.8681   21.8807 C   0  0  0  0  0  0
  -29.0596  -20.6355   22.4865 C   0  0  0  0  0  0
  -29.4376  -23.0271   19.6910 C   0  0  0  0  0  0
  -28.6287  -24.2174   21.7134 C   0  0  0  0  0  0
  -30.0808  -21.9260   20.5816 C   0  0  0  0  0  0
  -29.2758  -23.1322   22.5914 C   0  0  0  0  0  0
  -29.3750  -24.4219   20.3778 C   0  0  0  0  0  0
  -31.0587  -26.0070   21.2434 C   0  0  0  0  0  0
  -28.6267  -25.4518   19.4704 C   0  0  0  0  0  0
  -29.3856  -21.8205   21.8899 N   0  0  0  0  0  0
  -30.2773  -15.1297   21.6817 N   0  0  0  0  0  0
  -28.3133  -20.6734   23.5938 N   0  3  0  0  0  0
  -30.7528  -24.7935   20.5547 O   0  0  0  0  0  0
  -27.7325  -16.0361   21.7275 F   0  0  0  0  0  0
  -31.7971  -19.7632   22.0000 F   0  0  0  0  0  0
  -31.4679  -12.3991   19.0854 H   0  0  0  0  0  0
  -30.3209  -11.2734   19.7437 H   0  0  0  0  0  0
  -29.7173  -11.8388   17.3832 H   0  0  0  0  0  0
  -29.6586  -13.5360   17.7844 H   0  0  0  0  0  0
  -27.8180  -11.3317   18.7789 H   0  0  0  0  0  0
  -27.3559  -12.6890   17.7882 H   0  0  0  0  0  0
  -27.7299  -14.2589   19.6227 H   0  0  0  0  0  0
  -28.6789  -11.8742   21.2829 H   0  0  0  0  0  0
  -28.4542  -13.4725   21.9011 H   0  0  0  0  0  0
  -25.2781   -9.5666   22.4738 H   0  0  0  0  0  0
  -23.9996   -7.4627   22.7485 H   0  0  0  0  0  0
  -21.0830   -8.8764   19.8947 H   0  0  0  0  0  0
  -22.3700  -10.9658   19.6138 H   0  0  0  0  0  0
  -21.2028   -7.6151   23.9723 H   0  0  0  0  0  0
  -21.1472   -6.0511   25.9075 H   0  0  0  0  0  0
  -22.0609   -2.7611   23.2812 H   0  0  0  0  0  0
  -22.4163  -11.9811   22.4670 H   0  0  0  0  0  0
  -21.1191  -13.1245   22.2684 H   0  0  0  0  0  0
  -24.6875  -15.8295   20.6502 H   0  0  0  0  0  0
  -26.3499  -15.6008   20.4372 H   0  0  0  0  0  0
  -26.7048  -32.5571   23.1102 H   0  0  0  0  0  0
  -25.0011  -33.9804   25.0449 H   0  0  0  0  0  0
  -22.6848  -31.3074   21.4174 H   0  0  0  0  0  0
  -23.3827  -35.9565   23.3326 H   0  0  0  0  0  0
  -24.3638  -36.8872   22.2055 H   0  0  0  0  0  0
  -23.7254  -37.6455   23.6657 H   0  0  0  0  0  0
  -26.0445  -31.6018   20.6032 H   0  0  0  0  0  0
  -26.8119  -30.8770   21.9879 H   0  0  0  0  0  0
  -28.0895  -29.0783   21.1680 H   0  0  0  0  0  0
  -25.9848  -25.9808   18.9914 H   0  0  0  0  0  0
  -23.9687  -27.3152   19.0205 H   0  0  0  0  0  0
  -23.6968  -30.6104   19.4082 H   0  0  0  0  0  0
  -22.7291  -29.2467   19.8786 H   0  0  0  0  0  0
  -25.1359  -36.1964   25.0826 H   0  0  0  0  0  0
  -20.9986  -28.3180   24.1464 H   0  0  0  0  0  0
  -20.5802  -26.2177   23.3573 H   0  0  0  0  0  0
  -21.6671  -26.7451   22.1176 H   0  0  0  0  0  0
  -19.6970  -25.6300   21.1209 H   0  0  0  0  0  0
  -19.6779  -27.3189   20.6761 H   0  0  0  0  0  0
  -17.4257  -26.6647   21.3992 H   0  0  0  0  0  0
  -18.0363  -26.0027   22.9004 H   0  0  0  0  0  0
  -19.7957  -30.7244   24.2216 H   0  0  0  0  0  0
  -17.5032  -31.6234   24.5140 H   0  0  0  0  0  0
  -15.5363  -30.2921   23.7667 H   0  0  0  0  0  0
  -15.8697  -28.0810   22.6968 H   0  0  0  0  0  0
  -24.5884  -30.7039   25.7723 H   0  0  0  0  0  0
  -24.8797  -32.2885   26.4736 H   0  0  0  0  0  0
  -25.7984  -30.8983   27.0241 H   0  0  0  0  0  0
  -26.2827  -29.6828   24.1064 H   0  0  0  0  0  0
  -27.4096  -29.7285   25.4446 H   0  0  0  0  0  0
  -27.8644  -30.4412   23.9162 H   0  0  0  0  0  0
  -27.2676  -33.3641   26.1981 H   0  0  0  0  0  0
  -28.3827  -32.6810   25.0221 H   0  0  0  0  0  0
  -28.0688  -31.8442   26.5352 H   0  0  0  0  0  0
  -28.2618  -38.0102   24.7549 H   0  0  0  0  0  0
  -28.1129  -36.2629   24.6312 H   0  0  0  0  0  0
  -27.2307  -37.1414   25.8874 H   0  0  0  0  0  0
  -20.9254  -29.8618   21.6905 H   0  0  0  0  0  0
  -26.0250  -38.2876   24.1384 H   0  0  0  0  0  0
  -27.3797  -18.5956   22.0489 H   0  0  0  0  0  0
  -32.1271  -17.1863   21.6485 H   0  0  0  0  0  0
  -28.4363  -22.7066   19.3983 H   0  0  0  0  0  0
  -29.9972  -23.0999   18.7572 H   0  0  0  0  0  0
  -28.5698  -25.1517   22.2716 H   0  0  0  0  0  0
  -27.5907  -23.9465   21.5123 H   0  0  0  0  0  0
  -31.1287  -22.1746   20.7638 H   0  0  0  0  0  0
  -30.0848  -20.9767   20.0416 H   0  0  0  0  0  0
  -28.7239  -23.0746   23.5281 H   0  0  0  0  0  0
  -30.2841  -23.4465   22.8637 H   0  0  0  0  0  0
  -32.1382  -26.0585   21.3840 H   0  0  0  0  0  0
  -30.6013  -26.0649   22.2301 H   0  0  0  0  0  0
  -30.7806  -26.8919   20.6743 H   0  0  0  0  0  0
  -29.2000  -25.6273   18.5580 H   0  0  0  0  0  0
  -27.7062  -24.9751   19.1535 H   0  0  0  0  0  0
  -29.5504  -14.6352   22.1767 H   0  0  0  0  0  0
  -28.0942  -19.8097   24.0680 H   0  0  0  0  0  0
  -27.9368  -21.5296   23.9630 H   0  0  0  0  0  0
  1 25  1  0  0  0
  1 30  2  0  0  0
  1 86  1  0  0  0
  2  3  1  0  0  0
  2 25  1  0  0  0
  2 91  1  0  0  0
  2 92  1  0  0  0
  3  4  1  0  0  0
  3 93  1  0  0  0
  3 94  1  0  0  0
  4  5  1  0  0  0
  4 95  1  0  0  0
  4 96  1  0  0  0
  5  6  1  0  0  0
  5 26  1  0  0  0
  5 97  1  0  0  0
  6 25  1  0  0  0
  6 98  1  0  0  0
  6 99  1  0  0  0
  7  8  2  0  0  0
  7 26  1  0  0  0
  7 29  1  0  0  0
  8  9  1  0  0  0
  8 22  1  0  0  0
  9 10  1  0  0  0
  9 27  2  0  0  0
 10 11  2  0  0  0
 10 15  1  0  0  0
 11 12  1  0  0  0
 11100  1  0  0  0
 12 13  2  0  0  0
 12101  1  0  0  0
 13 14  1  0  0  0
 13 31  1  0  0  0
 14 15  2  0  0  0
 14102  1  0  0  0
 15103  1  0  0  0
 16 17  2  0  0  0
 16 21  1  0  0  0
 16 31  1  0  0  0
 17 18  1  0  0  0
 17104  1  0  0  0
 18 19  2  0  0  0
 18105  1  0  0  0
 19 20  1  0  0  0
 19 24  1  0  0  0
 20 21  2  0  0  0
 20106  1  0  0  0
 21 23  1  0  0  0
 22 28  1  0  0  0
 22 32  2  0  0  0
 26 27  1  0  0  0
 28107  1  0  0  0
 28108  1  0  0  0
 29109  1  0  0  0
 29110  1  0  0  0
 33 34  1  0  0  0
 33 66  1  0  0  0
 33 70  2  0  0  0
 34 36  1  0  0  0
 34 59  1  0  0  0
 34111  1  0  0  0
 35 44  2  0  0  0
 35 45  1  0  0  0
 35 68  1  0  0  0
 36 56  1  0  0  0
 36112  1  0  0  0
 37 39  1  0  0  0
 37 47  1  0  0  0
 37 66  1  0  0  0
 37113  1  0  0  0
 38 43  2  0  0  0
 38 46  1  0  0  0
 38 47  1  0  0  0
 39 64  1  0  0  0
 39 67  2  0  0  0
 40 52  1  0  0  0
 40 53  2  0  0  0
 40 58  1  0  0  0
 41114  1  0  0  0
 41115  1  0  0  0
 41116  1  0  0  0
 41 48  1  0  0  0
 42 43  1  0  0  0
 42 66  1  0  0  0
 42117  1  0  0  0
 42118  1  0  0  0
 43 44  1  0  0  0
 44119  1  0  0  0
 45 46  2  0  0  0
 45120  1  0  0  0
 46121  1  0  0  0
 47122  1  0  0  0
 47123  1  0  0  0
 48 56  1  0  0  0
 48 65  1  0  0  0
 48124  1  0  0  0
 49 50  1  0  0  0
 49 53  1  0  0  0
 49 64  1  0  0  0
 49125  1  0  0  0
 50 51  1  0  0  0
 50126  1  0  0  0
 50127  1  0  0  0
 51 52  1  0  0  0
 51128  1  0  0  0
 51129  1  0  0  0
 52130  1  0  0  0
 52131  1  0  0  0
 53 54  1  0  0  0
 54 55  2  0  0  0
 54132  1  0  0  0
 55 57  1  0  0  0
 55133  1  0  0  0
 56 69  2  0  0  0
 57 58  2  0  0  0
 57134  1  0  0  0
 58135  1  0  0  0
 59 60  1  0  0  0
 59 61  1  0  0  0
 59 62  1  0  0  0
 60136  1  0  0  0
 60137  1  0  0  0
 60138  1  0  0  0
 61139  1  0  0  0
 61140  1  0  0  0
 61141  1  0  0  0
 62142  1  0  0  0
 62143  1  0  0  0
 62144  1  0  0  0
 63 65  1  0  0  0
 63145  1  0  0  0
 63146  1  0  0  0
 63147  1  0  0  0
 64148  1  0  0  0
 65149  1  0  0  0
 68 84  1  0  0  0
 71 73  2  0  0  0
 71 75  1  0  0  0
 71150  1  0  0  0
 72 74  1  0  0  0
 72 76  2  0  0  0
 72151  1  0  0  0
 73 76  1  0  0  0
 73 77  1  0  0  0
 74 75  2  0  0  0
 74 86  1  0  0  0
 75 89  1  0  0  0
 76 90  1  0  0  0
 77 85  1  0  0  0
 77 87  2  0  0  0
 78 80  1  0  0  0
 78 82  1  0  0  0
 78152  1  0  0  0
 78153  1  0  0  0
 79 81  1  0  0  0
 79 82  1  0  0  0
 79154  1  0  0  0
 79155  1  0  0  0
 80 85  1  0  0  0
 80156  1  0  0  0
 80157  1  0  0  0
 81 85  1  0  0  0
 81158  1  0  0  0
 81159  1  0  0  0
 82 84  1  0  0  0
 82 88  1  0  0  0
 83 88  1  0  0  0
 83160  1  0  0  0
 83161  1  0  0  0
 83162  1  0  0  0
 84163  1  0  0  0
 84164  1  0  0  0
 86165  1  0  0  0
 87166  1  0  0  0
 87167  1  0  0  0
M  CHG  1  87   1
M  ISO  4   1 100  68 101  84 101  86 100
M  END
> <chiral flag>
0

> <version>
0

> <s_m_source_file>
/data/baiqing/PycharmProjects/Reinvent-master-3.2/result/LINK_invent/BTK/process_docking_weight1_custom_product_contain_oxygen_bond_distance_aromatic_linkinvent_7_9_3/rearranged_h_0166.sdf

> <i_m_source_file_index>
65

> <r_mmod_Potential_Energy-OPLS-2005>
-202.901565551758

> <r_mmod_Stretch_Energy-OPLS-2005>
43.5982437133789

> <r_mmod_Bend_Energy-OPLS-2005>
134.582550048828

> <r_mmod_Torsional_Energy-OPLS-2005>
279.083618164062

> <r_mmod_Improper_Torsional_Energy-OPLS-2005>
9.0676212310791

> <r_mmod_Van_der_Waal_Energy-OPLS-2005>
167.960556030273

> <r_mmod_Electrostatic_Energy-OPLS-2005>
-439.528106689453

> <r_mmod_Solvation_Energy-OPLS-2005>
-407.816070556641

> <b_mmod_Minimization_Converged-OPLS-2005>
0

> <r_mmod_RMS_Derivative-OPLS-2005>
3.56740164756775

$$$$
66
                    3D
 Structure written by MMmdl.
155163  0  0  1  0            999 V2000
  -30.6089  -14.7994   20.4379 C   0  0  0  0  0  0
  -30.4239  -12.4864   19.4860 C   0  0  0  0  0  0
  -29.5127  -12.5158   18.2397 C   0  0  0  0  0  0
  -28.0373  -12.3387   18.6482 C   0  0  0  0  0  0
  -27.6348  -13.2436   19.8437 C   0  0  2  0  0  0
  -28.6782  -13.2082   20.9813 C   0  0  0  0  0  0
  -25.2448  -13.8204   20.5637 C   0  0  0  0  0  0
  -24.1790  -13.0441   20.9256 C   0  0  0  0  0  0
  -24.6407  -11.6928   20.8778 C   0  0  0  0  0  0
  -23.9091  -10.4294   21.0428 C   0  0  0  0  0  0
  -24.3634   -9.4200   21.9201 C   0  0  0  0  0  0
  -23.6305   -8.2238   22.0756 C   0  0  0  0  0  0
  -22.4284   -8.0284   21.3549 C   0  0  0  0  0  0
  -21.9933   -9.0262   20.4649 C   0  0  0  0  0  0
  -22.7269  -10.2138   20.3069 C   0  0  0  0  0  0
  -21.6852   -6.0742   22.5287 C   0  0  0  0  0  0
  -21.4008   -6.5643   23.8222 C   0  0  0  0  0  0
  -21.3660   -5.6798   24.9185 C   0  0  0  0  0  0
  -21.6044   -4.3058   24.7233 C   0  0  0  0  0  0
  -21.8816   -3.8151   23.4355 C   0  0  0  0  0  0
  -21.9190   -4.6970   22.3409 C   0  0  0  0  0  0
  -22.7806  -13.5209   21.1900 C   0  0  0  0  0  0
  -22.1659   -4.2156   21.0987 F   0  0  0  0  0  0
  -21.5633   -3.4540   25.7745 F   0  0  0  0  0  0
  -29.9734  -13.5712   20.3950 N   0  0  0  0  0  0
  -26.2898  -12.9443   20.3241 N   0  0  0  0  0  0
  -25.9335  -11.6579   20.5762 N   0  0  0  0  0  0
  -22.0444  -12.8191   22.0444 N   0  0  0  0  0  0
  -25.4042  -15.1914   20.3862 N   0  0  0  0  0  0
  -31.8103  -14.8271   20.1631 O   0  0  0  0  0  0
  -21.6641   -6.8884   21.4249 O   0  0  0  0  0  0
  -22.3492  -14.5516   20.6750 O   0  0  0  0  0  0
  -24.6357  -31.8513   23.1949 C   0  0  0  0  0  0
  -25.9159  -32.4727   23.8309 C   0  0  1  0  0  0
  -27.2129  -27.2199   20.1371 C   0  0  0  0  0  0
  -25.5946  -33.8528   24.2228 N   0  0  0  0  0  0
  -23.4372  -30.4749   21.5362 C   0  0  2  0  0  0
  -24.8879  -28.9184   20.1057 C   0  0  0  0  0  0
  -22.7540  -29.4583   22.4855 C   0  0  0  0  0  0
  -18.0307  -28.1404   22.8498 C   0  0  0  0  0  0
  -24.1484  -36.7264   23.2640 C   0  0  0  0  0  0
  -25.9886  -30.7506   21.3844 C   0  0  0  0  0  0
  -26.0626  -29.3704   20.7244 C   0  0  0  0  0  0
  -27.2321  -28.5326   20.7325 C   0  0  0  0  0  0
  -26.0225  -26.8549   19.4746 C   0  0  0  0  0  0
  -24.8741  -27.6700   19.4686 C   0  0  0  0  0  0
  -23.6602  -29.8110   20.1531 C   0  0  0  0  0  0
  -25.4114  -36.3051   24.0324 C   0  0  1  0  0  0
  -20.5916  -28.3720   23.1254 C   0  0  2  0  0  0
  -20.6779  -26.9425   22.5404 C   0  0  0  0  0  0
  -19.5742  -26.6395   21.5215 C   0  0  0  0  0  0
  -18.1942  -26.7947   22.1643 C   0  0  0  0  0  0
  -19.1562  -28.8880   23.2877 C   0  0  0  0  0  0
  -18.9482  -30.1492   23.8884 C   0  0  0  0  0  0
  -17.6471  -30.6602   24.0578 C   0  0  0  0  0  0
  -25.9068  -34.9422   23.5081 C   0  0  0  0  0  0
  -16.5367  -29.9100   23.6342 C   0  0  0  0  0  0
  -16.7291  -28.6513   23.0369 C   0  0  0  0  0  0
  -26.4502  -31.6578   25.0721 C   0  0  0  0  0  0
  -25.3699  -31.3784   26.1431 C   0  0  0  0  0  0
  -27.0344  -30.2967   24.6262 C   0  0  0  0  0  0
  -27.6052  -32.4323   25.7496 C   0  0  0  0  0  0
  -27.5579  -37.1789   24.8468 C   0  0  0  0  0  0
  -21.4232  -29.3058   22.3626 N   0  0  0  0  0  0
  -26.4281  -37.3758   23.9421 N   0  0  0  0  0  0
  -24.7057  -31.0463   22.0937 N   0  0  0  0  0  0
  -23.4229  -28.8115   23.2957 O   0  0  0  0  0  0
  -28.2125  -26.2090   20.2216 O   0  0  0  0  0  0
  -26.5640  -34.8904   22.4647 O   0  0  0  0  0  0
  -23.5492  -32.1346   23.7212 O   0  0  0  0  0  0
  -31.7817  -19.0919   19.4818 C   0  0  0  0  0  0
  -30.9430  -20.1889   19.7291 C   0  0  0  0  0  0
  -31.3978  -17.7773   19.7864 C   0  0  0  0  0  0
  -29.2800  -18.6370   20.6499 C   0  0  0  0  0  0
  -29.6642  -20.0373   20.3082 C   0  0  0  0  0  0
  -30.1494  -17.4547   20.3741 C   0  0  0  0  0  0
  -27.7979  -25.0127   20.8995 C   0  0  0  0  0  0
  -27.9303  -18.4466   21.2861 C   0  0  0  0  0  0
  -28.0642  -23.6283   20.9655 C   0  0  0  0  0  0
  -29.0341  -22.6776   20.2823 C   0  0  0  0  0  0
  -27.7082  -17.2409   22.1950 C   0  0  0  0  0  0
  -28.8581  -21.2993   20.5553 N   0  0  0  0  0  0
  -29.8535  -15.9767   20.6043 N   0  0  0  0  0  0
  -26.9993  -19.2494   21.1638 O   0  0  0  0  0  0
  -29.9212  -23.0813   19.5309 O   0  0  0  0  0  0
  -27.3006  -23.0161   21.8869 O   0  0  0  0  0  0
  -31.4675  -12.5971   19.1881 H   0  0  0  0  0  0
  -30.3602  -11.5185   19.9857 H   0  0  0  0  0  0
  -29.8030  -11.7322   17.5381 H   0  0  0  0  0  0
  -29.6382  -13.4620   17.7117 H   0  0  0  0  0  0
  -27.8966  -11.2908   18.9153 H   0  0  0  0  0  0
  -27.3831  -12.5248   17.7952 H   0  0  0  0  0  0
  -27.6178  -14.2606   19.4514 H   0  0  0  0  0  0
  -28.7251  -12.2167   21.4350 H   0  0  0  0  0  0
  -28.4055  -13.8987   21.7802 H   0  0  0  0  0  0
  -25.2776   -9.5670   22.4784 H   0  0  0  0  0  0
  -24.0010   -7.4620   22.7469 H   0  0  0  0  0  0
  -21.0869   -8.8792   19.8942 H   0  0  0  0  0  0
  -22.3741  -10.9685   19.6177 H   0  0  0  0  0  0
  -21.1992   -7.6147   23.9729 H   0  0  0  0  0  0
  -21.1487   -6.0524   25.9090 H   0  0  0  0  0  0
  -22.0589   -2.7614   23.2856 H   0  0  0  0  0  0
  -22.4052  -11.9857   22.4840 H   0  0  0  0  0  0
  -21.1061  -13.1221   22.2634 H   0  0  0  0  0  0
  -24.6027  -15.8111   20.4307 H   0  0  0  0  0  0
  -26.1819  -15.5913   19.8799 H   0  0  0  0  0  0
  -26.7222  -32.5368   23.1048 H   0  0  0  0  0  0
  -25.0069  -33.9636   25.0361 H   0  0  0  0  0  0
  -22.7346  -31.2978   21.3878 H   0  0  0  0  0  0
  -23.3745  -35.9596   23.3286 H   0  0  0  0  0  0
  -24.3569  -36.8900   22.2058 H   0  0  0  0  0  0
  -23.7220  -37.6452   23.6672 H   0  0  0  0  0  0
  -26.1405  -31.5101   20.6158 H   0  0  0  0  0  0
  -26.8599  -30.7967   22.0263 H   0  0  0  0  0  0
  -28.1227  -28.8604   21.2489 H   0  0  0  0  0  0
  -25.9628  -25.8878   18.9952 H   0  0  0  0  0  0
  -23.9760  -27.3199   18.9775 H   0  0  0  0  0  0
  -23.7883  -30.5873   19.3983 H   0  0  0  0  0  0
  -22.7777  -29.2488   19.8437 H   0  0  0  0  0  0
  -25.1288  -36.1884   25.0813 H   0  0  0  0  0  0
  -21.0054  -28.3303   24.1356 H   0  0  0  0  0  0
  -20.5678  -26.2322   23.3608 H   0  0  0  0  0  0
  -21.6644  -26.7411   22.1207 H   0  0  0  0  0  0
  -19.6883  -25.6302   21.1260 H   0  0  0  0  0  0
  -19.6689  -27.3189   20.6735 H   0  0  0  0  0  0
  -17.4202  -26.6720   21.4051 H   0  0  0  0  0  0
  -18.0345  -26.0086   22.9033 H   0  0  0  0  0  0
  -19.7947  -30.7342   24.2231 H   0  0  0  0  0  0
  -17.5010  -31.6278   24.5191 H   0  0  0  0  0  0
  -15.5366  -30.2995   23.7660 H   0  0  0  0  0  0
  -15.8697  -28.0829   22.7075 H   0  0  0  0  0  0
  -24.5854  -30.7147   25.7780 H   0  0  0  0  0  0
  -24.8910  -32.2978   26.4814 H   0  0  0  0  0  0
  -25.7987  -30.8992   27.0240 H   0  0  0  0  0  0
  -26.2944  -29.6713   24.1254 H   0  0  0  0  0  0
  -27.3946  -29.7241   25.4824 H   0  0  0  0  0  0
  -27.8862  -30.4197   23.9568 H   0  0  0  0  0  0
  -27.2673  -33.3670   26.1985 H   0  0  0  0  0  0
  -28.3918  -32.6807   25.0358 H   0  0  0  0  0  0
  -28.0642  -31.8487   26.5485 H   0  0  0  0  0  0
  -28.2597  -38.0099   24.7533 H   0  0  0  0  0  0
  -28.1090  -36.2620   24.6273 H   0  0  0  0  0  0
  -27.2307  -37.1416   25.8881 H   0  0  0  0  0  0
  -20.9413  -29.8776   21.6826 H   0  0  0  0  0  0
  -26.0152  -38.2826   24.1426 H   0  0  0  0  0  0
  -32.7534  -19.2620   19.0382 H   0  0  0  0  0  0
  -31.3275  -21.1605   19.4619 H   0  0  0  0  0  0
  -32.1194  -17.0203   19.5296 H   0  0  0  0  0  0
  -27.0241  -25.3229   21.5906 H   0  0  0  0  0  0
  -28.5912  -17.0409   22.8011 H   0  0  0  0  0  0
  -27.4656  -16.3570   21.6089 H   0  0  0  0  0  0
  -26.8733  -17.4295   22.8697 H   0  0  0  0  0  0
  -27.9652  -21.1034   20.9895 H   0  0  0  0  0  0
  -28.9017  -15.7714   20.8638 H   0  0  0  0  0  0
  -27.7552  -22.2271   22.1498 H   0  0  0  0  0  0
  1 25  1  0  0  0
  1 30  2  0  0  0
  1 83  1  0  0  0
  2  3  1  0  0  0
  2 25  1  0  0  0
  2 87  1  0  0  0
  2 88  1  0  0  0
  3  4  1  0  0  0
  3 89  1  0  0  0
  3 90  1  0  0  0
  4  5  1  0  0  0
  4 91  1  0  0  0
  4 92  1  0  0  0
  5  6  1  0  0  0
  5 26  1  0  0  0
  5 93  1  0  0  0
  6 25  1  0  0  0
  6 94  1  0  0  0
  6 95  1  0  0  0
  7  8  2  0  0  0
  7 26  1  0  0  0
  7 29  1  0  0  0
  8  9  1  0  0  0
  8 22  1  0  0  0
  9 10  1  0  0  0
  9 27  2  0  0  0
 10 11  2  0  0  0
 10 15  1  0  0  0
 11 12  1  0  0  0
 11 96  1  0  0  0
 12 13  2  0  0  0
 12 97  1  0  0  0
 13 14  1  0  0  0
 13 31  1  0  0  0
 14 15  2  0  0  0
 14 98  1  0  0  0
 15 99  1  0  0  0
 16 17  2  0  0  0
 16 21  1  0  0  0
 16 31  1  0  0  0
 17 18  1  0  0  0
 17100  1  0  0  0
 18 19  2  0  0  0
 18101  1  0  0  0
 19 20  1  0  0  0
 19 24  1  0  0  0
 20 21  2  0  0  0
 20102  1  0  0  0
 21 23  1  0  0  0
 22 28  1  0  0  0
 22 32  2  0  0  0
 26 27  1  0  0  0
 28103  1  0  0  0
 28104  1  0  0  0
 29105  1  0  0  0
 29106  1  0  0  0
 33 34  1  0  0  0
 33 66  1  0  0  0
 33 70  2  0  0  0
 34 36  1  0  0  0
 34 59  1  0  0  0
 34107  1  0  0  0
 35 44  2  0  0  0
 35 45  1  0  0  0
 35 68  1  0  0  0
 36 56  1  0  0  0
 36108  1  0  0  0
 37 39  1  0  0  0
 37 47  1  0  0  0
 37 66  1  0  0  0
 37109  1  0  0  0
 38 43  2  0  0  0
 38 46  1  0  0  0
 38 47  1  0  0  0
 39 64  1  0  0  0
 39 67  2  0  0  0
 40 52  1  0  0  0
 40 53  2  0  0  0
 40 58  1  0  0  0
 41110  1  0  0  0
 41111  1  0  0  0
 41112  1  0  0  0
 41 48  1  0  0  0
 42 43  1  0  0  0
 42 66  1  0  0  0
 42113  1  0  0  0
 42114  1  0  0  0
 43 44  1  0  0  0
 44115  1  0  0  0
 45 46  2  0  0  0
 45116  1  0  0  0
 46117  1  0  0  0
 47118  1  0  0  0
 47119  1  0  0  0
 48 56  1  0  0  0
 48 65  1  0  0  0
 48120  1  0  0  0
 49 50  1  0  0  0
 49 53  1  0  0  0
 49 64  1  0  0  0
 49121  1  0  0  0
 50 51  1  0  0  0
 50122  1  0  0  0
 50123  1  0  0  0
 51 52  1  0  0  0
 51124  1  0  0  0
 51125  1  0  0  0
 52126  1  0  0  0
 52127  1  0  0  0
 53 54  1  0  0  0
 54 55  2  0  0  0
 54128  1  0  0  0
 55 57  1  0  0  0
 55129  1  0  0  0
 56 69  2  0  0  0
 57 58  2  0  0  0
 57130  1  0  0  0
 58131  1  0  0  0
 59 60  1  0  0  0
 59 61  1  0  0  0
 59 62  1  0  0  0
 60132  1  0  0  0
 60133  1  0  0  0
 60134  1  0  0  0
 61135  1  0  0  0
 61136  1  0  0  0
 61137  1  0  0  0
 62138  1  0  0  0
 62139  1  0  0  0
 62140  1  0  0  0
 63 65  1  0  0  0
 63141  1  0  0  0
 63142  1  0  0  0
 63143  1  0  0  0
 64144  1  0  0  0
 65145  1  0  0  0
 68 77  1  0  0  0
 71 72  2  0  0  0
 71 73  1  0  0  0
 71146  1  0  0  0
 72 75  1  0  0  0
 72147  1  0  0  0
 73 76  2  0  0  0
 73148  1  0  0  0
 74 75  2  0  0  0
 74 76  1  0  0  0
 74 78  1  0  0  0
 75 82  1  0  0  0
 76 83  1  0  0  0
 77 79  2  0  0  0
 77149  1  0  0  0
 78 81  1  0  0  0
 78 84  2  0  0  0
 79 80  1  0  0  0
 79 86  1  0  0  0
 80 82  1  0  0  0
 80 85  2  0  0  0
 81150  1  0  0  0
 81151  1  0  0  0
 81152  1  0  0  0
 82153  1  0  0  0
 83154  1  0  0  0
 86155  1  0  0  0
M  ISO  4   1 100  68 101  77 101  83 100
M  END
> <chiral flag>
0

> <version>
0

> <s_m_source_file>
/data/baiqing/PycharmProjects/Reinvent-master-3.2/result/LINK_invent/BTK/process_docking_weight1_custom_product_contain_oxygen_bond_distance_aromatic_linkinvent_7_9_3/rearranged_h_0166.sdf

> <i_m_source_file_index>
66

> <r_mmod_Potential_Energy-OPLS-2005>
420.897094726562

> <r_mmod_Stretch_Energy-OPLS-2005>
183.092147827148

> <r_mmod_Bend_Energy-OPLS-2005>
250.901519775391

> <r_mmod_Torsional_Energy-OPLS-2005>
262.206665039062

> <r_mmod_Improper_Torsional_Energy-OPLS-2005>
6.14227104187012

> <r_mmod_Van_der_Waal_Energy-OPLS-2005>
158.604202270508

> <r_mmod_Electrostatic_Energy-OPLS-2005>
-321.966705322266

> <r_mmod_Solvation_Energy-OPLS-2005>
-241.798706054688

> <b_mmod_Minimization_Converged-OPLS-2005>
0

> <r_mmod_RMS_Derivative-OPLS-2005>
1.89643752574921

$$$$
67
                    3D
 Structure written by MMmdl.
171180  0  0  1  0            999 V2000
  -30.6387  -14.5127   20.3330 C   0  0  0  0  0  0
  -30.4131  -12.2746   19.4211 C   0  0  0  0  0  0
  -29.4789  -12.4093   18.1938 C   0  0  0  0  0  0
  -28.0011  -12.2848   18.6211 C   0  0  0  0  0  0
  -27.6334  -13.1881   19.8273 C   0  0  2  0  0  0
  -28.6811  -13.0761   20.9542 C   0  0  0  0  0  0
  -25.2466  -13.8125   20.5605 C   0  0  0  0  0  0
  -24.1770  -13.0450   20.9158 C   0  0  0  0  0  0
  -24.6307  -11.6881   20.8740 C   0  0  0  0  0  0
  -23.9002  -10.4282   21.0382 C   0  0  0  0  0  0
  -24.3589   -9.4204   21.9150 C   0  0  0  0  0  0
  -23.6262   -8.2264   22.0743 C   0  0  0  0  0  0
  -22.4245   -8.0300   21.3549 C   0  0  0  0  0  0
  -21.9885   -9.0239   20.4632 C   0  0  0  0  0  0
  -22.7189  -10.2099   20.3010 C   0  0  0  0  0  0
  -21.6850   -6.0720   22.5259 C   0  0  0  0  0  0
  -21.4024   -6.5618   23.8199 C   0  0  0  0  0  0
  -21.3652   -5.6763   24.9157 C   0  0  0  0  0  0
  -21.6047   -4.3037   24.7199 C   0  0  0  0  0  0
  -21.8831   -3.8127   23.4330 C   0  0  0  0  0  0
  -21.9211   -4.6952   22.3385 C   0  0  0  0  0  0
  -22.7784  -13.5190   21.1815 C   0  0  0  0  0  0
  -22.1683   -4.2152   21.0959 F   0  0  0  0  0  0
  -21.5639   -3.4514   25.7706 F   0  0  0  0  0  0
  -30.0106  -13.3131   20.3772 N   0  0  0  0  0  0
  -26.2858  -12.9249   20.3145 N   0  0  0  0  0  0
  -25.9207  -11.6430   20.5727 N   0  0  0  0  0  0
  -22.0436  -12.8232   22.0390 N   0  0  0  0  0  0
  -25.4133  -15.1834   20.3903 N   0  0  0  0  0  0
  -31.8625  -14.6343   20.2583 O   0  0  0  0  0  0
  -21.6629   -6.8867   21.4234 O   0  0  0  0  0  0
  -22.3436  -14.5445   20.6561 O   0  0  0  0  0  0
  -24.6119  -31.8667   23.2115 C   0  0  0  0  0  0
  -25.9044  -32.4774   23.8353 C   0  0  1  0  0  0
  -27.2699  -27.4899   20.1041 C   0  0  0  0  0  0
  -25.5921  -33.8576   24.2294 N   0  0  0  0  0  0
  -23.3976  -30.4926   21.5395 C   0  0  2  0  0  0
  -24.8519  -28.9443   20.1206 C   0  0  0  0  0  0
  -22.7319  -29.4767   22.4910 C   0  0  0  0  0  0
  -18.0302  -28.1501   22.8452 C   0  0  0  0  0  0
  -24.1492  -36.7314   23.2637 C   0  0  0  0  0  0
  -25.9159  -30.8453   21.3543 C   0  0  0  0  0  0
  -25.9982  -29.4784   20.7158 C   0  0  0  0  0  0
  -27.2081  -28.7643   20.6988 C   0  0  0  0  0  0
  -26.1073  -26.9477   19.5204 C   0  0  0  0  0  0
  -24.8938  -27.6677   19.5265 C   0  0  0  0  0  0
  -23.6118  -29.8113   20.1594 C   0  0  0  0  0  0
  -25.4112  -36.3090   24.0349 C   0  0  1  0  0  0
  -20.5848  -28.3819   23.1241 C   0  0  2  0  0  0
  -20.6808  -26.9530   22.5479 C   0  0  0  0  0  0
  -19.5778  -26.6429   21.5294 C   0  0  0  0  0  0
  -18.1944  -26.7991   22.1728 C   0  0  0  0  0  0
  -19.1523  -28.8966   23.2886 C   0  0  0  0  0  0
  -18.9381  -30.1518   23.9023 C   0  0  0  0  0  0
  -17.6325  -30.6569   24.0652 C   0  0  0  0  0  0
  -25.9039  -34.9463   23.5085 C   0  0  0  0  0  0
  -16.5261  -29.9106   23.6266 C   0  0  0  0  0  0
  -16.7276  -28.6548   23.0292 C   0  0  0  0  0  0
  -26.4489  -31.6579   25.0696 C   0  0  0  0  0  0
  -25.3770  -31.3669   26.1439 C   0  0  0  0  0  0
  -27.0346  -30.3058   24.6054 C   0  0  0  0  0  0
  -27.6077  -32.4271   25.7475 C   0  0  0  0  0  0
  -27.5580  -37.1835   24.8489 C   0  0  0  0  0  0
  -21.4050  -29.3090   22.3502 N   0  0  0  0  0  0
  -26.4323  -37.3798   23.9388 N   0  0  0  0  0  0
  -24.6578  -31.0849   22.0953 N   0  0  0  0  0  0
  -23.4013  -28.8411   23.3096 O   0  0  0  0  0  0
  -28.4688  -26.8454   19.9334 O   0  0  0  0  0  0
  -26.5609  -34.8936   22.4645 O   0  0  0  0  0  0
  -23.5343  -32.1364   23.7578 O   0  0  0  0  0  0
  -27.6869  -17.6614   21.6392 C   0  0  0  0  0  0
  -27.0741  -18.4037   20.6025 C   0  0  0  0  0  0
  -28.6281  -16.6511   21.3547 C   0  0  0  0  0  0
  -28.4903  -24.0433   18.5325 C   0  0  0  0  0  0
  -28.9805  -22.0793   19.8400 C   0  0  0  0  0  0
  -27.4129  -18.1664   19.2522 C   0  0  0  0  0  0
  -27.3664  -23.3619   18.0083 C   0  0  0  0  0  0
  -28.9734  -16.3903   20.0133 C   0  0  0  0  0  0
  -29.2698  -23.4165   19.5246 C   0  0  0  0  0  0
  -28.3699  -17.1521   18.9754 C   0  0  0  0  0  0
  -27.0740  -22.0500   18.5138 C   0  0  0  0  0  0
  -25.7554  -21.3189   18.3418 C   0  0  0  0  0  0
  -26.5503  -24.1027   16.9489 C   0  0  0  0  0  0
  -29.5455  -27.1479   22.1462 C   0  0  0  0  0  0
  -26.7801  -18.9610   18.0829 C   0  0  0  0  0  0
  -30.3369  -25.4957   20.4194 C   0  0  0  0  0  0
  -29.0878  -26.1845   21.0371 C   0  0  2  0  0  0
  -27.9146  -21.4336   19.3685 N   0  0  0  0  0  0
  -29.9292  -15.4126   19.6241 N   0  0  0  0  0  0
  -30.2785  -24.0467   20.2575 N   0  0  0  0  0  0
  -25.7289  -19.9625   18.3708 N   0  0  0  0  0  0
  -24.6986  -21.9555   18.3033 O   0  0  0  0  0  0
  -28.7132  -16.8865   17.6922 F   0  0  0  0  0  0
  -31.4552  -12.3814   19.1195 H   0  0  0  0  0  0
  -30.3267  -11.2840   19.8774 H   0  0  0  0  0  0
  -29.7081  -11.6271   17.4680 H   0  0  0  0  0  0
  -29.6434  -13.3548   17.6765 H   0  0  0  0  0  0
  -27.8426  -11.2427   18.8944 H   0  0  0  0  0  0
  -27.3378  -12.4824   17.7805 H   0  0  0  0  0  0
  -27.6239  -14.1991   19.4349 H   0  0  0  0  0  0
  -28.6419  -12.0931   21.4212 H   0  0  0  0  0  0
  -28.4575  -13.7984   21.7389 H   0  0  0  0  0  0
  -25.2735   -9.5718   22.4702 H   0  0  0  0  0  0
  -23.9996   -7.4664   22.7468 H   0  0  0  0  0  0
  -21.0826   -8.8712   19.8927 H   0  0  0  0  0  0
  -22.3641  -10.9635   19.6122 H   0  0  0  0  0  0
  -21.2020   -7.6130   23.9711 H   0  0  0  0  0  0
  -21.1439   -6.0479   25.9054 H   0  0  0  0  0  0
  -22.0612   -2.7607   23.2792 H   0  0  0  0  0  0
  -22.4116  -11.9971   22.4871 H   0  0  0  0  0  0
  -21.1031  -13.1237   22.2507 H   0  0  0  0  0  0
  -24.6343  -15.8249   20.4731 H   0  0  0  0  0  0
  -26.2653  -15.6351   20.0869 H   0  0  0  0  0  0
  -26.7127  -32.5505   23.1122 H   0  0  0  0  0  0
  -25.0116  -33.9719   25.0487 H   0  0  0  0  0  0
  -22.6918  -31.3127   21.3892 H   0  0  0  0  0  0
  -23.3731  -35.9674   23.3355 H   0  0  0  0  0  0
  -24.3583  -36.8889   22.2042 H   0  0  0  0  0  0
  -23.7318  -37.6579   23.6604 H   0  0  0  0  0  0
  -26.0070  -31.5995   20.5732 H   0  0  0  0  0  0
  -26.8153  -30.9079   21.9577 H   0  0  0  0  0  0
  -28.1025  -29.2121   21.1053 H   0  0  0  0  0  0
  -26.1568  -25.9805   19.0445 H   0  0  0  0  0  0
  -24.0213  -27.2318   19.0618 H   0  0  0  0  0  0
  -23.7204  -30.5860   19.3984 H   0  0  0  0  0  0
  -22.7405  -29.2253   19.8655 H   0  0  0  0  0  0
  -25.1277  -36.1929   25.0871 H   0  0  0  0  0  0
  -20.9943  -28.3584   24.1352 H   0  0  0  0  0  0
  -20.5687  -26.2477   23.3733 H   0  0  0  0  0  0
  -21.6664  -26.7669   22.1247 H   0  0  0  0  0  0
  -19.6992  -25.6257   21.1578 H   0  0  0  0  0  0
  -19.6723  -27.3189   20.6781 H   0  0  0  0  0  0
  -17.4071  -26.6575   21.4254 H   0  0  0  0  0  0
  -18.0540  -26.0275   22.9255 H   0  0  0  0  0  0
  -19.7854  -30.7355   24.2477 H   0  0  0  0  0  0
  -17.4802  -31.6140   24.5425 H   0  0  0  0  0  0
  -15.5235  -30.2976   23.7438 H   0  0  0  0  0  0
  -15.8747  -28.0809   22.6981 H   0  0  0  0  0  0
  -24.5917  -30.7066   25.7734 H   0  0  0  0  0  0
  -24.8976  -32.2824   26.4916 H   0  0  0  0  0  0
  -25.8120  -30.8776   27.0163 H   0  0  0  0  0  0
  -26.2901  -29.6790   24.1151 H   0  0  0  0  0  0
  -27.4210  -29.7304   25.4475 H   0  0  0  0  0  0
  -27.8651  -30.4401   23.9123 H   0  0  0  0  0  0
  -27.2724  -33.3521   26.2150 H   0  0  0  0  0  0
  -28.3877  -32.6917   25.0329 H   0  0  0  0  0  0
  -28.0753  -31.8318   26.5331 H   0  0  0  0  0  0
  -28.2636  -38.0081   24.7442 H   0  0  0  0  0  0
  -28.1023  -36.2627   24.6371 H   0  0  0  0  0  0
  -27.2297  -37.1565   25.8900 H   0  0  0  0  0  0
  -20.9328  -29.8166   21.6166 H   0  0  0  0  0  0
  -26.0173  -38.2888   24.1344 H   0  0  0  0  0  0
  -27.4424  -17.8756   22.6730 H   0  0  0  0  0  0
  -26.3337  -19.1450   20.8460 H   0  0  0  0  0  0
  -29.0775  -16.0983   22.1666 H   0  0  0  0  0  0
  -28.7234  -25.0515   18.2119 H   0  0  0  0  0  0
  -29.5668  -21.5419   20.5753 H   0  0  0  0  0  0
  -26.9786  -25.0956   16.7647 H   0  0  0  0  0  0
  -25.5122  -24.2558   17.2410 H   0  0  0  0  0  0
  -26.5714  -23.5676   15.9958 H   0  0  0  0  0  0
  -30.1290  -26.6102   22.8963 H   0  0  0  0  0  0
  -28.7129  -27.6090   22.6797 H   0  0  0  0  0  0
  -30.1863  -27.9296   21.7390 H   0  0  0  0  0  0
  -26.2963  -18.2299   17.4337 H   0  0  0  0  0  0
  -27.5654  -19.4051   17.4726 H   0  0  0  0  0  0
  -30.6245  -25.9889   19.4845 H   0  0  0  0  0  0
  -31.1855  -25.6425   21.0881 H   0  0  0  0  0  0
  -28.3748  -25.4707   21.4457 H   0  0  0  0  0  0
  -30.3837  -15.6693   18.7640 H   0  0  0  0  0  0
  -30.6630  -23.4947   21.0228 H   0  0  0  0  0  0
  -24.7990  -19.5781   18.4118 H   0  0  0  0  0  0
  1 25  1  0  0  0
  1 30  2  0  0  0
  1 89  1  0  0  0
  2  3  1  0  0  0
  2 25  1  0  0  0
  2 94  1  0  0  0
  2 95  1  0  0  0
  3  4  1  0  0  0
  3 96  1  0  0  0
  3 97  1  0  0  0
  4  5  1  0  0  0
  4 98  1  0  0  0
  4 99  1  0  0  0
  5  6  1  0  0  0
  5 26  1  0  0  0
  5100  1  0  0  0
  6 25  1  0  0  0
  6101  1  0  0  0
  6102  1  0  0  0
  7  8  2  0  0  0
  7 26  1  0  0  0
  7 29  1  0  0  0
  8  9  1  0  0  0
  8 22  1  0  0  0
  9 10  1  0  0  0
  9 27  2  0  0  0
 10 11  2  0  0  0
 10 15  1  0  0  0
 11 12  1  0  0  0
 11103  1  0  0  0
 12 13  2  0  0  0
 12104  1  0  0  0
 13 14  1  0  0  0
 13 31  1  0  0  0
 14 15  2  0  0  0
 14105  1  0  0  0
 15106  1  0  0  0
 16 17  2  0  0  0
 16 21  1  0  0  0
 16 31  1  0  0  0
 17 18  1  0  0  0
 17107  1  0  0  0
 18 19  2  0  0  0
 18108  1  0  0  0
 19 20  1  0  0  0
 19 24  1  0  0  0
 20 21  2  0  0  0
 20109  1  0  0  0
 21 23  1  0  0  0
 22 28  1  0  0  0
 22 32  2  0  0  0
 26 27  1  0  0  0
 28110  1  0  0  0
 28111  1  0  0  0
 29112  1  0  0  0
 29113  1  0  0  0
 33 34  1  0  0  0
 33 66  1  0  0  0
 33 70  2  0  0  0
 34 36  1  0  0  0
 34 59  1  0  0  0
 34114  1  0  0  0
 35 44  2  0  0  0
 35 45  1  0  0  0
 35 68  1  0  0  0
 36 56  1  0  0  0
 36115  1  0  0  0
 37 39  1  0  0  0
 37 47  1  0  0  0
 37 66  1  0  0  0
 37116  1  0  0  0
 38 43  2  0  0  0
 38 46  1  0  0  0
 38 47  1  0  0  0
 39 64  1  0  0  0
 39 67  2  0  0  0
 40 52  1  0  0  0
 40 53  2  0  0  0
 40 58  1  0  0  0
 41117  1  0  0  0
 41118  1  0  0  0
 41119  1  0  0  0
 41 48  1  0  0  0
 42 43  1  0  0  0
 42 66  1  0  0  0
 42120  1  0  0  0
 42121  1  0  0  0
 43 44  1  0  0  0
 44122  1  0  0  0
 45 46  2  0  0  0
 45123  1  0  0  0
 46124  1  0  0  0
 47125  1  0  0  0
 47126  1  0  0  0
 48 56  1  0  0  0
 48 65  1  0  0  0
 48127  1  0  0  0
 49 50  1  0  0  0
 49 53  1  0  0  0
 49 64  1  0  0  0
 49128  1  0  0  0
 50 51  1  0  0  0
 50129  1  0  0  0
 50130  1  0  0  0
 51 52  1  0  0  0
 51131  1  0  0  0
 51132  1  0  0  0
 52133  1  0  0  0
 52134  1  0  0  0
 53 54  1  0  0  0
 54 55  2  0  0  0
 54135  1  0  0  0
 55 57  1  0  0  0
 55136  1  0  0  0
 56 69  2  0  0  0
 57 58  2  0  0  0
 57137  1  0  0  0
 58138  1  0  0  0
 59 60  1  0  0  0
 59 61  1  0  0  0
 59 62  1  0  0  0
 60139  1  0  0  0
 60140  1  0  0  0
 60141  1  0  0  0
 61142  1  0  0  0
 61143  1  0  0  0
 61144  1  0  0  0
 62145  1  0  0  0
 62146  1  0  0  0
 62147  1  0  0  0
 63 65  1  0  0  0
 63148  1  0  0  0
 63149  1  0  0  0
 63150  1  0  0  0
 64151  1  0  0  0
 65152  1  0  0  0
 68 87  1  0  0  0
 71 72  2  0  0  0
 71 73  1  0  0  0
 71153  1  0  0  0
 72 76  1  0  0  0
 72154  1  0  0  0
 73 78  2  0  0  0
 73155  1  0  0  0
 74 77  2  0  0  0
 74 79  1  0  0  0
 74156  1  0  0  0
 75 79  2  0  0  0
 75 88  1  0  0  0
 75157  1  0  0  0
 76 80  2  0  0  0
 76 85  1  0  0  0
 77 81  1  0  0  0
 77 83  1  0  0  0
 78 80  1  0  0  0
 78 89  1  0  0  0
 79 90  1  0  0  0
 80 93  1  0  0  0
 81 82  1  0  0  0
 81 88  2  0  0  0
 82 91  1  0  0  0
 82 92  2  0  0  0
 83158  1  0  0  0
 83159  1  0  0  0
 83160  1  0  0  0
 84161  1  0  0  0
 84162  1  0  0  0
 84163  1  0  0  0
 84 87  1  0  0  0
 85 91  1  0  0  0
 85164  1  0  0  0
 85165  1  0  0  0
 86 87  1  0  0  0
 86 90  1  0  0  0
 86166  1  0  0  0
 86167  1  0  0  0
 87168  1  0  0  0
 89169  1  0  0  0
 90170  1  0  0  0
 91171  1  0  0  0
M  ISO  4   1 100  68 101  87 101  89 100
M  END
> <chiral flag>
0

> <version>
0

> <s_m_source_file>
/data/baiqing/PycharmProjects/Reinvent-master-3.2/result/LINK_invent/BTK/process_docking_weight1_custom_product_contain_oxygen_bond_distance_aromatic_linkinvent_7_9_3/rearranged_h_0166.sdf

> <i_m_source_file_index>
67

> <r_mmod_Potential_Energy-OPLS-2005>
29.8404216766357

> <r_mmod_Stretch_Energy-OPLS-2005>
42.4408569335938

> <r_mmod_Bend_Energy-OPLS-2005>
159.755905151367

> <r_mmod_Torsional_Energy-OPLS-2005>
346.812896728516

> <r_mmod_Improper_Torsional_Energy-OPLS-2005>
36.0545921325684

> <r_mmod_Van_der_Waal_Energy-OPLS-2005>
156.381927490234

> <r_mmod_Electrostatic_Energy-OPLS-2005>
-507.684051513672

> <r_mmod_Solvation_Energy-OPLS-2005>
-239.183258056641

> <b_mmod_Minimization_Converged-OPLS-2005>
0

> <r_mmod_RMS_Derivative-OPLS-2005>
10.0474004745483

$$$$
68
                    3D
 Structure written by MMmdl.
158166  0  0  1  0            999 V2000
  -30.6003  -14.6488   20.4851 C   0  0  0  0  0  0
  -30.4462  -12.3978   19.4460 C   0  0  0  0  0  0
  -29.5141  -12.5111   18.2174 C   0  0  0  0  0  0
  -28.0340  -12.3503   18.6259 C   0  0  0  0  0  0
  -27.6526  -13.2170   19.8554 C   0  0  2  0  0  0
  -28.6987  -13.0666   20.9834 C   0  0  0  0  0  0
  -25.2550  -13.8165   20.5645 C   0  0  0  0  0  0
  -24.1824  -13.0440   20.9195 C   0  0  0  0  0  0
  -24.6387  -11.6909   20.8719 C   0  0  0  0  0  0
  -23.9043  -10.4297   21.0400 C   0  0  0  0  0  0
  -24.3595   -9.4226   21.9184 C   0  0  0  0  0  0
  -23.6278   -8.2247   22.0751 C   0  0  0  0  0  0
  -22.4261   -8.0266   21.3540 C   0  0  0  0  0  0
  -21.9892   -9.0247   20.4647 C   0  0  0  0  0  0
  -22.7213  -10.2136   20.3053 C   0  0  0  0  0  0
  -21.6850   -6.0722   22.5280 C   0  0  0  0  0  0
  -21.4016   -6.5631   23.8214 C   0  0  0  0  0  0
  -21.3668   -5.6780   24.9177 C   0  0  0  0  0  0
  -21.6035   -4.3042   24.7222 C   0  0  0  0  0  0
  -21.8831   -3.8134   23.4344 C   0  0  0  0  0  0
  -21.9199   -4.6949   22.3405 C   0  0  0  0  0  0
  -22.7846  -13.5242   21.1840 C   0  0  0  0  0  0
  -22.1666   -4.2147   21.0979 F   0  0  0  0  0  0
  -21.5628   -3.4527   25.7728 F   0  0  0  0  0  0
  -30.0136  -13.4134   20.4233 N   0  0  0  0  0  0
  -26.2979  -12.9352   20.3244 N   0  0  0  0  0  0
  -25.9314  -11.6513   20.5693 N   0  0  0  0  0  0
  -22.0433  -12.8275   22.0383 N   0  0  0  0  0  0
  -25.4217  -15.1883   20.4021 N   0  0  0  0  0  0
  -31.7721  -14.8206   20.1294 O   0  0  0  0  0  0
  -21.6623   -6.8860   21.4240 O   0  0  0  0  0  0
  -22.3566  -14.5553   20.6668 O   0  0  0  0  0  0
  -24.6280  -31.8586   23.2030 C   0  0  0  0  0  0
  -25.9138  -32.4759   23.8344 C   0  0  1  0  0  0
  -27.2234  -27.3188   20.0966 C   0  0  0  0  0  0
  -25.5959  -33.8560   24.2268 N   0  0  0  0  0  0
  -23.4179  -30.4862   21.5459 C   0  0  2  0  0  0
  -24.8619  -28.9386   20.1097 C   0  0  0  0  0  0
  -22.7460  -29.4640   22.4928 C   0  0  0  0  0  0
  -18.0276  -28.1383   22.8484 C   0  0  0  0  0  0
  -24.1487  -36.7277   23.2638 C   0  0  0  0  0  0
  -25.9617  -30.7872   21.3748 C   0  0  0  0  0  0
  -26.0324  -29.4161   20.7118 C   0  0  0  0  0  0
  -27.2140  -28.6160   20.6976 C   0  0  0  0  0  0
  -26.0261  -26.8961   19.4714 C   0  0  0  0  0  0
  -24.8610  -27.6833   19.4839 C   0  0  0  0  0  0
  -23.6301  -29.8188   20.1607 C   0  0  0  0  0  0
  -25.4114  -36.3069   24.0324 C   0  0  1  0  0  0
  -20.5875  -28.3703   23.1276 C   0  0  2  0  0  0
  -20.6765  -26.9427   22.5395 C   0  0  0  0  0  0
  -19.5745  -26.6386   21.5192 C   0  0  0  0  0  0
  -18.1927  -26.7937   22.1607 C   0  0  0  0  0  0
  -19.1532  -28.8855   23.2879 C   0  0  0  0  0  0
  -18.9456  -30.1453   23.8896 C   0  0  0  0  0  0
  -17.6459  -30.6594   24.0547 C   0  0  0  0  0  0
  -25.9053  -34.9434   23.5087 C   0  0  0  0  0  0
  -16.5346  -29.9086   23.6323 C   0  0  0  0  0  0
  -16.7260  -28.6489   23.0370 C   0  0  0  0  0  0
  -26.4521  -31.6598   25.0731 C   0  0  0  0  0  0
  -25.3744  -31.3744   26.1450 C   0  0  0  0  0  0
  -27.0366  -30.3007   24.6230 C   0  0  0  0  0  0
  -27.6074  -32.4350   25.7511 C   0  0  0  0  0  0
  -27.5585  -37.1783   24.8450 C   0  0  0  0  0  0
  -21.4167  -29.3063   22.3676 N   0  0  0  0  0  0
  -26.4280  -37.3782   23.9424 N   0  0  0  0  0  0
  -24.6881  -31.0609   22.0969 N   0  0  0  0  0  0
  -23.4191  -28.8174   23.3002 O   0  0  0  0  0  0
  -28.3591  -26.4892   20.1407 O   0  0  0  0  0  0
  -26.5603  -34.8925   22.4641 O   0  0  0  0  0  0
  -23.5452  -32.1388   23.7369 O   0  0  0  0  0  0
  -30.9935  -19.3145   20.3841 C   0  0  0  0  0  0
  -31.0050  -17.8870   20.3962 C   0  0  0  0  0  0
  -28.6490  -17.9199   20.8546 C   0  0  0  0  0  0
  -29.8283  -20.1007   20.6272 C   0  0  0  0  0  0
  -29.8289  -17.1438   20.6626 C   0  0  0  0  0  0
  -28.6282  -19.3518   20.8436 C   0  0  0  0  0  0
  -29.9923  -21.6356   20.7963 C   0  0  0  0  0  0
  -28.5462  -24.9187   18.2368 C   0  0  0  0  0  0
  -29.1189  -26.1164   17.4863 C   0  0  0  0  0  0
  -29.1928  -24.0493   20.5763 C   0  0  0  0  0  0
  -28.2723  -25.0555   19.7503 C   0  0  1  0  0  0
  -27.3977  -19.9737   21.0858 N   0  0  0  0  0  0
  -29.7474  -15.6832   20.7719 N   0  0  0  0  0  0
  -29.0827  -22.5534   20.3490 N   0  0  0  0  0  0
  -31.0212  -22.0348   21.3482 O   0  0  0  0  0  0
  -28.2989  -23.8730   17.6310 O   0  0  0  0  0  0
  -31.4860  -12.5327   19.1436 H   0  0  0  0  0  0
  -30.3899  -11.3997   19.8830 H   0  0  0  0  0  0
  -29.7831  -11.7602   17.4718 H   0  0  0  0  0  0
  -29.6596  -13.4799   17.7351 H   0  0  0  0  0  0
  -27.8642  -11.2963   18.8483 H   0  0  0  0  0  0
  -27.3866  -12.5863   17.7809 H   0  0  0  0  0  0
  -27.6697  -14.2515   19.5127 H   0  0  0  0  0  0
  -28.7095  -12.0443   21.3627 H   0  0  0  0  0  0
  -28.4414  -13.6956   21.8377 H   0  0  0  0  0  0
  -25.2751   -9.5720   22.4759 H   0  0  0  0  0  0
  -24.0003   -7.4640   22.7479 H   0  0  0  0  0  0
  -21.0816   -8.8761   19.8966 H   0  0  0  0  0  0
  -22.3665  -10.9657   19.6145 H   0  0  0  0  0  0
  -21.2005   -7.6144   23.9724 H   0  0  0  0  0  0
  -21.1472   -6.0501   25.9084 H   0  0  0  0  0  0
  -22.0600   -2.7599   23.2828 H   0  0  0  0  0  0
  -22.4002  -11.9954   22.4851 H   0  0  0  0  0  0
  -21.1056  -13.1363   22.2523 H   0  0  0  0  0  0
  -24.6348  -15.8229   20.4809 H   0  0  0  0  0  0
  -26.2400  -15.6199   19.9932 H   0  0  0  0  0  0
  -26.7203  -32.5413   23.1091 H   0  0  0  0  0  0
  -25.0135  -33.9692   25.0435 H   0  0  0  0  0  0
  -22.7122  -31.3076   21.4024 H   0  0  0  0  0  0
  -23.3762  -35.9595   23.3267 H   0  0  0  0  0  0
  -24.3576  -36.8935   22.2059 H   0  0  0  0  0  0
  -23.7225  -37.6466   23.6674 H   0  0  0  0  0  0
  -26.0994  -31.5564   20.6136 H   0  0  0  0  0  0
  -26.8393  -30.8271   22.0081 H   0  0  0  0  0  0
  -28.1143  -28.9796   21.1716 H   0  0  0  0  0  0
  -25.9522  -25.9464   18.9638 H   0  0  0  0  0  0
  -23.9618  -27.3137   19.0086 H   0  0  0  0  0  0
  -23.7479  -30.5938   19.4026 H   0  0  0  0  0  0
  -22.7499  -29.2478   19.8613 H   0  0  0  0  0  0
  -25.1302  -36.1891   25.0814 H   0  0  0  0  0  0
  -20.9966  -28.3273   24.1401 H   0  0  0  0  0  0
  -20.5646  -26.2318   23.3595 H   0  0  0  0  0  0
  -21.6639  -26.7440   22.1202 H   0  0  0  0  0  0
  -19.6907  -25.6283   21.1259 H   0  0  0  0  0  0
  -19.6713  -27.3159   20.6693 H   0  0  0  0  0  0
  -17.4206  -26.6690   21.4001 H   0  0  0  0  0  0
  -18.0323  -26.0068   22.8987 H   0  0  0  0  0  0
  -19.7925  -30.7249   24.2295 H   0  0  0  0  0  0
  -17.5016  -31.6284   24.5133 H   0  0  0  0  0  0
  -15.5343  -30.2996   23.7654 H   0  0  0  0  0  0
  -15.8655  -28.0788   22.7140 H   0  0  0  0  0  0
  -24.5905  -30.7118   25.7772 H   0  0  0  0  0  0
  -24.8943  -32.2907   26.4893 H   0  0  0  0  0  0
  -25.8059  -30.8901   27.0216 H   0  0  0  0  0  0
  -26.2931  -29.6758   24.1256 H   0  0  0  0  0  0
  -27.4036  -29.7303   25.4785 H   0  0  0  0  0  0
  -27.8837  -30.4281   23.9474 H   0  0  0  0  0  0
  -27.2657  -33.3648   26.2083 H   0  0  0  0  0  0
  -28.3885  -32.6924   25.0337 H   0  0  0  0  0  0
  -28.0741  -31.8472   26.5436 H   0  0  0  0  0  0
  -28.2558  -38.0126   24.7562 H   0  0  0  0  0  0
  -28.1128  -36.2660   24.6181 H   0  0  0  0  0  0
  -27.2308  -37.1309   25.8852 H   0  0  0  0  0  0
  -20.9340  -29.8800   21.6898 H   0  0  0  0  0  0
  -26.0148  -38.2849   24.1472 H   0  0  0  0  0  0
  -31.9297  -19.8270   20.2091 H   0  0  0  0  0  0
  -31.9424  -17.3795   20.2224 H   0  0  0  0  0  0
  -27.7216  -17.3968   21.0443 H   0  0  0  0  0  0
  -30.0731  -26.4092   17.9230 H   0  0  0  0  0  0
  -28.4365  -26.9648   17.5393 H   0  0  0  0  0  0
  -29.2828  -25.8697   16.4374 H   0  0  0  0  0  0
  -28.9977  -24.2196   21.6345 H   0  0  0  0  0  0
  -30.2309  -24.3487   20.4246 H   0  0  0  0  0  0
  -27.2551  -24.7127   19.9320 H   0  0  0  0  0  0
  -26.6304  -19.3960   21.4174 H   0  0  0  0  0  0
  -27.3951  -20.8877   21.5246 H   0  0  0  0  0  0
  -28.8355  -15.3422   21.0301 H   0  0  0  0  0  0
  -28.2779  -22.2035   19.8452 H   0  0  0  0  0  0
  1 25  1  0  0  0
  1 30  2  0  0  0
  1 83  1  0  0  0
  2  3  1  0  0  0
  2 25  1  0  0  0
  2 87  1  0  0  0
  2 88  1  0  0  0
  3  4  1  0  0  0
  3 89  1  0  0  0
  3 90  1  0  0  0
  4  5  1  0  0  0
  4 91  1  0  0  0
  4 92  1  0  0  0
  5  6  1  0  0  0
  5 26  1  0  0  0
  5 93  1  0  0  0
  6 25  1  0  0  0
  6 94  1  0  0  0
  6 95  1  0  0  0
  7  8  2  0  0  0
  7 26  1  0  0  0
  7 29  1  0  0  0
  8  9  1  0  0  0
  8 22  1  0  0  0
  9 10  1  0  0  0
  9 27  2  0  0  0
 10 11  2  0  0  0
 10 15  1  0  0  0
 11 12  1  0  0  0
 11 96  1  0  0  0
 12 13  2  0  0  0
 12 97  1  0  0  0
 13 14  1  0  0  0
 13 31  1  0  0  0
 14 15  2  0  0  0
 14 98  1  0  0  0
 15 99  1  0  0  0
 16 17  2  0  0  0
 16 21  1  0  0  0
 16 31  1  0  0  0
 17 18  1  0  0  0
 17100  1  0  0  0
 18 19  2  0  0  0
 18101  1  0  0  0
 19 20  1  0  0  0
 19 24  1  0  0  0
 20 21  2  0  0  0
 20102  1  0  0  0
 21 23  1  0  0  0
 22 28  1  0  0  0
 22 32  2  0  0  0
 26 27  1  0  0  0
 28103  1  0  0  0
 28104  1  0  0  0
 29105  1  0  0  0
 29106  1  0  0  0
 33 34  1  0  0  0
 33 66  1  0  0  0
 33 70  2  0  0  0
 34 36  1  0  0  0
 34 59  1  0  0  0
 34107  1  0  0  0
 35 44  2  0  0  0
 35 45  1  0  0  0
 35 68  1  0  0  0
 36 56  1  0  0  0
 36108  1  0  0  0
 37 39  1  0  0  0
 37 47  1  0  0  0
 37 66  1  0  0  0
 37109  1  0  0  0
 38 43  2  0  0  0
 38 46  1  0  0  0
 38 47  1  0  0  0
 39 64  1  0  0  0
 39 67  2  0  0  0
 40 52  1  0  0  0
 40 53  2  0  0  0
 40 58  1  0  0  0
 41110  1  0  0  0
 41111  1  0  0  0
 41112  1  0  0  0
 41 48  1  0  0  0
 42 43  1  0  0  0
 42 66  1  0  0  0
 42113  1  0  0  0
 42114  1  0  0  0
 43 44  1  0  0  0
 44115  1  0  0  0
 45 46  2  0  0  0
 45116  1  0  0  0
 46117  1  0  0  0
 47118  1  0  0  0
 47119  1  0  0  0
 48 56  1  0  0  0
 48 65  1  0  0  0
 48120  1  0  0  0
 49 50  1  0  0  0
 49 53  1  0  0  0
 49 64  1  0  0  0
 49121  1  0  0  0
 50 51  1  0  0  0
 50122  1  0  0  0
 50123  1  0  0  0
 51 52  1  0  0  0
 51124  1  0  0  0
 51125  1  0  0  0
 52126  1  0  0  0
 52127  1  0  0  0
 53 54  1  0  0  0
 54 55  2  0  0  0
 54128  1  0  0  0
 55 57  1  0  0  0
 55129  1  0  0  0
 56 69  2  0  0  0
 57 58  2  0  0  0
 57130  1  0  0  0
 58131  1  0  0  0
 59 60  1  0  0  0
 59 61  1  0  0  0
 59 62  1  0  0  0
 60132  1  0  0  0
 60133  1  0  0  0
 60134  1  0  0  0
 61135  1  0  0  0
 61136  1  0  0  0
 61137  1  0  0  0
 62138  1  0  0  0
 62139  1  0  0  0
 62140  1  0  0  0
 63 65  1  0  0  0
 63141  1  0  0  0
 63142  1  0  0  0
 63143  1  0  0  0
 64144  1  0  0  0
 65145  1  0  0  0
 68 81  1  0  0  0
 71 72  2  0  0  0
 71 74  1  0  0  0
 71146  1  0  0  0
 72 75  1  0  0  0
 72147  1  0  0  0
 73 75  2  0  0  0
 73 76  1  0  0  0
 73148  1  0  0  0
 74 76  2  0  0  0
 74 77  1  0  0  0
 75 83  1  0  0  0
 76 82  1  0  0  0
 77 84  1  0  0  0
 77 85  2  0  0  0
 78 79  1  0  0  0
 78 81  1  0  0  0
 78 86  2  0  0  0
 79149  1  0  0  0
 79150  1  0  0  0
 79151  1  0  0  0
 80 84  1  0  0  0
 80152  1  0  0  0
 80153  1  0  0  0
 80 81  1  0  0  0
 81154  1  0  0  0
 82155  1  0  0  0
 82156  1  0  0  0
 83157  1  0  0  0
 84158  1  0  0  0
M  ISO  4   1 100  68 101  81 101  83 100
M  END
> <chiral flag>
0

> <version>
0

> <s_m_source_file>
/data/baiqing/PycharmProjects/Reinvent-master-3.2/result/LINK_invent/BTK/process_docking_weight1_custom_product_contain_oxygen_bond_distance_aromatic_linkinvent_7_9_3/rearranged_h_0166.sdf

> <i_m_source_file_index>
68

> <r_mmod_Potential_Energy-OPLS-2005>
102.821823120117

> <r_mmod_Stretch_Energy-OPLS-2005>
84.5313339233398

> <r_mmod_Bend_Energy-OPLS-2005>
151.583190917969

> <r_mmod_Torsional_Energy-OPLS-2005>
215.963363647461

> <r_mmod_Improper_Torsional_Energy-OPLS-2005>
9.26771926879883

> <r_mmod_Van_der_Waal_Energy-OPLS-2005>
147.219543457031

> <r_mmod_Electrostatic_Energy-OPLS-2005>
-313.507873535156

> <r_mmod_Solvation_Energy-OPLS-2005>
-242.107055664062

> <b_mmod_Minimization_Converged-OPLS-2005>
0

> <r_mmod_RMS_Derivative-OPLS-2005>
3.25661683082581

$$$$
69
                    3D
 Structure written by MMmdl.
160168  0  0  1  0            999 V2000
  -30.6524  -14.6291   20.5695 C   0  0  0  0  0  0
  -30.4336  -12.4168   19.4435 C   0  0  0  0  0  0
  -29.5026  -12.5104   18.2150 C   0  0  0  0  0  0
  -28.0264  -12.3444   18.6304 C   0  0  0  0  0  0
  -27.6427  -13.2224   19.8514 C   0  0  2  0  0  0
  -28.6836  -13.1041   20.9819 C   0  0  0  0  0  0
  -25.2539  -13.8165   20.5694 C   0  0  0  0  0  0
  -24.1824  -13.0449   20.9219 C   0  0  0  0  0  0
  -24.6389  -11.6904   20.8734 C   0  0  0  0  0  0
  -23.9050  -10.4298   21.0394 C   0  0  0  0  0  0
  -24.3612   -9.4229   21.9178 C   0  0  0  0  0  0
  -23.6308   -8.2259   22.0751 C   0  0  0  0  0  0
  -22.4281   -8.0288   21.3550 C   0  0  0  0  0  0
  -21.9894   -9.0252   20.4644 C   0  0  0  0  0  0
  -22.7206  -10.2139   20.3057 C   0  0  0  0  0  0
  -21.6852   -6.0728   22.5272 C   0  0  0  0  0  0
  -21.4012   -6.5645   23.8203 C   0  0  0  0  0  0
  -21.3666   -5.6805   24.9164 C   0  0  0  0  0  0
  -21.6053   -4.3066   24.7210 C   0  0  0  0  0  0
  -21.8822   -3.8147   23.4338 C   0  0  0  0  0  0
  -21.9204   -4.6957   22.3390 C   0  0  0  0  0  0
  -22.7839  -13.5231   21.1870 C   0  0  0  0  0  0
  -22.1672   -4.2156   21.0956 F   0  0  0  0  0  0
  -21.5637   -3.4541   25.7718 F   0  0  0  0  0  0
  -29.9916  -13.4429   20.4076 N   0  0  0  0  0  0
  -26.2946  -12.9369   20.3279 N   0  0  0  0  0  0
  -25.9311  -11.6526   20.5737 N   0  0  0  0  0  0
  -22.0488  -12.8238   22.0414 N   0  0  0  0  0  0
  -25.4248  -15.1874   20.4060 N   0  0  0  0  0  0
  -31.8431  -14.7281   20.2851 O   0  0  0  0  0  0
  -21.6660   -6.8875   21.4240 O   0  0  0  0  0  0
  -22.3537  -14.5541   20.6689 O   0  0  0  0  0  0
  -24.6256  -31.8616   23.2002 C   0  0  0  0  0  0
  -25.9098  -32.4798   23.8363 C   0  0  1  0  0  0
  -27.2429  -27.3562   20.1458 C   0  0  0  0  0  0
  -25.5921  -33.8593   24.2292 N   0  0  0  0  0  0
  -23.4209  -30.4809   21.5382 C   0  0  2  0  0  0
  -24.8806  -28.9434   20.1004 C   0  0  0  0  0  0
  -22.7497  -29.4632   22.4894 C   0  0  0  0  0  0
  -18.0289  -28.1390   22.8479 C   0  0  0  0  0  0
  -24.1493  -36.7300   23.2630 C   0  0  0  0  0  0
  -25.9561  -30.8065   21.3702 C   0  0  0  0  0  0
  -26.0415  -29.4380   20.7128 C   0  0  0  0  0  0
  -27.2282  -28.6532   20.7330 C   0  0  0  0  0  0
  -26.0757  -26.9059   19.4976 C   0  0  0  0  0  0
  -24.8998  -27.6832   19.4776 C   0  0  0  0  0  0
  -23.6413  -29.8135   20.1540 C   0  0  0  0  0  0
  -25.4116  -36.3088   24.0332 C   0  0  1  0  0  0
  -20.5894  -28.3706   23.1261 C   0  0  2  0  0  0
  -20.6781  -26.9425   22.5397 C   0  0  0  0  0  0
  -19.5754  -26.6381   21.5214 C   0  0  0  0  0  0
  -18.1932  -26.7930   22.1622 C   0  0  0  0  0  0
  -19.1543  -28.8864   23.2868 C   0  0  0  0  0  0
  -18.9464  -30.1466   23.8896 C   0  0  0  0  0  0
  -17.6462  -30.6580   24.0572 C   0  0  0  0  0  0
  -25.9050  -34.9461   23.5112 C   0  0  0  0  0  0
  -16.5361  -29.9082   23.6330 C   0  0  0  0  0  0
  -16.7270  -28.6507   23.0335 C   0  0  0  0  0  0
  -26.4493  -31.6584   25.0712 C   0  0  0  0  0  0
  -25.3740  -31.3706   26.1456 C   0  0  0  0  0  0
  -27.0329  -30.3017   24.6113 C   0  0  0  0  0  0
  -27.6056  -32.4328   25.7477 C   0  0  0  0  0  0
  -27.5585  -37.1809   24.8462 C   0  0  0  0  0  0
  -21.4205  -29.3057   22.3656 N   0  0  0  0  0  0
  -26.4298  -37.3781   23.9409 N   0  0  0  0  0  0
  -24.6848  -31.0659   22.0932 N   0  0  0  0  0  0
  -23.4227  -28.8188   23.2981 O   0  0  0  0  0  0
  -28.2862  -26.4443   20.2959 O   0  0  0  0  0  0
  -26.5602  -34.8923   22.4676 O   0  0  0  0  0  0
  -23.5428  -32.1396   23.7329 O   0  0  0  0  0  0
  -29.7012  -19.5059   21.2952 C   0  0  0  0  0  0
  -31.4093  -21.0738   20.5883 C   0  0  0  0  0  0
  -31.9112  -18.6590   20.6598 C   0  0  0  0  0  0
  -30.5938  -18.3775   21.1366 C   0  0  0  0  0  0
  -30.0866  -20.8690   21.0195 C   0  0  0  0  0  0
  -32.3055  -20.0044   20.4040 C   0  0  0  0  0  0
  -28.1011  -25.5753   21.3795 C   0  0  0  0  0  0
  -32.9068  -17.5684   20.4628 C   0  0  0  0  0  0
  -28.4774  -24.2784   21.6571 C   0  0  0  0  0  0
  -29.2821  -23.3300   20.8411 C   0  0  0  0  0  0
  -33.6272  -17.0882   21.7183 C   0  0  0  0  0  0
  -30.2382  -16.9449   21.7137 C   0  0  0  0  0  0
  -33.6051  -20.3525   20.0091 N   0  0  0  0  0  0
  -29.2302  -22.0259   21.2965 N   0  0  0  0  0  0
  -29.8981  -15.7278   20.8947 N   0  0  0  0  0  0
  -33.2368  -17.1354   19.3528 O   0  0  0  0  0  0
  -29.9326  -23.6597   19.8490 O   0  0  0  0  0  0
  -28.0842  -23.8220   22.8594 O   0  0  0  0  0  0
  -31.4704  -12.5622   19.1318 H   0  0  0  0  0  0
  -30.3930  -11.4262   19.9017 H   0  0  0  0  0  0
  -29.7778  -11.7486   17.4859 H   0  0  0  0  0  0
  -29.6404  -13.4733   17.7203 H   0  0  0  0  0  0
  -27.8752  -11.2936   18.8728 H   0  0  0  0  0  0
  -27.3683  -12.5569   17.7880 H   0  0  0  0  0  0
  -27.6509  -14.2521   19.4978 H   0  0  0  0  0  0
  -28.6978  -12.0960   21.3975 H   0  0  0  0  0  0
  -28.4276  -13.7613   21.8126 H   0  0  0  0  0  0
  -25.2745   -9.5729   22.4745 H   0  0  0  0  0  0
  -24.0022   -7.4639   22.7449 H   0  0  0  0  0  0
  -21.0846   -8.8735   19.8930 H   0  0  0  0  0  0
  -22.3637  -10.9670   19.6165 H   0  0  0  0  0  0
  -21.1992   -7.6148   23.9723 H   0  0  0  0  0  0
  -21.1494   -6.0514   25.9075 H   0  0  0  0  0  0
  -22.0590   -2.7609   23.2838 H   0  0  0  0  0  0
  -22.4100  -11.9918   22.4847 H   0  0  0  0  0  0
  -21.1074  -13.1245   22.2554 H   0  0  0  0  0  0
  -24.6566  -15.8374   20.5197 H   0  0  0  0  0  0
  -26.2709  -15.6250   20.0654 H   0  0  0  0  0  0
  -26.7186  -32.5486   23.1146 H   0  0  0  0  0  0
  -25.0133  -33.9763   25.0480 H   0  0  0  0  0  0
  -22.7110  -31.2975   21.3917 H   0  0  0  0  0  0
  -23.3758  -35.9636   23.3296 H   0  0  0  0  0  0
  -24.3577  -36.8914   22.2045 H   0  0  0  0  0  0
  -23.7260  -37.6506   23.6656 H   0  0  0  0  0  0
  -26.0813  -31.5663   20.5984 H   0  0  0  0  0  0
  -26.8402  -30.8611   21.9955 H   0  0  0  0  0  0
  -28.1066  -29.0067   21.2564 H   0  0  0  0  0  0
  -26.0624  -25.9190   19.0559 H   0  0  0  0  0  0
  -24.0137  -27.2878   19.0027 H   0  0  0  0  0  0
  -23.7570  -30.5880   19.3960 H   0  0  0  0  0  0
  -22.7655  -29.2360   19.8536 H   0  0  0  0  0  0
  -25.1300  -36.1948   25.0827 H   0  0  0  0  0  0
  -20.9991  -28.3290   24.1382 H   0  0  0  0  0  0
  -20.5677  -26.2327   23.3607 H   0  0  0  0  0  0
  -21.6650  -26.7441   22.1204 H   0  0  0  0  0  0
  -19.6906  -25.6291   21.1242 H   0  0  0  0  0  0
  -19.6682  -27.3197   20.6755 H   0  0  0  0  0  0
  -17.4203  -26.6686   21.4010 H   0  0  0  0  0  0
  -18.0320  -26.0072   22.9021 H   0  0  0  0  0  0
  -19.7942  -30.7277   24.2262 H   0  0  0  0  0  0
  -17.5016  -31.6257   24.5183 H   0  0  0  0  0  0
  -15.5357  -30.2986   23.7633 H   0  0  0  0  0  0
  -15.8681  -28.0824   22.7031 H   0  0  0  0  0  0
  -24.5919  -30.7039   25.7789 H   0  0  0  0  0  0
  -24.8925  -32.2860   26.4904 H   0  0  0  0  0  0
  -25.8091  -30.8874   27.0216 H   0  0  0  0  0  0
  -26.2874  -29.6770   24.1165 H   0  0  0  0  0  0
  -27.4079  -29.7262   25.4582 H   0  0  0  0  0  0
  -27.8724  -30.4316   23.9284 H   0  0  0  0  0  0
  -27.2668  -33.3632   26.2065 H   0  0  0  0  0  0
  -28.3863  -32.6903   25.0298 H   0  0  0  0  0  0
  -28.0746  -31.8452   26.5384 H   0  0  0  0  0  0
  -28.2608  -38.0096   24.7515 H   0  0  0  0  0  0
  -28.1074  -36.2633   24.6293 H   0  0  0  0  0  0
  -27.2291  -37.1467   25.8856 H   0  0  0  0  0  0
  -20.9384  -29.8803   21.6894 H   0  0  0  0  0  0
  -26.0172  -38.2859   24.1404 H   0  0  0  0  0  0
  -28.7081  -19.3269   21.6865 H   0  0  0  0  0  0
  -31.7743  -22.0785   20.4282 H   0  0  0  0  0  0
  -27.5224  -26.0843   22.1426 H   0  0  0  0  0  0
  -34.6808  -17.3506   21.6511 H   0  0  0  0  0  0
  -33.5371  -16.0099   21.8421 H   0  0  0  0  0  0
  -33.2172  -17.5659   22.6073 H   0  0  0  0  0  0
  -29.3856  -17.0878   22.3789 H   0  0  0  0  0  0
  -31.0210  -16.6477   22.4103 H   0  0  0  0  0  0
  -33.9290  -21.3103   20.1171 H   0  0  0  0  0  0
  -34.3611  -19.6749   20.0015 H   0  0  0  0  0  0
  -28.4879  -21.8589   21.9623 H   0  0  0  0  0  0
  -28.9054  -15.5499   20.8543 H   0  0  0  0  0  0
  -28.6168  -23.0617   23.0550 H   0  0  0  0  0  0
  1 25  1  0  0  0
  1 30  2  0  0  0
  1 85  1  0  0  0
  2  3  1  0  0  0
  2 25  1  0  0  0
  2 89  1  0  0  0
  2 90  1  0  0  0
  3  4  1  0  0  0
  3 91  1  0  0  0
  3 92  1  0  0  0
  4  5  1  0  0  0
  4 93  1  0  0  0
  4 94  1  0  0  0
  5  6  1  0  0  0
  5 26  1  0  0  0
  5 95  1  0  0  0
  6 25  1  0  0  0
  6 96  1  0  0  0
  6 97  1  0  0  0
  7  8  2  0  0  0
  7 26  1  0  0  0
  7 29  1  0  0  0
  8  9  1  0  0  0
  8 22  1  0  0  0
  9 10  1  0  0  0
  9 27  2  0  0  0
 10 11  2  0  0  0
 10 15  1  0  0  0
 11 12  1  0  0  0
 11 98  1  0  0  0
 12 13  2  0  0  0
 12 99  1  0  0  0
 13 14  1  0  0  0
 13 31  1  0  0  0
 14 15  2  0  0  0
 14100  1  0  0  0
 15101  1  0  0  0
 16 17  2  0  0  0
 16 21  1  0  0  0
 16 31  1  0  0  0
 17 18  1  0  0  0
 17102  1  0  0  0
 18 19  2  0  0  0
 18103  1  0  0  0
 19 20  1  0  0  0
 19 24  1  0  0  0
 20 21  2  0  0  0
 20104  1  0  0  0
 21 23  1  0  0  0
 22 28  1  0  0  0
 22 32  2  0  0  0
 26 27  1  0  0  0
 28105  1  0  0  0
 28106  1  0  0  0
 29107  1  0  0  0
 29108  1  0  0  0
 33 34  1  0  0  0
 33 66  1  0  0  0
 33 70  2  0  0  0
 34 36  1  0  0  0
 34 59  1  0  0  0
 34109  1  0  0  0
 35 44  2  0  0  0
 35 45  1  0  0  0
 35 68  1  0  0  0
 36 56  1  0  0  0
 36110  1  0  0  0
 37 39  1  0  0  0
 37 47  1  0  0  0
 37 66  1  0  0  0
 37111  1  0  0  0
 38 43  2  0  0  0
 38 46  1  0  0  0
 38 47  1  0  0  0
 39 64  1  0  0  0
 39 67  2  0  0  0
 40 52  1  0  0  0
 40 53  2  0  0  0
 40 58  1  0  0  0
 41112  1  0  0  0
 41113  1  0  0  0
 41114  1  0  0  0
 41 48  1  0  0  0
 42 43  1  0  0  0
 42 66  1  0  0  0
 42115  1  0  0  0
 42116  1  0  0  0
 43 44  1  0  0  0
 44117  1  0  0  0
 45 46  2  0  0  0
 45118  1  0  0  0
 46119  1  0  0  0
 47120  1  0  0  0
 47121  1  0  0  0
 48 56  1  0  0  0
 48 65  1  0  0  0
 48122  1  0  0  0
 49 50  1  0  0  0
 49 53  1  0  0  0
 49 64  1  0  0  0
 49123  1  0  0  0
 50 51  1  0  0  0
 50124  1  0  0  0
 50125  1  0  0  0
 51 52  1  0  0  0
 51126  1  0  0  0
 51127  1  0  0  0
 52128  1  0  0  0
 52129  1  0  0  0
 53 54  1  0  0  0
 54 55  2  0  0  0
 54130  1  0  0  0
 55 57  1  0  0  0
 55131  1  0  0  0
 56 69  2  0  0  0
 57 58  2  0  0  0
 57132  1  0  0  0
 58133  1  0  0  0
 59 60  1  0  0  0
 59 61  1  0  0  0
 59 62  1  0  0  0
 60134  1  0  0  0
 60135  1  0  0  0
 60136  1  0  0  0
 61137  1  0  0  0
 61138  1  0  0  0
 61139  1  0  0  0
 62140  1  0  0  0
 62141  1  0  0  0
 62142  1  0  0  0
 63 65  1  0  0  0
 63143  1  0  0  0
 63144  1  0  0  0
 63145  1  0  0  0
 64146  1  0  0  0
 65147  1  0  0  0
 68 77  1  0  0  0
 71 74  2  0  0  0
 71 75  1  0  0  0
 71148  1  0  0  0
 72 75  2  0  0  0
 72 76  1  0  0  0
 72149  1  0  0  0
 73 74  1  0  0  0
 73 76  2  0  0  0
 73 78  1  0  0  0
 74 82  1  0  0  0
 75 84  1  0  0  0
 76 83  1  0  0  0
 77 79  2  0  0  0
 77150  1  0  0  0
 78 81  1  0  0  0
 78 86  2  0  0  0
 79 80  1  0  0  0
 79 88  1  0  0  0
 80 84  1  0  0  0
 80 87  2  0  0  0
 81151  1  0  0  0
 81152  1  0  0  0
 81153  1  0  0  0
 82 85  1  0  0  0
 82154  1  0  0  0
 82155  1  0  0  0
 83156  1  0  0  0
 83157  1  0  0  0
 84158  1  0  0  0
 85159  1  0  0  0
 88160  1  0  0  0
M  ISO  4   1 100  68 101  77 101  85 100
M  END
> <chiral flag>
0

> <version>
0

> <s_m_source_file>
/data/baiqing/PycharmProjects/Reinvent-master-3.2/result/LINK_invent/BTK/process_docking_weight1_custom_product_contain_oxygen_bond_distance_aromatic_linkinvent_7_9_3/rearranged_h_0166.sdf

> <i_m_source_file_index>
69

> <r_mmod_Potential_Energy-OPLS-2005>
155.621459960938

> <r_mmod_Stretch_Energy-OPLS-2005>
80.7750625610352

> <r_mmod_Bend_Energy-OPLS-2005>
174.027740478516

> <r_mmod_Torsional_Energy-OPLS-2005>
308.072998046875

> <r_mmod_Improper_Torsional_Energy-OPLS-2005>
9.94940662384033

> <r_mmod_Van_der_Waal_Energy-OPLS-2005>
153.249237060547

> <r_mmod_Electrostatic_Energy-OPLS-2005>
-342.632843017578

> <r_mmod_Solvation_Energy-OPLS-2005>
-285.167053222656

> <b_mmod_Minimization_Converged-OPLS-2005>
0

> <r_mmod_RMS_Derivative-OPLS-2005>
4.80796241760254

$$$$
70
                    3D
 Structure written by MMmdl.
157166  0  0  1  0            999 V2000
  -30.6121  -14.5938   20.5571 C   0  0  0  0  0  0
  -30.4457  -12.3776   19.4379 C   0  0  0  0  0  0
  -29.5083  -12.5250   18.2170 C   0  0  0  0  0  0
  -28.0292  -12.3614   18.6248 C   0  0  0  0  0  0
  -27.6602  -13.2064   19.8720 C   0  0  2  0  0  0
  -28.7018  -12.9994   20.9954 C   0  0  0  0  0  0
  -25.2583  -13.8133   20.5671 C   0  0  0  0  0  0
  -24.1838  -13.0424   20.9205 C   0  0  0  0  0  0
  -24.6383  -11.6890   20.8742 C   0  0  0  0  0  0
  -23.9040  -10.4288   21.0419 C   0  0  0  0  0  0
  -24.3600   -9.4207   21.9191 C   0  0  0  0  0  0
  -23.6289   -8.2236   22.0752 C   0  0  0  0  0  0
  -22.4272   -8.0268   21.3536 C   0  0  0  0  0  0
  -21.9897   -9.0245   20.4644 C   0  0  0  0  0  0
  -22.7217  -10.2132   20.3064 C   0  0  0  0  0  0
  -21.6849   -6.0732   22.5282 C   0  0  0  0  0  0
  -21.4008   -6.5637   23.8216 C   0  0  0  0  0  0
  -21.3661   -5.6790   24.9179 C   0  0  0  0  0  0
  -21.6047   -4.3053   24.7227 C   0  0  0  0  0  0
  -21.8820   -3.8144   23.4347 C   0  0  0  0  0  0
  -21.9191   -4.6962   22.3404 C   0  0  0  0  0  0
  -22.7863  -13.5237   21.1859 C   0  0  0  0  0  0
  -22.1660   -4.2151   21.0983 F   0  0  0  0  0  0
  -21.5634   -3.4531   25.7737 F   0  0  0  0  0  0
  -30.0252  -13.3613   20.4544 N   0  0  0  0  0  0
  -26.3007  -12.9294   20.3315 N   0  0  0  0  0  0
  -25.9303  -11.6462   20.5730 N   0  0  0  0  0  0
  -22.0478  -12.8254   22.0410 N   0  0  0  0  0  0
  -25.4326  -15.1847   20.4041 N   0  0  0  0  0  0
  -31.7287  -14.8303   20.0890 O   0  0  0  0  0  0
  -21.6632   -6.8870   21.4241 O   0  0  0  0  0  0
  -22.3566  -14.5551   20.6711 O   0  0  0  0  0  0
  -24.6211  -31.8638   23.2050 C   0  0  0  0  0  0
  -25.9078  -32.4803   23.8378 C   0  0  1  0  0  0
  -27.2355  -27.3598   20.1207 C   0  0  0  0  0  0
  -25.5910  -33.8605   24.2302 N   0  0  0  0  0  0
  -23.4154  -30.4840   21.5463 C   0  0  2  0  0  0
  -24.8678  -28.9358   20.1204 C   0  0  0  0  0  0
  -22.7455  -29.4642   22.4965 C   0  0  0  0  0  0
  -18.0273  -28.1371   22.8480 C   0  0  0  0  0  0
  -24.1485  -36.7310   23.2641 C   0  0  0  0  0  0
  -25.9522  -30.8018   21.3742 C   0  0  0  0  0  0
  -26.0307  -29.4282   20.7277 C   0  0  0  0  0  0
  -27.2200  -28.6468   20.7278 C   0  0  0  0  0  0
  -26.0578  -26.9020   19.4986 C   0  0  0  0  0  0
  -24.8798  -27.6734   19.5014 C   0  0  0  0  0  0
  -23.6321  -29.8114   20.1640 C   0  0  0  0  0  0
  -25.4109  -36.3107   24.0334 C   0  0  1  0  0  0
  -20.5867  -28.3682   23.1298 C   0  0  2  0  0  0
  -20.6751  -26.9410   22.5418 C   0  0  0  0  0  0
  -19.5739  -26.6384   21.5207 C   0  0  0  0  0  0
  -18.1918  -26.7913   22.1619 C   0  0  0  0  0  0
  -19.1520  -28.8842   23.2876 C   0  0  0  0  0  0
  -18.9448  -30.1438   23.8900 C   0  0  0  0  0  0
  -17.6454  -30.6579   24.0551 C   0  0  0  0  0  0
  -25.9049  -34.9477   23.5122 C   0  0  0  0  0  0
  -16.5348  -29.9077   23.6325 C   0  0  0  0  0  0
  -16.7260  -28.6486   23.0357 C   0  0  0  0  0  0
  -26.4481  -31.6595   25.0731 C   0  0  0  0  0  0
  -25.3731  -31.3722   26.1466 C   0  0  0  0  0  0
  -27.0308  -30.3015   24.6170 C   0  0  0  0  0  0
  -27.6054  -32.4319   25.7491 C   0  0  0  0  0  0
  -27.5590  -37.1799   24.8457 C   0  0  0  0  0  0
  -21.4170  -29.3041   22.3700 N   0  0  0  0  0  0
  -26.4287  -37.3807   23.9428 N   0  0  0  0  0  0
  -24.6814  -31.0660   22.0998 N   0  0  0  0  0  0
  -23.4189  -28.8196   23.3046 O   0  0  0  0  0  0
  -28.3546  -26.5360   20.0556 O   0  0  0  0  0  0
  -26.5624  -34.8935   22.4691 O   0  0  0  0  0  0
  -23.5379  -32.1427   23.7395 O   0  0  0  0  0  0
  -28.4222  -17.5595   21.2355 C   0  0  0  0  0  0
  -29.6816  -16.9899   20.9570 C   0  0  0  0  0  0
  -30.6509  -17.9461   20.5812 C   0  0  0  0  0  0
  -29.1432  -19.7050   20.7657 C   0  0  0  0  0  0
  -28.7186  -24.1321   21.0566 C   0  0  0  0  0  0
  -29.3786  -23.5175   19.8010 C   0  0  0  0  0  0
  -28.5221  -21.9166   22.0421 C   0  0  0  0  0  0
  -28.7728  -21.2321   20.6657 C   0  0  1  0  0  0
  -28.6391  -25.7012   21.2140 C   0  0  0  0  0  0
  -28.1601  -18.8818   21.1316 N   0  0  0  0  0  0
  -30.3875  -19.2773   20.4882 N   0  0  0  0  0  0
  -28.2887  -23.3852   22.0130 N   0  0  0  0  0  0
  -31.9579  -17.5866   20.3248 N   0  0  0  0  0  0
  -29.8243  -15.5468   21.1283 N   0  0  0  0  0  0
  -29.7604  -22.0681   19.9489 N   0  3  0  0  0  0
  -31.4846  -12.5230   19.1353 H   0  0  0  0  0  0
  -30.3914  -11.3666   19.8452 H   0  0  0  0  0  0
  -29.7705  -11.7956   17.4491 H   0  0  0  0  0  0
  -29.6523  -13.5064   17.7624 H   0  0  0  0  0  0
  -27.8565  -11.3049   18.8312 H   0  0  0  0  0  0
  -27.3762  -12.6158   17.7888 H   0  0  0  0  0  0
  -27.6966  -14.2523   19.5655 H   0  0  0  0  0  0
  -28.7070  -11.9560   21.3161 H   0  0  0  0  0  0
  -28.4387  -13.5700   21.8872 H   0  0  0  0  0  0
  -25.2751   -9.5691   22.4751 H   0  0  0  0  0  0
  -24.0004   -7.4631   22.7469 H   0  0  0  0  0  0
  -21.0823   -8.8770   19.8958 H   0  0  0  0  0  0
  -22.3677  -10.9669   19.6170 H   0  0  0  0  0  0
  -21.1989   -7.6145   23.9720 H   0  0  0  0  0  0
  -21.1489   -6.0516   25.9087 H   0  0  0  0  0  0
  -22.0599   -2.7604   23.2841 H   0  0  0  0  0  0
  -22.4060  -11.9913   22.4813 H   0  0  0  0  0  0
  -21.1104  -13.1312   22.2604 H   0  0  0  0  0  0
  -24.6523  -15.8276   20.4807 H   0  0  0  0  0  0
  -26.2390  -15.5943   19.9522 H   0  0  0  0  0  0
  -26.7154  -32.5487   23.1142 H   0  0  0  0  0  0
  -25.0022  -33.9755   25.0418 H   0  0  0  0  0  0
  -22.7077  -31.3027   21.4011 H   0  0  0  0  0  0
  -23.3766  -35.9625   23.3283 H   0  0  0  0  0  0
  -24.3585  -36.8950   22.2063 H   0  0  0  0  0  0
  -23.7209  -37.6497   23.6666 H   0  0  0  0  0  0
  -26.0763  -31.5625   20.6017 H   0  0  0  0  0  0
  -26.8351  -30.8568   21.9987 H   0  0  0  0  0  0
  -28.1196  -29.0265   21.1928 H   0  0  0  0  0  0
  -26.0516  -25.9363   19.0131 H   0  0  0  0  0  0
  -23.9888  -27.2902   19.0234 H   0  0  0  0  0  0
  -23.7490  -30.5847   19.4038 H   0  0  0  0  0  0
  -22.7543  -29.2343   19.8655 H   0  0  0  0  0  0
  -25.1281  -36.1969   25.0823 H   0  0  0  0  0  0
  -20.9941  -28.3244   24.1424 H   0  0  0  0  0  0
  -20.5645  -26.2301   23.3614 H   0  0  0  0  0  0
  -21.6624  -26.7432   22.1229 H   0  0  0  0  0  0
  -19.6910  -25.6292   21.1240 H   0  0  0  0  0  0
  -19.6680  -27.3189   20.6729 H   0  0  0  0  0  0
  -17.4195  -26.6664   21.4010 H   0  0  0  0  0  0
  -18.0319  -26.0038   22.9000 H   0  0  0  0  0  0
  -19.7929  -30.7226   24.2292 H   0  0  0  0  0  0
  -17.5023  -31.6263   24.5142 H   0  0  0  0  0  0
  -15.5349  -30.2989   23.7641 H   0  0  0  0  0  0
  -15.8657  -28.0803   22.7092 H   0  0  0  0  0  0
  -24.5888  -30.7091   25.7798 H   0  0  0  0  0  0
  -24.8933  -32.2880   26.4937 H   0  0  0  0  0  0
  -25.8067  -30.8870   27.0221 H   0  0  0  0  0  0
  -26.2861  -29.6782   24.1203 H   0  0  0  0  0  0
  -27.4006  -29.7263   25.4675 H   0  0  0  0  0  0
  -27.8747  -30.4294   23.9380 H   0  0  0  0  0  0
  -27.2669  -33.3613   26.2091 H   0  0  0  0  0  0
  -28.3849  -32.6895   25.0304 H   0  0  0  0  0  0
  -28.0746  -31.8428   26.5385 H   0  0  0  0  0  0
  -28.2584  -38.0123   24.7555 H   0  0  0  0  0  0
  -28.1100  -36.2656   24.6200 H   0  0  0  0  0  0
  -27.2317  -37.1352   25.8860 H   0  0  0  0  0  0
  -20.9357  -29.8767   21.6906 H   0  0  0  0  0  0
  -26.0175  -38.2882   24.1451 H   0  0  0  0  0  0
  -27.5968  -16.9375   21.5494 H   0  0  0  0  0  0
  -30.2577  -24.1018   19.5284 H   0  0  0  0  0  0
  -28.6742  -23.6133   18.9741 H   0  0  0  0  0  0
  -29.3700  -21.7077   22.6971 H   0  0  0  0  0  0
  -27.6713  -21.4263   22.5166 H   0  0  0  0  0  0
  -27.8465  -21.2749   20.0903 H   0  0  0  0  0  0
  -29.6078  -26.0294   21.5920 H   0  0  0  0  0  0
  -27.9335  -25.9293   22.0156 H   0  0  0  0  0  0
  -32.0851  -16.5849   20.1621 H   0  0  0  0  0  0
  -32.4709  -18.1729   19.6815 H   0  0  0  0  0  0
  -29.0098  -15.1148   21.5395 H   0  0  0  0  0  0
  -30.6126  -21.9911   20.4761 H   0  0  0  0  0  0
  -29.9281  -21.6485   19.0513 H   0  0  0  0  0  0
  1 25  1  0  0  0
  1 30  2  0  0  0
  1 84  1  0  0  0
  2  3  1  0  0  0
  2 25  1  0  0  0
  2 86  1  0  0  0
  2 87  1  0  0  0
  3  4  1  0  0  0
  3 88  1  0  0  0
  3 89  1  0  0  0
  4  5  1  0  0  0
  4 90  1  0  0  0
  4 91  1  0  0  0
  5  6  1  0  0  0
  5 26  1  0  0  0
  5 92  1  0  0  0
  6 25  1  0  0  0
  6 93  1  0  0  0
  6 94  1  0  0  0
  7  8  2  0  0  0
  7 26  1  0  0  0
  7 29  1  0  0  0
  8  9  1  0  0  0
  8 22  1  0  0  0
  9 10  1  0  0  0
  9 27  2  0  0  0
 10 11  2  0  0  0
 10 15  1  0  0  0
 11 12  1  0  0  0
 11 95  1  0  0  0
 12 13  2  0  0  0
 12 96  1  0  0  0
 13 14  1  0  0  0
 13 31  1  0  0  0
 14 15  2  0  0  0
 14 97  1  0  0  0
 15 98  1  0  0  0
 16 17  2  0  0  0
 16 21  1  0  0  0
 16 31  1  0  0  0
 17 18  1  0  0  0
 17 99  1  0  0  0
 18 19  2  0  0  0
 18100  1  0  0  0
 19 20  1  0  0  0
 19 24  1  0  0  0
 20 21  2  0  0  0
 20101  1  0  0  0
 21 23  1  0  0  0
 22 28  1  0  0  0
 22 32  2  0  0  0
 26 27  1  0  0  0
 28102  1  0  0  0
 28103  1  0  0  0
 29104  1  0  0  0
 29105  1  0  0  0
 33 34  1  0  0  0
 33 66  1  0  0  0
 33 70  2  0  0  0
 34 36  1  0  0  0
 34 59  1  0  0  0
 34106  1  0  0  0
 35 44  2  0  0  0
 35 45  1  0  0  0
 35 68  1  0  0  0
 36 56  1  0  0  0
 36107  1  0  0  0
 37 39  1  0  0  0
 37 47  1  0  0  0
 37 66  1  0  0  0
 37108  1  0  0  0
 38 43  2  0  0  0
 38 46  1  0  0  0
 38 47  1  0  0  0
 39 64  1  0  0  0
 39 67  2  0  0  0
 40 52  1  0  0  0
 40 53  2  0  0  0
 40 58  1  0  0  0
 41109  1  0  0  0
 41110  1  0  0  0
 41111  1  0  0  0
 41 48  1  0  0  0
 42 43  1  0  0  0
 42 66  1  0  0  0
 42112  1  0  0  0
 42113  1  0  0  0
 43 44  1  0  0  0
 44114  1  0  0  0
 45 46  2  0  0  0
 45115  1  0  0  0
 46116  1  0  0  0
 47117  1  0  0  0
 47118  1  0  0  0
 48 56  1  0  0  0
 48 65  1  0  0  0
 48119  1  0  0  0
 49 50  1  0  0  0
 49 53  1  0  0  0
 49 64  1  0  0  0
 49120  1  0  0  0
 50 51  1  0  0  0
 50121  1  0  0  0
 50122  1  0  0  0
 51 52  1  0  0  0
 51123  1  0  0  0
 51124  1  0  0  0
 52125  1  0  0  0
 52126  1  0  0  0
 53 54  1  0  0  0
 54 55  2  0  0  0
 54127  1  0  0  0
 55 57  1  0  0  0
 55128  1  0  0  0
 56 69  2  0  0  0
 57 58  2  0  0  0
 57129  1  0  0  0
 58130  1  0  0  0
 59 60  1  0  0  0
 59 61  1  0  0  0
 59 62  1  0  0  0
 60131  1  0  0  0
 60132  1  0  0  0
 60133  1  0  0  0
 61134  1  0  0  0
 61135  1  0  0  0
 61136  1  0  0  0
 62137  1  0  0  0
 62138  1  0  0  0
 62139  1  0  0  0
 63 65  1  0  0  0
 63140  1  0  0  0
 63141  1  0  0  0
 63142  1  0  0  0
 64143  1  0  0  0
 65144  1  0  0  0
 68 79  1  0  0  0
 71 72  2  0  0  0
 71 80  1  0  0  0
 71145  1  0  0  0
 72 73  1  0  0  0
 72 84  1  0  0  0
 73 81  2  0  0  0
 73 83  1  0  0  0
 74 80  2  0  0  0
 74 81  1  0  0  0
 74 78  1  0  0  0
 75 76  1  0  0  0
 75 79  1  0  0  0
 75 82  2  0  0  0
 76 85  1  0  0  0
 76146  1  0  0  0
 76147  1  0  0  0
 77 78  1  0  0  0
 77 82  1  0  0  0
 77148  1  0  0  0
 77149  1  0  0  0
 78 85  1  0  0  0
 78150  1  0  0  0
 79151  1  0  0  0
 79152  1  0  0  0
 83153  1  0  0  0
 83154  1  0  0  0
 84155  1  0  0  0
 85156  1  0  0  0
 85157  1  0  0  0
M  CHG  1  85   1
M  ISO  4   1 100  68 101  79 101  84 100
M  END
> <chiral flag>
0

> <version>
0

> <s_m_source_file>
/data/baiqing/PycharmProjects/Reinvent-master-3.2/result/LINK_invent/BTK/process_docking_weight1_custom_product_contain_oxygen_bond_distance_aromatic_linkinvent_7_9_3/rearranged_h_0166.sdf

> <i_m_source_file_index>
70

> <r_mmod_Potential_Energy-OPLS-2005>
-856.617614746094

> <r_mmod_Stretch_Energy-OPLS-2005>
67.6883087158203

> <r_mmod_Bend_Energy-OPLS-2005>
155.191040039062

> <r_mmod_Torsional_Energy-OPLS-2005>
245.212966918945

> <r_mmod_Improper_Torsional_Energy-OPLS-2005>
9.07956314086914

> <r_mmod_Van_der_Waal_Energy-OPLS-2005>
160.876983642578

> <r_mmod_Electrostatic_Energy-OPLS-2005>
-1039.46142578125

> <r_mmod_Solvation_Energy-OPLS-2005>
-488.154693603516

> <b_mmod_Minimization_Converged-OPLS-2005>
0

> <r_mmod_RMS_Derivative-OPLS-2005>
1.73132276535034

$$$$
71
                    3D
 Structure written by MMmdl.
160168  0  0  1  0            999 V2000
  -30.6464  -14.5088   20.5908 C   0  0  0  0  0  0
  -30.4426  -12.3322   19.4321 C   0  0  0  0  0  0
  -29.5040  -12.5015   18.2167 C   0  0  0  0  0  0
  -28.0228  -12.3579   18.6195 C   0  0  0  0  0  0
  -27.6616  -13.2000   19.8732 C   0  0  2  0  0  0
  -28.6989  -12.9613   20.9938 C   0  0  0  0  0  0
  -25.2585  -13.8134   20.5687 C   0  0  0  0  0  0
  -24.1801  -13.0405   20.9148 C   0  0  0  0  0  0
  -24.6343  -11.6890   20.8711 C   0  0  0  0  0  0
  -23.8997  -10.4272   21.0389 C   0  0  0  0  0  0
  -24.3545   -9.4195   21.9166 C   0  0  0  0  0  0
  -23.6233   -8.2233   22.0734 C   0  0  0  0  0  0
  -22.4230   -8.0251   21.3531 C   0  0  0  0  0  0
  -21.9847   -9.0218   20.4636 C   0  0  0  0  0  0
  -22.7171  -10.2103   20.3033 C   0  0  0  0  0  0
  -21.6847   -6.0672   22.5273 C   0  0  0  0  0  0
  -21.4024   -6.5580   23.8215 C   0  0  0  0  0  0
  -21.3674   -5.6731   24.9173 C   0  0  0  0  0  0
  -21.6060   -4.2998   24.7218 C   0  0  0  0  0  0
  -21.8838   -3.8075   23.4352 C   0  0  0  0  0  0
  -21.9176   -4.6887   22.3399 C   0  0  0  0  0  0
  -22.7826  -13.5224   21.1781 C   0  0  0  0  0  0
  -22.1645   -4.2059   21.0987 F   0  0  0  0  0  0
  -21.5648   -3.4506   25.7756 F   0  0  0  0  0  0
  -30.0323  -13.2980   20.4639 N   0  0  0  0  0  0
  -26.3002  -12.9299   20.3332 N   0  0  0  0  0  0
  -25.9277  -11.6468   20.5724 N   0  0  0  0  0  0
  -22.0442  -12.8310   22.0407 N   0  0  0  0  0  0
  -25.4293  -15.1845   20.4160 N   0  0  0  0  0  0
  -31.7558  -14.7437   20.0983 O   0  0  0  0  0  0
  -21.6635   -6.8817   21.4239 O   0  0  0  0  0  0
  -22.3509  -14.5486   20.6571 O   0  0  0  0  0  0
  -24.6183  -31.8711   23.2114 C   0  0  0  0  0  0
  -25.9075  -32.4855   23.8433 C   0  0  1  0  0  0
  -27.2386  -27.4335   20.1100 C   0  0  0  0  0  0
  -25.5955  -33.8658   24.2403 N   0  0  0  0  0  0
  -23.4056  -30.4976   21.5504 C   0  0  2  0  0  0
  -24.8523  -28.9623   20.1222 C   0  0  0  0  0  0
  -22.7432  -29.4728   22.4992 C   0  0  0  0  0  0
  -18.0317  -28.1380   22.8470 C   0  0  0  0  0  0
  -24.1503  -36.7305   23.2646 C   0  0  0  0  0  0
  -25.9398  -30.8419   21.3617 C   0  0  0  0  0  0
  -26.0120  -29.4737   20.7137 C   0  0  0  0  0  0
  -27.2059  -28.7170   20.7041 C   0  0  0  0  0  0
  -26.0428  -26.9151   19.5674 C   0  0  0  0  0  0
  -24.8623  -27.6810   19.5435 C   0  0  0  0  0  0
  -23.6149  -29.8288   20.1674 C   0  0  0  0  0  0
  -25.4121  -36.3163   24.0379 C   0  0  1  0  0  0
  -20.5894  -28.3713   23.1329 C   0  0  2  0  0  0
  -20.6856  -26.9473   22.5402 C   0  0  0  0  0  0
  -19.5827  -26.6407   21.5225 C   0  0  0  0  0  0
  -18.2013  -26.7916   22.1638 C   0  0  0  0  0  0
  -19.1552  -28.8855   23.2915 C   0  0  0  0  0  0
  -18.9435  -30.1450   23.8936 C   0  0  0  0  0  0
  -17.6422  -30.6582   24.0549 C   0  0  0  0  0  0
  -25.9042  -34.9508   23.5187 C   0  0  0  0  0  0
  -16.5336  -29.9059   23.6282 C   0  0  0  0  0  0
  -16.7296  -28.6476   23.0306 C   0  0  0  0  0  0
  -26.4471  -31.6602   25.0740 C   0  0  0  0  0  0
  -25.3738  -31.3650   26.1474 C   0  0  0  0  0  0
  -27.0316  -30.3050   24.6109 C   0  0  0  0  0  0
  -27.6095  -32.4291   25.7466 C   0  0  0  0  0  0
  -27.5617  -37.1809   24.8466 C   0  0  0  0  0  0
  -21.4165  -29.3105   22.3767 N   0  0  0  0  0  0
  -26.4318  -37.3817   23.9429 N   0  0  0  0  0  0
  -24.6740  -31.0847   22.0979 N   0  0  0  0  0  0
  -23.4229  -28.8269   23.3012 O   0  0  0  0  0  0
  -28.4445  -26.7526   20.1020 O   0  0  0  0  0  0
  -26.5549  -34.8947   22.4716 O   0  0  0  0  0  0
  -23.5356  -32.1450   23.7515 O   0  0  0  0  0  0
  -30.2247  -18.9100   19.7399 C   0  0  0  0  0  0
  -30.4948  -17.5516   20.0021 C   0  0  0  0  0  0
  -28.8035  -17.5802   21.7351 C   0  0  0  0  0  0
  -29.2413  -19.6344   20.4490 C   0  0  0  0  0  0
  -28.5224  -18.9532   21.4792 C   0  0  0  0  0  0
  -29.7697  -16.8532   20.9928 C   0  0  0  0  0  0
  -28.9834  -21.0530   19.9720 C   0  0  0  0  0  0
  -27.4153  -19.6094   22.2990 C   0  0  0  0  0  0
  -28.3315  -26.0063   17.7245 C   0  0  0  0  0  0
  -28.2998  -24.2604   19.7020 C   0  0  0  0  0  0
  -29.4447  -23.4591   20.4026 C   0  0  0  0  0  0
  -28.7195  -25.6742   19.1875 C   0  0  2  0  0  0
  -29.9153  -15.4435   21.2456 N   0  0  0  0  0  0
  -29.1156  -22.0795   20.8310 N   0  0  0  0  0  0
  -28.8052  -21.2459   18.7670 O   0  0  0  0  0  0
  -31.4802  -12.4751   19.1226 H   0  0  0  0  0  0
  -30.3909  -11.3170   19.8309 H   0  0  0  0  0  0
  -29.7553  -11.7674   17.4507 H   0  0  0  0  0  0
  -29.6644  -13.4790   17.7610 H   0  0  0  0  0  0
  -27.8335  -11.3004   18.8185 H   0  0  0  0  0  0
  -27.3741  -12.6217   17.7840 H   0  0  0  0  0  0
  -27.7069  -14.2502   19.5816 H   0  0  0  0  0  0
  -28.6893  -11.9109   21.2859 H   0  0  0  0  0  0
  -28.4391  -13.5098   21.8999 H   0  0  0  0  0  0
  -25.2681   -9.5676   22.4739 H   0  0  0  0  0  0
  -23.9908   -7.4620   22.7478 H   0  0  0  0  0  0
  -21.0749   -8.8708   19.8982 H   0  0  0  0  0  0
  -22.3566  -10.9607   19.6126 H   0  0  0  0  0  0
  -21.2035   -7.6091   23.9685 H   0  0  0  0  0  0
  -21.1511   -6.0475   25.9072 H   0  0  0  0  0  0
  -22.0615   -2.7533   23.2881 H   0  0  0  0  0  0
  -22.3970  -12.0008   22.4904 H   0  0  0  0  0  0
  -21.1087  -13.1417   22.2601 H   0  0  0  0  0  0
  -24.6617  -15.8365   20.5428 H   0  0  0  0  0  0
  -26.2929  -15.6360   20.1399 H   0  0  0  0  0  0
  -26.7197  -32.5551   23.1245 H   0  0  0  0  0  0
  -25.0290  -33.9831   25.0671 H   0  0  0  0  0  0
  -22.6976  -31.3169   21.4108 H   0  0  0  0  0  0
  -23.3829  -35.9571   23.3236 H   0  0  0  0  0  0
  -24.3667  -36.8953   22.2084 H   0  0  0  0  0  0
  -23.7164  -37.6471   23.6649 H   0  0  0  0  0  0
  -26.0562  -31.6132   20.5983 H   0  0  0  0  0  0
  -26.8287  -30.8961   21.9788 H   0  0  0  0  0  0
  -28.1057  -29.1184   21.1527 H   0  0  0  0  0  0
  -25.9992  -25.9125   19.1730 H   0  0  0  0  0  0
  -23.9667  -27.2682   19.0992 H   0  0  0  0  0  0
  -23.7122  -30.6008   19.4039 H   0  0  0  0  0  0
  -22.7372  -29.2429   19.8813 H   0  0  0  0  0  0
  -25.1286  -36.2087   25.0873 H   0  0  0  0  0  0
  -20.9981  -28.3285   24.1451 H   0  0  0  0  0  0
  -20.5819  -26.2336   23.3586 H   0  0  0  0  0  0
  -21.6731  -26.7591   22.1165 H   0  0  0  0  0  0
  -19.7020  -25.6307   21.1290 H   0  0  0  0  0  0
  -19.6753  -27.3223   20.6759 H   0  0  0  0  0  0
  -17.4269  -26.6613   21.4080 H   0  0  0  0  0  0
  -18.0457  -26.0112   22.9086 H   0  0  0  0  0  0
  -19.7901  -30.7244   24.2393 H   0  0  0  0  0  0
  -17.4950  -31.6252   24.5150 H   0  0  0  0  0  0
  -15.5330  -30.2932   23.7553 H   0  0  0  0  0  0
  -15.8721  -28.0773   22.6990 H   0  0  0  0  0  0
  -24.6039  -30.6806   25.7812 H   0  0  0  0  0  0
  -24.8698  -32.2708   26.4838 H   0  0  0  0  0  0
  -25.8118  -30.8940   27.0277 H   0  0  0  0  0  0
  -26.2842  -29.6752   24.1236 H   0  0  0  0  0  0
  -27.4175  -29.7352   25.4581 H   0  0  0  0  0  0
  -27.8627  -30.4383   23.9194 H   0  0  0  0  0  0
  -27.2866  -33.3717   26.1920 H   0  0  0  0  0  0
  -28.3958  -32.6648   25.0259 H   0  0  0  0  0  0
  -28.0664  -31.8422   26.5447 H   0  0  0  0  0  0
  -28.2615  -38.0134   24.7592 H   0  0  0  0  0  0
  -28.1162  -36.2683   24.6208 H   0  0  0  0  0  0
  -27.2349  -37.1327   25.8870 H   0  0  0  0  0  0
  -20.9305  -29.8859   21.7031 H   0  0  0  0  0  0
  -26.0243  -38.2924   24.1375 H   0  0  0  0  0  0
  -30.7721  -19.4084   18.9519 H   0  0  0  0  0  0
  -31.2438  -17.0655   19.3973 H   0  0  0  0  0  0
  -28.2365  -17.0632   22.4970 H   0  0  0  0  0  0
  -26.6609  -18.8724   22.5814 H   0  0  0  0  0  0
  -26.8950  -20.3979   21.7543 H   0  0  0  0  0  0
  -27.8142  -20.0281   23.2229 H   0  0  0  0  0  0
  -28.8877  -25.3938   17.0171 H   0  0  0  0  0  0
  -28.5533  -27.0491   17.4943 H   0  0  0  0  0  0
  -27.2800  -25.8452   17.5012 H   0  0  0  0  0  0
  -27.4419  -24.3461   20.3716 H   0  0  0  0  0  0
  -27.9511  -23.6828   18.8431 H   0  0  0  0  0  0
  -29.8065  -24.0119   21.2699 H   0  0  0  0  0  0
  -30.3073  -23.3887   19.7314 H   0  0  0  0  0  0
  -29.8099  -25.6677   19.1536 H   0  0  0  0  0  0
  -29.1626  -15.0384   21.7802 H   0  0  0  0  0  0
  -29.2770  -21.8500   21.8036 H   0  0  0  0  0  0
  1 25  1  0  0  0
  1 30  2  0  0  0
  1 83  1  0  0  0
  2  3  1  0  0  0
  2 25  1  0  0  0
  2 86  1  0  0  0
  2 87  1  0  0  0
  3  4  1  0  0  0
  3 88  1  0  0  0
  3 89  1  0  0  0
  4  5  1  0  0  0
  4 90  1  0  0  0
  4 91  1  0  0  0
  5  6  1  0  0  0
  5 26  1  0  0  0
  5 92  1  0  0  0
  6 25  1  0  0  0
  6 93  1  0  0  0
  6 94  1  0  0  0
  7  8  2  0  0  0
  7 26  1  0  0  0
  7 29  1  0  0  0
  8  9  1  0  0  0
  8 22  1  0  0  0
  9 10  1  0  0  0
  9 27  2  0  0  0
 10 11  2  0  0  0
 10 15  1  0  0  0
 11 12  1  0  0  0
 11 95  1  0  0  0
 12 13  2  0  0  0
 12 96  1  0  0  0
 13 14  1  0  0  0
 13 31  1  0  0  0
 14 15  2  0  0  0
 14 97  1  0  0  0
 15 98  1  0  0  0
 16 17  2  0  0  0
 16 21  1  0  0  0
 16 31  1  0  0  0
 17 18  1  0  0  0
 17 99  1  0  0  0
 18 19  2  0  0  0
 18100  1  0  0  0
 19 20  1  0  0  0
 19 24  1  0  0  0
 20 21  2  0  0  0
 20101  1  0  0  0
 21 23  1  0  0  0
 22 28  1  0  0  0
 22 32  2  0  0  0
 26 27  1  0  0  0
 28102  1  0  0  0
 28103  1  0  0  0
 29104  1  0  0  0
 29105  1  0  0  0
 33 34  1  0  0  0
 33 66  1  0  0  0
 33 70  2  0  0  0
 34 36  1  0  0  0
 34 59  1  0  0  0
 34106  1  0  0  0
 35 44  2  0  0  0
 35 45  1  0  0  0
 35 68  1  0  0  0
 36 56  1  0  0  0
 36107  1  0  0  0
 37 39  1  0  0  0
 37 47  1  0  0  0
 37 66  1  0  0  0
 37108  1  0  0  0
 38 43  2  0  0  0
 38 46  1  0  0  0
 38 47  1  0  0  0
 39 64  1  0  0  0
 39 67  2  0  0  0
 40 52  1  0  0  0
 40 53  2  0  0  0
 40 58  1  0  0  0
 41109  1  0  0  0
 41110  1  0  0  0
 41111  1  0  0  0
 41 48  1  0  0  0
 42 43  1  0  0  0
 42 66  1  0  0  0
 42112  1  0  0  0
 42113  1  0  0  0
 43 44  1  0  0  0
 44114  1  0  0  0
 45 46  2  0  0  0
 45115  1  0  0  0
 46116  1  0  0  0
 47117  1  0  0  0
 47118  1  0  0  0
 48 56  1  0  0  0
 48 65  1  0  0  0
 48119  1  0  0  0
 49 50  1  0  0  0
 49 53  1  0  0  0
 49 64  1  0  0  0
 49120  1  0  0  0
 50 51  1  0  0  0
 50121  1  0  0  0
 50122  1  0  0  0
 51 52  1  0  0  0
 51123  1  0  0  0
 51124  1  0  0  0
 52125  1  0  0  0
 52126  1  0  0  0
 53 54  1  0  0  0
 54 55  2  0  0  0
 54127  1  0  0  0
 55 57  1  0  0  0
 55128  1  0  0  0
 56 69  2  0  0  0
 57 58  2  0  0  0
 57129  1  0  0  0
 58130  1  0  0  0
 59 60  1  0  0  0
 59 61  1  0  0  0
 59 62  1  0  0  0
 60131  1  0  0  0
 60132  1  0  0  0
 60133  1  0  0  0
 61134  1  0  0  0
 61135  1  0  0  0
 61136  1  0  0  0
 62137  1  0  0  0
 62138  1  0  0  0
 62139  1  0  0  0
 63 65  1  0  0  0
 63140  1  0  0  0
 63141  1  0  0  0
 63142  1  0  0  0
 64143  1  0  0  0
 65144  1  0  0  0
 68 82  1  0  0  0
 71 72  2  0  0  0
 71 74  1  0  0  0
 71145  1  0  0  0
 72 76  1  0  0  0
 72146  1  0  0  0
 73 75  1  0  0  0
 73 76  2  0  0  0
 73147  1  0  0  0
 74 75  2  0  0  0
 74 77  1  0  0  0
 75 78  1  0  0  0
 76 83  1  0  0  0
 77 84  1  0  0  0
 77 85  2  0  0  0
 78148  1  0  0  0
 78149  1  0  0  0
 78150  1  0  0  0
 79151  1  0  0  0
 79152  1  0  0  0
 79153  1  0  0  0
 79 82  1  0  0  0
 80 81  1  0  0  0
 80 82  1  0  0  0
 80154  1  0  0  0
 80155  1  0  0  0
 81 84  1  0  0  0
 81156  1  0  0  0
 81157  1  0  0  0
 82158  1  0  0  0
 83159  1  0  0  0
 84160  1  0  0  0
M  ISO  4   1 100  68 101  82 101  83 100
M  END
> <chiral flag>
0

> <version>
0

> <s_m_source_file>
/data/baiqing/PycharmProjects/Reinvent-master-3.2/result/LINK_invent/BTK/process_docking_weight1_custom_product_contain_oxygen_bond_distance_aromatic_linkinvent_7_9_3/rearranged_h_0166.sdf

> <i_m_source_file_index>
71

> <r_mmod_Potential_Energy-OPLS-2005>
-20.374828338623

> <r_mmod_Stretch_Energy-OPLS-2005>
45.9570922851562

> <r_mmod_Bend_Energy-OPLS-2005>
130.397842407227

> <r_mmod_Torsional_Energy-OPLS-2005>
240.054580688477

> <r_mmod_Improper_Torsional_Energy-OPLS-2005>
6.49371814727783

> <r_mmod_Van_der_Waal_Energy-OPLS-2005>
157.178817749023

> <r_mmod_Electrostatic_Energy-OPLS-2005>
-393.006805419922

> <r_mmod_Solvation_Energy-OPLS-2005>
-223.604202270508

> <b_mmod_Minimization_Converged-OPLS-2005>
0

> <r_mmod_RMS_Derivative-OPLS-2005>
5.38934087753296

$$$$
72
                    3D
 Structure written by MMmdl.
166174  0  0  1  0            999 V2000
  -30.6665  -14.5420   20.5027 C   0  0  0  0  0  0
  -30.4363  -12.3285   19.4433 C   0  0  0  0  0  0
  -29.5077  -12.4880   18.2208 C   0  0  0  0  0  0
  -28.0292  -12.3363   18.6354 C   0  0  0  0  0  0
  -27.6609  -13.1895   19.8776 C   0  0  2  0  0  0
  -28.7086  -13.0208   21.0013 C   0  0  0  0  0  0
  -25.2639  -13.8078   20.5671 C   0  0  0  0  0  0
  -24.1876  -13.0395   20.9173 C   0  0  0  0  0  0
  -24.6383  -11.6837   20.8719 C   0  0  0  0  0  0
  -23.9025  -10.4274   21.0425 C   0  0  0  0  0  0
  -24.3565   -9.4195   21.9212 C   0  0  0  0  0  0
  -23.6259   -8.2218   22.0783 C   0  0  0  0  0  0
  -22.4256   -8.0259   21.3559 C   0  0  0  0  0  0
  -21.9875   -9.0219   20.4665 C   0  0  0  0  0  0
  -22.7192  -10.2117   20.3090 C   0  0  0  0  0  0
  -21.6838   -6.0700   22.5272 C   0  0  0  0  0  0
  -21.3998   -6.5603   23.8200 C   0  0  0  0  0  0
  -21.3684   -5.6774   24.9176 C   0  0  0  0  0  0
  -21.6047   -4.3029   24.7234 C   0  0  0  0  0  0
  -21.8830   -3.8121   23.4353 C   0  0  0  0  0  0
  -21.9193   -4.6930   22.3401 C   0  0  0  0  0  0
  -22.7919  -13.5241   21.1799 C   0  0  0  0  0  0
  -22.1685   -4.2115   21.0987 F   0  0  0  0  0  0
  -21.5635   -3.4511   25.7750 F   0  0  0  0  0  0
  -30.0336  -13.3345   20.4411 N   0  0  0  0  0  0
  -26.3041  -12.9192   20.3410 N   0  0  0  0  0  0
  -25.9304  -11.6376   20.5768 N   0  0  0  0  0  0
  -22.0498  -12.8329   22.0378 N   0  0  0  0  0  0
  -25.4370  -15.1768   20.3989 N   0  0  0  0  0  0
  -31.8031  -14.7206   20.0615 O   0  0  0  0  0  0
  -21.6630   -6.8848   21.4245 O   0  0  0  0  0  0
  -22.3645  -14.5521   20.6591 O   0  0  0  0  0  0
  -24.6159  -31.8618   23.2078 C   0  0  0  0  0  0
  -25.9048  -32.4776   23.8381 C   0  0  1  0  0  0
  -27.2738  -27.4271   20.0958 C   0  0  0  0  0  0
  -25.5924  -33.8579   24.2343 N   0  0  0  0  0  0
  -23.4094  -30.4792   21.5439 C   0  0  2  0  0  0
  -24.8627  -28.9347   20.1140 C   0  0  0  0  0  0
  -22.7439  -29.4610   22.4982 C   0  0  0  0  0  0
  -18.0274  -28.1374   22.8497 C   0  0  0  0  0  0
  -24.1482  -36.7287   23.2653 C   0  0  0  0  0  0
  -25.9343  -30.8192   21.3639 C   0  0  0  0  0  0
  -26.0133  -29.4509   20.7155 C   0  0  0  0  0  0
  -27.2105  -28.7018   20.7073 C   0  0  0  0  0  0
  -26.1024  -26.9182   19.4885 C   0  0  0  0  0  0
  -24.9029  -27.6674   19.4977 C   0  0  0  0  0  0
  -23.6229  -29.8033   20.1588 C   0  0  0  0  0  0
  -25.4096  -36.3095   24.0371 C   0  0  1  0  0  0
  -20.5863  -28.3650   23.1327 C   0  0  2  0  0  0
  -20.6745  -26.9384   22.5439 C   0  0  0  0  0  0
  -19.5737  -26.6379   21.5215 C   0  0  0  0  0  0
  -18.1911  -26.7930   22.1607 C   0  0  0  0  0  0
  -19.1529  -28.8827   23.2902 C   0  0  0  0  0  0
  -18.9455  -30.1424   23.8916 C   0  0  0  0  0  0
  -17.6459  -30.6573   24.0559 C   0  0  0  0  0  0
  -25.9026  -34.9461   23.5157 C   0  0  0  0  0  0
  -16.5348  -29.9074   23.6322 C   0  0  0  0  0  0
  -16.7259  -28.6489   23.0352 C   0  0  0  0  0  0
  -26.4536  -31.6550   25.0696 C   0  0  0  0  0  0
  -25.3846  -31.3595   26.1468 C   0  0  0  0  0  0
  -27.0390  -30.3016   24.6028 C   0  0  0  0  0  0
  -27.6137  -32.4266   25.7431 C   0  0  0  0  0  0
  -27.5584  -37.1784   24.8469 C   0  0  0  0  0  0
  -21.4164  -29.3003   22.3729 N   0  0  0  0  0  0
  -26.4266  -37.3790   23.9452 N   0  0  0  0  0  0
  -24.6707  -31.0695   22.0977 N   0  0  0  0  0  0
  -23.4197  -28.8175   23.3053 O   0  0  0  0  0  0
  -28.5035  -26.7873   20.1287 O   0  0  0  0  0  0
  -26.5574  -34.8929   22.4708 O   0  0  0  0  0  0
  -23.5359  -32.1363   23.7482 O   0  0  0  0  0  0
  -28.5963  -17.8397   18.2357 C   0  0  0  0  0  0
  -28.9420  -19.1146   18.7150 C   0  0  0  0  0  0
  -28.9798  -16.6863   18.9411 C   0  0  0  0  0  0
  -29.6973  -19.2584   19.8968 C   0  0  0  0  0  0
  -29.6821  -16.7826   20.1657 C   0  0  0  0  0  0
  -30.0520  -18.0804   20.6347 C   0  0  0  0  0  0
  -30.1945  -20.6210   20.2250 C   0  0  0  0  0  0
  -29.5203  -24.6719   22.0075 C   0  0  0  0  0  0
  -29.8171  -23.1265   20.1156 C   0  0  0  0  0  0
  -29.6073  -23.9793   24.4880 C   0  0  0  0  0  0
  -27.4207  -23.8047   20.9144 C   0  0  0  0  0  0
  -29.8198  -23.5559   23.0280 C   0  0  0  0  0  0
  -28.7997  -25.4692   19.6108 C   0  0  0  0  0  0
  -28.8691  -24.2694   20.6462 C   0  0  1  0  0  0
  -29.9179  -15.5833   20.9306 N   0  0  0  0  0  0
  -29.3862  -21.7286   20.1877 N   0  0  0  0  0  0
  -31.5002  -20.7393   20.4963 N   0  3  0  0  0  0
  -29.7988  -25.8392   22.3034 O   0  0  0  0  0  0
  -30.9642  -23.3914   19.7308 O   0  0  0  0  0  0
  -30.7708  -18.1904   21.7790 F   0  0  0  0  0  0
  -31.4838  -12.4298   19.1474 H   0  0  0  0  0  0
  -30.3456  -11.3254   19.8623 H   0  0  0  0  0  0
  -29.7600  -11.7439   17.4637 H   0  0  0  0  0  0
  -29.6704  -13.4618   17.7564 H   0  0  0  0  0  0
  -27.8592  -11.2838   18.8650 H   0  0  0  0  0  0
  -27.3703  -12.5788   17.8006 H   0  0  0  0  0  0
  -27.6784  -14.2239   19.5554 H   0  0  0  0  0  0
  -28.7069  -11.9948   21.3718 H   0  0  0  0  0  0
  -28.4629  -13.6469   21.8599 H   0  0  0  0  0  0
  -25.2694   -9.5653   22.4809 H   0  0  0  0  0  0
  -23.9949   -7.4602   22.7503 H   0  0  0  0  0  0
  -21.0808   -8.8714   19.8959 H   0  0  0  0  0  0
  -22.3632  -10.9649   19.6197 H   0  0  0  0  0  0
  -21.1987   -7.6119   23.9674 H   0  0  0  0  0  0
  -21.1512   -6.0524   25.9075 H   0  0  0  0  0  0
  -22.0601   -2.7568   23.2870 H   0  0  0  0  0  0
  -22.4000  -11.9996   22.4879 H   0  0  0  0  0  0
  -21.1128  -13.1484   22.2483 H   0  0  0  0  0  0
  -24.6443  -15.8092   20.4208 H   0  0  0  0  0  0
  -26.2762  -15.6016   20.0300 H   0  0  0  0  0  0
  -26.7119  -32.5469   23.1143 H   0  0  0  0  0  0
  -25.0180  -33.9749   25.0563 H   0  0  0  0  0  0
  -22.6987  -31.2948   21.3985 H   0  0  0  0  0  0
  -23.3746  -35.9609   23.3311 H   0  0  0  0  0  0
  -24.3589  -36.8872   22.2065 H   0  0  0  0  0  0
  -23.7219  -37.6501   23.6635 H   0  0  0  0  0  0
  -26.0528  -31.5801   20.5905 H   0  0  0  0  0  0
  -26.8212  -30.8735   21.9825 H   0  0  0  0  0  0
  -28.0983  -29.1019   21.1771 H   0  0  0  0  0  0
  -26.1009  -25.9552   19.0006 H   0  0  0  0  0  0
  -24.0203  -27.2666   19.0183 H   0  0  0  0  0  0
  -23.7404  -30.5744   19.3966 H   0  0  0  0  0  0
  -22.7457  -29.2266   19.8582 H   0  0  0  0  0  0
  -25.1264  -36.1971   25.0859 H   0  0  0  0  0  0
  -20.9944  -28.3184   24.1443 H   0  0  0  0  0  0
  -20.5613  -26.2255   23.3620 H   0  0  0  0  0  0
  -21.6625  -26.7392   22.1263 H   0  0  0  0  0  0
  -19.6902  -25.6300   21.1210 H   0  0  0  0  0  0
  -19.6689  -27.3211   20.6770 H   0  0  0  0  0  0
  -17.4207  -26.6715   21.3970 H   0  0  0  0  0  0
  -18.0263  -26.0042   22.8969 H   0  0  0  0  0  0
  -19.7926  -30.7224   24.2304 H   0  0  0  0  0  0
  -17.5017  -31.6257   24.5159 H   0  0  0  0  0  0
  -15.5354  -30.2993   23.7629 H   0  0  0  0  0  0
  -15.8653  -28.0807   22.7081 H   0  0  0  0  0  0
  -24.6094  -30.6841   25.7853 H   0  0  0  0  0  0
  -24.8952  -32.2693   26.4938 H   0  0  0  0  0  0
  -25.8283  -30.8819   27.0206 H   0  0  0  0  0  0
  -26.2903  -29.6713   24.1209 H   0  0  0  0  0  0
  -27.4368  -29.7315   25.4434 H   0  0  0  0  0  0
  -27.8653  -30.4409   23.9046 H   0  0  0  0  0  0
  -27.2812  -33.3594   26.1996 H   0  0  0  0  0  0
  -28.3940  -32.6744   25.0222 H   0  0  0  0  0  0
  -28.0803  -31.8368   26.5329 H   0  0  0  0  0  0
  -28.2593  -38.0102   24.7568 H   0  0  0  0  0  0
  -28.1098  -36.2641   24.6210 H   0  0  0  0  0  0
  -27.2330  -37.1335   25.8880 H   0  0  0  0  0  0
  -20.9350  -29.8699   21.6913 H   0  0  0  0  0  0
  -26.0161  -38.2863   24.1475 H   0  0  0  0  0  0
  -28.0490  -17.7454   17.3089 H   0  0  0  0  0  0
  -28.6680  -19.9780   18.1244 H   0  0  0  0  0  0
  -28.7171  -15.7311   18.5180 H   0  0  0  0  0  0
  -29.8333  -23.1473   25.1568 H   0  0  0  0  0  0
  -28.5720  -24.2790   24.6632 H   0  0  0  0  0  0
  -30.2567  -24.8123   24.7619 H   0  0  0  0  0  0
  -27.3520  -23.0038   21.6499 H   0  0  0  0  0  0
  -26.9316  -23.4750   19.9983 H   0  0  0  0  0  0
  -26.8319  -24.6384   21.3013 H   0  0  0  0  0  0
  -30.8554  -23.2396   22.8898 H   0  0  0  0  0  0
  -29.2057  -22.6820   22.8191 H   0  0  0  0  0  0
  -28.1409  -25.2239   18.7781 H   0  0  0  0  0  0
  -29.7775  -25.5831   19.1401 H   0  0  0  0  0  0
  -29.1289  -15.2980   21.4921 H   0  0  0  0  0  0
  -28.4176  -21.4778   20.3258 H   0  0  0  0  0  0
  -31.9289  -21.6529   20.5343 H   0  0  0  0  0  0
  -32.0865  -19.9194   20.5431 H   0  0  0  0  0  0
  1 25  1  0  0  0
  1 30  2  0  0  0
  1 85  1  0  0  0
  2  3  1  0  0  0
  2 25  1  0  0  0
  2 91  1  0  0  0
  2 92  1  0  0  0
  3  4  1  0  0  0
  3 93  1  0  0  0
  3 94  1  0  0  0
  4  5  1  0  0  0
  4 95  1  0  0  0
  4 96  1  0  0  0
  5  6  1  0  0  0
  5 26  1  0  0  0
  5 97  1  0  0  0
  6 25  1  0  0  0
  6 98  1  0  0  0
  6 99  1  0  0  0
  7  8  2  0  0  0
  7 26  1  0  0  0
  7 29  1  0  0  0
  8  9  1  0  0  0
  8 22  1  0  0  0
  9 10  1  0  0  0
  9 27  2  0  0  0
 10 11  2  0  0  0
 10 15  1  0  0  0
 11 12  1  0  0  0
 11100  1  0  0  0
 12 13  2  0  0  0
 12101  1  0  0  0
 13 14  1  0  0  0
 13 31  1  0  0  0
 14 15  2  0  0  0
 14102  1  0  0  0
 15103  1  0  0  0
 16 17  2  0  0  0
 16 21  1  0  0  0
 16 31  1  0  0  0
 17 18  1  0  0  0
 17104  1  0  0  0
 18 19  2  0  0  0
 18105  1  0  0  0
 19 20  1  0  0  0
 19 24  1  0  0  0
 20 21  2  0  0  0
 20106  1  0  0  0
 21 23  1  0  0  0
 22 28  1  0  0  0
 22 32  2  0  0  0
 26 27  1  0  0  0
 28107  1  0  0  0
 28108  1  0  0  0
 29109  1  0  0  0
 29110  1  0  0  0
 33 34  1  0  0  0
 33 66  1  0  0  0
 33 70  2  0  0  0
 34 36  1  0  0  0
 34 59  1  0  0  0
 34111  1  0  0  0
 35 44  2  0  0  0
 35 45  1  0  0  0
 35 68  1  0  0  0
 36 56  1  0  0  0
 36112  1  0  0  0
 37 39  1  0  0  0
 37 47  1  0  0  0
 37 66  1  0  0  0
 37113  1  0  0  0
 38 43  2  0  0  0
 38 46  1  0  0  0
 38 47  1  0  0  0
 39 64  1  0  0  0
 39 67  2  0  0  0
 40 52  1  0  0  0
 40 53  2  0  0  0
 40 58  1  0  0  0
 41114  1  0  0  0
 41115  1  0  0  0
 41116  1  0  0  0
 41 48  1  0  0  0
 42 43  1  0  0  0
 42 66  1  0  0  0
 42117  1  0  0  0
 42118  1  0  0  0
 43 44  1  0  0  0
 44119  1  0  0  0
 45 46  2  0  0  0
 45120  1  0  0  0
 46121  1  0  0  0
 47122  1  0  0  0
 47123  1  0  0  0
 48 56  1  0  0  0
 48 65  1  0  0  0
 48124  1  0  0  0
 49 50  1  0  0  0
 49 53  1  0  0  0
 49 64  1  0  0  0
 49125  1  0  0  0
 50 51  1  0  0  0
 50126  1  0  0  0
 50127  1  0  0  0
 51 52  1  0  0  0
 51128  1  0  0  0
 51129  1  0  0  0
 52130  1  0  0  0
 52131  1  0  0  0
 53 54  1  0  0  0
 54 55  2  0  0  0
 54132  1  0  0  0
 55 57  1  0  0  0
 55133  1  0  0  0
 56 69  2  0  0  0
 57 58  2  0  0  0
 57134  1  0  0  0
 58135  1  0  0  0
 59 60  1  0  0  0
 59 61  1  0  0  0
 59 62  1  0  0  0
 60136  1  0  0  0
 60137  1  0  0  0
 60138  1  0  0  0
 61139  1  0  0  0
 61140  1  0  0  0
 61141  1  0  0  0
 62142  1  0  0  0
 62143  1  0  0  0
 62144  1  0  0  0
 63 65  1  0  0  0
 63145  1  0  0  0
 63146  1  0  0  0
 63147  1  0  0  0
 64148  1  0  0  0
 65149  1  0  0  0
 68 83  1  0  0  0
 71 72  2  0  0  0
 71 73  1  0  0  0
 71150  1  0  0  0
 72 74  1  0  0  0
 72151  1  0  0  0
 73 75  2  0  0  0
 73152  1  0  0  0
 74 76  2  0  0  0
 74 77  1  0  0  0
 75 76  1  0  0  0
 75 85  1  0  0  0
 76 90  1  0  0  0
 77 86  1  0  0  0
 77 87  2  0  0  0
 78 82  1  0  0  0
 78 88  2  0  0  0
 78 84  1  0  0  0
 79 84  1  0  0  0
 79 86  1  0  0  0
 79 89  2  0  0  0
 80 82  1  0  0  0
 80153  1  0  0  0
 80154  1  0  0  0
 80155  1  0  0  0
 81156  1  0  0  0
 81157  1  0  0  0
 81158  1  0  0  0
 81 84  1  0  0  0
 82159  1  0  0  0
 82160  1  0  0  0
 83 84  1  0  0  0
 83161  1  0  0  0
 83162  1  0  0  0
 85163  1  0  0  0
 86164  1  0  0  0
 87165  1  0  0  0
 87166  1  0  0  0
M  CHG  1  87   1
M  ISO  4   1 100  68 101  83 101  85 100
M  END
> <chiral flag>
0

> <version>
0

> <s_m_source_file>
/data/baiqing/PycharmProjects/Reinvent-master-3.2/result/LINK_invent/BTK/process_docking_weight1_custom_product_contain_oxygen_bond_distance_aromatic_linkinvent_7_9_3/rearranged_h_0166.sdf

> <i_m_source_file_index>
72

> <r_mmod_Potential_Energy-OPLS-2005>
-168.107833862305

> <r_mmod_Stretch_Energy-OPLS-2005>
57.9282531738281

> <r_mmod_Bend_Energy-OPLS-2005>
144.681350708008

> <r_mmod_Torsional_Energy-OPLS-2005>
289.594848632812

> <r_mmod_Improper_Torsional_Energy-OPLS-2005>
8.91859817504883

> <r_mmod_Van_der_Waal_Energy-OPLS-2005>
158.967758178711

> <r_mmod_Electrostatic_Energy-OPLS-2005>
-359.422271728516

> <r_mmod_Solvation_Energy-OPLS-2005>
-490.641632080078

> <b_mmod_Minimization_Converged-OPLS-2005>
0

> <r_mmod_RMS_Derivative-OPLS-2005>
4.13177537918091

$$$$
73
                    3D
 Structure written by MMmdl.
149157  0  0  1  0            999 V2000
  -30.5992  -14.7433   20.4827 C   0  0  0  0  0  0
  -30.4359  -12.4548   19.4729 C   0  0  0  0  0  0
  -29.5114  -12.5082   18.2351 C   0  0  0  0  0  0
  -28.0374  -12.3297   18.6491 C   0  0  0  0  0  0
  -27.6419  -13.2246   19.8547 C   0  0  2  0  0  0
  -28.6870  -13.1446   20.9896 C   0  0  0  0  0  0
  -25.2480  -13.8119   20.5748 C   0  0  0  0  0  0
  -24.1769  -13.0375   20.9225 C   0  0  0  0  0  0
  -24.6371  -11.6864   20.8729 C   0  0  0  0  0  0
  -23.9059  -10.4253   21.0388 C   0  0  0  0  0  0
  -24.3607   -9.4183   21.9179 C   0  0  0  0  0  0
  -23.6282   -8.2225   22.0754 C   0  0  0  0  0  0
  -22.4262   -8.0261   21.3543 C   0  0  0  0  0  0
  -21.9901   -9.0229   20.4644 C   0  0  0  0  0  0
  -22.7226  -10.2105   20.3048 C   0  0  0  0  0  0
  -21.6851   -6.0716   22.5278 C   0  0  0  0  0  0
  -21.4003   -6.5625   23.8207 C   0  0  0  0  0  0
  -21.3665   -5.6782   24.9169 C   0  0  0  0  0  0
  -21.6058   -4.3048   24.7225 C   0  0  0  0  0  0
  -21.8822   -3.8133   23.4346 C   0  0  0  0  0  0
  -21.9193   -4.6948   22.3403 C   0  0  0  0  0  0
  -22.7798  -13.5167   21.1885 C   0  0  0  0  0  0
  -22.1658   -4.2137   21.0977 F   0  0  0  0  0  0
  -21.5647   -3.4530   25.7738 F   0  0  0  0  0  0
  -29.9888  -13.5086   20.4141 N   0  0  0  0  0  0
  -26.2922  -12.9353   20.3292 N   0  0  0  0  0  0
  -25.9297  -11.6492   20.5720 N   0  0  0  0  0  0
  -22.0442  -12.8171   22.0445 N   0  0  0  0  0  0
  -25.4100  -15.1841   20.4254 N   0  0  0  0  0  0
  -31.7774  -14.8676   20.1396 O   0  0  0  0  0  0
  -21.6634   -6.8853   21.4234 O   0  0  0  0  0  0
  -22.3490  -14.5482   20.6738 O   0  0  0  0  0  0
  -24.6364  -31.8527   23.1959 C   0  0  0  0  0  0
  -25.9187  -32.4734   23.8298 C   0  0  1  0  0  0
  -27.2154  -27.2311   20.1391 C   0  0  0  0  0  0
  -25.5966  -33.8534   24.2232 N   0  0  0  0  0  0
  -23.4324  -30.4775   21.5405 C   0  0  2  0  0  0
  -24.8805  -28.9218   20.1119 C   0  0  0  0  0  0
  -22.7504  -29.4617   22.4903 C   0  0  0  0  0  0
  -18.0255  -28.1383   22.8430 C   0  0  0  0  0  0
  -24.1499  -36.7270   23.2637 C   0  0  0  0  0  0
  -25.9826  -30.7569   21.3810 C   0  0  0  0  0  0
  -26.0556  -29.3782   20.7235 C   0  0  0  0  0  0
  -27.2273  -28.5472   20.7230 C   0  0  0  0  0  0
  -26.0151  -26.8570   19.4891 C   0  0  0  0  0  0
  -24.8678  -27.6706   19.4824 C   0  0  0  0  0  0
  -23.6547  -29.8138   20.1562 C   0  0  0  0  0  0
  -25.4125  -36.3051   24.0325 C   0  0  1  0  0  0
  -20.5866  -28.3721   23.1206 C   0  0  2  0  0  0
  -20.6753  -26.9447   22.5320 C   0  0  0  0  0  0
  -19.5714  -26.6388   21.5134 C   0  0  0  0  0  0
  -18.1901  -26.7939   22.1540 C   0  0  0  0  0  0
  -19.1505  -28.8854   23.2822 C   0  0  0  0  0  0
  -18.9417  -30.1436   23.8863 C   0  0  0  0  0  0
  -17.6407  -30.6530   24.0579 C   0  0  0  0  0  0
  -25.9073  -34.9428   23.5081 C   0  0  0  0  0  0
  -16.5303  -29.9023   23.6339 C   0  0  0  0  0  0
  -16.7232  -28.6476   23.0307 C   0  0  0  0  0  0
  -26.4533  -31.6563   25.0699 C   0  0  0  0  0  0
  -25.3728  -31.3739   26.1399 C   0  0  0  0  0  0
  -27.0402  -30.2972   24.6224 C   0  0  0  0  0  0
  -27.6073  -32.4316   25.7485 C   0  0  0  0  0  0
  -27.5584  -37.1799   24.8474 C   0  0  0  0  0  0
  -21.4198  -29.3098   22.3640 N   0  0  0  0  0  0
  -26.4297  -37.3758   23.9414 N   0  0  0  0  0  0
  -24.7029  -31.0468   22.0954 N   0  0  0  0  0  0
  -23.4179  -28.8142   23.3010 O   0  0  0  0  0  0
  -28.2803  -26.2899   20.2168 O   0  0  0  0  0  0
  -26.5637  -34.8921   22.4644 O   0  0  0  0  0  0
  -23.5511  -32.1372   23.7228 O   0  0  0  0  0  0
  -27.2738  -19.7520   19.1329 C   0  0  0  0  0  0
  -26.7437  -18.5661   18.7321 C   0  0  0  0  0  0
  -28.4961  -19.6537   19.9025 C   0  0  0  0  0  0
  -28.8885  -18.2696   20.0461 C   0  0  0  0  0  0
  -28.5224  -22.1058   20.2713 C   0  0  0  0  0  0
  -28.9700  -23.6425   20.4134 C   0  0  0  0  0  0
  -30.0410  -17.3734   20.6548 C   0  0  0  0  0  0
  -27.9209  -24.8191   20.0761 C   0  0  0  0  0  0
  -29.1332  -20.9137   20.3167 N   0  0  0  0  0  0
  -29.8042  -15.8478   20.7476 N   0  0  0  0  0  0
  -30.1232  -23.9404   20.7520 O   0  0  0  0  0  0
  -27.7238  -17.2474   19.2185 S   0  0  0  0  0  0
  -31.4774  -12.5852   19.1738 H   0  0  0  0  0  0
  -30.3807  -11.4729   19.9466 H   0  0  0  0  0  0
  -29.7928  -11.7318   17.5219 H   0  0  0  0  0  0
  -29.6402  -13.4603   17.7178 H   0  0  0  0  0  0
  -27.8992  -11.2799   18.9099 H   0  0  0  0  0  0
  -27.3799  -12.5213   17.8009 H   0  0  0  0  0  0
  -27.6383  -14.2473   19.4802 H   0  0  0  0  0  0
  -28.7227  -12.1397   21.4134 H   0  0  0  0  0  0
  -28.4164  -13.8085   21.8121 H   0  0  0  0  0  0
  -25.2745   -9.5670   22.4747 H   0  0  0  0  0  0
  -23.9999   -7.4613   22.7479 H   0  0  0  0  0  0
  -21.0838   -8.8741   19.8940 H   0  0  0  0  0  0
  -22.3686  -10.9645   19.6160 H   0  0  0  0  0  0
  -21.1976   -7.6127   23.9710 H   0  0  0  0  0  0
  -21.1497   -6.0505   25.9081 H   0  0  0  0  0  0
  -22.0599   -2.7596   23.2846 H   0  0  0  0  0  0
  -22.4068  -11.9829   22.4827 H   0  0  0  0  0  0
  -21.1055  -13.1174   22.2654 H   0  0  0  0  0  0
  -24.6352  -15.8284   20.5322 H   0  0  0  0  0  0
  -26.2510  -15.6318   20.0863 H   0  0  0  0  0  0
  -26.7251  -32.5375   23.1029 H   0  0  0  0  0  0
  -25.0120  -33.9663   25.0382 H   0  0  0  0  0  0
  -22.7305  -31.3003   21.3922 H   0  0  0  0  0  0
  -23.3758  -35.9609   23.3307 H   0  0  0  0  0  0
  -24.3580  -36.8890   22.2050 H   0  0  0  0  0  0
  -23.7275  -37.6481   23.6657 H   0  0  0  0  0  0
  -26.1291  -31.5161   20.6103 H   0  0  0  0  0  0
  -26.8551  -30.7991   22.0206 H   0  0  0  0  0  0
  -28.1233  -28.8912   21.2208 H   0  0  0  0  0  0
  -25.9157  -25.9028   18.9935 H   0  0  0  0  0  0
  -23.9711  -27.3137   18.9941 H   0  0  0  0  0  0
  -23.7920  -30.5920   19.4047 H   0  0  0  0  0  0
  -22.7692  -29.2580   19.8419 H   0  0  0  0  0  0
  -25.1314  -36.1877   25.0821 H   0  0  0  0  0  0
  -20.9941  -28.3276   24.1330 H   0  0  0  0  0  0
  -20.5666  -26.2306   23.3501 H   0  0  0  0  0  0
  -21.6604  -26.7491   22.1098 H   0  0  0  0  0  0
  -19.6847  -25.6291   21.1172 H   0  0  0  0  0  0
  -19.6638  -27.3173   20.6641 H   0  0  0  0  0  0
  -18.0241  -26.0057   22.8911 H   0  0  0  0  0  0
  -17.4186  -26.6745   21.3914 H   0  0  0  0  0  0
  -19.7882  -30.7281   24.2205 H   0  0  0  0  0  0
  -17.4929  -31.6176   24.5224 H   0  0  0  0  0  0
  -15.5301  -30.2920   23.7692 H   0  0  0  0  0  0
  -15.8619  -28.0818   22.6996 H   0  0  0  0  0  0
  -24.5891  -30.7110   25.7709 H   0  0  0  0  0  0
  -24.8930  -32.2926   26.4785 H   0  0  0  0  0  0
  -25.8001  -30.8923   27.0197 H   0  0  0  0  0  0
  -26.3007  -29.6681   24.1251 H   0  0  0  0  0  0
  -27.4082  -29.7280   25.4770 H   0  0  0  0  0  0
  -27.8883  -30.4245   23.9490 H   0  0  0  0  0  0
  -27.2661  -33.3618   26.2037 H   0  0  0  0  0  0
  -28.3886  -32.6871   25.0313 H   0  0  0  0  0  0
  -28.0725  -31.8453   26.5419 H   0  0  0  0  0  0
  -28.2607  -38.0086   24.7492 H   0  0  0  0  0  0
  -28.1073  -36.2616   24.6330 H   0  0  0  0  0  0
  -27.2293  -37.1483   25.8875 H   0  0  0  0  0  0
  -20.9399  -29.8900   21.6900 H   0  0  0  0  0  0
  -26.0164  -38.2837   24.1385 H   0  0  0  0  0  0
  -26.7801  -20.6697   18.8528 H   0  0  0  0  0  0
  -25.8446  -18.3860   18.1538 H   0  0  0  0  0  0
  -27.4441  -22.0935   20.1110 H   0  0  0  0  0  0
  -30.2765  -17.7293   21.6581 H   0  0  0  0  0  0
  -30.9467  -17.5374   20.0693 H   0  0  0  0  0  0
  -27.6231  -24.6477   19.0422 H   0  0  0  0  0  0
  -27.0377  -24.6293   20.6857 H   0  0  0  0  0  0
  -28.8597  -15.6001   20.9949 H   0  0  0  0  0  0
  1 25  1  0  0  0
  1 30  2  0  0  0
  1 80  1  0  0  0
  2  3  1  0  0  0
  2 25  1  0  0  0
  2 83  1  0  0  0
  2 84  1  0  0  0
  3  4  1  0  0  0
  3 85  1  0  0  0
  3 86  1  0  0  0
  4  5  1  0  0  0
  4 87  1  0  0  0
  4 88  1  0  0  0
  5  6  1  0  0  0
  5 26  1  0  0  0
  5 89  1  0  0  0
  6 25  1  0  0  0
  6 90  1  0  0  0
  6 91  1  0  0  0
  7  8  2  0  0  0
  7 26  1  0  0  0
  7 29  1  0  0  0
  8  9  1  0  0  0
  8 22  1  0  0  0
  9 10  1  0  0  0
  9 27  2  0  0  0
 10 11  2  0  0  0
 10 15  1  0  0  0
 11 12  1  0  0  0
 11 92  1  0  0  0
 12 13  2  0  0  0
 12 93  1  0  0  0
 13 14  1  0  0  0
 13 31  1  0  0  0
 14 15  2  0  0  0
 14 94  1  0  0  0
 15 95  1  0  0  0
 16 17  2  0  0  0
 16 21  1  0  0  0
 16 31  1  0  0  0
 17 18  1  0  0  0
 17 96  1  0  0  0
 18 19  2  0  0  0
 18 97  1  0  0  0
 19 20  1  0  0  0
 19 24  1  0  0  0
 20 21  2  0  0  0
 20 98  1  0  0  0
 21 23  1  0  0  0
 22 28  1  0  0  0
 22 32  2  0  0  0
 26 27  1  0  0  0
 28 99  1  0  0  0
 28100  1  0  0  0
 29101  1  0  0  0
 29102  1  0  0  0
 33 34  1  0  0  0
 33 66  1  0  0  0
 33 70  2  0  0  0
 34 36  1  0  0  0
 34 59  1  0  0  0
 34103  1  0  0  0
 35 44  2  0  0  0
 35 45  1  0  0  0
 35 68  1  0  0  0
 36 56  1  0  0  0
 36104  1  0  0  0
 37 39  1  0  0  0
 37 47  1  0  0  0
 37 66  1  0  0  0
 37105  1  0  0  0
 38 43  2  0  0  0
 38 46  1  0  0  0
 38 47  1  0  0  0
 39 64  1  0  0  0
 39 67  2  0  0  0
 40 52  1  0  0  0
 40 53  2  0  0  0
 40 58  1  0  0  0
 41106  1  0  0  0
 41107  1  0  0  0
 41108  1  0  0  0
 41 48  1  0  0  0
 42 43  1  0  0  0
 42 66  1  0  0  0
 42109  1  0  0  0
 42110  1  0  0  0
 43 44  1  0  0  0
 44111  1  0  0  0
 45 46  2  0  0  0
 45112  1  0  0  0
 46113  1  0  0  0
 47114  1  0  0  0
 47115  1  0  0  0
 48 56  1  0  0  0
 48 65  1  0  0  0
 48116  1  0  0  0
 49 50  1  0  0  0
 49 53  1  0  0  0
 49 64  1  0  0  0
 49117  1  0  0  0
 50 51  1  0  0  0
 50118  1  0  0  0
 50119  1  0  0  0
 51 52  1  0  0  0
 51120  1  0  0  0
 51121  1  0  0  0
 52122  1  0  0  0
 52123  1  0  0  0
 53 54  1  0  0  0
 54 55  2  0  0  0
 54124  1  0  0  0
 55 57  1  0  0  0
 55125  1  0  0  0
 56 69  2  0  0  0
 57 58  2  0  0  0
 57126  1  0  0  0
 58127  1  0  0  0
 59 60  1  0  0  0
 59 61  1  0  0  0
 59 62  1  0  0  0
 60128  1  0  0  0
 60129  1  0  0  0
 60130  1  0  0  0
 61131  1  0  0  0
 61132  1  0  0  0
 61133  1  0  0  0
 62134  1  0  0  0
 62135  1  0  0  0
 62136  1  0  0  0
 63 65  1  0  0  0
 63137  1  0  0  0
 63138  1  0  0  0
 63139  1  0  0  0
 64140  1  0  0  0
 65141  1  0  0  0
 68 78  1  0  0  0
 71 72  2  0  0  0
 71 73  1  0  0  0
 71142  1  0  0  0
 72 82  1  0  0  0
 72143  1  0  0  0
 73 74  2  0  0  0
 73 79  1  0  0  0
 74 77  1  0  0  0
 74 82  1  0  0  0
 75 76  1  0  0  0
 75 79  2  0  0  0
 75144  1  0  0  0
 76 78  1  0  0  0
 76 81  2  0  0  0
 77 80  1  0  0  0
 77145  1  0  0  0
 77146  1  0  0  0
 78147  1  0  0  0
 78148  1  0  0  0
 80149  1  0  0  0
M  ISO  4   1 100  68 101  78 101  80 100
M  END
> <chiral flag>
0

> <version>
0

> <s_m_source_file>
/data/baiqing/PycharmProjects/Reinvent-master-3.2/result/LINK_invent/BTK/process_docking_weight1_custom_product_contain_oxygen_bond_distance_aromatic_linkinvent_7_9_3/rearranged_h_0166.sdf

> <i_m_source_file_index>
73

> <r_mmod_Potential_Energy-OPLS-2005>
195.430297851562

> <r_mmod_Stretch_Energy-OPLS-2005>
158.310913085938

> <r_mmod_Bend_Energy-OPLS-2005>
198.199157714844

> <r_mmod_Torsional_Energy-OPLS-2005>
201.703186035156

> <r_mmod_Improper_Torsional_Energy-OPLS-2005>
4.75140047073364

> <r_mmod_Van_der_Waal_Energy-OPLS-2005>
133.352844238281

> <r_mmod_Electrostatic_Energy-OPLS-2005>
-341.671783447266

> <r_mmod_Solvation_Energy-OPLS-2005>
-255.807632446289

> <b_mmod_Minimization_Converged-OPLS-2005>
0

> <r_mmod_RMS_Derivative-OPLS-2005>
2.53768992424011

$$$$
74
                    3D
 Structure written by MMmdl.
153161  0  0  1  0            999 V2000
  -30.6006  -14.7744   20.4276 C   0  0  0  0  0  0
  -30.4284  -12.4661   19.4824 C   0  0  0  0  0  0
  -29.5109  -12.5037   18.2401 C   0  0  0  0  0  0
  -28.0364  -12.3270   18.6506 C   0  0  0  0  0  0
  -27.6367  -13.2352   19.8440 C   0  0  2  0  0  0
  -28.6789  -13.1868   20.9820 C   0  0  0  0  0  0
  -25.2487  -13.8205   20.5687 C   0  0  0  0  0  0
  -24.1786  -13.0448   20.9211 C   0  0  0  0  0  0
  -24.6383  -11.6927   20.8740 C   0  0  0  0  0  0
  -23.9066  -10.4299   21.0407 C   0  0  0  0  0  0
  -24.3620   -9.4211   21.9179 C   0  0  0  0  0  0
  -23.6294   -8.2246   22.0749 C   0  0  0  0  0  0
  -22.4271   -8.0284   21.3548 C   0  0  0  0  0  0
  -21.9909   -9.0256   20.4647 C   0  0  0  0  0  0
  -22.7239  -10.2136   20.3057 C   0  0  0  0  0  0
  -21.6850   -6.0736   22.5279 C   0  0  0  0  0  0
  -21.4013   -6.5638   23.8212 C   0  0  0  0  0  0
  -21.3660   -5.6788   24.9174 C   0  0  0  0  0  0
  -21.6042   -4.3051   24.7221 C   0  0  0  0  0  0
  -21.8823   -3.8148   23.4341 C   0  0  0  0  0  0
  -21.9192   -4.6965   22.3400 C   0  0  0  0  0  0
  -22.7807  -13.5224   21.1868 C   0  0  0  0  0  0
  -22.1662   -4.2155   21.0976 F   0  0  0  0  0  0
  -21.5630   -3.4532   25.7733 F   0  0  0  0  0  0
  -29.9788  -13.5415   20.4007 N   0  0  0  0  0  0
  -26.2902  -12.9416   20.3236 N   0  0  0  0  0  0
  -25.9309  -11.6558   20.5731 N   0  0  0  0  0  0
  -22.0456  -12.8214   22.0427 N   0  0  0  0  0  0
  -25.4178  -15.1931   20.4105 N   0  0  0  0  0  0
  -31.8009  -14.8236   20.1344 O   0  0  0  0  0  0
  -21.6638   -6.8880   21.4242 O   0  0  0  0  0  0
  -22.3494  -14.5528   20.6709 O   0  0  0  0  0  0
  -24.6331  -31.8535   23.1949 C   0  0  0  0  0  0
  -25.9143  -32.4750   23.8309 C   0  0  1  0  0  0
  -27.2204  -27.2416   20.1264 C   0  0  0  0  0  0
  -25.5929  -33.8552   24.2234 N   0  0  0  0  0  0
  -23.4302  -30.4745   21.5390 C   0  0  2  0  0  0
  -24.8762  -28.9153   20.1075 C   0  0  0  0  0  0
  -22.7505  -29.4597   22.4903 C   0  0  0  0  0  0
  -18.0290  -28.1398   22.8480 C   0  0  0  0  0  0
  -24.1485  -36.7268   23.2642 C   0  0  0  0  0  0
  -25.9769  -30.7592   21.3769 C   0  0  0  0  0  0
  -26.0471  -29.3801   20.7177 C   0  0  0  0  0  0
  -27.2177  -28.5543   20.7160 C   0  0  0  0  0  0
  -26.0214  -26.8417   19.4959 C   0  0  0  0  0  0
  -24.8696  -27.6560   19.4874 C   0  0  0  0  0  0
  -23.6477  -29.8050   20.1559 C   0  0  0  0  0  0
  -25.4117  -36.3067   24.0328 C   0  0  1  0  0  0
  -20.5894  -28.3712   23.1260 C   0  0  2  0  0  0
  -20.6774  -26.9428   22.5405 C   0  0  0  0  0  0
  -19.5752  -26.6393   21.5207 C   0  0  0  0  0  0
  -18.1933  -26.7939   22.1621 C   0  0  0  0  0  0
  -19.1544  -28.8871   23.2866 C   0  0  0  0  0  0
  -18.9466  -30.1468   23.8894 C   0  0  0  0  0  0
  -17.6464  -30.6598   24.0561 C   0  0  0  0  0  0
  -25.9060  -34.9441   23.5087 C   0  0  0  0  0  0
  -16.5354  -29.9094   23.6335 C   0  0  0  0  0  0
  -16.7274  -28.6511   23.0356 C   0  0  0  0  0  0
  -26.4501  -31.6592   25.0715 C   0  0  0  0  0  0
  -25.3704  -31.3748   26.1418 C   0  0  0  0  0  0
  -27.0355  -30.3008   24.6228 C   0  0  0  0  0  0
  -27.6053  -32.4340   25.7484 C   0  0  0  0  0  0
  -27.5576  -37.1793   24.8469 C   0  0  0  0  0  0
  -21.4212  -29.3047   22.3640 N   0  0  0  0  0  0
  -26.4290  -37.3767   23.9410 N   0  0  0  0  0  0
  -24.6993  -31.0480   22.0933 N   0  0  0  0  0  0
  -23.4192  -28.8149   23.3020 O   0  0  0  0  0  0
  -28.3312  -26.3665   20.2166 O   0  0  0  0  0  0
  -26.5638  -34.8922   22.4661 O   0  0  0  0  0  0
  -23.5479  -32.1363   23.7240 O   0  0  0  0  0  0
  -29.2669  -18.4856   20.6580 C   0  0  0  0  0  0
  -29.5300  -19.8351   20.1859 C   0  0  0  0  0  0
  -30.0634  -17.3472   20.2183 C   0  0  0  0  0  0
  -31.2423  -18.9072   18.9513 C   0  0  0  0  0  0
  -28.9171  -22.2511   20.0759 C   0  0  0  0  0  0
  -28.3533  -23.6783   20.5469 C   0  0  0  0  0  0
  -31.8267  -18.9758   16.4874 C   0  0  0  0  0  0
  -32.3383  -19.1284   17.9256 C   0  0  0  0  0  0
  -28.4022  -24.9817   19.6039 C   0  0  0  0  0  0
  -30.5410  -19.9789   19.3133 N   0  0  0  0  0  0
  -31.0427  -17.6512   19.3428 N   0  0  0  0  0  0
  -28.8437  -21.0453   20.6326 N   0  0  0  0  0  0
  -29.8329  -15.9276   20.6276 N   0  0  0  0  0  0
  -27.8412  -23.7954   21.6681 O   0  0  0  0  0  0
  -31.4697  -12.5843   19.1775 H   0  0  0  0  0  0
  -30.3743  -11.4949   19.9766 H   0  0  0  0  0  0
  -29.7985  -11.7236   17.5339 H   0  0  0  0  0  0
  -29.6358  -13.4526   17.7153 H   0  0  0  0  0  0
  -27.8943  -11.2796   18.9205 H   0  0  0  0  0  0
  -27.3816  -12.5125   17.7983 H   0  0  0  0  0  0
  -27.6260  -14.2523   19.4520 H   0  0  0  0  0  0
  -28.7171  -12.1934   21.4314 H   0  0  0  0  0  0
  -28.4079  -13.8745   21.7845 H   0  0  0  0  0  0
  -25.2771   -9.5680   22.4743 H   0  0  0  0  0  0
  -24.0004   -7.4634   22.7465 H   0  0  0  0  0  0
  -21.0838   -8.8773   19.8951 H   0  0  0  0  0  0
  -22.3697  -10.9670   19.6163 H   0  0  0  0  0  0
  -21.2006   -7.6146   23.9717 H   0  0  0  0  0  0
  -21.1477   -6.0517   25.9075 H   0  0  0  0  0  0
  -22.0602   -2.7611   23.2836 H   0  0  0  0  0  0
  -22.4078  -11.9883   22.4819 H   0  0  0  0  0  0
  -21.1074  -13.1239   22.2635 H   0  0  0  0  0  0
  -24.6472  -15.8430   20.5213 H   0  0  0  0  0  0
  -26.2523  -15.6315   20.0434 H   0  0  0  0  0  0
  -26.7206  -32.5389   23.1045 H   0  0  0  0  0  0
  -25.0062  -33.9679   25.0371 H   0  0  0  0  0  0
  -22.7278  -31.2975   21.3914 H   0  0  0  0  0  0
  -23.3763  -35.9585   23.3312 H   0  0  0  0  0  0
  -24.3561  -36.8879   22.2051 H   0  0  0  0  0  0
  -23.7226  -37.6466   23.6659 H   0  0  0  0  0  0
  -26.1200  -31.5205   20.6090 H   0  0  0  0  0  0
  -26.8523  -30.8051   22.0133 H   0  0  0  0  0  0
  -28.1147  -28.9045   21.2073 H   0  0  0  0  0  0
  -25.9284  -25.8721   19.0334 H   0  0  0  0  0  0
  -23.9688  -27.2913   19.0130 H   0  0  0  0  0  0
  -23.7698  -30.5788   19.3970 H   0  0  0  0  0  0
  -22.7654  -29.2374   19.8549 H   0  0  0  0  0  0
  -25.1306  -36.1913   25.0823 H   0  0  0  0  0  0
  -20.9985  -28.3294   24.1381 H   0  0  0  0  0  0
  -20.5664  -26.2325   23.3611 H   0  0  0  0  0  0
  -21.6644  -26.7441   22.1207 H   0  0  0  0  0  0
  -19.6909  -25.6301   21.1246 H   0  0  0  0  0  0
  -19.6694  -27.3192   20.6728 H   0  0  0  0  0  0
  -17.4198  -26.6679   21.4029 H   0  0  0  0  0  0
  -18.0341  -26.0090   22.9030 H   0  0  0  0  0  0
  -19.7941  -30.7283   24.2270 H   0  0  0  0  0  0
  -17.5019  -31.6280   24.5159 H   0  0  0  0  0  0
  -15.5355  -30.2993   23.7672 H   0  0  0  0  0  0
  -15.8671  -28.0827   22.7083 H   0  0  0  0  0  0
  -24.5892  -30.7090   25.7727 H   0  0  0  0  0  0
  -24.8880  -32.2919   26.4814 H   0  0  0  0  0  0
  -25.8002  -30.8938   27.0213 H   0  0  0  0  0  0
  -26.2950  -29.6749   24.1234 H   0  0  0  0  0  0
  -27.4002  -29.7286   25.4768 H   0  0  0  0  0  0
  -27.8842  -30.4274   23.9499 H   0  0  0  0  0  0
  -27.2668  -33.3653   26.2038 H   0  0  0  0  0  0
  -28.3872  -32.6885   25.0314 H   0  0  0  0  0  0
  -28.0714  -31.8483   26.5416 H   0  0  0  0  0  0
  -28.2612  -38.0074   24.7514 H   0  0  0  0  0  0
  -28.1061  -36.2612   24.6315 H   0  0  0  0  0  0
  -27.2289  -37.1459   25.8870 H   0  0  0  0  0  0
  -20.9406  -29.8754   21.6827 H   0  0  0  0  0  0
  -26.0174  -38.2844   24.1410 H   0  0  0  0  0  0
  -28.4614  -18.3296   21.3630 H   0  0  0  0  0  0
  -29.4571  -22.3247   19.1288 H   0  0  0  0  0  0
  -32.6331  -19.1236   15.7693 H   0  0  0  0  0  0
  -31.0449  -19.7045   16.2738 H   0  0  0  0  0  0
  -31.4089  -17.9816   16.3265 H   0  0  0  0  0  0
  -33.1494  -18.4224   18.1079 H   0  0  0  0  0  0
  -32.7670  -20.1218   18.0624 H   0  0  0  0  0  0
  -27.6691  -24.8585   18.8096 H   0  0  0  0  0  0
  -29.3640  -24.9373   19.0935 H   0  0  0  0  0  0
  -28.9149  -15.7460   20.9987 H   0  0  0  0  0  0
  1 25  1  0  0  0
  1 30  2  0  0  0
  1 83  1  0  0  0
  2  3  1  0  0  0
  2 25  1  0  0  0
  2 85  1  0  0  0
  2 86  1  0  0  0
  3  4  1  0  0  0
  3 87  1  0  0  0
  3 88  1  0  0  0
  4  5  1  0  0  0
  4 89  1  0  0  0
  4 90  1  0  0  0
  5  6  1  0  0  0
  5 26  1  0  0  0
  5 91  1  0  0  0
  6 25  1  0  0  0
  6 92  1  0  0  0
  6 93  1  0  0  0
  7  8  2  0  0  0
  7 26  1  0  0  0
  7 29  1  0  0  0
  8  9  1  0  0  0
  8 22  1  0  0  0
  9 10  1  0  0  0
  9 27  2  0  0  0
 10 11  2  0  0  0
 10 15  1  0  0  0
 11 12  1  0  0  0
 11 94  1  0  0  0
 12 13  2  0  0  0
 12 95  1  0  0  0
 13 14  1  0  0  0
 13 31  1  0  0  0
 14 15  2  0  0  0
 14 96  1  0  0  0
 15 97  1  0  0  0
 16 17  2  0  0  0
 16 21  1  0  0  0
 16 31  1  0  0  0
 17 18  1  0  0  0
 17 98  1  0  0  0
 18 19  2  0  0  0
 18 99  1  0  0  0
 19 20  1  0  0  0
 19 24  1  0  0  0
 20 21  2  0  0  0
 20100  1  0  0  0
 21 23  1  0  0  0
 22 28  1  0  0  0
 22 32  2  0  0  0
 26 27  1  0  0  0
 28101  1  0  0  0
 28102  1  0  0  0
 29103  1  0  0  0
 29104  1  0  0  0
 33 34  1  0  0  0
 33 66  1  0  0  0
 33 70  2  0  0  0
 34 36  1  0  0  0
 34 59  1  0  0  0
 34105  1  0  0  0
 35 44  2  0  0  0
 35 45  1  0  0  0
 35 68  1  0  0  0
 36 56  1  0  0  0
 36106  1  0  0  0
 37 39  1  0  0  0
 37 47  1  0  0  0
 37 66  1  0  0  0
 37107  1  0  0  0
 38 43  2  0  0  0
 38 46  1  0  0  0
 38 47  1  0  0  0
 39 64  1  0  0  0
 39 67  2  0  0  0
 40 52  1  0  0  0
 40 53  2  0  0  0
 40 58  1  0  0  0
 41108  1  0  0  0
 41109  1  0  0  0
 41110  1  0  0  0
 41 48  1  0  0  0
 42 43  1  0  0  0
 42 66  1  0  0  0
 42111  1  0  0  0
 42112  1  0  0  0
 43 44  1  0  0  0
 44113  1  0  0  0
 45 46  2  0  0  0
 45114  1  0  0  0
 46115  1  0  0  0
 47116  1  0  0  0
 47117  1  0  0  0
 48 56  1  0  0  0
 48 65  1  0  0  0
 48118  1  0  0  0
 49 50  1  0  0  0
 49 53  1  0  0  0
 49 64  1  0  0  0
 49119  1  0  0  0
 50 51  1  0  0  0
 50120  1  0  0  0
 50121  1  0  0  0
 51 52  1  0  0  0
 51122  1  0  0  0
 51123  1  0  0  0
 52124  1  0  0  0
 52125  1  0  0  0
 53 54  1  0  0  0
 54 55  2  0  0  0
 54126  1  0  0  0
 55 57  1  0  0  0
 55127  1  0  0  0
 56 69  2  0  0  0
 57 58  2  0  0  0
 57128  1  0  0  0
 58129  1  0  0  0
 59 60  1  0  0  0
 59 61  1  0  0  0
 59 62  1  0  0  0
 60130  1  0  0  0
 60131  1  0  0  0
 60132  1  0  0  0
 61133  1  0  0  0
 61134  1  0  0  0
 61135  1  0  0  0
 62136  1  0  0  0
 62137  1  0  0  0
 62138  1  0  0  0
 63 65  1  0  0  0
 63139  1  0  0  0
 63140  1  0  0  0
 63141  1  0  0  0
 64142  1  0  0  0
 65143  1  0  0  0
 68 79  1  0  0  0
 71 72  2  0  0  0
 71 73  1  0  0  0
 71144  1  0  0  0
 72 80  1  0  0  0
 72 82  1  0  0  0
 73 81  2  0  0  0
 73 83  1  0  0  0
 74 78  1  0  0  0
 74 80  2  0  0  0
 74 81  1  0  0  0
 75 76  1  0  0  0
 75 82  2  0  0  0
 75145  1  0  0  0
 76 79  1  0  0  0
 76 84  2  0  0  0
 77 78  1  0  0  0
 77146  1  0  0  0
 77147  1  0  0  0
 77148  1  0  0  0
 78149  1  0  0  0
 78150  1  0  0  0
 79151  1  0  0  0
 79152  1  0  0  0
 83153  1  0  0  0
M  ISO  4   1 100  68 101  79 101  83 100
M  END
> <chiral flag>
0

> <version>
0

> <s_m_source_file>
/data/baiqing/PycharmProjects/Reinvent-master-3.2/result/LINK_invent/BTK/process_docking_weight1_custom_product_contain_oxygen_bond_distance_aromatic_linkinvent_7_9_3/rearranged_h_0166.sdf

> <i_m_source_file_index>
74

> <r_mmod_Potential_Energy-OPLS-2005>
-306.389709472656

> <r_mmod_Stretch_Energy-OPLS-2005>
138.043609619141

> <r_mmod_Bend_Energy-OPLS-2005>
179.947937011719

> <r_mmod_Torsional_Energy-OPLS-2005>
192.860595703125

> <r_mmod_Improper_Torsional_Energy-OPLS-2005>
4.16811084747314

> <r_mmod_Van_der_Waal_Energy-OPLS-2005>
149.029006958008

> <r_mmod_Electrostatic_Energy-OPLS-2005>
-795.604370117188

> <r_mmod_Solvation_Energy-OPLS-2005>
-271.348846435547

> <b_mmod_Minimization_Converged-OPLS-2005>
0

> <r_mmod_RMS_Derivative-OPLS-2005>
0.903850495815277

$$$$
75
                    3D
 Structure written by MMmdl.
164172  0  0  1  0            999 V2000
  -30.6152  -14.7014   20.4777 C   0  0  0  0  0  0
  -30.4359  -12.4316   19.4557 C   0  0  0  0  0  0
  -29.5048  -12.4989   18.2255 C   0  0  0  0  0  0
  -28.0292  -12.3336   18.6425 C   0  0  0  0  0  0
  -27.6427  -13.2262   19.8515 C   0  0  2  0  0  0
  -28.6901  -13.1348   20.9819 C   0  0  0  0  0  0
  -25.2507  -13.8186   20.5700 C   0  0  0  0  0  0
  -24.1806  -13.0433   20.9234 C   0  0  0  0  0  0
  -24.6394  -11.6915   20.8781 C   0  0  0  0  0  0
  -23.9073  -10.4287   21.0426 C   0  0  0  0  0  0
  -24.3625   -9.4198   21.9198 C   0  0  0  0  0  0
  -23.6295   -8.2234   22.0754 C   0  0  0  0  0  0
  -22.4278   -8.0280   21.3541 C   0  0  0  0  0  0
  -21.9923   -9.0256   20.4640 C   0  0  0  0  0  0
  -22.7257  -10.2134   20.3052 C   0  0  0  0  0  0
  -21.6852   -6.0740   22.5283 C   0  0  0  0  0  0
  -21.4011   -6.5633   23.8222 C   0  0  0  0  0  0
  -21.3661   -5.6777   24.9179 C   0  0  0  0  0  0
  -21.6048   -4.3040   24.7213 C   0  0  0  0  0  0
  -21.8823   -3.8145   23.4328 C   0  0  0  0  0  0
  -21.9196   -4.6971   22.3398 C   0  0  0  0  0  0
  -22.7824  -13.5217   21.1887 C   0  0  0  0  0  0
  -22.1665   -4.2171   21.0968 F   0  0  0  0  0  0
  -21.5631   -3.4512   25.7713 F   0  0  0  0  0  0
  -29.9915  -13.4814   20.3959 N   0  0  0  0  0  0
  -26.2936  -12.9391   20.3285 N   0  0  0  0  0  0
  -25.9323  -11.6542   20.5775 N   0  0  0  0  0  0
  -22.0453  -12.8208   22.0428 N   0  0  0  0  0  0
  -25.4159  -15.1912   20.4103 N   0  0  0  0  0  0
  -31.8123  -14.8105   20.1971 O   0  0  0  0  0  0
  -21.6630   -6.8887   21.4247 O   0  0  0  0  0  0
  -22.3529  -14.5538   20.6743 O   0  0  0  0  0  0
  -24.6252  -31.8581   23.1978 C   0  0  0  0  0  0
  -25.9101  -32.4774   23.8313 C   0  0  1  0  0  0
  -27.2232  -27.2966   20.1342 C   0  0  0  0  0  0
  -25.5930  -33.8576   24.2264 N   0  0  0  0  0  0
  -23.4205  -30.4791   21.5407 C   0  0  2  0  0  0
  -24.8685  -28.9211   20.1160 C   0  0  0  0  0  0
  -22.7468  -29.4621   22.4929 C   0  0  0  0  0  0
  -18.0289  -28.1388   22.8505 C   0  0  0  0  0  0
  -24.1488  -36.7263   23.2648 C   0  0  0  0  0  0
  -25.9621  -30.7823   21.3700 C   0  0  0  0  0  0
  -26.0378  -29.4051   20.7172 C   0  0  0  0  0  0
  -27.2230  -28.6074   20.7100 C   0  0  0  0  0  0
  -26.0346  -26.8628   19.5144 C   0  0  0  0  0  0
  -24.8688  -27.6555   19.5038 C   0  0  0  0  0  0
  -23.6359  -29.8040   20.1587 C   0  0  0  0  0  0
  -25.4119  -36.3088   24.0350 C   0  0  1  0  0  0
  -20.5887  -28.3687   23.1291 C   0  0  2  0  0  0
  -20.6783  -26.9417   22.5403 C   0  0  0  0  0  0
  -19.5753  -26.6390   21.5214 C   0  0  0  0  0  0
  -18.1933  -26.7937   22.1624 C   0  0  0  0  0  0
  -19.1548  -28.8856   23.2891 C   0  0  0  0  0  0
  -18.9464  -30.1468   23.8891 C   0  0  0  0  0  0
  -17.6469  -30.6594   24.0570 C   0  0  0  0  0  0
  -25.9060  -34.9459   23.5114 C   0  0  0  0  0  0
  -16.5360  -29.9084   23.6355 C   0  0  0  0  0  0
  -16.7280  -28.6495   23.0379 C   0  0  0  0  0  0
  -26.4485  -31.6581   25.0676 C   0  0  0  0  0  0
  -25.3728  -31.3701   26.1402 C   0  0  0  0  0  0
  -27.0355  -30.3025   24.6117 C   0  0  0  0  0  0
  -27.6035  -32.4313   25.7455 C   0  0  0  0  0  0
  -27.5589  -37.1794   24.8479 C   0  0  0  0  0  0
  -21.4181  -29.3043   22.3686 N   0  0  0  0  0  0
  -26.4295  -37.3786   23.9430 N   0  0  0  0  0  0
  -24.6886  -31.0578   22.0927 N   0  0  0  0  0  0
  -23.4199  -28.8189   23.3024 O   0  0  0  0  0  0
  -28.3334  -26.4382   20.1226 O   0  0  0  0  0  0
  -26.5605  -34.8942   22.4663 O   0  0  0  0  0  0
  -23.5414  -32.1381   23.7305 O   0  0  0  0  0  0
  -30.6468  -19.9584   21.6112 C   0  0  0  0  0  0
  -29.3393  -18.3474   20.3461 C   0  0  0  0  0  0
  -31.1796  -17.5594   21.7253 C   0  0  0  0  0  0
  -29.5895  -19.7373   20.6994 C   0  0  0  0  0  0
  -31.4451  -18.9006   22.1048 C   0  0  0  0  0  0
  -30.1176  -17.2343   20.8530 C   0  0  0  0  0  0
  -34.4387  -19.2792   24.4104 C   0  0  0  0  0  0
  -33.6234  -18.6016   23.2860 C   0  0  0  0  0  0
  -28.5246  -23.7926   19.9776 C   0  0  0  0  0  0
  -34.7721  -20.7596   24.2460 C   0  0  0  0  0  0
  -29.0734  -22.4759   20.6972 C   0  0  0  0  0  0
  -28.2089  -25.1178   20.8065 C   0  0  0  0  0  0
  -28.7772  -20.9860   20.1170 C   0  0  2  0  0  0
  -32.4673  -19.2406   23.0354 N   0  0  0  0  0  0
  -29.8013  -15.8141   20.5985 N   0  0  0  0  0  0
  -27.3369  -20.6840   20.1950 N   0  3  0  0  0  0
  -34.8415  -18.6529   25.3978 O   0  0  0  0  0  0
  -34.0251  -17.5826   22.7116 O   0  0  0  0  0  0
  -28.3231  -23.7753   18.7601 O   0  0  0  0  0  0
  -31.4736  -12.5687   19.1463 H   0  0  0  0  0  0
  -30.3874  -11.4492   19.9286 H   0  0  0  0  0  0
  -29.7769  -11.7278   17.5034 H   0  0  0  0  0  0
  -29.6371  -13.4559   17.7175 H   0  0  0  0  0  0
  -27.8769  -11.2845   18.8992 H   0  0  0  0  0  0
  -27.3706  -12.5374   17.7968 H   0  0  0  0  0  0
  -27.6420  -14.2512   19.4813 H   0  0  0  0  0  0
  -28.7156  -12.1295   21.4055 H   0  0  0  0  0  0
  -28.4348  -13.8069   21.8037 H   0  0  0  0  0  0
  -25.2763   -9.5676   22.4785 H   0  0  0  0  0  0
  -24.0015   -7.4612   22.7454 H   0  0  0  0  0  0
  -21.0866   -8.8768   19.8925 H   0  0  0  0  0  0
  -22.3724  -10.9673   19.6154 H   0  0  0  0  0  0
  -21.1995   -7.6139   23.9740 H   0  0  0  0  0  0
  -21.1481   -6.0488   25.9089 H   0  0  0  0  0  0
  -22.0602   -2.7610   23.2801 H   0  0  0  0  0  0
  -22.4030  -11.9830   22.4773 H   0  0  0  0  0  0
  -21.1077  -13.1263   22.2652 H   0  0  0  0  0  0
  -24.6358  -15.8317   20.5073 H   0  0  0  0  0  0
  -26.2473  -15.6342   20.0440 H   0  0  0  0  0  0
  -26.7163  -32.5428   23.1057 H   0  0  0  0  0  0
  -25.0164  -33.9718   25.0471 H   0  0  0  0  0  0
  -22.7151  -31.2996   21.3937 H   0  0  0  0  0  0
  -23.3787  -35.9556   23.3296 H   0  0  0  0  0  0
  -24.3595  -36.8871   22.2065 H   0  0  0  0  0  0
  -23.7184  -37.6449   23.6649 H   0  0  0  0  0  0
  -26.0989  -31.5453   20.6027 H   0  0  0  0  0  0
  -26.8403  -30.8302   22.0016 H   0  0  0  0  0  0
  -28.1233  -28.9832   21.1758 H   0  0  0  0  0  0
  -26.0015  -25.8939   19.0359 H   0  0  0  0  0  0
  -23.9731  -27.2789   19.0289 H   0  0  0  0  0  0
  -23.7521  -30.5741   19.3943 H   0  0  0  0  0  0
  -22.7554  -29.2305   19.8619 H   0  0  0  0  0  0
  -25.1304  -36.1949   25.0846 H   0  0  0  0  0  0
  -20.9998  -28.3243   24.1406 H   0  0  0  0  0  0
  -20.5704  -26.2298   23.3599 H   0  0  0  0  0  0
  -21.6648  -26.7461   22.1194 H   0  0  0  0  0  0
  -19.6897  -25.6292   21.1257 H   0  0  0  0  0  0
  -19.6683  -27.3195   20.6739 H   0  0  0  0  0  0
  -17.4220  -26.6728   21.4005 H   0  0  0  0  0  0
  -18.0306  -26.0063   22.8998 H   0  0  0  0  0  0
  -19.7943  -30.7303   24.2227 H   0  0  0  0  0  0
  -17.5026  -31.6276   24.5168 H   0  0  0  0  0  0
  -15.5359  -30.2990   23.7678 H   0  0  0  0  0  0
  -15.8683  -28.0817   22.7094 H   0  0  0  0  0  0
  -24.5929  -30.7017   25.7734 H   0  0  0  0  0  0
  -24.8881  -32.2855   26.4799 H   0  0  0  0  0  0
  -25.8075  -30.8908   27.0184 H   0  0  0  0  0  0
  -26.2921  -29.6752   24.1181 H   0  0  0  0  0  0
  -27.4141  -29.7301   25.4593 H   0  0  0  0  0  0
  -27.8754  -30.4360   23.9296 H   0  0  0  0  0  0
  -27.2652  -33.3644   26.1977 H   0  0  0  0  0  0
  -28.3879  -32.6806   25.0296 H   0  0  0  0  0  0
  -28.0665  -31.8457   26.5412 H   0  0  0  0  0  0
  -28.2602  -38.0101   24.7582 H   0  0  0  0  0  0
  -28.1097  -36.2641   24.6253 H   0  0  0  0  0  0
  -27.2323  -37.1384   25.8885 H   0  0  0  0  0  0
  -20.9351  -29.8761   21.6896 H   0  0  0  0  0  0
  -26.0182  -38.2867   24.1422 H   0  0  0  0  0  0
  -30.8746  -20.9647   21.9329 H   0  0  0  0  0  0
  -28.5297  -18.1226   19.6668 H   0  0  0  0  0  0
  -31.7672  -16.7578   22.1463 H   0  0  0  0  0  0
  -34.3072  -21.1836   23.3556 H   0  0  0  0  0  0
  -35.8516  -20.8843   24.1581 H   0  0  0  0  0  0
  -34.4266  -21.3150   25.1178 H   0  0  0  0  0  0
  -28.7718  -22.5222   21.7434 H   0  0  0  0  0  0
  -30.1537  -22.6158   20.6999 H   0  0  0  0  0  0
  -28.8778  -25.1322   21.6677 H   0  0  0  0  0  0
  -27.2028  -25.0165   21.2144 H   0  0  0  0  0  0
  -29.0237  -21.0138   19.0541 H   0  0  0  0  0  0
  -32.3418  -20.1013   23.5503 H   0  0  0  0  0  0
  -28.8187  -15.5978   20.5505 H   0  0  0  0  0  0
  -27.0435  -20.5739   21.1490 H   0  0  0  0  0  0
  -27.1360  -19.8309   19.7063 H   0  0  0  0  0  0
  -26.7918  -21.4080   19.7628 H   0  0  0  0  0  0
  1 25  1  0  0  0
  1 30  2  0  0  0
  1 85  1  0  0  0
  2  3  1  0  0  0
  2 25  1  0  0  0
  2 90  1  0  0  0
  2 91  1  0  0  0
  3  4  1  0  0  0
  3 92  1  0  0  0
  3 93  1  0  0  0
  4  5  1  0  0  0
  4 94  1  0  0  0
  4 95  1  0  0  0
  5  6  1  0  0  0
  5 26  1  0  0  0
  5 96  1  0  0  0
  6 25  1  0  0  0
  6 97  1  0  0  0
  6 98  1  0  0  0
  7  8  2  0  0  0
  7 26  1  0  0  0
  7 29  1  0  0  0
  8  9  1  0  0  0
  8 22  1  0  0  0
  9 10  1  0  0  0
  9 27  2  0  0  0
 10 11  2  0  0  0
 10 15  1  0  0  0
 11 12  1  0  0  0
 11 99  1  0  0  0
 12 13  2  0  0  0
 12100  1  0  0  0
 13 14  1  0  0  0
 13 31  1  0  0  0
 14 15  2  0  0  0
 14101  1  0  0  0
 15102  1  0  0  0
 16 17  2  0  0  0
 16 21  1  0  0  0
 16 31  1  0  0  0
 17 18  1  0  0  0
 17103  1  0  0  0
 18 19  2  0  0  0
 18104  1  0  0  0
 19 20  1  0  0  0
 19 24  1  0  0  0
 20 21  2  0  0  0
 20105  1  0  0  0
 21 23  1  0  0  0
 22 28  1  0  0  0
 22 32  2  0  0  0
 26 27  1  0  0  0
 28106  1  0  0  0
 28107  1  0  0  0
 29108  1  0  0  0
 29109  1  0  0  0
 33 34  1  0  0  0
 33 66  1  0  0  0
 33 70  2  0  0  0
 34 36  1  0  0  0
 34 59  1  0  0  0
 34110  1  0  0  0
 35 44  2  0  0  0
 35 45  1  0  0  0
 35 68  1  0  0  0
 36 56  1  0  0  0
 36111  1  0  0  0
 37 39  1  0  0  0
 37 47  1  0  0  0
 37 66  1  0  0  0
 37112  1  0  0  0
 38 43  2  0  0  0
 38 46  1  0  0  0
 38 47  1  0  0  0
 39 64  1  0  0  0
 39 67  2  0  0  0
 40 52  1  0  0  0
 40 53  2  0  0  0
 40 58  1  0  0  0
 41113  1  0  0  0
 41114  1  0  0  0
 41115  1  0  0  0
 41 48  1  0  0  0
 42 43  1  0  0  0
 42 66  1  0  0  0
 42116  1  0  0  0
 42117  1  0  0  0
 43 44  1  0  0  0
 44118  1  0  0  0
 45 46  2  0  0  0
 45119  1  0  0  0
 46120  1  0  0  0
 47121  1  0  0  0
 47122  1  0  0  0
 48 56  1  0  0  0
 48 65  1  0  0  0
 48123  1  0  0  0
 49 50  1  0  0  0
 49 53  1  0  0  0
 49 64  1  0  0  0
 49124  1  0  0  0
 50 51  1  0  0  0
 50125  1  0  0  0
 50126  1  0  0  0
 51 52  1  0  0  0
 51127  1  0  0  0
 51128  1  0  0  0
 52129  1  0  0  0
 52130  1  0  0  0
 53 54  1  0  0  0
 54 55  2  0  0  0
 54131  1  0  0  0
 55 57  1  0  0  0
 55132  1  0  0  0
 56 69  2  0  0  0
 57 58  2  0  0  0
 57133  1  0  0  0
 58134  1  0  0  0
 59 60  1  0  0  0
 59 61  1  0  0  0
 59 62  1  0  0  0
 60135  1  0  0  0
 60136  1  0  0  0
 60137  1  0  0  0
 61138  1  0  0  0
 61139  1  0  0  0
 61140  1  0  0  0
 62141  1  0  0  0
 62142  1  0  0  0
 62143  1  0  0  0
 63 65  1  0  0  0
 63144  1  0  0  0
 63145  1  0  0  0
 63146  1  0  0  0
 64147  1  0  0  0
 65148  1  0  0  0
 68 82  1  0  0  0
 71 74  2  0  0  0
 71 75  1  0  0  0
 71149  1  0  0  0
 72 74  1  0  0  0
 72 76  2  0  0  0
 72150  1  0  0  0
 73 75  2  0  0  0
 73 76  1  0  0  0
 73151  1  0  0  0
 74 83  1  0  0  0
 75 84  1  0  0  0
 76 85  1  0  0  0
 77 78  1  0  0  0
 77 80  1  0  0  0
 77 87  2  0  0  0
 78 84  1  0  0  0
 78 88  2  0  0  0
 79 81  1  0  0  0
 79 82  1  0  0  0
 79 89  2  0  0  0
 80152  1  0  0  0
 80153  1  0  0  0
 80154  1  0  0  0
 81 83  1  0  0  0
 81155  1  0  0  0
 81156  1  0  0  0
 82157  1  0  0  0
 82158  1  0  0  0
 83 86  1  0  0  0
 83159  1  0  0  0
 84160  1  0  0  0
 85161  1  0  0  0
 86162  1  0  0  0
 86163  1  0  0  0
 86164  1  0  0  0
M  CHG  1  86   1
M  ISO  4   1 100  68 101  82 101  85 100
M  END
> <chiral flag>
0

> <version>
0

> <s_m_source_file>
/data/baiqing/PycharmProjects/Reinvent-master-3.2/result/LINK_invent/BTK/process_docking_weight1_custom_product_contain_oxygen_bond_distance_aromatic_linkinvent_7_9_3/rearranged_h_0166.sdf

> <i_m_source_file_index>
75

> <r_mmod_Potential_Energy-OPLS-2005>
-199.305435180664

> <r_mmod_Stretch_Energy-OPLS-2005>
110.634773254395

> <r_mmod_Bend_Energy-OPLS-2005>
150.315811157227

> <r_mmod_Torsional_Energy-OPLS-2005>
255.658401489258

> <r_mmod_Improper_Torsional_Energy-OPLS-2005>
7.30762147903442

> <r_mmod_Van_der_Waal_Energy-OPLS-2005>
134.549682617188

> <r_mmod_Electrostatic_Energy-OPLS-2005>
-298.319915771484

> <r_mmod_Solvation_Energy-OPLS-2005>
-625.324462890625

> <b_mmod_Minimization_Converged-OPLS-2005>
0

> <r_mmod_RMS_Derivative-OPLS-2005>
2.13772559165955

$$$$
76
                    3D
 Structure written by MMmdl.
156164  0  0  1  0            999 V2000
  -30.7165  -14.4185   20.6591 C   0  0  0  0  0  0
  -30.4354  -12.3050   19.4072 C   0  0  0  0  0  0
  -29.4983  -12.5322   18.2034 C   0  0  0  0  0  0
  -28.0197  -12.3858   18.6134 C   0  0  0  0  0  0
  -27.6730  -13.2005   19.8862 C   0  0  2  0  0  0
  -28.7103  -12.9309   20.9994 C   0  0  0  0  0  0
  -25.2633  -13.8149   20.5681 C   0  0  0  0  0  0
  -24.1863  -13.0443   20.9167 C   0  0  0  0  0  0
  -24.6402  -11.6907   20.8723 C   0  0  0  0  0  0
  -23.9054  -10.4300   21.0394 C   0  0  0  0  0  0
  -24.3608   -9.4216   21.9177 C   0  0  0  0  0  0
  -23.6281   -8.2254   22.0759 C   0  0  0  0  0  0
  -22.4268   -8.0287   21.3550 C   0  0  0  0  0  0
  -21.9895   -9.0259   20.4658 C   0  0  0  0  0  0
  -22.7221  -10.2136   20.3053 C   0  0  0  0  0  0
  -21.6853   -6.0733   22.5282 C   0  0  0  0  0  0
  -21.4017   -6.5635   23.8214 C   0  0  0  0  0  0
  -21.3662   -5.6788   24.9177 C   0  0  0  0  0  0
  -21.6040   -4.3049   24.7227 C   0  0  0  0  0  0
  -21.8816   -3.8140   23.4348 C   0  0  0  0  0  0
  -21.9191   -4.6959   22.3402 C   0  0  0  0  0  0
  -22.7877  -13.5255   21.1815 C   0  0  0  0  0  0
  -22.1659   -4.2144   21.0976 F   0  0  0  0  0  0
  -21.5631   -3.4529   25.7738 F   0  0  0  0  0  0
  -30.0565  -13.2441   20.4740 N   0  0  0  0  0  0
  -26.3081  -12.9310   20.3394 N   0  0  0  0  0  0
  -25.9331  -11.6477   20.5760 N   0  0  0  0  0  0
  -22.0498  -12.8281   22.0384 N   0  0  0  0  0  0
  -25.4357  -15.1868   20.4117 N   0  0  0  0  0  0
  -31.7394  -14.7332   20.0447 O   0  0  0  0  0  0
  -21.6636   -6.8878   21.4248 O   0  0  0  0  0  0
  -22.3567  -14.5553   20.6646 O   0  0  0  0  0  0
  -24.6140  -31.8680   23.2088 C   0  0  0  0  0  0
  -25.9042  -32.4823   23.8377 C   0  0  1  0  0  0
  -27.2328  -27.4391   20.1042 C   0  0  0  0  0  0
  -25.5887  -33.8616   24.2304 N   0  0  0  0  0  0
  -23.4019  -30.4906   21.5498 C   0  0  2  0  0  0
  -24.8510  -28.9576   20.1141 C   0  0  0  0  0  0
  -22.7405  -29.4656   22.4990 C   0  0  0  0  0  0
  -18.0269  -28.1380   22.8502 C   0  0  0  0  0  0
  -24.1495  -36.7321   23.2634 C   0  0  0  0  0  0
  -25.9304  -30.8356   21.3628 C   0  0  0  0  0  0
  -26.0103  -29.4710   20.7105 C   0  0  0  0  0  0
  -27.2076  -28.7195   20.7013 C   0  0  0  0  0  0
  -26.0622  -26.9406   19.4957 C   0  0  0  0  0  0
  -24.8722  -27.6918   19.5008 C   0  0  0  0  0  0
  -23.6108  -29.8211   20.1652 C   0  0  0  0  0  0
  -25.4116  -36.3109   24.0327 C   0  0  1  0  0  0
  -20.5856  -28.3655   23.1325 C   0  0  2  0  0  0
  -20.6751  -26.9390   22.5421 C   0  0  0  0  0  0
  -19.5729  -26.6385   21.5214 C   0  0  0  0  0  0
  -18.1913  -26.7923   22.1632 C   0  0  0  0  0  0
  -19.1519  -28.8833   23.2917 C   0  0  0  0  0  0
  -18.9449  -30.1440   23.8926 C   0  0  0  0  0  0
  -17.6453  -30.6586   24.0569 C   0  0  0  0  0  0
  -25.9040  -34.9472   23.5117 C   0  0  0  0  0  0
  -16.5346  -29.9089   23.6329 C   0  0  0  0  0  0
  -16.7261  -28.6506   23.0355 C   0  0  0  0  0  0
  -26.4478  -31.6600   25.0705 C   0  0  0  0  0  0
  -25.3745  -31.3740   26.1462 C   0  0  0  0  0  0
  -27.0287  -30.3031   24.6087 C   0  0  0  0  0  0
  -27.6083  -32.4295   25.7445 C   0  0  0  0  0  0
  -27.5592  -37.1799   24.8448 C   0  0  0  0  0  0
  -21.4132  -29.3020   22.3731 N   0  0  0  0  0  0
  -26.4307  -37.3786   23.9395 N   0  0  0  0  0  0
  -24.6670  -31.0789   22.0988 N   0  0  0  0  0  0
  -23.4186  -28.8210   23.3031 O   0  0  0  0  0  0
  -28.3719  -26.6646   20.1159 O   0  0  0  0  0  0
  -26.5607  -34.8916   22.4686 O   0  0  0  0  0  0
  -23.5330  -32.1430   23.7479 O   0  0  0  0  0  0
  -28.7422  -17.0448   22.2423 C   0  0  0  0  0  0
  -30.4691  -17.5125   20.6168 C   0  0  0  0  0  0
  -29.8324  -16.5829   21.4786 C   0  0  0  0  0  0
  -28.2982  -18.3676   22.0812 C   0  0  0  0  0  0
  -28.9722  -19.2034   21.1723 C   0  0  0  0  0  0
  -28.6264  -22.9294   21.0746 C   0  0  0  0  0  0
  -29.0006  -25.9329   22.3067 C   0  0  0  0  0  0
  -28.9111  -24.2561   20.3378 C   0  0  0  0  0  0
  -29.2408  -21.6253   20.5324 C   0  0  0  0  0  0
  -28.2991  -25.5264   20.9976 C   0  0  2  0  0  0
  -30.0504  -18.7977   20.4643 N   0  0  0  0  0  0
  -30.1839  -15.2053   21.6068 N   0  0  0  0  0  0
  -28.4406  -20.4786   20.9608 N   0  0  0  0  0  0
  -27.8913  -22.8853   22.0687 O   0  0  0  0  0  0
  -27.2209  -18.8238   22.7671 F   0  0  0  0  0  0
  -31.4773  -12.4222   19.1056 H   0  0  0  0  0  0
  -30.3480  -11.2811   19.7736 H   0  0  0  0  0  0
  -29.7348  -11.8304   17.4027 H   0  0  0  0  0  0
  -29.6660  -13.5284   17.7925 H   0  0  0  0  0  0
  -27.8255  -11.3271   18.7874 H   0  0  0  0  0  0
  -27.3694  -12.6815   17.7885 H   0  0  0  0  0  0
  -27.7331  -14.2575   19.6238 H   0  0  0  0  0  0
  -28.6777  -11.8810   21.2965 H   0  0  0  0  0  0
  -28.4471  -13.4837   21.9011 H   0  0  0  0  0  0
  -25.2762   -9.5689   22.4739 H   0  0  0  0  0  0
  -23.9995   -7.4645   22.7478 H   0  0  0  0  0  0
  -21.0822   -8.8778   19.8961 H   0  0  0  0  0  0
  -22.3686  -10.9674   19.6156 H   0  0  0  0  0  0
  -21.2014   -7.6143   23.9721 H   0  0  0  0  0  0
  -21.1487   -6.0515   25.9081 H   0  0  0  0  0  0
  -22.0591   -2.7603   23.2845 H   0  0  0  0  0  0
  -22.4102  -11.9962   22.4817 H   0  0  0  0  0  0
  -21.1121  -13.1333   22.2566 H   0  0  0  0  0  0
  -24.6682  -15.8411   20.5204 H   0  0  0  0  0  0
  -26.2878  -15.6267   20.0887 H   0  0  0  0  0  0
  -26.7111  -32.5539   23.1144 H   0  0  0  0  0  0
  -24.9986  -33.9769   25.0413 H   0  0  0  0  0  0
  -22.6906  -31.3069   21.4105 H   0  0  0  0  0  0
  -23.3740  -35.9670   23.3292 H   0  0  0  0  0  0
  -24.3585  -36.8943   22.2049 H   0  0  0  0  0  0
  -23.7260  -37.6530   23.6658 H   0  0  0  0  0  0
  -26.0421  -31.5996   20.5926 H   0  0  0  0  0  0
  -26.8201  -30.8892   21.9784 H   0  0  0  0  0  0
  -28.1025  -29.1064   21.1675 H   0  0  0  0  0  0
  -26.0716  -25.9670   19.0243 H   0  0  0  0  0  0
  -23.9823  -27.2919   19.0341 H   0  0  0  0  0  0
  -23.7137  -30.5936   19.4033 H   0  0  0  0  0  0
  -22.7366  -29.2361   19.8747 H   0  0  0  0  0  0
  -25.1295  -36.1966   25.0818 H   0  0  0  0  0  0
  -20.9967  -28.3209   24.1436 H   0  0  0  0  0  0
  -20.5640  -26.2254   23.3602 H   0  0  0  0  0  0
  -21.6628  -26.7420   22.1224 H   0  0  0  0  0  0
  -19.6889  -25.6301   21.1226 H   0  0  0  0  0  0
  -19.6673  -27.3210   20.6758 H   0  0  0  0  0  0
  -17.4181  -26.6667   21.4037 H   0  0  0  0  0  0
  -18.0328  -26.0063   22.9028 H   0  0  0  0  0  0
  -19.7930  -30.7245   24.2309 H   0  0  0  0  0  0
  -17.5014  -31.6268   24.5162 H   0  0  0  0  0  0
  -15.5350  -30.3006   23.7631 H   0  0  0  0  0  0
  -15.8658  -28.0831   22.7064 H   0  0  0  0  0  0
  -24.5838  -30.7180   25.7789 H   0  0  0  0  0  0
  -24.9036  -32.2934   26.4973 H   0  0  0  0  0  0
  -25.8065  -30.8815   27.0182 H   0  0  0  0  0  0
  -26.2838  -29.6827   24.1088 H   0  0  0  0  0  0
  -27.4001  -29.7235   25.4556 H   0  0  0  0  0  0
  -27.8705  -30.4348   23.9282 H   0  0  0  0  0  0
  -27.2756  -33.3630   26.1994 H   0  0  0  0  0  0
  -28.3908  -32.6800   25.0264 H   0  0  0  0  0  0
  -28.0717  -31.8422   26.5382 H   0  0  0  0  0  0
  -28.2610  -38.0094   24.7510 H   0  0  0  0  0  0
  -28.1088  -36.2634   24.6262 H   0  0  0  0  0  0
  -27.2304  -37.1437   25.8844 H   0  0  0  0  0  0
  -20.9283  -29.8748   21.6968 H   0  0  0  0  0  0
  -26.0192  -38.2867   24.1367 H   0  0  0  0  0  0
  -28.2204  -16.3864   22.9216 H   0  0  0  0  0  0
  -31.3206  -17.2337   20.0142 H   0  0  0  0  0  0
  -28.5598  -26.8389   22.7228 H   0  0  0  0  0  0
  -30.0600  -26.1267   22.1407 H   0  0  0  0  0  0
  -28.9178  -25.1594   23.0702 H   0  0  0  0  0  0
  -28.5016  -24.1463   19.3350 H   0  0  0  0  0  0
  -29.9883  -24.3689   20.2175 H   0  0  0  0  0  0
  -30.2646  -21.5307   20.8949 H   0  0  0  0  0  0
  -29.2766  -21.6639   19.4430 H   0  0  0  0  0  0
  -27.2566  -25.3046   21.2390 H   0  0  0  0  0  0
  -29.5816  -14.6842   22.2271 H   0  0  0  0  0  0
  -27.6948  -20.7287   21.6055 H   0  0  0  0  0  0
  1 25  1  0  0  0
  1 30  2  0  0  0
  1 82  1  0  0  0
  2  3  1  0  0  0
  2 25  1  0  0  0
  2 86  1  0  0  0
  2 87  1  0  0  0
  3  4  1  0  0  0
  3 88  1  0  0  0
  3 89  1  0  0  0
  4  5  1  0  0  0
  4 90  1  0  0  0
  4 91  1  0  0  0
  5  6  1  0  0  0
  5 26  1  0  0  0
  5 92  1  0  0  0
  6 25  1  0  0  0
  6 93  1  0  0  0
  6 94  1  0  0  0
  7  8  2  0  0  0
  7 26  1  0  0  0
  7 29  1  0  0  0
  8  9  1  0  0  0
  8 22  1  0  0  0
  9 10  1  0  0  0
  9 27  2  0  0  0
 10 11  2  0  0  0
 10 15  1  0  0  0
 11 12  1  0  0  0
 11 95  1  0  0  0
 12 13  2  0  0  0
 12 96  1  0  0  0
 13 14  1  0  0  0
 13 31  1  0  0  0
 14 15  2  0  0  0
 14 97  1  0  0  0
 15 98  1  0  0  0
 16 17  2  0  0  0
 16 21  1  0  0  0
 16 31  1  0  0  0
 17 18  1  0  0  0
 17 99  1  0  0  0
 18 19  2  0  0  0
 18100  1  0  0  0
 19 20  1  0  0  0
 19 24  1  0  0  0
 20 21  2  0  0  0
 20101  1  0  0  0
 21 23  1  0  0  0
 22 28  1  0  0  0
 22 32  2  0  0  0
 26 27  1  0  0  0
 28102  1  0  0  0
 28103  1  0  0  0
 29104  1  0  0  0
 29105  1  0  0  0
 33 34  1  0  0  0
 33 66  1  0  0  0
 33 70  2  0  0  0
 34 36  1  0  0  0
 34 59  1  0  0  0
 34106  1  0  0  0
 35 44  2  0  0  0
 35 45  1  0  0  0
 35 68  1  0  0  0
 36 56  1  0  0  0
 36107  1  0  0  0
 37 39  1  0  0  0
 37 47  1  0  0  0
 37 66  1  0  0  0
 37108  1  0  0  0
 38 43  2  0  0  0
 38 46  1  0  0  0
 38 47  1  0  0  0
 39 64  1  0  0  0
 39 67  2  0  0  0
 40 52  1  0  0  0
 40 53  2  0  0  0
 40 58  1  0  0  0
 41109  1  0  0  0
 41110  1  0  0  0
 41111  1  0  0  0
 41 48  1  0  0  0
 42 43  1  0  0  0
 42 66  1  0  0  0
 42112  1  0  0  0
 42113  1  0  0  0
 43 44  1  0  0  0
 44114  1  0  0  0
 45 46  2  0  0  0
 45115  1  0  0  0
 46116  1  0  0  0
 47117  1  0  0  0
 47118  1  0  0  0
 48 56  1  0  0  0
 48 65  1  0  0  0
 48119  1  0  0  0
 49 50  1  0  0  0
 49 53  1  0  0  0
 49 64  1  0  0  0
 49120  1  0  0  0
 50 51  1  0  0  0
 50121  1  0  0  0
 50122  1  0  0  0
 51 52  1  0  0  0
 51123  1  0  0  0
 51124  1  0  0  0
 52125  1  0  0  0
 52126  1  0  0  0
 53 54  1  0  0  0
 54 55  2  0  0  0
 54127  1  0  0  0
 55 57  1  0  0  0
 55128  1  0  0  0
 56 69  2  0  0  0
 57 58  2  0  0  0
 57129  1  0  0  0
 58130  1  0  0  0
 59 60  1  0  0  0
 59 61  1  0  0  0
 59 62  1  0  0  0
 60131  1  0  0  0
 60132  1  0  0  0
 60133  1  0  0  0
 61134  1  0  0  0
 61135  1  0  0  0
 61136  1  0  0  0
 62137  1  0  0  0
 62138  1  0  0  0
 62139  1  0  0  0
 63 65  1  0  0  0
 63140  1  0  0  0
 63141  1  0  0  0
 63142  1  0  0  0
 64143  1  0  0  0
 65144  1  0  0  0
 68 80  1  0  0  0
 71 73  2  0  0  0
 71 74  1  0  0  0
 71145  1  0  0  0
 72 73  1  0  0  0
 72 81  2  0  0  0
 72146  1  0  0  0
 73 82  1  0  0  0
 74 75  2  0  0  0
 74 85  1  0  0  0
 75 81  1  0  0  0
 75 83  1  0  0  0
 76 78  1  0  0  0
 76 79  1  0  0  0
 76 84  2  0  0  0
 77147  1  0  0  0
 77148  1  0  0  0
 77149  1  0  0  0
 77 80  1  0  0  0
 78 80  1  0  0  0
 78150  1  0  0  0
 78151  1  0  0  0
 79 83  1  0  0  0
 79152  1  0  0  0
 79153  1  0  0  0
 80154  1  0  0  0
 82155  1  0  0  0
 83156  1  0  0  0
M  ISO  4   1 100  68 101  80 101  82 100
M  END
> <chiral flag>
0

> <version>
0

> <s_m_source_file>
/data/baiqing/PycharmProjects/Reinvent-master-3.2/result/LINK_invent/BTK/process_docking_weight1_custom_product_contain_oxygen_bond_distance_aromatic_linkinvent_7_9_3/rearranged_h_0166.sdf

> <i_m_source_file_index>
76

> <r_mmod_Potential_Energy-OPLS-2005>
-288.263977050781

> <r_mmod_Stretch_Energy-OPLS-2005>
36.8408432006836

> <r_mmod_Bend_Energy-OPLS-2005>
104.86946105957

> <r_mmod_Torsional_Energy-OPLS-2005>
231.86393737793

> <r_mmod_Improper_Torsional_Energy-OPLS-2005>
7.6743335723877

> <r_mmod_Van_der_Waal_Energy-OPLS-2005>
154.509368896484

> <r_mmod_Electrostatic_Energy-OPLS-2005>
-604.561706542969

> <r_mmod_Solvation_Energy-OPLS-2005>
-229.754959106445

> <b_mmod_Minimization_Converged-OPLS-2005>
0

> <r_mmod_RMS_Derivative-OPLS-2005>
1.87271809577942

$$$$
77
                    3D
 Structure written by MMmdl.
160168  0  0  1  0            999 V2000
  -30.7589  -14.4621   20.5681 C   0  0  0  0  0  0
  -30.4068  -12.2985   19.4429 C   0  0  0  0  0  0
  -29.4969  -12.4984   18.2151 C   0  0  0  0  0  0
  -28.0182  -12.3620   18.6244 C   0  0  0  0  0  0
  -27.6602  -13.2198   19.8697 C   0  0  2  0  0  0
  -28.7008  -13.0459   21.0012 C   0  0  0  0  0  0
  -25.2555  -13.8165   20.5657 C   0  0  0  0  0  0
  -24.1821  -13.0426   20.9150 C   0  0  0  0  0  0
  -24.6406  -11.6899   20.8707 C   0  0  0  0  0  0
  -23.9086  -10.4279   21.0388 C   0  0  0  0  0  0
  -24.3631   -9.4193   21.9170 C   0  0  0  0  0  0
  -23.6288   -8.2238   22.0757 C   0  0  0  0  0  0
  -22.4266   -8.0284   21.3550 C   0  0  0  0  0  0
  -21.9905   -9.0263   20.4664 C   0  0  0  0  0  0
  -22.7253  -10.2130   20.3047 C   0  0  0  0  0  0
  -21.6855   -6.0725   22.5269 C   0  0  0  0  0  0
  -21.4039   -6.5633   23.8207 C   0  0  0  0  0  0
  -21.3657   -5.6783   24.9168 C   0  0  0  0  0  0
  -21.6033   -4.3043   24.7220 C   0  0  0  0  0  0
  -21.8821   -3.8139   23.4344 C   0  0  0  0  0  0
  -21.9193   -4.6952   22.3395 C   0  0  0  0  0  0
  -22.7841  -13.5218   21.1800 C   0  0  0  0  0  0
  -22.1655   -4.2134   21.0968 F   0  0  0  0  0  0
  -21.5615   -3.4535   25.7730 F   0  0  0  0  0  0
  -30.0365  -13.3142   20.4441 N   0  0  0  0  0  0
  -26.3030  -12.9384   20.3354 N   0  0  0  0  0  0
  -25.9343  -11.6531   20.5755 N   0  0  0  0  0  0
  -22.0493  -12.8250   22.0392 N   0  0  0  0  0  0
  -25.4211  -15.1871   20.4025 N   0  0  0  0  0  0
  -31.8719  -14.5826   20.0537 O   0  0  0  0  0  0
  -21.6633   -6.8878   21.4230 O   0  0  0  0  0  0
  -22.3523  -14.5511   20.6626 O   0  0  0  0  0  0
  -24.6137  -31.8706   23.2112 C   0  0  0  0  0  0
  -25.9026  -32.4842   23.8404 C   0  0  1  0  0  0
  -27.2243  -27.4459   20.0938 C   0  0  0  0  0  0
  -25.5885  -33.8635   24.2330 N   0  0  0  0  0  0
  -23.4017  -30.4961   21.5525 C   0  0  2  0  0  0
  -24.8472  -28.9687   20.1110 C   0  0  0  0  0  0
  -22.7412  -29.4678   22.4988 C   0  0  0  0  0  0
  -18.0283  -28.1381   22.8502 C   0  0  0  0  0  0
  -24.1485  -36.7329   23.2642 C   0  0  0  0  0  0
  -25.9302  -30.8384   21.3646 C   0  0  0  0  0  0
  -26.0082  -29.4754   20.7095 C   0  0  0  0  0  0
  -27.2045  -28.7226   20.6982 C   0  0  0  0  0  0
  -26.0548  -26.9626   19.4698 C   0  0  0  0  0  0
  -24.8640  -27.7109   19.4870 C   0  0  0  0  0  0
  -23.6096  -29.8343   20.1646 C   0  0  0  0  0  0
  -25.4108  -36.3117   24.0335 C   0  0  1  0  0  0
  -20.5874  -28.3673   23.1330 C   0  0  2  0  0  0
  -20.6765  -26.9409   22.5428 C   0  0  0  0  0  0
  -19.5736  -26.6389   21.5228 C   0  0  0  0  0  0
  -18.1922  -26.7927   22.1634 C   0  0  0  0  0  0
  -19.1532  -28.8840   23.2913 C   0  0  0  0  0  0
  -18.9451  -30.1444   23.8925 C   0  0  0  0  0  0
  -17.6452  -30.6583   24.0585 C   0  0  0  0  0  0
  -25.9032  -34.9478   23.5128 C   0  0  0  0  0  0
  -16.5349  -29.9090   23.6331 C   0  0  0  0  0  0
  -16.7272  -28.6508   23.0355 C   0  0  0  0  0  0
  -26.4459  -31.6619   25.0738 C   0  0  0  0  0  0
  -25.3712  -31.3725   26.1488 C   0  0  0  0  0  0
  -27.0307  -30.3065   24.6111 C   0  0  0  0  0  0
  -27.6057  -32.4337   25.7479 C   0  0  0  0  0  0
  -27.5584  -37.1822   24.8460 C   0  0  0  0  0  0
  -21.4141  -29.3038   22.3725 N   0  0  0  0  0  0
  -26.4298  -37.3794   23.9402 N   0  0  0  0  0  0
  -24.6666  -31.0825   22.1015 N   0  0  0  0  0  0
  -23.4193  -28.8222   23.3023 O   0  0  0  0  0  0
  -28.3544  -26.6602   20.1265 O   0  0  0  0  0  0
  -26.5603  -34.8926   22.4699 O   0  0  0  0  0  0
  -23.5324  -32.1459   23.7506 O   0  0  0  0  0  0
  -32.0047  -17.1514   21.3849 C   0  0  0  0  0  0
  -31.5973  -19.5427   21.2095 C   0  0  0  0  0  0
  -29.7188  -17.9738   21.0939 C   0  0  0  0  0  0
  -30.6267  -16.8736   21.2086 C   0  0  0  0  0  0
  -30.2061  -19.3215   21.0901 C   0  0  0  0  0  0
  -32.4857  -18.4688   21.3708 C   0  0  0  0  0  0
  -28.6640  -22.8523   20.7167 C   0  0  0  0  0  0
  -29.0866  -24.2925   20.3855 C   0  0  0  0  0  0
  -27.5598  -17.4215   22.3126 C   0  0  0  0  0  0
  -28.2245  -17.6872   20.9554 C   0  0  0  0  0  0
  -29.7683  -21.7857   20.6245 C   0  0  0  0  0  0
  -28.1224  -25.4149   20.8158 C   0  0  0  0  0  0
  -27.4963  -22.4764   21.0652 N   0  0  0  0  0  0
  -30.1517  -15.5113   21.1685 N   0  0  0  0  0  0
  -29.3260  -20.4234   20.9846 N   0  0  0  0  0  0
  -30.1553  -24.5693   19.8258 O   0  0  0  0  0  0
  -33.8122  -18.7052   21.5119 F   0  0  0  0  0  0
  -31.4576  -12.3486   19.1537 H   0  0  0  0  0  0
  -30.2705  -11.2996   19.8624 H   0  0  0  0  0  0
  -29.7419  -11.7645   17.4465 H   0  0  0  0  0  0
  -29.6737  -13.4808   17.7728 H   0  0  0  0  0  0
  -27.8365  -11.3078   18.8398 H   0  0  0  0  0  0
  -27.3697  -12.6208   17.7862 H   0  0  0  0  0  0
  -27.6922  -14.2611   19.5467 H   0  0  0  0  0  0
  -28.6702  -12.0310   21.3986 H   0  0  0  0  0  0
  -28.4653  -13.6971   21.8435 H   0  0  0  0  0  0
  -25.2783   -9.5645   22.4742 H   0  0  0  0  0  0
  -23.9979   -7.4632   22.7487 H   0  0  0  0  0  0
  -21.0823   -8.8805   19.8992 H   0  0  0  0  0  0
  -22.3721  -10.9668   19.6148 H   0  0  0  0  0  0
  -21.2062   -7.6148   23.9710 H   0  0  0  0  0  0
  -21.1466   -6.0513   25.9065 H   0  0  0  0  0  0
  -22.0604   -2.7605   23.2839 H   0  0  0  0  0  0
  -22.4126  -11.9944   22.4815 H   0  0  0  0  0  0
  -21.1109  -13.1301   22.2582 H   0  0  0  0  0  0
  -24.6509  -15.8375   20.5100 H   0  0  0  0  0  0
  -26.2685  -15.6308   20.0761 H   0  0  0  0  0  0
  -26.7110  -32.5550   23.1180 H   0  0  0  0  0  0
  -25.0005  -33.9776   25.0455 H   0  0  0  0  0  0
  -22.6917  -31.3140   21.4171 H   0  0  0  0  0  0
  -23.3728  -35.9686   23.3329 H   0  0  0  0  0  0
  -24.3569  -36.8916   22.2049 H   0  0  0  0  0  0
  -23.7252  -37.6547   23.6649 H   0  0  0  0  0  0
  -26.0420  -31.6069   20.5980 H   0  0  0  0  0  0
  -26.8183  -30.8902   21.9826 H   0  0  0  0  0  0
  -28.0985  -29.1069   21.1694 H   0  0  0  0  0  0
  -26.0575  -26.0048   18.9707 H   0  0  0  0  0  0
  -23.9746  -27.3190   19.0135 H   0  0  0  0  0  0
  -23.7171  -30.6132   19.4082 H   0  0  0  0  0  0
  -22.7336  -29.2553   19.8674 H   0  0  0  0  0  0
  -25.1282  -36.1993   25.0830 H   0  0  0  0  0  0
  -20.9979  -28.3237   24.1446 H   0  0  0  0  0  0
  -20.5688  -26.2272   23.3608 H   0  0  0  0  0  0
  -21.6636  -26.7455   22.1219 H   0  0  0  0  0  0
  -19.6894  -25.6306   21.1242 H   0  0  0  0  0  0
  -19.6675  -27.3217   20.6775 H   0  0  0  0  0  0
  -17.4202  -26.6711   21.4030 H   0  0  0  0  0  0
  -18.0301  -26.0056   22.9009 H   0  0  0  0  0  0
  -19.7927  -30.7260   24.2304 H   0  0  0  0  0  0
  -17.5011  -31.6271   24.5182 H   0  0  0  0  0  0
  -15.5349  -30.3009   23.7616 H   0  0  0  0  0  0
  -15.8679  -28.0834   22.7053 H   0  0  0  0  0  0
  -24.5870  -30.7098   25.7823 H   0  0  0  0  0  0
  -24.8921  -32.2875   26.4973 H   0  0  0  0  0  0
  -25.8044  -30.8861   27.0227 H   0  0  0  0  0  0
  -26.2859  -29.6815   24.1178 H   0  0  0  0  0  0
  -27.4098  -29.7324   25.4569 H   0  0  0  0  0  0
  -27.8682  -30.4422   23.9266 H   0  0  0  0  0  0
  -27.2711  -33.3634   26.2092 H   0  0  0  0  0  0
  -28.3835  -32.6893   25.0275 H   0  0  0  0  0  0
  -28.0770  -31.8433   26.5337 H   0  0  0  0  0  0
  -28.2625  -38.0099   24.7491 H   0  0  0  0  0  0
  -28.1045  -36.2623   24.6306 H   0  0  0  0  0  0
  -27.2296  -37.1520   25.8863 H   0  0  0  0  0  0
  -20.9289  -29.8770   21.6964 H   0  0  0  0  0  0
  -26.0181  -38.2879   24.1380 H   0  0  0  0  0  0
  -32.7231  -16.3565   21.5211 H   0  0  0  0  0  0
  -32.0185  -20.5367   21.2043 H   0  0  0  0  0  0
  -27.6206  -18.2969   22.9593 H   0  0  0  0  0  0
  -28.0335  -16.5912   22.8364 H   0  0  0  0  0  0
  -26.5052  -17.1764   22.1888 H   0  0  0  0  0  0
  -28.0799  -16.8318   20.2958 H   0  0  0  0  0  0
  -27.7130  -18.5073   20.4526 H   0  0  0  0  0  0
  -30.5831  -22.1059   21.2749 H   0  0  0  0  0  0
  -30.1585  -21.7725   19.6063 H   0  0  0  0  0  0
  -28.2495  -25.5895   21.8851 H   0  0  0  0  0  0
  -27.1021  -25.0580   20.6810 H   0  0  0  0  0  0
  -26.8354  -23.2432   21.0927 H   0  0  0  0  0  0
  -29.2001  -15.3504   21.4575 H   0  0  0  0  0  0
  -28.3164  -20.3110   21.0507 H   0  0  0  0  0  0
  1 25  1  0  0  0
  1 30  2  0  0  0
  1 84  1  0  0  0
  2  3  1  0  0  0
  2 25  1  0  0  0
  2 88  1  0  0  0
  2 89  1  0  0  0
  3  4  1  0  0  0
  3 90  1  0  0  0
  3 91  1  0  0  0
  4  5  1  0  0  0
  4 92  1  0  0  0
  4 93  1  0  0  0
  5  6  1  0  0  0
  5 26  1  0  0  0
  5 94  1  0  0  0
  6 25  1  0  0  0
  6 95  1  0  0  0
  6 96  1  0  0  0
  7  8  2  0  0  0
  7 26  1  0  0  0
  7 29  1  0  0  0
  8  9  1  0  0  0
  8 22  1  0  0  0
  9 10  1  0  0  0
  9 27  2  0  0  0
 10 11  2  0  0  0
 10 15  1  0  0  0
 11 12  1  0  0  0
 11 97  1  0  0  0
 12 13  2  0  0  0
 12 98  1  0  0  0
 13 14  1  0  0  0
 13 31  1  0  0  0
 14 15  2  0  0  0
 14 99  1  0  0  0
 15100  1  0  0  0
 16 17  2  0  0  0
 16 21  1  0  0  0
 16 31  1  0  0  0
 17 18  1  0  0  0
 17101  1  0  0  0
 18 19  2  0  0  0
 18102  1  0  0  0
 19 20  1  0  0  0
 19 24  1  0  0  0
 20 21  2  0  0  0
 20103  1  0  0  0
 21 23  1  0  0  0
 22 28  1  0  0  0
 22 32  2  0  0  0
 26 27  1  0  0  0
 28104  1  0  0  0
 28105  1  0  0  0
 29106  1  0  0  0
 29107  1  0  0  0
 33 34  1  0  0  0
 33 66  1  0  0  0
 33 70  2  0  0  0
 34 36  1  0  0  0
 34 59  1  0  0  0
 34108  1  0  0  0
 35 44  2  0  0  0
 35 45  1  0  0  0
 35 68  1  0  0  0
 36 56  1  0  0  0
 36109  1  0  0  0
 37 39  1  0  0  0
 37 47  1  0  0  0
 37 66  1  0  0  0
 37110  1  0  0  0
 38 43  2  0  0  0
 38 46  1  0  0  0
 38 47  1  0  0  0
 39 64  1  0  0  0
 39 67  2  0  0  0
 40 52  1  0  0  0
 40 53  2  0  0  0
 40 58  1  0  0  0
 41111  1  0  0  0
 41112  1  0  0  0
 41113  1  0  0  0
 41 48  1  0  0  0
 42 43  1  0  0  0
 42 66  1  0  0  0
 42114  1  0  0  0
 42115  1  0  0  0
 43 44  1  0  0  0
 44116  1  0  0  0
 45 46  2  0  0  0
 45117  1  0  0  0
 46118  1  0  0  0
 47119  1  0  0  0
 47120  1  0  0  0
 48 56  1  0  0  0
 48 65  1  0  0  0
 48121  1  0  0  0
 49 50  1  0  0  0
 49 53  1  0  0  0
 49 64  1  0  0  0
 49122  1  0  0  0
 50 51  1  0  0  0
 50123  1  0  0  0
 50124  1  0  0  0
 51 52  1  0  0  0
 51125  1  0  0  0
 51126  1  0  0  0
 52127  1  0  0  0
 52128  1  0  0  0
 53 54  1  0  0  0
 54 55  2  0  0  0
 54129  1  0  0  0
 55 57  1  0  0  0
 55130  1  0  0  0
 56 69  2  0  0  0
 57 58  2  0  0  0
 57131  1  0  0  0
 58132  1  0  0  0
 59 60  1  0  0  0
 59 61  1  0  0  0
 59 62  1  0  0  0
 60133  1  0  0  0
 60134  1  0  0  0
 60135  1  0  0  0
 61136  1  0  0  0
 61137  1  0  0  0
 61138  1  0  0  0
 62139  1  0  0  0
 62140  1  0  0  0
 62141  1  0  0  0
 63 65  1  0  0  0
 63142  1  0  0  0
 63143  1  0  0  0
 63144  1  0  0  0
 64145  1  0  0  0
 65146  1  0  0  0
 68 82  1  0  0  0
 71 74  2  0  0  0
 71 76  1  0  0  0
 71147  1  0  0  0
 72 75  1  0  0  0
 72 76  2  0  0  0
 72148  1  0  0  0
 73 74  1  0  0  0
 73 75  2  0  0  0
 73 80  1  0  0  0
 74 84  1  0  0  0
 75 85  1  0  0  0
 76 87  1  0  0  0
 77 78  1  0  0  0
 77 81  1  0  0  0
 77 83  2  0  0  0
 78 82  1  0  0  0
 78 86  2  0  0  0
 79 80  1  0  0  0
 79149  1  0  0  0
 79150  1  0  0  0
 79151  1  0  0  0
 80152  1  0  0  0
 80153  1  0  0  0
 81 85  1  0  0  0
 81154  1  0  0  0
 81155  1  0  0  0
 82156  1  0  0  0
 82157  1  0  0  0
 83158  1  0  0  0
 84159  1  0  0  0
 85160  1  0  0  0
M  ISO  4   1 100  68 101  82 101  84 100
M  END
> <chiral flag>
0

> <version>
0

> <s_m_source_file>
/data/baiqing/PycharmProjects/Reinvent-master-3.2/result/LINK_invent/BTK/process_docking_weight1_custom_product_contain_oxygen_bond_distance_aromatic_linkinvent_7_9_3/rearranged_h_0166.sdf

> <i_m_source_file_index>
77

> <r_mmod_Potential_Energy-OPLS-2005>
77.4739456176758

> <r_mmod_Stretch_Energy-OPLS-2005>
45.7464942932129

> <r_mmod_Bend_Energy-OPLS-2005>
104.398918151855

> <r_mmod_Torsional_Energy-OPLS-2005>
227.124923706055

> <r_mmod_Improper_Torsional_Energy-OPLS-2005>
3.41556763648987

> <r_mmod_Van_der_Waal_Energy-OPLS-2005>
165.86149597168

> <r_mmod_Electrostatic_Energy-OPLS-2005>
-256.564392089844

> <r_mmod_Solvation_Energy-OPLS-2005>
-228.178833007812

> <b_mmod_Minimization_Converged-OPLS-2005>
0

> <r_mmod_RMS_Derivative-OPLS-2005>
2.63279557228088

$$$$
78
                    3D
 Structure written by MMmdl.
154162  0  0  1  0            999 V2000
  -30.6866  -14.5283   20.4647 C   0  0  0  0  0  0
  -30.4273  -12.3134   19.4396 C   0  0  0  0  0  0
  -29.5101  -12.4898   18.2104 C   0  0  0  0  0  0
  -28.0261  -12.3758   18.6100 C   0  0  0  0  0  0
  -27.6615  -13.2229   19.8595 C   0  0  2  0  0  0
  -28.7067  -13.0554   20.9874 C   0  0  0  0  0  0
  -25.2583  -13.8141   20.5709 C   0  0  0  0  0  0
  -24.1830  -13.0434   20.9151 C   0  0  0  0  0  0
  -24.6404  -11.6890   20.8666 C   0  0  0  0  0  0
  -23.9082  -10.4284   21.0382 C   0  0  0  0  0  0
  -24.3609   -9.4196   21.9159 C   0  0  0  0  0  0
  -23.6294   -8.2242   22.0772 C   0  0  0  0  0  0
  -22.4286   -8.0231   21.3560 C   0  0  0  0  0  0
  -21.9898   -9.0227   20.4679 C   0  0  0  0  0  0
  -22.7240  -10.2104   20.3083 C   0  0  0  0  0  0
  -21.6825   -6.0670   22.5251 C   0  0  0  0  0  0
  -21.3954   -6.5573   23.8182 C   0  0  0  0  0  0
  -21.3684   -5.6754   24.9173 C   0  0  0  0  0  0
  -21.6107   -4.3027   24.7226 C   0  0  0  0  0  0
  -21.8814   -3.8102   23.4335 C   0  0  0  0  0  0
  -21.9178   -4.6902   22.3385 C   0  0  0  0  0  0
  -22.7846  -13.5254   21.1775 C   0  0  0  0  0  0
  -22.1642   -4.2098   21.0972 F   0  0  0  0  0  0
  -21.5738   -3.4542   25.7753 F   0  0  0  0  0  0
  -30.0352  -13.3337   20.4269 N   0  0  0  0  0  0
  -26.3041  -12.9370   20.3295 N   0  0  0  0  0  0
  -25.9329  -11.6528   20.5647 N   0  0  0  0  0  0
  -22.0439  -12.8311   22.0348 N   0  0  0  0  0  0
  -25.4260  -15.1903   20.4250 N   0  0  0  0  0  0
  -31.8531  -14.6575   20.0877 O   0  0  0  0  0  0
  -21.6657   -6.8817   21.4225 O   0  0  0  0  0  0
  -22.3553  -14.5534   20.6576 O   0  0  0  0  0  0
  -24.6195  -31.8613   23.2061 C   0  0  0  0  0  0
  -25.9063  -32.4798   23.8353 C   0  0  1  0  0  0
  -27.2431  -27.3971   20.0858 C   0  0  0  0  0  0
  -25.5896  -33.8599   24.2289 N   0  0  0  0  0  0
  -23.4119  -30.4795   21.5483 C   0  0  2  0  0  0
  -24.8601  -28.9336   20.1216 C   0  0  0  0  0  0
  -22.7443  -29.4603   22.5000 C   0  0  0  0  0  0
  -18.0272  -28.1388   22.8480 C   0  0  0  0  0  0
  -24.1475  -36.7283   23.2636 C   0  0  0  0  0  0
  -25.9446  -30.8133   21.3652 C   0  0  0  0  0  0
  -26.0242  -29.4440   20.7116 C   0  0  0  0  0  0
  -27.2221  -28.6857   20.6790 C   0  0  0  0  0  0
  -26.0585  -26.9047   19.5016 C   0  0  0  0  0  0
  -24.8712  -27.6648   19.5152 C   0  0  0  0  0  0
  -23.6243  -29.8063   20.1660 C   0  0  0  0  0  0
  -25.4106  -36.3094   24.0327 C   0  0  1  0  0  0
  -20.5861  -28.3663   23.1317 C   0  0  2  0  0  0
  -20.6759  -26.9396   22.5428 C   0  0  0  0  0  0
  -19.5747  -26.6391   21.5209 C   0  0  0  0  0  0
  -18.1916  -26.7940   22.1608 C   0  0  0  0  0  0
  -19.1514  -28.8842   23.2895 C   0  0  0  0  0  0
  -18.9453  -30.1439   23.8921 C   0  0  0  0  0  0
  -17.6453  -30.6592   24.0570 C   0  0  0  0  0  0
  -25.9025  -34.9457   23.5114 C   0  0  0  0  0  0
  -16.5347  -29.9094   23.6330 C   0  0  0  0  0  0
  -16.7255  -28.6511   23.0352 C   0  0  0  0  0  0
  -26.4483  -31.6596   25.0701 C   0  0  0  0  0  0
  -25.3751  -31.3703   26.1450 C   0  0  0  0  0  0
  -27.0325  -30.3039   24.6087 C   0  0  0  0  0  0
  -27.6061  -32.4314   25.7480 C   0  0  0  0  0  0
  -27.5576  -37.1799   24.8469 C   0  0  0  0  0  0
  -21.4164  -29.3012   22.3725 N   0  0  0  0  0  0
  -26.4291  -37.3782   23.9410 N   0  0  0  0  0  0
  -24.6773  -31.0654   22.0987 N   0  0  0  0  0  0
  -23.4176  -28.8122   23.3053 O   0  0  0  0  0  0
  -28.4119  -26.6618   20.0067 O   0  0  0  0  0  0
  -26.5602  -34.8923   22.4677 O   0  0  0  0  0  0
  -23.5384  -32.1389   23.7403 O   0  0  0  0  0  0
  -30.0359  -16.6335   18.4909 C   0  0  0  0  0  0
  -29.9138  -18.9251   18.1345 C   0  0  0  0  0  0
  -29.9322  -16.8040   19.8913 C   0  0  0  0  0  0
  -29.7288  -19.1469   19.5460 C   0  0  0  0  0  0
  -30.0370  -19.9868   17.0911 C   0  0  0  0  0  0
  -28.7756  -22.7691   20.5217 C   0  0  0  0  0  0
  -28.6775  -21.4288   19.7109 C   0  0  0  0  0  0
  -28.4782  -24.0974   19.7641 C   0  0  0  0  0  0
  -28.4546  -25.3769   20.6698 C   0  0  0  0  0  0
  -30.0336  -17.6684   17.6331 N   0  0  0  0  0  0
  -29.7596  -18.0669   20.3977 N   0  0  0  0  0  0
  -29.9506  -19.7557   15.8470 N   0  0  0  0  0  0
  -29.5598  -20.4703   20.0918 N   0  0  0  0  0  0
  -29.9208  -15.6191   20.7044 N   0  0  0  0  0  0
  -29.0767  -22.7632   21.7224 O   0  0  0  0  0  0
  -27.8514  -21.2852   18.8029 O   0  0  0  0  0  0
  -31.4769  -12.3911   19.1460 H   0  0  0  0  0  0
  -30.3128  -11.3192   19.8701 H   0  0  0  0  0  0
  -29.7472  -11.7397   17.4530 H   0  0  0  0  0  0
  -29.6876  -13.4567   17.7396 H   0  0  0  0  0  0
  -27.8015  -11.3250   18.7913 H   0  0  0  0  0  0
  -27.4032  -12.6835   17.7691 H   0  0  0  0  0  0
  -27.6856  -14.2631   19.5357 H   0  0  0  0  0  0
  -28.6868  -12.0380   21.3787 H   0  0  0  0  0  0
  -28.4781  -13.7052   21.8311 H   0  0  0  0  0  0
  -25.2733   -9.5692   22.4730 H   0  0  0  0  0  0
  -24.0016   -7.4652   22.7511 H   0  0  0  0  0  0
  -21.0815   -8.8729   19.8981 H   0  0  0  0  0  0
  -22.3664  -10.9640   19.6202 H   0  0  0  0  0  0
  -21.1846   -7.6052   23.9650 H   0  0  0  0  0  0
  -21.1568   -6.0503   25.9092 H   0  0  0  0  0  0
  -22.0587   -2.7561   23.2899 H   0  0  0  0  0  0
  -22.3992  -11.9983   22.4753 H   0  0  0  0  0  0
  -21.1099  -13.1458   22.2533 H   0  0  0  0  0  0
  -24.6664  -15.8423   20.5884 H   0  0  0  0  0  0
  -26.2880  -15.6473   20.1605 H   0  0  0  0  0  0
  -26.7137  -32.5488   23.1108 H   0  0  0  0  0  0
  -25.0100  -33.9747   25.0477 H   0  0  0  0  0  0
  -22.7037  -31.2970   21.4029 H   0  0  0  0  0  0
  -23.3750  -35.9603   23.3329 H   0  0  0  0  0  0
  -24.3567  -36.8873   22.2049 H   0  0  0  0  0  0
  -23.7218  -37.6485   23.6645 H   0  0  0  0  0  0
  -26.0618  -31.5756   20.5944 H   0  0  0  0  0  0
  -26.8330  -30.8684   21.9825 H   0  0  0  0  0  0
  -28.1308  -29.0852   21.1048 H   0  0  0  0  0  0
  -26.0596  -25.9411   19.0146 H   0  0  0  0  0  0
  -23.9770  -27.2635   19.0555 H   0  0  0  0  0  0
  -23.7458  -30.5770   19.4043 H   0  0  0  0  0  0
  -22.7473  -29.2290   19.8664 H   0  0  0  0  0  0
  -25.1288  -36.1960   25.0826 H   0  0  0  0  0  0
  -20.9935  -28.3239   24.1435 H   0  0  0  0  0  0
  -20.5657  -26.2263   23.3607 H   0  0  0  0  0  0
  -21.6639  -26.7440   22.1221 H   0  0  0  0  0  0
  -19.6898  -25.6298   21.1239 H   0  0  0  0  0  0
  -19.6691  -27.3197   20.6738 H   0  0  0  0  0  0
  -17.4185  -26.6673   21.4019 H   0  0  0  0  0  0
  -18.0313  -26.0086   22.9013 H   0  0  0  0  0  0
  -19.7927  -30.7252   24.2308 H   0  0  0  0  0  0
  -17.5012  -31.6281   24.5153 H   0  0  0  0  0  0
  -15.5346  -30.3003   23.7649 H   0  0  0  0  0  0
  -15.8647  -28.0829   22.7086 H   0  0  0  0  0  0
  -24.5899  -30.7079   25.7784 H   0  0  0  0  0  0
  -24.8975  -32.2868   26.4925 H   0  0  0  0  0  0
  -25.8100  -30.8843   27.0189 H   0  0  0  0  0  0
  -26.2863  -29.6790   24.1165 H   0  0  0  0  0  0
  -27.4141  -29.7280   25.4528 H   0  0  0  0  0  0
  -27.8676  -30.4382   23.9208 H   0  0  0  0  0  0
  -27.2687  -33.3610   26.2075 H   0  0  0  0  0  0
  -28.3862  -32.6873   25.0302 H   0  0  0  0  0  0
  -28.0729  -31.8424   26.5384 H   0  0  0  0  0  0
  -28.2600  -38.0088   24.7529 H   0  0  0  0  0  0
  -28.1065  -36.2627   24.6291 H   0  0  0  0  0  0
  -27.2296  -37.1450   25.8871 H   0  0  0  0  0  0
  -20.9329  -29.8757   21.6963 H   0  0  0  0  0  0
  -26.0175  -38.2848   24.1454 H   0  0  0  0  0  0
  -30.1140  -15.6574   18.0383 H   0  0  0  0  0  0
  -30.2180  -21.0081   17.4318 H   0  0  0  0  0  0
  -27.5261  -23.9801   19.2453 H   0  0  0  0  0  0
  -29.2426  -24.2006   18.9909 H   0  0  0  0  0  0
  -29.3919  -25.3937   21.2315 H   0  0  0  0  0  0
  -27.6557  -25.3015   21.4118 H   0  0  0  0  0  0
  -29.7784  -18.7566   15.7487 H   0  0  0  0  0  0
  -30.0757  -20.6837   20.9367 H   0  0  0  0  0  0
  -29.0740  -15.4616   21.2256 H   0  0  0  0  0  0
  1 25  1  0  0  0
  1 30  2  0  0  0
  1 84  1  0  0  0
  2  3  1  0  0  0
  2 25  1  0  0  0
  2 87  1  0  0  0
  2 88  1  0  0  0
  3  4  1  0  0  0
  3 89  1  0  0  0
  3 90  1  0  0  0
  4  5  1  0  0  0
  4 91  1  0  0  0
  4 92  1  0  0  0
  5  6  1  0  0  0
  5 26  1  0  0  0
  5 93  1  0  0  0
  6 25  1  0  0  0
  6 94  1  0  0  0
  6 95  1  0  0  0
  7  8  2  0  0  0
  7 26  1  0  0  0
  7 29  1  0  0  0
  8  9  1  0  0  0
  8 22  1  0  0  0
  9 10  1  0  0  0
  9 27  2  0  0  0
 10 11  2  0  0  0
 10 15  1  0  0  0
 11 12  1  0  0  0
 11 96  1  0  0  0
 12 13  2  0  0  0
 12 97  1  0  0  0
 13 14  1  0  0  0
 13 31  1  0  0  0
 14 15  2  0  0  0
 14 98  1  0  0  0
 15 99  1  0  0  0
 16 17  2  0  0  0
 16 21  1  0  0  0
 16 31  1  0  0  0
 17 18  1  0  0  0
 17100  1  0  0  0
 18 19  2  0  0  0
 18101  1  0  0  0
 19 20  1  0  0  0
 19 24  1  0  0  0
 20 21  2  0  0  0
 20102  1  0  0  0
 21 23  1  0  0  0
 22 28  1  0  0  0
 22 32  2  0  0  0
 26 27  1  0  0  0
 28103  1  0  0  0
 28104  1  0  0  0
 29105  1  0  0  0
 29106  1  0  0  0
 33 34  1  0  0  0
 33 66  1  0  0  0
 33 70  2  0  0  0
 34 36  1  0  0  0
 34 59  1  0  0  0
 34107  1  0  0  0
 35 44  2  0  0  0
 35 45  1  0  0  0
 35 68  1  0  0  0
 36 56  1  0  0  0
 36108  1  0  0  0
 37 39  1  0  0  0
 37 47  1  0  0  0
 37 66  1  0  0  0
 37109  1  0  0  0
 38 43  2  0  0  0
 38 46  1  0  0  0
 38 47  1  0  0  0
 39 64  1  0  0  0
 39 67  2  0  0  0
 40 52  1  0  0  0
 40 53  2  0  0  0
 40 58  1  0  0  0
 41110  1  0  0  0
 41111  1  0  0  0
 41112  1  0  0  0
 41 48  1  0  0  0
 42 43  1  0  0  0
 42 66  1  0  0  0
 42113  1  0  0  0
 42114  1  0  0  0
 43 44  1  0  0  0
 44115  1  0  0  0
 45 46  2  0  0  0
 45116  1  0  0  0
 46117  1  0  0  0
 47118  1  0  0  0
 47119  1  0  0  0
 48 56  1  0  0  0
 48 65  1  0  0  0
 48120  1  0  0  0
 49 50  1  0  0  0
 49 53  1  0  0  0
 49 64  1  0  0  0
 49121  1  0  0  0
 50 51  1  0  0  0
 50122  1  0  0  0
 50123  1  0  0  0
 51 52  1  0  0  0
 51124  1  0  0  0
 51125  1  0  0  0
 52126  1  0  0  0
 52127  1  0  0  0
 53 54  1  0  0  0
 54 55  2  0  0  0
 54128  1  0  0  0
 55 57  1  0  0  0
 55129  1  0  0  0
 56 69  2  0  0  0
 57 58  2  0  0  0
 57130  1  0  0  0
 58131  1  0  0  0
 59 60  1  0  0  0
 59 61  1  0  0  0
 59 62  1  0  0  0
 60132  1  0  0  0
 60133  1  0  0  0
 60134  1  0  0  0
 61135  1  0  0  0
 61136  1  0  0  0
 61137  1  0  0  0
 62138  1  0  0  0
 62139  1  0  0  0
 62140  1  0  0  0
 63 65  1  0  0  0
 63141  1  0  0  0
 63142  1  0  0  0
 63143  1  0  0  0
 64144  1  0  0  0
 65145  1  0  0  0
 68 79  1  0  0  0
 71 73  2  0  0  0
 71 80  1  0  0  0
 71146  1  0  0  0
 72 74  1  0  0  0
 72 75  1  0  0  0
 72 80  2  0  0  0
 73 81  1  0  0  0
 73 84  1  0  0  0
 74 81  2  0  0  0
 74 83  1  0  0  0
 75 82  2  0  0  0
 75147  1  0  0  0
 76 77  1  0  0  0
 76 78  1  0  0  0
 76 85  2  0  0  0
 77 83  1  0  0  0
 77 86  2  0  0  0
 78 79  1  0  0  0
 78148  1  0  0  0
 78149  1  0  0  0
 79150  1  0  0  0
 79151  1  0  0  0
 82152  1  0  0  0
 83153  1  0  0  0
 84154  1  0  0  0
M  ISO  4   1 100  68 101  79 101  84 100
M  END
> <chiral flag>
0

> <version>
0

> <s_m_source_file>
/data/baiqing/PycharmProjects/Reinvent-master-3.2/result/LINK_invent/BTK/process_docking_weight1_custom_product_contain_oxygen_bond_distance_aromatic_linkinvent_7_9_3/rearranged_h_0166.sdf

> <i_m_source_file_index>
78

> <r_mmod_Potential_Energy-OPLS-2005>
27.2796192169189

> <r_mmod_Stretch_Energy-OPLS-2005>
54.9823303222656

> <r_mmod_Bend_Energy-OPLS-2005>
114.887840270996

> <r_mmod_Torsional_Energy-OPLS-2005>
290.615325927734

> <r_mmod_Improper_Torsional_Energy-OPLS-2005>
7.59416151046753

> <r_mmod_Van_der_Waal_Energy-OPLS-2005>
160.826141357422

> <r_mmod_Electrostatic_Energy-OPLS-2005>
-366.180480957031

> <r_mmod_Solvation_Energy-OPLS-2005>
-257.70751953125

> <b_mmod_Minimization_Converged-OPLS-2005>
0

> <r_mmod_RMS_Derivative-OPLS-2005>
6.28617715835571

$$$$
79
                    3D
 Structure written by MMmdl.
161169  0  0  1  0            999 V2000
  -30.6652  -14.5092   20.4697 C   0  0  0  0  0  0
  -30.4227  -12.2996   19.4337 C   0  0  0  0  0  0
  -29.5028  -12.4817   18.2055 C   0  0  0  0  0  0
  -28.0212  -12.3516   18.6174 C   0  0  0  0  0  0
  -27.6590  -13.2091   19.8615 C   0  0  2  0  0  0
  -28.7006  -13.0228   20.9901 C   0  0  0  0  0  0
  -25.2587  -13.8160   20.5670 C   0  0  0  0  0  0
  -24.1845  -13.0438   20.9184 C   0  0  0  0  0  0
  -24.6415  -11.6905   20.8740 C   0  0  0  0  0  0
  -23.9083  -10.4291   21.0399 C   0  0  0  0  0  0
  -24.3626   -9.4195   21.9181 C   0  0  0  0  0  0
  -23.6295   -8.2234   22.0757 C   0  0  0  0  0  0
  -22.4269   -8.0294   21.3553 C   0  0  0  0  0  0
  -21.9906   -9.0269   20.4650 C   0  0  0  0  0  0
  -22.7248  -10.2137   20.3055 C   0  0  0  0  0  0
  -21.6846   -6.0753   22.5286 C   0  0  0  0  0  0
  -21.4015   -6.5640   23.8232 C   0  0  0  0  0  0
  -21.3656   -5.6781   24.9183 C   0  0  0  0  0  0
  -21.6036   -4.3052   24.7214 C   0  0  0  0  0  0
  -21.8814   -3.8156   23.4333 C   0  0  0  0  0  0
  -21.9182   -4.6981   22.3397 C   0  0  0  0  0  0
  -22.7861  -13.5248   21.1824 C   0  0  0  0  0  0
  -22.1650   -4.2177   21.0972 F   0  0  0  0  0  0
  -21.5621   -3.4528   25.7727 F   0  0  0  0  0  0
  -30.0268  -13.3101   20.4281 N   0  0  0  0  0  0
  -26.3018  -12.9338   20.3306 N   0  0  0  0  0  0
  -25.9332  -11.6497   20.5736 N   0  0  0  0  0  0
  -22.0478  -12.8291   22.0386 N   0  0  0  0  0  0
  -25.4291  -15.1876   20.4080 N   0  0  0  0  0  0
  -31.8489  -14.6438   20.1404 O   0  0  0  0  0  0
  -21.6634   -6.8887   21.4246 O   0  0  0  0  0  0
  -22.3559  -14.5550   20.6671 O   0  0  0  0  0  0
  -24.6172  -31.8622   23.2042 C   0  0  0  0  0  0
  -25.9044  -32.4803   23.8360 C   0  0  1  0  0  0
  -27.2491  -27.4031   20.0893 C   0  0  0  0  0  0
  -25.5861  -33.8594   24.2307 N   0  0  0  0  0  0
  -23.4103  -30.4816   21.5430 C   0  0  2  0  0  0
  -24.8605  -28.9423   20.1088 C   0  0  0  0  0  0
  -22.7447  -29.4593   22.4935 C   0  0  0  0  0  0
  -18.0274  -28.1361   22.8494 C   0  0  0  0  0  0
  -24.1480  -36.7302   23.2644 C   0  0  0  0  0  0
  -25.9401  -30.8179   21.3616 C   0  0  0  0  0  0
  -26.0175  -29.4474   20.7127 C   0  0  0  0  0  0
  -27.2084  -28.6804   20.7057 C   0  0  0  0  0  0
  -26.0696  -26.9197   19.4794 C   0  0  0  0  0  0
  -24.8839  -27.6818   19.4883 C   0  0  0  0  0  0
  -23.6218  -29.8087   20.1581 C   0  0  0  0  0  0
  -25.4098  -36.3100   24.0342 C   0  0  1  0  0  0
  -20.5874  -28.3649   23.1298 C   0  0  2  0  0  0
  -20.6753  -26.9377   22.5412 C   0  0  0  0  0  0
  -19.5733  -26.6369   21.5206 C   0  0  0  0  0  0
  -18.1910  -26.7902   22.1625 C   0  0  0  0  0  0
  -19.1528  -28.8815   23.2888 C   0  0  0  0  0  0
  -18.9458  -30.1411   23.8920 C   0  0  0  0  0  0
  -17.6464  -30.6566   24.0557 C   0  0  0  0  0  0
  -25.9017  -34.9460   23.5128 C   0  0  0  0  0  0
  -16.5352  -29.9077   23.6315 C   0  0  0  0  0  0
  -16.7260  -28.6478   23.0358 C   0  0  0  0  0  0
  -26.4464  -31.6581   25.0687 C   0  0  0  0  0  0
  -25.3727  -31.3709   26.1437 C   0  0  0  0  0  0
  -27.0292  -30.3025   24.6060 C   0  0  0  0  0  0
  -27.6031  -32.4299   25.7446 C   0  0  0  0  0  0
  -27.5577  -37.1806   24.8467 C   0  0  0  0  0  0
  -21.4155  -29.3013   22.3697 N   0  0  0  0  0  0
  -26.4298  -37.3779   23.9409 N   0  0  0  0  0  0
  -24.6742  -31.0688   22.0950 N   0  0  0  0  0  0
  -23.4194  -28.8142   23.2988 O   0  0  0  0  0  0
  -28.4326  -26.6803   20.1275 O   0  0  0  0  0  0
  -26.5604  -34.8935   22.4709 O   0  0  0  0  0  0
  -23.5346  -32.1360   23.7422 O   0  0  0  0  0  0
  -30.2294  -16.7255   18.4907 C   0  0  0  0  0  0
  -29.8540  -18.0996   20.4607 C   0  0  0  0  0  0
  -30.4188  -19.1673   18.3217 C   0  0  0  0  0  0
  -30.4646  -17.8771   17.7184 C   0  0  0  0  0  0
  -29.9902  -16.8079   19.8769 C   0  0  0  0  0  0
  -30.0680  -19.2918   19.7020 C   0  0  0  0  0  0
  -30.8643  -20.3394   17.5118 C   0  0  0  0  0  0
  -29.2979  -22.9173   19.7631 C   0  0  0  0  0  0
  -28.3704  -24.1545   20.0791 C   0  0  0  0  0  0
  -30.8088  -17.6710   16.2468 C   0  0  0  0  0  0
  -29.8927  -20.8608   16.4613 C   0  0  0  0  0  0
  -28.8819  -21.4680   20.1710 C   0  0  0  0  0  0
  -28.6325  -25.4881   19.3214 C   0  0  0  0  0  0
  -29.8705  -15.5941   20.6414 N   0  0  0  0  0  0
  -30.0321  -20.5470   20.3676 N   0  0  0  0  0  0
  -31.9740  -20.8650   17.6353 O   0  0  0  0  0  0
  -30.3903  -23.0867   19.2119 O   0  0  0  0  0  0
  -27.4635  -24.0673   20.9175 O   0  0  0  0  0  0
  -31.4731  -12.3792   19.1433 H   0  0  0  0  0  0
  -30.3064  -11.2994   19.8498 H   0  0  0  0  0  0
  -29.7485  -11.7438   17.4399 H   0  0  0  0  0  0
  -29.6743  -13.4561   17.7477 H   0  0  0  0  0  0
  -27.8336  -11.2985   18.8308 H   0  0  0  0  0  0
  -27.3746  -12.6110   17.7783 H   0  0  0  0  0  0
  -27.6928  -14.2509   19.5396 H   0  0  0  0  0  0
  -28.6737  -12.0007   21.3717 H   0  0  0  0  0  0
  -28.4801  -13.6672   21.8429 H   0  0  0  0  0  0
  -25.2778   -9.5668   22.4749 H   0  0  0  0  0  0
  -24.0009   -7.4607   22.7476 H   0  0  0  0  0  0
  -21.0835   -8.8797   19.8949 H   0  0  0  0  0  0
  -22.3729  -10.9675   19.6161 H   0  0  0  0  0  0
  -21.2038   -7.6149   23.9747 H   0  0  0  0  0  0
  -21.1473   -6.0508   25.9086 H   0  0  0  0  0  0
  -22.0600   -2.7619   23.2821 H   0  0  0  0  0  0
  -22.4085  -12.0000   22.4852 H   0  0  0  0  0  0
  -21.1082  -13.1330   22.2530 H   0  0  0  0  0  0
  -24.6617  -15.8396   20.5293 H   0  0  0  0  0  0
  -26.2731  -15.6260   20.0623 H   0  0  0  0  0  0
  -26.7113  -32.5531   23.1120 H   0  0  0  0  0  0
  -24.9987  -33.9739   25.0439 H   0  0  0  0  0  0
  -22.7006  -31.2968   21.3986 H   0  0  0  0  0  0
  -23.3738  -35.9640   23.3310 H   0  0  0  0  0  0
  -24.3571  -36.8912   22.2056 H   0  0  0  0  0  0
  -23.7244  -37.6516   23.6650 H   0  0  0  0  0  0
  -26.0524  -31.5787   20.5877 H   0  0  0  0  0  0
  -26.8294  -30.8785   21.9768 H   0  0  0  0  0  0
  -28.1030  -29.0662   21.1754 H   0  0  0  0  0  0
  -26.0401  -25.9501   19.0049 H   0  0  0  0  0  0
  -23.9970  -27.2905   19.0105 H   0  0  0  0  0  0
  -23.7270  -30.5774   19.3919 H   0  0  0  0  0  0
  -22.7513  -29.2182   19.8682 H   0  0  0  0  0  0
  -25.1281  -36.1960   25.0836 H   0  0  0  0  0  0
  -20.9967  -28.3218   24.1421 H   0  0  0  0  0  0
  -20.5627  -26.2257   23.3598 H   0  0  0  0  0  0
  -21.6623  -26.7386   22.1229 H   0  0  0  0  0  0
  -19.6882  -25.6284   21.1212 H   0  0  0  0  0  0
  -19.6669  -27.3196   20.6746 H   0  0  0  0  0  0
  -17.4176  -26.6638   21.4029 H   0  0  0  0  0  0
  -18.0322  -26.0041   22.9021 H   0  0  0  0  0  0
  -19.7930  -30.7203   24.2320 H   0  0  0  0  0  0
  -17.5020  -31.6262   24.5137 H   0  0  0  0  0  0
  -15.5352  -30.2998   23.7595 H   0  0  0  0  0  0
  -15.8655  -28.0789   22.7098 H   0  0  0  0  0  0
  -24.5884  -30.7070   25.7788 H   0  0  0  0  0  0
  -24.8940  -32.2880   26.4876 H   0  0  0  0  0  0
  -25.8067  -30.8883   27.0203 H   0  0  0  0  0  0
  -26.2834  -29.6782   24.1130 H   0  0  0  0  0  0
  -27.4093  -29.7255   25.4501 H   0  0  0  0  0  0
  -27.8650  -30.4348   23.9184 H   0  0  0  0  0  0
  -27.2639  -33.3595   26.2028 H   0  0  0  0  0  0
  -28.3825  -32.6864   25.0257 H   0  0  0  0  0  0
  -28.0707  -31.8420   26.5354 H   0  0  0  0  0  0
  -28.2607  -38.0094   24.7506 H   0  0  0  0  0  0
  -28.1060  -36.2625   24.6294 H   0  0  0  0  0  0
  -27.2290  -37.1466   25.8872 H   0  0  0  0  0  0
  -20.9310  -29.8766   21.6957 H   0  0  0  0  0  0
  -26.0177  -38.2857   24.1420 H   0  0  0  0  0  0
  -30.2816  -15.7582   18.0093 H   0  0  0  0  0  0
  -29.6455  -18.1672   21.5192 H   0  0  0  0  0  0
  -30.9767  -16.6165   16.0170 H   0  0  0  0  0  0
  -31.7199  -18.2060   15.9729 H   0  0  0  0  0  0
  -29.9918  -18.0186   15.6132 H   0  0  0  0  0  0
  -28.9594  -20.3002   16.4828 H   0  0  0  0  0  0
  -30.3303  -20.7583   15.4667 H   0  0  0  0  0  0
  -29.6768  -21.9134   16.6452 H   0  0  0  0  0  0
  -28.2043  -21.0771   19.4088 H   0  0  0  0  0  0
  -28.3066  -21.5160   21.0967 H   0  0  0  0  0  0
  -28.0422  -25.5225   18.4067 H   0  0  0  0  0  0
  -29.6715  -25.4983   18.9926 H   0  0  0  0  0  0
  -28.9703  -15.4219   21.0646 H   0  0  0  0  0  0
  -30.8789  -21.0923   20.2046 H   0  0  0  0  0  0
  1 25  1  0  0  0
  1 30  2  0  0  0
  1 84  1  0  0  0
  2  3  1  0  0  0
  2 25  1  0  0  0
  2 89  1  0  0  0
  2 90  1  0  0  0
  3  4  1  0  0  0
  3 91  1  0  0  0
  3 92  1  0  0  0
  4  5  1  0  0  0
  4 93  1  0  0  0
  4 94  1  0  0  0
  5  6  1  0  0  0
  5 26  1  0  0  0
  5 95  1  0  0  0
  6 25  1  0  0  0
  6 96  1  0  0  0
  6 97  1  0  0  0
  7  8  2  0  0  0
  7 26  1  0  0  0
  7 29  1  0  0  0
  8  9  1  0  0  0
  8 22  1  0  0  0
  9 10  1  0  0  0
  9 27  2  0  0  0
 10 11  2  0  0  0
 10 15  1  0  0  0
 11 12  1  0  0  0
 11 98  1  0  0  0
 12 13  2  0  0  0
 12 99  1  0  0  0
 13 14  1  0  0  0
 13 31  1  0  0  0
 14 15  2  0  0  0
 14100  1  0  0  0
 15101  1  0  0  0
 16 17  2  0  0  0
 16 21  1  0  0  0
 16 31  1  0  0  0
 17 18  1  0  0  0
 17102  1  0  0  0
 18 19  2  0  0  0
 18103  1  0  0  0
 19 20  1  0  0  0
 19 24  1  0  0  0
 20 21  2  0  0  0
 20104  1  0  0  0
 21 23  1  0  0  0
 22 28  1  0  0  0
 22 32  2  0  0  0
 26 27  1  0  0  0
 28105  1  0  0  0
 28106  1  0  0  0
 29107  1  0  0  0
 29108  1  0  0  0
 33 34  1  0  0  0
 33 66  1  0  0  0
 33 70  2  0  0  0
 34 36  1  0  0  0
 34 59  1  0  0  0
 34109  1  0  0  0
 35 44  2  0  0  0
 35 45  1  0  0  0
 35 68  1  0  0  0
 36 56  1  0  0  0
 36110  1  0  0  0
 37 39  1  0  0  0
 37 47  1  0  0  0
 37 66  1  0  0  0
 37111  1  0  0  0
 38 43  2  0  0  0
 38 46  1  0  0  0
 38 47  1  0  0  0
 39 64  1  0  0  0
 39 67  2  0  0  0
 40 52  1  0  0  0
 40 53  2  0  0  0
 40 58  1  0  0  0
 41112  1  0  0  0
 41113  1  0  0  0
 41114  1  0  0  0
 41 48  1  0  0  0
 42 43  1  0  0  0
 42 66  1  0  0  0
 42115  1  0  0  0
 42116  1  0  0  0
 43 44  1  0  0  0
 44117  1  0  0  0
 45 46  2  0  0  0
 45118  1  0  0  0
 46119  1  0  0  0
 47120  1  0  0  0
 47121  1  0  0  0
 48 56  1  0  0  0
 48 65  1  0  0  0
 48122  1  0  0  0
 49 50  1  0  0  0
 49 53  1  0  0  0
 49 64  1  0  0  0
 49123  1  0  0  0
 50 51  1  0  0  0
 50124  1  0  0  0
 50125  1  0  0  0
 51 52  1  0  0  0
 51126  1  0  0  0
 51127  1  0  0  0
 52128  1  0  0  0
 52129  1  0  0  0
 53 54  1  0  0  0
 54 55  2  0  0  0
 54130  1  0  0  0
 55 57  1  0  0  0
 55131  1  0  0  0
 56 69  2  0  0  0
 57 58  2  0  0  0
 57132  1  0  0  0
 58133  1  0  0  0
 59 60  1  0  0  0
 59 61  1  0  0  0
 59 62  1  0  0  0
 60134  1  0  0  0
 60135  1  0  0  0
 60136  1  0  0  0
 61137  1  0  0  0
 61138  1  0  0  0
 61139  1  0  0  0
 62140  1  0  0  0
 62141  1  0  0  0
 62142  1  0  0  0
 63 65  1  0  0  0
 63143  1  0  0  0
 63144  1  0  0  0
 63145  1  0  0  0
 64146  1  0  0  0
 65147  1  0  0  0
 68 83  1  0  0  0
 71 74  2  0  0  0
 71 75  1  0  0  0
 71148  1  0  0  0
 72 75  2  0  0  0
 72 76  1  0  0  0
 72149  1  0  0  0
 73 74  1  0  0  0
 73 76  2  0  0  0
 73 77  1  0  0  0
 74 80  1  0  0  0
 75 84  1  0  0  0
 76 85  1  0  0  0
 77 81  1  0  0  0
 77 86  2  0  0  0
 78 79  1  0  0  0
 78 82  1  0  0  0
 78 87  2  0  0  0
 79 83  1  0  0  0
 79 88  2  0  0  0
 80150  1  0  0  0
 80151  1  0  0  0
 80152  1  0  0  0
 81153  1  0  0  0
 81154  1  0  0  0
 81155  1  0  0  0
 82 85  1  0  0  0
 82156  1  0  0  0
 82157  1  0  0  0
 83158  1  0  0  0
 83159  1  0  0  0
 84160  1  0  0  0
 85161  1  0  0  0
M  ISO  4   1 100  68 101  83 101  84 100
M  END
> <chiral flag>
0

> <version>
0

> <s_m_source_file>
/data/baiqing/PycharmProjects/Reinvent-master-3.2/result/LINK_invent/BTK/process_docking_weight1_custom_product_contain_oxygen_bond_distance_aromatic_linkinvent_7_9_3/rearranged_h_0166.sdf

> <i_m_source_file_index>
79

> <r_mmod_Potential_Energy-OPLS-2005>
254.408203125

> <r_mmod_Stretch_Energy-OPLS-2005>
55.1189346313477

> <r_mmod_Bend_Energy-OPLS-2005>
113.763023376465

> <r_mmod_Torsional_Energy-OPLS-2005>
316.319061279297

> <r_mmod_Improper_Torsional_Energy-OPLS-2005>
13.6479291915894

> <r_mmod_Van_der_Waal_Energy-OPLS-2005>
146.00276184082

> <r_mmod_Electrostatic_Energy-OPLS-2005>
-153.144165039062

> <r_mmod_Solvation_Energy-OPLS-2005>
-258.796630859375

> <b_mmod_Minimization_Converged-OPLS-2005>
0

> <r_mmod_RMS_Derivative-OPLS-2005>
3.41441226005554

$$$$
80
                    3D
 Structure written by MMmdl.
156164  0  0  1  0            999 V2000
  -30.8076  -14.4383   20.5625 C   0  0  0  0  0  0
  -30.4115  -12.2836   19.4434 C   0  0  0  0  0  0
  -29.5035  -12.4893   18.2160 C   0  0  0  0  0  0
  -28.0237  -12.3647   18.6229 C   0  0  0  0  0  0
  -27.6682  -13.2225   19.8683 C   0  0  2  0  0  0
  -28.7147  -13.0591   21.0011 C   0  0  0  0  0  0
  -25.2618  -13.8196   20.5687 C   0  0  0  0  0  0
  -24.1867  -13.0453   20.9196 C   0  0  0  0  0  0
  -24.6436  -11.6924   20.8716 C   0  0  0  0  0  0
  -23.9108  -10.4290   21.0353 C   0  0  0  0  0  0
  -24.3640   -9.4204   21.9135 C   0  0  0  0  0  0
  -23.6309   -8.2248   22.0724 C   0  0  0  0  0  0
  -22.4307   -8.0262   21.3511 C   0  0  0  0  0  0
  -21.9935   -9.0256   20.4657 C   0  0  0  0  0  0
  -22.7264  -10.2126   20.3046 C   0  0  0  0  0  0
  -21.6857   -6.0741   22.5271 C   0  0  0  0  0  0
  -21.4021   -6.5645   23.8204 C   0  0  0  0  0  0
  -21.3665   -5.6784   24.9159 C   0  0  0  0  0  0
  -21.6041   -4.3049   24.7196 C   0  0  0  0  0  0
  -21.8824   -3.8151   23.4322 C   0  0  0  0  0  0
  -21.9184   -4.6964   22.3379 C   0  0  0  0  0  0
  -22.7865  -13.5244   21.1814 C   0  0  0  0  0  0
  -22.1647   -4.2154   21.0943 F   0  0  0  0  0  0
  -21.5626   -3.4533   25.7712 F   0  0  0  0  0  0
  -30.0592  -13.3054   20.4454 N   0  0  0  0  0  0
  -26.3082  -12.9417   20.3336 N   0  0  0  0  0  0
  -25.9397  -11.6559   20.5773 N   0  0  0  0  0  0
  -22.0497  -12.8268   22.0372 N   0  0  0  0  0  0
  -25.4318  -15.1924   20.4116 N   0  0  0  0  0  0
  -31.9107  -14.5469   20.0281 O   0  0  0  0  0  0
  -21.6651   -6.8881   21.4234 O   0  0  0  0  0  0
  -22.3526  -14.5481   20.6553 O   0  0  0  0  0  0
  -24.6240  -31.8715   23.2157 C   0  0  0  0  0  0
  -25.9129  -32.4815   23.8441 C   0  0  1  0  0  0
  -27.1780  -27.3894   20.0669 C   0  0  0  0  0  0
  -25.5985  -33.8608   24.2345 N   0  0  0  0  0  0
  -23.4047  -30.5139   21.5599 C   0  0  2  0  0  0
  -24.8351  -28.9967   20.1116 C   0  0  0  0  0  0
  -22.7470  -29.4751   22.4980 C   0  0  0  0  0  0
  -18.0303  -28.1381   22.8502 C   0  0  0  0  0  0
  -24.1503  -36.7311   23.2627 C   0  0  0  0  0  0
  -25.9486  -30.8228   21.3809 C   0  0  0  0  0  0
  -26.0107  -29.4638   20.7100 C   0  0  0  0  0  0
  -27.1917  -28.6683   20.6870 C   0  0  0  0  0  0
  -25.9736  -26.9796   19.4394 C   0  0  0  0  0  0
  -24.8113  -27.7548   19.4763 C   0  0  0  0  0  0
  -23.6080  -29.8730   20.1693 C   0  0  0  0  0  0
  -25.4113  -36.3098   24.0332 C   0  0  1  0  0  0
  -20.5904  -28.3705   23.1280 C   0  0  2  0  0  0
  -20.6812  -26.9438   22.5399 C   0  0  0  0  0  0
  -19.5768  -26.6384   21.5231 C   0  0  0  0  0  0
  -18.1953  -26.7918   22.1644 C   0  0  0  0  0  0
  -19.1555  -28.8857   23.2881 C   0  0  0  0  0  0
  -18.9486  -30.1456   23.8887 C   0  0  0  0  0  0
  -17.6485  -30.6582   24.0553 C   0  0  0  0  0  0
  -25.9057  -34.9467   23.5123 C   0  0  0  0  0  0
  -16.5373  -29.9081   23.6307 C   0  0  0  0  0  0
  -16.7292  -28.6496   23.0343 C   0  0  0  0  0  0
  -26.4492  -31.6590   25.0777 C   0  0  0  0  0  0
  -25.3710  -31.3767   26.1503 C   0  0  0  0  0  0
  -27.0322  -30.3015   24.6202 C   0  0  0  0  0  0
  -27.6069  -32.4296   25.7545 C   0  0  0  0  0  0
  -27.5590  -37.1803   24.8436 C   0  0  0  0  0  0
  -21.4198  -29.3077   22.3690 N   0  0  0  0  0  0
  -26.4283  -37.3800   23.9414 N   0  0  0  0  0  0
  -24.6764  -31.0844   22.1069 N   0  0  0  0  0  0
  -23.4256  -28.8268   23.3001 O   0  0  0  0  0  0
  -28.2805  -26.5337   20.1000 O   0  0  0  0  0  0
  -26.5595  -34.8926   22.4666 O   0  0  0  0  0  0
  -23.5429  -32.1510   23.7535 O   0  0  0  0  0  0
  -29.7340  -17.8523   20.7802 C   0  0  0  0  0  0
  -31.4927  -19.5300   20.5215 C   0  0  0  0  0  0
  -32.0624  -17.2284   21.0960 C   0  0  0  0  0  0
  -30.1204  -19.1929   20.5148 C   0  0  0  0  0  0
  -30.6963  -16.8491   21.0329 C   0  0  0  0  0  0
  -32.4571  -18.5566   20.8344 C   0  0  0  0  0  0
  -29.1108  -20.2183   20.2123 C   0  0  0  0  0  0
  -28.9658  -24.0349   20.1246 C   0  0  0  0  0  0
  -28.3376  -22.6322   20.2455 C   0  0  0  0  0  0
  -27.9032  -25.1258   19.9964 C   0  0  0  0  0  0
  -30.2131  -24.2446   20.0382 N   0  0  0  0  0  0
  -30.2578  -15.4899   21.2000 N   0  0  0  0  0  0
  -29.3217  -21.5342   20.4396 N   0  0  0  0  0  0
  -27.9479  -19.8173   19.6963 N   0  3  0  0  0  0
  -33.7694  -18.9014   20.8777 F   0  0  0  0  0  0
  -31.4616  -12.3172   19.1493 H   0  0  0  0  0  0
  -30.2617  -11.2879   19.8629 H   0  0  0  0  0  0
  -29.7474  -11.7517   17.4496 H   0  0  0  0  0  0
  -29.6923  -13.4660   17.7663 H   0  0  0  0  0  0
  -27.8330  -11.3131   18.8350 H   0  0  0  0  0  0
  -27.3810  -12.6272   17.7829 H   0  0  0  0  0  0
  -27.7030  -14.2632   19.5464 H   0  0  0  0  0  0
  -28.6714  -12.0552   21.4219 H   0  0  0  0  0  0
  -28.4820  -13.7366   21.8260 H   0  0  0  0  0  0
  -25.2795   -9.5675   22.4688 H   0  0  0  0  0  0
  -24.0019   -7.4652   22.7447 H   0  0  0  0  0  0
  -21.0856   -8.8808   19.8984 H   0  0  0  0  0  0
  -22.3725  -10.9661   19.6152 H   0  0  0  0  0  0
  -21.2035   -7.6158   23.9724 H   0  0  0  0  0  0
  -21.1474   -6.0499   25.9059 H   0  0  0  0  0  0
  -22.0600   -2.7623   23.2813 H   0  0  0  0  0  0
  -22.4114  -12.0037   22.4952 H   0  0  0  0  0  0
  -21.1073  -13.1265   22.2420 H   0  0  0  0  0  0
  -24.6729  -15.8527   20.5401 H   0  0  0  0  0  0
  -26.2921  -15.6300   20.1081 H   0  0  0  0  0  0
  -26.7197  -32.5512   23.1198 H   0  0  0  0  0  0
  -25.0133  -33.9731   25.0497 H   0  0  0  0  0  0
  -22.6956  -31.3335   21.4352 H   0  0  0  0  0  0
  -23.3768  -35.9637   23.3245 H   0  0  0  0  0  0
  -24.3625  -36.8971   22.2054 H   0  0  0  0  0  0
  -23.7245  -37.6501   23.6668 H   0  0  0  0  0  0
  -26.0855  -31.5991   20.6283 H   0  0  0  0  0  0
  -26.8283  -30.8514   22.0122 H   0  0  0  0  0  0
  -28.0926  -29.0179   21.1696 H   0  0  0  0  0  0
  -25.8549  -26.0563   18.8993 H   0  0  0  0  0  0
  -23.9057  -27.3913   19.0093 H   0  0  0  0  0  0
  -23.7272  -30.6570   19.4218 H   0  0  0  0  0  0
  -22.7238  -29.3104   19.8624 H   0  0  0  0  0  0
  -25.1289  -36.1941   25.0825 H   0  0  0  0  0  0
  -21.0000  -28.3279   24.1394 H   0  0  0  0  0  0
  -20.5795  -26.2329   23.3606 H   0  0  0  0  0  0
  -21.6672  -26.7527   22.1137 H   0  0  0  0  0  0
  -19.6929  -25.6300   21.1258 H   0  0  0  0  0  0
  -19.6652  -27.3199   20.6763 H   0  0  0  0  0  0
  -17.4233  -26.6691   21.4035 H   0  0  0  0  0  0
  -18.0327  -26.0055   22.9037 H   0  0  0  0  0  0
  -19.7956  -30.7268   24.2266 H   0  0  0  0  0  0
  -17.5036  -31.6268   24.5158 H   0  0  0  0  0  0
  -15.5365  -30.2982   23.7611 H   0  0  0  0  0  0
  -15.8717  -28.0799   22.7051 H   0  0  0  0  0  0
  -24.5833  -30.7158   25.7858 H   0  0  0  0  0  0
  -24.8946  -32.2962   26.4929 H   0  0  0  0  0  0
  -25.8002  -30.8939   27.0296 H   0  0  0  0  0  0
  -26.2915  -29.6803   24.1144 H   0  0  0  0  0  0
  -27.3959  -29.7218   25.4708 H   0  0  0  0  0  0
  -27.8822  -30.4326   23.9488 H   0  0  0  0  0  0
  -27.2686  -33.3583   26.2173 H   0  0  0  0  0  0
  -28.3869  -32.6879   25.0358 H   0  0  0  0  0  0
  -28.0760  -31.8379   26.5431 H   0  0  0  0  0  0
  -28.2556  -38.0158   24.7572 H   0  0  0  0  0  0
  -28.1141  -36.2690   24.6141 H   0  0  0  0  0  0
  -27.2319  -37.1314   25.8839 H   0  0  0  0  0  0
  -20.9394  -29.8800   21.6881 H   0  0  0  0  0  0
  -26.0155  -38.2868   24.1456 H   0  0  0  0  0  0
  -28.6897  -17.5731   20.7646 H   0  0  0  0  0  0
  -31.8166  -20.5362   20.2973 H   0  0  0  0  0  0
  -32.8299  -16.5065   21.3230 H   0  0  0  0  0  0
  -27.7508  -22.4455   19.3412 H   0  0  0  0  0  0
  -27.6317  -22.6229   21.0821 H   0  0  0  0  0  0
  -27.1179  -24.9150   20.7275 H   0  0  0  0  0  0
  -27.4854  -24.9244   19.0119 H   0  0  0  0  0  0
  -30.7278  -23.3757   20.0411 H   0  0  0  0  0  0
  -29.3348  -15.3376   21.5771 H   0  0  0  0  0  0
  -30.1876  -21.7956   20.8906 H   0  0  0  0  0  0
  -27.8482  -18.8375   19.4791 H   0  0  0  0  0  0
  -27.1332  -20.4004   19.6120 H   0  0  0  0  0  0
  1 25  1  0  0  0
  1 30  2  0  0  0
  1 82  1  0  0  0
  2  3  1  0  0  0
  2 25  1  0  0  0
  2 86  1  0  0  0
  2 87  1  0  0  0
  3  4  1  0  0  0
  3 88  1  0  0  0
  3 89  1  0  0  0
  4  5  1  0  0  0
  4 90  1  0  0  0
  4 91  1  0  0  0
  5  6  1  0  0  0
  5 26  1  0  0  0
  5 92  1  0  0  0
  6 25  1  0  0  0
  6 93  1  0  0  0
  6 94  1  0  0  0
  7  8  2  0  0  0
  7 26  1  0  0  0
  7 29  1  0  0  0
  8  9  1  0  0  0
  8 22  1  0  0  0
  9 10  1  0  0  0
  9 27  2  0  0  0
 10 11  2  0  0  0
 10 15  1  0  0  0
 11 12  1  0  0  0
 11 95  1  0  0  0
 12 13  2  0  0  0
 12 96  1  0  0  0
 13 14  1  0  0  0
 13 31  1  0  0  0
 14 15  2  0  0  0
 14 97  1  0  0  0
 15 98  1  0  0  0
 16 17  2  0  0  0
 16 21  1  0  0  0
 16 31  1  0  0  0
 17 18  1  0  0  0
 17 99  1  0  0  0
 18 19  2  0  0  0
 18100  1  0  0  0
 19 20  1  0  0  0
 19 24  1  0  0  0
 20 21  2  0  0  0
 20101  1  0  0  0
 21 23  1  0  0  0
 22 28  1  0  0  0
 22 32  2  0  0  0
 26 27  1  0  0  0
 28102  1  0  0  0
 28103  1  0  0  0
 29104  1  0  0  0
 29105  1  0  0  0
 33 34  1  0  0  0
 33 66  1  0  0  0
 33 70  2  0  0  0
 34 36  1  0  0  0
 34 59  1  0  0  0
 34106  1  0  0  0
 35 44  2  0  0  0
 35 45  1  0  0  0
 35 68  1  0  0  0
 36 56  1  0  0  0
 36107  1  0  0  0
 37 39  1  0  0  0
 37 47  1  0  0  0
 37 66  1  0  0  0
 37108  1  0  0  0
 38 43  2  0  0  0
 38 46  1  0  0  0
 38 47  1  0  0  0
 39 64  1  0  0  0
 39 67  2  0  0  0
 40 52  1  0  0  0
 40 53  2  0  0  0
 40 58  1  0  0  0
 41109  1  0  0  0
 41110  1  0  0  0
 41111  1  0  0  0
 41 48  1  0  0  0
 42 43  1  0  0  0
 42 66  1  0  0  0
 42112  1  0  0  0
 42113  1  0  0  0
 43 44  1  0  0  0
 44114  1  0  0  0
 45 46  2  0  0  0
 45115  1  0  0  0
 46116  1  0  0  0
 47117  1  0  0  0
 47118  1  0  0  0
 48 56  1  0  0  0
 48 65  1  0  0  0
 48119  1  0  0  0
 49 50  1  0  0  0
 49 53  1  0  0  0
 49 64  1  0  0  0
 49120  1  0  0  0
 50 51  1  0  0  0
 50121  1  0  0  0
 50122  1  0  0  0
 51 52  1  0  0  0
 51123  1  0  0  0
 51124  1  0  0  0
 52125  1  0  0  0
 52126  1  0  0  0
 53 54  1  0  0  0
 54 55  2  0  0  0
 54127  1  0  0  0
 55 57  1  0  0  0
 55128  1  0  0  0
 56 69  2  0  0  0
 57 58  2  0  0  0
 57129  1  0  0  0
 58130  1  0  0  0
 59 60  1  0  0  0
 59 61  1  0  0  0
 59 62  1  0  0  0
 60131  1  0  0  0
 60132  1  0  0  0
 60133  1  0  0  0
 61134  1  0  0  0
 61135  1  0  0  0
 61136  1  0  0  0
 62137  1  0  0  0
 62138  1  0  0  0
 62139  1  0  0  0
 63 65  1  0  0  0
 63140  1  0  0  0
 63141  1  0  0  0
 63142  1  0  0  0
 64143  1  0  0  0
 65144  1  0  0  0
 68 80  1  0  0  0
 71 74  2  0  0  0
 71 75  1  0  0  0
 71145  1  0  0  0
 72 74  1  0  0  0
 72 76  2  0  0  0
 72146  1  0  0  0
 73 75  2  0  0  0
 73 76  1  0  0  0
 73147  1  0  0  0
 74 77  1  0  0  0
 75 82  1  0  0  0
 76 85  1  0  0  0
 77 83  1  0  0  0
 77 84  2  0  0  0
 78 79  1  0  0  0
 78 80  1  0  0  0
 78 81  2  0  0  0
 79 83  1  0  0  0
 79148  1  0  0  0
 79149  1  0  0  0
 80150  1  0  0  0
 80151  1  0  0  0
 81152  1  0  0  0
 82153  1  0  0  0
 83154  1  0  0  0
 84155  1  0  0  0
 84156  1  0  0  0
M  CHG  1  84   1
M  ISO  4   1 100  68 101  80 101  82 100
M  END
> <chiral flag>
0

> <version>
0

> <s_m_source_file>
/data/baiqing/PycharmProjects/Reinvent-master-3.2/result/LINK_invent/BTK/process_docking_weight1_custom_product_contain_oxygen_bond_distance_aromatic_linkinvent_7_9_3/rearranged_h_0166.sdf

> <i_m_source_file_index>
80

> <r_mmod_Potential_Energy-OPLS-2005>
-343.963745117188

> <r_mmod_Stretch_Energy-OPLS-2005>
44.6497535705566

> <r_mmod_Bend_Energy-OPLS-2005>
109.408386230469

> <r_mmod_Torsional_Energy-OPLS-2005>
215.146728515625

> <r_mmod_Improper_Torsional_Energy-OPLS-2005>
4.30134153366089

> <r_mmod_Van_der_Waal_Energy-OPLS-2005>
181.102676391602

> <r_mmod_Electrostatic_Energy-OPLS-2005>
-440.630279541016

> <r_mmod_Solvation_Energy-OPLS-2005>
-486.187469482422

> <b_mmod_Minimization_Converged-OPLS-2005>
0

> <r_mmod_RMS_Derivative-OPLS-2005>
5.25759077072144

$$$$
81
                    3D
 Structure written by MMmdl.
161169  0  0  1  0            999 V2000
  -30.7102  -14.5243   20.5737 C   0  0  0  0  0  0
  -30.4394  -12.3383   19.4434 C   0  0  0  0  0  0
  -29.5024  -12.4541   18.2184 C   0  0  0  0  0  0
  -28.0186  -12.3520   18.6268 C   0  0  0  0  0  0
  -27.6634  -13.1967   19.8790 C   0  0  2  0  0  0
  -28.7075  -12.9737   20.9895 C   0  0  0  0  0  0
  -25.2588  -13.8156   20.5653 C   0  0  0  0  0  0
  -24.1843  -13.0443   20.9146 C   0  0  0  0  0  0
  -24.6381  -11.6889   20.8736 C   0  0  0  0  0  0
  -23.9062  -10.4279   21.0395 C   0  0  0  0  0  0
  -24.3600   -9.4208   21.9185 C   0  0  0  0  0  0
  -23.6239   -8.2275   22.0773 C   0  0  0  0  0  0
  -22.4233   -8.0288   21.3549 C   0  0  0  0  0  0
  -21.9861   -9.0278   20.4676 C   0  0  0  0  0  0
  -22.7217  -10.2142   20.3069 C   0  0  0  0  0  0
  -21.6858   -6.0724   22.5268 C   0  0  0  0  0  0
  -21.4042   -6.5638   23.8197 C   0  0  0  0  0  0
  -21.3660   -5.6797   24.9159 C   0  0  0  0  0  0
  -21.6027   -4.3048   24.7216 C   0  0  0  0  0  0
  -21.8822   -3.8132   23.4342 C   0  0  0  0  0  0
  -21.9198   -4.6948   22.3396 C   0  0  0  0  0  0
  -22.7874  -13.5258   21.1746 C   0  0  0  0  0  0
  -22.1649   -4.2136   21.0963 F   0  0  0  0  0  0
  -21.5606   -3.4520   25.7730 F   0  0  0  0  0  0
  -30.0169  -13.3480   20.4339 N   0  0  0  0  0  0
  -26.3030  -12.9288   20.3386 N   0  0  0  0  0  0
  -25.9315  -11.6455   20.5801 N   0  0  0  0  0  0
  -22.0494  -12.8344   22.0341 N   0  0  0  0  0  0
  -25.4331  -15.1867   20.3997 N   0  0  0  0  0  0
  -31.8748  -14.6063   20.1691 O   0  0  0  0  0  0
  -21.6632   -6.8863   21.4220 O   0  0  0  0  0  0
  -22.3597  -14.5550   20.6534 O   0  0  0  0  0  0
  -24.6214  -31.8682   23.2101 C   0  0  0  0  0  0
  -25.9091  -32.4831   23.8413 C   0  0  1  0  0  0
  -27.2323  -27.4062   20.0770 C   0  0  0  0  0  0
  -25.5915  -33.8637   24.2340 N   0  0  0  0  0  0
  -23.4107  -30.4963   21.5516 C   0  0  2  0  0  0
  -24.8523  -28.9666   20.1206 C   0  0  0  0  0  0
  -22.7445  -29.4682   22.4956 C   0  0  0  0  0  0
  -18.0288  -28.1396   22.8504 C   0  0  0  0  0  0
  -24.1480  -36.7325   23.2624 C   0  0  0  0  0  0
  -25.9488  -30.8258   21.3685 C   0  0  0  0  0  0
  -26.0228  -29.4599   20.7137 C   0  0  0  0  0  0
  -27.2143  -28.6886   20.6885 C   0  0  0  0  0  0
  -26.0239  -26.9417   19.4895 C   0  0  0  0  0  0
  -24.8492  -27.7049   19.5148 C   0  0  0  0  0  0
  -23.6242  -29.8414   20.1669 C   0  0  0  0  0  0
  -25.4103  -36.3112   24.0322 C   0  0  1  0  0  0
  -20.5895  -28.3701   23.1282 C   0  0  2  0  0  0
  -20.6816  -26.9428   22.5411 C   0  0  0  0  0  0
  -19.5777  -26.6390   21.5235 C   0  0  0  0  0  0
  -18.1937  -26.7934   22.1632 C   0  0  0  0  0  0
  -19.1546  -28.8858   23.2898 C   0  0  0  0  0  0
  -18.9454  -30.1460   23.8908 C   0  0  0  0  0  0
  -17.6452  -30.6586   24.0565 C   0  0  0  0  0  0
  -25.9036  -34.9475   23.5120 C   0  0  0  0  0  0
  -16.5348  -29.9094   23.6326 C   0  0  0  0  0  0
  -16.7273  -28.6527   23.0334 C   0  0  0  0  0  0
  -26.4481  -31.6623   25.0749 C   0  0  0  0  0  0
  -25.3741  -31.3767   26.1495 C   0  0  0  0  0  0
  -27.0305  -30.3046   24.6183 C   0  0  0  0  0  0
  -27.6046  -32.4337   25.7535 C   0  0  0  0  0  0
  -27.5579  -37.1836   24.8452 C   0  0  0  0  0  0
  -21.4170  -29.3067   22.3691 N   0  0  0  0  0  0
  -26.4287  -37.3795   23.9398 N   0  0  0  0  0  0
  -24.6790  -31.0792   22.0999 N   0  0  0  0  0  0
  -23.4200  -28.8188   23.2975 O   0  0  0  0  0  0
  -28.3892  -26.6275   20.0814 O   0  0  0  0  0  0
  -26.5589  -34.8915   22.4676 O   0  0  0  0  0  0
  -23.5393  -32.1419   23.7455 O   0  0  0  0  0  0
  -29.5706  -19.3723   20.3572 C   0  0  0  0  0  0
  -27.8036  -20.0166   18.8678 C   0  0  0  0  0  0
  -29.5250  -18.0593   19.8054 C   0  0  0  0  0  0
  -28.7469  -20.4127   19.8457 C   0  0  0  0  0  0
  -28.6423  -17.8514   18.7088 C   0  0  0  0  0  0
  -28.2730  -25.3019   19.6958 C   0  0  0  0  0  0
  -28.6996  -24.2034   20.3690 C   0  0  0  0  0  0
  -28.2478  -22.8902   19.8647 C   0  0  0  0  0  0
  -28.8408  -16.9883   16.3126 C   0  0  0  0  0  0
  -29.1766  -15.8766   22.0105 C   0  0  0  0  0  0
  -30.5317  -16.9888   20.2945 C   0  0  0  0  0  0
  -28.6222  -16.6182   17.7906 C   0  0  0  0  0  0
  -27.7525  -18.7878   18.3303 N   0  0  0  0  0  0
  -28.9240  -21.7857   20.2888 N   0  0  0  0  0  0
  -30.0120  -15.6844   20.8178 N   0  0  0  0  0  0
  -27.2657  -22.8018   19.1291 O   0  0  0  0  0  0
  -29.4591  -24.3225   21.4701 O   0  0  0  0  0  0
  -27.4504  -15.9925   17.9102 F   0  0  0  0  0  0
  -29.5875  -15.7487   18.0445 F   0  0  0  0  0  0
  -30.3916  -11.3360   19.8786 H   0  0  0  0  0  0
  -31.4741  -12.4636   19.1193 H   0  0  0  0  0  0
  -29.7439  -11.6722   17.4962 H   0  0  0  0  0  0
  -29.6770  -13.3943   17.7005 H   0  0  0  0  0  0
  -27.8035  -11.3023   18.8216 H   0  0  0  0  0  0
  -27.3754  -12.6348   17.7940 H   0  0  0  0  0  0
  -27.7096  -14.2471   19.5998 H   0  0  0  0  0  0
  -28.7179  -11.9227   21.2802 H   0  0  0  0  0  0
  -28.4407  -13.4902   21.9041 H   0  0  0  0  0  0
  -25.2725   -9.5652   22.4789 H   0  0  0  0  0  0
  -23.9928   -7.4677   22.7507 H   0  0  0  0  0  0
  -21.0784   -8.8779   19.9004 H   0  0  0  0  0  0
  -22.3634  -10.9679   19.6191 H   0  0  0  0  0  0
  -21.2083   -7.6148   23.9668 H   0  0  0  0  0  0
  -21.1453   -6.0541   25.9057 H   0  0  0  0  0  0
  -22.0607   -2.7594   23.2831 H   0  0  0  0  0  0
  -22.4058  -11.9999   22.4768 H   0  0  0  0  0  0
  -21.1133  -13.1459   22.2541 H   0  0  0  0  0  0
  -24.6644  -15.8401   20.4931 H   0  0  0  0  0  0
  -26.2756  -15.6085   20.0299 H   0  0  0  0  0  0
  -26.7158  -32.5512   23.1169 H   0  0  0  0  0  0
  -25.0090  -33.9802   25.0511 H   0  0  0  0  0  0
  -22.6996  -31.3132   21.4130 H   0  0  0  0  0  0
  -23.3720  -35.9680   23.3292 H   0  0  0  0  0  0
  -24.3561  -36.8933   22.2033 H   0  0  0  0  0  0
  -23.7283  -37.6548   23.6648 H   0  0  0  0  0  0
  -26.0715  -31.5942   20.6040 H   0  0  0  0  0  0
  -26.8352  -30.8751   21.9893 H   0  0  0  0  0  0
  -28.1177  -29.0730   21.1442 H   0  0  0  0  0  0
  -25.9328  -25.9804   19.0081 H   0  0  0  0  0  0
  -23.9487  -27.3137   19.0576 H   0  0  0  0  0  0
  -23.7477  -30.6182   19.4119 H   0  0  0  0  0  0
  -22.7464  -29.2705   19.8639 H   0  0  0  0  0  0
  -25.1295  -36.1945   25.0819 H   0  0  0  0  0  0
  -21.0017  -28.3282   24.1387 H   0  0  0  0  0  0
  -20.5755  -26.2304   23.3614 H   0  0  0  0  0  0
  -21.6678  -26.7479   22.1179 H   0  0  0  0  0  0
  -19.6935  -25.6312   21.1243 H   0  0  0  0  0  0
  -19.6692  -27.3213   20.6780 H   0  0  0  0  0  0
  -17.4232  -26.6667   21.4008 H   0  0  0  0  0  0
  -18.0309  -26.0075   22.9033 H   0  0  0  0  0  0
  -19.7912  -30.7294   24.2266 H   0  0  0  0  0  0
  -17.4985  -31.6247   24.5175 H   0  0  0  0  0  0
  -15.5342  -30.2988   23.7646 H   0  0  0  0  0  0
  -15.8676  -28.0843   22.7037 H   0  0  0  0  0  0
  -24.5890  -30.7126   25.7862 H   0  0  0  0  0  0
  -24.8952  -32.2933   26.4951 H   0  0  0  0  0  0
  -25.8069  -30.8937   27.0269 H   0  0  0  0  0  0
  -26.2879  -29.6820   24.1169 H   0  0  0  0  0  0
  -27.3957  -29.7272   25.4695 H   0  0  0  0  0  0
  -27.8761  -30.4317   23.9417 H   0  0  0  0  0  0
  -27.2666  -33.3624   26.2154 H   0  0  0  0  0  0
  -28.3867  -32.6938   25.0390 H   0  0  0  0  0  0
  -28.0716  -31.8437   26.5435 H   0  0  0  0  0  0
  -28.2622  -38.0113   24.7498 H   0  0  0  0  0  0
  -28.1049  -36.2657   24.6278 H   0  0  0  0  0  0
  -27.2281  -37.1496   25.8847 H   0  0  0  0  0  0
  -20.9318  -29.8751   21.6897 H   0  0  0  0  0  0
  -26.0142  -38.2850   24.1426 H   0  0  0  0  0  0
  -30.2902  -19.6033   21.1315 H   0  0  0  0  0  0
  -27.0821  -20.6681   18.4113 H   0  0  0  0  0  0
  -27.7540  -25.2017   18.7563 H   0  0  0  0  0  0
  -28.0653  -17.6550   15.9410 H   0  0  0  0  0  0
  -28.8389  -16.1046   15.6748 H   0  0  0  0  0  0
  -29.7992  -17.4879   16.1684 H   0  0  0  0  0  0
  -29.2686  -16.8852   22.4168 H   0  0  0  0  0  0
  -29.4668  -15.2021   22.8182 H   0  0  0  0  0  0
  -28.1231  -15.7193   21.7840 H   0  0  0  0  0  0
  -31.2045  -16.8318   19.4511 H   0  0  0  0  0  0
  -31.1750  -17.4208   21.0617 H   0  0  0  0  0  0
  -29.7101  -21.9518   20.8995 H   0  0  0  0  0  0
  -29.5656  -23.4605   21.8460 H   0  0  0  0  0  0
  1 25  1  0  0  0
  1 30  2  0  0  0
  1 85  1  0  0  0
  2  3  1  0  0  0
  2 25  1  0  0  0
  2 90  1  0  0  0
  2 91  1  0  0  0
  3  4  1  0  0  0
  3 92  1  0  0  0
  3 93  1  0  0  0
  4  5  1  0  0  0
  4 94  1  0  0  0
  4 95  1  0  0  0
  5  6  1  0  0  0
  5 26  1  0  0  0
  5 96  1  0  0  0
  6 25  1  0  0  0
  6 97  1  0  0  0
  6 98  1  0  0  0
  7  8  2  0  0  0
  7 26  1  0  0  0
  7 29  1  0  0  0
  8  9  1  0  0  0
  8 22  1  0  0  0
  9 10  1  0  0  0
  9 27  2  0  0  0
 10 11  2  0  0  0
 10 15  1  0  0  0
 11 12  1  0  0  0
 11 99  1  0  0  0
 12 13  2  0  0  0
 12100  1  0  0  0
 13 14  1  0  0  0
 13 31  1  0  0  0
 14 15  2  0  0  0
 14101  1  0  0  0
 15102  1  0  0  0
 16 17  2  0  0  0
 16 21  1  0  0  0
 16 31  1  0  0  0
 17 18  1  0  0  0
 17103  1  0  0  0
 18 19  2  0  0  0
 18104  1  0  0  0
 19 20  1  0  0  0
 19 24  1  0  0  0
 20 21  2  0  0  0
 20105  1  0  0  0
 21 23  1  0  0  0
 22 28  1  0  0  0
 22 32  2  0  0  0
 26 27  1  0  0  0
 28106  1  0  0  0
 28107  1  0  0  0
 29108  1  0  0  0
 29109  1  0  0  0
 33 34  1  0  0  0
 33 66  1  0  0  0
 33 70  2  0  0  0
 34 36  1  0  0  0
 34 59  1  0  0  0
 34110  1  0  0  0
 35 44  2  0  0  0
 35 45  1  0  0  0
 35 68  1  0  0  0
 36 56  1  0  0  0
 36111  1  0  0  0
 37 39  1  0  0  0
 37 47  1  0  0  0
 37 66  1  0  0  0
 37112  1  0  0  0
 38 43  2  0  0  0
 38 46  1  0  0  0
 38 47  1  0  0  0
 39 64  1  0  0  0
 39 67  2  0  0  0
 40 52  1  0  0  0
 40 53  2  0  0  0
 40 58  1  0  0  0
 41113  1  0  0  0
 41114  1  0  0  0
 41115  1  0  0  0
 41 48  1  0  0  0
 42 43  1  0  0  0
 42 66  1  0  0  0
 42116  1  0  0  0
 42117  1  0  0  0
 43 44  1  0  0  0
 44118  1  0  0  0
 45 46  2  0  0  0
 45119  1  0  0  0
 46120  1  0  0  0
 47121  1  0  0  0
 47122  1  0  0  0
 48 56  1  0  0  0
 48 65  1  0  0  0
 48123  1  0  0  0
 49 50  1  0  0  0
 49 53  1  0  0  0
 49 64  1  0  0  0
 49124  1  0  0  0
 50 51  1  0  0  0
 50125  1  0  0  0
 50126  1  0  0  0
 51 52  1  0  0  0
 51127  1  0  0  0
 51128  1  0  0  0
 52129  1  0  0  0
 52130  1  0  0  0
 53 54  1  0  0  0
 54 55  2  0  0  0
 54131  1  0  0  0
 55 57  1  0  0  0
 55132  1  0  0  0
 56 69  2  0  0  0
 57 58  2  0  0  0
 57133  1  0  0  0
 58134  1  0  0  0
 59 60  1  0  0  0
 59 61  1  0  0  0
 59 62  1  0  0  0
 60135  1  0  0  0
 60136  1  0  0  0
 60137  1  0  0  0
 61138  1  0  0  0
 61139  1  0  0  0
 61140  1  0  0  0
 62141  1  0  0  0
 62142  1  0  0  0
 62143  1  0  0  0
 63 65  1  0  0  0
 63144  1  0  0  0
 63145  1  0  0  0
 63146  1  0  0  0
 64147  1  0  0  0
 65148  1  0  0  0
 68 76  1  0  0  0
 71 73  2  0  0  0
 71 74  1  0  0  0
 71149  1  0  0  0
 72 74  2  0  0  0
 72 83  1  0  0  0
 72150  1  0  0  0
 73 75  1  0  0  0
 73 81  1  0  0  0
 74 84  1  0  0  0
 75 82  1  0  0  0
 75 83  2  0  0  0
 76 77  2  0  0  0
 76151  1  0  0  0
 77 78  1  0  0  0
 77 87  1  0  0  0
 78 84  1  0  0  0
 78 86  2  0  0  0
 79152  1  0  0  0
 79153  1  0  0  0
 79154  1  0  0  0
 79 82  1  0  0  0
 80 85  1  0  0  0
 80155  1  0  0  0
 80156  1  0  0  0
 80157  1  0  0  0
 81 85  1  0  0  0
 81158  1  0  0  0
 81159  1  0  0  0
 82 88  1  0  0  0
 82 89  1  0  0  0
 84160  1  0  0  0
 87161  1  0  0  0
M  ISO  4   1 100  68 101  76 101  85 100
M  END
> <chiral flag>
0

> <version>
0

> <s_m_source_file>
/data/baiqing/PycharmProjects/Reinvent-master-3.2/result/LINK_invent/BTK/process_docking_weight1_custom_product_contain_oxygen_bond_distance_aromatic_linkinvent_7_9_3/rearranged_h_0166.sdf

> <i_m_source_file_index>
81

> <r_mmod_Potential_Energy-OPLS-2005>
-22.0230770111084

> <r_mmod_Stretch_Energy-OPLS-2005>
57.8088798522949

> <r_mmod_Bend_Energy-OPLS-2005>
136.277221679688

> <r_mmod_Torsional_Energy-OPLS-2005>
269.792022705078

> <r_mmod_Improper_Torsional_Energy-OPLS-2005>
13.0402755737305

> <r_mmod_Van_der_Waal_Energy-OPLS-2005>
191.159561157227

> <r_mmod_Electrostatic_Energy-OPLS-2005>
-479.876586914062

> <r_mmod_Solvation_Energy-OPLS-2005>
-232.07585144043

> <b_mmod_Minimization_Converged-OPLS-2005>
0

> <r_mmod_RMS_Derivative-OPLS-2005>
5.55570554733276

$$$$
82
                    3D
 Structure written by MMmdl.
167175  0  0  1  0            999 V2000
  -30.7171  -14.5321   20.5324 C   0  0  0  0  0  0
  -30.4019  -12.3322   19.4601 C   0  0  0  0  0  0
  -29.4995  -12.5160   18.2241 C   0  0  0  0  0  0
  -28.0196  -12.3686   18.6209 C   0  0  0  0  0  0
  -27.6516  -13.2251   19.8643 C   0  0  2  0  0  0
  -28.6863  -13.0728   21.0025 C   0  0  0  0  0  0
  -25.2528  -13.8191   20.5674 C   0  0  0  0  0  0
  -24.1807  -13.0451   20.9135 C   0  0  0  0  0  0
  -24.6379  -11.6918   20.8648 C   0  0  0  0  0  0
  -23.9078  -10.4310   21.0370 C   0  0  0  0  0  0
  -24.3638   -9.4231   21.9167 C   0  0  0  0  0  0
  -23.6302   -8.2270   22.0745 C   0  0  0  0  0  0
  -22.4292   -8.0295   21.3526 C   0  0  0  0  0  0
  -21.9926   -9.0266   20.4634 C   0  0  0  0  0  0
  -22.7249  -10.2128   20.3032 C   0  0  0  0  0  0
  -21.6865   -6.0740   22.5273 C   0  0  0  0  0  0
  -21.4028   -6.5642   23.8206 C   0  0  0  0  0  0
  -21.3647   -5.6801   24.9170 C   0  0  0  0  0  0
  -21.6031   -4.3061   24.7247 C   0  0  0  0  0  0
  -21.8800   -3.8152   23.4368 C   0  0  0  0  0  0
  -21.9187   -4.6963   22.3405 C   0  0  0  0  0  0
  -22.7823  -13.5222   21.1823 C   0  0  0  0  0  0
  -22.1668   -4.2144   21.0984 F   0  0  0  0  0  0
  -21.5621   -3.4550   25.7756 F   0  0  0  0  0  0
  -30.0182  -13.3592   20.4513 N   0  0  0  0  0  0
  -26.2958  -12.9394   20.3293 N   0  0  0  0  0  0
  -25.9294  -11.6528   20.5658 N   0  0  0  0  0  0
  -22.0473  -12.8238   22.0369 N   0  0  0  0  0  0
  -25.4260  -15.1937   20.4173 N   0  0  0  0  0  0
  -31.8436  -14.6171   20.0341 O   0  0  0  0  0  0
  -21.6656   -6.8901   21.4250 O   0  0  0  0  0  0
  -22.3521  -14.5523   20.6652 O   0  0  0  0  0  0
  -24.6196  -31.8648   23.2110 C   0  0  0  0  0  0
  -25.9084  -32.4811   23.8380 C   0  0  1  0  0  0
  -27.2153  -27.3892   20.0998 C   0  0  0  0  0  0
  -25.5906  -33.8606   24.2302 N   0  0  0  0  0  0
  -23.4067  -30.4958   21.5518 C   0  0  2  0  0  0
  -24.8464  -28.9589   20.1101 C   0  0  0  0  0  0
  -22.7383  -29.4716   22.4962 C   0  0  0  0  0  0
  -18.0260  -28.1435   22.8529 C   0  0  0  0  0  0
  -24.1452  -36.7325   23.2644 C   0  0  0  0  0  0
  -25.9379  -30.8218   21.3635 C   0  0  0  0  0  0
  -26.0103  -29.4519   20.7123 C   0  0  0  0  0  0
  -27.1943  -28.6730   20.7067 C   0  0  0  0  0  0
  -26.0267  -26.9206   19.4953 C   0  0  0  0  0  0
  -24.8539  -27.6961   19.4974 C   0  0  0  0  0  0
  -23.6112  -29.8305   20.1645 C   0  0  0  0  0  0
  -25.4074  -36.3095   24.0322 C   0  0  1  0  0  0
  -20.5844  -28.3743   23.1313 C   0  0  2  0  0  0
  -20.6760  -26.9472   22.5439 C   0  0  0  0  0  0
  -19.5736  -26.6430   21.5251 C   0  0  0  0  0  0
  -18.1896  -26.7994   22.1641 C   0  0  0  0  0  0
  -19.1502  -28.8893   23.2928 C   0  0  0  0  0  0
  -18.9431  -30.1488   23.8952 C   0  0  0  0  0  0
  -17.6447  -30.6642   24.0597 C   0  0  0  0  0  0
  -25.9007  -34.9466   23.5092 C   0  0  0  0  0  0
  -16.5332  -29.9158   23.6365 C   0  0  0  0  0  0
  -16.7250  -28.6571   23.0373 C   0  0  0  0  0  0
  -26.4489  -31.6654   25.0763 C   0  0  0  0  0  0
  -25.3706  -31.3801   26.1478 C   0  0  0  0  0  0
  -27.0405  -30.3101   24.6240 C   0  0  0  0  0  0
  -27.6026  -32.4427   25.7541 C   0  0  0  0  0  0
  -27.5563  -37.1787   24.8442 C   0  0  0  0  0  0
  -21.4103  -29.3119   22.3703 N   0  0  0  0  0  0
  -26.4259  -37.3788   23.9415 N   0  0  0  0  0  0
  -24.6746  -31.0724   22.1029 N   0  0  0  0  0  0
  -23.4137  -28.8207   23.2976 O   0  0  0  0  0  0
  -28.3782  -26.6331   20.1406 O   0  0  0  0  0  0
  -26.5575  -34.8943   22.4646 O   0  0  0  0  0  0
  -23.5391  -32.1430   23.7505 O   0  0  0  0  0  0
  -29.1664  -19.1936   20.7657 C   0  0  0  0  0  0
  -30.3033  -21.0330   21.8384 C   0  0  0  0  0  0
  -30.2312  -18.3336   21.1677 C   0  0  0  0  0  0
  -29.2055  -20.5891   21.0689 C   0  0  0  0  0  0
  -31.3130  -18.9412   21.8664 C   0  0  0  0  0  0
  -30.4257  -16.9483   20.6407 C   0  0  0  0  0  0
  -30.1007  -15.7251   21.1527 C   0  0  0  0  0  0
  -28.0962  -24.1131   20.3538 C   0  0  0  0  0  0
  -33.8781  -18.6174   24.3131 C   0  0  0  0  0  0
  -31.6460  -17.4698   24.3985 C   0  0  0  0  0  0
  -33.6333  -16.2978   23.4409 C   0  0  0  0  0  0
  -32.6466  -18.2220   22.1294 C   0  0  0  0  0  0
  -28.6498  -22.7281   19.8925 C   0  0  0  0  0  0
  -28.4562  -25.3462   19.4684 C   0  0  0  0  0  0
  -32.9260  -17.6641   23.5622 C   0  0  0  0  0  0
  -31.3216  -20.2437   22.2279 N   0  0  0  0  0  0
  -28.2131  -21.5102   20.6287 N   0  0  0  0  0  0
  -27.3989  -24.2160   21.3699 O   0  0  0  0  0  0
  -31.4505  -12.3864   19.1655 H   0  0  0  0  0  0
  -30.2708  -11.3364   19.8847 H   0  0  0  0  0  0
  -29.7584  -11.7882   17.4540 H   0  0  0  0  0  0
  -29.6695  -13.5013   17.7873 H   0  0  0  0  0  0
  -27.8312  -11.3124   18.8207 H   0  0  0  0  0  0
  -27.3802  -12.6336   17.7785 H   0  0  0  0  0  0
  -27.6820  -14.2648   19.5329 H   0  0  0  0  0  0
  -28.6603  -12.0558   21.3959 H   0  0  0  0  0  0
  -28.4291  -13.7175   21.8416 H   0  0  0  0  0  0
  -25.2768   -9.5742   22.4751 H   0  0  0  0  0  0
  -23.9993   -7.4702   22.7522 H   0  0  0  0  0  0
  -21.0840   -8.8809   19.8980 H   0  0  0  0  0  0
  -22.3699  -10.9688   19.6161 H   0  0  0  0  0  0
  -21.2017   -7.6156   23.9719 H   0  0  0  0  0  0
  -21.1493   -6.0537   25.9077 H   0  0  0  0  0  0
  -22.0565   -2.7609   23.2877 H   0  0  0  0  0  0
  -22.4135  -11.9905   22.4739 H   0  0  0  0  0  0
  -21.1091  -13.1279   22.2573 H   0  0  0  0  0  0
  -24.6594  -15.8477   20.5229 H   0  0  0  0  0  0
  -26.2921  -15.6334   20.1359 H   0  0  0  0  0  0
  -26.7164  -32.5512   23.1147 H   0  0  0  0  0  0
  -25.0022  -33.9745   25.0431 H   0  0  0  0  0  0
  -22.7027  -31.3192   21.4143 H   0  0  0  0  0  0
  -23.3709  -35.9653   23.3263 H   0  0  0  0  0  0
  -24.3544  -36.9014   22.2069 H   0  0  0  0  0  0
  -23.7221  -37.6511   23.6713 H   0  0  0  0  0  0
  -26.0372  -31.5779   20.5832 H   0  0  0  0  0  0
  -26.8329  -30.8908   21.9714 H   0  0  0  0  0  0
  -28.0894  -29.0457   21.1866 H   0  0  0  0  0  0
  -25.9659  -25.9463   19.0350 H   0  0  0  0  0  0
  -23.9566  -27.3115   19.0315 H   0  0  0  0  0  0
  -23.7089  -30.6090   19.4072 H   0  0  0  0  0  0
  -22.7337  -29.2490   19.8742 H   0  0  0  0  0  0
  -25.1251  -36.1924   25.0811 H   0  0  0  0  0  0
  -20.9965  -28.3354   24.1428 H   0  0  0  0  0  0
  -20.5731  -26.2334   23.3634 H   0  0  0  0  0  0
  -21.6618  -26.7545   22.1199 H   0  0  0  0  0  0
  -19.6886  -25.6337   21.1291 H   0  0  0  0  0  0
  -19.6683  -27.3223   20.6771 H   0  0  0  0  0  0
  -17.4172  -26.6786   21.4026 H   0  0  0  0  0  0
  -18.0269  -26.0136   22.9035 H   0  0  0  0  0  0
  -19.7883  -30.7305   24.2373 H   0  0  0  0  0  0
  -17.4984  -31.6332   24.5161 H   0  0  0  0  0  0
  -15.5337  -30.3056   23.7690 H   0  0  0  0  0  0
  -15.8639  -28.0907   22.7075 H   0  0  0  0  0  0
  -24.5851  -30.7200   25.7795 H   0  0  0  0  0  0
  -24.8927  -32.2992   26.4885 H   0  0  0  0  0  0
  -25.7995  -30.8979   27.0273 H   0  0  0  0  0  0
  -26.3050  -29.6790   24.1255 H   0  0  0  0  0  0
  -27.4130  -29.7420   25.4779 H   0  0  0  0  0  0
  -27.8855  -30.4423   23.9472 H   0  0  0  0  0  0
  -27.2612  -33.3740   26.2067 H   0  0  0  0  0  0
  -28.3865  -32.6992   25.0404 H   0  0  0  0  0  0
  -28.0662  -31.8603   26.5516 H   0  0  0  0  0  0
  -28.2514  -38.0145   24.7573 H   0  0  0  0  0  0
  -28.1122  -36.2684   24.6147 H   0  0  0  0  0  0
  -27.2292  -37.1311   25.8843 H   0  0  0  0  0  0
  -20.9229  -29.8822   21.6923 H   0  0  0  0  0  0
  -26.0130  -38.2837   24.1491 H   0  0  0  0  0  0
  -28.3593  -18.7958   20.1654 H   0  0  0  0  0  0
  -30.3856  -22.0699   22.1289 H   0  0  0  0  0  0
  -31.0058  -16.9552   19.7266 H   0  0  0  0  0  0
  -29.4812  -15.6408   22.0312 H   0  0  0  0  0  0
  -34.0969  -18.2583   25.3207 H   0  0  0  0  0  0
  -33.4494  -19.6162   24.4077 H   0  0  0  0  0  0
  -34.8340  -18.7175   23.7940 H   0  0  0  0  0  0
  -31.8784  -17.0530   25.3802 H   0  0  0  0  0  0
  -30.9537  -16.7849   23.9063 H   0  0  0  0  0  0
  -31.1237  -18.4125   24.5646 H   0  0  0  0  0  0
  -33.9400  -15.9098   24.4133 H   0  0  0  0  0  0
  -34.5297  -16.3692   22.8242 H   0  0  0  0  0  0
  -32.9878  -15.5465   22.9837 H   0  0  0  0  0  0
  -33.4472  -18.9043   21.8366 H   0  0  0  0  0  0
  -32.7543  -17.4147   21.4079 H   0  0  0  0  0  0
  -29.7386  -22.7941   19.8667 H   0  0  0  0  0  0
  -28.3414  -22.6051   18.8533 H   0  0  0  0  0  0
  -27.8676  -25.3263   18.5530 H   0  0  0  0  0  0
  -29.4865  -25.2205   19.1399 H   0  0  0  0  0  0
  -27.3409  -21.1120   20.2844 H   0  0  0  0  0  0
  1 25  1  0  0  0
  1 30  2  0  0  0
  1 77  1  0  0  0
  2  3  1  0  0  0
  2 25  1  0  0  0
  2 89  1  0  0  0
  2 90  1  0  0  0
  3  4  1  0  0  0
  3 91  1  0  0  0
  3 92  1  0  0  0
  4  5  1  0  0  0
  4 93  1  0  0  0
  4 94  1  0  0  0
  5  6  1  0  0  0
  5 26  1  0  0  0
  5 95  1  0  0  0
  6 25  1  0  0  0
  6 96  1  0  0  0
  6 97  1  0  0  0
  7  8  2  0  0  0
  7 26  1  0  0  0
  7 29  1  0  0  0
  8  9  1  0  0  0
  8 22  1  0  0  0
  9 10  1  0  0  0
  9 27  2  0  0  0
 10 11  2  0  0  0
 10 15  1  0  0  0
 11 12  1  0  0  0
 11 98  1  0  0  0
 12 13  2  0  0  0
 12 99  1  0  0  0
 13 14  1  0  0  0
 13 31  1  0  0  0
 14 15  2  0  0  0
 14100  1  0  0  0
 15101  1  0  0  0
 16 17  2  0  0  0
 16 21  1  0  0  0
 16 31  1  0  0  0
 17 18  1  0  0  0
 17102  1  0  0  0
 18 19  2  0  0  0
 18103  1  0  0  0
 19 20  1  0  0  0
 19 24  1  0  0  0
 20 21  2  0  0  0
 20104  1  0  0  0
 21 23  1  0  0  0
 22 28  1  0  0  0
 22 32  2  0  0  0
 26 27  1  0  0  0
 28105  1  0  0  0
 28106  1  0  0  0
 29107  1  0  0  0
 29108  1  0  0  0
 33 34  1  0  0  0
 33 66  1  0  0  0
 33 70  2  0  0  0
 34 36  1  0  0  0
 34 59  1  0  0  0
 34109  1  0  0  0
 35 44  2  0  0  0
 35 45  1  0  0  0
 35 68  1  0  0  0
 36 56  1  0  0  0
 36110  1  0  0  0
 37 39  1  0  0  0
 37 47  1  0  0  0
 37 66  1  0  0  0
 37111  1  0  0  0
 38 43  2  0  0  0
 38 46  1  0  0  0
 38 47  1  0  0  0
 39 64  1  0  0  0
 39 67  2  0  0  0
 40 52  1  0  0  0
 40 53  2  0  0  0
 40 58  1  0  0  0
 41112  1  0  0  0
 41113  1  0  0  0
 41114  1  0  0  0
 41 48  1  0  0  0
 42 43  1  0  0  0
 42 66  1  0  0  0
 42115  1  0  0  0
 42116  1  0  0  0
 43 44  1  0  0  0
 44117  1  0  0  0
 45 46  2  0  0  0
 45118  1  0  0  0
 46119  1  0  0  0
 47120  1  0  0  0
 47121  1  0  0  0
 48 56  1  0  0  0
 48 65  1  0  0  0
 48122  1  0  0  0
 49 50  1  0  0  0
 49 53  1  0  0  0
 49 64  1  0  0  0
 49123  1  0  0  0
 50 51  1  0  0  0
 50124  1  0  0  0
 50125  1  0  0  0
 51 52  1  0  0  0
 51126  1  0  0  0
 51127  1  0  0  0
 52128  1  0  0  0
 52129  1  0  0  0
 53 54  1  0  0  0
 54 55  2  0  0  0
 54130  1  0  0  0
 55 57  1  0  0  0
 55131  1  0  0  0
 56 69  2  0  0  0
 57 58  2  0  0  0
 57132  1  0  0  0
 58133  1  0  0  0
 59 60  1  0  0  0
 59 61  1  0  0  0
 59 62  1  0  0  0
 60134  1  0  0  0
 60135  1  0  0  0
 60136  1  0  0  0
 61137  1  0  0  0
 61138  1  0  0  0
 61139  1  0  0  0
 62140  1  0  0  0
 62141  1  0  0  0
 62142  1  0  0  0
 63 65  1  0  0  0
 63143  1  0  0  0
 63144  1  0  0  0
 63145  1  0  0  0
 64146  1  0  0  0
 65147  1  0  0  0
 68 84  1  0  0  0
 71 73  2  0  0  0
 71 74  1  0  0  0
 71148  1  0  0  0
 72 74  2  0  0  0
 72 86  1  0  0  0
 72149  1  0  0  0
 73 75  1  0  0  0
 73 76  1  0  0  0
 74 87  1  0  0  0
 75 82  1  0  0  0
 75 86  2  0  0  0
 76 77  2  0  0  0
 76150  1  0  0  0
 77151  1  0  0  0
 78 83  1  0  0  0
 78 84  1  0  0  0
 78 88  2  0  0  0
 79152  1  0  0  0
 79153  1  0  0  0
 79154  1  0  0  0
 79 85  1  0  0  0
 80 85  1  0  0  0
 80155  1  0  0  0
 80156  1  0  0  0
 80157  1  0  0  0
 81 85  1  0  0  0
 81158  1  0  0  0
 81159  1  0  0  0
 81160  1  0  0  0
 82 85  1  0  0  0
 82161  1  0  0  0
 82162  1  0  0  0
 83 87  1  0  0  0
 83163  1  0  0  0
 83164  1  0  0  0
 84165  1  0  0  0
 84166  1  0  0  0
 87167  1  0  0  0
M  ISO  4   1 100  68 101  77 100  84 101
M  END
> <chiral flag>
0

> <version>
0

> <s_m_source_file>
/data/baiqing/PycharmProjects/Reinvent-master-3.2/result/LINK_invent/BTK/process_docking_weight1_custom_product_contain_oxygen_bond_distance_aromatic_linkinvent_7_9_3/rearranged_h_0166.sdf

> <i_m_source_file_index>
82

> <r_mmod_Potential_Energy-OPLS-2005>
160.530288696289

> <r_mmod_Stretch_Energy-OPLS-2005>
56.3991203308105

> <r_mmod_Bend_Energy-OPLS-2005>
142.294311523438

> <r_mmod_Torsional_Energy-OPLS-2005>
210.529525756836

> <r_mmod_Improper_Torsional_Energy-OPLS-2005>
9.97201061248779

> <r_mmod_Van_der_Waal_Energy-OPLS-2005>
153.543746948242

> <r_mmod_Electrostatic_Energy-OPLS-2005>
-195.646331787109

> <r_mmod_Solvation_Energy-OPLS-2005>
-240.259353637695

> <b_mmod_Minimization_Converged-OPLS-2005>
0

> <r_mmod_RMS_Derivative-OPLS-2005>
4.16030502319336

$$$$
83
                    3D
 Structure written by MMmdl.
155163  0  0  1  0            999 V2000
  -30.7136  -14.4842   20.5622 C   0  0  0  0  0  0
  -30.4168  -12.3121   19.4293 C   0  0  0  0  0  0
  -29.4932  -12.5015   18.2091 C   0  0  0  0  0  0
  -28.0149  -12.3616   18.6219 C   0  0  0  0  0  0
  -27.6583  -13.2118   19.8714 C   0  0  2  0  0  0
  -28.7010  -13.0167   20.9961 C   0  0  0  0  0  0
  -25.2573  -13.8176   20.5683 C   0  0  0  0  0  0
  -24.1830  -13.0441   20.9172 C   0  0  0  0  0  0
  -24.6393  -11.6912   20.8734 C   0  0  0  0  0  0
  -23.9065  -10.4294   21.0403 C   0  0  0  0  0  0
  -24.3617   -9.4210   21.9181 C   0  0  0  0  0  0
  -23.6292   -8.2245   22.0754 C   0  0  0  0  0  0
  -22.4273   -8.0282   21.3545 C   0  0  0  0  0  0
  -21.9910   -9.0255   20.4646 C   0  0  0  0  0  0
  -22.7238  -10.2133   20.3053 C   0  0  0  0  0  0
  -21.6853   -6.0738   22.5280 C   0  0  0  0  0  0
  -21.4012   -6.5640   23.8213 C   0  0  0  0  0  0
  -21.3658   -5.6792   24.9175 C   0  0  0  0  0  0
  -21.6044   -4.3056   24.7225 C   0  0  0  0  0  0
  -21.8820   -3.8149   23.4345 C   0  0  0  0  0  0
  -21.9192   -4.6966   22.3402 C   0  0  0  0  0  0
  -22.7853  -13.5236   21.1838 C   0  0  0  0  0  0
  -22.1661   -4.2150   21.0980 F   0  0  0  0  0  0
  -21.5629   -3.4539   25.7737 F   0  0  0  0  0  0
  -30.0301  -13.3128   20.4379 N   0  0  0  0  0  0
  -26.3011  -12.9355   20.3363 N   0  0  0  0  0  0
  -25.9323  -11.6511   20.5773 N   0  0  0  0  0  0
  -22.0497  -12.8226   22.0396 N   0  0  0  0  0  0
  -25.4290  -15.1898   20.4111 N   0  0  0  0  0  0
  -31.8451  -14.6305   20.0938 O   0  0  0  0  0  0
  -21.6639   -6.8878   21.4241 O   0  0  0  0  0  0
  -22.3536  -14.5545   20.6692 O   0  0  0  0  0  0
  -24.6160  -31.8673   23.2091 C   0  0  0  0  0  0
  -25.9051  -32.4818   23.8391 C   0  0  1  0  0  0
  -27.2277  -27.4256   20.1001 C   0  0  0  0  0  0
  -25.5907  -33.8616   24.2327 N   0  0  0  0  0  0
  -23.4044  -30.4910   21.5495 C   0  0  2  0  0  0
  -24.8518  -28.9585   20.1105 C   0  0  0  0  0  0
  -22.7418  -29.4657   22.4979 C   0  0  0  0  0  0
  -18.0275  -28.1381   22.8491 C   0  0  0  0  0  0
  -24.1486  -36.7307   23.2638 C   0  0  0  0  0  0
  -25.9345  -30.8323   21.3619 C   0  0  0  0  0  0
  -26.0136  -29.4670   20.7067 C   0  0  0  0  0  0
  -27.2094  -28.7089   20.6958 C   0  0  0  0  0  0
  -26.0539  -26.9380   19.4886 C   0  0  0  0  0  0
  -24.8677  -27.6947   19.4954 C   0  0  0  0  0  0
  -23.6128  -29.8248   20.1635 C   0  0  0  0  0  0
  -25.4106  -36.3107   24.0337 C   0  0  1  0  0  0
  -20.5867  -28.3667   23.1312 C   0  0  2  0  0  0
  -20.6767  -26.9402   22.5415 C   0  0  0  0  0  0
  -19.5744  -26.6390   21.5214 C   0  0  0  0  0  0
  -18.1922  -26.7929   22.1623 C   0  0  0  0  0  0
  -19.1525  -28.8840   23.2901 C   0  0  0  0  0  0
  -18.9453  -30.1448   23.8909 C   0  0  0  0  0  0
  -17.6455  -30.6587   24.0566 C   0  0  0  0  0  0
  -25.9035  -34.9472   23.5128 C   0  0  0  0  0  0
  -16.5345  -29.9088   23.6331 C   0  0  0  0  0  0
  -16.7263  -28.6506   23.0348 C   0  0  0  0  0  0
  -26.4474  -31.6589   25.0715 C   0  0  0  0  0  0
  -25.3740  -31.3702   26.1463 C   0  0  0  0  0  0
  -27.0294  -30.3029   24.6083 C   0  0  0  0  0  0
  -27.6059  -32.4295   25.7478 C   0  0  0  0  0  0
  -27.5577  -37.1807   24.8466 C   0  0  0  0  0  0
  -21.4143  -29.3034   22.3717 N   0  0  0  0  0  0
  -26.4292  -37.3790   23.9409 N   0  0  0  0  0  0
  -24.6700  -31.0773   22.0989 N   0  0  0  0  0  0
  -23.4186  -28.8198   23.3025 O   0  0  0  0  0  0
  -28.3496  -26.6258   20.1338 O   0  0  0  0  0  0
  -26.5596  -34.8924   22.4689 O   0  0  0  0  0  0
  -23.5350  -32.1422   23.7485 O   0  0  0  0  0  0
  -32.1057  -18.6680   21.3646 C   0  0  0  0  0  0
  -31.1047  -19.6555   21.3081 C   0  0  0  0  0  0
  -31.7672  -17.3052   21.2900 C   0  0  0  0  0  0
  -29.7450  -19.2959   21.1701 C   0  0  0  0  0  0
  -30.4173  -16.9045   21.1401 C   0  0  0  0  0  0
  -29.4130  -17.9081   21.0899 C   0  0  0  0  0  0
  -28.7233  -20.3732   21.1844 C   0  0  0  0  0  0
  -28.7499  -24.1557   20.3890 C   0  0  0  0  0  0
  -28.1077  -22.8319   20.8600 C   0  0  0  0  0  0
  -28.1622  -25.4622   20.9729 C   0  0  0  0  0  0
  -30.0245  -15.5223   21.0841 N   0  0  0  0  0  0
  -28.9846  -21.6299   20.7542 N   0  0  0  0  0  0
  -27.5118  -20.1329   21.6865 N   0  3  0  0  0  0
  -29.7106  -24.1510   19.6094 O   0  0  0  0  0  0
  -28.1181  -17.5127   20.9867 F   0  0  0  0  0  0
  -31.4627  -12.3976   19.1288 H   0  0  0  0  0  0
  -30.3091  -11.3068   19.8394 H   0  0  0  0  0  0
  -29.7357  -11.7714   17.4357 H   0  0  0  0  0  0
  -29.6608  -13.4845   17.7657 H   0  0  0  0  0  0
  -27.8292  -11.3066   18.8273 H   0  0  0  0  0  0
  -27.3639  -12.6263   17.7880 H   0  0  0  0  0  0
  -27.6949  -14.2562   19.5604 H   0  0  0  0  0  0
  -28.6784  -11.9886   21.3608 H   0  0  0  0  0  0
  -28.4640  -13.6385   21.8605 H   0  0  0  0  0  0
  -25.2763   -9.5685   22.4752 H   0  0  0  0  0  0
  -24.0002   -7.4637   22.7474 H   0  0  0  0  0  0
  -21.0842   -8.8770   19.8953 H   0  0  0  0  0  0
  -22.3697  -10.9668   19.6158 H   0  0  0  0  0  0
  -21.2002   -7.6148   23.9716 H   0  0  0  0  0  0
  -21.1479   -6.0523   25.9076 H   0  0  0  0  0  0
  -22.0599   -2.7611   23.2845 H   0  0  0  0  0  0
  -22.4108  -11.9878   22.4771 H   0  0  0  0  0  0
  -21.1114  -13.1250   22.2603 H   0  0  0  0  0  0
  -24.6624  -15.8437   20.5248 H   0  0  0  0  0  0
  -26.2883  -15.6379   20.1185 H   0  0  0  0  0  0
  -26.7123  -32.5527   23.1157 H   0  0  0  0  0  0
  -25.0066  -33.9781   25.0479 H   0  0  0  0  0  0
  -22.6931  -31.3078   21.4111 H   0  0  0  0  0  0
  -23.3745  -35.9644   23.3314 H   0  0  0  0  0  0
  -24.3579  -36.8904   22.2050 H   0  0  0  0  0  0
  -23.7242  -37.6519   23.6637 H   0  0  0  0  0  0
  -26.0469  -31.5994   20.5943 H   0  0  0  0  0  0
  -26.8226  -30.8858   21.9798 H   0  0  0  0  0  0
  -28.1045  -29.0923   21.1653 H   0  0  0  0  0  0
  -26.0522  -25.9648   19.0179 H   0  0  0  0  0  0
  -23.9748  -27.2989   19.0310 H   0  0  0  0  0  0
  -23.7183  -30.6005   19.4041 H   0  0  0  0  0  0
  -22.7369  -29.2439   19.8684 H   0  0  0  0  0  0
  -25.1287  -36.1967   25.0831 H   0  0  0  0  0  0
  -20.9964  -28.3232   24.1431 H   0  0  0  0  0  0
  -20.5677  -26.2276   23.3605 H   0  0  0  0  0  0
  -21.6636  -26.7450   22.1201 H   0  0  0  0  0  0
  -19.6908  -25.6309   21.1225 H   0  0  0  0  0  0
  -19.6685  -27.3215   20.6757 H   0  0  0  0  0  0
  -17.4197  -26.6683   21.4021 H   0  0  0  0  0  0
  -18.0318  -26.0069   22.9017 H   0  0  0  0  0  0
  -19.7929  -30.7263   24.2278 H   0  0  0  0  0  0
  -17.5011  -31.6267   24.5169 H   0  0  0  0  0  0
  -15.5346  -30.2994   23.7655 H   0  0  0  0  0  0
  -15.8661  -28.0833   22.7055 H   0  0  0  0  0  0
  -24.5910  -30.7053   25.7801 H   0  0  0  0  0  0
  -24.8938  -32.2862   26.4912 H   0  0  0  0  0  0
  -25.8094  -30.8866   27.0217 H   0  0  0  0  0  0
  -26.2831  -29.6800   24.1138 H   0  0  0  0  0  0
  -27.4069  -29.7254   25.4532 H   0  0  0  0  0  0
  -27.8666  -30.4351   23.9225 H   0  0  0  0  0  0
  -27.2696  -33.3604   26.2057 H   0  0  0  0  0  0
  -28.3871  -32.6833   25.0301 H   0  0  0  0  0  0
  -28.0714  -31.8405   26.5391 H   0  0  0  0  0  0
  -28.2603  -38.0096   24.7500 H   0  0  0  0  0  0
  -28.1064  -36.2626   24.6307 H   0  0  0  0  0  0
  -27.2293  -37.1470   25.8870 H   0  0  0  0  0  0
  -20.9302  -29.8751   21.6935 H   0  0  0  0  0  0
  -26.0180  -38.2868   24.1406 H   0  0  0  0  0  0
  -33.1415  -18.9556   21.4806 H   0  0  0  0  0  0
  -31.3951  -20.6930   21.3965 H   0  0  0  0  0  0
  -32.5647  -16.5817   21.3656 H   0  0  0  0  0  0
  -27.2027  -22.6725   20.2726 H   0  0  0  0  0  0
  -27.7934  -22.9595   21.8967 H   0  0  0  0  0  0
  -28.6493  -25.6530   21.9290 H   0  0  0  0  0  0
  -27.1089  -25.2897   21.1984 H   0  0  0  0  0  0
  -29.0636  -15.3325   21.3234 H   0  0  0  0  0  0
  -29.8684  -21.8048   20.2882 H   0  0  0  0  0  0
  -27.2830  -19.1765   21.9240 H   0  0  0  0  0  0
  -26.7842  -20.8246   21.7308 H   0  0  0  0  0  0
  1 25  1  0  0  0
  1 30  2  0  0  0
  1 81  1  0  0  0
  2  3  1  0  0  0
  2 25  1  0  0  0
  2 86  1  0  0  0
  2 87  1  0  0  0
  3  4  1  0  0  0
  3 88  1  0  0  0
  3 89  1  0  0  0
  4  5  1  0  0  0
  4 90  1  0  0  0
  4 91  1  0  0  0
  5  6  1  0  0  0
  5 26  1  0  0  0
  5 92  1  0  0  0
  6 25  1  0  0  0
  6 93  1  0  0  0
  6 94  1  0  0  0
  7  8  2  0  0  0
  7 26  1  0  0  0
  7 29  1  0  0  0
  8  9  1  0  0  0
  8 22  1  0  0  0
  9 10  1  0  0  0
  9 27  2  0  0  0
 10 11  2  0  0  0
 10 15  1  0  0  0
 11 12  1  0  0  0
 11 95  1  0  0  0
 12 13  2  0  0  0
 12 96  1  0  0  0
 13 14  1  0  0  0
 13 31  1  0  0  0
 14 15  2  0  0  0
 14 97  1  0  0  0
 15 98  1  0  0  0
 16 17  2  0  0  0
 16 21  1  0  0  0
 16 31  1  0  0  0
 17 18  1  0  0  0
 17 99  1  0  0  0
 18 19  2  0  0  0
 18100  1  0  0  0
 19 20  1  0  0  0
 19 24  1  0  0  0
 20 21  2  0  0  0
 20101  1  0  0  0
 21 23  1  0  0  0
 22 28  1  0  0  0
 22 32  2  0  0  0
 26 27  1  0  0  0
 28102  1  0  0  0
 28103  1  0  0  0
 29104  1  0  0  0
 29105  1  0  0  0
 33 34  1  0  0  0
 33 66  1  0  0  0
 33 70  2  0  0  0
 34 36  1  0  0  0
 34 59  1  0  0  0
 34106  1  0  0  0
 35 44  2  0  0  0
 35 45  1  0  0  0
 35 68  1  0  0  0
 36 56  1  0  0  0
 36107  1  0  0  0
 37 39  1  0  0  0
 37 47  1  0  0  0
 37 66  1  0  0  0
 37108  1  0  0  0
 38 43  2  0  0  0
 38 46  1  0  0  0
 38 47  1  0  0  0
 39 64  1  0  0  0
 39 67  2  0  0  0
 40 52  1  0  0  0
 40 53  2  0  0  0
 40 58  1  0  0  0
 41109  1  0  0  0
 41110  1  0  0  0
 41111  1  0  0  0
 41 48  1  0  0  0
 42 43  1  0  0  0
 42 66  1  0  0  0
 42112  1  0  0  0
 42113  1  0  0  0
 43 44  1  0  0  0
 44114  1  0  0  0
 45 46  2  0  0  0
 45115  1  0  0  0
 46116  1  0  0  0
 47117  1  0  0  0
 47118  1  0  0  0
 48 56  1  0  0  0
 48 65  1  0  0  0
 48119  1  0  0  0
 49 50  1  0  0  0
 49 53  1  0  0  0
 49 64  1  0  0  0
 49120  1  0  0  0
 50 51  1  0  0  0
 50121  1  0  0  0
 50122  1  0  0  0
 51 52  1  0  0  0
 51123  1  0  0  0
 51124  1  0  0  0
 52125  1  0  0  0
 52126  1  0  0  0
 53 54  1  0  0  0
 54 55  2  0  0  0
 54127  1  0  0  0
 55 57  1  0  0  0
 55128  1  0  0  0
 56 69  2  0  0  0
 57 58  2  0  0  0
 57129  1  0  0  0
 58130  1  0  0  0
 59 60  1  0  0  0
 59 61  1  0  0  0
 59 62  1  0  0  0
 60131  1  0  0  0
 60132  1  0  0  0
 60133  1  0  0  0
 61134  1  0  0  0
 61135  1  0  0  0
 61136  1  0  0  0
 62137  1  0  0  0
 62138  1  0  0  0
 62139  1  0  0  0
 63 65  1  0  0  0
 63140  1  0  0  0
 63141  1  0  0  0
 63142  1  0  0  0
 64143  1  0  0  0
 65144  1  0  0  0
 68 80  1  0  0  0
 71 72  2  0  0  0
 71 73  1  0  0  0
 71145  1  0  0  0
 72 74  1  0  0  0
 72146  1  0  0  0
 73 75  2  0  0  0
 73147  1  0  0  0
 74 76  2  0  0  0
 74 77  1  0  0  0
 75 76  1  0  0  0
 75 81  1  0  0  0
 76 85  1  0  0  0
 77 82  1  0  0  0
 77 83  2  0  0  0
 78 79  1  0  0  0
 78 80  1  0  0  0
 78 84  2  0  0  0
 79 82  1  0  0  0
 79148  1  0  0  0
 79149  1  0  0  0
 80150  1  0  0  0
 80151  1  0  0  0
 81152  1  0  0  0
 82153  1  0  0  0
 83154  1  0  0  0
 83155  1  0  0  0
M  CHG  1  83   1
M  ISO  4   1 100  68 101  80 101  81 100
M  END
> <chiral flag>
0

> <version>
0

> <s_m_source_file>
/data/baiqing/PycharmProjects/Reinvent-master-3.2/result/LINK_invent/BTK/process_docking_weight1_custom_product_contain_oxygen_bond_distance_aromatic_linkinvent_7_9_3/rearranged_h_0166.sdf

> <i_m_source_file_index>
83

> <r_mmod_Potential_Energy-OPLS-2005>
-307.141510009766

> <r_mmod_Stretch_Energy-OPLS-2005>
42.4182052612305

> <r_mmod_Bend_Energy-OPLS-2005>
95.3919906616211

> <r_mmod_Torsional_Energy-OPLS-2005>
233.270584106445

> <r_mmod_Improper_Torsional_Energy-OPLS-2005>
4.26513433456421

> <r_mmod_Van_der_Waal_Energy-OPLS-2005>
159.307357788086

> <r_mmod_Electrostatic_Energy-OPLS-2005>
-419.984497070312

> <r_mmod_Solvation_Energy-OPLS-2005>
-438.124328613281

> <b_mmod_Minimization_Converged-OPLS-2005>
0

> <r_mmod_RMS_Derivative-OPLS-2005>
0.565765142440796

$$$$
84
                    3D
 Structure written by MMmdl.
157165  0  0  1  0            999 V2000
  -30.7045  -14.4860   20.5080 C   0  0  0  0  0  0
  -30.4155  -12.2976   19.4480 C   0  0  0  0  0  0
  -29.5001  -12.4844   18.2191 C   0  0  0  0  0  0
  -28.0198  -12.3498   18.6259 C   0  0  0  0  0  0
  -27.6543  -13.2113   19.8637 C   0  0  2  0  0  0
  -28.6916  -13.0432   20.9969 C   0  0  0  0  0  0
  -25.2561  -13.8175   20.5680 C   0  0  0  0  0  0
  -24.1817  -13.0461   20.9166 C   0  0  0  0  0  0
  -24.6367  -11.6921   20.8732 C   0  0  0  0  0  0
  -23.9033  -10.4307   21.0414 C   0  0  0  0  0  0
  -24.3599   -9.4220   21.9187 C   0  0  0  0  0  0
  -23.6280   -8.2252   22.0756 C   0  0  0  0  0  0
  -22.4260   -8.0286   21.3554 C   0  0  0  0  0  0
  -21.9890   -9.0252   20.4652 C   0  0  0  0  0  0
  -22.7212  -10.2133   20.3055 C   0  0  0  0  0  0
  -21.6855   -6.0730   22.5280 C   0  0  0  0  0  0
  -21.4016   -6.5636   23.8215 C   0  0  0  0  0  0
  -21.3655   -5.6791   24.9181 C   0  0  0  0  0  0
  -21.6049   -4.3052   24.7234 C   0  0  0  0  0  0
  -21.8819   -3.8139   23.4353 C   0  0  0  0  0  0
  -21.9196   -4.6956   22.3411 C   0  0  0  0  0  0
  -22.7837  -13.5254   21.1852 C   0  0  0  0  0  0
  -22.1669   -4.2146   21.0987 F   0  0  0  0  0  0
  -21.5620   -3.4534   25.7741 F   0  0  0  0  0  0
  -30.0251  -13.3105   20.4412 N   0  0  0  0  0  0
  -26.2981  -12.9353   20.3305 N   0  0  0  0  0  0
  -25.9290  -11.6513   20.5738 N   0  0  0  0  0  0
  -22.0473  -12.8245   22.0400 N   0  0  0  0  0  0
  -25.4314  -15.1897   20.4138 N   0  0  0  0  0  0
  -31.8961  -14.5716   20.1946 O   0  0  0  0  0  0
  -21.6634   -6.8873   21.4245 O   0  0  0  0  0  0
  -22.3534  -14.5580   20.6716 O   0  0  0  0  0  0
  -24.6161  -31.8664   23.2089 C   0  0  0  0  0  0
  -25.9062  -32.4803   23.8379 C   0  0  1  0  0  0
  -27.2350  -27.4232   20.1084 C   0  0  0  0  0  0
  -25.5937  -33.8596   24.2322 N   0  0  0  0  0  0
  -23.4051  -30.4883   21.5486 C   0  0  2  0  0  0
  -24.8533  -28.9526   20.1145 C   0  0  0  0  0  0
  -22.7426  -29.4645   22.4991 C   0  0  0  0  0  0
  -18.0266  -28.1363   22.8493 C   0  0  0  0  0  0
  -24.1495  -36.7320   23.2637 C   0  0  0  0  0  0
  -25.9346  -30.8301   21.3629 C   0  0  0  0  0  0
  -26.0144  -29.4637   20.7112 C   0  0  0  0  0  0
  -27.2122  -28.7087   20.6988 C   0  0  0  0  0  0
  -26.0608  -26.9332   19.4963 C   0  0  0  0  0  0
  -24.8730  -27.6874   19.5025 C   0  0  0  0  0  0
  -23.6135  -29.8185   20.1636 C   0  0  0  0  0  0
  -25.4110  -36.3100   24.0345 C   0  0  1  0  0  0
  -20.5853  -28.3663   23.1323 C   0  0  2  0  0  0
  -20.6758  -26.9412   22.5402 C   0  0  0  0  0  0
  -19.5733  -26.6384   21.5206 C   0  0  0  0  0  0
  -18.1918  -26.7917   22.1624 C   0  0  0  0  0  0
  -19.1513  -28.8838   23.2897 C   0  0  0  0  0  0
  -18.9443  -30.1446   23.8908 C   0  0  0  0  0  0
  -17.6446  -30.6579   24.0563 C   0  0  0  0  0  0
  -25.9043  -34.9464   23.5129 C   0  0  0  0  0  0
  -16.5340  -29.9077   23.6314 C   0  0  0  0  0  0
  -16.7258  -28.6486   23.0349 C   0  0  0  0  0  0
  -26.4480  -31.6579   25.0712 C   0  0  0  0  0  0
  -25.3755  -31.3680   26.1477 C   0  0  0  0  0  0
  -27.0305  -30.3020   24.6085 C   0  0  0  0  0  0
  -27.6044  -32.4313   25.7468 C   0  0  0  0  0  0
  -27.5585  -37.1810   24.8464 C   0  0  0  0  0  0
  -21.4149  -29.3022   22.3733 N   0  0  0  0  0  0
  -26.4288  -37.3791   23.9413 N   0  0  0  0  0  0
  -24.6694  -31.0757   22.0992 N   0  0  0  0  0  0
  -23.4200  -28.8210   23.3052 O   0  0  0  0  0  0
  -28.3811  -26.6556   20.1221 O   0  0  0  0  0  0
  -26.5589  -34.8933   22.4682 O   0  0  0  0  0  0
  -23.5357  -32.1418   23.7499 O   0  0  0  0  0  0
  -30.9255  -17.9408   17.9657 C   0  0  0  0  0  0
  -30.6027  -16.7700   18.6555 C   0  0  0  0  0  0
  -30.7673  -19.1846   18.5977 C   0  0  0  0  0  0
  -30.1528  -16.8378   19.9902 C   0  0  0  0  0  0
  -30.1653  -19.2178   19.8919 C   0  0  0  0  0  0
  -31.2751  -20.3232   17.8023 C   0  0  0  0  0  0
  -29.1061  -22.8483   20.8019 C   0  0  0  0  0  0
  -29.2360  -24.3178   20.2637 C   0  0  0  0  0  0
  -32.6920  -20.7642   18.1408 C   0  0  0  0  0  0
  -30.0611  -21.7805   20.2249 C   0  0  0  0  0  0
  -28.2266  -25.3688   20.7704 C   0  0  0  0  0  0
  -29.8824  -18.0555   20.5516 N   0  0  0  0  0  0
  -29.9550  -15.5997   20.6882 N   0  0  0  0  0  0
  -29.7908  -20.3776   20.6158 N   0  0  0  0  0  0
  -30.6438  -20.8674   16.8929 O   0  0  0  0  0  0
  -28.2603  -22.5426   21.6526 O   0  0  0  0  0  0
  -30.1177  -24.6190   19.4472 O   0  0  0  0  0  0
  -31.4642  -12.3748   19.1510 H   0  0  0  0  0  0
  -30.2960  -11.2968   19.8678 H   0  0  0  0  0  0
  -29.7434  -11.7466   17.4535 H   0  0  0  0  0  0
  -29.6738  -13.4621   17.7676 H   0  0  0  0  0  0
  -27.8355  -11.2965   18.8393 H   0  0  0  0  0  0
  -27.3741  -12.6112   17.7866 H   0  0  0  0  0  0
  -27.6849  -14.2494   19.5350 H   0  0  0  0  0  0
  -28.6567  -12.0303   21.4020 H   0  0  0  0  0  0
  -28.4603  -13.7075   21.8322 H   0  0  0  0  0  0
  -25.2760   -9.5680   22.4743 H   0  0  0  0  0  0
  -23.9999   -7.4633   22.7456 H   0  0  0  0  0  0
  -21.0826   -8.8761   19.8952 H   0  0  0  0  0  0
  -22.3686  -10.9659   19.6143 H   0  0  0  0  0  0
  -21.2012   -7.6151   23.9715 H   0  0  0  0  0  0
  -21.1474   -6.0528   25.9085 H   0  0  0  0  0  0
  -22.0597   -2.7599   23.2860 H   0  0  0  0  0  0
  -22.4104  -11.9913   22.4792 H   0  0  0  0  0  0
  -21.1082  -13.1253   22.2615 H   0  0  0  0  0  0
  -24.6677  -15.8471   20.5258 H   0  0  0  0  0  0
  -26.2847  -15.6276   20.0907 H   0  0  0  0  0  0
  -26.7152  -32.5524   23.1147 H   0  0  0  0  0  0
  -25.0110  -33.9722   25.0489 H   0  0  0  0  0  0
  -22.6928  -31.3035   21.4070 H   0  0  0  0  0  0
  -23.3741  -35.9667   23.3291 H   0  0  0  0  0  0
  -24.3593  -36.8933   22.2051 H   0  0  0  0  0  0
  -23.7263  -37.6539   23.6644 H   0  0  0  0  0  0
  -26.0456  -31.5938   20.5923 H   0  0  0  0  0  0
  -26.8238  -30.8847   21.9790 H   0  0  0  0  0  0
  -28.1105  -29.0972   21.1604 H   0  0  0  0  0  0
  -26.0597  -25.9672   19.0128 H   0  0  0  0  0  0
  -23.9837  -27.2907   19.0322 H   0  0  0  0  0  0
  -23.7188  -30.5896   19.3987 H   0  0  0  0  0  0
  -22.7396  -29.2321   19.8714 H   0  0  0  0  0  0
  -25.1265  -36.1957   25.0832 H   0  0  0  0  0  0
  -20.9924  -28.3231   24.1450 H   0  0  0  0  0  0
  -20.5679  -26.2273   23.3583 H   0  0  0  0  0  0
  -21.6634  -26.7461   22.1197 H   0  0  0  0  0  0
  -19.6904  -25.6295   21.1231 H   0  0  0  0  0  0
  -19.6683  -27.3194   20.6743 H   0  0  0  0  0  0
  -17.4188  -26.6669   21.4021 H   0  0  0  0  0  0
  -18.0338  -26.0036   22.8995 H   0  0  0  0  0  0
  -19.7918  -30.7252   24.2301 H   0  0  0  0  0  0
  -17.4993  -31.6260   24.5161 H   0  0  0  0  0  0
  -15.5344  -30.2984   23.7628 H   0  0  0  0  0  0
  -15.8651  -28.0812   22.7068 H   0  0  0  0  0  0
  -24.5936  -30.7002   25.7839 H   0  0  0  0  0  0
  -24.8933  -32.2823   26.4944 H   0  0  0  0  0  0
  -25.8134  -30.8856   27.0219 H   0  0  0  0  0  0
  -26.2832  -29.6783   24.1161 H   0  0  0  0  0  0
  -27.4090  -29.7256   25.4530 H   0  0  0  0  0  0
  -27.8661  -30.4333   23.9209 H   0  0  0  0  0  0
  -27.2655  -33.3597   26.2067 H   0  0  0  0  0  0
  -28.3840  -32.6897   25.0295 H   0  0  0  0  0  0
  -28.0732  -31.8431   26.5368 H   0  0  0  0  0  0
  -28.2593  -38.0118   24.7511 H   0  0  0  0  0  0
  -28.1091  -36.2640   24.6266 H   0  0  0  0  0  0
  -27.2304  -37.1437   25.8871 H   0  0  0  0  0  0
  -20.9339  -29.8732   21.6913 H   0  0  0  0  0  0
  -26.0176  -38.2869   24.1399 H   0  0  0  0  0  0
  -31.3310  -17.8718   16.9642 H   0  0  0  0  0  0
  -30.7683  -15.8240   18.1564 H   0  0  0  0  0  0
  -33.3987  -19.9658   17.9148 H   0  0  0  0  0  0
  -32.7662  -20.9946   19.2025 H   0  0  0  0  0  0
  -32.9756  -21.6453   17.5685 H   0  0  0  0  0  0
  -31.0772  -22.0432   20.5177 H   0  0  0  0  0  0
  -29.9799  -21.9146   19.1521 H   0  0  0  0  0  0
  -28.3695  -25.5027   21.8432 H   0  0  0  0  0  0
  -27.2280  -24.9572   20.6329 H   0  0  0  0  0  0
  -29.0624  -15.4804   21.1393 H   0  0  0  0  0  0
  -29.3182  -20.2589   21.5063 H   0  0  0  0  0  0
  1 25  1  0  0  0
  1 30  2  0  0  0
  1 83  1  0  0  0
  2  3  1  0  0  0
  2 25  1  0  0  0
  2 88  1  0  0  0
  2 89  1  0  0  0
  3  4  1  0  0  0
  3 90  1  0  0  0
  3 91  1  0  0  0
  4  5  1  0  0  0
  4 92  1  0  0  0
  4 93  1  0  0  0
  5  6  1  0  0  0
  5 26  1  0  0  0
  5 94  1  0  0  0
  6 25  1  0  0  0
  6 95  1  0  0  0
  6 96  1  0  0  0
  7  8  2  0  0  0
  7 26  1  0  0  0
  7 29  1  0  0  0
  8  9  1  0  0  0
  8 22  1  0  0  0
  9 10  1  0  0  0
  9 27  2  0  0  0
 10 11  2  0  0  0
 10 15  1  0  0  0
 11 12  1  0  0  0
 11 97  1  0  0  0
 12 13  2  0  0  0
 12 98  1  0  0  0
 13 14  1  0  0  0
 13 31  1  0  0  0
 14 15  2  0  0  0
 14 99  1  0  0  0
 15100  1  0  0  0
 16 17  2  0  0  0
 16 21  1  0  0  0
 16 31  1  0  0  0
 17 18  1  0  0  0
 17101  1  0  0  0
 18 19  2  0  0  0
 18102  1  0  0  0
 19 20  1  0  0  0
 19 24  1  0  0  0
 20 21  2  0  0  0
 20103  1  0  0  0
 21 23  1  0  0  0
 22 28  1  0  0  0
 22 32  2  0  0  0
 26 27  1  0  0  0
 28104  1  0  0  0
 28105  1  0  0  0
 29106  1  0  0  0
 29107  1  0  0  0
 33 34  1  0  0  0
 33 66  1  0  0  0
 33 70  2  0  0  0
 34 36  1  0  0  0
 34 59  1  0  0  0
 34108  1  0  0  0
 35 44  2  0  0  0
 35 45  1  0  0  0
 35 68  1  0  0  0
 36 56  1  0  0  0
 36109  1  0  0  0
 37 39  1  0  0  0
 37 47  1  0  0  0
 37 66  1  0  0  0
 37110  1  0  0  0
 38 43  2  0  0  0
 38 46  1  0  0  0
 38 47  1  0  0  0
 39 64  1  0  0  0
 39 67  2  0  0  0
 40 52  1  0  0  0
 40 53  2  0  0  0
 40 58  1  0  0  0
 41111  1  0  0  0
 41112  1  0  0  0
 41113  1  0  0  0
 41 48  1  0  0  0
 42 43  1  0  0  0
 42 66  1  0  0  0
 42114  1  0  0  0
 42115  1  0  0  0
 43 44  1  0  0  0
 44116  1  0  0  0
 45 46  2  0  0  0
 45117  1  0  0  0
 46118  1  0  0  0
 47119  1  0  0  0
 47120  1  0  0  0
 48 56  1  0  0  0
 48 65  1  0  0  0
 48121  1  0  0  0
 49 50  1  0  0  0
 49 53  1  0  0  0
 49 64  1  0  0  0
 49122  1  0  0  0
 50 51  1  0  0  0
 50123  1  0  0  0
 50124  1  0  0  0
 51 52  1  0  0  0
 51125  1  0  0  0
 51126  1  0  0  0
 52127  1  0  0  0
 52128  1  0  0  0
 53 54  1  0  0  0
 54 55  2  0  0  0
 54129  1  0  0  0
 55 57  1  0  0  0
 55130  1  0  0  0
 56 69  2  0  0  0
 57 58  2  0  0  0
 57131  1  0  0  0
 58132  1  0  0  0
 59 60  1  0  0  0
 59 61  1  0  0  0
 59 62  1  0  0  0
 60133  1  0  0  0
 60134  1  0  0  0
 60135  1  0  0  0
 61136  1  0  0  0
 61137  1  0  0  0
 61138  1  0  0  0
 62139  1  0  0  0
 62140  1  0  0  0
 62141  1  0  0  0
 63 65  1  0  0  0
 63142  1  0  0  0
 63143  1  0  0  0
 63144  1  0  0  0
 64145  1  0  0  0
 65146  1  0  0  0
 68 81  1  0  0  0
 71 72  2  0  0  0
 71 73  1  0  0  0
 71147  1  0  0  0
 72 74  1  0  0  0
 72148  1  0  0  0
 73 75  2  0  0  0
 73 76  1  0  0  0
 74 82  2  0  0  0
 74 83  1  0  0  0
 75 82  1  0  0  0
 75 84  1  0  0  0
 76 79  1  0  0  0
 76 85  2  0  0  0
 77 78  1  0  0  0
 77 80  1  0  0  0
 77 86  2  0  0  0
 78 81  1  0  0  0
 78 87  2  0  0  0
 79149  1  0  0  0
 79150  1  0  0  0
 79151  1  0  0  0
 80 84  1  0  0  0
 80152  1  0  0  0
 80153  1  0  0  0
 81154  1  0  0  0
 81155  1  0  0  0
 83156  1  0  0  0
 84157  1  0  0  0
M  ISO  4   1 100  68 101  81 101  83 100
M  END
> <chiral flag>
0

> <version>
0

> <s_m_source_file>
/data/baiqing/PycharmProjects/Reinvent-master-3.2/result/LINK_invent/BTK/process_docking_weight1_custom_product_contain_oxygen_bond_distance_aromatic_linkinvent_7_9_3/rearranged_h_0166.sdf

> <i_m_source_file_index>
84

> <r_mmod_Potential_Energy-OPLS-2005>
-77.4776229858398

> <r_mmod_Stretch_Energy-OPLS-2005>
46.2083473205566

> <r_mmod_Bend_Energy-OPLS-2005>
124.759910583496

> <r_mmod_Torsional_Energy-OPLS-2005>
299.866027832031

> <r_mmod_Improper_Torsional_Energy-OPLS-2005>
6.83712100982666

> <r_mmod_Van_der_Waal_Energy-OPLS-2005>
159.964645385742

> <r_mmod_Electrostatic_Energy-OPLS-2005>
-476.621490478516

> <r_mmod_Solvation_Energy-OPLS-2005>
-259.451171875

> <b_mmod_Minimization_Converged-OPLS-2005>
0

> <r_mmod_RMS_Derivative-OPLS-2005>
2.74299430847168

$$$$
85
                    3D
 Structure written by MMmdl.
155163  0  0  1  0            999 V2000
  -30.7127  -14.4877   20.5632 C   0  0  0  0  0  0
  -30.4176  -12.3143   19.4303 C   0  0  0  0  0  0
  -29.4934  -12.5009   18.2098 C   0  0  0  0  0  0
  -28.0156  -12.3597   18.6228 C   0  0  0  0  0  0
  -27.6583  -13.2109   19.8710 C   0  0  2  0  0  0
  -28.7010  -13.0183   20.9963 C   0  0  0  0  0  0
  -25.2574  -13.8169   20.5679 C   0  0  0  0  0  0
  -24.1833  -13.0442   20.9185 C   0  0  0  0  0  0
  -24.6393  -11.6909   20.8743 C   0  0  0  0  0  0
  -23.9063  -10.4292   21.0408 C   0  0  0  0  0  0
  -24.3615   -9.4207   21.9185 C   0  0  0  0  0  0
  -23.6290   -8.2243   22.0754 C   0  0  0  0  0  0
  -22.4273   -8.0281   21.3544 C   0  0  0  0  0  0
  -21.9910   -9.0254   20.4646 C   0  0  0  0  0  0
  -22.7238  -10.2134   20.3055 C   0  0  0  0  0  0
  -21.6852   -6.0736   22.5279 C   0  0  0  0  0  0
  -21.4013   -6.5640   23.8213 C   0  0  0  0  0  0
  -21.3657   -5.6792   24.9174 C   0  0  0  0  0  0
  -21.6045   -4.3056   24.7224 C   0  0  0  0  0  0
  -21.8819   -3.8148   23.4346 C   0  0  0  0  0  0
  -21.9193   -4.6965   22.3403 C   0  0  0  0  0  0
  -22.7855  -13.5237   21.1846 C   0  0  0  0  0  0
  -22.1661   -4.2151   21.0981 F   0  0  0  0  0  0
  -21.5629   -3.4540   25.7737 F   0  0  0  0  0  0
  -30.0299  -13.3155   20.4384 N   0  0  0  0  0  0
  -26.3009  -12.9347   20.3354 N   0  0  0  0  0  0
  -25.9322  -11.6504   20.5772 N   0  0  0  0  0  0
  -22.0494  -12.8227   22.0398 N   0  0  0  0  0  0
  -25.4293  -15.1887   20.4065 N   0  0  0  0  0  0
  -31.8439  -14.6345   20.0938 O   0  0  0  0  0  0
  -21.6638   -6.8878   21.4240 O   0  0  0  0  0  0
  -22.3545  -14.5546   20.6695 O   0  0  0  0  0  0
  -24.6162  -31.8670   23.2094 C   0  0  0  0  0  0
  -25.9049  -32.4818   23.8393 C   0  0  1  0  0  0
  -27.2289  -27.4244   20.1015 C   0  0  0  0  0  0
  -25.5901  -33.8617   24.2329 N   0  0  0  0  0  0
  -23.4052  -30.4906   21.5498 C   0  0  2  0  0  0
  -24.8527  -28.9581   20.1108 C   0  0  0  0  0  0
  -22.7422  -29.4654   22.4981 C   0  0  0  0  0  0
  -18.0274  -28.1380   22.8493 C   0  0  0  0  0  0
  -24.1483  -36.7308   23.2639 C   0  0  0  0  0  0
  -25.9350  -30.8317   21.3626 C   0  0  0  0  0  0
  -26.0143  -29.4662   20.7078 C   0  0  0  0  0  0
  -27.2101  -28.7077   20.6978 C   0  0  0  0  0  0
  -26.0554  -26.9377   19.4886 C   0  0  0  0  0  0
  -24.8691  -27.6944   19.4953 C   0  0  0  0  0  0
  -23.6138  -29.8242   20.1635 C   0  0  0  0  0  0
  -25.4105  -36.3108   24.0339 C   0  0  1  0  0  0
  -20.5867  -28.3667   23.1314 C   0  0  2  0  0  0
  -20.6765  -26.9402   22.5415 C   0  0  0  0  0  0
  -19.5741  -26.6388   21.5213 C   0  0  0  0  0  0
  -18.1921  -26.7926   22.1625 C   0  0  0  0  0  0
  -19.1524  -28.8839   23.2901 C   0  0  0  0  0  0
  -18.9452  -30.1446   23.8910 C   0  0  0  0  0  0
  -17.6455  -30.6586   24.0565 C   0  0  0  0  0  0
  -25.9034  -34.9473   23.5132 C   0  0  0  0  0  0
  -16.5345  -29.9088   23.6330 C   0  0  0  0  0  0
  -16.7263  -28.6505   23.0351 C   0  0  0  0  0  0
  -26.4476  -31.6592   25.0717 C   0  0  0  0  0  0
  -25.3742  -31.3692   26.1465 C   0  0  0  0  0  0
  -27.0306  -30.3038   24.6083 C   0  0  0  0  0  0
  -27.6055  -32.4304   25.7480 C   0  0  0  0  0  0
  -27.5577  -37.1808   24.8469 C   0  0  0  0  0  0
  -21.4147  -29.3033   22.3720 N   0  0  0  0  0  0
  -26.4292  -37.3792   23.9411 N   0  0  0  0  0  0
  -24.6706  -31.0768   22.0993 N   0  0  0  0  0  0
  -23.4189  -28.8196   23.3028 O   0  0  0  0  0  0
  -28.3502  -26.6231   20.1357 O   0  0  0  0  0  0
  -26.5595  -34.8926   22.4692 O   0  0  0  0  0  0
  -23.5351  -32.1416   23.7487 O   0  0  0  0  0  0
  -29.4559  -17.9440   21.1408 C   0  0  0  0  0  0
  -31.1872  -19.6457   21.4203 C   0  0  0  0  0  0
  -31.7893  -17.2810   21.3553 C   0  0  0  0  0  0
  -29.8250  -19.3155   21.2643 C   0  0  0  0  0  0
  -30.4321  -16.9090   21.1783 C   0  0  0  0  0  0
  -32.1612  -18.6342   21.4651 C   0  0  0  0  0  0
  -28.8202  -20.3968   21.3084 C   0  0  0  0  0  0
  -28.7800  -24.1579   20.4236 C   0  0  0  0  0  0
  -28.1725  -22.8320   20.9348 C   0  0  0  0  0  0
  -28.1616  -25.4629   20.9800 C   0  0  0  0  0  0
  -30.0211  -15.5297   21.0832 N   0  0  0  0  0  0
  -29.0510  -21.6319   20.8125 N   0  0  0  0  0  0
  -27.6526  -20.1632   21.9049 N   0  3  0  0  0  0
  -29.7321  -24.1569   19.6334 O   0  0  0  0  0  0
  -33.4644  -18.9657   21.6327 F   0  0  0  0  0  0
  -31.4631  -12.4002   19.1293 H   0  0  0  0  0  0
  -30.3112  -11.3089   19.8411 H   0  0  0  0  0  0
  -29.7363  -11.7699   17.4374 H   0  0  0  0  0  0
  -29.6600  -13.4833   17.7652 H   0  0  0  0  0  0
  -27.8307  -11.3049   18.8293 H   0  0  0  0  0  0
  -27.3640  -12.6228   17.7885 H   0  0  0  0  0  0
  -27.6947  -14.2546   19.5582 H   0  0  0  0  0  0
  -28.6796  -11.9907   21.3621 H   0  0  0  0  0  0
  -28.4632  -13.6410   21.8599 H   0  0  0  0  0  0
  -25.2762   -9.5683   22.4757 H   0  0  0  0  0  0
  -24.0000   -7.4635   22.7475 H   0  0  0  0  0  0
  -21.0841   -8.8773   19.8951 H   0  0  0  0  0  0
  -22.3699  -10.9672   19.6162 H   0  0  0  0  0  0
  -21.2003   -7.6147   23.9717 H   0  0  0  0  0  0
  -21.1478   -6.0522   25.9077 H   0  0  0  0  0  0
  -22.0600   -2.7610   23.2846 H   0  0  0  0  0  0
  -22.4100  -11.9879   22.4776 H   0  0  0  0  0  0
  -21.1112  -13.1254   22.2603 H   0  0  0  0  0  0
  -24.6573  -15.8402   20.4983 H   0  0  0  0  0  0
  -26.2703  -15.6215   20.0468 H   0  0  0  0  0  0
  -26.7120  -32.5532   23.1158 H   0  0  0  0  0  0
  -25.0064  -33.9777   25.0483 H   0  0  0  0  0  0
  -22.6942  -31.3078   21.4109 H   0  0  0  0  0  0
  -23.3744  -35.9644   23.3317 H   0  0  0  0  0  0
  -24.3577  -36.8905   22.2051 H   0  0  0  0  0  0
  -23.7238  -37.6519   23.6640 H   0  0  0  0  0  0
  -26.0468  -31.5984   20.5947 H   0  0  0  0  0  0
  -26.8231  -30.8857   21.9804 H   0  0  0  0  0  0
  -28.1050  -29.0907   21.1683 H   0  0  0  0  0  0
  -26.0543  -25.9649   19.0174 H   0  0  0  0  0  0
  -23.9769  -27.2989   19.0297 H   0  0  0  0  0  0
  -23.7205  -30.6000   19.4043 H   0  0  0  0  0  0
  -22.7379  -29.2439   19.8684 H   0  0  0  0  0  0
  -25.1283  -36.1973   25.0833 H   0  0  0  0  0  0
  -20.9959  -28.3230   24.1434 H   0  0  0  0  0  0
  -20.5674  -26.2274   23.3604 H   0  0  0  0  0  0
  -21.6634  -26.7447   22.1201 H   0  0  0  0  0  0
  -19.6905  -25.6306   21.1227 H   0  0  0  0  0  0
  -19.6682  -27.3212   20.6755 H   0  0  0  0  0  0
  -17.4192  -26.6681   21.4023 H   0  0  0  0  0  0
  -18.0315  -26.0065   22.9016 H   0  0  0  0  0  0
  -19.7929  -30.7258   24.2283 H   0  0  0  0  0  0
  -17.5010  -31.6267   24.5165 H   0  0  0  0  0  0
  -15.5346  -30.2994   23.7652 H   0  0  0  0  0  0
  -15.8660  -28.0830   22.7060 H   0  0  0  0  0  0
  -24.5917  -30.7040   25.7798 H   0  0  0  0  0  0
  -24.8931  -32.2843   26.4925 H   0  0  0  0  0  0
  -25.8095  -30.8850   27.0215 H   0  0  0  0  0  0
  -26.2844  -29.6799   24.1147 H   0  0  0  0  0  0
  -27.4098  -29.7274   25.4531 H   0  0  0  0  0  0
  -27.8669  -30.4370   23.9217 H   0  0  0  0  0  0
  -27.2685  -33.3602   26.2074 H   0  0  0  0  0  0
  -28.3857  -32.6861   25.0298 H   0  0  0  0  0  0
  -28.0727  -31.8410   26.5381 H   0  0  0  0  0  0
  -28.2605  -38.0096   24.7506 H   0  0  0  0  0  0
  -28.1063  -36.2627   24.6306 H   0  0  0  0  0  0
  -27.2292  -37.1470   25.8871 H   0  0  0  0  0  0
  -20.9309  -29.8756   21.6941 H   0  0  0  0  0  0
  -26.0182  -38.2873   24.1407 H   0  0  0  0  0  0
  -28.4131  -17.6849   21.0213 H   0  0  0  0  0  0
  -31.4974  -20.6741   21.5370 H   0  0  0  0  0  0
  -32.5721  -16.5423   21.4244 H   0  0  0  0  0  0
  -27.2453  -22.6571   20.3881 H   0  0  0  0  0  0
  -27.9000  -22.9721   21.9817 H   0  0  0  0  0  0
  -28.6199  -25.6688   21.9473 H   0  0  0  0  0  0
  -27.1055  -25.2756   21.1791 H   0  0  0  0  0  0
  -29.0671  -15.3222   21.3347 H   0  0  0  0  0  0
  -29.9055  -21.7904   20.2892 H   0  0  0  0  0  0
  -27.5044  -19.2751   22.3598 H   0  0  0  0  0  0
  -26.9109  -20.8406   21.9344 H   0  0  0  0  0  0
  1 25  1  0  0  0
  1 30  2  0  0  0
  1 81  1  0  0  0
  2  3  1  0  0  0
  2 25  1  0  0  0
  2 86  1  0  0  0
  2 87  1  0  0  0
  3  4  1  0  0  0
  3 88  1  0  0  0
  3 89  1  0  0  0
  4  5  1  0  0  0
  4 90  1  0  0  0
  4 91  1  0  0  0
  5  6  1  0  0  0
  5 26  1  0  0  0
  5 92  1  0  0  0
  6 25  1  0  0  0
  6 93  1  0  0  0
  6 94  1  0  0  0
  7  8  2  0  0  0
  7 26  1  0  0  0
  7 29  1  0  0  0
  8  9  1  0  0  0
  8 22  1  0  0  0
  9 10  1  0  0  0
  9 27  2  0  0  0
 10 11  2  0  0  0
 10 15  1  0  0  0
 11 12  1  0  0  0
 11 95  1  0  0  0
 12 13  2  0  0  0
 12 96  1  0  0  0
 13 14  1  0  0  0
 13 31  1  0  0  0
 14 15  2  0  0  0
 14 97  1  0  0  0
 15 98  1  0  0  0
 16 17  2  0  0  0
 16 21  1  0  0  0
 16 31  1  0  0  0
 17 18  1  0  0  0
 17 99  1  0  0  0
 18 19  2  0  0  0
 18100  1  0  0  0
 19 20  1  0  0  0
 19 24  1  0  0  0
 20 21  2  0  0  0
 20101  1  0  0  0
 21 23  1  0  0  0
 22 28  1  0  0  0
 22 32  2  0  0  0
 26 27  1  0  0  0
 28102  1  0  0  0
 28103  1  0  0  0
 29104  1  0  0  0
 29105  1  0  0  0
 33 34  1  0  0  0
 33 66  1  0  0  0
 33 70  2  0  0  0
 34 36  1  0  0  0
 34 59  1  0  0  0
 34106  1  0  0  0
 35 44  2  0  0  0
 35 45  1  0  0  0
 35 68  1  0  0  0
 36 56  1  0  0  0
 36107  1  0  0  0
 37 39  1  0  0  0
 37 47  1  0  0  0
 37 66  1  0  0  0
 37108  1  0  0  0
 38 43  2  0  0  0
 38 46  1  0  0  0
 38 47  1  0  0  0
 39 64  1  0  0  0
 39 67  2  0  0  0
 40 52  1  0  0  0
 40 53  2  0  0  0
 40 58  1  0  0  0
 41109  1  0  0  0
 41110  1  0  0  0
 41111  1  0  0  0
 41 48  1  0  0  0
 42 43  1  0  0  0
 42 66  1  0  0  0
 42112  1  0  0  0
 42113  1  0  0  0
 43 44  1  0  0  0
 44114  1  0  0  0
 45 46  2  0  0  0
 45115  1  0  0  0
 46116  1  0  0  0
 47117  1  0  0  0
 47118  1  0  0  0
 48 56  1  0  0  0
 48 65  1  0  0  0
 48119  1  0  0  0
 49 50  1  0  0  0
 49 53  1  0  0  0
 49 64  1  0  0  0
 49120  1  0  0  0
 50 51  1  0  0  0
 50121  1  0  0  0
 50122  1  0  0  0
 51 52  1  0  0  0
 51123  1  0  0  0
 51124  1  0  0  0
 52125  1  0  0  0
 52126  1  0  0  0
 53 54  1  0  0  0
 54 55  2  0  0  0
 54127  1  0  0  0
 55 57  1  0  0  0
 55128  1  0  0  0
 56 69  2  0  0  0
 57 58  2  0  0  0
 57129  1  0  0  0
 58130  1  0  0  0
 59 60  1  0  0  0
 59 61  1  0  0  0
 59 62  1  0  0  0
 60131  1  0  0  0
 60132  1  0  0  0
 60133  1  0  0  0
 61134  1  0  0  0
 61135  1  0  0  0
 61136  1  0  0  0
 62137  1  0  0  0
 62138  1  0  0  0
 62139  1  0  0  0
 63 65  1  0  0  0
 63140  1  0  0  0
 63141  1  0  0  0
 63142  1  0  0  0
 64143  1  0  0  0
 65144  1  0  0  0
 68 80  1  0  0  0
 71 74  2  0  0  0
 71 75  1  0  0  0
 71145  1  0  0  0
 72 74  1  0  0  0
 72 76  2  0  0  0
 72146  1  0  0  0
 73 75  2  0  0  0
 73 76  1  0  0  0
 73147  1  0  0  0
 74 77  1  0  0  0
 75 81  1  0  0  0
 76 85  1  0  0  0
 77 82  1  0  0  0
 77 83  2  0  0  0
 78 79  1  0  0  0
 78 80  1  0  0  0
 78 84  2  0  0  0
 79 82  1  0  0  0
 79148  1  0  0  0
 79149  1  0  0  0
 80150  1  0  0  0
 80151  1  0  0  0
 81152  1  0  0  0
 82153  1  0  0  0
 83154  1  0  0  0
 83155  1  0  0  0
M  CHG  1  83   1
M  ISO  4   1 100  68 101  80 101  81 100
M  END
> <chiral flag>
0

> <version>
0

> <s_m_source_file>
/data/baiqing/PycharmProjects/Reinvent-master-3.2/result/LINK_invent/BTK/process_docking_weight1_custom_product_contain_oxygen_bond_distance_aromatic_linkinvent_7_9_3/rearranged_h_0166.sdf

> <i_m_source_file_index>
85

> <r_mmod_Potential_Energy-OPLS-2005>
-357.715362548828

> <r_mmod_Stretch_Energy-OPLS-2005>
42.4576530456543

> <r_mmod_Bend_Energy-OPLS-2005>
94.5017929077148

> <r_mmod_Torsional_Energy-OPLS-2005>
233.450759887695

> <r_mmod_Improper_Torsional_Energy-OPLS-2005>
4.19759321212769

> <r_mmod_Van_der_Waal_Energy-OPLS-2005>
156.441146850586

> <r_mmod_Electrostatic_Energy-OPLS-2005>
-444.066070556641

> <r_mmod_Solvation_Energy-OPLS-2005>
-461.265960693359

> <b_mmod_Minimization_Converged-OPLS-2005>
0

> <r_mmod_RMS_Derivative-OPLS-2005>
0.367875397205353

$$$$
86
                    3D
 Structure written by MMmdl.
160169  0  0  1  0            999 V2000
  -30.6851  -14.5318   20.5082 C   0  0  0  0  0  0
  -30.4252  -12.3255   19.4430 C   0  0  0  0  0  0
  -29.5011  -12.4967   18.2182 C   0  0  0  0  0  0
  -28.0219  -12.3615   18.6276 C   0  0  0  0  0  0
  -27.6609  -13.2163   19.8717 C   0  0  2  0  0  0
  -28.7039  -13.0379   20.9990 C   0  0  0  0  0  0
  -25.2594  -13.8182   20.5692 C   0  0  0  0  0  0
  -24.1846  -13.0451   20.9179 C   0  0  0  0  0  0
  -24.6400  -11.6919   20.8723 C   0  0  0  0  0  0
  -23.9058  -10.4299   21.0391 C   0  0  0  0  0  0
  -24.3603   -9.4217   21.9171 C   0  0  0  0  0  0
  -23.6284   -8.2250   22.0747 C   0  0  0  0  0  0
  -22.4265   -8.0285   21.3543 C   0  0  0  0  0  0
  -21.9895   -9.0260   20.4647 C   0  0  0  0  0  0
  -22.7224  -10.2141   20.3050 C   0  0  0  0  0  0
  -21.6860   -6.0729   22.5270 C   0  0  0  0  0  0
  -21.4020   -6.5635   23.8204 C   0  0  0  0  0  0
  -21.3663   -5.6788   24.9164 C   0  0  0  0  0  0
  -21.6043   -4.3046   24.7219 C   0  0  0  0  0  0
  -21.8821   -3.8142   23.4339 C   0  0  0  0  0  0
  -21.9201   -4.6958   22.3394 C   0  0  0  0  0  0
  -22.7870  -13.5251   21.1845 C   0  0  0  0  0  0
  -22.1666   -4.2145   21.0972 F   0  0  0  0  0  0
  -21.5628   -3.4532   25.7728 F   0  0  0  0  0  0
  -30.0331  -13.3354   20.4428 N   0  0  0  0  0  0
  -26.3029  -12.9366   20.3357 N   0  0  0  0  0  0
  -25.9332  -11.6516   20.5751 N   0  0  0  0  0  0
  -22.0501  -12.8249   22.0391 N   0  0  0  0  0  0
  -25.4344  -15.1896   20.4118 N   0  0  0  0  0  0
  -31.8369  -14.6786   20.0904 O   0  0  0  0  0  0
  -21.6640   -6.8875   21.4236 O   0  0  0  0  0  0
  -22.3557  -14.5566   20.6702 O   0  0  0  0  0  0
  -24.6209  -31.8663   23.2108 C   0  0  0  0  0  0
  -25.9086  -32.4815   23.8408 C   0  0  1  0  0  0
  -27.2166  -27.3688   20.0964 C   0  0  0  0  0  0
  -25.5936  -33.8617   24.2331 N   0  0  0  0  0  0
  -23.4108  -30.4938   21.5531 C   0  0  2  0  0  0
  -24.8549  -28.9667   20.1084 C   0  0  0  0  0  0
  -22.7448  -29.4656   22.4974 C   0  0  0  0  0  0
  -18.0281  -28.1386   22.8487 C   0  0  0  0  0  0
  -24.1494  -36.7301   23.2634 C   0  0  0  0  0  0
  -25.9497  -30.8089   21.3799 C   0  0  0  0  0  0
  -26.0219  -29.4427   20.7188 C   0  0  0  0  0  0
  -27.2038  -28.6506   20.7152 C   0  0  0  0  0  0
  -26.0304  -26.9560   19.4374 C   0  0  0  0  0  0
  -24.8584  -27.7257   19.4611 C   0  0  0  0  0  0
  -23.6206  -29.8381   20.1647 C   0  0  0  0  0  0
  -25.4116  -36.3104   24.0335 C   0  0  1  0  0  0
  -20.5877  -28.3684   23.1304 C   0  0  2  0  0  0
  -20.6780  -26.9419   22.5412 C   0  0  0  0  0  0
  -19.5754  -26.6389   21.5215 C   0  0  0  0  0  0
  -18.1930  -26.7933   22.1620 C   0  0  0  0  0  0
  -19.1531  -28.8850   23.2889 C   0  0  0  0  0  0
  -18.9457  -30.1458   23.8895 C   0  0  0  0  0  0
  -17.6458  -30.6591   24.0563 C   0  0  0  0  0  0
  -25.9045  -34.9470   23.5122 C   0  0  0  0  0  0
  -16.5347  -29.9087   23.6335 C   0  0  0  0  0  0
  -16.7270  -28.6506   23.0351 C   0  0  0  0  0  0
  -26.4488  -31.6604   25.0753 C   0  0  0  0  0  0
  -25.3738  -31.3738   26.1493 C   0  0  0  0  0  0
  -27.0313  -30.3028   24.6177 C   0  0  0  0  0  0
  -27.6066  -32.4323   25.7511 C   0  0  0  0  0  0
  -27.5583  -37.1811   24.8463 C   0  0  0  0  0  0
  -21.4168  -29.3046   22.3709 N   0  0  0  0  0  0
  -26.4298  -37.3792   23.9405 N   0  0  0  0  0  0
  -24.6788  -31.0710   22.1049 N   0  0  0  0  0  0
  -23.4197  -28.8180   23.3020 O   0  0  0  0  0  0
  -28.3337  -26.5291   20.1633 O   0  0  0  0  0  0
  -26.5593  -34.8923   22.4675 O   0  0  0  0  0  0
  -23.5383  -32.1450   23.7456 O   0  0  0  0  0  0
  -29.5911  -17.9734   17.9970 C   0  0  0  0  0  0
  -29.6168  -19.2286   18.6293 C   0  0  0  0  0  0
  -29.7250  -16.7951   18.7499 C   0  0  0  0  0  0
  -29.9007  -18.1274   20.7885 C   0  0  0  0  0  0
  -29.7807  -19.3338   20.0283 C   0  0  0  0  0  0
  -29.8868  -16.8459   20.1540 C   0  0  0  0  0  0
  -29.0640  -24.0407   20.4366 C   0  0  0  0  0  0
  -28.4081  -22.8926   21.2409 C   0  0  0  0  0  0
  -28.4758  -21.4918   20.5605 C   0  0  0  0  0  0
  -30.9699  -21.6131   20.0485 C   0  0  0  0  0  0
  -31.1898  -23.0054   20.7025 C   0  0  0  0  0  0
  -29.8343  -20.7496   20.6618 C   0  0  2  0  0  0
  -28.0887  -25.1126   19.8733 C   0  0  0  0  0  0
  -30.3156  -24.0579   20.1758 N   0  0  0  0  0  0
  -29.9507  -15.6071   20.8879 N   0  0  0  0  0  0
  -31.4704  -12.4172   19.1409 H   0  0  0  0  0  0
  -30.3253  -11.3229   19.8620 H   0  0  0  0  0  0
  -29.7451  -11.7552   17.4563 H   0  0  0  0  0  0
  -29.6696  -13.4708   17.7571 H   0  0  0  0  0  0
  -27.8341  -11.3082   18.8371 H   0  0  0  0  0  0
  -27.3740  -12.6263   17.7914 H   0  0  0  0  0  0
  -27.6925  -14.2581   19.5518 H   0  0  0  0  0  0
  -28.6857  -12.0146   21.3769 H   0  0  0  0  0  0
  -28.4681  -13.6751   21.8529 H   0  0  0  0  0  0
  -25.2746   -9.5706   22.4747 H   0  0  0  0  0  0
  -24.0005   -7.4644   22.7460 H   0  0  0  0  0  0
  -21.0826   -8.8782   19.8952 H   0  0  0  0  0  0
  -22.3674  -10.9680   19.6164 H   0  0  0  0  0  0
  -21.2015   -7.6142   23.9708 H   0  0  0  0  0  0
  -21.1481   -6.0510   25.9068 H   0  0  0  0  0  0
  -22.0600   -2.7605   23.2832 H   0  0  0  0  0  0
  -22.4098  -11.9900   22.4781 H   0  0  0  0  0  0
  -21.1128  -13.1300   22.2594 H   0  0  0  0  0  0
  -24.6749  -15.8523   20.5219 H   0  0  0  0  0  0
  -26.2932  -15.6219   20.0944 H   0  0  0  0  0  0
  -26.7150  -32.5501   23.1157 H   0  0  0  0  0  0
  -25.0130  -33.9786   25.0505 H   0  0  0  0  0  0
  -22.7012  -31.3129   21.4182 H   0  0  0  0  0  0
  -23.3756  -35.9634   23.3315 H   0  0  0  0  0  0
  -24.3579  -36.8894   22.2043 H   0  0  0  0  0  0
  -23.7252  -37.6516   23.6631 H   0  0  0  0  0  0
  -26.0777  -31.5773   20.6161 H   0  0  0  0  0  0
  -26.8316  -30.8528   22.0071 H   0  0  0  0  0  0
  -28.0942  -29.0039   21.2164 H   0  0  0  0  0  0
  -25.9671  -26.0257   18.8940 H   0  0  0  0  0  0
  -23.9685  -27.3626   18.9659 H   0  0  0  0  0  0
  -23.7307  -30.6178   19.4101 H   0  0  0  0  0  0
  -22.7423  -29.2630   19.8656 H   0  0  0  0  0  0
  -25.1295  -36.1966   25.0829 H   0  0  0  0  0  0
  -20.9961  -28.3255   24.1428 H   0  0  0  0  0  0
  -20.5704  -26.2292   23.3603 H   0  0  0  0  0  0
  -21.6652  -26.7479   22.1195 H   0  0  0  0  0  0
  -19.6923  -25.6299   21.1249 H   0  0  0  0  0  0
  -19.6696  -27.3199   20.6744 H   0  0  0  0  0  0
  -17.4209  -26.6687   21.4013 H   0  0  0  0  0  0
  -18.0324  -26.0075   22.9014 H   0  0  0  0  0  0
  -19.7932  -30.7277   24.2263 H   0  0  0  0  0  0
  -17.5013  -31.6271   24.5166 H   0  0  0  0  0  0
  -15.5348  -30.2985   23.7668 H   0  0  0  0  0  0
  -15.8670  -28.0827   22.7066 H   0  0  0  0  0  0
  -24.5903  -30.7093   25.7832 H   0  0  0  0  0  0
  -24.8940  -32.2906   26.4931 H   0  0  0  0  0  0
  -25.8078  -30.8910   27.0258 H   0  0  0  0  0  0
  -26.2873  -29.6800   24.1196 H   0  0  0  0  0  0
  -27.4011  -29.7263   25.4666 H   0  0  0  0  0  0
  -27.8750  -30.4316   23.9393 H   0  0  0  0  0  0
  -27.2699  -33.3629   26.2093 H   0  0  0  0  0  0
  -28.3876  -32.6872   25.0335 H   0  0  0  0  0  0
  -28.0734  -31.8443   26.5423 H   0  0  0  0  0  0
  -28.2613  -38.0095   24.7502 H   0  0  0  0  0  0
  -28.1066  -36.2628   24.6301 H   0  0  0  0  0  0
  -27.2296  -37.1481   25.8865 H   0  0  0  0  0  0
  -20.9336  -29.8767   21.6925 H   0  0  0  0  0  0
  -26.0184  -38.2873   24.1395 H   0  0  0  0  0  0
  -29.4641  -17.9125   16.9248 H   0  0  0  0  0  0
  -29.5101  -20.1177   18.0233 H   0  0  0  0  0  0
  -29.6851  -15.8474   18.2313 H   0  0  0  0  0  0
  -30.0138  -18.1872   21.8625 H   0  0  0  0  0  0
  -27.3588  -23.1212   21.4220 H   0  0  0  0  0  0
  -28.8477  -22.8499   22.2372 H   0  0  0  0  0  0
  -28.1703  -21.5822   19.5174 H   0  0  0  0  0  0
  -27.7233  -20.8574   21.0299 H   0  0  0  0  0  0
  -31.8969  -21.0486   20.1600 H   0  0  0  0  0  0
  -30.8362  -21.7361   18.9731 H   0  0  0  0  0  0
  -32.2206  -23.3030   20.5049 H   0  0  0  0  0  0
  -31.1302  -22.9366   21.7907 H   0  0  0  0  0  0
  -30.0615  -20.6143   21.7208 H   0  0  0  0  0  0
  -27.1030  -24.8394   20.2450 H   0  0  0  0  0  0
  -28.0537  -24.9873   18.7902 H   0  0  0  0  0  0
  -29.1281  -15.3894   21.4304 H   0  0  0  0  0  0
  1 25  1  0  0  0
  1 30  2  0  0  0
  1 85  1  0  0  0
  2  3  1  0  0  0
  2 25  1  0  0  0
  2 86  1  0  0  0
  2 87  1  0  0  0
  3  4  1  0  0  0
  3 88  1  0  0  0
  3 89  1  0  0  0
  4  5  1  0  0  0
  4 90  1  0  0  0
  4 91  1  0  0  0
  5  6  1  0  0  0
  5 26  1  0  0  0
  5 92  1  0  0  0
  6 25  1  0  0  0
  6 93  1  0  0  0
  6 94  1  0  0  0
  7  8  2  0  0  0
  7 26  1  0  0  0
  7 29  1  0  0  0
  8  9  1  0  0  0
  8 22  1  0  0  0
  9 10  1  0  0  0
  9 27  2  0  0  0
 10 11  2  0  0  0
 10 15  1  0  0  0
 11 12  1  0  0  0
 11 95  1  0  0  0
 12 13  2  0  0  0
 12 96  1  0  0  0
 13 14  1  0  0  0
 13 31  1  0  0  0
 14 15  2  0  0  0
 14 97  1  0  0  0
 15 98  1  0  0  0
 16 17  2  0  0  0
 16 21  1  0  0  0
 16 31  1  0  0  0
 17 18  1  0  0  0
 17 99  1  0  0  0
 18 19  2  0  0  0
 18100  1  0  0  0
 19 20  1  0  0  0
 19 24  1  0  0  0
 20 21  2  0  0  0
 20101  1  0  0  0
 21 23  1  0  0  0
 22 28  1  0  0  0
 22 32  2  0  0  0
 26 27  1  0  0  0
 28102  1  0  0  0
 28103  1  0  0  0
 29104  1  0  0  0
 29105  1  0  0  0
 33 34  1  0  0  0
 33 66  1  0  0  0
 33 70  2  0  0  0
 34 36  1  0  0  0
 34 59  1  0  0  0
 34106  1  0  0  0
 35 44  2  0  0  0
 35 45  1  0  0  0
 35 68  1  0  0  0
 36 56  1  0  0  0
 36107  1  0  0  0
 37 39  1  0  0  0
 37 47  1  0  0  0
 37 66  1  0  0  0
 37108  1  0  0  0
 38 43  2  0  0  0
 38 46  1  0  0  0
 38 47  1  0  0  0
 39 64  1  0  0  0
 39 67  2  0  0  0
 40 52  1  0  0  0
 40 53  2  0  0  0
 40 58  1  0  0  0
 41109  1  0  0  0
 41110  1  0  0  0
 41111  1  0  0  0
 41 48  1  0  0  0
 42 43  1  0  0  0
 42 66  1  0  0  0
 42112  1  0  0  0
 42113  1  0  0  0
 43 44  1  0  0  0
 44114  1  0  0  0
 45 46  2  0  0  0
 45115  1  0  0  0
 46116  1  0  0  0
 47117  1  0  0  0
 47118  1  0  0  0
 48 56  1  0  0  0
 48 65  1  0  0  0
 48119  1  0  0  0
 49 50  1  0  0  0
 49 53  1  0  0  0
 49 64  1  0  0  0
 49120  1  0  0  0
 50 51  1  0  0  0
 50121  1  0  0  0
 50122  1  0  0  0
 51 52  1  0  0  0
 51123  1  0  0  0
 51124  1  0  0  0
 52125  1  0  0  0
 52126  1  0  0  0
 53 54  1  0  0  0
 54 55  2  0  0  0
 54127  1  0  0  0
 55 57  1  0  0  0
 55128  1  0  0  0
 56 69  2  0  0  0
 57 58  2  0  0  0
 57129  1  0  0  0
 58130  1  0  0  0
 59 60  1  0  0  0
 59 61  1  0  0  0
 59 62  1  0  0  0
 60131  1  0  0  0
 60132  1  0  0  0
 60133  1  0  0  0
 61134  1  0  0  0
 61135  1  0  0  0
 61136  1  0  0  0
 62137  1  0  0  0
 62138  1  0  0  0
 62139  1  0  0  0
 63 65  1  0  0  0
 63140  1  0  0  0
 63141  1  0  0  0
 63142  1  0  0  0
 64143  1  0  0  0
 65144  1  0  0  0
 68 83  1  0  0  0
 71 72  2  0  0  0
 71 73  1  0  0  0
 71145  1  0  0  0
 72 75  1  0  0  0
 72146  1  0  0  0
 73 76  2  0  0  0
 73147  1  0  0  0
 74 75  2  0  0  0
 74 76  1  0  0  0
 74148  1  0  0  0
 75 82  1  0  0  0
 76 85  1  0  0  0
 77 78  1  0  0  0
 77 83  1  0  0  0
 77 84  2  0  0  0
 78 79  1  0  0  0
 78149  1  0  0  0
 78150  1  0  0  0
 79 82  1  0  0  0
 79151  1  0  0  0
 79152  1  0  0  0
 80 81  1  0  0  0
 80 82  1  0  0  0
 80153  1  0  0  0
 80154  1  0  0  0
 81 84  1  0  0  0
 81155  1  0  0  0
 81156  1  0  0  0
 82157  1  0  0  0
 83158  1  0  0  0
 83159  1  0  0  0
 85160  1  0  0  0
M  ISO  4   1 100  68 101  83 101  85 100
M  END
> <chiral flag>
0

> <version>
0

> <s_m_source_file>
/data/baiqing/PycharmProjects/Reinvent-master-3.2/result/LINK_invent/BTK/process_docking_weight1_custom_product_contain_oxygen_bond_distance_aromatic_linkinvent_7_9_3/rearranged_h_0166.sdf

> <i_m_source_file_index>
86

> <r_mmod_Potential_Energy-OPLS-2005>
47.1976280212402

> <r_mmod_Stretch_Energy-OPLS-2005>
57.0630569458008

> <r_mmod_Bend_Energy-OPLS-2005>
111.422752380371

> <r_mmod_Torsional_Energy-OPLS-2005>
256.522369384766

> <r_mmod_Improper_Torsional_Energy-OPLS-2005>
6.61661958694458

> <r_mmod_Van_der_Waal_Energy-OPLS-2005>
165.762222290039

> <r_mmod_Electrostatic_Energy-OPLS-2005>
-353.824462890625

> <r_mmod_Solvation_Energy-OPLS-2005>
-225.440948486328

> <b_mmod_Minimization_Converged-OPLS-2005>
0

> <r_mmod_RMS_Derivative-OPLS-2005>
1.08091008663177

$$$$
87
                    3D
 Structure written by MMmdl.
153161  0  0  1  0            999 V2000
  -30.7082  -14.5835   20.4938 C   0  0  0  0  0  0
  -30.4051  -12.3561   19.4513 C   0  0  0  0  0  0
  -29.4925  -12.4839   18.2169 C   0  0  0  0  0  0
  -28.0154  -12.3478   18.6308 C   0  0  0  0  0  0
  -27.6460  -13.2288   19.8551 C   0  0  2  0  0  0
  -28.6910  -13.1199   20.9864 C   0  0  0  0  0  0
  -25.2532  -13.8215   20.5697 C   0  0  0  0  0  0
  -24.1819  -13.0463   20.9217 C   0  0  0  0  0  0
  -24.6405  -11.6935   20.8764 C   0  0  0  0  0  0
  -23.9081  -10.4311   21.0414 C   0  0  0  0  0  0
  -24.3629   -9.4221   21.9189 C   0  0  0  0  0  0
  -23.6305   -8.2251   22.0751 C   0  0  0  0  0  0
  -22.4288   -8.0295   21.3541 C   0  0  0  0  0  0
  -21.9926   -9.0267   20.4642 C   0  0  0  0  0  0
  -22.7256  -10.2149   20.3059 C   0  0  0  0  0  0
  -21.6858   -6.0749   22.5280 C   0  0  0  0  0  0
  -21.4015   -6.5646   23.8216 C   0  0  0  0  0  0
  -21.3661   -5.6793   24.9174 C   0  0  0  0  0  0
  -21.6044   -4.3053   24.7222 C   0  0  0  0  0  0
  -21.8821   -3.8156   23.4338 C   0  0  0  0  0  0
  -21.9196   -4.6973   22.3405 C   0  0  0  0  0  0
  -22.7836  -13.5236   21.1870 C   0  0  0  0  0  0
  -22.1664   -4.2163   21.0976 F   0  0  0  0  0  0
  -21.5630   -3.4534   25.7731 F   0  0  0  0  0  0
  -30.0030  -13.4144   20.4015 N   0  0  0  0  0  0
  -26.2964  -12.9419   20.3313 N   0  0  0  0  0  0
  -25.9334  -11.6563   20.5776 N   0  0  0  0  0  0
  -22.0470  -12.8229   22.0408 N   0  0  0  0  0  0
  -25.4226  -15.1937   20.4093 N   0  0  0  0  0  0
  -31.8873  -14.5996   20.1318 O   0  0  0  0  0  0
  -21.6645   -6.8892   21.4245 O   0  0  0  0  0  0
  -22.3527  -14.5547   20.6711 O   0  0  0  0  0  0
  -24.6189  -31.8637   23.2064 C   0  0  0  0  0  0
  -25.9062  -32.4801   23.8374 C   0  0  1  0  0  0
  -27.2189  -27.3693   20.1012 C   0  0  0  0  0  0
  -25.5905  -33.8597   24.2309 N   0  0  0  0  0  0
  -23.4088  -30.4887   21.5471 C   0  0  2  0  0  0
  -24.8520  -28.9473   20.1108 C   0  0  0  0  0  0
  -22.7439  -29.4639   22.4953 C   0  0  0  0  0  0
  -18.0277  -28.1391   22.8464 C   0  0  0  0  0  0
  -24.1486  -36.7317   23.2638 C   0  0  0  0  0  0
  -25.9432  -30.8101   21.3666 C   0  0  0  0  0  0
  -26.0166  -29.4391   20.7123 C   0  0  0  0  0  0
  -27.2010  -28.6567   20.7030 C   0  0  0  0  0  0
  -26.0322  -26.9085   19.4888 C   0  0  0  0  0  0
  -24.8583  -27.6852   19.4959 C   0  0  0  0  0  0
  -23.6196  -29.8244   20.1610 C   0  0  0  0  0  0
  -25.4109  -36.3108   24.0337 C   0  0  1  0  0  0
  -20.5873  -28.3680   23.1316 C   0  0  2  0  0  0
  -20.6761  -26.9407   22.5439 C   0  0  0  0  0  0
  -19.5769  -26.6409   21.5203 C   0  0  0  0  0  0
  -18.1932  -26.7948   22.1575 C   0  0  0  0  0  0
  -19.1530  -28.8840   23.2893 C   0  0  0  0  0  0
  -18.9458  -30.1430   23.8941 C   0  0  0  0  0  0
  -17.6465  -30.6567   24.0603 C   0  0  0  0  0  0
  -25.9036  -34.9462   23.5119 C   0  0  0  0  0  0
  -16.5359  -29.9089   23.6321 C   0  0  0  0  0  0
  -16.7267  -28.6523   23.0311 C   0  0  0  0  0  0
  -26.4483  -31.6592   25.0718 C   0  0  0  0  0  0
  -25.3741  -31.3693   26.1464 C   0  0  0  0  0  0
  -27.0321  -30.3027   24.6111 C   0  0  0  0  0  0
  -27.6052  -32.4322   25.7491 C   0  0  0  0  0  0
  -27.5576  -37.1821   24.8464 C   0  0  0  0  0  0
  -21.4157  -29.3041   22.3707 N   0  0  0  0  0  0
  -26.4296  -37.3792   23.9401 N   0  0  0  0  0  0
  -24.6757  -31.0699   22.0980 N   0  0  0  0  0  0
  -23.4191  -28.8185   23.3012 O   0  0  0  0  0  0
  -28.3746  -26.5993   20.1576 O   0  0  0  0  0  0
  -26.5598  -34.8916   22.4678 O   0  0  0  0  0  0
  -23.5377  -32.1408   23.7448 O   0  0  0  0  0  0
  -28.9975  -19.0465   20.0865 C   0  0  0  0  0  0
  -29.7650  -18.2615   21.0216 C   0  0  0  0  0  0
  -29.8689  -19.0643   22.1391 C   0  0  0  0  0  0
  -28.8189  -20.2815   20.6729 C   0  0  0  0  0  0
  -30.5771  -16.9879   20.9172 C   0  0  0  0  0  0
  -28.0326  -24.0609   20.3575 C   0  0  0  0  0  0
  -30.5120  -18.9091   23.4782 C   0  0  0  0  0  0
  -28.9268  -22.7756   20.3688 C   0  0  0  0  0  0
  -28.4764  -25.2966   19.5021 C   0  0  0  0  0  0
  -28.2708  -21.4602   20.1213 N   0  0  0  0  0  0
  -30.0248  -15.7407   20.7813 N   0  0  0  0  0  0
  -31.7991  -17.1578   20.9921 O   0  0  0  0  0  0
  -26.9818  -24.0807   21.0059 O   0  0  0  0  0  0
  -29.3169  -20.2981   21.9283 O   0  0  0  0  0  0
  -31.4524  -12.4213   19.1509 H   0  0  0  0  0  0
  -30.2921  -11.3723   19.9104 H   0  0  0  0  0  0
  -29.7407  -11.7161   17.4819 H   0  0  0  0  0  0
  -29.6598  -13.4454   17.7283 H   0  0  0  0  0  0
  -27.8375  -11.2970   18.8634 H   0  0  0  0  0  0
  -27.3655  -12.5840   17.7877 H   0  0  0  0  0  0
  -27.6575  -14.2602   19.5008 H   0  0  0  0  0  0
  -28.6887  -12.1196   21.4205 H   0  0  0  0  0  0
  -28.4565  -13.8064   21.8013 H   0  0  0  0  0  0
  -25.2769   -9.5700   22.4769 H   0  0  0  0  0  0
  -24.0016   -7.4644   22.7470 H   0  0  0  0  0  0
  -21.0858   -8.8799   19.8942 H   0  0  0  0  0  0
  -22.3721  -10.9696   19.6172 H   0  0  0  0  0  0
  -21.2001   -7.6150   23.9726 H   0  0  0  0  0  0
  -21.1481   -6.0515   25.9078 H   0  0  0  0  0  0
  -22.0596   -2.7618   23.2833 H   0  0  0  0  0  0
  -22.4067  -11.9889   22.4815 H   0  0  0  0  0  0
  -21.1081  -13.1259   22.2583 H   0  0  0  0  0  0
  -24.6519  -15.8450   20.5123 H   0  0  0  0  0  0
  -26.2622  -15.6311   20.0521 H   0  0  0  0  0  0
  -26.7119  -32.5482   23.1121 H   0  0  0  0  0  0
  -25.0089  -33.9755   25.0475 H   0  0  0  0  0  0
  -22.6983  -31.3062   21.4080 H   0  0  0  0  0  0
  -23.3747  -35.9650   23.3314 H   0  0  0  0  0  0
  -24.3583  -36.8920   22.2050 H   0  0  0  0  0  0
  -23.7247  -37.6524   23.6650 H   0  0  0  0  0  0
  -26.0590  -31.5734   20.5964 H   0  0  0  0  0  0
  -26.8302  -30.8643   21.9860 H   0  0  0  0  0  0
  -28.1033  -29.0273   21.1696 H   0  0  0  0  0  0
  -25.9826  -25.9371   19.0222 H   0  0  0  0  0  0
  -23.9606  -27.3036   19.0298 H   0  0  0  0  0  0
  -23.7393  -30.5995   19.4027 H   0  0  0  0  0  0
  -22.7372  -29.2566   19.8610 H   0  0  0  0  0  0
  -25.1292  -36.1983   25.0835 H   0  0  0  0  0  0
  -20.9945  -28.3244   24.1441 H   0  0  0  0  0  0
  -20.5618  -26.2294   23.3633 H   0  0  0  0  0  0
  -21.6646  -26.7424   22.1272 H   0  0  0  0  0  0
  -19.6936  -25.6327   21.1203 H   0  0  0  0  0  0
  -19.6741  -27.3249   20.6753 H   0  0  0  0  0  0
  -17.4228  -26.6727   21.3951 H   0  0  0  0  0  0
  -18.0297  -26.0075   22.8938 H   0  0  0  0  0  0
  -19.7932  -30.7207   24.2362 H   0  0  0  0  0  0
  -17.5025  -31.6236   24.5256 H   0  0  0  0  0  0
  -15.5365  -30.3011   23.7633 H   0  0  0  0  0  0
  -15.8661  -28.0873   22.6970 H   0  0  0  0  0  0
  -24.5935  -30.7013   25.7808 H   0  0  0  0  0  0
  -24.8901  -32.2831   26.4910 H   0  0  0  0  0  0
  -25.8094  -30.8878   27.0226 H   0  0  0  0  0  0
  -26.2862  -29.6790   24.1161 H   0  0  0  0  0  0
  -27.4080  -29.7278   25.4586 H   0  0  0  0  0  0
  -27.8707  -30.4353   23.9271 H   0  0  0  0  0  0
  -27.2668  -33.3619   26.2081 H   0  0  0  0  0  0
  -28.3859  -32.6885   25.0316 H   0  0  0  0  0  0
  -28.0721  -31.8435   26.5400 H   0  0  0  0  0  0
  -28.2617  -38.0097   24.7497 H   0  0  0  0  0  0
  -28.1059  -36.2631   24.6326 H   0  0  0  0  0  0
  -27.2287  -37.1506   25.8865 H   0  0  0  0  0  0
  -20.9331  -29.8763   21.6922 H   0  0  0  0  0  0
  -26.0193  -38.2873   24.1389 H   0  0  0  0  0  0
  -28.7383  -18.7784   19.0727 H   0  0  0  0  0  0
  -30.8598  -17.8896   23.6444 H   0  0  0  0  0  0
  -29.8053  -19.1481   24.2741 H   0  0  0  0  0  0
  -31.3689  -19.5769   23.5683 H   0  0  0  0  0  0
  -29.4383  -22.7444   21.3318 H   0  0  0  0  0  0
  -29.7143  -22.9112   19.6281 H   0  0  0  0  0  0
  -29.5274  -25.1622   19.2501 H   0  0  0  0  0  0
  -27.9461  -25.2941   18.5498 H   0  0  0  0  0  0
  -27.8073  -21.3799   19.2194 H   0  0  0  0  0  0
  -29.0273  -15.6782   20.8826 H   0  0  0  0  0  0
  1 25  1  0  0  0
  1 30  2  0  0  0
  1 81  1  0  0  0
  2  3  1  0  0  0
  2 25  1  0  0  0
  2 85  1  0  0  0
  2 86  1  0  0  0
  3  4  1  0  0  0
  3 87  1  0  0  0
  3 88  1  0  0  0
  4  5  1  0  0  0
  4 89  1  0  0  0
  4 90  1  0  0  0
  5  6  1  0  0  0
  5 26  1  0  0  0
  5 91  1  0  0  0
  6 25  1  0  0  0
  6 92  1  0  0  0
  6 93  1  0  0  0
  7  8  2  0  0  0
  7 26  1  0  0  0
  7 29  1  0  0  0
  8  9  1  0  0  0
  8 22  1  0  0  0
  9 10  1  0  0  0
  9 27  2  0  0  0
 10 11  2  0  0  0
 10 15  1  0  0  0
 11 12  1  0  0  0
 11 94  1  0  0  0
 12 13  2  0  0  0
 12 95  1  0  0  0
 13 14  1  0  0  0
 13 31  1  0  0  0
 14 15  2  0  0  0
 14 96  1  0  0  0
 15 97  1  0  0  0
 16 17  2  0  0  0
 16 21  1  0  0  0
 16 31  1  0  0  0
 17 18  1  0  0  0
 17 98  1  0  0  0
 18 19  2  0  0  0
 18 99  1  0  0  0
 19 20  1  0  0  0
 19 24  1  0  0  0
 20 21  2  0  0  0
 20100  1  0  0  0
 21 23  1  0  0  0
 22 28  1  0  0  0
 22 32  2  0  0  0
 26 27  1  0  0  0
 28101  1  0  0  0
 28102  1  0  0  0
 29103  1  0  0  0
 29104  1  0  0  0
 33 34  1  0  0  0
 33 66  1  0  0  0
 33 70  2  0  0  0
 34 36  1  0  0  0
 34 59  1  0  0  0
 34105  1  0  0  0
 35 44  2  0  0  0
 35 45  1  0  0  0
 35 68  1  0  0  0
 36 56  1  0  0  0
 36106  1  0  0  0
 37 39  1  0  0  0
 37 47  1  0  0  0
 37 66  1  0  0  0
 37107  1  0  0  0
 38 43  2  0  0  0
 38 46  1  0  0  0
 38 47  1  0  0  0
 39 64  1  0  0  0
 39 67  2  0  0  0
 40 52  1  0  0  0
 40 53  2  0  0  0
 40 58  1  0  0  0
 41108  1  0  0  0
 41109  1  0  0  0
 41110  1  0  0  0
 41 48  1  0  0  0
 42 43  1  0  0  0
 42 66  1  0  0  0
 42111  1  0  0  0
 42112  1  0  0  0
 43 44  1  0  0  0
 44113  1  0  0  0
 45 46  2  0  0  0
 45114  1  0  0  0
 46115  1  0  0  0
 47116  1  0  0  0
 47117  1  0  0  0
 48 56  1  0  0  0
 48 65  1  0  0  0
 48118  1  0  0  0
 49 50  1  0  0  0
 49 53  1  0  0  0
 49 64  1  0  0  0
 49119  1  0  0  0
 50 51  1  0  0  0
 50120  1  0  0  0
 50121  1  0  0  0
 51 52  1  0  0  0
 51122  1  0  0  0
 51123  1  0  0  0
 52124  1  0  0  0
 52125  1  0  0  0
 53 54  1  0  0  0
 54 55  2  0  0  0
 54126  1  0  0  0
 55 57  1  0  0  0
 55127  1  0  0  0
 56 69  2  0  0  0
 57 58  2  0  0  0
 57128  1  0  0  0
 58129  1  0  0  0
 59 60  1  0  0  0
 59 61  1  0  0  0
 59 62  1  0  0  0
 60130  1  0  0  0
 60131  1  0  0  0
 60132  1  0  0  0
 61133  1  0  0  0
 61134  1  0  0  0
 61135  1  0  0  0
 62136  1  0  0  0
 62137  1  0  0  0
 62138  1  0  0  0
 63 65  1  0  0  0
 63139  1  0  0  0
 63140  1  0  0  0
 63141  1  0  0  0
 64142  1  0  0  0
 65143  1  0  0  0
 68 79  1  0  0  0
 71 72  1  0  0  0
 71 74  2  0  0  0
 71144  1  0  0  0
 72 73  2  0  0  0
 72 75  1  0  0  0
 73 77  1  0  0  0
 73 84  1  0  0  0
 74 80  1  0  0  0
 74 84  1  0  0  0
 75 81  1  0  0  0
 75 82  2  0  0  0
 76 78  1  0  0  0
 76 79  1  0  0  0
 76 83  2  0  0  0
 77145  1  0  0  0
 77146  1  0  0  0
 77147  1  0  0  0
 78 80  1  0  0  0
 78148  1  0  0  0
 78149  1  0  0  0
 79150  1  0  0  0
 79151  1  0  0  0
 80152  1  0  0  0
 81153  1  0  0  0
M  ISO  4   1 100  68 101  79 101  81 100
M  END
> <chiral flag>
0

> <version>
0

> <s_m_source_file>
/data/baiqing/PycharmProjects/Reinvent-master-3.2/result/LINK_invent/BTK/process_docking_weight1_custom_product_contain_oxygen_bond_distance_aromatic_linkinvent_7_9_3/rearranged_h_0166.sdf

> <i_m_source_file_index>
87

> <r_mmod_Potential_Energy-OPLS-2005>
-86.3343048095703

> <r_mmod_Stretch_Energy-OPLS-2005>
56.4348373413086

> <r_mmod_Bend_Energy-OPLS-2005>
136.845565795898

> <r_mmod_Torsional_Energy-OPLS-2005>
234.102233886719

> <r_mmod_Improper_Torsional_Energy-OPLS-2005>
9.41638565063477

> <r_mmod_Van_der_Waal_Energy-OPLS-2005>
131.983917236328

> <r_mmod_Electrostatic_Energy-OPLS-2005>
-421.511138916016

> <r_mmod_Solvation_Energy-OPLS-2005>
-268.972595214844

> <b_mmod_Minimization_Converged-OPLS-2005>
0

> <r_mmod_RMS_Derivative-OPLS-2005>
2.22459077835083

$$$$
88
                    3D
 Structure written by MMmdl.
157166  0  0  1  0            999 V2000
  -30.6714  -14.6306   20.4635 C   0  0  0  0  0  0
  -30.4272  -12.3779   19.4777 C   0  0  0  0  0  0
  -29.5182  -12.4897   18.2355 C   0  0  0  0  0  0
  -28.0366  -12.3466   18.6336 C   0  0  0  0  0  0
  -27.6512  -13.2305   19.8520 C   0  0  2  0  0  0
  -28.6909  -13.1298   20.9916 C   0  0  0  0  0  0
  -25.2546  -13.8200   20.5631 C   0  0  0  0  0  0
  -24.1831  -13.0454   20.9170 C   0  0  0  0  0  0
  -24.6421  -11.6932   20.8724 C   0  0  0  0  0  0
  -23.9091  -10.4305   21.0395 C   0  0  0  0  0  0
  -24.3642   -9.4223   21.9182 C   0  0  0  0  0  0
  -23.6313   -8.2253   22.0763 C   0  0  0  0  0  0
  -22.4296   -8.0286   21.3546 C   0  0  0  0  0  0
  -21.9932   -9.0260   20.4644 C   0  0  0  0  0  0
  -22.7264  -10.2140   20.3044 C   0  0  0  0  0  0
  -21.6855   -6.0742   22.5276 C   0  0  0  0  0  0
  -21.4008   -6.5640   23.8210 C   0  0  0  0  0  0
  -21.3660   -5.6796   24.9176 C   0  0  0  0  0  0
  -21.6049   -4.3060   24.7226 C   0  0  0  0  0  0
  -21.8815   -3.8140   23.4348 C   0  0  0  0  0  0
  -21.9189   -4.6963   22.3403 C   0  0  0  0  0  0
  -22.7846  -13.5239   21.1823 C   0  0  0  0  0  0
  -22.1654   -4.2143   21.0983 F   0  0  0  0  0  0
  -21.5646   -3.4546   25.7738 F   0  0  0  0  0  0
  -30.0098  -13.4322   20.4252 N   0  0  0  0  0  0
  -26.2985  -12.9409   20.3236 N   0  0  0  0  0  0
  -25.9345  -11.6557   20.5715 N   0  0  0  0  0  0
  -22.0465  -12.8258   22.0381 N   0  0  0  0  0  0
  -25.4255  -15.1921   20.4030 N   0  0  0  0  0  0
  -31.8681  -14.6939   20.1708 O   0  0  0  0  0  0
  -21.6643   -6.8891   21.4243 O   0  0  0  0  0  0
  -22.3527  -14.5537   20.6654 O   0  0  0  0  0  0
  -24.6254  -31.8619   23.2060 C   0  0  0  0  0  0
  -25.9111  -32.4793   23.8363 C   0  0  1  0  0  0
  -27.2017  -27.3120   20.1114 C   0  0  0  0  0  0
  -25.5934  -33.8594   24.2282 N   0  0  0  0  0  0
  -23.4163  -30.4900   21.5506 C   0  0  2  0  0  0
  -24.8584  -28.9511   20.1093 C   0  0  0  0  0  0
  -22.7467  -29.4639   22.4958 C   0  0  0  0  0  0
  -18.0283  -28.1379   22.8488 C   0  0  0  0  0  0
  -24.1490  -36.7292   23.2629 C   0  0  0  0  0  0
  -25.9607  -30.7878   21.3797 C   0  0  0  0  0  0
  -26.0308  -29.4172   20.7188 C   0  0  0  0  0  0
  -27.2076  -28.6082   20.7148 C   0  0  0  0  0  0
  -26.0144  -26.9185   19.4510 C   0  0  0  0  0  0
  -24.8531  -27.7076   19.4655 C   0  0  0  0  0  0
  -23.6282  -29.8328   20.1630 C   0  0  0  0  0  0
  -25.4115  -36.3083   24.0322 C   0  0  1  0  0  0
  -20.5883  -28.3668   23.1292 C   0  0  2  0  0  0
  -20.6772  -26.9399   22.5399 C   0  0  0  0  0  0
  -19.5745  -26.6383   21.5202 C   0  0  0  0  0  0
  -18.1927  -26.7928   22.1620 C   0  0  0  0  0  0
  -19.1536  -28.8843   23.2889 C   0  0  0  0  0  0
  -18.9457  -30.1448   23.8899 C   0  0  0  0  0  0
  -17.6455  -30.6586   24.0558 C   0  0  0  0  0  0
  -25.9063  -34.9458   23.5099 C   0  0  0  0  0  0
  -16.5345  -29.9080   23.6331 C   0  0  0  0  0  0
  -16.7268  -28.6498   23.0350 C   0  0  0  0  0  0
  -26.4476  -31.6607   25.0737 C   0  0  0  0  0  0
  -25.3697  -31.3754   26.1455 C   0  0  0  0  0  0
  -27.0308  -30.3029   24.6192 C   0  0  0  0  0  0
  -27.6040  -32.4328   25.7510 C   0  0  0  0  0  0
  -27.5585  -37.1786   24.8451 C   0  0  0  0  0  0
  -21.4180  -29.3032   22.3697 N   0  0  0  0  0  0
  -26.4281  -37.3786   23.9420 N   0  0  0  0  0  0
  -24.6867  -31.0623   22.1020 N   0  0  0  0  0  0
  -23.4209  -28.8150   23.3001 O   0  0  0  0  0  0
  -28.2875  -26.4233   20.1606 O   0  0  0  0  0  0
  -26.5621  -34.8917   22.4660 O   0  0  0  0  0  0
  -23.5419  -32.1417   23.7390 O   0  0  0  0  0  0
  -30.8107  -17.9769   17.6687 C   0  0  0  0  0  0
  -30.3277  -19.2376   18.0417 C   0  0  0  0  0  0
  -30.6998  -16.8901   18.5388 C   0  0  0  0  0  0
  -29.6112  -18.3328   20.1854 C   0  0  0  0  0  0
  -29.7350  -19.4783   19.3063 C   0  0  0  0  0  0
  -30.0973  -17.0146   19.8134 C   0  0  0  0  0  0
  -28.6208  -22.5551   21.2424 C   0  0  0  0  0  0
  -30.0479  -22.1073   18.9186 C   0  0  0  0  0  0
  -29.1760  -20.9472   19.5271 C   0  0  2  0  0  0
  -29.0250  -23.8373   20.4382 C   0  0  2  0  0  0
  -27.9479  -25.0125   20.4951 C   0  0  0  0  0  0
  -28.7614  -21.3083   20.8955 N   0  0  0  0  0  0
  -29.9359  -15.7861   20.6041 N   0  0  0  0  0  0
  -29.3689  -23.4303   19.0471 N   0  3  0  0  0  0
  -31.4751  -12.4680   19.1870 H   0  0  0  0  0  0
  -30.3328  -11.3946   19.9420 H   0  0  0  0  0  0
  -29.7888  -11.7248   17.5066 H   0  0  0  0  0  0
  -29.6778  -13.4494   17.7410 H   0  0  0  0  0  0
  -27.8642  -11.2965   18.8715 H   0  0  0  0  0  0
  -27.3951  -12.5727   17.7805 H   0  0  0  0  0  0
  -27.6588  -14.2607   19.4945 H   0  0  0  0  0  0
  -28.6883  -12.1295   21.4257 H   0  0  0  0  0  0
  -28.4486  -13.8184   21.8028 H   0  0  0  0  0  0
  -25.2784   -9.5700   22.4771 H   0  0  0  0  0  0
  -24.0011   -7.4644   22.7494 H   0  0  0  0  0  0
  -21.0859   -8.8778   19.8958 H   0  0  0  0  0  0
  -22.3719  -10.9677   19.6147 H   0  0  0  0  0  0
  -21.1987   -7.6141   23.9714 H   0  0  0  0  0  0
  -21.1494   -6.0526   25.9086 H   0  0  0  0  0  0
  -22.0592   -2.7602   23.2843 H   0  0  0  0  0  0
  -22.4064  -11.9960   22.4856 H   0  0  0  0  0  0
  -21.1056  -13.1277   22.2482 H   0  0  0  0  0  0
  -24.6638  -15.8528   20.5130 H   0  0  0  0  0  0
  -26.2793  -15.6229   20.0700 H   0  0  0  0  0  0
  -26.7172  -32.5445   23.1101 H   0  0  0  0  0  0
  -25.0070  -33.9750   25.0412 H   0  0  0  0  0  0
  -22.7085  -31.3105   21.4148 H   0  0  0  0  0  0
  -23.3771  -35.9605   23.3253 H   0  0  0  0  0  0
  -24.3588  -36.8953   22.2053 H   0  0  0  0  0  0
  -23.7216  -37.6469   23.6677 H   0  0  0  0  0  0
  -26.0930  -31.5515   20.6113 H   0  0  0  0  0  0
  -26.8417  -30.8335   22.0088 H   0  0  0  0  0  0
  -28.1029  -28.9554   21.2106 H   0  0  0  0  0  0
  -25.9463  -25.9912   18.9031 H   0  0  0  0  0  0
  -23.9593  -27.3529   18.9697 H   0  0  0  0  0  0
  -23.7461  -30.6126   19.4098 H   0  0  0  0  0  0
  -22.7456  -29.2657   19.8614 H   0  0  0  0  0  0
  -25.1294  -36.1921   25.0812 H   0  0  0  0  0  0
  -20.9976  -28.3217   24.1412 H   0  0  0  0  0  0
  -20.5669  -26.2268   23.3583 H   0  0  0  0  0  0
  -21.6637  -26.7434   22.1183 H   0  0  0  0  0  0
  -19.6897  -25.6297   21.1220 H   0  0  0  0  0  0
  -19.6690  -27.3195   20.6736 H   0  0  0  0  0  0
  -17.4196  -26.6674   21.4020 H   0  0  0  0  0  0
  -18.0330  -26.0068   22.9015 H   0  0  0  0  0  0
  -19.7932  -30.7265   24.2262 H   0  0  0  0  0  0
  -17.5011  -31.6272   24.5149 H   0  0  0  0  0  0
  -15.5344  -30.2978   23.7671 H   0  0  0  0  0  0
  -15.8665  -28.0825   22.7057 H   0  0  0  0  0  0
  -24.5859  -30.7126   25.7762 H   0  0  0  0  0  0
  -24.8904  -32.2935   26.4875 H   0  0  0  0  0  0
  -25.8000  -30.8914   27.0234 H   0  0  0  0  0  0
  -26.2883  -29.6798   24.1197 H   0  0  0  0  0  0
  -27.3971  -29.7268   25.4698 H   0  0  0  0  0  0
  -27.8769  -30.4306   23.9437 H   0  0  0  0  0  0
  -27.2650  -33.3605   26.2131 H   0  0  0  0  0  0
  -28.3838  -32.6933   25.0341 H   0  0  0  0  0  0
  -28.0728  -31.8430   26.5395 H   0  0  0  0  0  0
  -28.2557  -38.0126   24.7573 H   0  0  0  0  0  0
  -28.1126  -36.2666   24.6189 H   0  0  0  0  0  0
  -27.2312  -37.1317   25.8849 H   0  0  0  0  0  0
  -20.9335  -29.8796   21.6962 H   0  0  0  0  0  0
  -26.0160  -38.2845   24.1473 H   0  0  0  0  0  0
  -31.2465  -17.8324   16.6894 H   0  0  0  0  0  0
  -30.4006  -20.0090   17.2925 H   0  0  0  0  0  0
  -31.0630  -15.9409   18.1724 H   0  0  0  0  0  0
  -29.1214  -18.4671   21.1408 H   0  0  0  0  0  0
  -28.2237  -22.7906   22.2334 H   0  0  0  0  0  0
  -30.2326  -21.9729   17.8554 H   0  0  0  0  0  0
  -31.0269  -22.1422   19.3996 H   0  0  0  0  0  0
  -28.2632  -20.9293   18.9282 H   0  0  0  0  0  0
  -29.9348  -24.2090   20.9094 H   0  0  0  0  0  0
  -27.5647  -25.0592   21.5159 H   0  0  0  0  0  0
  -27.1105  -24.6492   19.9064 H   0  0  0  0  0  0
  -29.0629  -15.6915   21.1011 H   0  0  0  0  0  0
  -28.5205  -23.3824   18.5051 H   0  0  0  0  0  0
  -29.9500  -24.1388   18.6299 H   0  0  0  0  0  0
  1 25  1  0  0  0
  1 30  2  0  0  0
  1 83  1  0  0  0
  2  3  1  0  0  0
  2 25  1  0  0  0
  2 85  1  0  0  0
  2 86  1  0  0  0
  3  4  1  0  0  0
  3 87  1  0  0  0
  3 88  1  0  0  0
  4  5  1  0  0  0
  4 89  1  0  0  0
  4 90  1  0  0  0
  5  6  1  0  0  0
  5 26  1  0  0  0
  5 91  1  0  0  0
  6 25  1  0  0  0
  6 92  1  0  0  0
  6 93  1  0  0  0
  7  8  2  0  0  0
  7 26  1  0  0  0
  7 29  1  0  0  0
  8  9  1  0  0  0
  8 22  1  0  0  0
  9 10  1  0  0  0
  9 27  2  0  0  0
 10 11  2  0  0  0
 10 15  1  0  0  0
 11 12  1  0  0  0
 11 94  1  0  0  0
 12 13  2  0  0  0
 12 95  1  0  0  0
 13 14  1  0  0  0
 13 31  1  0  0  0
 14 15  2  0  0  0
 14 96  1  0  0  0
 15 97  1  0  0  0
 16 17  2  0  0  0
 16 21  1  0  0  0
 16 31  1  0  0  0
 17 18  1  0  0  0
 17 98  1  0  0  0
 18 19  2  0  0  0
 18 99  1  0  0  0
 19 20  1  0  0  0
 19 24  1  0  0  0
 20 21  2  0  0  0
 20100  1  0  0  0
 21 23  1  0  0  0
 22 28  1  0  0  0
 22 32  2  0  0  0
 26 27  1  0  0  0
 28101  1  0  0  0
 28102  1  0  0  0
 29103  1  0  0  0
 29104  1  0  0  0
 33 34  1  0  0  0
 33 66  1  0  0  0
 33 70  2  0  0  0
 34 36  1  0  0  0
 34 59  1  0  0  0
 34105  1  0  0  0
 35 44  2  0  0  0
 35 45  1  0  0  0
 35 68  1  0  0  0
 36 56  1  0  0  0
 36106  1  0  0  0
 37 39  1  0  0  0
 37 47  1  0  0  0
 37 66  1  0  0  0
 37107  1  0  0  0
 38 43  2  0  0  0
 38 46  1  0  0  0
 38 47  1  0  0  0
 39 64  1  0  0  0
 39 67  2  0  0  0
 40 52  1  0  0  0
 40 53  2  0  0  0
 40 58  1  0  0  0
 41108  1  0  0  0
 41109  1  0  0  0
 41110  1  0  0  0
 41 48  1  0  0  0
 42 43  1  0  0  0
 42 66  1  0  0  0
 42111  1  0  0  0
 42112  1  0  0  0
 43 44  1  0  0  0
 44113  1  0  0  0
 45 46  2  0  0  0
 45114  1  0  0  0
 46115  1  0  0  0
 47116  1  0  0  0
 47117  1  0  0  0
 48 56  1  0  0  0
 48 65  1  0  0  0
 48118  1  0  0  0
 49 50  1  0  0  0
 49 53  1  0  0  0
 49 64  1  0  0  0
 49119  1  0  0  0
 50 51  1  0  0  0
 50120  1  0  0  0
 50121  1  0  0  0
 51 52  1  0  0  0
 51122  1  0  0  0
 51123  1  0  0  0
 52124  1  0  0  0
 52125  1  0  0  0
 53 54  1  0  0  0
 54 55  2  0  0  0
 54126  1  0  0  0
 55 57  1  0  0  0
 55127  1  0  0  0
 56 69  2  0  0  0
 57 58  2  0  0  0
 57128  1  0  0  0
 58129  1  0  0  0
 59 60  1  0  0  0
 59 61  1  0  0  0
 59 62  1  0  0  0
 60130  1  0  0  0
 60131  1  0  0  0
 60132  1  0  0  0
 61133  1  0  0  0
 61134  1  0  0  0
 61135  1  0  0  0
 62136  1  0  0  0
 62137  1  0  0  0
 62138  1  0  0  0
 63 65  1  0  0  0
 63139  1  0  0  0
 63140  1  0  0  0
 63141  1  0  0  0
 64142  1  0  0  0
 65143  1  0  0  0
 68 81  1  0  0  0
 71 72  2  0  0  0
 71 73  1  0  0  0
 71144  1  0  0  0
 72 75  1  0  0  0
 72145  1  0  0  0
 73 76  2  0  0  0
 73146  1  0  0  0
 74 75  2  0  0  0
 74 76  1  0  0  0
 74147  1  0  0  0
 75 79  1  0  0  0
 76 83  1  0  0  0
 77 80  1  0  0  0
 77 82  2  0  0  0
 77148  1  0  0  0
 78 79  1  0  0  0
 78 84  1  0  0  0
 78149  1  0  0  0
 78150  1  0  0  0
 79 82  1  0  0  0
 79151  1  0  0  0
 80 81  1  0  0  0
 80 84  1  0  0  0
 80152  1  0  0  0
 81153  1  0  0  0
 81154  1  0  0  0
 83155  1  0  0  0
 84156  1  0  0  0
 84157  1  0  0  0
M  CHG  1  84   1
M  ISO  4   1 100  68 101  81 101  83 100
M  END
> <chiral flag>
0

> <version>
0

> <s_m_source_file>
/data/baiqing/PycharmProjects/Reinvent-master-3.2/result/LINK_invent/BTK/process_docking_weight1_custom_product_contain_oxygen_bond_distance_aromatic_linkinvent_7_9_3/rearranged_h_0166.sdf

> <i_m_source_file_index>
88

> <r_mmod_Potential_Energy-OPLS-2005>
-59.869758605957

> <r_mmod_Stretch_Energy-OPLS-2005>
92.8880386352539

> <r_mmod_Bend_Energy-OPLS-2005>
144.337615966797

> <r_mmod_Torsional_Energy-OPLS-2005>
262.331878662109

> <r_mmod_Improper_Torsional_Energy-OPLS-2005>
6.82540082931519

> <r_mmod_Van_der_Waal_Energy-OPLS-2005>
171.982360839844

> <r_mmod_Electrostatic_Energy-OPLS-2005>
-307.575531005859

> <r_mmod_Solvation_Energy-OPLS-2005>
-486.712615966797

> <b_mmod_Minimization_Converged-OPLS-2005>
0

> <r_mmod_RMS_Derivative-OPLS-2005>
2.22506022453308

$$$$
89
                    3D
 Structure written by MMmdl.
157165  0  0  1  0            999 V2000
  -29.8114  -16.8965   20.2530 C   0  0  0  0  0  0
  -30.2677  -14.0418   19.5329 C   0  0  0  0  0  0
  -29.5785  -13.0791   18.4556 C   0  0  0  0  0  0
  -28.2784  -12.4474   18.9528 C   0  0  0  0  0  0
  -27.5731  -13.4864   19.8307 C   0  0  2  0  0  0
  -28.4795  -14.3008   20.8529 C   0  0  0  0  0  0
  -25.2099  -13.8583   20.6010 C   0  0  0  0  0  0
  -24.1667  -13.0488   20.9364 C   0  0  0  0  0  0
  -24.6619  -11.7081   20.8726 C   0  0  0  0  0  0
  -23.9337  -10.4340   21.0308 C   0  0  0  0  0  0
  -24.3792   -9.4244   21.9132 C   0  0  0  0  0  0
  -23.6399   -8.2305   22.0737 C   0  0  0  0  0  0
  -22.4370   -8.0343   21.3539 C   0  0  0  0  0  0
  -22.0062   -9.0329   20.4626 C   0  0  0  0  0  0
  -22.7459  -10.2176   20.2999 C   0  0  0  0  0  0
  -21.6891   -6.0781   22.5274 C   0  0  0  0  0  0
  -21.4049   -6.5667   23.8214 C   0  0  0  0  0  0
  -21.3665   -5.6807   24.9168 C   0  0  0  0  0  0
  -21.6042   -4.3068   24.7213 C   0  0  0  0  0  0
  -21.8813   -3.8170   23.4328 C   0  0  0  0  0  0
  -21.9204   -4.7000   22.3391 C   0  0  0  0  0  0
  -22.7616  -13.5045   21.1946 C   0  0  0  0  0  0
  -22.1662   -4.2185   21.0968 F   0  0  0  0  0  0
  -21.5621   -3.4540   25.7719 F   0  0  0  0  0  0
  -29.4336  -15.3046   20.1443 N   0  0  0  0  0  0
  -26.2848  -13.0318   20.3589 N   0  0  0  0  0  0
  -25.9662  -11.7169   20.5673 N   0  0  0  0  0  0
  -22.0356  -12.7975   22.0510 N   0  0  0  0  0  0
  -25.3327  -15.2355   20.4402 N   0  0  0  0  0  0
  -31.0633  -16.6294   20.1944 O   0  0  0  0  0  0
  -21.6688   -6.8957   21.4251 O   0  0  0  0  0  0
  -22.3214  -14.5321   20.6787 O   0  0  0  0  0  0
  -24.7674  -31.6907   23.0841 C   0  0  0  0  0  0
  -25.9811  -32.3959   23.7720 C   0  0  1  0  0  0
  -27.2941  -25.8284   20.2748 C   0  0  0  0  0  0
  -25.6008  -33.7839   24.1481 N   0  0  0  0  0  0
  -23.6358  -30.2490   21.4579 C   0  0  2  0  0  0
  -25.1147  -28.4099   20.1458 C   0  0  0  0  0  0
  -22.8155  -29.3707   22.4496 C   0  0  0  0  0  0
  -18.0392  -28.1462   22.8411 C   0  0  0  0  0  0
  -24.1499  -36.6939   23.2675 C   0  0  0  0  0  0
  -26.2399  -30.1236   21.4974 C   0  0  0  0  0  0
  -26.3026  -28.5897   20.8638 C   0  0  0  0  0  0
  -27.3230  -27.3560   20.8963 C   0  0  0  0  0  0
  -26.0924  -26.1072   19.4766 C   0  0  0  0  0  0
  -25.1003  -27.1931   19.4277 C   0  0  0  0  0  0
  -23.9436  -29.4635   20.1332 C   0  0  0  0  0  0
  -25.4180  -36.2612   24.0229 C   0  0  1  0  0  0
  -20.6070  -28.3849   23.0991 C   0  0  2  0  0  0
  -20.6810  -26.9429   22.5429 C   0  0  0  0  0  0
  -19.5805  -26.6333   21.5231 C   0  0  0  0  0  0
  -18.1985  -26.7972   22.1600 C   0  0  0  0  0  0
  -19.1681  -28.9001   23.2653 C   0  0  0  0  0  0
  -18.9569  -30.1562   23.8739 C   0  0  0  0  0  0
  -17.6549  -30.6622   24.0529 C   0  0  0  0  0  0
  -25.9204  -34.9018   23.4771 C   0  0  0  0  0  0
  -16.5434  -29.9091   23.6367 C   0  0  0  0  0  0
  -16.7365  -28.6515   23.0385 C   0  0  0  0  0  0
  -26.4721  -31.6387   25.0694 C   0  0  0  0  0  0
  -25.3562  -31.3924   26.1141 C   0  0  0  0  0  0
  -27.0808  -30.2654   24.7233 C   0  0  0  0  0  0
  -27.6010  -32.4472   25.7525 C   0  0  0  0  0  0
  -27.5545  -37.1622   24.8468 C   0  0  0  0  0  0
  -21.4729  -29.2905   22.3215 N   0  0  0  0  0  0
  -26.4240  -37.3466   23.9409 N   0  0  0  0  0  0
  -24.9160  -30.7435   22.0639 N   0  0  0  0  0  0
  -23.4167  -28.7464   23.3254 O   0  0  0  0  0  0
  -27.9929  -24.1222   20.2222 O   0  0  0  0  0  0
  -26.5978  -34.8758   22.4480 O   0  0  0  0  0  0
  -23.6512  -32.0403   23.5193 O   0  0  0  0  0  0
  -27.4896  -23.1845   22.0745 C   0  0  0  0  0  0
  -28.9473  -24.3452   22.0452 C   0  0  0  0  0  0
  -27.5252  -21.6821   21.0917 C   0  0  0  0  0  0
  -29.7122  -22.1418   19.8872 C   0  0  0  0  0  0
  -30.0428  -23.7352   20.6663 C   0  0  0  0  0  0
  -28.7889  -20.7229   20.3370 C   0  0  0  0  0  0
  -31.9918  -23.3007   21.7244 C   0  0  0  0  0  0
  -31.4793  -22.2562   23.9496 C   0  0  0  0  0  0
  -31.7310  -20.8168   21.9584 C   0  0  0  0  0  0
  -29.5158  -22.2192   22.2180 C   0  0  0  0  0  0
  -31.1510  -22.1762   22.4332 C   0  0  0  0  0  0
  -31.3746  -24.0493   20.8143 N   0  0  0  0  0  0
  -29.0450  -18.5968   20.2804 N   0  0  0  0  0  0
  -33.1857  -23.4675   21.9858 O   0  0  0  0  0  0
  -31.1366  -14.4618   19.0256 H   0  0  0  0  0  0
  -30.7184  -13.4469   20.3304 H   0  0  0  0  0  0
  -30.2731  -12.3019   18.1354 H   0  0  0  0  0  0
  -29.3585  -13.6698   17.5663 H   0  0  0  0  0  0
  -28.5106  -11.5657   19.5509 H   0  0  0  0  0  0
  -27.6502  -12.1177   18.1240 H   0  0  0  0  0  0
  -27.2894  -14.2381   19.0913 H   0  0  0  0  0  0
  -28.9797  -13.6379   21.5623 H   0  0  0  0  0  0
  -27.8345  -14.9137   21.4827 H   0  0  0  0  0  0
  -25.2931   -9.5689   22.4732 H   0  0  0  0  0  0
  -24.0072   -7.4702   22.7484 H   0  0  0  0  0  0
  -21.0984   -8.8886   19.8936 H   0  0  0  0  0  0
  -22.3926  -10.9712   19.6096 H   0  0  0  0  0  0
  -21.2057   -7.6175   23.9733 H   0  0  0  0  0  0
  -21.1485   -6.0530   25.9076 H   0  0  0  0  0  0
  -22.0585   -2.7632   23.2814 H   0  0  0  0  0  0
  -22.4080  -11.9688   22.4906 H   0  0  0  0  0  0
  -21.0931  -13.0864   22.2700 H   0  0  0  0  0  0
  -24.5428  -15.8632   20.5459 H   0  0  0  0  0  0
  -26.1703  -15.6996   20.1145 H   0  0  0  0  0  0
  -26.8023  -32.4304   23.0546 H   0  0  0  0  0  0
  -24.9922  -33.8743   24.9477 H   0  0  0  0  0  0
  -23.0140  -31.1063   21.1901 H   0  0  0  0  0  0
  -23.3812  -35.9213   23.3209 H   0  0  0  0  0  0
  -24.3541  -36.8778   22.2117 H   0  0  0  0  0  0
  -23.7214  -37.6029   23.6903 H   0  0  0  0  0  0
  -26.5354  -30.7854   20.6825 H   0  0  0  0  0  0
  -27.0618  -30.2169   22.1912 H   0  0  0  0  0  0
  -28.1793  -27.5342   21.5307 H   0  0  0  0  0  0
  -25.8082  -25.2661   18.8598 H   0  0  0  0  0  0
  -24.2440  -27.0209   18.7901 H   0  0  0  0  0  0
  -24.1849  -30.1877   19.3545 H   0  0  0  0  0  0
  -23.0359  -28.9677   19.7855 H   0  0  0  0  0  0
  -25.1429  -36.1273   25.0717 H   0  0  0  0  0  0
  -21.0110  -28.3543   24.1136 H   0  0  0  0  0  0
  -20.5594  -26.2504   23.3773 H   0  0  0  0  0  0
  -21.6668  -26.7238   22.1306 H   0  0  0  0  0  0
  -19.6952  -25.6202   21.1368 H   0  0  0  0  0  0
  -19.6782  -27.3061   20.6703 H   0  0  0  0  0  0
  -17.4272  -26.6731   21.3986 H   0  0  0  0  0  0
  -18.0323  -26.0149   22.9020 H   0  0  0  0  0  0
  -19.8047  -30.7406   24.2060 H   0  0  0  0  0  0
  -17.5097  -31.6287   24.5163 H   0  0  0  0  0  0
  -15.5431  -30.2947   23.7772 H   0  0  0  0  0  0
  -15.8763  -28.0774   22.7202 H   0  0  0  0  0  0
  -24.5835  -30.7193   25.7396 H   0  0  0  0  0  0
  -24.8663  -32.3205   26.4101 H   0  0  0  0  0  0
  -25.7538  -30.9378   27.0226 H   0  0  0  0  0  0
  -26.3669  -29.5957   24.2433 H   0  0  0  0  0  0
  -27.4079  -29.7497   25.6272 H   0  0  0  0  0  0
  -27.9704  -30.3612   24.1011 H   0  0  0  0  0  0
  -27.2459  -33.3971   26.1540 H   0  0  0  0  0  0
  -28.4071  -32.6718   25.0524 H   0  0  0  0  0  0
  -28.0403  -31.9001   26.5878 H   0  0  0  0  0  0
  -28.2478  -37.9990   24.7529 H   0  0  0  0  0  0
  -28.1123  -36.2505   24.6287 H   0  0  0  0  0  0
  -27.2257  -37.1225   25.8865 H   0  0  0  0  0  0
  -21.0261  -29.8413   21.6013 H   0  0  0  0  0  0
  -26.0003  -38.2481   24.1424 H   0  0  0  0  0  0
  -26.6296  -23.4084   22.6890 H   0  0  0  0  0  0
  -29.1022  -25.2137   22.6708 H   0  0  0  0  0  0
  -26.6473  -21.0874   21.3015 H   0  0  0  0  0  0
  -30.5498  -21.8551   19.2677 H   0  0  0  0  0  0
  -32.5514  -22.2125   24.1477 H   0  0  0  0  0  0
  -31.0297  -21.4262   24.4964 H   0  0  0  0  0  0
  -31.1118  -23.1837   24.3906 H   0  0  0  0  0  0
  -32.7784  -20.7077   22.2429 H   0  0  0  0  0  0
  -31.6952  -20.6990   20.8771 H   0  0  0  0  0  0
  -31.1952  -19.9727   22.3915 H   0  0  0  0  0  0
  -29.2781  -22.4483   23.2741 H   0  0  0  0  0  0
  -29.2340  -21.1967   22.5032 H   0  0  0  0  0  0
  -31.8102  -24.8119   20.3139 H   0  0  0  0  0  0
  -28.0893  -18.2699   20.3344 H   0  0  0  0  0  0
  1 25  1  0  0  0
  1 30  2  0  0  0
  1 83  1  0  0  0
  2  3  1  0  0  0
  2 25  1  0  0  0
  2 85  1  0  0  0
  2 86  1  0  0  0
  3  4  1  0  0  0
  3 87  1  0  0  0
  3 88  1  0  0  0
  4  5  1  0  0  0
  4 89  1  0  0  0
  4 90  1  0  0  0
  5  6  1  0  0  0
  5 26  1  0  0  0
  5 91  1  0  0  0
  6 25  1  0  0  0
  6 92  1  0  0  0
  6 93  1  0  0  0
  7  8  2  0  0  0
  7 26  1  0  0  0
  7 29  1  0  0  0
  8  9  1  0  0  0
  8 22  1  0  0  0
  9 10  1  0  0  0
  9 27  2  0  0  0
 10 11  2  0  0  0
 10 15  1  0  0  0
 11 12  1  0  0  0
 11 94  1  0  0  0
 12 13  2  0  0  0
 12 95  1  0  0  0
 13 14  1  0  0  0
 13 31  1  0  0  0
 14 15  2  0  0  0
 14 96  1  0  0  0
 15 97  1  0  0  0
 16 17  2  0  0  0
 16 21  1  0  0  0
 16 31  1  0  0  0
 17 18  1  0  0  0
 17 98  1  0  0  0
 18 19  2  0  0  0
 18 99  1  0  0  0
 19 20  1  0  0  0
 19 24  1  0  0  0
 20 21  2  0  0  0
 20100  1  0  0  0
 21 23  1  0  0  0
 22 28  1  0  0  0
 22 32  2  0  0  0
 26 27  1  0  0  0
 28101  1  0  0  0
 28102  1  0  0  0
 29103  1  0  0  0
 29104  1  0  0  0
 33 34  1  0  0  0
 33 66  1  0  0  0
 33 70  2  0  0  0
 34 36  1  0  0  0
 34 59  1  0  0  0
 34105  1  0  0  0
 35 44  2  0  0  0
 35 45  1  0  0  0
 35 68  1  0  0  0
 36 56  1  0  0  0
 36106  1  0  0  0
 37 39  1  0  0  0
 37 47  1  0  0  0
 37 66  1  0  0  0
 37107  1  0  0  0
 38 43  2  0  0  0
 38 46  1  0  0  0
 38 47  1  0  0  0
 39 64  1  0  0  0
 39 67  2  0  0  0
 40 52  1  0  0  0
 40 53  2  0  0  0
 40 58  1  0  0  0
 41108  1  0  0  0
 41109  1  0  0  0
 41110  1  0  0  0
 41 48  1  0  0  0
 42 43  1  0  0  0
 42 66  1  0  0  0
 42111  1  0  0  0
 42112  1  0  0  0
 43 44  1  0  0  0
 44113  1  0  0  0
 45 46  2  0  0  0
 45114  1  0  0  0
 46115  1  0  0  0
 47116  1  0  0  0
 47117  1  0  0  0
 48 56  1  0  0  0
 48 65  1  0  0  0
 48118  1  0  0  0
 49 50  1  0  0  0
 49 53  1  0  0  0
 49 64  1  0  0  0
 49119  1  0  0  0
 50 51  1  0  0  0
 50120  1  0  0  0
 50121  1  0  0  0
 51 52  1  0  0  0
 51122  1  0  0  0
 51123  1  0  0  0
 52124  1  0  0  0
 52125  1  0  0  0
 53 54  1  0  0  0
 54 55  2  0  0  0
 54126  1  0  0  0
 55 57  1  0  0  0
 55127  1  0  0  0
 56 69  2  0  0  0
 57 58  2  0  0  0
 57128  1  0  0  0
 58129  1  0  0  0
 59 60  1  0  0  0
 59 61  1  0  0  0
 59 62  1  0  0  0
 60130  1  0  0  0
 60131  1  0  0  0
 60132  1  0  0  0
 61133  1  0  0  0
 61134  1  0  0  0
 61135  1  0  0  0
 62136  1  0  0  0
 62137  1  0  0  0
 62138  1  0  0  0
 63 65  1  0  0  0
 63139  1  0  0  0
 63140  1  0  0  0
 63141  1  0  0  0
 64142  1  0  0  0
 65143  1  0  0  0
 68 80  1  0  0  0
 71 72  2  0  0  0
 71 73  1  0  0  0
 71144  1  0  0  0
 72 75  1  0  0  0
 72145  1  0  0  0
 73 76  2  0  0  0
 73146  1  0  0  0
 74 75  2  0  0  0
 74 76  1  0  0  0
 74147  1  0  0  0
 75 82  1  0  0  0
 76 83  1  0  0  0
 77 81  1  0  0  0
 77 82  1  0  0  0
 77 84  2  0  0  0
 78148  1  0  0  0
 78149  1  0  0  0
 78150  1  0  0  0
 78 81  1  0  0  0
 79 81  1  0  0  0
 79151  1  0  0  0
 79152  1  0  0  0
 79153  1  0  0  0
 80 81  1  0  0  0
 80154  1  0  0  0
 80155  1  0  0  0
 82156  1  0  0  0
 83157  1  0  0  0
M  ISO  4   1 100  68 101  80 101  83 100
M  END
> <chiral flag>
0

> <version>
0

> <s_m_source_file>
/data/baiqing/PycharmProjects/Reinvent-master-3.2/result/LINK_invent/BTK/process_docking_weight1_custom_product_contain_oxygen_bond_distance_aromatic_linkinvent_7_9_3/rearranged_h_0166.sdf

> <i_m_source_file_index>
89

> <r_mmod_Potential_Energy-OPLS-2005>
15340.49609375

> <r_mmod_Stretch_Energy-OPLS-2005>
8459.3388671875

> <r_mmod_Bend_Energy-OPLS-2005>
1145.12719726562

> <r_mmod_Torsional_Energy-OPLS-2005>
418.028900146484

> <r_mmod_Improper_Torsional_Energy-OPLS-2005>
18.8183708190918

> <r_mmod_Van_der_Waal_Energy-OPLS-2005>
2070.40502929688

> <r_mmod_Electrostatic_Energy-OPLS-2005>
-377.385528564453

> <r_mmod_Solvation_Energy-OPLS-2005>
-240.677597045898

> <b_mmod_Minimization_Converged-OPLS-2005>
0

> <r_mmod_RMS_Derivative-OPLS-2005>
2.19997715950012

$$$$
90
                    3D
 Structure written by MMmdl.
163172  0  0  1  0            999 V2000
  -30.5989  -14.8220   20.4528 C   0  0  0  0  0  0
  -30.4357  -12.5077   19.4739 C   0  0  0  0  0  0
  -29.5118  -12.5069   18.2368 C   0  0  0  0  0  0
  -28.0426  -12.3140   18.6594 C   0  0  0  0  0  0
  -27.6364  -13.2348   19.8408 C   0  0  2  0  0  0
  -28.6834  -13.2176   20.9737 C   0  0  0  0  0  0
  -25.2506  -13.8193   20.5690 C   0  0  0  0  0  0
  -24.1807  -13.0433   20.9212 C   0  0  0  0  0  0
  -24.6399  -11.6914   20.8750 C   0  0  0  0  0  0
  -23.9076  -10.4290   21.0409 C   0  0  0  0  0  0
  -24.3622   -9.4205   21.9183 C   0  0  0  0  0  0
  -23.6298   -8.2241   22.0757 C   0  0  0  0  0  0
  -22.4281   -8.0270   21.3547 C   0  0  0  0  0  0
  -21.9912   -9.0247   20.4645 C   0  0  0  0  0  0
  -22.7249  -10.2129   20.3055 C   0  0  0  0  0  0
  -21.6862   -6.0732   22.5281 C   0  0  0  0  0  0
  -21.4008   -6.5636   23.8209 C   0  0  0  0  0  0
  -21.3662   -5.6794   24.9173 C   0  0  0  0  0  0
  -21.6046   -4.3058   24.7227 C   0  0  0  0  0  0
  -21.8823   -3.8148   23.4350 C   0  0  0  0  0  0
  -21.9186   -4.6958   22.3403 C   0  0  0  0  0  0
  -22.7823  -13.5206   21.1865 C   0  0  0  0  0  0
  -22.1665   -4.2143   21.0985 F   0  0  0  0  0  0
  -21.5625   -3.4538   25.7742 F   0  0  0  0  0  0
  -29.9694  -13.5925   20.3746 N   0  0  0  0  0  0
  -26.2923  -12.9402   20.3255 N   0  0  0  0  0  0
  -25.9328  -11.6549   20.5744 N   0  0  0  0  0  0
  -22.0474  -12.8199   22.0422 N   0  0  0  0  0  0
  -25.4183  -15.1914   20.4121 N   0  0  0  0  0  0
  -31.8026  -14.8786   20.1844 O   0  0  0  0  0  0
  -21.6645   -6.8870   21.4244 O   0  0  0  0  0  0
  -22.3512  -14.5519   20.6717 O   0  0  0  0  0  0
  -24.6362  -31.8521   23.1965 C   0  0  0  0  0  0
  -25.9166  -32.4746   23.8333 C   0  0  1  0  0  0
  -27.2192  -27.2103   20.1462 C   0  0  0  0  0  0
  -25.5944  -33.8551   24.2255 N   0  0  0  0  0  0
  -23.4389  -30.4752   21.5377 C   0  0  2  0  0  0
  -24.8945  -28.9246   20.1018 C   0  0  0  0  0  0
  -22.7556  -29.4565   22.4841 C   0  0  0  0  0  0
  -18.0301  -28.1403   22.8517 C   0  0  0  0  0  0
  -24.1478  -36.7260   23.2641 C   0  0  0  0  0  0
  -25.9927  -30.7473   21.3904 C   0  0  0  0  0  0
  -26.0662  -29.3675   20.7313 C   0  0  0  0  0  0
  -27.2316  -28.5199   20.7535 C   0  0  0  0  0  0
  -26.0377  -26.8722   19.4476 C   0  0  0  0  0  0
  -24.8893  -27.6865   19.4447 C   0  0  0  0  0  0
  -23.6648  -29.8149   20.1522 C   0  0  0  0  0  0
  -25.4112  -36.3067   24.0337 C   0  0  1  0  0  0
  -20.5928  -28.3723   23.1254 C   0  0  2  0  0  0
  -20.6802  -26.9426   22.5407 C   0  0  0  0  0  0
  -19.5753  -26.6389   21.5229 C   0  0  0  0  0  0
  -18.1934  -26.7948   22.1641 C   0  0  0  0  0  0
  -19.1565  -28.8882   23.2877 C   0  0  0  0  0  0
  -18.9479  -30.1492   23.8890 C   0  0  0  0  0  0
  -17.6468  -30.6599   24.0571 C   0  0  0  0  0  0
  -25.9061  -34.9441   23.5091 C   0  0  0  0  0  0
  -16.5361  -29.9102   23.6336 C   0  0  0  0  0  0
  -16.7282  -28.6516   23.0371 C   0  0  0  0  0  0
  -26.4517  -31.6585   25.0741 C   0  0  0  0  0  0
  -25.3718  -31.3778   26.1453 C   0  0  0  0  0  0
  -27.0367  -30.2997   24.6265 C   0  0  0  0  0  0
  -27.6072  -32.4325   25.7496 C   0  0  0  0  0  0
  -27.5579  -37.1778   24.8460 C   0  0  0  0  0  0
  -21.4251  -29.3049   22.3622 N   0  0  0  0  0  0
  -26.4270  -37.3783   23.9429 N   0  0  0  0  0  0
  -24.7077  -31.0462   22.0957 N   0  0  0  0  0  0
  -23.4224  -28.8093   23.2958 O   0  0  0  0  0  0
  -28.2025  -26.1752   20.2626 O   0  0  0  0  0  0
  -26.5625  -34.8917   22.4651 O   0  0  0  0  0  0
  -23.5491  -32.1342   23.7244 O   0  0  0  0  0  0
  -31.4195  -17.6756   21.4976 C   0  0  0  0  0  0
  -29.4130  -18.6444   20.5518 C   0  0  0  0  0  0
  -31.7963  -18.9563   21.9484 C   0  0  0  0  0  0
  -30.9917  -20.1100   21.7067 C   0  0  0  0  0  0
  -30.2071  -17.4345   20.8273 C   0  0  0  0  0  0
  -29.7941  -20.0209   20.9282 C   0  0  0  0  0  0
  -27.6918  -24.9166   20.7521 C   0  0  0  0  0  0
  -27.9825  -23.5335   20.8420 C   0  0  0  0  0  0
  -29.1365  -22.6170   20.4607 C   0  0  0  0  0  0
  -31.4172  -21.4238   22.3685 C   0  0  0  0  0  0
  -33.0702  -19.0194   22.7949 C   0  0  0  0  0  0
  -32.4152  -21.2427   23.5212 C   0  0  0  0  0  0
  -34.6958  -20.4269   23.9933 C   0  0  0  0  0  0
  -28.9264  -21.2451   20.7262 N   0  0  0  0  0  0
  -29.8301  -15.9964   20.5653 N   0  0  0  0  0  0
  -33.5347  -20.3937   23.0759 N   0  3  1  0  0  0
  -30.1796  -23.0162   19.9406 O   0  0  0  0  0  0
  -26.9897  -22.8462   21.4377 O   0  0  0  0  0  0
  -31.4730  -12.6443   19.1624 H   0  0  0  0  0  0
  -30.4010  -11.5430   19.9837 H   0  0  0  0  0  0
  -29.8074  -11.7175   17.5443 H   0  0  0  0  0  0
  -29.6228  -13.4476   17.6948 H   0  0  0  0  0  0
  -27.9235  -11.2698   18.9513 H   0  0  0  0  0  0
  -27.3787  -12.4697   17.8086 H   0  0  0  0  0  0
  -27.6141  -14.2446   19.4318 H   0  0  0  0  0  0
  -28.7441  -12.2331   21.4405 H   0  0  0  0  0  0
  -28.4067  -13.9176   21.7633 H   0  0  0  0  0  0
  -25.2764   -9.5676   22.4757 H   0  0  0  0  0  0
  -24.0003   -7.4630   22.7477 H   0  0  0  0  0  0
  -21.0839   -8.8768   19.8948 H   0  0  0  0  0  0
  -22.3705  -10.9663   19.6160 H   0  0  0  0  0  0
  -21.2010   -7.6145   23.9711 H   0  0  0  0  0  0
  -21.1478   -6.0525   25.9077 H   0  0  0  0  0  0
  -22.0596   -2.7606   23.2857 H   0  0  0  0  0  0
  -22.4096  -11.9858   22.4806 H   0  0  0  0  0  0
  -21.1087  -13.1217   22.2623 H   0  0  0  0  0  0
  -24.6474  -15.8413   20.5179 H   0  0  0  0  0  0
  -26.2607  -15.6343   20.0705 H   0  0  0  0  0  0
  -26.7240  -32.5387   23.1075 H   0  0  0  0  0  0
  -25.0141  -33.9695   25.0440 H   0  0  0  0  0  0
  -22.7365  -31.2989   21.3908 H   0  0  0  0  0  0
  -23.3755  -35.9559   23.3267 H   0  0  0  0  0  0
  -24.3583  -36.8916   22.2057 H   0  0  0  0  0  0
  -23.7183  -37.6440   23.6676 H   0  0  0  0  0  0
  -26.1433  -31.5029   20.6187 H   0  0  0  0  0  0
  -26.8670  -30.7977   22.0286 H   0  0  0  0  0  0
  -28.1138  -28.8395   21.2895 H   0  0  0  0  0  0
  -25.9750  -25.9176   18.9440 H   0  0  0  0  0  0
  -23.9976  -27.3456   18.9370 H   0  0  0  0  0  0
  -23.7923  -30.5936   19.3989 H   0  0  0  0  0  0
  -22.7848  -29.2503   19.8403 H   0  0  0  0  0  0
  -25.1272  -36.1908   25.0826 H   0  0  0  0  0  0
  -21.0041  -28.3297   24.1371 H   0  0  0  0  0  0
  -20.5719  -26.2317   23.3623 H   0  0  0  0  0  0
  -21.6668  -26.7427   22.1196 H   0  0  0  0  0  0
  -19.6884  -25.6291   21.1277 H   0  0  0  0  0  0
  -19.6704  -27.3208   20.6770 H   0  0  0  0  0  0
  -17.4219  -26.6746   21.4019 H   0  0  0  0  0  0
  -18.0286  -26.0077   22.9028 H   0  0  0  0  0  0
  -19.7943  -30.7344   24.2226 H   0  0  0  0  0  0
  -17.5007  -31.6276   24.5188 H   0  0  0  0  0  0
  -15.5361  -30.2995   23.7675 H   0  0  0  0  0  0
  -15.8689  -28.0836   22.7076 H   0  0  0  0  0  0
  -24.5910  -30.7093   25.7807 H   0  0  0  0  0  0
  -24.8887  -32.2970   26.4788 H   0  0  0  0  0  0
  -25.8034  -30.9040   27.0281 H   0  0  0  0  0  0
  -26.2974  -29.6746   24.1260 H   0  0  0  0  0  0
  -27.4001  -29.7274   25.4805 H   0  0  0  0  0  0
  -27.8863  -30.4268   23.9557 H   0  0  0  0  0  0
  -27.2700  -33.3660   26.2010 H   0  0  0  0  0  0
  -28.3907  -32.6827   25.0330 H   0  0  0  0  0  0
  -28.0694  -31.8481   26.5466 H   0  0  0  0  0  0
  -28.2574  -38.0110   24.7579 H   0  0  0  0  0  0
  -28.1109  -36.2648   24.6178 H   0  0  0  0  0  0
  -27.2325  -37.1294   25.8875 H   0  0  0  0  0  0
  -20.9427  -29.8768   21.6838 H   0  0  0  0  0  0
  -26.0137  -38.2835   24.1496 H   0  0  0  0  0  0
  -32.0641  -16.8462   21.7522 H   0  0  0  0  0  0
  -28.4676  -18.5153   20.0441 H   0  0  0  0  0  0
  -26.7409  -25.1512   21.2121 H   0  0  0  0  0  0
  -30.5447  -21.9369   22.7724 H   0  0  0  0  0  0
  -31.8588  -22.0727   21.6139 H   0  0  0  0  0  0
  -33.8642  -18.4613   22.2967 H   0  0  0  0  0  0
  -32.8708  -18.5040   23.7372 H   0  0  0  0  0  0
  -31.9298  -20.7845   24.3855 H   0  0  0  0  0  0
  -32.7785  -22.2178   23.8493 H   0  0  0  0  0  0
  -35.5192  -19.8359   23.5923 H   0  0  0  0  0  0
  -34.4413  -20.0296   24.9765 H   0  0  0  0  0  0
  -35.0607  -21.4458   24.1250 H   0  0  0  0  0  0
  -27.9503  -21.0938   20.9480 H   0  0  0  0  0  0
  -28.8391  -15.8280   20.5030 H   0  0  0  0  0  0
  -33.8568  -20.7739   22.1999 H   0  0  0  0  0  0
  -26.3092  -23.4626   21.6754 H   0  0  0  0  0  0
  1 25  1  0  0  0
  1 30  2  0  0  0
  1 85  1  0  0  0
  2  3  1  0  0  0
  2 25  1  0  0  0
  2 89  1  0  0  0
  2 90  1  0  0  0
  3  4  1  0  0  0
  3 91  1  0  0  0
  3 92  1  0  0  0
  4  5  1  0  0  0
  4 93  1  0  0  0
  4 94  1  0  0  0
  5  6  1  0  0  0
  5 26  1  0  0  0
  5 95  1  0  0  0
  6 25  1  0  0  0
  6 96  1  0  0  0
  6 97  1  0  0  0
  7  8  2  0  0  0
  7 26  1  0  0  0
  7 29  1  0  0  0
  8  9  1  0  0  0
  8 22  1  0  0  0
  9 10  1  0  0  0
  9 27  2  0  0  0
 10 11  2  0  0  0
 10 15  1  0  0  0
 11 12  1  0  0  0
 11 98  1  0  0  0
 12 13  2  0  0  0
 12 99  1  0  0  0
 13 14  1  0  0  0
 13 31  1  0  0  0
 14 15  2  0  0  0
 14100  1  0  0  0
 15101  1  0  0  0
 16 17  2  0  0  0
 16 21  1  0  0  0
 16 31  1  0  0  0
 17 18  1  0  0  0
 17102  1  0  0  0
 18 19  2  0  0  0
 18103  1  0  0  0
 19 20  1  0  0  0
 19 24  1  0  0  0
 20 21  2  0  0  0
 20104  1  0  0  0
 21 23  1  0  0  0
 22 28  1  0  0  0
 22 32  2  0  0  0
 26 27  1  0  0  0
 28105  1  0  0  0
 28106  1  0  0  0
 29107  1  0  0  0
 29108  1  0  0  0
 33 34  1  0  0  0
 33 66  1  0  0  0
 33 70  2  0  0  0
 34 36  1  0  0  0
 34 59  1  0  0  0
 34109  1  0  0  0
 35 44  2  0  0  0
 35 45  1  0  0  0
 35 68  1  0  0  0
 36 56  1  0  0  0
 36110  1  0  0  0
 37 39  1  0  0  0
 37 47  1  0  0  0
 37 66  1  0  0  0
 37111  1  0  0  0
 38 43  2  0  0  0
 38 46  1  0  0  0
 38 47  1  0  0  0
 39 64  1  0  0  0
 39 67  2  0  0  0
 40 52  1  0  0  0
 40 53  2  0  0  0
 40 58  1  0  0  0
 41112  1  0  0  0
 41113  1  0  0  0
 41114  1  0  0  0
 41 48  1  0  0  0
 42 43  1  0  0  0
 42 66  1  0  0  0
 42115  1  0  0  0
 42116  1  0  0  0
 43 44  1  0  0  0
 44117  1  0  0  0
 45 46  2  0  0  0
 45118  1  0  0  0
 46119  1  0  0  0
 47120  1  0  0  0
 47121  1  0  0  0
 48 56  1  0  0  0
 48 65  1  0  0  0
 48122  1  0  0  0
 49 50  1  0  0  0
 49 53  1  0  0  0
 49 64  1  0  0  0
 49123  1  0  0  0
 50 51  1  0  0  0
 50124  1  0  0  0
 50125  1  0  0  0
 51 52  1  0  0  0
 51126  1  0  0  0
 51127  1  0  0  0
 52128  1  0  0  0
 52129  1  0  0  0
 53 54  1  0  0  0
 54 55  2  0  0  0
 54130  1  0  0  0
 55 57  1  0  0  0
 55131  1  0  0  0
 56 69  2  0  0  0
 57 58  2  0  0  0
 57132  1  0  0  0
 58133  1  0  0  0
 59 60  1  0  0  0
 59 61  1  0  0  0
 59 62  1  0  0  0
 60134  1  0  0  0
 60135  1  0  0  0
 60136  1  0  0  0
 61137  1  0  0  0
 61138  1  0  0  0
 61139  1  0  0  0
 62140  1  0  0  0
 62141  1  0  0  0
 62142  1  0  0  0
 63 65  1  0  0  0
 63143  1  0  0  0
 63144  1  0  0  0
 63145  1  0  0  0
 64146  1  0  0  0
 65147  1  0  0  0
 68 77  1  0  0  0
 71 73  2  0  0  0
 71 75  1  0  0  0
 71148  1  0  0  0
 72 75  2  0  0  0
 72 76  1  0  0  0
 72149  1  0  0  0
 73 74  1  0  0  0
 73 81  1  0  0  0
 74 76  2  0  0  0
 74 80  1  0  0  0
 75 85  1  0  0  0
 76 84  1  0  0  0
 77 78  2  0  0  0
 77150  1  0  0  0
 78 79  1  0  0  0
 78 88  1  0  0  0
 79 84  1  0  0  0
 79 87  2  0  0  0
 80 82  1  0  0  0
 80151  1  0  0  0
 80152  1  0  0  0
 81 86  1  0  0  0
 81153  1  0  0  0
 81154  1  0  0  0
 82 86  1  0  0  0
 82155  1  0  0  0
 82156  1  0  0  0
 83157  1  0  0  0
 83158  1  0  0  0
 83159  1  0  0  0
 83 86  1  0  0  0
 84160  1  0  0  0
 85161  1  0  0  0
 86162  1  0  0  0
 88163  1  0  0  0
M  CHG  1  86   1
M  ISO  4   1 100  68 101  77 101  85 100
M  END
> <chiral flag>
0

> <version>
0

> <s_m_source_file>
/data/baiqing/PycharmProjects/Reinvent-master-3.2/result/LINK_invent/BTK/process_docking_weight1_custom_product_contain_oxygen_bond_distance_aromatic_linkinvent_7_9_3/rearranged_h_0166.sdf

> <i_m_source_file_index>
90

> <r_mmod_Potential_Energy-OPLS-2005>
199.083770751953

> <r_mmod_Stretch_Energy-OPLS-2005>
174.37760925293

> <r_mmod_Bend_Energy-OPLS-2005>
264.424499511719

> <r_mmod_Torsional_Energy-OPLS-2005>
261.411987304688

> <r_mmod_Improper_Torsional_Energy-OPLS-2005>
8.24231910705566

> <r_mmod_Van_der_Waal_Energy-OPLS-2005>
163.359527587891

> <r_mmod_Electrostatic_Energy-OPLS-2005>
-348.106384277344

> <r_mmod_Solvation_Energy-OPLS-2005>
-463.547882080078

> <b_mmod_Minimization_Converged-OPLS-2005>
0

> <r_mmod_RMS_Derivative-OPLS-2005>
2.64382982254028

$$$$
91
                    3D
 Structure written by MMmdl.
168176  0  0  1  0            999 V2000
  -30.7528  -14.4458   20.5974 C   0  0  0  0  0  0
  -30.4067  -12.3019   19.4276 C   0  0  0  0  0  0
  -29.4863  -12.5025   18.2094 C   0  0  0  0  0  0
  -28.0103  -12.3653   18.6244 C   0  0  0  0  0  0
  -27.6589  -13.2142   19.8762 C   0  0  2  0  0  0
  -28.7007  -13.0172   21.0007 C   0  0  0  0  0  0
  -25.2566  -13.8187   20.5690 C   0  0  0  0  0  0
  -24.1825  -13.0453   20.9176 C   0  0  0  0  0  0
  -24.6391  -11.6921   20.8742 C   0  0  0  0  0  0
  -23.9062  -10.4296   21.0401 C   0  0  0  0  0  0
  -24.3612   -9.4211   21.9180 C   0  0  0  0  0  0
  -23.6285   -8.2248   22.0755 C   0  0  0  0  0  0
  -22.4270   -8.0285   21.3543 C   0  0  0  0  0  0
  -21.9906   -9.0256   20.4645 C   0  0  0  0  0  0
  -22.7233  -10.2135   20.3051 C   0  0  0  0  0  0
  -21.6853   -6.0735   22.5275 C   0  0  0  0  0  0
  -21.4013   -6.5636   23.8209 C   0  0  0  0  0  0
  -21.3660   -5.6788   24.9170 C   0  0  0  0  0  0
  -21.6045   -4.3052   24.7219 C   0  0  0  0  0  0
  -21.8821   -3.8146   23.4339 C   0  0  0  0  0  0
  -21.9192   -4.6964   22.3396 C   0  0  0  0  0  0
  -22.7846  -13.5239   21.1834 C   0  0  0  0  0  0
  -22.1659   -4.2150   21.0975 F   0  0  0  0  0  0
  -21.5631   -3.4538   25.7731 F   0  0  0  0  0  0
  -30.0332  -13.3006   20.4434 N   0  0  0  0  0  0
  -26.3011  -12.9371   20.3394 N   0  0  0  0  0  0
  -25.9324  -11.6521   20.5795 N   0  0  0  0  0  0
  -22.0492  -12.8226   22.0391 N   0  0  0  0  0  0
  -25.4307  -15.1901   20.4113 N   0  0  0  0  0  0
  -31.8507  -14.6053   20.0579 O   0  0  0  0  0  0
  -21.6639   -6.8880   21.4238 O   0  0  0  0  0  0
  -22.3531  -14.5545   20.6686 O   0  0  0  0  0  0
  -24.6135  -31.8669   23.2081 C   0  0  0  0  0  0
  -25.9025  -32.4809   23.8378 C   0  0  1  0  0  0
  -27.2336  -27.4164   20.1006 C   0  0  0  0  0  0
  -25.5890  -33.8615   24.2298 N   0  0  0  0  0  0
  -23.4025  -30.4883   21.5502 C   0  0  2  0  0  0
  -24.8469  -28.9514   20.1145 C   0  0  0  0  0  0
  -22.7411  -29.4641   22.5005 C   0  0  0  0  0  0
  -18.0272  -28.1360   22.8488 C   0  0  0  0  0  0
  -24.1484  -36.7308   23.2637 C   0  0  0  0  0  0
  -25.9312  -30.8268   21.3628 C   0  0  0  0  0  0
  -26.0056  -29.4593   20.7112 C   0  0  0  0  0  0
  -27.1966  -28.6971   20.7026 C   0  0  0  0  0  0
  -26.0496  -26.9211   19.5050 C   0  0  0  0  0  0
  -24.8655  -27.6833   19.5092 C   0  0  0  0  0  0
  -23.6084  -29.8188   20.1651 C   0  0  0  0  0  0
  -25.4110  -36.3112   24.0334 C   0  0  1  0  0  0
  -20.5860  -28.3635   23.1345 C   0  0  2  0  0  0
  -20.6762  -26.9379   22.5434 C   0  0  0  0  0  0
  -19.5745  -26.6374   21.5222 C   0  0  0  0  0  0
  -18.1915  -26.7909   22.1624 C   0  0  0  0  0  0
  -19.1519  -28.8817   23.2908 C   0  0  0  0  0  0
  -18.9457  -30.1426   23.8919 C   0  0  0  0  0  0
  -17.6460  -30.6573   24.0561 C   0  0  0  0  0  0
  -25.9047  -34.9477   23.5125 C   0  0  0  0  0  0
  -16.5343  -29.9074   23.6333 C   0  0  0  0  0  0
  -16.7266  -28.6487   23.0352 C   0  0  0  0  0  0
  -26.4449  -31.6596   25.0716 C   0  0  0  0  0  0
  -25.3711  -31.3727   26.1462 C   0  0  0  0  0  0
  -27.0275  -30.3043   24.6078 C   0  0  0  0  0  0
  -27.6022  -32.4309   25.7483 C   0  0  0  0  0  0
  -27.5582  -37.1805   24.8465 C   0  0  0  0  0  0
  -21.4139  -29.3004   22.3752 N   0  0  0  0  0  0
  -26.4289  -37.3801   23.9420 N   0  0  0  0  0  0
  -24.6675  -31.0757   22.0986 N   0  0  0  0  0  0
  -23.4184  -28.8190   23.3055 O   0  0  0  0  0  0
  -28.4273  -26.7143   20.1269 O   0  0  0  0  0  0
  -26.5615  -34.8922   22.4685 O   0  0  0  0  0  0
  -23.5323  -32.1426   23.7466 O   0  0  0  0  0  0
  -29.8688  -18.6268   20.4720 C   0  0  0  0  0  0
  -29.3011  -19.9141   20.4259 C   0  0  0  0  0  0
  -29.1729  -19.9477   22.8669 C   0  0  0  0  0  0
  -30.1228  -17.9820   21.6988 C   0  0  0  0  0  0
  -29.7408  -18.6296   22.9085 C   0  0  0  0  0  0
  -28.9686  -20.6053   21.6119 C   0  0  0  0  0  0
  -28.8095  -20.6518   24.1355 C   0  0  0  0  0  0
  -27.3469  -20.5258   24.5446 C   0  0  0  0  0  0
  -28.2915  -24.2946   20.7311 C   0  0  0  0  0  0
  -26.4007  -19.7156   23.6609 C   0  0  0  0  0  0
  -31.3291  -18.2000   24.8752 C   0  0  0  0  0  0
  -29.9598  -17.9021   24.2427 C   0  0  0  0  0  0
  -30.9255  -16.6711   21.6715 C   0  0  0  0  0  0
  -28.6597  -22.8238   20.4091 C   0  0  0  0  0  0
  -28.5189  -25.3593   19.6320 C   0  0  0  0  0  0
  -29.6820  -21.2995   24.7943 N   0  0  0  0  0  0
  -28.4344  -21.9185   21.5481 N   0  0  0  0  0  0
  -30.2012  -15.4362   21.3245 N   0  0  0  0  0  0
  -26.9037  -21.0572   25.5693 O   0  0  0  0  0  0
  -27.8487  -24.5942   21.8476 O   0  0  0  0  0  0
  -31.4535  -12.3709   19.1281 H   0  0  0  0  0  0
  -30.2873  -11.2977   19.8360 H   0  0  0  0  0  0
  -29.7250  -11.7733   17.4343 H   0  0  0  0  0  0
  -29.6559  -13.4871   17.7708 H   0  0  0  0  0  0
  -27.8231  -11.3101   18.8276 H   0  0  0  0  0  0
  -27.3582  -12.6336   17.7922 H   0  0  0  0  0  0
  -27.6986  -14.2598   19.5703 H   0  0  0  0  0  0
  -28.6718  -11.9902   21.3685 H   0  0  0  0  0  0
  -28.4624  -13.6437   21.8614 H   0  0  0  0  0  0
  -25.2762   -9.5687   22.4749 H   0  0  0  0  0  0
  -23.9996   -7.4642   22.7477 H   0  0  0  0  0  0
  -21.0842   -8.8774   19.8947 H   0  0  0  0  0  0
  -22.3697  -10.9673   19.6155 H   0  0  0  0  0  0
  -21.2006   -7.6144   23.9712 H   0  0  0  0  0  0
  -21.1480   -6.0517   25.9069 H   0  0  0  0  0  0
  -22.0602   -2.7609   23.2837 H   0  0  0  0  0  0
  -22.4110  -11.9875   22.4755 H   0  0  0  0  0  0
  -21.1114  -13.1255   22.2614 H   0  0  0  0  0  0
  -24.6709  -15.8521   20.5228 H   0  0  0  0  0  0
  -26.2930  -15.6252   20.1086 H   0  0  0  0  0  0
  -26.7089  -32.5518   23.1132 H   0  0  0  0  0  0
  -25.0033  -33.9777   25.0439 H   0  0  0  0  0  0
  -22.6917  -31.3046   21.4099 H   0  0  0  0  0  0
  -23.3752  -35.9638   23.3307 H   0  0  0  0  0  0
  -24.3584  -36.8931   22.2057 H   0  0  0  0  0  0
  -23.7225  -37.6506   23.6648 H   0  0  0  0  0  0
  -26.0412  -31.5912   20.5931 H   0  0  0  0  0  0
  -26.8207  -30.8838   21.9788 H   0  0  0  0  0  0
  -28.0913  -29.0874   21.1672 H   0  0  0  0  0  0
  -26.0068  -25.9497   19.0372 H   0  0  0  0  0  0
  -23.9722  -27.2830   19.0487 H   0  0  0  0  0  0
  -23.7123  -30.5911   19.4029 H   0  0  0  0  0  0
  -22.7333  -29.2377   19.8706 H   0  0  0  0  0  0
  -25.1281  -36.1980   25.0826 H   0  0  0  0  0  0
  -20.9938  -28.3178   24.1479 H   0  0  0  0  0  0
  -20.5689  -26.2237   23.3612 H   0  0  0  0  0  0
  -21.6625  -26.7446   22.1203 H   0  0  0  0  0  0
  -19.6926  -25.6299   21.1218 H   0  0  0  0  0  0
  -19.6683  -27.3214   20.6768 H   0  0  0  0  0  0
  -17.4193  -26.6674   21.4003 H   0  0  0  0  0  0
  -18.0296  -26.0051   22.9024 H   0  0  0  0  0  0
  -19.7941  -30.7222   24.2300 H   0  0  0  0  0  0
  -17.5022  -31.6265   24.5128 H   0  0  0  0  0  0
  -15.5343  -30.2977   23.7654 H   0  0  0  0  0  0
  -15.8663  -28.0801   22.7072 H   0  0  0  0  0  0
  -24.5895  -30.7046   25.7812 H   0  0  0  0  0  0
  -24.8872  -32.2889   26.4855 H   0  0  0  0  0  0
  -25.8062  -30.8946   27.0245 H   0  0  0  0  0  0
  -26.2810  -29.6842   24.1084 H   0  0  0  0  0  0
  -27.4015  -29.7241   25.4525 H   0  0  0  0  0  0
  -27.8662  -30.4385   23.9239 H   0  0  0  0  0  0
  -27.2643  -33.3622   26.2032 H   0  0  0  0  0  0
  -28.3847  -32.6841   25.0320 H   0  0  0  0  0  0
  -28.0647  -31.8439   26.5426 H   0  0  0  0  0  0
  -28.2583  -38.0112   24.7521 H   0  0  0  0  0  0
  -28.1085  -36.2646   24.6265 H   0  0  0  0  0  0
  -27.2301  -37.1429   25.8864 H   0  0  0  0  0  0
  -20.9296  -29.8731   21.6977 H   0  0  0  0  0  0
  -26.0186  -38.2882   24.1417 H   0  0  0  0  0  0
  -30.1591  -18.1472   19.5481 H   0  0  0  0  0  0
  -29.1436  -20.3677   19.4579 H   0  0  0  0  0  0
  -26.3767  -20.1285   22.6530 H   0  0  0  0  0  0
  -25.3892  -19.7435   24.0631 H   0  0  0  0  0  0
  -26.7232  -18.6764   23.6059 H   0  0  0  0  0  0
  -31.4667  -17.6179   25.7867 H   0  0  0  0  0  0
  -31.4333  -19.2497   25.1442 H   0  0  0  0  0  0
  -32.1510  -17.9568   24.2030 H   0  0  0  0  0  0
  -29.8495  -16.8271   24.0989 H   0  0  0  0  0  0
  -29.1706  -18.1399   24.9560 H   0  0  0  0  0  0
  -31.4555  -16.4986   22.6052 H   0  0  0  0  0  0
  -31.7294  -16.8533   20.9561 H   0  0  0  0  0  0
  -29.7079  -22.7890   20.1099 H   0  0  0  0  0  0
  -28.0671  -22.4961   19.5541 H   0  0  0  0  0  0
  -27.8785  -25.1743   18.7715 H   0  0  0  0  0  0
  -29.5368  -25.2209   19.2683 H   0  0  0  0  0  0
  -30.5873  -21.2481   24.3418 H   0  0  0  0  0  0
  -28.3167  -22.4366   22.4155 H   0  0  0  0  0  0
  -29.2919  -15.2815   21.7321 H   0  0  0  0  0  0
  1 25  1  0  0  0
  1 30  2  0  0  0
  1 88  1  0  0  0
  2  3  1  0  0  0
  2 25  1  0  0  0
  2 91  1  0  0  0
  2 92  1  0  0  0
  3  4  1  0  0  0
  3 93  1  0  0  0
  3 94  1  0  0  0
  4  5  1  0  0  0
  4 95  1  0  0  0
  4 96  1  0  0  0
  5  6  1  0  0  0
  5 26  1  0  0  0
  5 97  1  0  0  0
  6 25  1  0  0  0
  6 98  1  0  0  0
  6 99  1  0  0  0
  7  8  2  0  0  0
  7 26  1  0  0  0
  7 29  1  0  0  0
  8  9  1  0  0  0
  8 22  1  0  0  0
  9 10  1  0  0  0
  9 27  2  0  0  0
 10 11  2  0  0  0
 10 15  1  0  0  0
 11 12  1  0  0  0
 11100  1  0  0  0
 12 13  2  0  0  0
 12101  1  0  0  0
 13 14  1  0  0  0
 13 31  1  0  0  0
 14 15  2  0  0  0
 14102  1  0  0  0
 15103  1  0  0  0
 16 17  2  0  0  0
 16 21  1  0  0  0
 16 31  1  0  0  0
 17 18  1  0  0  0
 17104  1  0  0  0
 18 19  2  0  0  0
 18105  1  0  0  0
 19 20  1  0  0  0
 19 24  1  0  0  0
 20 21  2  0  0  0
 20106  1  0  0  0
 21 23  1  0  0  0
 22 28  1  0  0  0
 22 32  2  0  0  0
 26 27  1  0  0  0
 28107  1  0  0  0
 28108  1  0  0  0
 29109  1  0  0  0
 29110  1  0  0  0
 33 34  1  0  0  0
 33 66  1  0  0  0
 33 70  2  0  0  0
 34 36  1  0  0  0
 34 59  1  0  0  0
 34111  1  0  0  0
 35 44  2  0  0  0
 35 45  1  0  0  0
 35 68  1  0  0  0
 36 56  1  0  0  0
 36112  1  0  0  0
 37 39  1  0  0  0
 37 47  1  0  0  0
 37 66  1  0  0  0
 37113  1  0  0  0
 38 43  2  0  0  0
 38 46  1  0  0  0
 38 47  1  0  0  0
 39 64  1  0  0  0
 39 67  2  0  0  0
 40 52  1  0  0  0
 40 53  2  0  0  0
 40 58  1  0  0  0
 41114  1  0  0  0
 41115  1  0  0  0
 41116  1  0  0  0
 41 48  1  0  0  0
 42 43  1  0  0  0
 42 66  1  0  0  0
 42117  1  0  0  0
 42118  1  0  0  0
 43 44  1  0  0  0
 44119  1  0  0  0
 45 46  2  0  0  0
 45120  1  0  0  0
 46121  1  0  0  0
 47122  1  0  0  0
 47123  1  0  0  0
 48 56  1  0  0  0
 48 65  1  0  0  0
 48124  1  0  0  0
 49 50  1  0  0  0
 49 53  1  0  0  0
 49 64  1  0  0  0
 49125  1  0  0  0
 50 51  1  0  0  0
 50126  1  0  0  0
 50127  1  0  0  0
 51 52  1  0  0  0
 51128  1  0  0  0
 51129  1  0  0  0
 52130  1  0  0  0
 52131  1  0  0  0
 53 54  1  0  0  0
 54 55  2  0  0  0
 54132  1  0  0  0
 55 57  1  0  0  0
 55133  1  0  0  0
 56 69  2  0  0  0
 57 58  2  0  0  0
 57134  1  0  0  0
 58135  1  0  0  0
 59 60  1  0  0  0
 59 61  1  0  0  0
 59 62  1  0  0  0
 60136  1  0  0  0
 60137  1  0  0  0
 60138  1  0  0  0
 61139  1  0  0  0
 61140  1  0  0  0
 61141  1  0  0  0
 62142  1  0  0  0
 62143  1  0  0  0
 62144  1  0  0  0
 63 65  1  0  0  0
 63145  1  0  0  0
 63146  1  0  0  0
 63147  1  0  0  0
 64148  1  0  0  0
 65149  1  0  0  0
 68 85  1  0  0  0
 71 72  2  0  0  0
 71 74  1  0  0  0
 71150  1  0  0  0
 72 76  1  0  0  0
 72151  1  0  0  0
 73 75  1  0  0  0
 73 76  2  0  0  0
 73 77  1  0  0  0
 74 75  2  0  0  0
 74 83  1  0  0  0
 75 82  1  0  0  0
 76 87  1  0  0  0
 77 78  1  0  0  0
 77 86  2  0  0  0
 78 80  1  0  0  0
 78 89  2  0  0  0
 79 84  1  0  0  0
 79 85  1  0  0  0
 79 90  2  0  0  0
 80152  1  0  0  0
 80153  1  0  0  0
 80154  1  0  0  0
 81 82  1  0  0  0
 81155  1  0  0  0
 81156  1  0  0  0
 81157  1  0  0  0
 82158  1  0  0  0
 82159  1  0  0  0
 83 88  1  0  0  0
 83160  1  0  0  0
 83161  1  0  0  0
 84 87  1  0  0  0
 84162  1  0  0  0
 84163  1  0  0  0
 85164  1  0  0  0
 85165  1  0  0  0
 86166  1  0  0  0
 87167  1  0  0  0
 88168  1  0  0  0
M  ISO  4   1 100  68 101  85 101  88 100
M  END
> <chiral flag>
0

> <version>
0

> <s_m_source_file>
/data/baiqing/PycharmProjects/Reinvent-master-3.2/result/LINK_invent/BTK/process_docking_weight1_custom_product_contain_oxygen_bond_distance_aromatic_linkinvent_7_9_3/rearranged_h_0166.sdf

> <i_m_source_file_index>
91

> <r_mmod_Potential_Energy-OPLS-2005>
30.7622241973877

> <r_mmod_Stretch_Energy-OPLS-2005>
48.1875152587891

> <r_mmod_Bend_Energy-OPLS-2005>
120.832725524902

> <r_mmod_Torsional_Energy-OPLS-2005>
210.127685546875

> <r_mmod_Improper_Torsional_Energy-OPLS-2005>
4.70172452926636

> <r_mmod_Van_der_Waal_Energy-OPLS-2005>
165.605895996094

> <r_mmod_Electrostatic_Energy-OPLS-2005>
-269.915344238281

> <r_mmod_Solvation_Energy-OPLS-2005>
-262.097595214844

> <b_mmod_Minimization_Converged-OPLS-2005>
0

> <r_mmod_RMS_Derivative-OPLS-2005>
1.90752029418945

$$$$
92
                    3D
 Structure written by MMmdl.
156164  0  0  1  0            999 V2000
  -30.6863  -14.4823   20.5484 C   0  0  0  0  0  0
  -30.4389  -12.3078   19.4278 C   0  0  0  0  0  0
  -29.5024  -12.4877   18.2134 C   0  0  0  0  0  0
  -28.0221  -12.3575   18.6266 C   0  0  0  0  0  0
  -27.6700  -13.1972   19.8846 C   0  0  2  0  0  0
  -28.7146  -12.9721   21.0035 C   0  0  0  0  0  0
  -25.2661  -13.8173   20.5672 C   0  0  0  0  0  0
  -24.1869  -13.0489   20.9142 C   0  0  0  0  0  0
  -24.6368  -11.6937   20.8724 C   0  0  0  0  0  0
  -23.9027  -10.4334   21.0388 C   0  0  0  0  0  0
  -24.3600   -9.4269   21.9170 C   0  0  0  0  0  0
  -23.6295   -8.2298   22.0742 C   0  0  0  0  0  0
  -22.4282   -8.0299   21.3533 C   0  0  0  0  0  0
  -21.9889   -9.0271   20.4648 C   0  0  0  0  0  0
  -22.7187  -10.2163   20.3064 C   0  0  0  0  0  0
  -21.6868   -6.0749   22.5270 C   0  0  0  0  0  0
  -21.4010   -6.5639   23.8199 C   0  0  0  0  0  0
  -21.3656   -5.6783   24.9157 C   0  0  0  0  0  0
  -21.6053   -4.3049   24.7208 C   0  0  0  0  0  0
  -21.8843   -3.8143   23.4326 C   0  0  0  0  0  0
  -21.9216   -4.6974   22.3395 C   0  0  0  0  0  0
  -22.7885  -13.5317   21.1758 C   0  0  0  0  0  0
  -22.1675   -4.2156   21.0973 F   0  0  0  0  0  0
  -21.5633   -3.4542   25.7727 F   0  0  0  0  0  0
  -30.0431  -13.2864   20.4533 N   0  0  0  0  0  0
  -26.3081  -12.9288   20.3431 N   0  0  0  0  0  0
  -25.9311  -11.6467   20.5822 N   0  0  0  0  0  0
  -22.0485  -12.8394   22.0324 N   0  0  0  0  0  0
  -25.4507  -15.1880   20.4068 N   0  0  0  0  0  0
  -31.8222  -14.6683   20.1022 O   0  0  0  0  0  0
  -21.6661   -6.8885   21.4225 O   0  0  0  0  0  0
  -22.3606  -14.5611   20.6532 O   0  0  0  0  0  0
  -24.6200  -31.8668   23.2091 C   0  0  0  0  0  0
  -25.9080  -32.4815   23.8393 C   0  0  1  0  0  0
  -27.2201  -27.3912   20.1089 C   0  0  0  0  0  0
  -25.5898  -33.8610   24.2296 N   0  0  0  0  0  0
  -23.4081  -30.5017   21.5413 C   0  0  2  0  0  0
  -24.8512  -28.9634   20.1048 C   0  0  0  0  0  0
  -22.7425  -29.4705   22.4837 C   0  0  0  0  0  0
  -18.0292  -28.1415   22.8466 C   0  0  0  0  0  0
  -24.1471  -36.7331   23.2649 C   0  0  0  0  0  0
  -25.9422  -30.8234   21.3670 C   0  0  0  0  0  0
  -26.0121  -29.4559   20.7109 C   0  0  0  0  0  0
  -27.1958  -28.6775   20.7095 C   0  0  0  0  0  0
  -26.0326  -26.9172   19.5052 C   0  0  0  0  0  0
  -24.8573  -27.6964   19.4991 C   0  0  0  0  0  0
  -23.6239  -29.8490   20.1493 C   0  0  0  0  0  0
  -25.4093  -36.3106   24.0335 C   0  0  1  0  0  0
  -20.5893  -28.3723   23.1239 C   0  0  2  0  0  0
  -20.6772  -26.9436   22.5389 C   0  0  0  0  0  0
  -19.5748  -26.6394   21.5194 C   0  0  0  0  0  0
  -18.1933  -26.7949   22.1616 C   0  0  0  0  0  0
  -19.1549  -28.8873   23.2873 C   0  0  0  0  0  0
  -18.9483  -30.1461   23.8924 C   0  0  0  0  0  0
  -17.6490  -30.6613   24.0571 C   0  0  0  0  0  0
  -25.9030  -34.9475   23.5114 C   0  0  0  0  0  0
  -16.5375  -29.9133   23.6313 C   0  0  0  0  0  0
  -16.7282  -28.6547   23.0333 C   0  0  0  0  0  0
  -26.4477  -31.6637   25.0761 C   0  0  0  0  0  0
  -25.3727  -31.3788   26.1504 C   0  0  0  0  0  0
  -27.0319  -30.3064   24.6207 C   0  0  0  0  0  0
  -27.6023  -32.4380   25.7543 C   0  0  0  0  0  0
  -27.5562  -37.1833   24.8452 C   0  0  0  0  0  0
  -21.4146  -29.3097   22.3605 N   0  0  0  0  0  0
  -26.4266  -37.3799   23.9416 N   0  0  0  0  0  0
  -24.6749  -31.0791   22.0974 N   0  0  0  0  0  0
  -23.4170  -28.8228   23.2891 O   0  0  0  0  0  0
  -28.3872  -26.6434   20.1736 O   0  0  0  0  0  0
  -26.5595  -34.8935   22.4678 O   0  0  0  0  0  0
  -23.5387  -32.1410   23.7479 O   0  0  0  0  0  0
  -29.3063  -17.7840   18.0672 C   0  0  0  0  0  0
  -29.3383  -19.0537   18.6723 C   0  0  0  0  0  0
  -29.4943  -16.6258   18.8385 C   0  0  0  0  0  0
  -29.7333  -18.0028   20.8405 C   0  0  0  0  0  0
  -29.5321  -19.1844   20.0690 C   0  0  0  0  0  0
  -29.7374  -16.7169   20.2296 C   0  0  0  0  0  0
  -29.6738  -20.5678   20.6761 C   0  0  0  0  0  0
  -28.4496  -24.1006   20.1696 C   0  0  0  0  0  0
  -30.2370  -23.0300   18.5606 C   0  0  0  0  0  0
  -28.5656  -25.4422   19.3784 C   0  0  0  0  0  0
  -29.5098  -22.9621   19.9212 C   0  0  2  0  0  0
  -29.9379  -15.5166   20.9885 N   0  0  0  0  0  0
  -28.9997  -21.5757   20.0822 N   0  0  0  0  0  0
  -30.4289  -20.7487   21.6327 O   0  0  0  0  0  0
  -27.5243  -23.9548   20.9765 O   0  0  0  0  0  0
  -31.4793  -12.4277   19.1186 H   0  0  0  0  0  0
  -30.3691  -11.2962   19.8252 H   0  0  0  0  0  0
  -29.7398  -11.7470   17.4502 H   0  0  0  0  0  0
  -29.6722  -13.4584   17.7501 H   0  0  0  0  0  0
  -27.8276  -11.3027   18.8218 H   0  0  0  0  0  0
  -27.3723  -12.6391   17.7986 H   0  0  0  0  0  0
  -27.7154  -14.2446   19.5896 H   0  0  0  0  0  0
  -28.6976  -11.9312   21.3314 H   0  0  0  0  0  0
  -28.4885  -13.5669   21.8893 H   0  0  0  0  0  0
  -25.2756   -9.5787   22.4723 H   0  0  0  0  0  0
  -24.0041   -7.4723   22.7469 H   0  0  0  0  0  0
  -21.0811   -8.8767   19.8979 H   0  0  0  0  0  0
  -22.3601  -10.9702   19.6184 H   0  0  0  0  0  0
  -21.1953   -7.6138   23.9705 H   0  0  0  0  0  0
  -21.1445   -6.0491   25.9056 H   0  0  0  0  0  0
  -22.0616   -2.7606   23.2818 H   0  0  0  0  0  0
  -22.4064  -12.0105   22.4846 H   0  0  0  0  0  0
  -21.1093  -13.1446   22.2452 H   0  0  0  0  0  0
  -24.6965  -15.8587   20.5045 H   0  0  0  0  0  0
  -26.3179  -15.6150   20.1044 H   0  0  0  0  0  0
  -26.7156  -32.5487   23.1162 H   0  0  0  0  0  0
  -24.9997  -33.9739   25.0405 H   0  0  0  0  0  0
  -22.7019  -31.3236   21.4037 H   0  0  0  0  0  0
  -23.3715  -35.9681   23.3316 H   0  0  0  0  0  0
  -24.3567  -36.8955   22.2064 H   0  0  0  0  0  0
  -23.7241  -37.6548   23.6662 H   0  0  0  0  0  0
  -26.0652  -31.5924   20.6022 H   0  0  0  0  0  0
  -26.8270  -30.8697   21.9901 H   0  0  0  0  0  0
  -28.0891  -29.0522   21.1881 H   0  0  0  0  0  0
  -25.9757  -25.9341   19.0626 H   0  0  0  0  0  0
  -23.9584  -27.3119   19.0369 H   0  0  0  0  0  0
  -23.7639  -30.6370   19.4072 H   0  0  0  0  0  0
  -22.7400  -29.2992   19.8226 H   0  0  0  0  0  0
  -25.1281  -36.1963   25.0827 H   0  0  0  0  0  0
  -21.0029  -28.3322   24.1341 H   0  0  0  0  0  0
  -20.5641  -26.2348   23.3607 H   0  0  0  0  0  0
  -21.6646  -26.7436   22.1208 H   0  0  0  0  0  0
  -19.6909  -25.6291   21.1259 H   0  0  0  0  0  0
  -19.6703  -27.3174   20.6699 H   0  0  0  0  0  0
  -17.4189  -26.6670   21.4040 H   0  0  0  0  0  0
  -18.0362  -26.0110   22.9037 H   0  0  0  0  0  0
  -19.7972  -30.7252   24.2315 H   0  0  0  0  0  0
  -17.5073  -31.6299   24.5172 H   0  0  0  0  0  0
  -15.5391  -30.3080   23.7626 H   0  0  0  0  0  0
  -15.8664  -28.0902   22.7035 H   0  0  0  0  0  0
  -24.5835  -30.7212   25.7850 H   0  0  0  0  0  0
  -24.9007  -32.2976   26.4997 H   0  0  0  0  0  0
  -25.8062  -30.8909   27.0239 H   0  0  0  0  0  0
  -26.2911  -29.6844   24.1169 H   0  0  0  0  0  0
  -27.3952  -29.7303   25.4730 H   0  0  0  0  0  0
  -27.8801  -30.4371   23.9481 H   0  0  0  0  0  0
  -27.2593  -33.3630   26.2194 H   0  0  0  0  0  0
  -28.3813  -32.7035   25.0386 H   0  0  0  0  0  0
  -28.0718  -31.8474   26.5423 H   0  0  0  0  0  0
  -28.2576  -38.0133   24.7481 H   0  0  0  0  0  0
  -28.1055  -36.2661   24.6277 H   0  0  0  0  0  0
  -27.2282  -37.1497   25.8856 H   0  0  0  0  0  0
  -20.9262  -29.8872   21.6899 H   0  0  0  0  0  0
  -26.0146  -38.2866   24.1447 H   0  0  0  0  0  0
  -29.1589  -17.6938   17.0004 H   0  0  0  0  0  0
  -29.2518  -19.9279   18.0429 H   0  0  0  0  0  0
  -29.4588  -15.6673   18.3395 H   0  0  0  0  0  0
  -29.9262  -18.0925   21.9005 H   0  0  0  0  0  0
  -30.8316  -23.9362   18.4579 H   0  0  0  0  0  0
  -29.5390  -22.9849   17.7238 H   0  0  0  0  0  0
  -30.9327  -22.1969   18.4477 H   0  0  0  0  0  0
  -27.8960  -25.4093   18.5205 H   0  0  0  0  0  0
  -29.5666  -25.5199   18.9626 H   0  0  0  0  0  0
  -30.2830  -23.1169   20.6751 H   0  0  0  0  0  0
  -29.1653  -15.2541   21.5815 H   0  0  0  0  0  0
  -28.2897  -21.2909   19.4212 H   0  0  0  0  0  0
  1 25  1  0  0  0
  1 30  2  0  0  0
  1 82  1  0  0  0
  2  3  1  0  0  0
  2 25  1  0  0  0
  2 86  1  0  0  0
  2 87  1  0  0  0
  3  4  1  0  0  0
  3 88  1  0  0  0
  3 89  1  0  0  0
  4  5  1  0  0  0
  4 90  1  0  0  0
  4 91  1  0  0  0
  5  6  1  0  0  0
  5 26  1  0  0  0
  5 92  1  0  0  0
  6 25  1  0  0  0
  6 93  1  0  0  0
  6 94  1  0  0  0
  7  8  2  0  0  0
  7 26  1  0  0  0
  7 29  1  0  0  0
  8  9  1  0  0  0
  8 22  1  0  0  0
  9 10  1  0  0  0
  9 27  2  0  0  0
 10 11  2  0  0  0
 10 15  1  0  0  0
 11 12  1  0  0  0
 11 95  1  0  0  0
 12 13  2  0  0  0
 12 96  1  0  0  0
 13 14  1  0  0  0
 13 31  1  0  0  0
 14 15  2  0  0  0
 14 97  1  0  0  0
 15 98  1  0  0  0
 16 17  2  0  0  0
 16 21  1  0  0  0
 16 31  1  0  0  0
 17 18  1  0  0  0
 17 99  1  0  0  0
 18 19  2  0  0  0
 18100  1  0  0  0
 19 20  1  0  0  0
 19 24  1  0  0  0
 20 21  2  0  0  0
 20101  1  0  0  0
 21 23  1  0  0  0
 22 28  1  0  0  0
 22 32  2  0  0  0
 26 27  1  0  0  0
 28102  1  0  0  0
 28103  1  0  0  0
 29104  1  0  0  0
 29105  1  0  0  0
 33 34  1  0  0  0
 33 66  1  0  0  0
 33 70  2  0  0  0
 34 36  1  0  0  0
 34 59  1  0  0  0
 34106  1  0  0  0
 35 44  2  0  0  0
 35 45  1  0  0  0
 35 68  1  0  0  0
 36 56  1  0  0  0
 36107  1  0  0  0
 37 39  1  0  0  0
 37 47  1  0  0  0
 37 66  1  0  0  0
 37108  1  0  0  0
 38 43  2  0  0  0
 38 46  1  0  0  0
 38 47  1  0  0  0
 39 64  1  0  0  0
 39 67  2  0  0  0
 40 52  1  0  0  0
 40 53  2  0  0  0
 40 58  1  0  0  0
 41109  1  0  0  0
 41110  1  0  0  0
 41111  1  0  0  0
 41 48  1  0  0  0
 42 43  1  0  0  0
 42 66  1  0  0  0
 42112  1  0  0  0
 42113  1  0  0  0
 43 44  1  0  0  0
 44114  1  0  0  0
 45 46  2  0  0  0
 45115  1  0  0  0
 46116  1  0  0  0
 47117  1  0  0  0
 47118  1  0  0  0
 48 56  1  0  0  0
 48 65  1  0  0  0
 48119  1  0  0  0
 49 50  1  0  0  0
 49 53  1  0  0  0
 49 64  1  0  0  0
 49120  1  0  0  0
 50 51  1  0  0  0
 50121  1  0  0  0
 50122  1  0  0  0
 51 52  1  0  0  0
 51123  1  0  0  0
 51124  1  0  0  0
 52125  1  0  0  0
 52126  1  0  0  0
 53 54  1  0  0  0
 54 55  2  0  0  0
 54127  1  0  0  0
 55 57  1  0  0  0
 55128  1  0  0  0
 56 69  2  0  0  0
 57 58  2  0  0  0
 57129  1  0  0  0
 58130  1  0  0  0
 59 60  1  0  0  0
 59 61  1  0  0  0
 59 62  1  0  0  0
 60131  1  0  0  0
 60132  1  0  0  0
 60133  1  0  0  0
 61134  1  0  0  0
 61135  1  0  0  0
 61136  1  0  0  0
 62137  1  0  0  0
 62138  1  0  0  0
 62139  1  0  0  0
 63 65  1  0  0  0
 63140  1  0  0  0
 63141  1  0  0  0
 63142  1  0  0  0
 64143  1  0  0  0
 65144  1  0  0  0
 68 80  1  0  0  0
 71 72  2  0  0  0
 71 73  1  0  0  0
 71145  1  0  0  0
 72 75  1  0  0  0
 72146  1  0  0  0
 73 76  2  0  0  0
 73147  1  0  0  0
 74 75  2  0  0  0
 74 76  1  0  0  0
 74148  1  0  0  0
 75 77  1  0  0  0
 76 82  1  0  0  0
 77 83  1  0  0  0
 77 84  2  0  0  0
 78 80  1  0  0  0
 78 81  1  0  0  0
 78 85  2  0  0  0
 79149  1  0  0  0
 79150  1  0  0  0
 79151  1  0  0  0
 79 81  1  0  0  0
 80152  1  0  0  0
 80153  1  0  0  0
 81 83  1  0  0  0
 81154  1  0  0  0
 82155  1  0  0  0
 83156  1  0  0  0
M  ISO  4   1 100  68 101  80 101  82 100
M  END
> <chiral flag>
0

> <version>
0

> <s_m_source_file>
/data/baiqing/PycharmProjects/Reinvent-master-3.2/result/LINK_invent/BTK/process_docking_weight1_custom_product_contain_oxygen_bond_distance_aromatic_linkinvent_7_9_3/rearranged_h_0166.sdf

> <i_m_source_file_index>
92

> <r_mmod_Potential_Energy-OPLS-2005>
-53.7663955688477

> <r_mmod_Stretch_Energy-OPLS-2005>
48.4427833557129

> <r_mmod_Bend_Energy-OPLS-2005>
110.988105773926

> <r_mmod_Torsional_Energy-OPLS-2005>
280.048645019531

> <r_mmod_Improper_Torsional_Energy-OPLS-2005>
8.79540634155273

> <r_mmod_Van_der_Waal_Energy-OPLS-2005>
150.052947998047

> <r_mmod_Electrostatic_Energy-OPLS-2005>
-410.099761962891

> <r_mmod_Solvation_Energy-OPLS-2005>
-261.0888671875

> <b_mmod_Minimization_Converged-OPLS-2005>
0

> <r_mmod_RMS_Derivative-OPLS-2005>
3.62211441993713

$$$$
93
                    3D
 Structure written by MMmdl.
160168  0  0  1  0            999 V2000
  -30.6429  -14.6626   20.4414 C   0  0  0  0  0  0
  -30.4195  -12.3855   19.4760 C   0  0  0  0  0  0
  -29.5083  -12.4876   18.2340 C   0  0  0  0  0  0
  -28.0281  -12.3407   18.6387 C   0  0  0  0  0  0
  -27.6437  -13.2337   19.8505 C   0  0  2  0  0  0
  -28.6860  -13.1447   20.9847 C   0  0  0  0  0  0
  -25.2546  -13.8229   20.5764 C   0  0  0  0  0  0
  -24.1812  -13.0459   20.9188 C   0  0  0  0  0  0
  -24.6395  -11.6941   20.8726 C   0  0  0  0  0  0
  -23.9075  -10.4313   21.0389 C   0  0  0  0  0  0
  -24.3609   -9.4234   21.9180 C   0  0  0  0  0  0
  -23.6292   -8.2259   22.0748 C   0  0  0  0  0  0
  -22.4277   -8.0288   21.3532 C   0  0  0  0  0  0
  -21.9931   -9.0255   20.4623 C   0  0  0  0  0  0
  -22.7247  -10.2142   20.3038 C   0  0  0  0  0  0
  -21.6863   -6.0747   22.5282 C   0  0  0  0  0  0
  -21.4005   -6.5644   23.8211 C   0  0  0  0  0  0
  -21.3655   -5.6796   24.9175 C   0  0  0  0  0  0
  -21.6047   -4.3061   24.7228 C   0  0  0  0  0  0
  -21.8814   -3.8150   23.4348 C   0  0  0  0  0  0
  -21.9193   -4.6973   22.3403 C   0  0  0  0  0  0
  -22.7827  -13.5227   21.1844 C   0  0  0  0  0  0
  -22.1663   -4.2155   21.0985 F   0  0  0  0  0  0
  -21.5635   -3.4543   25.7743 F   0  0  0  0  0  0
  -30.0025  -13.4491   20.4146 N   0  0  0  0  0  0
  -26.2962  -12.9429   20.3310 N   0  0  0  0  0  0
  -25.9330  -11.6562   20.5750 N   0  0  0  0  0  0
  -22.0478  -12.8200   22.0394 N   0  0  0  0  0  0
  -25.4303  -15.1962   20.4349 N   0  0  0  0  0  0
  -31.8314  -14.6996   20.1126 O   0  0  0  0  0  0
  -21.6647   -6.8881   21.4238 O   0  0  0  0  0  0
  -22.3502  -14.5523   20.6697 O   0  0  0  0  0  0
  -24.6262  -31.8552   23.2011 C   0  0  0  0  0  0
  -25.9106  -32.4740   23.8322 C   0  0  1  0  0  0
  -27.2250  -27.3298   20.1106 C   0  0  0  0  0  0
  -25.5922  -33.8554   24.2244 N   0  0  0  0  0  0
  -23.4195  -30.4778   21.5431 C   0  0  2  0  0  0
  -24.8621  -28.9231   20.1134 C   0  0  0  0  0  0
  -22.7449  -29.4613   22.4948 C   0  0  0  0  0  0
  -18.0279  -28.1412   22.8453 C   0  0  0  0  0  0
  -24.1498  -36.7300   23.2633 C   0  0  0  0  0  0
  -25.9551  -30.7906   21.3635 C   0  0  0  0  0  0
  -26.0285  -29.4156   20.7135 C   0  0  0  0  0  0
  -27.2163  -28.6293   20.6996 C   0  0  0  0  0  0
  -26.0425  -26.8779   19.4947 C   0  0  0  0  0  0
  -24.8697  -27.6608   19.4959 C   0  0  0  0  0  0
  -23.6278  -29.8006   20.1614 C   0  0  0  0  0  0
  -25.4117  -36.3068   24.0309 C   0  0  1  0  0  0
  -20.5862  -28.3695   23.1289 C   0  0  2  0  0  0
  -20.6761  -26.9421   22.5418 C   0  0  0  0  0  0
  -19.5751  -26.6395   21.5224 C   0  0  0  0  0  0
  -18.1922  -26.7943   22.1617 C   0  0  0  0  0  0
  -19.1531  -28.8873   23.2860 C   0  0  0  0  0  0
  -18.9455  -30.1466   23.8891 C   0  0  0  0  0  0
  -17.6453  -30.6599   24.0562 C   0  0  0  0  0  0
  -25.9055  -34.9426   23.5074 C   0  0  0  0  0  0
  -16.5340  -29.9096   23.6341 C   0  0  0  0  0  0
  -16.7265  -28.6532   23.0331 C   0  0  0  0  0  0
  -26.4502  -31.6554   25.0693 C   0  0  0  0  0  0
  -25.3754  -31.3691   26.1434 C   0  0  0  0  0  0
  -27.0334  -30.2977   24.6142 C   0  0  0  0  0  0
  -27.6065  -32.4286   25.7461 C   0  0  0  0  0  0
  -27.5570  -37.1797   24.8452 C   0  0  0  0  0  0
  -21.4162  -29.3066   22.3695 N   0  0  0  0  0  0
  -26.4283  -37.3769   23.9400 N   0  0  0  0  0  0
  -24.6870  -31.0570   22.0948 N   0  0  0  0  0  0
  -23.4157  -28.8151   23.3034 O   0  0  0  0  0  0
  -28.3643  -26.5229   20.0711 O   0  0  0  0  0  0
  -26.5634  -34.8893   22.4649 O   0  0  0  0  0  0
  -23.5440  -32.1325   23.7370 O   0  0  0  0  0  0
  -30.5494  -19.3063   21.3399 C   0  0  0  0  0  0
  -30.2882  -20.6973   21.4341 C   0  0  0  0  0  0
  -28.5565  -20.4965   19.7910 C   0  0  0  0  0  0
  -29.8240  -18.4404   20.4856 C   0  0  0  0  0  0
  -29.2975  -21.3457   20.6592 C   0  0  0  0  0  0
  -28.7889  -19.0688   19.7140 C   0  0  0  0  0  0
  -30.3460  -16.9942   20.3656 C   0  0  0  0  0  0
  -26.8103  -18.4128   18.3317 C   0  0  0  0  0  0
  -26.3520  -17.3908   17.2993 C   0  0  0  0  0  0
  -27.5463  -25.2417   22.0642 C   0  0  0  0  0  0
  -28.4171  -23.8179   20.0737 C   0  0  0  0  0  0
  -28.4383  -25.2428   20.8097 C   0  0  1  0  0  0
  -29.8385  -15.8262   20.6722 N   0  0  0  0  0  0
  -28.0635  -18.2587   18.7895 N   0  0  0  0  0  0
  -29.1476  -22.7631   20.8454 N   0  0  0  0  0  0
  -26.0325  -19.2980   18.6929 O   0  0  0  0  0  0
  -31.4683  -12.4616   19.1839 H   0  0  0  0  0  0
  -30.3145  -11.4068   19.9468 H   0  0  0  0  0  0
  -29.7723  -11.7156   17.5109 H   0  0  0  0  0  0
  -29.6667  -13.4449   17.7317 H   0  0  0  0  0  0
  -27.8652  -11.2917   18.8887 H   0  0  0  0  0  0
  -27.3780  -12.5534   17.7879 H   0  0  0  0  0  0
  -27.6449  -14.2611   19.4851 H   0  0  0  0  0  0
  -28.6926  -12.1517   21.4350 H   0  0  0  0  0  0
  -28.4366  -13.8421   21.7881 H   0  0  0  0  0  0
  -25.2737   -9.5727   22.4785 H   0  0  0  0  0  0
  -23.9996   -7.4663   22.7488 H   0  0  0  0  0  0
  -21.0869   -8.8758   19.8925 H   0  0  0  0  0  0
  -22.3695  -10.9670   19.6145 H   0  0  0  0  0  0
  -21.1980   -7.6146   23.9717 H   0  0  0  0  0  0
  -21.1485   -6.0523   25.9080 H   0  0  0  0  0  0
  -22.0596   -2.7613   23.2848 H   0  0  0  0  0  0
  -22.4093  -11.9881   22.4809 H   0  0  0  0  0  0
  -21.1066  -13.1184   22.2525 H   0  0  0  0  0  0
  -24.6797  -15.8564   20.5999 H   0  0  0  0  0  0
  -26.3277  -15.6397   20.2817 H   0  0  0  0  0  0
  -26.7142  -32.5394   23.1044 H   0  0  0  0  0  0
  -25.0071  -33.9696   25.0384 H   0  0  0  0  0  0
  -22.7171  -31.2995   21.3916 H   0  0  0  0  0  0
  -23.3742  -35.9651   23.3308 H   0  0  0  0  0  0
  -24.3589  -36.8952   22.2049 H   0  0  0  0  0  0
  -23.7281  -37.6508   23.6671 H   0  0  0  0  0  0
  -26.0783  -31.5475   20.5876 H   0  0  0  0  0  0
  -26.8402  -30.8447   21.9874 H   0  0  0  0  0  0
  -28.1160  -29.0008   21.1665 H   0  0  0  0  0  0
  -26.0307  -25.9094   19.0138 H   0  0  0  0  0  0
  -23.9759  -27.2824   19.0178 H   0  0  0  0  0  0
  -23.7359  -30.5649   19.3917 H   0  0  0  0  0  0
  -22.7505  -29.2165   19.8732 H   0  0  0  0  0  0
  -25.1315  -36.1898   25.0798 H   0  0  0  0  0  0
  -20.9945  -28.3276   24.1407 H   0  0  0  0  0  0
  -20.5694  -26.2302   23.3614 H   0  0  0  0  0  0
  -21.6620  -26.7466   22.1198 H   0  0  0  0  0  0
  -19.6914  -25.6319   21.1239 H   0  0  0  0  0  0
  -19.6701  -27.3207   20.6752 H   0  0  0  0  0  0
  -17.4192  -26.6678   21.4017 H   0  0  0  0  0  0
  -18.0311  -26.0120   22.9043 H   0  0  0  0  0  0
  -19.7941  -30.7280   24.2252 H   0  0  0  0  0  0
  -17.5021  -31.6278   24.5177 H   0  0  0  0  0  0
  -15.5350  -30.2996   23.7708 H   0  0  0  0  0  0
  -15.8650  -28.0874   22.7026 H   0  0  0  0  0  0
  -24.5933  -30.7039   25.7778 H   0  0  0  0  0  0
  -24.8947  -32.2856   26.4855 H   0  0  0  0  0  0
  -25.8091  -30.8874   27.0202 H   0  0  0  0  0  0
  -26.2886  -29.6717   24.1223 H   0  0  0  0  0  0
  -27.4091  -29.7255   25.4632 H   0  0  0  0  0  0
  -27.8722  -30.4280   23.9307 H   0  0  0  0  0  0
  -27.2698  -33.3606   26.2006 H   0  0  0  0  0  0
  -28.3894  -32.6810   25.0301 H   0  0  0  0  0  0
  -28.0697  -31.8422   26.5418 H   0  0  0  0  0  0
  -28.2577  -38.0102   24.7497 H   0  0  0  0  0  0
  -28.1073  -36.2630   24.6273 H   0  0  0  0  0  0
  -27.2275  -37.1437   25.8851 H   0  0  0  0  0  0
  -20.9338  -29.8793   21.6904 H   0  0  0  0  0  0
  -26.0158  -38.2836   24.1417 H   0  0  0  0  0  0
  -31.3581  -18.8978   21.9288 H   0  0  0  0  0  0
  -30.9013  -21.2765   22.1104 H   0  0  0  0  0  0
  -27.8083  -20.9553   19.1623 H   0  0  0  0  0  0
  -31.3610  -17.0287   19.9576 H   0  0  0  0  0  0
  -26.6630  -16.3835   17.5794 H   0  0  0  0  0  0
  -26.7805  -17.6296   16.3261 H   0  0  0  0  0  0
  -25.2654  -17.3958   17.2030 H   0  0  0  0  0  0
  -27.7805  -24.3969   22.7135 H   0  0  0  0  0  0
  -26.4908  -25.1713   21.8041 H   0  0  0  0  0  0
  -27.6924  -26.1500   22.6488 H   0  0  0  0  0  0
  -28.8920  -23.9072   19.0948 H   0  0  0  0  0  0
  -27.3883  -23.5048   19.8932 H   0  0  0  0  0  0
  -29.4568  -25.3150   21.1926 H   0  0  0  0  0  0
  -28.5325  -17.4241   18.4685 H   0  0  0  0  0  0
  -29.7329  -23.1602   21.5754 H   0  0  0  0  0  0
  1 25  1  0  0  0
  1 30  2  0  0  0
  1 83  1  0  0  0
  2  3  1  0  0  0
  2 25  1  0  0  0
  2 87  1  0  0  0
  2 88  1  0  0  0
  3  4  1  0  0  0
  3 89  1  0  0  0
  3 90  1  0  0  0
  4  5  1  0  0  0
  4 91  1  0  0  0
  4 92  1  0  0  0
  5  6  1  0  0  0
  5 26  1  0  0  0
  5 93  1  0  0  0
  6 25  1  0  0  0
  6 94  1  0  0  0
  6 95  1  0  0  0
  7  8  2  0  0  0
  7 26  1  0  0  0
  7 29  1  0  0  0
  8  9  1  0  0  0
  8 22  1  0  0  0
  9 10  1  0  0  0
  9 27  2  0  0  0
 10 11  2  0  0  0
 10 15  1  0  0  0
 11 12  1  0  0  0
 11 96  1  0  0  0
 12 13  2  0  0  0
 12 97  1  0  0  0
 13 14  1  0  0  0
 13 31  1  0  0  0
 14 15  2  0  0  0
 14 98  1  0  0  0
 15 99  1  0  0  0
 16 17  2  0  0  0
 16 21  1  0  0  0
 16 31  1  0  0  0
 17 18  1  0  0  0
 17100  1  0  0  0
 18 19  2  0  0  0
 18101  1  0  0  0
 19 20  1  0  0  0
 19 24  1  0  0  0
 20 21  2  0  0  0
 20102  1  0  0  0
 21 23  1  0  0  0
 22 28  1  0  0  0
 22 32  2  0  0  0
 26 27  1  0  0  0
 28103  1  0  0  0
 28104  1  0  0  0
 29105  1  0  0  0
 29106  1  0  0  0
 33 34  1  0  0  0
 33 66  1  0  0  0
 33 70  2  0  0  0
 34 36  1  0  0  0
 34 59  1  0  0  0
 34107  1  0  0  0
 35 44  2  0  0  0
 35 45  1  0  0  0
 35 68  1  0  0  0
 36 56  1  0  0  0
 36108  1  0  0  0
 37 39  1  0  0  0
 37 47  1  0  0  0
 37 66  1  0  0  0
 37109  1  0  0  0
 38 43  2  0  0  0
 38 46  1  0  0  0
 38 47  1  0  0  0
 39 64  1  0  0  0
 39 67  2  0  0  0
 40 52  1  0  0  0
 40 53  2  0  0  0
 40 58  1  0  0  0
 41110  1  0  0  0
 41111  1  0  0  0
 41112  1  0  0  0
 41 48  1  0  0  0
 42 43  1  0  0  0
 42 66  1  0  0  0
 42113  1  0  0  0
 42114  1  0  0  0
 43 44  1  0  0  0
 44115  1  0  0  0
 45 46  2  0  0  0
 45116  1  0  0  0
 46117  1  0  0  0
 47118  1  0  0  0
 47119  1  0  0  0
 48 56  1  0  0  0
 48 65  1  0  0  0
 48120  1  0  0  0
 49 50  1  0  0  0
 49 53  1  0  0  0
 49 64  1  0  0  0
 49121  1  0  0  0
 50 51  1  0  0  0
 50122  1  0  0  0
 50123  1  0  0  0
 51 52  1  0  0  0
 51124  1  0  0  0
 51125  1  0  0  0
 52126  1  0  0  0
 52127  1  0  0  0
 53 54  1  0  0  0
 54 55  2  0  0  0
 54128  1  0  0  0
 55 57  1  0  0  0
 55129  1  0  0  0
 56 69  2  0  0  0
 57 58  2  0  0  0
 57130  1  0  0  0
 58131  1  0  0  0
 59 60  1  0  0  0
 59 61  1  0  0  0
 59 62  1  0  0  0
 60132  1  0  0  0
 60133  1  0  0  0
 60134  1  0  0  0
 61135  1  0  0  0
 61136  1  0  0  0
 61137  1  0  0  0
 62138  1  0  0  0
 62139  1  0  0  0
 62140  1  0  0  0
 63 65  1  0  0  0
 63141  1  0  0  0
 63142  1  0  0  0
 63143  1  0  0  0
 64144  1  0  0  0
 65145  1  0  0  0
 68 82  1  0  0  0
 71 72  2  0  0  0
 71 74  1  0  0  0
 71146  1  0  0  0
 72 75  1  0  0  0
 72147  1  0  0  0
 73 75  2  0  0  0
 73 76  1  0  0  0
 73148  1  0  0  0
 74 76  2  0  0  0
 74 77  1  0  0  0
 75 85  1  0  0  0
 76 84  1  0  0  0
 77 83  2  0  0  0
 77149  1  0  0  0
 78 79  1  0  0  0
 78 84  1  0  0  0
 78 86  2  0  0  0
 79150  1  0  0  0
 79151  1  0  0  0
 79152  1  0  0  0
 80153  1  0  0  0
 80154  1  0  0  0
 80155  1  0  0  0
 80 82  1  0  0  0
 81 82  1  0  0  0
 81 85  1  0  0  0
 81156  1  0  0  0
 81157  1  0  0  0
 82158  1  0  0  0
 84159  1  0  0  0
 85160  1  0  0  0
M  ISO  4   1 100  68 101  82 101  83 100
M  END
> <chiral flag>
0

> <version>
0

> <s_m_source_file>
/data/baiqing/PycharmProjects/Reinvent-master-3.2/result/LINK_invent/BTK/process_docking_weight1_custom_product_contain_oxygen_bond_distance_aromatic_linkinvent_7_9_3/rearranged_h_0166.sdf

> <i_m_source_file_index>
93

> <r_mmod_Potential_Energy-OPLS-2005>
103.84814453125

> <r_mmod_Stretch_Energy-OPLS-2005>
87.1249923706055

> <r_mmod_Bend_Energy-OPLS-2005>
187.084884643555

> <r_mmod_Torsional_Energy-OPLS-2005>
229.387908935547

> <r_mmod_Improper_Torsional_Energy-OPLS-2005>
5.36220741271973

> <r_mmod_Van_der_Waal_Energy-OPLS-2005>
146.212005615234

> <r_mmod_Electrostatic_Energy-OPLS-2005>
-384.446899414062

> <r_mmod_Solvation_Energy-OPLS-2005>
-216.462799072266

> <b_mmod_Minimization_Converged-OPLS-2005>
0

> <r_mmod_RMS_Derivative-OPLS-2005>
3.11690759658813

$$$$
94
                    3D
 Structure written by MMmdl.
171180  0  0  1  0            999 V2000
  -30.6340  -14.6591   20.4422 C   0  0  0  0  0  0
  -30.4400  -12.3945   19.4314 C   0  0  0  0  0  0
  -29.4973  -12.5074   18.2127 C   0  0  0  0  0  0
  -28.0239  -12.3426   18.6325 C   0  0  0  0  0  0
  -27.6559  -13.2153   19.8621 C   0  0  2  0  0  0
  -28.7159  -13.0877   20.9835 C   0  0  0  0  0  0
  -25.2580  -13.8143   20.5735 C   0  0  0  0  0  0
  -24.1871  -13.0438   20.9209 C   0  0  0  0  0  0
  -24.6445  -11.6907   20.8791 C   0  0  0  0  0  0
  -23.9113  -10.4292   21.0433 C   0  0  0  0  0  0
  -24.3653   -9.4206   21.9215 C   0  0  0  0  0  0
  -23.6333   -8.2248   22.0781 C   0  0  0  0  0  0
  -22.4302   -8.0299   21.3571 C   0  0  0  0  0  0
  -21.9961   -9.0258   20.4651 C   0  0  0  0  0  0
  -22.7294  -10.2138   20.3067 C   0  0  0  0  0  0
  -21.6855   -6.0781   22.5300 C   0  0  0  0  0  0
  -21.3987   -6.5685   23.8232 C   0  0  0  0  0  0
  -21.3663   -5.6836   24.9194 C   0  0  0  0  0  0
  -21.6046   -4.3089   24.7235 C   0  0  0  0  0  0
  -21.8822   -3.8194   23.4355 C   0  0  0  0  0  0
  -21.9180   -4.7011   22.3411 C   0  0  0  0  0  0
  -22.7883  -13.5208   21.1879 C   0  0  0  0  0  0
  -22.1661   -4.2202   21.0983 F   0  0  0  0  0  0
  -21.5647   -3.4559   25.7745 F   0  0  0  0  0  0
  -30.0285  -13.4289   20.4031 N   0  0  0  0  0  0
  -26.3031  -12.9357   20.3377 N   0  0  0  0  0  0
  -25.9366  -11.6502   20.5813 N   0  0  0  0  0  0
  -22.0516  -12.8164   22.0371 N   0  0  0  0  0  0
  -25.4221  -15.1879   20.4147 N   0  0  0  0  0  0
  -31.8033  -14.8236   20.0887 O   0  0  0  0  0  0
  -21.6652   -6.8915   21.4273 O   0  0  0  0  0  0
  -22.3581  -14.5550   20.6765 O   0  0  0  0  0  0
  -24.6310  -31.8594   23.2018 C   0  0  0  0  0  0
  -25.9130  -32.4761   23.8376 C   0  0  1  0  0  0
  -27.2175  -27.3078   20.1130 C   0  0  0  0  0  0
  -25.5936  -33.8555   24.2289 N   0  0  0  0  0  0
  -23.4250  -30.4828   21.5511 C   0  0  2  0  0  0
  -24.8741  -28.9494   20.1019 C   0  0  0  0  0  0
  -22.7527  -29.4584   22.4965 C   0  0  0  0  0  0
  -18.0284  -28.1387   22.8555 C   0  0  0  0  0  0
  -24.1484  -36.7263   23.2652 C   0  0  0  0  0  0
  -25.9661  -30.7878   21.3734 C   0  0  0  0  0  0
  -26.0426  -29.4117   20.7203 C   0  0  0  0  0  0
  -27.2217  -28.6044   20.7185 C   0  0  0  0  0  0
  -26.0373  -26.9174   19.4421 C   0  0  0  0  0  0
  -24.8768  -27.7107   19.4458 C   0  0  0  0  0  0
  -23.6390  -29.8252   20.1630 C   0  0  0  0  0  0
  -25.4114  -36.3057   24.0328 C   0  0  1  0  0  0
  -20.5897  -28.3676   23.1310 C   0  0  2  0  0  0
  -20.6762  -26.9404   22.5426 C   0  0  0  0  0  0
  -19.5703  -26.6400   21.5247 C   0  0  0  0  0  0
  -18.1888  -26.7938   22.1658 C   0  0  0  0  0  0
  -19.1556  -28.8857   23.2909 C   0  0  0  0  0  0
  -18.9450  -30.1478   23.8920 C   0  0  0  0  0  0
  -17.6442  -30.6586   24.0584 C   0  0  0  0  0  0
  -25.9074  -34.9425   23.5103 C   0  0  0  0  0  0
  -16.5347  -29.9093   23.6357 C   0  0  0  0  0  0
  -16.7263  -28.6504   23.0405 C   0  0  0  0  0  0
  -26.4531  -31.6574   25.0738 C   0  0  0  0  0  0
  -25.3717  -31.3502   26.1384 C   0  0  0  0  0  0
  -27.0479  -30.3090   24.6085 C   0  0  0  0  0  0
  -27.6101  -32.4326   25.7501 C   0  0  0  0  0  0
  -27.5547  -37.1795   24.8477 C   0  0  0  0  0  0
  -21.4236  -29.3000   22.3701 N   0  0  0  0  0  0
  -26.4263  -37.3769   23.9408 N   0  0  0  0  0  0
  -24.6935  -31.0600   22.0982 N   0  0  0  0  0  0
  -23.4251  -28.8096   23.3023 O   0  0  0  0  0  0
  -28.2929  -26.4025   20.1534 O   0  0  0  0  0  0
  -26.5656  -34.8875   22.4687 O   0  0  0  0  0  0
  -23.5476  -32.1397   23.7337 O   0  0  0  0  0  0
  -28.5482  -17.7320   20.1210 C   0  0  0  0  0  0
  -28.4290  -19.1077   19.8127 C   0  0  0  0  0  0
  -30.9032  -18.0466   20.2883 C   0  0  0  0  0  0
  -29.8053  -17.1373   20.3599 C   0  0  0  0  0  0
  -29.5627  -19.9479   19.7172 C   0  0  0  0  0  0
  -31.7612  -22.9633   19.4641 C   0  0  0  0  0  0
  -30.1359  -21.8478   17.8898 C   0  0  0  0  0  0
  -30.6642  -23.1451   20.5309 C   0  0  0  0  0  0
  -29.3813  -21.4561   19.2074 C   0  0  2  0  0  0
  -31.2879  -22.9050   18.0033 C   0  0  0  0  0  0
  -32.4793  -22.4283   17.1444 C   0  0  0  0  0  0
  -30.9190  -24.3257   17.4772 C   0  0  0  0  0  0
  -28.3289  -24.9366   22.1438 C   0  0  0  0  0  0
  -28.2866  -23.6989   19.7830 C   0  0  0  0  0  0
  -27.9917  -25.0233   20.6505 C   0  0  2  0  0  0
  -30.7871  -19.3929   19.9867 N   0  0  0  0  0  0
  -29.8014  -15.7086   20.7168 N   0  0  0  0  0  0
  -29.3120  -22.6236   20.1806 N   0  3  2  0  0  0
  -31.4807  -12.5051   19.1166 H   0  0  0  0  0  0
  -30.3657  -11.4032   19.8816 H   0  0  0  0  0  0
  -29.7552  -11.7632   17.4548 H   0  0  0  0  0  0
  -29.6305  -13.4821   17.7411 H   0  0  0  0  0  0
  -27.8478  -11.2864   18.8454 H   0  0  0  0  0  0
  -27.3696  -12.5842   17.7938 H   0  0  0  0  0  0
  -27.6635  -14.2481   19.5159 H   0  0  0  0  0  0
  -28.7334  -12.0728   21.3804 H   0  0  0  0  0  0
  -28.4750  -13.7337   21.8303 H   0  0  0  0  0  0
  -25.2787   -9.5694   22.4794 H   0  0  0  0  0  0
  -24.0057   -7.4643   22.7488 H   0  0  0  0  0  0
  -21.0928   -8.8788   19.8901 H   0  0  0  0  0  0
  -22.3786  -10.9708   19.6177 H   0  0  0  0  0  0
  -21.1951   -7.6188   23.9752 H   0  0  0  0  0  0
  -21.1497   -6.0562   25.9109 H   0  0  0  0  0  0
  -22.0582   -2.7650   23.2849 H   0  0  0  0  0  0
  -22.4150  -11.9785   22.4689 H   0  0  0  0  0  0
  -21.1095  -13.1130   22.2570 H   0  0  0  0  0  0
  -24.6406  -15.8249   20.5250 H   0  0  0  0  0  0
  -26.2565  -15.6383   20.0679 H   0  0  0  0  0  0
  -26.7205  -32.5482   23.1139 H   0  0  0  0  0  0
  -25.0042  -33.9709   25.0400 H   0  0  0  0  0  0
  -22.7170  -31.3025   21.4109 H   0  0  0  0  0  0
  -23.3755  -35.9586   23.3307 H   0  0  0  0  0  0
  -24.3539  -36.8938   22.2066 H   0  0  0  0  0  0
  -23.7235  -37.6448   23.6713 H   0  0  0  0  0  0
  -26.0883  -31.5466   20.6000 H   0  0  0  0  0  0
  -26.8501  -30.8523   21.9950 H   0  0  0  0  0  0
  -28.1168  -28.9480   21.2181 H   0  0  0  0  0  0
  -26.0065  -25.9729   18.9180 H   0  0  0  0  0  0
  -23.9940  -27.3636   18.9298 H   0  0  0  0  0  0
  -23.7410  -30.6058   19.4070 H   0  0  0  0  0  0
  -22.7599  -29.2494   19.8743 H   0  0  0  0  0  0
  -25.1287  -36.1900   25.0816 H   0  0  0  0  0  0
  -20.9999  -28.3227   24.1426 H   0  0  0  0  0  0
  -20.5732  -26.2251   23.3601 H   0  0  0  0  0  0
  -21.6601  -26.7425   22.1170 H   0  0  0  0  0  0
  -19.6834  -25.6327   21.1242 H   0  0  0  0  0  0
  -19.6633  -27.3243   20.6800 H   0  0  0  0  0  0
  -17.4181  -26.6813   21.4026 H   0  0  0  0  0  0
  -18.0167  -26.0038   22.8992 H   0  0  0  0  0  0
  -19.7920  -30.7301   24.2307 H   0  0  0  0  0  0
  -17.4975  -31.6273   24.5172 H   0  0  0  0  0  0
  -15.5344  -30.2968   23.7644 H   0  0  0  0  0  0
  -15.8667  -28.0792   22.7118 H   0  0  0  0  0  0
  -24.6133  -30.6610   25.7615 H   0  0  0  0  0  0
  -24.8552  -32.2498   26.4739 H   0  0  0  0  0  0
  -25.8029  -30.8791   27.0221 H   0  0  0  0  0  0
  -26.3083  -29.6737   24.1200 H   0  0  0  0  0  0
  -27.4439  -29.7393   25.4495 H   0  0  0  0  0  0
  -27.8770  -30.4555   23.9154 H   0  0  0  0  0  0
  -27.2848  -33.3754   26.1917 H   0  0  0  0  0  0
  -28.3973  -32.6695   25.0313 H   0  0  0  0  0  0
  -28.0687  -31.8524   26.5530 H   0  0  0  0  0  0
  -28.2561  -38.0105   24.7587 H   0  0  0  0  0  0
  -28.1086  -36.2643   24.6298 H   0  0  0  0  0  0
  -27.2248  -37.1412   25.8878 H   0  0  0  0  0  0
  -20.9416  -29.8755   21.6947 H   0  0  0  0  0  0
  -26.0146  -38.2838   24.1443 H   0  0  0  0  0  0
  -27.6566  -17.1250   20.1636 H   0  0  0  0  0  0
  -27.4433  -19.5005   19.6186 H   0  0  0  0  0  0
  -31.9039  -17.7053   20.5121 H   0  0  0  0  0  0
  -32.2796  -22.0318   19.6794 H   0  0  0  0  0  0
  -32.5085  -23.7500   19.5907 H   0  0  0  0  0  0
  -29.4047  -22.2323   17.1741 H   0  0  0  0  0  0
  -30.5061  -20.9270   17.4353 H   0  0  0  0  0  0
  -30.6205  -24.1970   20.7960 H   0  0  0  0  0  0
  -30.9931  -22.6176   21.4286 H   0  0  0  0  0  0
  -28.3543  -21.3841   18.8563 H   0  0  0  0  0  0
  -32.9578  -21.5516   17.5815 H   0  0  0  0  0  0
  -33.2480  -23.1976   17.0441 H   0  0  0  0  0  0
  -32.1610  -22.1504   16.1386 H   0  0  0  0  0  0
  -30.0929  -24.7994   17.9984 H   0  0  0  0  0  0
  -30.6608  -24.3196   16.4153 H   0  0  0  0  0  0
  -31.7551  -25.0196   17.5819 H   0  0  0  0  0  0
  -27.8721  -24.0516   22.5883 H   0  0  0  0  0  0
  -27.9302  -25.8099   22.6588 H   0  0  0  0  0  0
  -29.3949  -24.9087   22.3580 H   0  0  0  0  0  0
  -28.3493  -23.9615   18.7325 H   0  0  0  0  0  0
  -27.3520  -23.1327   19.8237 H   0  0  0  0  0  0
  -26.9036  -24.9681   20.6890 H   0  0  0  0  0  0
  -28.8971  -15.3615   20.9959 H   0  0  0  0  0  0
  -28.9594  -22.2169   21.0371 H   0  0  0  0  0  0
  1 25  1  0  0  0
  1 30  2  0  0  0
  1 87  1  0  0  0
  2  3  1  0  0  0
  2 25  1  0  0  0
  2 89  1  0  0  0
  2 90  1  0  0  0
  3  4  1  0  0  0
  3 91  1  0  0  0
  3 92  1  0  0  0
  4  5  1  0  0  0
  4 93  1  0  0  0
  4 94  1  0  0  0
  5  6  1  0  0  0
  5 26  1  0  0  0
  5 95  1  0  0  0
  6 25  1  0  0  0
  6 96  1  0  0  0
  6 97  1  0  0  0
  7  8  2  0  0  0
  7 26  1  0  0  0
  7 29  1  0  0  0
  8  9  1  0  0  0
  8 22  1  0  0  0
  9 10  1  0  0  0
  9 27  2  0  0  0
 10 11  2  0  0  0
 10 15  1  0  0  0
 11 12  1  0  0  0
 11 98  1  0  0  0
 12 13  2  0  0  0
 12 99  1  0  0  0
 13 14  1  0  0  0
 13 31  1  0  0  0
 14 15  2  0  0  0
 14100  1  0  0  0
 15101  1  0  0  0
 16 17  2  0  0  0
 16 21  1  0  0  0
 16 31  1  0  0  0
 17 18  1  0  0  0
 17102  1  0  0  0
 18 19  2  0  0  0
 18103  1  0  0  0
 19 20  1  0  0  0
 19 24  1  0  0  0
 20 21  2  0  0  0
 20104  1  0  0  0
 21 23  1  0  0  0
 22 28  1  0  0  0
 22 32  2  0  0  0
 26 27  1  0  0  0
 28105  1  0  0  0
 28106  1  0  0  0
 29107  1  0  0  0
 29108  1  0  0  0
 33 34  1  0  0  0
 33 66  1  0  0  0
 33 70  2  0  0  0
 34 36  1  0  0  0
 34 59  1  0  0  0
 34109  1  0  0  0
 35 44  2  0  0  0
 35 45  1  0  0  0
 35 68  1  0  0  0
 36 56  1  0  0  0
 36110  1  0  0  0
 37 39  1  0  0  0
 37 47  1  0  0  0
 37 66  1  0  0  0
 37111  1  0  0  0
 38 43  2  0  0  0
 38 46  1  0  0  0
 38 47  1  0  0  0
 39 64  1  0  0  0
 39 67  2  0  0  0
 40 52  1  0  0  0
 40 53  2  0  0  0
 40 58  1  0  0  0
 41112  1  0  0  0
 41113  1  0  0  0
 41114  1  0  0  0
 41 48  1  0  0  0
 42 43  1  0  0  0
 42 66  1  0  0  0
 42115  1  0  0  0
 42116  1  0  0  0
 43 44  1  0  0  0
 44117  1  0  0  0
 45 46  2  0  0  0
 45118  1  0  0  0
 46119  1  0  0  0
 47120  1  0  0  0
 47121  1  0  0  0
 48 56  1  0  0  0
 48 65  1  0  0  0
 48122  1  0  0  0
 49 50  1  0  0  0
 49 53  1  0  0  0
 49 64  1  0  0  0
 49123  1  0  0  0
 50 51  1  0  0  0
 50124  1  0  0  0
 50125  1  0  0  0
 51 52  1  0  0  0
 51126  1  0  0  0
 51127  1  0  0  0
 52128  1  0  0  0
 52129  1  0  0  0
 53 54  1  0  0  0
 54 55  2  0  0  0
 54130  1  0  0  0
 55 57  1  0  0  0
 55131  1  0  0  0
 56 69  2  0  0  0
 57 58  2  0  0  0
 57132  1  0  0  0
 58133  1  0  0  0
 59 60  1  0  0  0
 59 61  1  0  0  0
 59 62  1  0  0  0
 60134  1  0  0  0
 60135  1  0  0  0
 60136  1  0  0  0
 61137  1  0  0  0
 61138  1  0  0  0
 61139  1  0  0  0
 62140  1  0  0  0
 62141  1  0  0  0
 62142  1  0  0  0
 63 65  1  0  0  0
 63143  1  0  0  0
 63144  1  0  0  0
 63145  1  0  0  0
 64146  1  0  0  0
 65147  1  0  0  0
 68 85  1  0  0  0
 71 72  2  0  0  0
 71 74  1  0  0  0
 71148  1  0  0  0
 72 75  1  0  0  0
 72149  1  0  0  0
 73 74  2  0  0  0
 73 86  1  0  0  0
 73150  1  0  0  0
 74 87  1  0  0  0
 75 86  2  0  0  0
 75 79  1  0  0  0
 76 78  1  0  0  0
 76 80  1  0  0  0
 76151  1  0  0  0
 76152  1  0  0  0
 77 79  1  0  0  0
 77 80  1  0  0  0
 77153  1  0  0  0
 77154  1  0  0  0
 78 88  1  0  0  0
 78155  1  0  0  0
 78156  1  0  0  0
 79 88  1  0  0  0
 79157  1  0  0  0
 80 81  1  0  0  0
 80 82  1  0  0  0
 81158  1  0  0  0
 81159  1  0  0  0
 81160  1  0  0  0
 82161  1  0  0  0
 82162  1  0  0  0
 82163  1  0  0  0
 83164  1  0  0  0
 83165  1  0  0  0
 83166  1  0  0  0
 83 85  1  0  0  0
 84 85  1  0  0  0
 84167  1  0  0  0
 84168  1  0  0  0
 84 88  1  0  0  0
 85169  1  0  0  0
 87170  1  0  0  0
 88171  1  0  0  0
M  CHG  1  88   1
M  ISO  4   1 100  68 101  85 101  87 100
M  END
> <chiral flag>
0

> <version>
0

> <s_m_source_file>
/data/baiqing/PycharmProjects/Reinvent-master-3.2/result/LINK_invent/BTK/process_docking_weight1_custom_product_contain_oxygen_bond_distance_aromatic_linkinvent_7_9_3/rearranged_h_0166.sdf

> <i_m_source_file_index>
94

> <r_mmod_Potential_Energy-OPLS-2005>
-13.2401361465454

> <r_mmod_Stretch_Energy-OPLS-2005>
101.948829650879

> <r_mmod_Bend_Energy-OPLS-2005>
219.900985717773

> <r_mmod_Torsional_Energy-OPLS-2005>
332.803863525391

> <r_mmod_Improper_Torsional_Energy-OPLS-2005>
5.54276132583618

> <r_mmod_Van_der_Waal_Energy-OPLS-2005>
154.082168579102

> <r_mmod_Electrostatic_Energy-OPLS-2005>
-460.475952148438

> <r_mmod_Solvation_Energy-OPLS-2005>
-426.200073242188

> <b_mmod_Minimization_Converged-OPLS-2005>
0

> <r_mmod_RMS_Derivative-OPLS-2005>
6.93957710266113

$$$$
95
                    3D
 Structure written by MMmdl.
165174  0  0  1  0            999 V2000
  -30.7211  -14.4951   20.5248 C   0  0  0  0  0  0
  -30.4008  -12.3073   19.4363 C   0  0  0  0  0  0
  -29.4841  -12.4882   18.2103 C   0  0  0  0  0  0
  -28.0081  -12.3494   18.6259 C   0  0  0  0  0  0
  -27.6509  -13.2141   19.8658 C   0  0  2  0  0  0
  -28.6956  -13.0524   20.9942 C   0  0  0  0  0  0
  -25.2542  -13.8176   20.5699 C   0  0  0  0  0  0
  -24.1810  -13.0448   20.9192 C   0  0  0  0  0  0
  -24.6369  -11.6912   20.8747 C   0  0  0  0  0  0
  -23.9047  -10.4299   21.0401 C   0  0  0  0  0  0
  -24.3600   -9.4218   21.9184 C   0  0  0  0  0  0
  -23.6284   -8.2247   22.0761 C   0  0  0  0  0  0
  -22.4273   -8.0273   21.3542 C   0  0  0  0  0  0
  -21.9894   -9.0245   20.4648 C   0  0  0  0  0  0
  -22.7213  -10.2133   20.3057 C   0  0  0  0  0  0
  -21.6855   -6.0730   22.5279 C   0  0  0  0  0  0
  -21.4012   -6.5637   23.8209 C   0  0  0  0  0  0
  -21.3659   -5.6794   24.9172 C   0  0  0  0  0  0
  -21.6045   -4.3056   24.7227 C   0  0  0  0  0  0
  -21.8817   -3.8144   23.4347 C   0  0  0  0  0  0
  -21.9190   -4.6958   22.3402 C   0  0  0  0  0  0
  -22.7832  -13.5241   21.1852 C   0  0  0  0  0  0
  -22.1659   -4.2139   21.0978 F   0  0  0  0  0  0
  -21.5630   -3.4544   25.7743 F   0  0  0  0  0  0
  -30.0204  -13.3325   20.4255 N   0  0  0  0  0  0
  -26.2971  -12.9358   20.3353 N   0  0  0  0  0  0
  -25.9296  -11.6518   20.5778 N   0  0  0  0  0  0
  -22.0471  -12.8237   22.0403 N   0  0  0  0  0  0
  -25.4281  -15.1900   20.4145 N   0  0  0  0  0  0
  -31.8715  -14.5798   20.0932 O   0  0  0  0  0  0
  -21.6641   -6.8867   21.4237 O   0  0  0  0  0  0
  -22.3523  -14.5544   20.6691 O   0  0  0  0  0  0
  -24.6150  -31.8669   23.2117 C   0  0  0  0  0  0
  -25.9058  -32.4814   23.8390 C   0  0  1  0  0  0
  -27.2174  -27.4122   20.0990 C   0  0  0  0  0  0
  -25.5925  -33.8617   24.2318 N   0  0  0  0  0  0
  -23.4027  -30.4927   21.5526 C   0  0  2  0  0  0
  -24.8481  -28.9629   20.1113 C   0  0  0  0  0  0
  -22.7413  -29.4647   22.4991 C   0  0  0  0  0  0
  -18.0273  -28.1369   22.8485 C   0  0  0  0  0  0
  -24.1489  -36.7293   23.2631 C   0  0  0  0  0  0
  -25.9348  -30.8269   21.3708 C   0  0  0  0  0  0
  -26.0106  -29.4626   20.7120 C   0  0  0  0  0  0
  -27.2018  -28.6948   20.7016 C   0  0  0  0  0  0
  -26.0413  -26.9413   19.4749 C   0  0  0  0  0  0
  -24.8588  -27.7037   19.4883 C   0  0  0  0  0  0
  -23.6109  -29.8309   20.1648 C   0  0  0  0  0  0
  -25.4116  -36.3101   24.0328 C   0  0  1  0  0  0
  -20.5864  -28.3660   23.1324 C   0  0  2  0  0  0
  -20.6769  -26.9401   22.5424 C   0  0  0  0  0  0
  -19.5759  -26.6380   21.5219 C   0  0  0  0  0  0
  -18.1924  -26.7913   22.1616 C   0  0  0  0  0  0
  -19.1523  -28.8832   23.2892 C   0  0  0  0  0  0
  -18.9455  -30.1428   23.8922 C   0  0  0  0  0  0
  -17.6464  -30.6585   24.0564 C   0  0  0  0  0  0
  -25.9052  -34.9469   23.5119 C   0  0  0  0  0  0
  -16.5354  -29.9094   23.6325 C   0  0  0  0  0  0
  -16.7260  -28.6500   23.0359 C   0  0  0  0  0  0
  -26.4496  -31.6593   25.0717 C   0  0  0  0  0  0
  -25.3746  -31.3723   26.1454 C   0  0  0  0  0  0
  -27.0334  -30.3024   24.6114 C   0  0  0  0  0  0
  -27.6088  -32.4283   25.7480 C   0  0  0  0  0  0
  -27.5588  -37.1781   24.8452 C   0  0  0  0  0  0
  -21.4140  -29.3036   22.3738 N   0  0  0  0  0  0
  -26.4290  -37.3793   23.9420 N   0  0  0  0  0  0
  -24.6684  -31.0760   22.1028 N   0  0  0  0  0  0
  -23.4185  -28.8188   23.3032 O   0  0  0  0  0  0
  -28.3476  -26.6182   20.1231 O   0  0  0  0  0  0
  -26.5609  -34.8914   22.4679 O   0  0  0  0  0  0
  -23.5348  -32.1444   23.7513 O   0  0  0  0  0  0
  -29.6334  -18.0610   20.5871 C   0  0  0  0  0  0
  -31.8942  -17.2850   20.8529 C   0  0  0  0  0  0
  -30.5177  -16.9686   20.8014 C   0  0  0  0  0  0
  -30.1452  -19.3591   20.2939 C   0  0  0  0  0  0
  -31.5590  -19.4834   20.1726 C   0  0  0  0  0  0
  -28.7219  -24.1514   19.8209 C   0  0  0  0  0  0
  -29.2841  -21.7012   20.5286 C   0  0  0  0  0  0
  -34.2655  -20.9576   18.0350 C   0  0  0  0  0  0
  -34.2483  -21.9839   19.1694 C   0  0  0  0  0  0
  -32.9188  -20.2226   18.1168 C   0  0  0  0  0  0
  -33.3784  -21.3384   20.2487 C   0  0  0  0  0  0
  -32.2666  -20.6417   19.4525 C   0  0  0  0  0  0
  -28.2006  -22.7118   20.0812 C   0  0  0  0  0  0
  -28.1319  -25.2951   20.6812 C   0  0  0  0  0  0
  -32.3965  -18.4860   20.5248 N   0  0  0  0  0  0
  -29.2318  -20.4417   20.0278 N   0  0  0  0  0  0
  -30.0480  -15.6036   20.9321 N   0  0  0  0  0  0
  -29.5426  -24.3832   18.9251 O   0  0  0  0  0  0
  -30.1385  -22.0329   21.3552 O   0  0  0  0  0  0
  -31.4488  -12.3674   19.1376 H   0  0  0  0  0  0
  -30.2738  -11.3110   19.8618 H   0  0  0  0  0  0
  -29.7255  -11.7507   17.4432 H   0  0  0  0  0  0
  -29.6506  -13.4668   17.7574 H   0  0  0  0  0  0
  -27.8266  -11.2967   18.8449 H   0  0  0  0  0  0
  -27.3535  -12.5986   17.7899 H   0  0  0  0  0  0
  -27.6791  -14.2516   19.5343 H   0  0  0  0  0  0
  -28.6734  -12.0367   21.3914 H   0  0  0  0  0  0
  -28.4672  -13.7074   21.8365 H   0  0  0  0  0  0
  -25.2738   -9.5707   22.4765 H   0  0  0  0  0  0
  -23.9992   -7.4649   22.7490 H   0  0  0  0  0  0
  -21.0822   -8.8752   19.8960 H   0  0  0  0  0  0
  -22.3649  -10.9669   19.6177 H   0  0  0  0  0  0
  -21.2007   -7.6142   23.9703 H   0  0  0  0  0  0
  -21.1484   -6.0529   25.9071 H   0  0  0  0  0  0
  -22.0596   -2.7603   23.2854 H   0  0  0  0  0  0
  -22.4079  -11.9890   22.4785 H   0  0  0  0  0  0
  -21.1096  -13.1273   22.2625 H   0  0  0  0  0  0
  -24.6631  -15.8462   20.5284 H   0  0  0  0  0  0
  -26.2815  -15.6292   20.0949 H   0  0  0  0  0  0
  -26.7127  -32.5526   23.1143 H   0  0  0  0  0  0
  -25.0073  -33.9783   25.0466 H   0  0  0  0  0  0
  -22.6906  -31.3093   21.4168 H   0  0  0  0  0  0
  -23.3767  -35.9606   23.3262 H   0  0  0  0  0  0
  -24.3592  -36.8957   22.2053 H   0  0  0  0  0  0
  -23.7213  -37.6470   23.6682 H   0  0  0  0  0  0
  -26.0516  -31.5987   20.6089 H   0  0  0  0  0  0
  -26.8191  -30.8740   21.9945 H   0  0  0  0  0  0
  -28.0945  -29.0668   21.1855 H   0  0  0  0  0  0
  -26.0309  -25.9810   18.9782 H   0  0  0  0  0  0
  -23.9655  -27.3201   19.0133 H   0  0  0  0  0  0
  -23.7193  -30.6098   19.4087 H   0  0  0  0  0  0
  -22.7343  -29.2517   19.8683 H   0  0  0  0  0  0
  -25.1285  -36.1957   25.0817 H   0  0  0  0  0  0
  -20.9931  -28.3241   24.1458 H   0  0  0  0  0  0
  -20.5697  -26.2277   23.3612 H   0  0  0  0  0  0
  -21.6638  -26.7465   22.1214 H   0  0  0  0  0  0
  -19.6942  -25.6300   21.1234 H   0  0  0  0  0  0
  -19.6712  -27.3202   20.6760 H   0  0  0  0  0  0
  -17.4204  -26.6659   21.4000 H   0  0  0  0  0  0
  -18.0319  -26.0045   22.9002 H   0  0  0  0  0  0
  -19.7944  -30.7206   24.2329 H   0  0  0  0  0  0
  -17.5043  -31.6279   24.5139 H   0  0  0  0  0  0
  -15.5363  -30.3018   23.7644 H   0  0  0  0  0  0
  -15.8646  -28.0831   22.7095 H   0  0  0  0  0  0
  -24.5926  -30.7070   25.7773 H   0  0  0  0  0  0
  -24.8926  -32.2893   26.4850 H   0  0  0  0  0  0
  -25.8061  -30.8911   27.0236 H   0  0  0  0  0  0
  -26.2891  -29.6761   24.1180 H   0  0  0  0  0  0
  -27.4112  -29.7291   25.4588 H   0  0  0  0  0  0
  -27.8720  -30.4325   23.9272 H   0  0  0  0  0  0
  -27.2752  -33.3602   26.2050 H   0  0  0  0  0  0
  -28.3914  -32.6791   25.0309 H   0  0  0  0  0  0
  -28.0722  -31.8388   26.5398 H   0  0  0  0  0  0
  -28.2559  -38.0119   24.7571 H   0  0  0  0  0  0
  -28.1125  -36.2657   24.6185 H   0  0  0  0  0  0
  -27.2308  -37.1320   25.8849 H   0  0  0  0  0  0
  -20.9313  -29.8763   21.6957 H   0  0  0  0  0  0
  -26.0170  -38.2855   24.1485 H   0  0  0  0  0  0
  -28.5648  -17.8995   20.6058 H   0  0  0  0  0  0
  -32.6466  -16.5572   21.1131 H   0  0  0  0  0  0
  -35.0757  -20.2444   18.1979 H   0  0  0  0  0  0
  -34.4280  -21.4179   17.0592 H   0  0  0  0  0  0
  -33.7790  -22.9048   18.8191 H   0  0  0  0  0  0
  -35.2488  -22.2338   19.5251 H   0  0  0  0  0  0
  -33.0932  -19.1472   18.0636 H   0  0  0  0  0  0
  -32.2690  -20.4733   17.2784 H   0  0  0  0  0  0
  -32.9902  -22.0570   20.9698 H   0  0  0  0  0  0
  -33.9789  -20.6092   20.7939 H   0  0  0  0  0  0
  -31.5485  -21.4112   19.1830 H   0  0  0  0  0  0
  -27.7123  -22.3563   19.1738 H   0  0  0  0  0  0
  -27.4317  -22.7454   20.8525 H   0  0  0  0  0  0
  -28.6028  -25.2573   21.6625 H   0  0  0  0  0  0
  -27.0745  -25.0885   20.8469 H   0  0  0  0  0  0
  -28.4066  -20.2138   19.4870 H   0  0  0  0  0  0
  -29.0714  -15.4660   21.1463 H   0  0  0  0  0  0
  1 25  1  0  0  0
  1 30  2  0  0  0
  1 87  1  0  0  0
  2  3  1  0  0  0
  2 25  1  0  0  0
  2 90  1  0  0  0
  2 91  1  0  0  0
  3  4  1  0  0  0
  3 92  1  0  0  0
  3 93  1  0  0  0
  4  5  1  0  0  0
  4 94  1  0  0  0
  4 95  1  0  0  0
  5  6  1  0  0  0
  5 26  1  0  0  0
  5 96  1  0  0  0
  6 25  1  0  0  0
  6 97  1  0  0  0
  6 98  1  0  0  0
  7  8  2  0  0  0
  7 26  1  0  0  0
  7 29  1  0  0  0
  8  9  1  0  0  0
  8 22  1  0  0  0
  9 10  1  0  0  0
  9 27  2  0  0  0
 10 11  2  0  0  0
 10 15  1  0  0  0
 11 12  1  0  0  0
 11 99  1  0  0  0
 12 13  2  0  0  0
 12100  1  0  0  0
 13 14  1  0  0  0
 13 31  1  0  0  0
 14 15  2  0  0  0
 14101  1  0  0  0
 15102  1  0  0  0
 16 17  2  0  0  0
 16 21  1  0  0  0
 16 31  1  0  0  0
 17 18  1  0  0  0
 17103  1  0  0  0
 18 19  2  0  0  0
 18104  1  0  0  0
 19 20  1  0  0  0
 19 24  1  0  0  0
 20 21  2  0  0  0
 20105  1  0  0  0
 21 23  1  0  0  0
 22 28  1  0  0  0
 22 32  2  0  0  0
 26 27  1  0  0  0
 28106  1  0  0  0
 28107  1  0  0  0
 29108  1  0  0  0
 29109  1  0  0  0
 33 34  1  0  0  0
 33 66  1  0  0  0
 33 70  2  0  0  0
 34 36  1  0  0  0
 34 59  1  0  0  0
 34110  1  0  0  0
 35 44  2  0  0  0
 35 45  1  0  0  0
 35 68  1  0  0  0
 36 56  1  0  0  0
 36111  1  0  0  0
 37 39  1  0  0  0
 37 47  1  0  0  0
 37 66  1  0  0  0
 37112  1  0  0  0
 38 43  2  0  0  0
 38 46  1  0  0  0
 38 47  1  0  0  0
 39 64  1  0  0  0
 39 67  2  0  0  0
 40 52  1  0  0  0
 40 53  2  0  0  0
 40 58  1  0  0  0
 41113  1  0  0  0
 41114  1  0  0  0
 41115  1  0  0  0
 41 48  1  0  0  0
 42 43  1  0  0  0
 42 66  1  0  0  0
 42116  1  0  0  0
 42117  1  0  0  0
 43 44  1  0  0  0
 44118  1  0  0  0
 45 46  2  0  0  0
 45119  1  0  0  0
 46120  1  0  0  0
 47121  1  0  0  0
 47122  1  0  0  0
 48 56  1  0  0  0
 48 65  1  0  0  0
 48123  1  0  0  0
 49 50  1  0  0  0
 49 53  1  0  0  0
 49 64  1  0  0  0
 49124  1  0  0  0
 50 51  1  0  0  0
 50125  1  0  0  0
 50126  1  0  0  0
 51 52  1  0  0  0
 51127  1  0  0  0
 51128  1  0  0  0
 52129  1  0  0  0
 52130  1  0  0  0
 53 54  1  0  0  0
 54 55  2  0  0  0
 54131  1  0  0  0
 55 57  1  0  0  0
 55132  1  0  0  0
 56 69  2  0  0  0
 57 58  2  0  0  0
 57133  1  0  0  0
 58134  1  0  0  0
 59 60  1  0  0  0
 59 61  1  0  0  0
 59 62  1  0  0  0
 60135  1  0  0  0
 60136  1  0  0  0
 60137  1  0  0  0
 61138  1  0  0  0
 61139  1  0  0  0
 61140  1  0  0  0
 62141  1  0  0  0
 62142  1  0  0  0
 62143  1  0  0  0
 63 65  1  0  0  0
 63144  1  0  0  0
 63145  1  0  0  0
 63146  1  0  0  0
 64147  1  0  0  0
 65148  1  0  0  0
 68 84  1  0  0  0
 71 73  2  0  0  0
 71 74  1  0  0  0
 71149  1  0  0  0
 72 73  1  0  0  0
 72 85  2  0  0  0
 72150  1  0  0  0
 73 87  1  0  0  0
 74 75  2  0  0  0
 74 86  1  0  0  0
 75 85  1  0  0  0
 75 82  1  0  0  0
 76 83  1  0  0  0
 76 84  1  0  0  0
 76 88  2  0  0  0
 77 83  1  0  0  0
 77 86  1  0  0  0
 77 89  2  0  0  0
 78 79  1  0  0  0
 78 80  1  0  0  0
 78151  1  0  0  0
 78152  1  0  0  0
 79 81  1  0  0  0
 79153  1  0  0  0
 79154  1  0  0  0
 80 82  1  0  0  0
 80155  1  0  0  0
 80156  1  0  0  0
 81 82  1  0  0  0
 81157  1  0  0  0
 81158  1  0  0  0
 82159  1  0  0  0
 83160  1  0  0  0
 83161  1  0  0  0
 84162  1  0  0  0
 84163  1  0  0  0
 86164  1  0  0  0
 87165  1  0  0  0
M  ISO  4   1 100  68 101  84 101  87 100
M  END
> <chiral flag>
0

> <version>
0

> <s_m_source_file>
/data/baiqing/PycharmProjects/Reinvent-master-3.2/result/LINK_invent/BTK/process_docking_weight1_custom_product_contain_oxygen_bond_distance_aromatic_linkinvent_7_9_3/rearranged_h_0166.sdf

> <i_m_source_file_index>
95

> <r_mmod_Potential_Energy-OPLS-2005>
-122.914772033691

> <r_mmod_Stretch_Energy-OPLS-2005>
48.251823425293

> <r_mmod_Bend_Energy-OPLS-2005>
130.346725463867

> <r_mmod_Torsional_Energy-OPLS-2005>
314.106475830078

> <r_mmod_Improper_Torsional_Energy-OPLS-2005>
6.22249698638916

> <r_mmod_Van_der_Waal_Energy-OPLS-2005>
163.930313110352

> <r_mmod_Electrostatic_Energy-OPLS-2005>
-537.160522460938

> <r_mmod_Solvation_Energy-OPLS-2005>
-269.4326171875

> <b_mmod_Minimization_Converged-OPLS-2005>
0

> <r_mmod_RMS_Derivative-OPLS-2005>
2.19563984870911

$$$$
96
                    3D
 Structure written by MMmdl.
167175  0  0  1  0            999 V2000
  -30.6402  -14.6418   20.4773 C   0  0  0  0  0  0
  -30.4341  -12.3803   19.4791 C   0  0  0  0  0  0
  -29.5187  -12.5002   18.2388 C   0  0  0  0  0  0
  -28.0375  -12.3471   18.6375 C   0  0  0  0  0  0
  -27.6539  -13.2261   19.8578 C   0  0  2  0  0  0
  -28.6932  -13.1061   20.9946 C   0  0  0  0  0  0
  -25.2574  -13.8205   20.5667 C   0  0  0  0  0  0
  -24.1848  -13.0454   20.9175 C   0  0  0  0  0  0
  -24.6425  -11.6926   20.8716 C   0  0  0  0  0  0
  -23.9086  -10.4306   21.0382 C   0  0  0  0  0  0
  -24.3633   -9.4221   21.9163 C   0  0  0  0  0  0
  -23.6308   -8.2257   22.0743 C   0  0  0  0  0  0
  -22.4284   -8.0294   21.3544 C   0  0  0  0  0  0
  -21.9922   -9.0265   20.4639 C   0  0  0  0  0  0
  -22.7249  -10.2146   20.3041 C   0  0  0  0  0  0
  -21.6865   -6.0740   22.5277 C   0  0  0  0  0  0
  -21.4016   -6.5640   23.8210 C   0  0  0  0  0  0
  -21.3664   -5.6793   24.9176 C   0  0  0  0  0  0
  -21.6047   -4.3055   24.7221 C   0  0  0  0  0  0
  -21.8819   -3.8148   23.4341 C   0  0  0  0  0  0
  -21.9198   -4.6967   22.3399 C   0  0  0  0  0  0
  -22.7867  -13.5247   21.1842 C   0  0  0  0  0  0
  -22.1661   -4.2154   21.0974 F   0  0  0  0  0  0
  -21.5636   -3.4533   25.7732 F   0  0  0  0  0  0
  -30.0187  -13.4193   20.4454 N   0  0  0  0  0  0
  -26.3004  -12.9401   20.3281 N   0  0  0  0  0  0
  -25.9356  -11.6546   20.5729 N   0  0  0  0  0  0
  -22.0512  -12.8247   22.0403 N   0  0  0  0  0  0
  -25.4279  -15.1933   20.4099 N   0  0  0  0  0  0
  -31.7961  -14.7700   20.0608 O   0  0  0  0  0  0
  -21.6653   -6.8886   21.4241 O   0  0  0  0  0  0
  -22.3545  -14.5547   20.6685 O   0  0  0  0  0  0
  -24.6266  -31.8582   23.2026 C   0  0  0  0  0  0
  -25.9105  -32.4766   23.8360 C   0  0  1  0  0  0
  -27.2201  -27.3109   20.1224 C   0  0  0  0  0  0
  -25.5899  -33.8567   24.2284 N   0  0  0  0  0  0
  -23.4209  -30.4825   21.5464 C   0  0  2  0  0  0
  -24.8677  -28.9409   20.1124 C   0  0  0  0  0  0
  -22.7486  -29.4605   22.4939 C   0  0  0  0  0  0
  -18.0279  -28.1383   22.8494 C   0  0  0  0  0  0
  -24.1485  -36.7307   23.2647 C   0  0  0  0  0  0
  -25.9638  -30.7865   21.3776 C   0  0  0  0  0  0
  -26.0376  -29.4147   20.7196 C   0  0  0  0  0  0
  -27.2179  -28.6113   20.7156 C   0  0  0  0  0  0
  -26.0326  -26.9027   19.4725 C   0  0  0  0  0  0
  -24.8677  -27.6900   19.4790 C   0  0  0  0  0  0
  -23.6359  -29.8204   20.1614 C   0  0  0  0  0  0
  -25.4105  -36.3081   24.0344 C   0  0  1  0  0  0
  -20.5879  -28.3672   23.1289 C   0  0  2  0  0  0
  -20.6765  -26.9392   22.5415 C   0  0  0  0  0  0
  -19.5739  -26.6377   21.5219 C   0  0  0  0  0  0
  -18.1920  -26.7925   22.1632 C   0  0  0  0  0  0
  -19.1532  -28.8848   23.2882 C   0  0  0  0  0  0
  -18.9459  -30.1454   23.8890 C   0  0  0  0  0  0
  -17.6461  -30.6582   24.0563 C   0  0  0  0  0  0
  -25.9037  -34.9445   23.5120 C   0  0  0  0  0  0
  -16.5350  -29.9084   23.6332 C   0  0  0  0  0  0
  -16.7266  -28.6502   23.0350 C   0  0  0  0  0  0
  -26.4482  -31.6578   25.0733 C   0  0  0  0  0  0
  -25.3714  -31.3703   26.1463 C   0  0  0  0  0  0
  -27.0363  -30.3012   24.6210 C   0  0  0  0  0  0
  -27.6040  -32.4322   25.7494 C   0  0  0  0  0  0
  -27.5577  -37.1809   24.8462 C   0  0  0  0  0  0
  -21.4196  -29.3033   22.3692 N   0  0  0  0  0  0
  -26.4286  -37.3765   23.9405 N   0  0  0  0  0  0
  -24.6893  -31.0591   22.0985 N   0  0  0  0  0  0
  -23.4205  -28.8141   23.3015 O   0  0  0  0  0  0
  -28.3230  -26.4380   20.1748 O   0  0  0  0  0  0
  -26.5615  -34.8913   22.4692 O   0  0  0  0  0  0
  -23.5421  -32.1384   23.7340 O   0  0  0  0  0  0
  -30.4658  -21.3906   21.5853 C   0  0  0  0  0  0
  -30.8267  -18.9501   21.5328 C   0  0  0  0  0  0
  -29.1170  -19.9919   20.1356 C   0  0  0  0  0  0
  -31.1512  -20.2331   22.0397 C   0  0  0  0  0  0
  -29.4303  -21.3083   20.6251 C   0  0  0  0  0  0
  -29.8129  -18.8101   20.5686 C   0  0  0  0  0  0
  -27.6973  -24.9654   22.0074 C   0  0  0  0  0  0
  -32.9771  -19.8826   25.3726 C   0  0  0  0  0  0
  -30.7616  -20.8631   24.9843 C   0  0  0  0  0  0
  -32.2652  -20.3702   23.0699 C   0  0  0  0  0  0
  -29.1851  -23.9094   20.2258 C   0  0  0  0  0  0
  -28.0626  -25.0085   20.5142 C   0  0  2  0  0  0
  -28.7148  -22.4772   20.1927 N   0  0  0  0  0  0
  -29.9166  -15.8016   20.8866 N   0  0  0  0  0  0
  -31.8332  -19.9960   24.4399 N   0  3  0  0  0  0
  -27.9991  -17.0519   19.6602 O   0  0  0  0  0  0
  -30.2959  -17.0540   18.6041 O   0  0  0  0  0  0
  -29.4610  -17.1481   19.8150 S   0  0  0  0  0  0
  -31.4814  -12.4780   19.1866 H   0  0  0  0  0  0
  -30.3445  -11.3905   19.9299 H   0  0  0  0  0  0
  -29.7858  -11.7448   17.4983 H   0  0  0  0  0  0
  -29.6728  -13.4674   17.7581 H   0  0  0  0  0  0
  -27.8680  -11.2955   18.8720 H   0  0  0  0  0  0
  -27.3932  -12.5756   17.7882 H   0  0  0  0  0  0
  -27.6673  -14.2579   19.5068 H   0  0  0  0  0  0
  -28.6934  -12.0971   21.4101 H   0  0  0  0  0  0
  -28.4382  -13.7704   21.8212 H   0  0  0  0  0  0
  -25.2772   -9.5713   22.4741 H   0  0  0  0  0  0
  -24.0022   -7.4657   22.7462 H   0  0  0  0  0  0
  -21.0855   -8.8783   19.8945 H   0  0  0  0  0  0
  -22.3693  -10.9687   19.6158 H   0  0  0  0  0  0
  -21.1998   -7.6146   23.9720 H   0  0  0  0  0  0
  -21.1486   -6.0516   25.9082 H   0  0  0  0  0  0
  -22.0592   -2.7610   23.2838 H   0  0  0  0  0  0
  -22.4136  -11.9929   22.4821 H   0  0  0  0  0  0
  -21.1116  -13.1253   22.2571 H   0  0  0  0  0  0
  -24.6556  -15.8417   20.5185 H   0  0  0  0  0  0
  -26.2792  -15.6461   20.0896 H   0  0  0  0  0  0
  -26.7171  -32.5434   23.1098 H   0  0  0  0  0  0
  -25.0006  -33.9695   25.0403 H   0  0  0  0  0  0
  -22.7139  -31.3018   21.4043 H   0  0  0  0  0  0
  -23.3728  -35.9659   23.3303 H   0  0  0  0  0  0
  -24.3581  -36.8922   22.2062 H   0  0  0  0  0  0
  -23.7262  -37.6525   23.6660 H   0  0  0  0  0  0
  -26.0977  -31.5482   20.6082 H   0  0  0  0  0  0
  -26.8440  -30.8328   22.0079 H   0  0  0  0  0  0
  -28.1126  -28.9678   21.2060 H   0  0  0  0  0  0
  -25.9783  -25.9617   18.9466 H   0  0  0  0  0  0
  -23.9748  -27.3255   18.9898 H   0  0  0  0  0  0
  -23.7553  -30.5970   19.4051 H   0  0  0  0  0  0
  -22.7561  -29.2491   19.8602 H   0  0  0  0  0  0
  -25.1290  -36.1930   25.0841 H   0  0  0  0  0  0
  -20.9965  -28.3242   24.1412 H   0  0  0  0  0  0
  -20.5657  -26.2282   23.3616 H   0  0  0  0  0  0
  -21.6634  -26.7414   22.1207 H   0  0  0  0  0  0
  -19.6884  -25.6289   21.1241 H   0  0  0  0  0  0
  -19.6674  -27.3199   20.6758 H   0  0  0  0  0  0
  -17.4188  -26.6674   21.4031 H   0  0  0  0  0  0
  -18.0304  -26.0070   22.9029 H   0  0  0  0  0  0
  -19.7937  -30.7271   24.2250 H   0  0  0  0  0  0
  -17.5015  -31.6260   24.5169 H   0  0  0  0  0  0
  -15.5348  -30.2983   23.7661 H   0  0  0  0  0  0
  -15.8668  -28.0824   22.7061 H   0  0  0  0  0  0
  -24.5857  -30.7082   25.7784 H   0  0  0  0  0  0
  -24.8945  -32.2879   26.4920 H   0  0  0  0  0  0
  -25.8025  -30.8844   27.0224 H   0  0  0  0  0  0
  -26.2957  -29.6745   24.1226 H   0  0  0  0  0  0
  -27.4059  -29.7293   25.4730 H   0  0  0  0  0  0
  -27.8813  -30.4305   23.9445 H   0  0  0  0  0  0
  -27.2644  -33.3611   26.2086 H   0  0  0  0  0  0
  -28.3835  -32.6893   25.0307 H   0  0  0  0  0  0
  -28.0718  -31.8436   26.5391 H   0  0  0  0  0  0
  -28.2592  -38.0104   24.7485 H   0  0  0  0  0  0
  -28.1074  -36.2634   24.6303 H   0  0  0  0  0  0
  -27.2301  -37.1477   25.8867 H   0  0  0  0  0  0
  -20.9370  -29.8773   21.6922 H   0  0  0  0  0  0
  -26.0171  -38.2849   24.1370 H   0  0  0  0  0  0
  -30.7423  -22.3497   22.0000 H   0  0  0  0  0  0
  -31.3687  -18.0711   21.8540 H   0  0  0  0  0  0
  -28.3436  -19.8673   19.3915 H   0  0  0  0  0  0
  -27.4887  -23.9463   22.3333 H   0  0  0  0  0  0
  -26.8134  -25.5645   22.2249 H   0  0  0  0  0  0
  -28.5158  -25.3458   22.6192 H   0  0  0  0  0  0
  -32.6465  -19.5548   26.3591 H   0  0  0  0  0  0
  -33.4877  -20.8391   25.4877 H   0  0  0  0  0  0
  -33.7036  -19.1527   25.0151 H   0  0  0  0  0  0
  -30.4859  -20.5529   25.9926 H   0  0  0  0  0  0
  -29.8576  -20.8095   24.3785 H   0  0  0  0  0  0
  -31.0805  -21.9047   25.0277 H   0  0  0  0  0  0
  -32.6573  -21.3889   23.0658 H   0  0  0  0  0  0
  -33.0911  -19.7283   22.7593 H   0  0  0  0  0  0
  -30.0115  -24.0444   20.9224 H   0  0  0  0  0  0
  -29.6026  -24.1152   19.2387 H   0  0  0  0  0  0
  -27.2002  -24.6553   19.9546 H   0  0  0  0  0  0
  -27.9475  -22.3101   19.5463 H   0  0  0  0  0  0
  -29.1451  -15.6651   21.5344 H   0  0  0  0  0  0
  -31.4420  -19.0689   24.3731 H   0  0  0  0  0  0
  1 25  1  0  0  0
  1 30  2  0  0  0
  1 84  1  0  0  0
  2  3  1  0  0  0
  2 25  1  0  0  0
  2 89  1  0  0  0
  2 90  1  0  0  0
  3  4  1  0  0  0
  3 91  1  0  0  0
  3 92  1  0  0  0
  4  5  1  0  0  0
  4 93  1  0  0  0
  4 94  1  0  0  0
  5  6  1  0  0  0
  5 26  1  0  0  0
  5 95  1  0  0  0
  6 25  1  0  0  0
  6 96  1  0  0  0
  6 97  1  0  0  0
  7  8  2  0  0  0
  7 26  1  0  0  0
  7 29  1  0  0  0
  8  9  1  0  0  0
  8 22  1  0  0  0
  9 10  1  0  0  0
  9 27  2  0  0  0
 10 11  2  0  0  0
 10 15  1  0  0  0
 11 12  1  0  0  0
 11 98  1  0  0  0
 12 13  2  0  0  0
 12 99  1  0  0  0
 13 14  1  0  0  0
 13 31  1  0  0  0
 14 15  2  0  0  0
 14100  1  0  0  0
 15101  1  0  0  0
 16 17  2  0  0  0
 16 21  1  0  0  0
 16 31  1  0  0  0
 17 18  1  0  0  0
 17102  1  0  0  0
 18 19  2  0  0  0
 18103  1  0  0  0
 19 20  1  0  0  0
 19 24  1  0  0  0
 20 21  2  0  0  0
 20104  1  0  0  0
 21 23  1  0  0  0
 22 28  1  0  0  0
 22 32  2  0  0  0
 26 27  1  0  0  0
 28105  1  0  0  0
 28106  1  0  0  0
 29107  1  0  0  0
 29108  1  0  0  0
 33 34  1  0  0  0
 33 66  1  0  0  0
 33 70  2  0  0  0
 34 36  1  0  0  0
 34 59  1  0  0  0
 34109  1  0  0  0
 35 44  2  0  0  0
 35 45  1  0  0  0
 35 68  1  0  0  0
 36 56  1  0  0  0
 36110  1  0  0  0
 37 39  1  0  0  0
 37 47  1  0  0  0
 37 66  1  0  0  0
 37111  1  0  0  0
 38 43  2  0  0  0
 38 46  1  0  0  0
 38 47  1  0  0  0
 39 64  1  0  0  0
 39 67  2  0  0  0
 40 52  1  0  0  0
 40 53  2  0  0  0
 40 58  1  0  0  0
 41112  1  0  0  0
 41113  1  0  0  0
 41114  1  0  0  0
 41 48  1  0  0  0
 42 43  1  0  0  0
 42 66  1  0  0  0
 42115  1  0  0  0
 42116  1  0  0  0
 43 44  1  0  0  0
 44117  1  0  0  0
 45 46  2  0  0  0
 45118  1  0  0  0
 46119  1  0  0  0
 47120  1  0  0  0
 47121  1  0  0  0
 48 56  1  0  0  0
 48 65  1  0  0  0
 48122  1  0  0  0
 49 50  1  0  0  0
 49 53  1  0  0  0
 49 64  1  0  0  0
 49123  1  0  0  0
 50 51  1  0  0  0
 50124  1  0  0  0
 50125  1  0  0  0
 51 52  1  0  0  0
 51126  1  0  0  0
 51127  1  0  0  0
 52128  1  0  0  0
 52129  1  0  0  0
 53 54  1  0  0  0
 54 55  2  0  0  0
 54130  1  0  0  0
 55 57  1  0  0  0
 55131  1  0  0  0
 56 69  2  0  0  0
 57 58  2  0  0  0
 57132  1  0  0  0
 58133  1  0  0  0
 59 60  1  0  0  0
 59 61  1  0  0  0
 59 62  1  0  0  0
 60134  1  0  0  0
 60135  1  0  0  0
 60136  1  0  0  0
 61137  1  0  0  0
 61138  1  0  0  0
 61139  1  0  0  0
 62140  1  0  0  0
 62141  1  0  0  0
 62142  1  0  0  0
 63 65  1  0  0  0
 63143  1  0  0  0
 63144  1  0  0  0
 63145  1  0  0  0
 64146  1  0  0  0
 65147  1  0  0  0
 68 82  1  0  0  0
 71 74  2  0  0  0
 71 75  1  0  0  0
 71148  1  0  0  0
 72 74  1  0  0  0
 72 76  2  0  0  0
 72149  1  0  0  0
 73 75  2  0  0  0
 73 76  1  0  0  0
 73150  1  0  0  0
 74 80  1  0  0  0
 75 83  1  0  0  0
 76 88  1  0  0  0
 77151  1  0  0  0
 77152  1  0  0  0
 77153  1  0  0  0
 77 82  1  0  0  0
 78154  1  0  0  0
 78155  1  0  0  0
 78156  1  0  0  0
 78 85  1  0  0  0
 79 85  1  0  0  0
 79157  1  0  0  0
 79158  1  0  0  0
 79159  1  0  0  0
 80 85  1  0  0  0
 80160  1  0  0  0
 80161  1  0  0  0
 81 82  1  0  0  0
 81 83  1  0  0  0
 81162  1  0  0  0
 81163  1  0  0  0
 82164  1  0  0  0
 83165  1  0  0  0
 84166  1  0  0  0
 84 88  1  0  0  0
 85167  1  0  0  0
 86 88  2  0  0  0
 87 88  2  0  0  0
M  CHG  1  85   1
M  ISO  4   1 100  68 101  82 101  84 100
M  END
> <chiral flag>
0

> <version>
0

> <s_m_source_file>
/data/baiqing/PycharmProjects/Reinvent-master-3.2/result/LINK_invent/BTK/process_docking_weight1_custom_product_contain_oxygen_bond_distance_aromatic_linkinvent_7_9_3/rearranged_h_0166.sdf

> <i_m_source_file_index>
96

> <r_mmod_Potential_Energy-OPLS-2005>
-312.103454589844

> <r_mmod_Stretch_Energy-OPLS-2005>
82.4104766845703

> <r_mmod_Bend_Energy-OPLS-2005>
148.841720581055

> <r_mmod_Torsional_Energy-OPLS-2005>
212.77507019043

> <r_mmod_Improper_Torsional_Energy-OPLS-2005>
7.14824390411377

> <r_mmod_Van_der_Waal_Energy-OPLS-2005>
130.441131591797

> <r_mmod_Electrostatic_Energy-OPLS-2005>
-423.476654052734

> <r_mmod_Solvation_Energy-OPLS-2005>
-522.845581054688

> <b_mmod_Minimization_Converged-OPLS-2005>
0

> <r_mmod_RMS_Derivative-OPLS-2005>
1.61087679862976

$$$$
97
                    3D
 Structure written by MMmdl.
173182  0  0  1  0            999 V2000
  -30.8141  -14.3170   20.7404 C   0  0  0  0  0  0
  -30.4082  -12.2927   19.3890 C   0  0  0  0  0  0
  -29.4753  -12.5572   18.1945 C   0  0  0  0  0  0
  -28.0041  -12.4015   18.6145 C   0  0  0  0  0  0
  -27.6715  -13.2079   19.8973 C   0  0  2  0  0  0
  -28.7112  -12.9494   21.0148 C   0  0  0  0  0  0
  -25.2621  -13.8193   20.5730 C   0  0  0  0  0  0
  -24.1852  -13.0472   20.9201 C   0  0  0  0  0  0
  -24.6386  -11.6934   20.8744 C   0  0  0  0  0  0
  -23.9044  -10.4311   21.0394 C   0  0  0  0  0  0
  -24.3583   -9.4231   21.9191 C   0  0  0  0  0  0
  -23.6269   -8.2261   22.0763 C   0  0  0  0  0  0
  -22.4265   -8.0289   21.3548 C   0  0  0  0  0  0
  -21.9911   -9.0250   20.4632 C   0  0  0  0  0  0
  -22.7224  -10.2142   20.3037 C   0  0  0  0  0  0
  -21.6850   -6.0732   22.5263 C   0  0  0  0  0  0
  -21.4021   -6.5624   23.8205 C   0  0  0  0  0  0
  -21.3669   -5.6783   24.9170 C   0  0  0  0  0  0
  -21.6040   -4.3042   24.7215 C   0  0  0  0  0  0
  -21.8812   -3.8146   23.4326 C   0  0  0  0  0  0
  -21.9191   -4.6965   22.3383 C   0  0  0  0  0  0
  -22.7874  -13.5273   21.1847 C   0  0  0  0  0  0
  -22.1659   -4.2143   21.0962 F   0  0  0  0  0  0
  -21.5631   -3.4530   25.7739 F   0  0  0  0  0  0
  -30.0604  -13.2145   20.4828 N   0  0  0  0  0  0
  -26.3066  -12.9364   20.3482 N   0  0  0  0  0  0
  -25.9319  -11.6517   20.5792 N   0  0  0  0  0  0
  -22.0487  -12.8237   22.0353 N   0  0  0  0  0  0
  -25.4387  -15.1902   20.4115 N   0  0  0  0  0  0
  -31.7330  -14.6885   20.0008 O   0  0  0  0  0  0
  -21.6635   -6.8883   21.4233 O   0  0  0  0  0  0
  -22.3592  -14.5604   20.6721 O   0  0  0  0  0  0
  -24.6138  -31.8703   23.2155 C   0  0  0  0  0  0
  -25.9045  -32.4834   23.8450 C   0  0  1  0  0  0
  -27.2306  -27.4624   20.1088 C   0  0  0  0  0  0
  -25.5945  -33.8638   24.2415 N   0  0  0  0  0  0
  -23.4006  -30.4961   21.5533 C   0  0  2  0  0  0
  -24.8506  -28.9731   20.1066 C   0  0  0  0  0  0
  -22.7426  -29.4647   22.4982 C   0  0  0  0  0  0
  -18.0291  -28.1339   22.8473 C   0  0  0  0  0  0
  -24.1491  -36.7297   23.2627 C   0  0  0  0  0  0
  -25.9260  -30.8517   21.3590 C   0  0  0  0  0  0
  -26.0092  -29.4898   20.7033 C   0  0  0  0  0  0
  -27.2046  -28.7415   20.7011 C   0  0  0  0  0  0
  -26.0653  -26.9581   19.4909 C   0  0  0  0  0  0
  -24.8741  -27.7079   19.4926 C   0  0  0  0  0  0
  -23.6097  -29.8351   20.1640 C   0  0  0  0  0  0
  -25.4109  -36.3120   24.0351 C   0  0  1  0  0  0
  -20.5877  -28.3627   23.1314 C   0  0  2  0  0  0
  -20.6781  -26.9374   22.5389 C   0  0  0  0  0  0
  -19.5773  -26.6341   21.5185 C   0  0  0  0  0  0
  -18.1937  -26.7901   22.1569 C   0  0  0  0  0  0
  -19.1533  -28.8810   23.2880 C   0  0  0  0  0  0
  -18.9448  -30.1430   23.8863 C   0  0  0  0  0  0
  -17.6441  -30.6556   24.0525 C   0  0  0  0  0  0
  -25.9049  -34.9477   23.5174 C   0  0  0  0  0  0
  -16.5342  -29.9030   23.6307 C   0  0  0  0  0  0
  -16.7273  -28.6451   23.0341 C   0  0  0  0  0  0
  -26.4486  -31.6551   25.0728 C   0  0  0  0  0  0
  -25.3741  -31.3508   26.1420 C   0  0  0  0  0  0
  -27.0378  -30.3067   24.5971 C   0  0  0  0  0  0
  -27.6053  -32.4212   25.7567 C   0  0  0  0  0  0
  -27.5604  -37.1818   24.8453 C   0  0  0  0  0  0
  -21.4150  -29.3029   22.3747 N   0  0  0  0  0  0
  -26.4289  -37.3815   23.9435 N   0  0  0  0  0  0
  -24.6654  -31.0848   22.1027 N   0  0  0  0  0  0
  -23.4212  -28.8175   23.3001 O   0  0  0  0  0  0
  -28.3451  -26.6681   20.2090 O   0  0  0  0  0  0
  -26.5558  -34.8910   22.4703 O   0  0  0  0  0  0
  -23.5338  -32.1426   23.7575 O   0  0  0  0  0  0
  -28.6364  -20.5914   23.2596 C   0  0  0  0  0  0
  -30.8560  -20.4270   22.3368 C   0  0  0  0  0  0
  -28.6909  -19.2091   23.5438 C   0  0  0  0  0  0
  -29.7197  -21.2120   22.5915 C   0  0  0  0  0  0
  -29.8622  -18.4934   23.1797 C   0  0  0  0  0  0
  -28.1731  -25.5780   21.0358 C   0  0  0  0  0  0
  -27.5297  -18.6040   24.2422 C   0  0  0  0  0  0
  -29.1039  -24.6280   21.2474 C   0  0  0  0  0  0
  -28.7725  -23.4905   22.1120 C   0  0  0  0  0  0
  -31.1483  -14.9942   24.3705 C   0  0  0  0  0  0
  -31.6019  -14.5484   22.9743 C   0  0  0  0  0  0
  -30.3900  -16.3599   21.9250 C   0  0  0  0  0  0
  -30.0183  -16.9684   23.3100 C   0  0  1  0  0  0
  -30.9992  -16.5251   24.4252 C   0  0  1  0  0  0
  -30.6014  -16.9865   25.8426 C   0  0  0  0  0  0
  -26.2213  -16.3837   24.2073 C   0  0  0  0  0  0
  -26.6469  -17.6460   23.4335 C   0  0  0  0  0  0
  -30.9332  -19.1161   22.6326 N   0  0  0  0  0  0
  -30.6166  -14.9045   21.9434 N   0  0  0  0  0  0
  -29.7388  -22.5570   22.1094 N   0  0  0  0  0  0
  -27.2186  -18.9057   25.3970 O   0  0  0  0  0  0
  -27.7377  -23.3874   22.7746 O   0  0  0  0  0  0
  -30.3063  -24.7208   20.6577 O   0  0  0  0  0  0
  -31.4498  -12.3919   19.0796 H   0  0  0  0  0  0
  -30.3037  -11.2619   19.7321 H   0  0  0  0  0  0
  -29.7088  -11.8794   17.3730 H   0  0  0  0  0  0
  -29.6404  -13.5659   17.8131 H   0  0  0  0  0  0
  -27.8106  -11.3406   18.7785 H   0  0  0  0  0  0
  -27.3454  -12.7110   17.8004 H   0  0  0  0  0  0
  -27.7343  -14.2642   19.6365 H   0  0  0  0  0  0
  -28.6616  -11.9109   21.3468 H   0  0  0  0  0  0
  -28.4777  -13.5532   21.8933 H   0  0  0  0  0  0
  -25.2701   -9.5740   22.4789 H   0  0  0  0  0  0
  -23.9984   -7.4671   22.7489 H   0  0  0  0  0  0
  -21.0869   -8.8739   19.8915 H   0  0  0  0  0  0
  -22.3666  -10.9677   19.6143 H   0  0  0  0  0  0
  -21.2015   -7.6134   23.9722 H   0  0  0  0  0  0
  -21.1500   -6.0498   25.9076 H   0  0  0  0  0  0
  -22.0581   -2.7600   23.2815 H   0  0  0  0  0  0
  -22.4075  -11.9844   22.4665 H   0  0  0  0  0  0
  -21.1074  -13.1226   22.2490 H   0  0  0  0  0  0
  -24.6847  -15.8555   20.5363 H   0  0  0  0  0  0
  -26.2936  -15.6204   20.0834 H   0  0  0  0  0  0
  -26.7138  -32.5600   23.1250 H   0  0  0  0  0  0
  -25.0241  -33.9822   25.0655 H   0  0  0  0  0  0
  -22.6848  -31.3103   21.4203 H   0  0  0  0  0  0
  -23.3820  -35.9550   23.3153 H   0  0  0  0  0  0
  -24.3625  -36.9048   22.2068 H   0  0  0  0  0  0
  -23.7133  -37.6422   23.6714 H   0  0  0  0  0  0
  -26.0241  -31.6215   20.5926 H   0  0  0  0  0  0
  -26.8207  -30.9141   21.9670 H   0  0  0  0  0  0
  -28.0945  -29.1255   21.1786 H   0  0  0  0  0  0
  -26.0733  -25.9738   19.0426 H   0  0  0  0  0  0
  -23.9837  -27.3028   19.0329 H   0  0  0  0  0  0
  -23.7216  -30.6182   19.4132 H   0  0  0  0  0  0
  -22.7328  -29.2589   19.8608 H   0  0  0  0  0  0
  -25.1255  -36.2007   25.0838 H   0  0  0  0  0  0
  -20.9946  -28.3165   24.1444 H   0  0  0  0  0  0
  -20.5716  -26.2214   23.3545 H   0  0  0  0  0  0
  -21.6655  -26.7403   22.1204 H   0  0  0  0  0  0
  -19.6943  -25.6246   21.1211 H   0  0  0  0  0  0
  -19.6742  -27.3132   20.6704 H   0  0  0  0  0  0
  -17.4225  -26.6697   21.3932 H   0  0  0  0  0  0
  -18.0289  -26.0007   22.8931 H   0  0  0  0  0  0
  -19.7915  -30.7268   24.2200 H   0  0  0  0  0  0
  -17.4987  -31.6256   24.5102 H   0  0  0  0  0  0
  -15.5350  -30.2925   23.7627 H   0  0  0  0  0  0
  -15.8687  -28.0761   22.7046 H   0  0  0  0  0  0
  -24.6020  -30.6774   25.7670 H   0  0  0  0  0  0
  -24.8802  -32.2587   26.4889 H   0  0  0  0  0  0
  -25.8108  -30.8651   27.0155 H   0  0  0  0  0  0
  -26.2952  -29.6814   24.1002 H   0  0  0  0  0  0
  -27.4270  -29.7264   25.4343 H   0  0  0  0  0  0
  -27.8688  -30.4531   23.9068 H   0  0  0  0  0  0
  -27.2728  -33.3554   26.2090 H   0  0  0  0  0  0
  -28.3959  -32.6639   25.0462 H   0  0  0  0  0  0
  -28.0572  -31.8298   26.5541 H   0  0  0  0  0  0
  -28.2478  -38.0252   24.7682 H   0  0  0  0  0  0
  -28.1258  -36.2791   24.6073 H   0  0  0  0  0  0
  -27.2339  -37.1199   25.8851 H   0  0  0  0  0  0
  -20.9289  -29.8822   21.7041 H   0  0  0  0  0  0
  -26.0167  -38.2866   24.1537 H   0  0  0  0  0  0
  -27.7397  -21.1330   23.5188 H   0  0  0  0  0  0
  -31.7189  -20.8498   21.8420 H   0  0  0  0  0  0
  -27.1970  -25.5431   21.5083 H   0  0  0  0  0  0
  -31.8783  -14.6563   25.1091 H   0  0  0  0  0  0
  -30.2027  -14.5115   24.6240 H   0  0  0  0  0  0
  -31.7798  -13.4713   22.9768 H   0  0  0  0  0  0
  -32.5581  -15.0196   22.7353 H   0  0  0  0  0  0
  -31.2991  -16.8294   21.5426 H   0  0  0  0  0  0
  -29.6007  -16.6003   21.2079 H   0  0  0  0  0  0
  -29.0598  -16.5305   23.5707 H   0  0  0  0  0  0
  -31.9756  -16.9616   24.2084 H   0  0  0  0  0  0
  -29.5996  -16.6550   26.1184 H   0  0  0  0  0  0
  -30.6269  -18.0745   25.9351 H   0  0  0  0  0  0
  -31.2935  -16.5900   26.5902 H   0  0  0  0  0  0
  -25.3940  -15.8888   23.6960 H   0  0  0  0  0  0
  -25.8827  -16.6105   25.2197 H   0  0  0  0  0  0
  -27.0346  -15.6611   24.2807 H   0  0  0  0  0  0
  -27.1422  -17.3708   22.5031 H   0  0  0  0  0  0
  -25.7541  -18.2038   23.1515 H   0  0  0  0  0  0
  -30.5472  -22.8336   21.5648 H   0  0  0  0  0  0
  -30.3034  -25.5307   20.1620 H   0  0  0  0  0  0
  1 25  1  0  0  0
  1 30  2  0  0  0
  1 89  1  0  0  0
  2  3  1  0  0  0
  2 25  1  0  0  0
  2 94  1  0  0  0
  2 95  1  0  0  0
  3  4  1  0  0  0
  3 96  1  0  0  0
  3 97  1  0  0  0
  4  5  1  0  0  0
  4 98  1  0  0  0
  4 99  1  0  0  0
  5  6  1  0  0  0
  5 26  1  0  0  0
  5100  1  0  0  0
  6 25  1  0  0  0
  6101  1  0  0  0
  6102  1  0  0  0
  7  8  2  0  0  0
  7 26  1  0  0  0
  7 29  1  0  0  0
  8  9  1  0  0  0
  8 22  1  0  0  0
  9 10  1  0  0  0
  9 27  2  0  0  0
 10 11  2  0  0  0
 10 15  1  0  0  0
 11 12  1  0  0  0
 11103  1  0  0  0
 12 13  2  0  0  0
 12104  1  0  0  0
 13 14  1  0  0  0
 13 31  1  0  0  0
 14 15  2  0  0  0
 14105  1  0  0  0
 15106  1  0  0  0
 16 17  2  0  0  0
 16 21  1  0  0  0
 16 31  1  0  0  0
 17 18  1  0  0  0
 17107  1  0  0  0
 18 19  2  0  0  0
 18108  1  0  0  0
 19 20  1  0  0  0
 19 24  1  0  0  0
 20 21  2  0  0  0
 20109  1  0  0  0
 21 23  1  0  0  0
 22 28  1  0  0  0
 22 32  2  0  0  0
 26 27  1  0  0  0
 28110  1  0  0  0
 28111  1  0  0  0
 29112  1  0  0  0
 29113  1  0  0  0
 33 34  1  0  0  0
 33 66  1  0  0  0
 33 70  2  0  0  0
 34 36  1  0  0  0
 34 59  1  0  0  0
 34114  1  0  0  0
 35 44  2  0  0  0
 35 45  1  0  0  0
 35 68  1  0  0  0
 36 56  1  0  0  0
 36115  1  0  0  0
 37 39  1  0  0  0
 37 47  1  0  0  0
 37 66  1  0  0  0
 37116  1  0  0  0
 38 43  2  0  0  0
 38 46  1  0  0  0
 38 47  1  0  0  0
 39 64  1  0  0  0
 39 67  2  0  0  0
 40 52  1  0  0  0
 40 53  2  0  0  0
 40 58  1  0  0  0
 41117  1  0  0  0
 41118  1  0  0  0
 41119  1  0  0  0
 41 48  1  0  0  0
 42 43  1  0  0  0
 42 66  1  0  0  0
 42120  1  0  0  0
 42121  1  0  0  0
 43 44  1  0  0  0
 44122  1  0  0  0
 45 46  2  0  0  0
 45123  1  0  0  0
 46124  1  0  0  0
 47125  1  0  0  0
 47126  1  0  0  0
 48 56  1  0  0  0
 48 65  1  0  0  0
 48127  1  0  0  0
 49 50  1  0  0  0
 49 53  1  0  0  0
 49 64  1  0  0  0
 49128  1  0  0  0
 50 51  1  0  0  0
 50129  1  0  0  0
 50130  1  0  0  0
 51 52  1  0  0  0
 51131  1  0  0  0
 51132  1  0  0  0
 52133  1  0  0  0
 52134  1  0  0  0
 53 54  1  0  0  0
 54 55  2  0  0  0
 54135  1  0  0  0
 55 57  1  0  0  0
 55136  1  0  0  0
 56 69  2  0  0  0
 57 58  2  0  0  0
 57137  1  0  0  0
 58138  1  0  0  0
 59 60  1  0  0  0
 59 61  1  0  0  0
 59 62  1  0  0  0
 60139  1  0  0  0
 60140  1  0  0  0
 60141  1  0  0  0
 61142  1  0  0  0
 61143  1  0  0  0
 61144  1  0  0  0
 62145  1  0  0  0
 62146  1  0  0  0
 62147  1  0  0  0
 63 65  1  0  0  0
 63148  1  0  0  0
 63149  1  0  0  0
 63150  1  0  0  0
 64151  1  0  0  0
 65152  1  0  0  0
 68 76  1  0  0  0
 71 73  2  0  0  0
 71 74  1  0  0  0
 71153  1  0  0  0
 72 74  2  0  0  0
 72 88  1  0  0  0
 72154  1  0  0  0
 73 75  1  0  0  0
 73 77  1  0  0  0
 74 90  1  0  0  0
 75 88  2  0  0  0
 75 83  1  0  0  0
 76 78  2  0  0  0
 76155  1  0  0  0
 77 87  1  0  0  0
 77 91  2  0  0  0
 78 79  1  0  0  0
 78 93  1  0  0  0
 79 90  1  0  0  0
 79 92  2  0  0  0
 80 81  1  0  0  0
 80 84  1  0  0  0
 80156  1  0  0  0
 80157  1  0  0  0
 81 89  1  0  0  0
 81158  1  0  0  0
 81159  1  0  0  0
 82 83  1  0  0  0
 82 89  1  0  0  0
 82160  1  0  0  0
 82161  1  0  0  0
 83 84  1  0  0  0
 83162  1  0  0  0
 84 85  1  0  0  0
 84163  1  0  0  0
 85164  1  0  0  0
 85165  1  0  0  0
 85166  1  0  0  0
 86 87  1  0  0  0
 86167  1  0  0  0
 86168  1  0  0  0
 86169  1  0  0  0
 87170  1  0  0  0
 87171  1  0  0  0
 90172  1  0  0  0
 93173  1  0  0  0
M  ISO  4   1 100  68 101  76 101  89 100
M  END
> <chiral flag>
0

> <version>
0

> <s_m_source_file>
/data/baiqing/PycharmProjects/Reinvent-master-3.2/result/LINK_invent/BTK/process_docking_weight1_custom_product_contain_oxygen_bond_distance_aromatic_linkinvent_7_9_3/rearranged_h_0166.sdf

> <i_m_source_file_index>
97

> <r_mmod_Potential_Energy-OPLS-2005>
-4.88256645202637

> <r_mmod_Stretch_Energy-OPLS-2005>
39.9343147277832

> <r_mmod_Bend_Energy-OPLS-2005>
117.522926330566

> <r_mmod_Torsional_Energy-OPLS-2005>
364.361755371094

> <r_mmod_Improper_Torsional_Energy-OPLS-2005>
9.10360908508301

> <r_mmod_Van_der_Waal_Energy-OPLS-2005>
164.365158081055

> <r_mmod_Electrostatic_Energy-OPLS-2005>
-492.000640869141

> <r_mmod_Solvation_Energy-OPLS-2005>
-220.565933227539

> <b_mmod_Minimization_Converged-OPLS-2005>
0

> <r_mmod_RMS_Derivative-OPLS-2005>
3.36728620529175

$$$$
