0
                    3D
 Structure written by MMmdl.
160168  0  0  1  0            999 V2000
  -30.6775  -14.5137   20.5185 C   0  0  0  0  0  0
  -30.4315  -12.3113   19.4306 C   0  0  0  0  0  0
  -29.5015  -12.4889   18.2107 C   0  0  0  0  0  0
  -28.0220  -12.3476   18.6245 C   0  0  0  0  0  0
  -27.6620  -13.2042   19.8670 C   0  0  2  0  0  0
  -28.7070  -13.0033   20.9903 C   0  0  0  0  0  0
  -25.2626  -13.8164   20.5669 C   0  0  0  0  0  0
  -24.1866  -13.0441   20.9168 C   0  0  0  0  0  0
  -24.6409  -11.6896   20.8726 C   0  0  0  0  0  0
  -23.9061  -10.4287   21.0402 C   0  0  0  0  0  0
  -24.3611   -9.4202   21.9179 C   0  0  0  0  0  0
  -23.6286   -8.2240   22.0757 C   0  0  0  0  0  0
  -22.4267   -8.0283   21.3545 C   0  0  0  0  0  0
  -21.9905   -9.0256   20.4643 C   0  0  0  0  0  0
  -22.7237  -10.2132   20.3051 C   0  0  0  0  0  0
  -21.6855   -6.0733   22.5276 C   0  0  0  0  0  0
  -21.4011   -6.5635   23.8211 C   0  0  0  0  0  0
  -21.3663   -5.6787   24.9176 C   0  0  0  0  0  0
  -21.6045   -4.3047   24.7225 C   0  0  0  0  0  0
  -21.8821   -3.8141   23.4348 C   0  0  0  0  0  0
  -21.9187   -4.6957   22.3407 C   0  0  0  0  0  0
  -22.7883  -13.5239   21.1824 C   0  0  0  0  0  0
  -22.1654   -4.2147   21.0982 F   0  0  0  0  0  0
  -21.5633   -3.4535   25.7739 F   0  0  0  0  0  0
  -30.0358  -13.3124   20.4360 N   0  0  0  0  0  0
  -26.3046  -12.9312   20.3331 N   0  0  0  0  0  0
  -25.9330  -11.6476   20.5746 N   0  0  0  0  0  0
  -22.0515  -12.8244   22.0387 N   0  0  0  0  0  0
  -25.4371  -15.1885   20.4096 N   0  0  0  0  0  0
  -31.8265  -14.6778   20.0998 O   0  0  0  0  0  0
  -21.6628   -6.8879   21.4243 O   0  0  0  0  0  0
  -22.3561  -14.5544   20.6666 O   0  0  0  0  0  0
  -24.6167  -31.8655   23.2103 C   0  0  0  0  0  0
  -25.9052  -32.4807   23.8396 C   0  0  1  0  0  0
  -27.2301  -27.4020   20.0986 C   0  0  0  0  0  0
  -25.5905  -33.8611   24.2319 N   0  0  0  0  0  0
  -23.4064  -30.4915   21.5501 C   0  0  2  0  0  0
  -24.8527  -28.9535   20.1171 C   0  0  0  0  0  0
  -22.7433  -29.4655   22.4974 C   0  0  0  0  0  0
  -18.0273  -28.1391   22.8483 C   0  0  0  0  0  0
  -24.1483  -36.7292   23.2645 C   0  0  0  0  0  0
  -25.9407  -30.8216   21.3712 C   0  0  0  0  0  0
  -26.0171  -29.4548   20.7146 C   0  0  0  0  0  0
  -27.2087  -28.6868   20.6994 C   0  0  0  0  0  0
  -26.0497  -26.9353   19.4789 C   0  0  0  0  0  0
  -24.8659  -27.6940   19.4979 C   0  0  0  0  0  0
  -23.6184  -29.8248   20.1654 C   0  0  0  0  0  0
  -25.4111  -36.3099   24.0337 C   0  0  1  0  0  0
  -20.5876  -28.3675   23.1309 C   0  0  2  0  0  0
  -20.6760  -26.9407   22.5416 C   0  0  0  0  0  0
  -19.5735  -26.6386   21.5213 C   0  0  0  0  0  0
  -18.1914  -26.7930   22.1621 C   0  0  0  0  0  0
  -19.1529  -28.8846   23.2891 C   0  0  0  0  0  0
  -18.9464  -30.1454   23.8894 C   0  0  0  0  0  0
  -17.6476  -30.6599   24.0562 C   0  0  0  0  0  0
  -25.9038  -34.9470   23.5125 C   0  0  0  0  0  0
  -16.5360  -29.9107   23.6343 C   0  0  0  0  0  0
  -16.7264  -28.6527   23.0348 C   0  0  0  0  0  0
  -26.4480  -31.6611   25.0739 C   0  0  0  0  0  0
  -25.3735  -31.3725   26.1484 C   0  0  0  0  0  0
  -27.0335  -30.3053   24.6146 C   0  0  0  0  0  0
  -27.6059  -32.4345   25.7499 C   0  0  0  0  0  0
  -27.5573  -37.1798   24.8470 C   0  0  0  0  0  0
  -21.4155  -29.3038   22.3713 N   0  0  0  0  0  0
  -26.4286  -37.3786   23.9415 N   0  0  0  0  0  0
  -24.6730  -31.0740   22.1012 N   0  0  0  0  0  0
  -23.4203  -28.8194   23.3018 O   0  0  0  0  0  0
  -28.3880  -26.6390   20.0910 O   0  0  0  0  0  0
  -26.5606  -34.8920   22.4688 O   0  0  0  0  0  0
  -23.5360  -32.1428   23.7479 O   0  0  0  0  0  0
  -31.2467  -17.6017   20.4879 C   0  0  0  0  0  0
  -30.2484  -19.5204   19.6219 C   0  0  0  0  0  0
  -28.9905  -18.8625   19.6933 C   0  0  0  0  0  0
  -30.0021  -16.9139   20.5204 C   0  0  0  0  0  0
  -30.5445  -20.7751   18.8661 C   0  0  0  0  0  0
  -27.7202  -19.4709   19.1387 C   0  0  0  0  0  0
  -29.4622  -22.4019   21.4449 C   0  0  0  0  0  0
  -29.2999  -24.3264   19.7195 C   0  0  0  0  0  0
  -28.2672  -25.2354   20.4463 C   0  0  0  0  0  0
  -29.1978  -22.7794   19.9779 C   0  0  1  0  0  0
  -31.3722  -18.8824   20.0478 N   0  0  0  0  0  0
  -28.8740  -17.5844   20.1592 N   0  0  0  0  0  0
  -31.4135  -20.6169   17.8563 N   0  0  0  0  0  0
  -29.9103  -15.5467   20.9360 N   0  0  0  0  0  0
  -30.0887  -22.0509   19.0364 N   0  3  0  0  0  0
  -31.4763  -12.4047   19.1310 H   0  0  0  0  0  0
  -30.3316  -11.3057   19.8414 H   0  0  0  0  0  0
  -29.7436  -11.7510   17.4434 H   0  0  0  0  0  0
  -29.6671  -13.4675   17.7567 H   0  0  0  0  0  0
  -27.8441  -11.2936   18.8405 H   0  0  0  0  0  0
  -27.3692  -12.5960   17.7877 H   0  0  0  0  0  0
  -27.6987  -14.2469   19.5503 H   0  0  0  0  0  0
  -28.6904  -11.9699   21.3380 H   0  0  0  0  0  0
  -28.4739  -13.6107   21.8649 H   0  0  0  0  0  0
  -25.2766   -9.5670   22.4747 H   0  0  0  0  0  0
  -23.9987   -7.4634   22.7482 H   0  0  0  0  0  0
  -21.0835   -8.8777   19.8954 H   0  0  0  0  0  0
  -22.3702  -10.9666   19.6152 H   0  0  0  0  0  0
  -21.2002   -7.6145   23.9721 H   0  0  0  0  0  0
  -21.1484   -6.0516   25.9083 H   0  0  0  0  0  0
  -22.0596   -2.7606   23.2850 H   0  0  0  0  0  0
  -22.4101  -11.9884   22.4760 H   0  0  0  0  0  0
  -21.1139  -13.1289   22.2581 H   0  0  0  0  0  0
  -24.6804  -15.8500   20.5424 H   0  0  0  0  0  0
  -26.2953  -15.6280   20.1006 H   0  0  0  0  0  0
  -26.7120  -32.5511   23.1163 H   0  0  0  0  0  0
  -25.0049  -33.9787   25.0457 H   0  0  0  0  0  0
  -22.6961  -31.3086   21.4080 H   0  0  0  0  0  0
  -23.3749  -35.9625   23.3330 H   0  0  0  0  0  0
  -24.3555  -36.8886   22.2051 H   0  0  0  0  0  0
  -23.7239  -37.6501   23.6650 H   0  0  0  0  0  0
  -26.0665  -31.5923   20.6088 H   0  0  0  0  0  0
  -26.8241  -30.8667   21.9971 H   0  0  0  0  0  0
  -28.1061  -29.0689   21.1666 H   0  0  0  0  0  0
  -26.0310  -25.9854   18.9653 H   0  0  0  0  0  0
  -23.9728  -27.3075   19.0263 H   0  0  0  0  0  0
  -23.7342  -30.6007   19.4067 H   0  0  0  0  0  0
  -22.7402  -29.2504   19.8611 H   0  0  0  0  0  0
  -25.1288  -36.1946   25.0831 H   0  0  0  0  0  0
  -20.9959  -28.3226   24.1433 H   0  0  0  0  0  0
  -20.5648  -26.2277   23.3608 H   0  0  0  0  0  0
  -21.6630  -26.7424   22.1213 H   0  0  0  0  0  0
  -19.6891  -25.6297   21.1238 H   0  0  0  0  0  0
  -19.6678  -27.3198   20.6751 H   0  0  0  0  0  0
  -17.4183  -26.6689   21.4028 H   0  0  0  0  0  0
  -18.0304  -26.0081   22.9025 H   0  0  0  0  0  0
  -19.7949  -30.7265   24.2255 H   0  0  0  0  0  0
  -17.5039  -31.6271   24.5170 H   0  0  0  0  0  0
  -15.5364  -30.3008   23.7675 H   0  0  0  0  0  0
  -15.8657  -28.0848   22.7063 H   0  0  0  0  0  0
  -24.5913  -30.7070   25.7821 H   0  0  0  0  0  0
  -24.8928  -32.2881   26.4938 H   0  0  0  0  0  0
  -25.8076  -30.8887   27.0238 H   0  0  0  0  0  0
  -26.2888  -29.6795   24.1211 H   0  0  0  0  0  0
  -27.4117  -29.7318   25.4618 H   0  0  0  0  0  0
  -27.8719  -30.4394   23.9308 H   0  0  0  0  0  0
  -27.2682  -33.3645   26.2092 H   0  0  0  0  0  0
  -28.3851  -32.6911   25.0305 H   0  0  0  0  0  0
  -28.0747  -31.8457   26.5396 H   0  0  0  0  0  0
  -28.2603  -38.0083   24.7503 H   0  0  0  0  0  0
  -28.1049  -36.2607   24.6307 H   0  0  0  0  0  0
  -27.2277  -37.1469   25.8871 H   0  0  0  0  0  0
  -20.9326  -29.8776   21.6944 H   0  0  0  0  0  0
  -26.0163  -38.2857   24.1436 H   0  0  0  0  0  0
  -32.1611  -17.1203   20.8039 H   0  0  0  0  0  0
  -27.8028  -19.6043   18.0603 H   0  0  0  0  0  0
  -26.8618  -18.8274   19.3337 H   0  0  0  0  0  0
  -27.5134  -20.4336   19.5977 H   0  0  0  0  0  0
  -29.7454  -21.3577   21.5629 H   0  0  0  0  0  0
  -28.5681  -22.5627   22.0466 H   0  0  0  0  0  0
  -30.2551  -23.0115   21.8769 H   0  0  0  0  0  0
  -30.3018  -24.6655   19.9851 H   0  0  0  0  0  0
  -29.2008  -24.5060   18.6473 H   0  0  0  0  0  0
  -28.4188  -25.1603   21.5235 H   0  0  0  0  0  0
  -27.2729  -24.8304   20.2673 H   0  0  0  0  0  0
  -28.1811  -22.4783   19.7290 H   0  0  0  0  0  0
  -31.8241  -19.7008   17.7451 H   0  0  0  0  0  0
  -31.7814  -21.3643   17.2898 H   0  0  0  0  0  0
  -28.9994  -15.2647   21.2568 H   0  0  0  0  0  0
  -30.3950  -22.6830   18.3136 H   0  0  0  0  0  0
  1 25  1  0  0  0
  1 30  2  0  0  0
  1 84  1  0  0  0
  2  3  1  0  0  0
  2 25  1  0  0  0
  2 86  1  0  0  0
  2 87  1  0  0  0
  3  4  1  0  0  0
  3 88  1  0  0  0
  3 89  1  0  0  0
  4  5  1  0  0  0
  4 90  1  0  0  0
  4 91  1  0  0  0
  5  6  1  0  0  0
  5 26  1  0  0  0
  5 92  1  0  0  0
  6 25  1  0  0  0
  6 93  1  0  0  0
  6 94  1  0  0  0
  7  8  2  0  0  0
  7 26  1  0  0  0
  7 29  1  0  0  0
  8  9  1  0  0  0
  8 22  1  0  0  0
  9 10  1  0  0  0
  9 27  2  0  0  0
 10 11  2  0  0  0
 10 15  1  0  0  0
 11 12  1  0  0  0
 11 95  1  0  0  0
 12 13  2  0  0  0
 12 96  1  0  0  0
 13 14  1  0  0  0
 13 31  1  0  0  0
 14 15  2  0  0  0
 14 97  1  0  0  0
 15 98  1  0  0  0
 16 17  2  0  0  0
 16 21  1  0  0  0
 16 31  1  0  0  0
 17 18  1  0  0  0
 17 99  1  0  0  0
 18 19  2  0  0  0
 18100  1  0  0  0
 19 20  1  0  0  0
 19 24  1  0  0  0
 20 21  2  0  0  0
 20101  1  0  0  0
 21 23  1  0  0  0
 22 28  1  0  0  0
 22 32  2  0  0  0
 26 27  1  0  0  0
 28102  1  0  0  0
 28103  1  0  0  0
 29104  1  0  0  0
 29105  1  0  0  0
 33 34  1  0  0  0
 33 66  1  0  0  0
 33 70  2  0  0  0
 34 36  1  0  0  0
 34 59  1  0  0  0
 34106  1  0  0  0
 35 44  2  0  0  0
 35 45  1  0  0  0
 35 68  1  0  0  0
 36 56  1  0  0  0
 36107  1  0  0  0
 37 39  1  0  0  0
 37 47  1  0  0  0
 37 66  1  0  0  0
 37108  1  0  0  0
 38 43  2  0  0  0
 38 46  1  0  0  0
 38 47  1  0  0  0
 39 64  1  0  0  0
 39 67  2  0  0  0
 40 52  1  0  0  0
 40 53  2  0  0  0
 40 58  1  0  0  0
 41109  1  0  0  0
 41110  1  0  0  0
 41111  1  0  0  0
 41 48  1  0  0  0
 42 43  1  0  0  0
 42 66  1  0  0  0
 42112  1  0  0  0
 42113  1  0  0  0
 43 44  1  0  0  0
 44114  1  0  0  0
 45 46  2  0  0  0
 45115  1  0  0  0
 46116  1  0  0  0
 47117  1  0  0  0
 47118  1  0  0  0
 48 56  1  0  0  0
 48 65  1  0  0  0
 48119  1  0  0  0
 49 50  1  0  0  0
 49 53  1  0  0  0
 49 64  1  0  0  0
 49120  1  0  0  0
 50 51  1  0  0  0
 50121  1  0  0  0
 50122  1  0  0  0
 51 52  1  0  0  0
 51123  1  0  0  0
 51124  1  0  0  0
 52125  1  0  0  0
 52126  1  0  0  0
 53 54  1  0  0  0
 54 55  2  0  0  0
 54127  1  0  0  0
 55 57  1  0  0  0
 55128  1  0  0  0
 56 69  2  0  0  0
 57 58  2  0  0  0
 57129  1  0  0  0
 58130  1  0  0  0
 59 60  1  0  0  0
 59 61  1  0  0  0
 59 62  1  0  0  0
 60131  1  0  0  0
 60132  1  0  0  0
 60133  1  0  0  0
 61134  1  0  0  0
 61135  1  0  0  0
 61136  1  0  0  0
 62137  1  0  0  0
 62138  1  0  0  0
 62139  1  0  0  0
 63 65  1  0  0  0
 63140  1  0  0  0
 63141  1  0  0  0
 63142  1  0  0  0
 64143  1  0  0  0
 65144  1  0  0  0
 68 79  1  0  0  0
 71 74  2  0  0  0
 71 81  1  0  0  0
 71145  1  0  0  0
 72 73  1  0  0  0
 72 75  1  0  0  0
 72 81  2  0  0  0
 73 76  1  0  0  0
 73 82  2  0  0  0
 74 82  1  0  0  0
 74 84  1  0  0  0
 75 83  1  0  0  0
 75 85  2  0  0  0
 76146  1  0  0  0
 76147  1  0  0  0
 76148  1  0  0  0
 77149  1  0  0  0
 77150  1  0  0  0
 77151  1  0  0  0
 77 80  1  0  0  0
 78 79  1  0  0  0
 78 80  1  0  0  0
 78152  1  0  0  0
 78153  1  0  0  0
 79154  1  0  0  0
 79155  1  0  0  0
 80 85  1  0  0  0
 80156  1  0  0  0
 83157  1  0  0  0
 83158  1  0  0  0
 84159  1  0  0  0
 85160  1  0  0  0
M  CHG  1  85   1
M  ISO  4   1 100  68 101  79 101  84 100
M  END
> <chiral flag>
0

> <version>
0

> <s_m_source_file>
/data/baiqing/PycharmProjects/Reinvent-master-3.2/result/LINK_invent/BTK/process_docking_weight1_custom_product_contain_oxygen_bond_distance_aromatic_linkinvent_7_9_3/rearranged_h_0199.sdf

> <i_m_source_file_index>
1

> <r_mmod_Potential_Energy-OPLS-2005>
-86.0758056640625

> <r_mmod_Stretch_Energy-OPLS-2005>
49.5835723876953

> <r_mmod_Bend_Energy-OPLS-2005>
139.389114379883

> <r_mmod_Torsional_Energy-OPLS-2005>
255.217407226562

> <r_mmod_Improper_Torsional_Energy-OPLS-2005>
7.19877052307129

> <r_mmod_Van_der_Waal_Energy-OPLS-2005>
150.877944946289

> <r_mmod_Electrostatic_Energy-OPLS-2005>
-256.495544433594

> <r_mmod_Solvation_Energy-OPLS-2005>
-450.385192871094

> <b_mmod_Minimization_Converged-OPLS-2005>
0

> <r_mmod_RMS_Derivative-OPLS-2005>
2.14077401161194

$$$$
1
                    3D
 Structure written by MMmdl.
152160  0  0  1  0            999 V2000
  -30.6806  -14.4901   20.5832 C   0  0  0  0  0  0
  -30.4324  -12.3203   19.4186 C   0  0  0  0  0  0
  -29.4964  -12.5075   18.2052 C   0  0  0  0  0  0
  -28.0175  -12.3626   18.6179 C   0  0  0  0  0  0
  -27.6622  -13.2006   19.8746 C   0  0  2  0  0  0
  -28.7051  -12.9720   20.9929 C   0  0  0  0  0  0
  -25.2598  -13.8140   20.5660 C   0  0  0  0  0  0
  -24.1844  -13.0432   20.9180 C   0  0  0  0  0  0
  -24.6384  -11.6894   20.8735 C   0  0  0  0  0  0
  -23.9046  -10.4287   21.0404 C   0  0  0  0  0  0
  -24.3606   -9.4205   21.9179 C   0  0  0  0  0  0
  -23.6285   -8.2240   22.0750 C   0  0  0  0  0  0
  -22.4267   -8.0278   21.3542 C   0  0  0  0  0  0
  -21.9898   -9.0246   20.4643 C   0  0  0  0  0  0
  -22.7222  -10.2128   20.3052 C   0  0  0  0  0  0
  -21.6850   -6.0731   22.5275 C   0  0  0  0  0  0
  -21.4011   -6.5635   23.8207 C   0  0  0  0  0  0
  -21.3661   -5.6791   24.9170 C   0  0  0  0  0  0
  -21.6046   -4.3052   24.7220 C   0  0  0  0  0  0
  -21.8821   -3.8142   23.4340 C   0  0  0  0  0  0
  -21.9192   -4.6960   22.3397 C   0  0  0  0  0  0
  -22.7870  -13.5242   21.1846 C   0  0  0  0  0  0
  -22.1661   -4.2147   21.0976 F   0  0  0  0  0  0
  -21.5633   -3.4537   25.7731 F   0  0  0  0  0  0
  -30.0351  -13.2975   20.4448 N   0  0  0  0  0  0
  -26.3023  -12.9294   20.3353 N   0  0  0  0  0  0
  -25.9309  -11.6464   20.5762 N   0  0  0  0  0  0
  -22.0506  -12.8232   22.0397 N   0  0  0  0  0  0
  -25.4327  -15.1856   20.4022 N   0  0  0  0  0  0
  -31.8092  -14.6892   20.1209 O   0  0  0  0  0  0
  -21.6637   -6.8871   21.4234 O   0  0  0  0  0  0
  -22.3561  -14.5554   20.6703 O   0  0  0  0  0  0
  -24.6164  -31.8671   23.2077 C   0  0  0  0  0  0
  -25.9049  -32.4818   23.8379 C   0  0  1  0  0  0
  -27.2346  -27.4125   20.0998 C   0  0  0  0  0  0
  -25.5898  -33.8619   24.2310 N   0  0  0  0  0  0
  -23.4053  -30.4920   21.5486 C   0  0  2  0  0  0
  -24.8514  -28.9579   20.1139 C   0  0  0  0  0  0
  -22.7426  -29.4659   22.4967 C   0  0  0  0  0  0
  -18.0278  -28.1371   22.8496 C   0  0  0  0  0  0
  -24.1491  -36.7307   23.2638 C   0  0  0  0  0  0
  -25.9374  -30.8284   21.3632 C   0  0  0  0  0  0
  -26.0146  -29.4622   20.7074 C   0  0  0  0  0  0
  -27.2095  -28.7011   20.6898 C   0  0  0  0  0  0
  -26.0459  -26.9308   19.5004 C   0  0  0  0  0  0
  -24.8632  -27.6925   19.5062 C   0  0  0  0  0  0
  -23.6152  -29.8272   20.1629 C   0  0  0  0  0  0
  -25.4109  -36.3104   24.0334 C   0  0  1  0  0  0
  -20.5871  -28.3666   23.1308 C   0  0  2  0  0  0
  -20.6770  -26.9399   22.5407 C   0  0  0  0  0  0
  -19.5743  -26.6382   21.5212 C   0  0  0  0  0  0
  -18.1926  -26.7911   22.1632 C   0  0  0  0  0  0
  -19.1530  -28.8834   23.2900 C   0  0  0  0  0  0
  -18.9462  -30.1445   23.8906 C   0  0  0  0  0  0
  -17.6461  -30.6579   24.0571 C   0  0  0  0  0  0
  -25.9040  -34.9477   23.5118 C   0  0  0  0  0  0
  -16.5353  -29.9082   23.6329 C   0  0  0  0  0  0
  -16.7267  -28.6503   23.0341 C   0  0  0  0  0  0
  -26.4460  -31.6596   25.0713 C   0  0  0  0  0  0
  -25.3733  -31.3730   26.1479 C   0  0  0  0  0  0
  -27.0267  -30.3027   24.6088 C   0  0  0  0  0  0
  -27.6043  -32.4309   25.7469 C   0  0  0  0  0  0
  -27.5586  -37.1806   24.8462 C   0  0  0  0  0  0
  -21.4151  -29.3042   22.3718 N   0  0  0  0  0  0
  -26.4295  -37.3789   23.9413 N   0  0  0  0  0  0
  -24.6715  -31.0767   22.0979 N   0  0  0  0  0  0
  -23.4203  -28.8194   23.3002 O   0  0  0  0  0  0
  -28.4016  -26.6615   20.1233 O   0  0  0  0  0  0
  -26.5608  -34.8932   22.4683 O   0  0  0  0  0  0
  -23.5351  -32.1422   23.7457 O   0  0  0  0  0  0
  -31.3786  -18.8350   21.3989 C   0  0  0  0  0  0
  -28.9634  -17.6541   21.4485 C   0  0  0  0  0  0
  -30.2058  -19.5952   21.6407 C   0  0  0  0  0  0
  -30.1316  -16.8729   21.2358 C   0  0  0  0  0  0
  -29.5749  -23.3531   21.3793 C   0  0  0  0  0  0
  -30.2671  -21.0645   22.0860 C   0  0  0  0  0  0
  -29.5917  -24.4391   20.2790 C   0  0  0  0  0  0
  -28.2602  -25.2216   20.0891 C   0  0  0  0  0  0
  -28.9881  -18.9986   21.6433 N   0  0  0  0  0  0
  -31.3442  -17.4897   21.1928 N   0  0  0  0  0  0
  -29.9239  -15.4632   21.1319 N   0  0  0  0  0  0
  -29.9591  -22.0938   21.0753 N   0  0  0  0  0  0
  -29.2717  -23.6745   22.5299 O   0  0  0  0  0  0
  -31.4743  -12.4369   19.1142 H   0  0  0  0  0  0
  -30.3515  -11.3065   19.8144 H   0  0  0  0  0  0
  -29.7385  -11.7806   17.4291 H   0  0  0  0  0  0
  -29.6579  -13.4920   17.7629 H   0  0  0  0  0  0
  -27.8311  -11.3058   18.8139 H   0  0  0  0  0  0
  -27.3657  -12.6357   17.7871 H   0  0  0  0  0  0
  -27.7070  -14.2487   19.5783 H   0  0  0  0  0  0
  -28.6883  -11.9298   21.3152 H   0  0  0  0  0  0
  -28.4587  -13.5489   21.8854 H   0  0  0  0  0  0
  -25.2751   -9.5687   22.4752 H   0  0  0  0  0  0
  -23.9997   -7.4632   22.7469 H   0  0  0  0  0  0
  -21.0832   -8.8758   19.8948 H   0  0  0  0  0  0
  -22.3675  -10.9668   19.6163 H   0  0  0  0  0  0
  -21.2000   -7.6141   23.9710 H   0  0  0  0  0  0
  -21.1485   -6.0519   25.9075 H   0  0  0  0  0  0
  -22.0600   -2.7604   23.2839 H   0  0  0  0  0  0
  -22.4114  -11.9883   22.4773 H   0  0  0  0  0  0
  -21.1128  -13.1265   22.2612 H   0  0  0  0  0  0
  -24.6560  -15.8333   20.4835 H   0  0  0  0  0  0
  -26.2609  -15.6122   20.0070 H   0  0  0  0  0  0
  -26.7122  -32.5515   23.1141 H   0  0  0  0  0  0
  -25.0057  -33.9781   25.0463 H   0  0  0  0  0  0
  -22.6937  -31.3091   21.4084 H   0  0  0  0  0  0
  -23.3745  -35.9651   23.3319 H   0  0  0  0  0  0
  -24.3587  -36.8890   22.2048 H   0  0  0  0  0  0
  -23.7260  -37.6529   23.6632 H   0  0  0  0  0  0
  -26.0541  -31.5959   20.5972 H   0  0  0  0  0  0
  -26.8235  -30.8772   21.9847 H   0  0  0  0  0  0
  -28.1082  -29.0905   21.1470 H   0  0  0  0  0  0
  -26.0041  -25.9667   19.0173 H   0  0  0  0  0  0
  -23.9691  -27.2984   19.0432 H   0  0  0  0  0  0
  -23.7263  -30.6039   19.4050 H   0  0  0  0  0  0
  -22.7381  -29.2505   19.8641 H   0  0  0  0  0  0
  -25.1280  -36.1964   25.0825 H   0  0  0  0  0  0
  -20.9973  -28.3225   24.1423 H   0  0  0  0  0  0
  -20.5671  -26.2272   23.3591 H   0  0  0  0  0  0
  -21.6637  -26.7426   22.1198 H   0  0  0  0  0  0
  -19.6907  -25.6303   21.1220 H   0  0  0  0  0  0
  -19.6679  -27.3216   20.6760 H   0  0  0  0  0  0
  -17.4189  -26.6661   21.4038 H   0  0  0  0  0  0
  -18.0330  -26.0044   22.9018 H   0  0  0  0  0  0
  -19.7944  -30.7263   24.2263 H   0  0  0  0  0  0
  -17.5023  -31.6260   24.5168 H   0  0  0  0  0  0
  -15.5360  -30.2996   23.7646 H   0  0  0  0  0  0
  -15.8663  -28.0839   22.7029 H   0  0  0  0  0  0
  -24.5866  -30.7111   25.7829 H   0  0  0  0  0  0
  -24.8982  -32.2910   26.4958 H   0  0  0  0  0  0
  -25.8088  -30.8873   27.0221 H   0  0  0  0  0  0
  -26.2798  -29.6814   24.1129 H   0  0  0  0  0  0
  -27.4015  -29.7231   25.4535 H   0  0  0  0  0  0
  -27.8644  -30.4319   23.9229 H   0  0  0  0  0  0
  -27.2670  -33.3627   26.2017 H   0  0  0  0  0  0
  -28.3870  -32.6833   25.0304 H   0  0  0  0  0  0
  -28.0675  -31.8443   26.5410 H   0  0  0  0  0  0
  -28.2590  -38.0116   24.7525 H   0  0  0  0  0  0
  -28.1094  -36.2652   24.6257 H   0  0  0  0  0  0
  -27.2312  -37.1408   25.8866 H   0  0  0  0  0  0
  -20.9304  -29.8794   21.6973 H   0  0  0  0  0  0
  -26.0179  -38.2863   24.1432 H   0  0  0  0  0  0
  -32.3550  -19.2975   21.4223 H   0  0  0  0  0  0
  -27.9883  -17.1895   21.4850 H   0  0  0  0  0  0
  -31.2654  -21.2635   22.4785 H   0  0  0  0  0  0
  -29.5952  -21.1685   22.9403 H   0  0  0  0  0  0
  -29.8979  -23.9984   19.3300 H   0  0  0  0  0  0
  -30.3823  -25.1416   20.5426 H   0  0  0  0  0  0
  -27.5299  -24.9192   20.8429 H   0  0  0  0  0  0
  -27.8547  -24.9180   19.1239 H   0  0  0  0  0  0
  -29.0076  -15.1501   21.4096 H   0  0  0  0  0  0
  -30.1761  -21.8723   20.1132 H   0  0  0  0  0  0
  1 25  1  0  0  0
  1 30  2  0  0  0
  1 81  1  0  0  0
  2  3  1  0  0  0
  2 25  1  0  0  0
  2 84  1  0  0  0
  2 85  1  0  0  0
  3  4  1  0  0  0
  3 86  1  0  0  0
  3 87  1  0  0  0
  4  5  1  0  0  0
  4 88  1  0  0  0
  4 89  1  0  0  0
  5  6  1  0  0  0
  5 26  1  0  0  0
  5 90  1  0  0  0
  6 25  1  0  0  0
  6 91  1  0  0  0
  6 92  1  0  0  0
  7  8  2  0  0  0
  7 26  1  0  0  0
  7 29  1  0  0  0
  8  9  1  0  0  0
  8 22  1  0  0  0
  9 10  1  0  0  0
  9 27  2  0  0  0
 10 11  2  0  0  0
 10 15  1  0  0  0
 11 12  1  0  0  0
 11 93  1  0  0  0
 12 13  2  0  0  0
 12 94  1  0  0  0
 13 14  1  0  0  0
 13 31  1  0  0  0
 14 15  2  0  0  0
 14 95  1  0  0  0
 15 96  1  0  0  0
 16 17  2  0  0  0
 16 21  1  0  0  0
 16 31  1  0  0  0
 17 18  1  0  0  0
 17 97  1  0  0  0
 18 19  2  0  0  0
 18 98  1  0  0  0
 19 20  1  0  0  0
 19 24  1  0  0  0
 20 21  2  0  0  0
 20 99  1  0  0  0
 21 23  1  0  0  0
 22 28  1  0  0  0
 22 32  2  0  0  0
 26 27  1  0  0  0
 28100  1  0  0  0
 28101  1  0  0  0
 29102  1  0  0  0
 29103  1  0  0  0
 33 34  1  0  0  0
 33 66  1  0  0  0
 33 70  2  0  0  0
 34 36  1  0  0  0
 34 59  1  0  0  0
 34104  1  0  0  0
 35 44  2  0  0  0
 35 45  1  0  0  0
 35 68  1  0  0  0
 36 56  1  0  0  0
 36105  1  0  0  0
 37 39  1  0  0  0
 37 47  1  0  0  0
 37 66  1  0  0  0
 37106  1  0  0  0
 38 43  2  0  0  0
 38 46  1  0  0  0
 38 47  1  0  0  0
 39 64  1  0  0  0
 39 67  2  0  0  0
 40 52  1  0  0  0
 40 53  2  0  0  0
 40 58  1  0  0  0
 41107  1  0  0  0
 41108  1  0  0  0
 41109  1  0  0  0
 41 48  1  0  0  0
 42 43  1  0  0  0
 42 66  1  0  0  0
 42110  1  0  0  0
 42111  1  0  0  0
 43 44  1  0  0  0
 44112  1  0  0  0
 45 46  2  0  0  0
 45113  1  0  0  0
 46114  1  0  0  0
 47115  1  0  0  0
 47116  1  0  0  0
 48 56  1  0  0  0
 48 65  1  0  0  0
 48117  1  0  0  0
 49 50  1  0  0  0
 49 53  1  0  0  0
 49 64  1  0  0  0
 49118  1  0  0  0
 50 51  1  0  0  0
 50119  1  0  0  0
 50120  1  0  0  0
 51 52  1  0  0  0
 51121  1  0  0  0
 51122  1  0  0  0
 52123  1  0  0  0
 52124  1  0  0  0
 53 54  1  0  0  0
 54 55  2  0  0  0
 54125  1  0  0  0
 55 57  1  0  0  0
 55126  1  0  0  0
 56 69  2  0  0  0
 57 58  2  0  0  0
 57127  1  0  0  0
 58128  1  0  0  0
 59 60  1  0  0  0
 59 61  1  0  0  0
 59 62  1  0  0  0
 60129  1  0  0  0
 60130  1  0  0  0
 60131  1  0  0  0
 61132  1  0  0  0
 61133  1  0  0  0
 61134  1  0  0  0
 62135  1  0  0  0
 62136  1  0  0  0
 62137  1  0  0  0
 63 65  1  0  0  0
 63138  1  0  0  0
 63139  1  0  0  0
 63140  1  0  0  0
 64141  1  0  0  0
 65142  1  0  0  0
 68 78  1  0  0  0
 71 73  2  0  0  0
 71 80  1  0  0  0
 71143  1  0  0  0
 72 74  1  0  0  0
 72 79  2  0  0  0
 72144  1  0  0  0
 73 76  1  0  0  0
 73 79  1  0  0  0
 74 80  2  0  0  0
 74 81  1  0  0  0
 75 77  1  0  0  0
 75 82  1  0  0  0
 75 83  2  0  0  0
 76 82  1  0  0  0
 76145  1  0  0  0
 76146  1  0  0  0
 77 78  1  0  0  0
 77147  1  0  0  0
 77148  1  0  0  0
 78149  1  0  0  0
 78150  1  0  0  0
 81151  1  0  0  0
 82152  1  0  0  0
M  ISO  4   1 100  68 101  78 101  81 100
M  END
> <chiral flag>
0

> <version>
0

> <s_m_source_file>
/data/baiqing/PycharmProjects/Reinvent-master-3.2/result/LINK_invent/BTK/process_docking_weight1_custom_product_contain_oxygen_bond_distance_aromatic_linkinvent_7_9_3/rearranged_h_0199.sdf

> <i_m_source_file_index>
2

> <r_mmod_Potential_Energy-OPLS-2005>
-117.545234680176

> <r_mmod_Stretch_Energy-OPLS-2005>
43.6467247009277

> <r_mmod_Bend_Energy-OPLS-2005>
104.051300048828

> <r_mmod_Torsional_Energy-OPLS-2005>
211.276290893555

> <r_mmod_Improper_Torsional_Energy-OPLS-2005>
5.02699375152588

> <r_mmod_Van_der_Waal_Energy-OPLS-2005>
161.33088684082

> <r_mmod_Electrostatic_Energy-OPLS-2005>
-386.118225097656

> <r_mmod_Solvation_Energy-OPLS-2005>
-271.953552246094

> <b_mmod_Minimization_Converged-OPLS-2005>
0

> <r_mmod_RMS_Derivative-OPLS-2005>
1.05072522163391

$$$$
2
                    3D
 Structure written by MMmdl.
155163  0  0  1  0            999 V2000
  -30.6296  -14.7304   20.4959 C   0  0  0  0  0  0
  -30.4366  -12.4599   19.4536 C   0  0  0  0  0  0
  -29.5060  -12.4931   18.2203 C   0  0  0  0  0  0
  -28.0347  -12.3103   18.6396 C   0  0  0  0  0  0
  -27.6395  -13.2165   19.8379 C   0  0  2  0  0  0
  -28.6848  -13.1494   20.9736 C   0  0  0  0  0  0
  -25.2521  -13.8153   20.5634 C   0  0  0  0  0  0
  -24.1810  -13.0430   20.9211 C   0  0  0  0  0  0
  -24.6381  -11.6902   20.8746 C   0  0  0  0  0  0
  -23.9053  -10.4287   21.0429 C   0  0  0  0  0  0
  -24.3620   -9.4203   21.9202 C   0  0  0  0  0  0
  -23.6294   -8.2236   22.0758 C   0  0  0  0  0  0
  -22.4277   -8.0280   21.3553 C   0  0  0  0  0  0
  -21.9919   -9.0250   20.4647 C   0  0  0  0  0  0
  -22.7238  -10.2135   20.3056 C   0  0  0  0  0  0
  -21.6859   -6.0738   22.5280 C   0  0  0  0  0  0
  -21.4012   -6.5642   23.8215 C   0  0  0  0  0  0
  -21.3650   -5.6791   24.9180 C   0  0  0  0  0  0
  -21.6039   -4.3056   24.7235 C   0  0  0  0  0  0
  -21.8819   -3.8151   23.4363 C   0  0  0  0  0  0
  -21.9198   -4.6962   22.3415 C   0  0  0  0  0  0
  -22.7844  -13.5246   21.1877 C   0  0  0  0  0  0
  -22.1665   -4.2143   21.0993 F   0  0  0  0  0  0
  -21.5631   -3.4541   25.7757 F   0  0  0  0  0  0
  -29.9879  -13.5128   20.3954 N   0  0  0  0  0  0
  -26.2910  -12.9314   20.3178 N   0  0  0  0  0  0
  -25.9292  -11.6492   20.5714 N   0  0  0  0  0  0
  -22.0462  -12.8222   22.0413 N   0  0  0  0  0  0
  -25.4258  -15.1860   20.3987 N   0  0  0  0  0  0
  -31.8269  -14.8123   20.1828 O   0  0  0  0  0  0
  -21.6635   -6.8889   21.4253 O   0  0  0  0  0  0
  -22.3546  -14.5574   20.6753 O   0  0  0  0  0  0
  -24.6297  -31.8572   23.1964 C   0  0  0  0  0  0
  -25.9128  -32.4764   23.8295 C   0  0  1  0  0  0
  -27.2082  -27.2640   20.1279 C   0  0  0  0  0  0
  -25.5913  -33.8547   24.2188 N   0  0  0  0  0  0
  -23.4246  -30.4849   21.5400 C   0  0  2  0  0  0
  -24.8694  -28.9337   20.1087 C   0  0  0  0  0  0
  -22.7463  -29.4649   22.4848 C   0  0  0  0  0  0
  -18.0293  -28.1433   22.8423 C   0  0  0  0  0  0
  -24.1506  -36.7298   23.2644 C   0  0  0  0  0  0
  -25.9713  -30.7743   21.3738 C   0  0  0  0  0  0
  -26.0440  -29.3966   20.7167 C   0  0  0  0  0  0
  -27.2188  -28.5763   20.7128 C   0  0  0  0  0  0
  -26.0133  -26.8804   19.4780 C   0  0  0  0  0  0
  -24.8569  -27.6819   19.4796 C   0  0  0  0  0  0
  -23.6409  -29.8230   20.1555 C   0  0  0  0  0  0
  -25.4134  -36.3056   24.0318 C   0  0  1  0  0  0
  -20.5893  -28.3756   23.1225 C   0  0  2  0  0  0
  -20.6817  -26.9463   22.5393 C   0  0  0  0  0  0
  -19.5798  -26.6399   21.5202 C   0  0  0  0  0  0
  -18.1962  -26.7963   22.1590 C   0  0  0  0  0  0
  -19.1548  -28.8894   23.2814 C   0  0  0  0  0  0
  -18.9479  -30.1485   23.8833 C   0  0  0  0  0  0
  -17.6480  -30.6599   24.0564 C   0  0  0  0  0  0
  -25.9083  -34.9444   23.5071 C   0  0  0  0  0  0
  -16.5363  -29.9105   23.6334 C   0  0  0  0  0  0
  -16.7283  -28.6549   23.0305 C   0  0  0  0  0  0
  -26.4486  -31.6609   25.0691 C   0  0  0  0  0  0
  -25.3654  -31.3824   26.1382 C   0  0  0  0  0  0
  -27.0380  -30.3016   24.6243 C   0  0  0  0  0  0
  -27.5995  -32.4391   25.7484 C   0  0  0  0  0  0
  -27.5578  -37.1802   24.8461 C   0  0  0  0  0  0
  -21.4183  -29.3096   22.3580 N   0  0  0  0  0  0
  -26.4289  -37.3769   23.9406 N   0  0  0  0  0  0
  -24.6946  -31.0564   22.0933 N   0  0  0  0  0  0
  -23.4162  -28.8181   23.2939 O   0  0  0  0  0  0
  -28.2936  -26.3542   20.1645 O   0  0  0  0  0  0
  -26.5668  -34.8946   22.4650 O   0  0  0  0  0  0
  -23.5447  -32.1408   23.7274 O   0  0  0  0  0  0
  -30.8276  -20.0188   21.4939 C   0  0  0  0  0  0
  -29.4259  -18.4061   20.3585 C   0  0  0  0  0  0
  -31.5664  -18.9329   22.0085 C   0  0  0  0  0  0
  -29.7329  -19.8004   20.6372 C   0  0  0  0  0  0
  -30.1941  -17.2923   20.8970 C   0  0  0  0  0  0
  -28.3772  -22.0672   22.2122 C   0  0  0  0  0  0
  -28.9843  -23.6619   20.2125 C   0  0  0  0  0  0
  -27.9896  -24.9117   20.4857 C   0  0  0  0  0  0
  -28.4899  -22.1868   20.6820 C   0  0  1  0  0  0
  -31.2365  -17.6527   21.6990 N   0  3  0  0  0  0
  -29.0609  -20.9361   20.0327 N   0  0  0  0  0  0
  -29.8506  -15.8615   20.7062 N   0  0  0  0  0  0
  -31.4719  -12.5993   19.1384 H   0  0  0  0  0  0
  -30.4020  -11.4807   19.9336 H   0  0  0  0  0  0
  -29.7880  -11.7054   17.5196 H   0  0  0  0  0  0
  -29.6228  -13.4345   17.6807 H   0  0  0  0  0  0
  -27.9034  -11.2612   18.9124 H   0  0  0  0  0  0
  -27.3724  -12.4869   17.7905 H   0  0  0  0  0  0
  -27.6300  -14.2320   19.4436 H   0  0  0  0  0  0
  -28.7223  -12.1440   21.3978 H   0  0  0  0  0  0
  -28.4046  -13.8123   21.7923 H   0  0  0  0  0  0
  -25.2780   -9.5674   22.4762 H   0  0  0  0  0  0
  -24.0011   -7.4628   22.7465 H   0  0  0  0  0  0
  -21.0858   -8.8774   19.8941 H   0  0  0  0  0  0
  -22.3720  -10.9679   19.6143 H   0  0  0  0  0  0
  -21.1984   -7.6142   23.9725 H   0  0  0  0  0  0
  -21.1470   -6.0519   25.9083 H   0  0  0  0  0  0
  -22.0605   -2.7609   23.2868 H   0  0  0  0  0  0
  -22.4063  -11.9866   22.4769 H   0  0  0  0  0  0
  -21.1076  -13.1258   22.2594 H   0  0  0  0  0  0
  -24.6475  -15.8334   20.4751 H   0  0  0  0  0  0
  -26.2341  -15.6093   19.9610 H   0  0  0  0  0  0
  -26.7181  -32.5429   23.1036 H   0  0  0  0  0  0
  -24.9963  -33.9665   25.0268 H   0  0  0  0  0  0
  -22.7202  -31.3075   21.3929 H   0  0  0  0  0  0
  -23.3758  -35.9641   23.3301 H   0  0  0  0  0  0
  -24.3576  -36.8935   22.2055 H   0  0  0  0  0  0
  -23.7292  -37.6508   23.6695 H   0  0  0  0  0  0
  -26.1035  -31.5335   20.6021 H   0  0  0  0  0  0
  -26.8503  -30.8306   22.0044 H   0  0  0  0  0  0
  -28.1150  -28.9287   21.2005 H   0  0  0  0  0  0
  -25.9442  -25.9423   18.9500 H   0  0  0  0  0  0
  -23.9608  -27.3259   18.9898 H   0  0  0  0  0  0
  -23.7679  -30.6036   19.4034 H   0  0  0  0  0  0
  -22.7581  -29.2605   19.8454 H   0  0  0  0  0  0
  -25.1316  -36.1882   25.0805 H   0  0  0  0  0  0
  -20.9994  -28.3402   24.1353 H   0  0  0  0  0  0
  -20.5820  -26.2348   23.3611 H   0  0  0  0  0  0
  -21.6681  -26.7567   22.1136 H   0  0  0  0  0  0
  -19.7007  -25.6299   21.1289 H   0  0  0  0  0  0
  -19.6793  -27.3151   20.6675 H   0  0  0  0  0  0
  -17.4261  -26.6664   21.3972 H   0  0  0  0  0  0
  -18.0353  -26.0133   22.9015 H   0  0  0  0  0  0
  -19.7967  -30.7290   24.2206 H   0  0  0  0  0  0
  -17.5064  -31.6297   24.5157 H   0  0  0  0  0  0
  -15.5379  -30.3012   23.7718 H   0  0  0  0  0  0
  -15.8672  -28.0908   22.6999 H   0  0  0  0  0  0
  -24.5861  -30.7128   25.7713 H   0  0  0  0  0  0
  -24.8802  -32.3033   26.4635 H   0  0  0  0  0  0
  -25.7918  -30.9136   27.0261 H   0  0  0  0  0  0
  -26.3009  -29.6709   24.1255 H   0  0  0  0  0  0
  -27.4015  -29.7323   25.4808 H   0  0  0  0  0  0
  -27.8892  -30.4252   23.9529 H   0  0  0  0  0  0
  -27.2574  -33.3767   26.1898 H   0  0  0  0  0  0
  -28.3912  -32.6831   25.0374 H   0  0  0  0  0  0
  -28.0549  -31.8619   26.5547 H   0  0  0  0  0  0
  -28.2574  -38.0115   24.7483 H   0  0  0  0  0  0
  -28.1100  -36.2632   24.6317 H   0  0  0  0  0  0
  -27.2278  -37.1454   25.8860 H   0  0  0  0  0  0
  -20.9358  -29.8803   21.6776 H   0  0  0  0  0  0
  -26.0172  -38.2844   24.1419 H   0  0  0  0  0  0
  -31.1353  -21.0260   21.7373 H   0  0  0  0  0  0
  -28.5884  -18.1789   19.7143 H   0  0  0  0  0  0
  -32.4226  -19.0638   22.6612 H   0  0  0  0  0  0
  -27.7786  -22.8772   22.6345 H   0  0  0  0  0  0
  -29.3492  -22.0969   22.7022 H   0  0  0  0  0  0
  -27.8845  -21.1360   22.4935 H   0  0  0  0  0  0
  -29.9463  -23.8768   20.6799 H   0  0  0  0  0  0
  -29.1879  -23.6268   19.1397 H   0  0  0  0  0  0
  -27.7359  -24.9036   21.5459 H   0  0  0  0  0  0
  -27.0729  -24.6017   19.9963 H   0  0  0  0  0  0
  -27.4550  -22.1489   20.3339 H   0  0  0  0  0  0
  -31.8138  -16.9159   22.1184 H   0  0  0  0  0  0
  -28.5379  -20.6699   19.2021 H   0  0  0  0  0  0
  -28.8679  -15.6638   20.7529 H   0  0  0  0  0  0
  1 25  1  0  0  0
  1 30  2  0  0  0
  1 82  1  0  0  0
  2  3  1  0  0  0
  2 25  1  0  0  0
  2 83  1  0  0  0
  2 84  1  0  0  0
  3  4  1  0  0  0
  3 85  1  0  0  0
  3 86  1  0  0  0
  4  5  1  0  0  0
  4 87  1  0  0  0
  4 88  1  0  0  0
  5  6  1  0  0  0
  5 26  1  0  0  0
  5 89  1  0  0  0
  6 25  1  0  0  0
  6 90  1  0  0  0
  6 91  1  0  0  0
  7  8  2  0  0  0
  7 26  1  0  0  0
  7 29  1  0  0  0
  8  9  1  0  0  0
  8 22  1  0  0  0
  9 10  1  0  0  0
  9 27  2  0  0  0
 10 11  2  0  0  0
 10 15  1  0  0  0
 11 12  1  0  0  0
 11 92  1  0  0  0
 12 13  2  0  0  0
 12 93  1  0  0  0
 13 14  1  0  0  0
 13 31  1  0  0  0
 14 15  2  0  0  0
 14 94  1  0  0  0
 15 95  1  0  0  0
 16 17  2  0  0  0
 16 21  1  0  0  0
 16 31  1  0  0  0
 17 18  1  0  0  0
 17 96  1  0  0  0
 18 19  2  0  0  0
 18 97  1  0  0  0
 19 20  1  0  0  0
 19 24  1  0  0  0
 20 21  2  0  0  0
 20 98  1  0  0  0
 21 23  1  0  0  0
 22 28  1  0  0  0
 22 32  2  0  0  0
 26 27  1  0  0  0
 28 99  1  0  0  0
 28100  1  0  0  0
 29101  1  0  0  0
 29102  1  0  0  0
 33 34  1  0  0  0
 33 66  1  0  0  0
 33 70  2  0  0  0
 34 36  1  0  0  0
 34 59  1  0  0  0
 34103  1  0  0  0
 35 44  2  0  0  0
 35 45  1  0  0  0
 35 68  1  0  0  0
 36 56  1  0  0  0
 36104  1  0  0  0
 37 39  1  0  0  0
 37 47  1  0  0  0
 37 66  1  0  0  0
 37105  1  0  0  0
 38 43  2  0  0  0
 38 46  1  0  0  0
 38 47  1  0  0  0
 39 64  1  0  0  0
 39 67  2  0  0  0
 40 52  1  0  0  0
 40 53  2  0  0  0
 40 58  1  0  0  0
 41106  1  0  0  0
 41107  1  0  0  0
 41108  1  0  0  0
 41 48  1  0  0  0
 42 43  1  0  0  0
 42 66  1  0  0  0
 42109  1  0  0  0
 42110  1  0  0  0
 43 44  1  0  0  0
 44111  1  0  0  0
 45 46  2  0  0  0
 45112  1  0  0  0
 46113  1  0  0  0
 47114  1  0  0  0
 47115  1  0  0  0
 48 56  1  0  0  0
 48 65  1  0  0  0
 48116  1  0  0  0
 49 50  1  0  0  0
 49 53  1  0  0  0
 49 64  1  0  0  0
 49117  1  0  0  0
 50 51  1  0  0  0
 50118  1  0  0  0
 50119  1  0  0  0
 51 52  1  0  0  0
 51120  1  0  0  0
 51121  1  0  0  0
 52122  1  0  0  0
 52123  1  0  0  0
 53 54  1  0  0  0
 54 55  2  0  0  0
 54124  1  0  0  0
 55 57  1  0  0  0
 55125  1  0  0  0
 56 69  2  0  0  0
 57 58  2  0  0  0
 57126  1  0  0  0
 58127  1  0  0  0
 59 60  1  0  0  0
 59 61  1  0  0  0
 59 62  1  0  0  0
 60128  1  0  0  0
 60129  1  0  0  0
 60130  1  0  0  0
 61131  1  0  0  0
 61132  1  0  0  0
 61133  1  0  0  0
 62134  1  0  0  0
 62135  1  0  0  0
 62136  1  0  0  0
 63 65  1  0  0  0
 63137  1  0  0  0
 63138  1  0  0  0
 63139  1  0  0  0
 64140  1  0  0  0
 65141  1  0  0  0
 68 78  1  0  0  0
 71 73  2  0  0  0
 71 74  1  0  0  0
 71142  1  0  0  0
 72 74  2  0  0  0
 72 75  1  0  0  0
 72143  1  0  0  0
 73 80  1  0  0  0
 73144  1  0  0  0
 74 81  1  0  0  0
 75 80  2  0  0  0
 75 82  1  0  0  0
 76145  1  0  0  0
 76146  1  0  0  0
 76147  1  0  0  0
 76 79  1  0  0  0
 77 78  1  0  0  0
 77 79  1  0  0  0
 77148  1  0  0  0
 77149  1  0  0  0
 78150  1  0  0  0
 78151  1  0  0  0
 79 81  1  0  0  0
 79152  1  0  0  0
 80153  1  0  0  0
 81154  1  0  0  0
 82155  1  0  0  0
M  CHG  1  80   1
M  ISO  4   1 100  68 101  78 101  82 100
M  END
> <chiral flag>
0

> <version>
0

> <s_m_source_file>
/data/baiqing/PycharmProjects/Reinvent-master-3.2/result/LINK_invent/BTK/process_docking_weight1_custom_product_contain_oxygen_bond_distance_aromatic_linkinvent_7_9_3/rearranged_h_0199.sdf

> <i_m_source_file_index>
3

> <r_mmod_Potential_Energy-OPLS-2005>
195.262283325195

> <r_mmod_Stretch_Energy-OPLS-2005>
121.466354370117

> <r_mmod_Bend_Energy-OPLS-2005>
179.751602172852

> <r_mmod_Torsional_Energy-OPLS-2005>
240.348846435547

> <r_mmod_Improper_Torsional_Energy-OPLS-2005>
8.74157428741455

> <r_mmod_Van_der_Waal_Energy-OPLS-2005>
140.51774597168

> <r_mmod_Electrostatic_Energy-OPLS-2005>
-131.904891967773

> <r_mmod_Solvation_Energy-OPLS-2005>
-445.880981445312

> <b_mmod_Minimization_Converged-OPLS-2005>
0

> <r_mmod_RMS_Derivative-OPLS-2005>
3.94511103630066

$$$$
3
                    3D
 Structure written by MMmdl.
153161  0  0  1  0            999 V2000
  -30.5997  -14.7603   20.4567 C   0  0  0  0  0  0
  -30.4366  -12.4568   19.4951 C   0  0  0  0  0  0
  -29.5228  -12.5170   18.2500 C   0  0  0  0  0  0
  -28.0462  -12.3398   18.6517 C   0  0  0  0  0  0
  -27.6445  -13.2339   19.8553 C   0  0  2  0  0  0
  -28.6841  -13.1654   20.9973 C   0  0  0  0  0  0
  -25.2508  -13.8202   20.5676 C   0  0  0  0  0  0
  -24.1812  -13.0431   20.9211 C   0  0  0  0  0  0
  -24.6418  -11.6924   20.8747 C   0  0  0  0  0  0
  -23.9090  -10.4304   21.0378 C   0  0  0  0  0  0
  -24.3622   -9.4209   21.9155 C   0  0  0  0  0  0
  -23.6290   -8.2245   22.0749 C   0  0  0  0  0  0
  -22.4276   -8.0280   21.3537 C   0  0  0  0  0  0
  -21.9923   -9.0268   20.4648 C   0  0  0  0  0  0
  -22.7255  -10.2145   20.3030 C   0  0  0  0  0  0
  -21.6861   -6.0734   22.5282 C   0  0  0  0  0  0
  -21.4029   -6.5638   23.8218 C   0  0  0  0  0  0
  -21.3662   -5.6780   24.9173 C   0  0  0  0  0  0
  -21.6024   -4.3039   24.7230 C   0  0  0  0  0  0
  -21.8809   -3.8147   23.4349 C   0  0  0  0  0  0
  -21.9208   -4.6965   22.3408 C   0  0  0  0  0  0
  -22.7836  -13.5212   21.1873 C   0  0  0  0  0  0
  -22.1649   -4.2154   21.0979 F   0  0  0  0  0  0
  -21.5648   -3.4520   25.7742 F   0  0  0  0  0  0
  -29.9925  -13.5215   20.4289 N   0  0  0  0  0  0
  -26.2944  -12.9409   20.3260 N   0  0  0  0  0  0
  -25.9344  -11.6553   20.5742 N   0  0  0  0  0  0
  -22.0443  -12.8241   22.0428 N   0  0  0  0  0  0
  -25.4189  -15.1930   20.4130 N   0  0  0  0  0  0
  -31.7702  -14.8748   20.0823 O   0  0  0  0  0  0
  -21.6629   -6.8879   21.4238 O   0  0  0  0  0  0
  -22.3535  -14.5503   20.6696 O   0  0  0  0  0  0
  -24.6329  -31.8522   23.1968 C   0  0  0  0  0  0
  -25.9154  -32.4716   23.8308 C   0  0  1  0  0  0
  -27.2126  -27.2375   20.1194 C   0  0  0  0  0  0
  -25.5936  -33.8534   24.2226 N   0  0  0  0  0  0
  -23.4310  -30.4751   21.5389 C   0  0  2  0  0  0
  -24.8762  -28.9250   20.1042 C   0  0  0  0  0  0
  -22.7513  -29.4591   22.4904 C   0  0  0  0  0  0
  -18.0301  -28.1386   22.8476 C   0  0  0  0  0  0
  -24.1501  -36.7294   23.2639 C   0  0  0  0  0  0
  -25.9803  -30.7530   21.3857 C   0  0  0  0  0  0
  -26.0475  -29.3762   20.7239 C   0  0  0  0  0  0
  -27.2132  -28.5427   20.7265 C   0  0  0  0  0  0
  -26.0215  -26.8750   19.4481 C   0  0  0  0  0  0
  -24.8697  -27.6835   19.4550 C   0  0  0  0  0  0
  -23.6503  -29.8160   20.1542 C   0  0  0  0  0  0
  -25.4123  -36.3060   24.0310 C   0  0  1  0  0  0
  -20.5904  -28.3705   23.1259 C   0  0  2  0  0  0
  -20.6780  -26.9419   22.5406 C   0  0  0  0  0  0
  -19.5754  -26.6383   21.5203 C   0  0  0  0  0  0
  -18.1935  -26.7930   22.1609 C   0  0  0  0  0  0
  -19.1557  -28.8857   23.2858 C   0  0  0  0  0  0
  -18.9467  -30.1461   23.8877 C   0  0  0  0  0  0
  -17.6462  -30.6582   24.0559 C   0  0  0  0  0  0
  -25.9065  -34.9428   23.5082 C   0  0  0  0  0  0
  -16.5357  -29.9085   23.6326 C   0  0  0  0  0  0
  -16.7284  -28.6504   23.0335 C   0  0  0  0  0  0
  -26.4498  -31.6574   25.0730 C   0  0  0  0  0  0
  -25.3713  -31.3772   26.1450 C   0  0  0  0  0  0
  -27.0329  -30.2959   24.6281 C   0  0  0  0  0  0
  -27.6058  -32.4335   25.7500 C   0  0  0  0  0  0
  -27.5564  -37.1805   24.8455 C   0  0  0  0  0  0
  -21.4203  -29.3040   22.3648 N   0  0  0  0  0  0
  -26.4291  -37.3749   23.9395 N   0  0  0  0  0  0
  -24.7003  -31.0474   22.0961 N   0  0  0  0  0  0
  -23.4206  -28.8107   23.2999 O   0  0  0  0  0  0
  -28.3127  -26.3433   20.2069 O   0  0  0  0  0  0
  -26.5629  -34.8909   22.4657 O   0  0  0  0  0  0
  -23.5470  -32.1370   23.7230 O   0  0  0  0  0  0
  -30.3100  -18.7985   22.1345 C   0  0  0  0  0  0
  -29.9071  -21.0954   22.1451 C   0  0  0  0  0  0
  -29.8043  -18.6709   20.8191 C   0  0  0  0  0  0
  -29.3454  -21.0616   20.8406 C   0  0  0  0  0  0
  -27.7582  -23.6802   22.0029 C   0  0  0  0  0  0
  -29.9507  -17.2816   20.0391 C   0  0  0  0  0  0
  -28.2503  -24.8821   19.8074 C   0  0  0  0  0  0
  -28.7217  -23.6763   20.7978 C   0  0  2  0  0  0
  -30.3611  -19.9882   22.7877 N   0  0  0  0  0  0
  -29.3122  -19.8238   20.1890 N   0  0  0  0  0  0
  -28.8337  -22.2667   20.2084 N   0  0  0  0  0  0
  -29.8175  -15.8879   20.6722 N   0  0  0  0  0  0
  -31.4793  -12.5810   19.2001 H   0  0  0  0  0  0
  -30.3762  -11.4772   19.9724 H   0  0  0  0  0  0
  -29.8124  -11.7532   17.5288 H   0  0  0  0  0  0
  -29.6573  -13.4749   17.7426 H   0  0  0  0  0  0
  -27.9045  -11.2926   18.9098 H   0  0  0  0  0  0
  -27.3975  -12.5314   17.7955 H   0  0  0  0  0  0
  -27.6381  -14.2558   19.4756 H   0  0  0  0  0  0
  -28.7159  -12.1634   21.4278 H   0  0  0  0  0  0
  -28.4140  -13.8415   21.8097 H   0  0  0  0  0  0
  -25.2751   -9.5703   22.4739 H   0  0  0  0  0  0
  -24.0008   -7.4647   22.7473 H   0  0  0  0  0  0
  -21.0861   -8.8787   19.8964 H   0  0  0  0  0  0
  -22.3694  -10.9680   19.6152 H   0  0  0  0  0  0
  -21.1989   -7.6147   23.9733 H   0  0  0  0  0  0
  -21.1493   -6.0502   25.9079 H   0  0  0  0  0  0
  -22.0588   -2.7614   23.2843 H   0  0  0  0  0  0
  -22.4047  -11.9914   22.4863 H   0  0  0  0  0  0
  -21.1040  -13.1294   22.2556 H   0  0  0  0  0  0
  -24.6499  -15.8429   20.5362 H   0  0  0  0  0  0
  -26.2633  -15.6417   20.0844 H   0  0  0  0  0  0
  -26.7241  -32.5348   23.1058 H   0  0  0  0  0  0
  -25.0068  -33.9697   25.0348 H   0  0  0  0  0  0
  -22.7286  -31.2986   21.3941 H   0  0  0  0  0  0
  -23.3738  -35.9647   23.3301 H   0  0  0  0  0  0
  -24.3595  -36.8911   22.2053 H   0  0  0  0  0  0
  -23.7282  -37.6505   23.6671 H   0  0  0  0  0  0
  -26.1342  -31.5159   20.6217 H   0  0  0  0  0  0
  -26.8525  -30.7907   22.0252 H   0  0  0  0  0  0
  -28.1055  -28.8804   21.2354 H   0  0  0  0  0  0
  -25.9242  -25.9557   18.8955 H   0  0  0  0  0  0
  -23.9790  -27.3417   18.9447 H   0  0  0  0  0  0
  -23.7791  -30.5939   19.4019 H   0  0  0  0  0  0
  -22.7681  -29.2522   19.8426 H   0  0  0  0  0  0
  -25.1316  -36.1878   25.0788 H   0  0  0  0  0  0
  -20.9988  -28.3273   24.1374 H   0  0  0  0  0  0
  -20.5660  -26.2308   23.3611 H   0  0  0  0  0  0
  -21.6647  -26.7423   22.1190 H   0  0  0  0  0  0
  -19.6905  -25.6280   21.1248 H   0  0  0  0  0  0
  -19.6686  -27.3180   20.6721 H   0  0  0  0  0  0
  -17.4200  -26.6668   21.4023 H   0  0  0  0  0  0
  -18.0339  -26.0092   22.9025 H   0  0  0  0  0  0
  -19.7947  -30.7285   24.2227 H   0  0  0  0  0  0
  -17.5021  -31.6248   24.5174 H   0  0  0  0  0  0
  -15.5357  -30.2962   23.7675 H   0  0  0  0  0  0
  -15.8684  -28.0824   22.7038 H   0  0  0  0  0  0
  -24.5874  -30.7118   25.7812 H   0  0  0  0  0  0
  -24.8922  -32.2962   26.4839 H   0  0  0  0  0  0
  -25.8019  -30.8984   27.0254 H   0  0  0  0  0  0
  -26.2903  -29.6702   24.1299 H   0  0  0  0  0  0
  -27.3947  -29.7247   25.4845 H   0  0  0  0  0  0
  -27.8832  -30.4188   23.9573 H   0  0  0  0  0  0
  -27.2680  -33.3699   26.1962 H   0  0  0  0  0  0
  -28.3922  -32.6770   25.0346 H   0  0  0  0  0  0
  -28.0641  -31.8508   26.5495 H   0  0  0  0  0  0
  -28.2585  -38.0099   24.7485 H   0  0  0  0  0  0
  -28.1064  -36.2627   24.6312 H   0  0  0  0  0  0
  -27.2292  -37.1486   25.8862 H   0  0  0  0  0  0
  -20.9390  -29.8816   21.6891 H   0  0  0  0  0  0
  -26.0153  -38.2815   24.1376 H   0  0  0  0  0  0
  -30.7187  -17.9435   22.6557 H   0  0  0  0  0  0
  -30.0071  -22.0150   22.7022 H   0  0  0  0  0  0
  -26.7580  -23.3427   21.7209 H   0  0  0  0  0  0
  -27.6471  -24.6849   22.4113 H   0  0  0  0  0  0
  -28.0929  -23.0569   22.8294 H   0  0  0  0  0  0
  -29.2102  -17.3080   19.2399 H   0  0  0  0  0  0
  -30.9138  -17.3301   19.5277 H   0  0  0  0  0  0
  -27.2507  -24.5886   19.4922 H   0  0  0  0  0  0
  -28.8458  -24.8100   18.8941 H   0  0  0  0  0  0
  -29.7188  -23.9401   21.1578 H   0  0  0  0  0  0
  -28.4790  -22.1493   19.2653 H   0  0  0  0  0  0
  -28.9001  -15.6924   21.0435 H   0  0  0  0  0  0
  1 25  1  0  0  0
  1 30  2  0  0  0
  1 82  1  0  0  0
  2  3  1  0  0  0
  2 25  1  0  0  0
  2 83  1  0  0  0
  2 84  1  0  0  0
  3  4  1  0  0  0
  3 85  1  0  0  0
  3 86  1  0  0  0
  4  5  1  0  0  0
  4 87  1  0  0  0
  4 88  1  0  0  0
  5  6  1  0  0  0
  5 26  1  0  0  0
  5 89  1  0  0  0
  6 25  1  0  0  0
  6 90  1  0  0  0
  6 91  1  0  0  0
  7  8  2  0  0  0
  7 26  1  0  0  0
  7 29  1  0  0  0
  8  9  1  0  0  0
  8 22  1  0  0  0
  9 10  1  0  0  0
  9 27  2  0  0  0
 10 11  2  0  0  0
 10 15  1  0  0  0
 11 12  1  0  0  0
 11 92  1  0  0  0
 12 13  2  0  0  0
 12 93  1  0  0  0
 13 14  1  0  0  0
 13 31  1  0  0  0
 14 15  2  0  0  0
 14 94  1  0  0  0
 15 95  1  0  0  0
 16 17  2  0  0  0
 16 21  1  0  0  0
 16 31  1  0  0  0
 17 18  1  0  0  0
 17 96  1  0  0  0
 18 19  2  0  0  0
 18 97  1  0  0  0
 19 20  1  0  0  0
 19 24  1  0  0  0
 20 21  2  0  0  0
 20 98  1  0  0  0
 21 23  1  0  0  0
 22 28  1  0  0  0
 22 32  2  0  0  0
 26 27  1  0  0  0
 28 99  1  0  0  0
 28100  1  0  0  0
 29101  1  0  0  0
 29102  1  0  0  0
 33 34  1  0  0  0
 33 66  1  0  0  0
 33 70  2  0  0  0
 34 36  1  0  0  0
 34 59  1  0  0  0
 34103  1  0  0  0
 35 44  2  0  0  0
 35 45  1  0  0  0
 35 68  1  0  0  0
 36 56  1  0  0  0
 36104  1  0  0  0
 37 39  1  0  0  0
 37 47  1  0  0  0
 37 66  1  0  0  0
 37105  1  0  0  0
 38 43  2  0  0  0
 38 46  1  0  0  0
 38 47  1  0  0  0
 39 64  1  0  0  0
 39 67  2  0  0  0
 40 52  1  0  0  0
 40 53  2  0  0  0
 40 58  1  0  0  0
 41106  1  0  0  0
 41107  1  0  0  0
 41108  1  0  0  0
 41 48  1  0  0  0
 42 43  1  0  0  0
 42 66  1  0  0  0
 42109  1  0  0  0
 42110  1  0  0  0
 43 44  1  0  0  0
 44111  1  0  0  0
 45 46  2  0  0  0
 45112  1  0  0  0
 46113  1  0  0  0
 47114  1  0  0  0
 47115  1  0  0  0
 48 56  1  0  0  0
 48 65  1  0  0  0
 48116  1  0  0  0
 49 50  1  0  0  0
 49 53  1  0  0  0
 49 64  1  0  0  0
 49117  1  0  0  0
 50 51  1  0  0  0
 50118  1  0  0  0
 50119  1  0  0  0
 51 52  1  0  0  0
 51120  1  0  0  0
 51121  1  0  0  0
 52122  1  0  0  0
 52123  1  0  0  0
 53 54  1  0  0  0
 54 55  2  0  0  0
 54124  1  0  0  0
 55 57  1  0  0  0
 55125  1  0  0  0
 56 69  2  0  0  0
 57 58  2  0  0  0
 57126  1  0  0  0
 58127  1  0  0  0
 59 60  1  0  0  0
 59 61  1  0  0  0
 59 62  1  0  0  0
 60128  1  0  0  0
 60129  1  0  0  0
 60130  1  0  0  0
 61131  1  0  0  0
 61132  1  0  0  0
 61133  1  0  0  0
 62134  1  0  0  0
 62135  1  0  0  0
 62136  1  0  0  0
 63 65  1  0  0  0
 63137  1  0  0  0
 63138  1  0  0  0
 63139  1  0  0  0
 64140  1  0  0  0
 65141  1  0  0  0
 68 77  1  0  0  0
 71 73  2  0  0  0
 71 79  1  0  0  0
 71142  1  0  0  0
 72 74  1  0  0  0
 72 79  2  0  0  0
 72143  1  0  0  0
 73 76  1  0  0  0
 73 80  1  0  0  0
 74 80  2  0  0  0
 74 81  1  0  0  0
 75144  1  0  0  0
 75145  1  0  0  0
 75146  1  0  0  0
 75 78  1  0  0  0
 76 82  1  0  0  0
 76147  1  0  0  0
 76148  1  0  0  0
 77 78  1  0  0  0
 77149  1  0  0  0
 77150  1  0  0  0
 78 81  1  0  0  0
 78151  1  0  0  0
 81152  1  0  0  0
 82153  1  0  0  0
M  ISO  4   1 100  68 101  77 101  82 100
M  END
> <chiral flag>
0

> <version>
0

> <s_m_source_file>
/data/baiqing/PycharmProjects/Reinvent-master-3.2/result/LINK_invent/BTK/process_docking_weight1_custom_product_contain_oxygen_bond_distance_aromatic_linkinvent_7_9_3/rearranged_h_0199.sdf

> <i_m_source_file_index>
4

> <r_mmod_Potential_Energy-OPLS-2005>
152.710723876953

> <r_mmod_Stretch_Energy-OPLS-2005>
137.08561706543

> <r_mmod_Bend_Energy-OPLS-2005>
191.593780517578

> <r_mmod_Torsional_Energy-OPLS-2005>
197.953216552734

> <r_mmod_Improper_Torsional_Energy-OPLS-2005>
7.13474369049072

> <r_mmod_Van_der_Waal_Energy-OPLS-2005>
141.841415405273

> <r_mmod_Electrostatic_Energy-OPLS-2005>
-383.089904785156

> <r_mmod_Solvation_Energy-OPLS-2005>
-234.958068847656

> <b_mmod_Minimization_Converged-OPLS-2005>
0

> <r_mmod_RMS_Derivative-OPLS-2005>
3.50641751289368

$$$$
4
                    3D
 Structure written by MMmdl.
152160  0  0  1  0            999 V2000
  -30.6558  -14.5226   20.4936 C   0  0  0  0  0  0
  -30.4209  -12.3079   19.4325 C   0  0  0  0  0  0
  -29.5023  -12.5010   18.2066 C   0  0  0  0  0  0
  -28.0208  -12.3543   18.6160 C   0  0  0  0  0  0
  -27.6593  -13.2018   19.8646 C   0  0  2  0  0  0
  -28.7044  -13.0073   20.9878 C   0  0  0  0  0  0
  -25.2579  -13.8136   20.5647 C   0  0  0  0  0  0
  -24.1839  -13.0409   20.9157 C   0  0  0  0  0  0
  -24.6397  -11.6879   20.8721 C   0  0  0  0  0  0
  -23.9071  -10.4267   21.0400 C   0  0  0  0  0  0
  -24.3620   -9.4200   21.9188 C   0  0  0  0  0  0
  -23.6296   -8.2242   22.0766 C   0  0  0  0  0  0
  -22.4270   -8.0272   21.3549 C   0  0  0  0  0  0
  -21.9914   -9.0258   20.4657 C   0  0  0  0  0  0
  -22.7239  -10.2136   20.3061 C   0  0  0  0  0  0
  -21.6864   -6.0726   22.5275 C   0  0  0  0  0  0
  -21.4029   -6.5641   23.8207 C   0  0  0  0  0  0
  -21.3667   -5.6807   24.9172 C   0  0  0  0  0  0
  -21.6036   -4.3059   24.7230 C   0  0  0  0  0  0
  -21.8825   -3.8140   23.4354 C   0  0  0  0  0  0
  -21.9201   -4.6959   22.3405 C   0  0  0  0  0  0
  -22.7855  -13.5208   21.1831 C   0  0  0  0  0  0
  -22.1666   -4.2142   21.0982 F   0  0  0  0  0  0
  -21.5629   -3.4549   25.7735 F   0  0  0  0  0  0
  -30.0268  -13.3167   20.4268 N   0  0  0  0  0  0
  -26.3003  -12.9312   20.3336 N   0  0  0  0  0  0
  -25.9318  -11.6465   20.5728 N   0  0  0  0  0  0
  -22.0548  -12.8195   22.0380 N   0  0  0  0  0  0
  -25.4240  -15.1886   20.4104 N   0  0  0  0  0  0
  -31.8237  -14.6700   20.1236 O   0  0  0  0  0  0
  -21.6630   -6.8871   21.4235 O   0  0  0  0  0  0
  -22.3537  -14.5518   20.6679 O   0  0  0  0  0  0
  -24.6163  -31.8626   23.2045 C   0  0  0  0  0  0
  -25.9026  -32.4805   23.8371 C   0  0  1  0  0  0
  -27.2488  -27.4126   20.0803 C   0  0  0  0  0  0
  -25.5878  -33.8605   24.2305 N   0  0  0  0  0  0
  -23.4086  -30.4883   21.5409 C   0  0  2  0  0  0
  -24.8582  -28.9439   20.1184 C   0  0  0  0  0  0
  -22.7411  -29.4679   22.4920 C   0  0  0  0  0  0
  -18.0279  -28.1389   22.8475 C   0  0  0  0  0  0
  -24.1474  -36.7329   23.2637 C   0  0  0  0  0  0
  -25.9409  -30.8222   21.3608 C   0  0  0  0  0  0
  -26.0183  -29.4516   20.7138 C   0  0  0  0  0  0
  -27.2125  -28.6925   20.6898 C   0  0  0  0  0  0
  -26.0540  -26.9124   19.5085 C   0  0  0  0  0  0
  -24.8721  -27.6760   19.5165 C   0  0  0  0  0  0
  -23.6203  -29.8084   20.1609 C   0  0  0  0  0  0
  -25.4096  -36.3112   24.0325 C   0  0  1  0  0  0
  -20.5877  -28.3692   23.1259 C   0  0  2  0  0  0
  -20.6754  -26.9418   22.5375 C   0  0  0  0  0  0
  -19.5734  -26.6397   21.5174 C   0  0  0  0  0  0
  -18.1930  -26.7930   22.1614 C   0  0  0  0  0  0
  -19.1528  -28.8843   23.2893 C   0  0  0  0  0  0
  -18.9461  -30.1440   23.8926 C   0  0  0  0  0  0
  -17.6468  -30.6598   24.0552 C   0  0  0  0  0  0
  -25.9031  -34.9473   23.5132 C   0  0  0  0  0  0
  -16.5354  -29.9107   23.6309 C   0  0  0  0  0  0
  -16.7273  -28.6516   23.0344 C   0  0  0  0  0  0
  -26.4436  -31.6600   25.0714 C   0  0  0  0  0  0
  -25.3686  -31.3707   26.1453 C   0  0  0  0  0  0
  -27.0282  -30.3038   24.6141 C   0  0  0  0  0  0
  -27.6035  -32.4288   25.7487 C   0  0  0  0  0  0
  -27.5584  -37.1807   24.8456 C   0  0  0  0  0  0
  -21.4140  -29.3073   22.3652 N   0  0  0  0  0  0
  -26.4288  -37.3795   23.9409 N   0  0  0  0  0  0
  -24.6743  -31.0724   22.0944 N   0  0  0  0  0  0
  -23.4152  -28.8200   23.2966 O   0  0  0  0  0  0
  -28.4520  -26.7214   20.0710 O   0  0  0  0  0  0
  -26.5615  -34.8924   22.4701 O   0  0  0  0  0  0
  -23.5341  -32.1380   23.7419 O   0  0  0  0  0  0
  -31.0653  -19.2621   20.6060 C   0  0  0  0  0  0
  -29.7278  -19.2095   20.2999 C   0  0  0  0  0  0
  -30.1657  -16.9693   20.6534 C   0  0  0  0  0  0
  -28.6582  -24.2308   20.3206 C   0  0  0  0  0  0
  -29.1733  -21.6727   20.4687 C   0  0  0  0  0  0
  -28.6010  -25.4636   19.3738 C   0  0  0  0  0  0
  -28.5780  -22.8369   19.6221 C   0  0  1  0  0  0
  -29.2243  -17.8929   20.3631 N   0  0  0  0  0  0
  -28.9170  -20.3136   19.9424 N   0  0  0  0  0  0
  -29.8500  -15.5795   20.7615 N   0  0  0  0  0  0
  -27.2127  -22.5303   19.4231 O   0  0  0  0  0  0
  -31.7583  -17.6839   20.9016 S   0  0  0  0  0  0
  -31.4727  -12.3845   19.1496 H   0  0  0  0  0  0
  -30.2969  -11.3026   19.8438 H   0  0  0  0  0  0
  -29.7454  -11.7810   17.4257 H   0  0  0  0  0  0
  -29.6630  -13.4897   17.7735 H   0  0  0  0  0  0
  -27.8378  -11.2995   18.8245 H   0  0  0  0  0  0
  -27.3727  -12.6168   17.7813 H   0  0  0  0  0  0
  -27.6881  -14.2425   19.5434 H   0  0  0  0  0  0
  -28.6941  -11.9714   21.3366 H   0  0  0  0  0  0
  -28.4755  -13.6143   21.8641 H   0  0  0  0  0  0
  -25.2801   -9.5657   22.4744 H   0  0  0  0  0  0
  -24.0016   -7.4627   22.7488 H   0  0  0  0  0  0
  -21.0838   -8.8776   19.8966 H   0  0  0  0  0  0
  -22.3725  -10.9664   19.6150 H   0  0  0  0  0  0
  -21.2033   -7.6156   23.9704 H   0  0  0  0  0  0
  -21.1483   -6.0536   25.9077 H   0  0  0  0  0  0
  -22.0601   -2.7599   23.2851 H   0  0  0  0  0  0
  -22.4202  -11.9846   22.4725 H   0  0  0  0  0  0
  -21.1193  -13.1210   22.2656 H   0  0  0  0  0  0
  -24.6453  -15.8278   20.5182 H   0  0  0  0  0  0
  -26.2658  -15.6467   20.0807 H   0  0  0  0  0  0
  -26.7105  -32.5507   23.1151 H   0  0  0  0  0  0
  -24.9916  -33.9744   25.0375 H   0  0  0  0  0  0
  -22.7022  -31.3079   21.3885 H   0  0  0  0  0  0
  -23.3737  -35.9669   23.3287 H   0  0  0  0  0  0
  -24.3569  -36.8961   22.2059 H   0  0  0  0  0  0
  -23.7225  -37.6524   23.6661 H   0  0  0  0  0  0
  -26.0504  -31.5829   20.5855 H   0  0  0  0  0  0
  -26.8290  -30.8857   21.9782 H   0  0  0  0  0  0
  -28.1135  -29.0835   21.1409 H   0  0  0  0  0  0
  -25.9948  -25.9324   19.0582 H   0  0  0  0  0  0
  -23.9769  -27.2754   19.0622 H   0  0  0  0  0  0
  -23.7277  -30.5702   19.3892 H   0  0  0  0  0  0
  -22.7479  -29.2206   19.8696 H   0  0  0  0  0  0
  -25.1274  -36.1981   25.0818 H   0  0  0  0  0  0
  -21.0012  -28.3283   24.1361 H   0  0  0  0  0  0
  -20.5614  -26.2325   23.3585 H   0  0  0  0  0  0
  -21.6629  -26.7415   22.1202 H   0  0  0  0  0  0
  -19.6896  -25.6302   21.1222 H   0  0  0  0  0  0
  -19.6666  -27.3185   20.6678 H   0  0  0  0  0  0
  -17.4175  -26.6640   21.4056 H   0  0  0  0  0  0
  -18.0385  -26.0079   22.9023 H   0  0  0  0  0  0
  -19.7937  -30.7231   24.2348 H   0  0  0  0  0  0
  -17.5025  -31.6279   24.5141 H   0  0  0  0  0  0
  -15.5361  -30.3026   23.7598 H   0  0  0  0  0  0
  -15.8676  -28.0840   22.7062 H   0  0  0  0  0  0
  -24.5865  -30.7063   25.7754 H   0  0  0  0  0  0
  -24.8864  -32.2862   26.4893 H   0  0  0  0  0  0
  -25.8003  -30.8859   27.0221 H   0  0  0  0  0  0
  -26.2854  -29.6807   24.1151 H   0  0  0  0  0  0
  -27.3978  -29.7274   25.4634 H   0  0  0  0  0  0
  -27.8713  -30.4347   23.9357 H   0  0  0  0  0  0
  -27.2693  -33.3568   26.2141 H   0  0  0  0  0  0
  -28.3824  -32.6868   25.0298 H   0  0  0  0  0  0
  -28.0737  -31.8350   26.5343 H   0  0  0  0  0  0
  -28.2584  -38.0119   24.7524 H   0  0  0  0  0  0
  -28.1094  -36.2653   24.6252 H   0  0  0  0  0  0
  -27.2308  -37.1422   25.8857 H   0  0  0  0  0  0
  -20.9300  -29.8807   21.6884 H   0  0  0  0  0  0
  -26.0186  -38.2876   24.1411 H   0  0  0  0  0  0
  -31.6997  -20.1368   20.6449 H   0  0  0  0  0  0
  -27.8693  -24.3035   21.0695 H   0  0  0  0  0  0
  -29.5971  -24.3012   20.8697 H   0  0  0  0  0  0
  -28.7651  -21.7256   21.4772 H   0  0  0  0  0  0
  -30.2489  -21.8416   20.5655 H   0  0  0  0  0  0
  -27.8847  -25.3169   18.5679 H   0  0  0  0  0  0
  -29.5585  -25.5241   18.8530 H   0  0  0  0  0  0
  -29.0915  -22.8809   18.6580 H   0  0  0  0  0  0
  -27.9494  -20.0620   19.7765 H   0  0  0  0  0  0
  -28.8832  -15.3556   20.9351 H   0  0  0  0  0  0
  -27.1821  -21.6248   19.1348 H   0  0  0  0  0  0
  1 25  1  0  0  0
  1 30  2  0  0  0
  1 80  1  0  0  0
  2  3  1  0  0  0
  2 25  1  0  0  0
  2 83  1  0  0  0
  2 84  1  0  0  0
  3  4  1  0  0  0
  3 85  1  0  0  0
  3 86  1  0  0  0
  4  5  1  0  0  0
  4 87  1  0  0  0
  4 88  1  0  0  0
  5  6  1  0  0  0
  5 26  1  0  0  0
  5 89  1  0  0  0
  6 25  1  0  0  0
  6 90  1  0  0  0
  6 91  1  0  0  0
  7  8  2  0  0  0
  7 26  1  0  0  0
  7 29  1  0  0  0
  8  9  1  0  0  0
  8 22  1  0  0  0
  9 10  1  0  0  0
  9 27  2  0  0  0
 10 11  2  0  0  0
 10 15  1  0  0  0
 11 12  1  0  0  0
 11 92  1  0  0  0
 12 13  2  0  0  0
 12 93  1  0  0  0
 13 14  1  0  0  0
 13 31  1  0  0  0
 14 15  2  0  0  0
 14 94  1  0  0  0
 15 95  1  0  0  0
 16 17  2  0  0  0
 16 21  1  0  0  0
 16 31  1  0  0  0
 17 18  1  0  0  0
 17 96  1  0  0  0
 18 19  2  0  0  0
 18 97  1  0  0  0
 19 20  1  0  0  0
 19 24  1  0  0  0
 20 21  2  0  0  0
 20 98  1  0  0  0
 21 23  1  0  0  0
 22 28  1  0  0  0
 22 32  2  0  0  0
 26 27  1  0  0  0
 28 99  1  0  0  0
 28100  1  0  0  0
 29101  1  0  0  0
 29102  1  0  0  0
 33 34  1  0  0  0
 33 66  1  0  0  0
 33 70  2  0  0  0
 34 36  1  0  0  0
 34 59  1  0  0  0
 34103  1  0  0  0
 35 44  2  0  0  0
 35 45  1  0  0  0
 35 68  1  0  0  0
 36 56  1  0  0  0
 36104  1  0  0  0
 37 39  1  0  0  0
 37 47  1  0  0  0
 37 66  1  0  0  0
 37105  1  0  0  0
 38 43  2  0  0  0
 38 46  1  0  0  0
 38 47  1  0  0  0
 39 64  1  0  0  0
 39 67  2  0  0  0
 40 52  1  0  0  0
 40 53  2  0  0  0
 40 58  1  0  0  0
 41106  1  0  0  0
 41107  1  0  0  0
 41108  1  0  0  0
 41 48  1  0  0  0
 42 43  1  0  0  0
 42 66  1  0  0  0
 42109  1  0  0  0
 42110  1  0  0  0
 43 44  1  0  0  0
 44111  1  0  0  0
 45 46  2  0  0  0
 45112  1  0  0  0
 46113  1  0  0  0
 47114  1  0  0  0
 47115  1  0  0  0
 48 56  1  0  0  0
 48 65  1  0  0  0
 48116  1  0  0  0
 49 50  1  0  0  0
 49 53  1  0  0  0
 49 64  1  0  0  0
 49117  1  0  0  0
 50 51  1  0  0  0
 50118  1  0  0  0
 50119  1  0  0  0
 51 52  1  0  0  0
 51120  1  0  0  0
 51121  1  0  0  0
 52122  1  0  0  0
 52123  1  0  0  0
 53 54  1  0  0  0
 54 55  2  0  0  0
 54124  1  0  0  0
 55 57  1  0  0  0
 55125  1  0  0  0
 56 69  2  0  0  0
 57 58  2  0  0  0
 57126  1  0  0  0
 58127  1  0  0  0
 59 60  1  0  0  0
 59 61  1  0  0  0
 59 62  1  0  0  0
 60128  1  0  0  0
 60129  1  0  0  0
 60130  1  0  0  0
 61131  1  0  0  0
 61132  1  0  0  0
 61133  1  0  0  0
 62134  1  0  0  0
 62135  1  0  0  0
 62136  1  0  0  0
 63 65  1  0  0  0
 63137  1  0  0  0
 63138  1  0  0  0
 63139  1  0  0  0
 64140  1  0  0  0
 65141  1  0  0  0
 68 76  1  0  0  0
 71 72  2  0  0  0
 71 82  1  0  0  0
 71142  1  0  0  0
 72 78  1  0  0  0
 72 79  1  0  0  0
 73 78  2  0  0  0
 73 80  1  0  0  0
 73 82  1  0  0  0
 74 76  1  0  0  0
 74 77  1  0  0  0
 74143  1  0  0  0
 74144  1  0  0  0
 75 77  1  0  0  0
 75 79  1  0  0  0
 75145  1  0  0  0
 75146  1  0  0  0
 76147  1  0  0  0
 76148  1  0  0  0
 77 81  1  0  0  0
 77149  1  0  0  0
 79150  1  0  0  0
 80151  1  0  0  0
 81152  1  0  0  0
M  ISO  4   1 100  68 101  76 101  80 100
M  END
> <chiral flag>
0

> <version>
0

> <s_m_source_file>
/data/baiqing/PycharmProjects/Reinvent-master-3.2/result/LINK_invent/BTK/process_docking_weight1_custom_product_contain_oxygen_bond_distance_aromatic_linkinvent_7_9_3/rearranged_h_0199.sdf

> <i_m_source_file_index>
5

> <r_mmod_Potential_Energy-OPLS-2005>
-237.404739379883

> <r_mmod_Stretch_Energy-OPLS-2005>
41.1679763793945

> <r_mmod_Bend_Energy-OPLS-2005>
110.460136413574

> <r_mmod_Torsional_Energy-OPLS-2005>
236.63703918457

> <r_mmod_Improper_Torsional_Energy-OPLS-2005>
8.21817398071289

> <r_mmod_Van_der_Waal_Energy-OPLS-2005>
133.543838500977

> <r_mmod_Electrostatic_Energy-OPLS-2005>
-549.482971191406

> <r_mmod_Solvation_Energy-OPLS-2005>
-237.155502319336

> <b_mmod_Minimization_Converged-OPLS-2005>
0

> <r_mmod_RMS_Derivative-OPLS-2005>
5.02073192596436

$$$$
5
                    3D
 Structure written by MMmdl.
162170  0  0  1  0            999 V2000
  -30.6093  -14.6569   20.4644 C   0  0  0  0  0  0
  -30.4404  -12.3916   19.4436 C   0  0  0  0  0  0
  -29.5072  -12.5041   18.2173 C   0  0  0  0  0  0
  -28.0267  -12.3566   18.6269 C   0  0  0  0  0  0
  -27.6561  -13.2153   19.8644 C   0  0  2  0  0  0
  -28.7064  -13.0620   20.9891 C   0  0  0  0  0  0
  -25.2579  -13.8168   20.5688 C   0  0  0  0  0  0
  -24.1850  -13.0433   20.9191 C   0  0  0  0  0  0
  -24.6400  -11.6903   20.8720 C   0  0  0  0  0  0
  -23.9048  -10.4297   21.0410 C   0  0  0  0  0  0
  -24.3604   -9.4215   21.9189 C   0  0  0  0  0  0
  -23.6295   -8.2235   22.0747 C   0  0  0  0  0  0
  -22.4270   -8.0278   21.3538 C   0  0  0  0  0  0
  -21.9901   -9.0246   20.4635 C   0  0  0  0  0  0
  -22.7213  -10.2143   20.3065 C   0  0  0  0  0  0
  -21.6849   -6.0729   22.5277 C   0  0  0  0  0  0
  -21.4012   -6.5630   23.8214 C   0  0  0  0  0  0
  -21.3663   -5.6777   24.9160 C   0  0  0  0  0  0
  -21.6048   -4.3044   24.7220 C   0  0  0  0  0  0
  -21.8819   -3.8140   23.4338 C   0  0  0  0  0  0
  -21.9194   -4.6952   22.3392 C   0  0  0  0  0  0
  -22.7858  -13.5249   21.1847 C   0  0  0  0  0  0
  -22.1669   -4.2137   21.0962 F   0  0  0  0  0  0
  -21.5623   -3.4533   25.7733 F   0  0  0  0  0  0
  -30.0173  -13.4171   20.4197 N   0  0  0  0  0  0
  -26.3015  -12.9343   20.3339 N   0  0  0  0  0  0
  -25.9337  -11.6500   20.5780 N   0  0  0  0  0  0
  -22.0472  -12.8271   22.0406 N   0  0  0  0  0  0
  -25.4280  -15.1891   20.4055 N   0  0  0  0  0  0
  -31.7776  -14.8170   20.1003 O   0  0  0  0  0  0
  -21.6629   -6.8878   21.4249 O   0  0  0  0  0  0
  -22.3553  -14.5551   20.6673 O   0  0  0  0  0  0
  -24.6296  -31.8585   23.1986 C   0  0  0  0  0  0
  -25.9117  -32.4792   23.8343 C   0  0  1  0  0  0
  -27.2222  -27.2656   20.1296 C   0  0  0  0  0  0
  -25.5921  -33.8585   24.2280 N   0  0  0  0  0  0
  -23.4281  -30.4787   21.5418 C   0  0  2  0  0  0
  -24.8749  -28.9251   20.1191 C   0  0  0  0  0  0
  -22.7535  -29.4591   22.4921 C   0  0  0  0  0  0
  -18.0306  -28.1366   22.8552 C   0  0  0  0  0  0
  -24.1459  -36.7268   23.2642 C   0  0  0  0  0  0
  -25.9761  -30.7689   21.3793 C   0  0  0  0  0  0
  -26.0494  -29.3910   20.7229 C   0  0  0  0  0  0
  -27.2277  -28.5787   20.7099 C   0  0  0  0  0  0
  -26.0289  -26.8819   19.4780 C   0  0  0  0  0  0
  -24.8673  -27.6751   19.4884 C   0  0  0  0  0  0
  -23.6517  -29.8165   20.1574 C   0  0  0  0  0  0
  -25.4089  -36.3093   24.0353 C   0  0  1  0  0  0
  -20.5924  -28.3658   23.1336 C   0  0  2  0  0  0
  -20.6777  -26.9387   22.5453 C   0  0  0  0  0  0
  -19.5722  -26.6387   21.5263 C   0  0  0  0  0  0
  -18.1908  -26.7929   22.1673 C   0  0  0  0  0  0
  -19.1561  -28.8839   23.2927 C   0  0  0  0  0  0
  -18.9478  -30.1452   23.8918 C   0  0  0  0  0  0
  -17.6470  -30.6586   24.0573 C   0  0  0  0  0  0
  -25.9046  -34.9468   23.5124 C   0  0  0  0  0  0
  -16.5367  -29.9096   23.6327 C   0  0  0  0  0  0
  -16.7288  -28.6496   23.0400 C   0  0  0  0  0  0
  -26.4471  -31.6628   25.0740 C   0  0  0  0  0  0
  -25.3715  -31.3805   26.1504 C   0  0  0  0  0  0
  -27.0303  -30.3055   24.6184 C   0  0  0  0  0  0
  -27.6008  -32.4369   25.7534 C   0  0  0  0  0  0
  -27.5568  -37.1801   24.8487 C   0  0  0  0  0  0
  -21.4244  -29.3004   22.3705 N   0  0  0  0  0  0
  -26.4262  -37.3795   23.9451 N   0  0  0  0  0  0
  -24.6965  -31.0563   22.0931 N   0  0  0  0  0  0
  -23.4252  -28.8159   23.3033 O   0  0  0  0  0  0
  -28.3404  -26.3988   20.1122 O   0  0  0  0  0  0
  -26.5603  -34.8957   22.4675 O   0  0  0  0  0  0
  -23.5459  -32.1398   23.7279 O   0  0  0  0  0  0
  -28.3951  -19.1902   20.8563 C   0  0  0  0  0  0
  -28.5695  -17.7910   21.0013 C   0  0  0  0  0  0
  -30.5844  -19.2845   19.9395 C   0  0  0  0  0  0
  -29.4045  -20.0033   20.2960 C   0  0  0  0  0  0
  -29.7620  -17.1415   20.6022 C   0  0  0  0  0  0
  -29.6180  -22.5007   22.2718 C   0  0  0  0  0  0
  -31.6562  -22.1915   23.7476 C   0  0  0  0  0  0
  -27.0041  -24.1668   20.3712 C   0  0  0  0  0  0
  -30.6844  -23.1972   23.1127 C   0  0  0  0  0  0
  -29.5163  -24.0303   20.1542 C   0  0  0  0  0  0
  -29.7996  -22.5423   20.7362 C   0  0  2  0  0  0
  -28.2989  -24.9724   20.6152 C   0  0  1  0  0  0
  -30.7538  -17.9224   20.0798 N   0  0  0  0  0  0
  -29.1268  -21.3953   20.0448 N   0  0  0  0  0  0
  -29.7621  -15.6885   20.7865 N   0  0  0  0  0  0
  -28.6848  -21.9172   22.8290 O   0  0  0  0  0  0
  -31.4810  -12.5152   19.1359 H   0  0  0  0  0  0
  -30.3734  -11.3945   19.8813 H   0  0  0  0  0  0
  -29.7670  -11.7440   17.4790 H   0  0  0  0  0  0
  -29.6563  -13.4678   17.7271 H   0  0  0  0  0  0
  -27.8469  -11.3048   18.8432 H   0  0  0  0  0  0
  -27.3757  -12.6102   17.7875 H   0  0  0  0  0  0
  -27.6742  -14.2523   19.5297 H   0  0  0  0  0  0
  -28.7248  -12.0376   21.3658 H   0  0  0  0  0  0
  -28.4536  -13.6837   21.8496 H   0  0  0  0  0  0
  -25.2758   -9.5697   22.4754 H   0  0  0  0  0  0
  -24.0001   -7.4639   22.7488 H   0  0  0  0  0  0
  -21.0824   -8.8771   19.8966 H   0  0  0  0  0  0
  -22.3677  -10.9671   19.6176 H   0  0  0  0  0  0
  -21.2010   -7.6142   23.9721 H   0  0  0  0  0  0
  -21.1488   -6.0498   25.9073 H   0  0  0  0  0  0
  -22.0605   -2.7608   23.2826 H   0  0  0  0  0  0
  -22.4059  -11.9937   22.4821 H   0  0  0  0  0  0
  -21.1110  -13.1343   22.2592 H   0  0  0  0  0  0
  -24.6453  -15.8298   20.4826 H   0  0  0  0  0  0
  -26.2521  -15.6216   20.0094 H   0  0  0  0  0  0
  -26.7204  -32.5462   23.1112 H   0  0  0  0  0  0
  -25.0142  -33.9691   25.0483 H   0  0  0  0  0  0
  -22.7192  -31.2957   21.3966 H   0  0  0  0  0  0
  -23.3742  -35.9583   23.3320 H   0  0  0  0  0  0
  -24.3529  -36.8837   22.2050 H   0  0  0  0  0  0
  -23.7199  -37.6476   23.6623 H   0  0  0  0  0  0
  -26.1245  -31.5256   20.6058 H   0  0  0  0  0  0
  -26.8496  -30.8145   22.0166 H   0  0  0  0  0  0
  -28.1385  -28.9462   21.1589 H   0  0  0  0  0  0
  -25.9655  -25.9482   18.9415 H   0  0  0  0  0  0
  -23.9745  -27.3152   18.9978 H   0  0  0  0  0  0
  -23.8040  -30.5943   19.4090 H   0  0  0  0  0  0
  -22.7690  -29.2612   19.8342 H   0  0  0  0  0  0
  -25.1270  -36.1946   25.0849 H   0  0  0  0  0  0
  -20.9997  -28.3196   24.1467 H   0  0  0  0  0  0
  -20.5695  -26.2248   23.3634 H   0  0  0  0  0  0
  -21.6640  -26.7426   22.1220 H   0  0  0  0  0  0
  -19.6839  -25.6301   21.1266 H   0  0  0  0  0  0
  -19.6636  -27.3213   20.6803 H   0  0  0  0  0  0
  -17.4205  -26.6768   21.4041 H   0  0  0  0  0  0
  -18.0239  -26.0021   22.9010 H   0  0  0  0  0  0
  -19.7941  -30.7283   24.2274 H   0  0  0  0  0  0
  -17.5018  -31.6262   24.5166 H   0  0  0  0  0  0
  -15.5363  -30.3006   23.7592 H   0  0  0  0  0  0
  -15.8696  -28.0779   22.7147 H   0  0  0  0  0  0
  -24.5878  -30.7126   25.7917 H   0  0  0  0  0  0
  -24.8926  -32.2988   26.4919 H   0  0  0  0  0  0
  -25.8108  -30.9070   27.0297 H   0  0  0  0  0  0
  -26.2889  -29.6854   24.1135 H   0  0  0  0  0  0
  -27.3913  -29.7263   25.4689 H   0  0  0  0  0  0
  -27.8792  -30.4359   23.9461 H   0  0  0  0  0  0
  -27.2589  -33.3659   26.2114 H   0  0  0  0  0  0
  -28.3860  -32.6932   25.0410 H   0  0  0  0  0  0
  -28.0616  -31.8486   26.5477 H   0  0  0  0  0  0
  -28.2636  -38.0057   24.7542 H   0  0  0  0  0  0
  -28.1028  -36.2608   24.6321 H   0  0  0  0  0  0
  -27.2297  -37.1455   25.8892 H   0  0  0  0  0  0
  -20.9396  -29.8737   21.6939 H   0  0  0  0  0  0
  -26.0148  -38.2867   24.1470 H   0  0  0  0  0  0
  -27.4605  -19.6382   21.1646 H   0  0  0  0  0  0
  -27.7483  -17.2254   21.4175 H   0  0  0  0  0  0
  -31.4021  -19.8085   19.4672 H   0  0  0  0  0  0
  -32.5143  -22.7068   24.1780 H   0  0  0  0  0  0
  -32.0293  -21.4710   23.0173 H   0  0  0  0  0  0
  -31.1695  -21.6288   24.5448 H   0  0  0  0  0  0
  -26.1342  -24.6360   20.8272 H   0  0  0  0  0  0
  -27.0671  -23.1795   20.8274 H   0  0  0  0  0  0
  -26.8208  -24.0041   19.3082 H   0  0  0  0  0  0
  -30.2010  -23.7830   23.8943 H   0  0  0  0  0  0
  -31.2350  -23.8957   22.4828 H   0  0  0  0  0  0
  -29.5288  -23.9741   19.0655 H   0  0  0  0  0  0
  -30.4124  -24.6014   20.3978 H   0  0  0  0  0  0
  -30.8612  -22.3627   20.5567 H   0  0  0  0  0  0
  -28.3903  -25.0801   21.6970 H   0  0  0  0  0  0
  -28.1253  -21.5593   20.0410 H   0  0  0  0  0  0
  -28.8836  -15.3339   21.1241 H   0  0  0  0  0  0
  1 25  1  0  0  0
  1 30  2  0  0  0
  1 85  1  0  0  0
  2  3  1  0  0  0
  2 25  1  0  0  0
  2 87  1  0  0  0
  2 88  1  0  0  0
  3  4  1  0  0  0
  3 89  1  0  0  0
  3 90  1  0  0  0
  4  5  1  0  0  0
  4 91  1  0  0  0
  4 92  1  0  0  0
  5  6  1  0  0  0
  5 26  1  0  0  0
  5 93  1  0  0  0
  6 25  1  0  0  0
  6 94  1  0  0  0
  6 95  1  0  0  0
  7  8  2  0  0  0
  7 26  1  0  0  0
  7 29  1  0  0  0
  8  9  1  0  0  0
  8 22  1  0  0  0
  9 10  1  0  0  0
  9 27  2  0  0  0
 10 11  2  0  0  0
 10 15  1  0  0  0
 11 12  1  0  0  0
 11 96  1  0  0  0
 12 13  2  0  0  0
 12 97  1  0  0  0
 13 14  1  0  0  0
 13 31  1  0  0  0
 14 15  2  0  0  0
 14 98  1  0  0  0
 15 99  1  0  0  0
 16 17  2  0  0  0
 16 21  1  0  0  0
 16 31  1  0  0  0
 17 18  1  0  0  0
 17100  1  0  0  0
 18 19  2  0  0  0
 18101  1  0  0  0
 19 20  1  0  0  0
 19 24  1  0  0  0
 20 21  2  0  0  0
 20102  1  0  0  0
 21 23  1  0  0  0
 22 28  1  0  0  0
 22 32  2  0  0  0
 26 27  1  0  0  0
 28103  1  0  0  0
 28104  1  0  0  0
 29105  1  0  0  0
 29106  1  0  0  0
 33 34  1  0  0  0
 33 66  1  0  0  0
 33 70  2  0  0  0
 34 36  1  0  0  0
 34 59  1  0  0  0
 34107  1  0  0  0
 35 44  2  0  0  0
 35 45  1  0  0  0
 35 68  1  0  0  0
 36 56  1  0  0  0
 36108  1  0  0  0
 37 39  1  0  0  0
 37 47  1  0  0  0
 37 66  1  0  0  0
 37109  1  0  0  0
 38 43  2  0  0  0
 38 46  1  0  0  0
 38 47  1  0  0  0
 39 64  1  0  0  0
 39 67  2  0  0  0
 40 52  1  0  0  0
 40 53  2  0  0  0
 40 58  1  0  0  0
 41110  1  0  0  0
 41111  1  0  0  0
 41112  1  0  0  0
 41 48  1  0  0  0
 42 43  1  0  0  0
 42 66  1  0  0  0
 42113  1  0  0  0
 42114  1  0  0  0
 43 44  1  0  0  0
 44115  1  0  0  0
 45 46  2  0  0  0
 45116  1  0  0  0
 46117  1  0  0  0
 47118  1  0  0  0
 47119  1  0  0  0
 48 56  1  0  0  0
 48 65  1  0  0  0
 48120  1  0  0  0
 49 50  1  0  0  0
 49 53  1  0  0  0
 49 64  1  0  0  0
 49121  1  0  0  0
 50 51  1  0  0  0
 50122  1  0  0  0
 50123  1  0  0  0
 51 52  1  0  0  0
 51124  1  0  0  0
 51125  1  0  0  0
 52126  1  0  0  0
 52127  1  0  0  0
 53 54  1  0  0  0
 54 55  2  0  0  0
 54128  1  0  0  0
 55 57  1  0  0  0
 55129  1  0  0  0
 56 69  2  0  0  0
 57 58  2  0  0  0
 57130  1  0  0  0
 58131  1  0  0  0
 59 60  1  0  0  0
 59 61  1  0  0  0
 59 62  1  0  0  0
 60132  1  0  0  0
 60133  1  0  0  0
 60134  1  0  0  0
 61135  1  0  0  0
 61136  1  0  0  0
 61137  1  0  0  0
 62138  1  0  0  0
 62139  1  0  0  0
 62140  1  0  0  0
 63 65  1  0  0  0
 63141  1  0  0  0
 63142  1  0  0  0
 63143  1  0  0  0
 64144  1  0  0  0
 65145  1  0  0  0
 68 82  1  0  0  0
 71 72  2  0  0  0
 71 74  1  0  0  0
 71146  1  0  0  0
 72 75  1  0  0  0
 72147  1  0  0  0
 73 74  2  0  0  0
 73 83  1  0  0  0
 73148  1  0  0  0
 74 84  1  0  0  0
 75 83  2  0  0  0
 75 85  1  0  0  0
 76 79  1  0  0  0
 76 81  1  0  0  0
 76 86  2  0  0  0
 77 79  1  0  0  0
 77149  1  0  0  0
 77150  1  0  0  0
 77151  1  0  0  0
 78152  1  0  0  0
 78153  1  0  0  0
 78154  1  0  0  0
 78 82  1  0  0  0
 79155  1  0  0  0
 79156  1  0  0  0
 80 82  1  0  0  0
 80157  1  0  0  0
 80158  1  0  0  0
 80 81  1  0  0  0
 81 84  1  0  0  0
 81159  1  0  0  0
 82160  1  0  0  0
 84161  1  0  0  0
 85162  1  0  0  0
M  ISO  4   1 100  68 101  82 101  85 100
M  END
> <chiral flag>
0

> <version>
0

> <s_m_source_file>
/data/baiqing/PycharmProjects/Reinvent-master-3.2/result/LINK_invent/BTK/process_docking_weight1_custom_product_contain_oxygen_bond_distance_aromatic_linkinvent_7_9_3/rearranged_h_0199.sdf

> <i_m_source_file_index>
6

> <r_mmod_Potential_Energy-OPLS-2005>
68.6211929321289

> <r_mmod_Stretch_Energy-OPLS-2005>
99.6606521606445

> <r_mmod_Bend_Energy-OPLS-2005>
187.134948730469

> <r_mmod_Torsional_Energy-OPLS-2005>
244.012145996094

> <r_mmod_Improper_Torsional_Energy-OPLS-2005>
9.26359748840332

> <r_mmod_Van_der_Waal_Energy-OPLS-2005>
137.163543701172

> <r_mmod_Electrostatic_Energy-OPLS-2005>
-423.33251953125

> <r_mmod_Solvation_Energy-OPLS-2005>
-245.730697631836

> <b_mmod_Minimization_Converged-OPLS-2005>
0

> <r_mmod_RMS_Derivative-OPLS-2005>
4.57123517990112

$$$$
6
                    3D
 Structure written by MMmdl.
151159  0  0  1  0            999 V2000
  -30.6108  -14.7550   20.4493 C   0  0  0  0  0  0
  -30.4315  -12.4574   19.4844 C   0  0  0  0  0  0
  -29.5128  -12.5074   18.2432 C   0  0  0  0  0  0
  -28.0388  -12.3310   18.6545 C   0  0  0  0  0  0
  -27.6423  -13.2336   19.8534 C   0  0  2  0  0  0
  -28.6854  -13.1757   20.9919 C   0  0  0  0  0  0
  -25.2506  -13.8199   20.5700 C   0  0  0  0  0  0
  -24.1800  -13.0441   20.9210 C   0  0  0  0  0  0
  -24.6395  -11.6920   20.8750 C   0  0  0  0  0  0
  -23.9073  -10.4294   21.0408 C   0  0  0  0  0  0
  -24.3622   -9.4208   21.9185 C   0  0  0  0  0  0
  -23.6296   -8.2244   22.0754 C   0  0  0  0  0  0
  -22.4278   -8.0282   21.3544 C   0  0  0  0  0  0
  -21.9915   -9.0256   20.4646 C   0  0  0  0  0  0
  -22.7245  -10.2135   20.3056 C   0  0  0  0  0  0
  -21.6854   -6.0736   22.5279 C   0  0  0  0  0  0
  -21.4015   -6.5640   23.8212 C   0  0  0  0  0  0
  -21.3660   -5.6793   24.9174 C   0  0  0  0  0  0
  -21.6044   -4.3055   24.7225 C   0  0  0  0  0  0
  -21.8819   -3.8147   23.4346 C   0  0  0  0  0  0
  -21.9193   -4.6964   22.3402 C   0  0  0  0  0  0
  -22.7820  -13.5220   21.1867 C   0  0  0  0  0  0
  -22.1661   -4.2149   21.0980 F   0  0  0  0  0  0
  -21.5629   -3.4539   25.7737 F   0  0  0  0  0  0
  -29.9882  -13.5254   20.4129 N   0  0  0  0  0  0
  -26.2938  -12.9412   20.3294 N   0  0  0  0  0  0
  -25.9327  -11.6552   20.5761 N   0  0  0  0  0  0
  -22.0468  -12.8209   22.0424 N   0  0  0  0  0  0
  -25.4185  -15.1924   20.4110 N   0  0  0  0  0  0
  -31.7923  -14.8473   20.1060 O   0  0  0  0  0  0
  -21.6641   -6.8880   21.4241 O   0  0  0  0  0  0
  -22.3503  -14.5525   20.6714 O   0  0  0  0  0  0
  -24.6326  -31.8539   23.1978 C   0  0  0  0  0  0
  -25.9147  -32.4746   23.8326 C   0  0  1  0  0  0
  -27.2169  -27.2444   20.1304 C   0  0  0  0  0  0
  -25.5937  -33.8549   24.2246 N   0  0  0  0  0  0
  -23.4301  -30.4769   21.5412 C   0  0  2  0  0  0
  -24.8775  -28.9243   20.1071 C   0  0  0  0  0  0
  -22.7511  -29.4594   22.4902 C   0  0  0  0  0  0
  -18.0293  -28.1389   22.8483 C   0  0  0  0  0  0
  -24.1490  -36.7280   23.2640 C   0  0  0  0  0  0
  -25.9777  -30.7606   21.3820 C   0  0  0  0  0  0
  -26.0490  -29.3825   20.7226 C   0  0  0  0  0  0
  -27.2195  -28.5544   20.7252 C   0  0  0  0  0  0
  -26.0261  -26.8689   19.4669 C   0  0  0  0  0  0
  -24.8727  -27.6766   19.4672 C   0  0  0  0  0  0
  -23.6490  -29.8126   20.1566 C   0  0  0  0  0  0
  -25.4118  -36.3064   24.0324 C   0  0  1  0  0  0
  -20.5899  -28.3701   23.1264 C   0  0  2  0  0  0
  -20.6780  -26.9417   22.5407 C   0  0  0  0  0  0
  -19.5755  -26.6383   21.5212 C   0  0  0  0  0  0
  -18.1936  -26.7930   22.1625 C   0  0  0  0  0  0
  -19.1548  -28.8862   23.2868 C   0  0  0  0  0  0
  -18.9468  -30.1462   23.8888 C   0  0  0  0  0  0
  -17.6467  -30.6589   24.0562 C   0  0  0  0  0  0
  -25.9060  -34.9435   23.5088 C   0  0  0  0  0  0
  -16.5358  -29.9085   23.6333 C   0  0  0  0  0  0
  -16.7280  -28.6503   23.0354 C   0  0  0  0  0  0
  -26.4507  -31.6580   25.0725 C   0  0  0  0  0  0
  -25.3721  -31.3738   26.1439 C   0  0  0  0  0  0
  -27.0363  -30.2992   24.6235 C   0  0  0  0  0  0
  -27.6053  -32.4330   25.7502 C   0  0  0  0  0  0
  -27.5578  -37.1797   24.8466 C   0  0  0  0  0  0
  -21.4216  -29.3044   22.3648 N   0  0  0  0  0  0
  -26.4291  -37.3765   23.9407 N   0  0  0  0  0  0
  -24.6992  -31.0490   22.0963 N   0  0  0  0  0  0
  -23.4204  -28.8135   23.3007 O   0  0  0  0  0  0
  -28.3012  -26.3317   20.2177 O   0  0  0  0  0  0
  -26.5636  -34.8913   22.4660 O   0  0  0  0  0  0
  -23.5473  -32.1371   23.7263 O   0  0  0  0  0  0
  -28.6567  -19.7296   22.7963 C   0  0  0  0  0  0
  -29.1153  -18.5610   22.1571 C   0  0  0  0  0  0
  -28.6269  -20.9569   22.1015 C   0  0  0  0  0  0
  -29.5463  -18.6252   20.8227 C   0  0  0  0  0  0
  -29.0423  -21.0187   20.7603 C   0  0  0  0  0  0
  -30.1628  -17.3185   20.1494 C   0  0  0  0  0  0
  -29.0091  -23.6854   20.5941 C   0  0  0  0  0  0
  -28.0927  -24.8585   19.9383 C   0  0  0  0  0  0
  -29.4905  -19.8508   20.1483 N   0  0  0  0  0  0
  -28.9484  -22.2663   20.0310 N   0  0  0  0  0  0
  -29.8454  -15.8974   20.6295 N   0  0  0  0  0  0
  -31.4740  -12.5748   19.1838 H   0  0  0  0  0  0
  -30.3713  -11.4824   19.9706 H   0  0  0  0  0  0
  -29.7975  -11.7326   17.5301 H   0  0  0  0  0  0
  -29.6399  -13.4606   17.7275 H   0  0  0  0  0  0
  -27.8969  -11.2828   18.9201 H   0  0  0  0  0  0
  -27.3823  -12.5198   17.8043 H   0  0  0  0  0  0
  -27.6349  -14.2537   19.4691 H   0  0  0  0  0  0
  -28.7199  -12.1811   21.4390 H   0  0  0  0  0  0
  -28.4189  -13.8636   21.7959 H   0  0  0  0  0  0
  -25.2766   -9.5684   22.4761 H   0  0  0  0  0  0
  -24.0004   -7.4635   22.7473 H   0  0  0  0  0  0
  -21.0846   -8.8776   19.8952 H   0  0  0  0  0  0
  -22.3703  -10.9675   19.6167 H   0  0  0  0  0  0
  -21.2008   -7.6148   23.9715 H   0  0  0  0  0  0
  -21.1482   -6.0523   25.9077 H   0  0  0  0  0  0
  -22.0598   -2.7609   23.2846 H   0  0  0  0  0  0
  -22.4090  -11.9873   22.4813 H   0  0  0  0  0  0
  -21.1084  -13.1228   22.2630 H   0  0  0  0  0  0
  -24.6482  -15.8432   20.5196 H   0  0  0  0  0  0
  -26.2608  -15.6336   20.0653 H   0  0  0  0  0  0
  -26.7211  -32.5389   23.1063 H   0  0  0  0  0  0
  -25.0074  -33.9684   25.0385 H   0  0  0  0  0  0
  -22.7272  -31.2998   21.3954 H   0  0  0  0  0  0
  -23.3753  -35.9611   23.3300 H   0  0  0  0  0  0
  -24.3578  -36.8908   22.2055 H   0  0  0  0  0  0
  -23.7244  -37.6478   23.6670 H   0  0  0  0  0  0
  -26.1212  -31.5211   20.6132 H   0  0  0  0  0  0
  -26.8536  -30.8076   22.0176 H   0  0  0  0  0  0
  -28.1121  -28.8965   21.2300 H   0  0  0  0  0  0
  -25.9514  -25.9237   18.9507 H   0  0  0  0  0  0
  -23.9791  -27.3245   18.9704 H   0  0  0  0  0  0
  -23.7743  -30.5899   19.4020 H   0  0  0  0  0  0
  -22.7668  -29.2473   19.8506 H   0  0  0  0  0  0
  -25.1302  -36.1908   25.0816 H   0  0  0  0  0  0
  -20.9992  -28.3283   24.1384 H   0  0  0  0  0  0
  -20.5680  -26.2312   23.3615 H   0  0  0  0  0  0
  -21.6648  -26.7438   22.1201 H   0  0  0  0  0  0
  -19.6917  -25.6292   21.1247 H   0  0  0  0  0  0
  -19.6692  -27.3189   20.6739 H   0  0  0  0  0  0
  -17.4205  -26.6676   21.4028 H   0  0  0  0  0  0
  -18.0337  -26.0074   22.9024 H   0  0  0  0  0  0
  -19.7944  -30.7281   24.2252 H   0  0  0  0  0  0
  -17.5021  -31.6268   24.5165 H   0  0  0  0  0  0
  -15.5358  -30.2984   23.7662 H   0  0  0  0  0  0
  -15.8680  -28.0819   22.7074 H   0  0  0  0  0  0
  -24.5903  -30.7079   25.7765 H   0  0  0  0  0  0
  -24.8904  -32.2909   26.4839 H   0  0  0  0  0  0
  -25.8029  -30.8932   27.0232 H   0  0  0  0  0  0
  -26.2958  -29.6730   24.1245 H   0  0  0  0  0  0
  -27.4018  -29.7267   25.4770 H   0  0  0  0  0  0
  -27.8846  -30.4258   23.9505 H   0  0  0  0  0  0
  -27.2654  -33.3637   26.2056 H   0  0  0  0  0  0
  -28.3875  -32.6879   25.0339 H   0  0  0  0  0  0
  -28.0708  -31.8471   26.5438 H   0  0  0  0  0  0
  -28.2594  -38.0094   24.7509 H   0  0  0  0  0  0
  -28.1075  -36.2624   24.6297 H   0  0  0  0  0  0
  -27.2294  -37.1451   25.8868 H   0  0  0  0  0  0
  -20.9404  -29.8767   21.6851 H   0  0  0  0  0  0
  -26.0167  -38.2838   24.1405 H   0  0  0  0  0  0
  -28.3292  -19.6867   23.8250 H   0  0  0  0  0  0
  -29.1577  -17.6283   22.7030 H   0  0  0  0  0  0
  -28.2531  -21.8301   22.6159 H   0  0  0  0  0  0
  -31.2455  -17.4463   20.1833 H   0  0  0  0  0  0
  -29.9053  -17.3541   19.0905 H   0  0  0  0  0  0
  -28.8214  -23.6664   21.6664 H   0  0  0  0  0  0
  -30.0497  -23.9963   20.4975 H   0  0  0  0  0  0
  -27.0746  -24.5921   20.2215 H   0  0  0  0  0  0
  -28.1395  -24.7507   18.8542 H   0  0  0  0  0  0
  -29.2033  -22.2009   19.0510 H   0  0  0  0  0  0
  -28.8922  -15.7506   20.9218 H   0  0  0  0  0  0
  1 25  1  0  0  0
  1 30  2  0  0  0
  1 81  1  0  0  0
  2  3  1  0  0  0
  2 25  1  0  0  0
  2 82  1  0  0  0
  2 83  1  0  0  0
  3  4  1  0  0  0
  3 84  1  0  0  0
  3 85  1  0  0  0
  4  5  1  0  0  0
  4 86  1  0  0  0
  4 87  1  0  0  0
  5  6  1  0  0  0
  5 26  1  0  0  0
  5 88  1  0  0  0
  6 25  1  0  0  0
  6 89  1  0  0  0
  6 90  1  0  0  0
  7  8  2  0  0  0
  7 26  1  0  0  0
  7 29  1  0  0  0
  8  9  1  0  0  0
  8 22  1  0  0  0
  9 10  1  0  0  0
  9 27  2  0  0  0
 10 11  2  0  0  0
 10 15  1  0  0  0
 11 12  1  0  0  0
 11 91  1  0  0  0
 12 13  2  0  0  0
 12 92  1  0  0  0
 13 14  1  0  0  0
 13 31  1  0  0  0
 14 15  2  0  0  0
 14 93  1  0  0  0
 15 94  1  0  0  0
 16 17  2  0  0  0
 16 21  1  0  0  0
 16 31  1  0  0  0
 17 18  1  0  0  0
 17 95  1  0  0  0
 18 19  2  0  0  0
 18 96  1  0  0  0
 19 20  1  0  0  0
 19 24  1  0  0  0
 20 21  2  0  0  0
 20 97  1  0  0  0
 21 23  1  0  0  0
 22 28  1  0  0  0
 22 32  2  0  0  0
 26 27  1  0  0  0
 28 98  1  0  0  0
 28 99  1  0  0  0
 29100  1  0  0  0
 29101  1  0  0  0
 33 34  1  0  0  0
 33 66  1  0  0  0
 33 70  2  0  0  0
 34 36  1  0  0  0
 34 59  1  0  0  0
 34102  1  0  0  0
 35 44  2  0  0  0
 35 45  1  0  0  0
 35 68  1  0  0  0
 36 56  1  0  0  0
 36103  1  0  0  0
 37 39  1  0  0  0
 37 47  1  0  0  0
 37 66  1  0  0  0
 37104  1  0  0  0
 38 43  2  0  0  0
 38 46  1  0  0  0
 38 47  1  0  0  0
 39 64  1  0  0  0
 39 67  2  0  0  0
 40 52  1  0  0  0
 40 53  2  0  0  0
 40 58  1  0  0  0
 41105  1  0  0  0
 41106  1  0  0  0
 41107  1  0  0  0
 41 48  1  0  0  0
 42 43  1  0  0  0
 42 66  1  0  0  0
 42108  1  0  0  0
 42109  1  0  0  0
 43 44  1  0  0  0
 44110  1  0  0  0
 45 46  2  0  0  0
 45111  1  0  0  0
 46112  1  0  0  0
 47113  1  0  0  0
 47114  1  0  0  0
 48 56  1  0  0  0
 48 65  1  0  0  0
 48115  1  0  0  0
 49 50  1  0  0  0
 49 53  1  0  0  0
 49 64  1  0  0  0
 49116  1  0  0  0
 50 51  1  0  0  0
 50117  1  0  0  0
 50118  1  0  0  0
 51 52  1  0  0  0
 51119  1  0  0  0
 51120  1  0  0  0
 52121  1  0  0  0
 52122  1  0  0  0
 53 54  1  0  0  0
 54 55  2  0  0  0
 54123  1  0  0  0
 55 57  1  0  0  0
 55124  1  0  0  0
 56 69  2  0  0  0
 57 58  2  0  0  0
 57125  1  0  0  0
 58126  1  0  0  0
 59 60  1  0  0  0
 59 61  1  0  0  0
 59 62  1  0  0  0
 60127  1  0  0  0
 60128  1  0  0  0
 60129  1  0  0  0
 61130  1  0  0  0
 61131  1  0  0  0
 61132  1  0  0  0
 62133  1  0  0  0
 62134  1  0  0  0
 62135  1  0  0  0
 63 65  1  0  0  0
 63136  1  0  0  0
 63137  1  0  0  0
 63138  1  0  0  0
 64139  1  0  0  0
 65140  1  0  0  0
 68 78  1  0  0  0
 71 72  2  0  0  0
 71 73  1  0  0  0
 71141  1  0  0  0
 72 74  1  0  0  0
 72142  1  0  0  0
 73 75  2  0  0  0
 73143  1  0  0  0
 74 76  1  0  0  0
 74 79  2  0  0  0
 75 79  1  0  0  0
 75 80  1  0  0  0
 76 81  1  0  0  0
 76144  1  0  0  0
 76145  1  0  0  0
 77 78  1  0  0  0
 77 80  1  0  0  0
 77146  1  0  0  0
 77147  1  0  0  0
 78148  1  0  0  0
 78149  1  0  0  0
 80150  1  0  0  0
 81151  1  0  0  0
M  ISO  4   1 100  68 101  78 101  81 100
M  END
> <chiral flag>
0

> <version>
0

> <s_m_source_file>
/data/baiqing/PycharmProjects/Reinvent-master-3.2/result/LINK_invent/BTK/process_docking_weight1_custom_product_contain_oxygen_bond_distance_aromatic_linkinvent_7_9_3/rearranged_h_0199.sdf

> <i_m_source_file_index>
7

> <r_mmod_Potential_Energy-OPLS-2005>
-208.496704101562

> <r_mmod_Stretch_Energy-OPLS-2005>
125.112373352051

> <r_mmod_Bend_Energy-OPLS-2005>
172.494094848633

> <r_mmod_Torsional_Energy-OPLS-2005>
198.541412353516

> <r_mmod_Improper_Torsional_Energy-OPLS-2005>
7.74763441085815

> <r_mmod_Van_der_Waal_Energy-OPLS-2005>
142.878890991211

> <r_mmod_Electrostatic_Energy-OPLS-2005>
-709.50439453125

> <r_mmod_Solvation_Energy-OPLS-2005>
-239.934448242188

> <b_mmod_Minimization_Converged-OPLS-2005>
1

> <r_mmod_RMS_Derivative-OPLS-2005>
0.0478739365935326

$$$$
7
                    3D
 Structure written by MMmdl.
151159  0  0  1  0            999 V2000
  -30.5128  -15.1019   20.3658 C   0  0  0  0  0  0
  -30.4338  -12.6804   19.5241 C   0  0  0  0  0  0
  -29.5315  -12.5520   18.2756 C   0  0  0  0  0  0
  -28.0681  -12.3143   18.6928 C   0  0  0  0  0  0
  -27.6213  -13.2642   19.8327 C   0  0  2  0  0  0
  -28.6606  -13.3654   20.9693 C   0  0  0  0  0  0
  -25.2393  -13.8222   20.5663 C   0  0  0  0  0  0
  -24.1746  -13.0452   20.9240 C   0  0  0  0  0  0
  -24.6383  -11.6954   20.8778 C   0  0  0  0  0  0
  -23.9092  -10.4306   21.0421 C   0  0  0  0  0  0
  -24.3641   -9.4206   21.9209 C   0  0  0  0  0  0
  -23.6272   -8.2250   22.0791 C   0  0  0  0  0  0
  -22.4244   -8.0308   21.3595 C   0  0  0  0  0  0
  -21.9896   -9.0291   20.4694 C   0  0  0  0  0  0
  -22.7245  -10.2143   20.3083 C   0  0  0  0  0  0
  -21.6879   -6.0747   22.5293 C   0  0  0  0  0  0
  -21.4013   -6.5649   23.8224 C   0  0  0  0  0  0
  -21.3686   -5.6792   24.9202 C   0  0  0  0  0  0
  -21.6011   -4.3052   24.7228 C   0  0  0  0  0  0
  -21.8832   -3.8163   23.4348 C   0  0  0  0  0  0
  -21.9167   -4.6985   22.3406 C   0  0  0  0  0  0
  -22.7760  -13.5234   21.1873 C   0  0  0  0  0  0
  -22.1645   -4.2161   21.0985 F   0  0  0  0  0  0
  -21.5618   -3.4537   25.7743 F   0  0  0  0  0  0
  -29.9187  -13.8197   20.3569 N   0  0  0  0  0  0
  -26.2851  -12.9490   20.3212 N   0  0  0  0  0  0
  -25.9303  -11.6620   20.5771 N   0  0  0  0  0  0
  -22.0360  -12.8254   22.0436 N   0  0  0  0  0  0
  -25.4004  -15.1932   20.4096 N   0  0  0  0  0  0
  -31.7299  -15.0783   20.1265 O   0  0  0  0  0  0
  -21.6609   -6.8878   21.4258 O   0  0  0  0  0  0
  -22.3452  -14.5536   20.6665 O   0  0  0  0  0  0
  -24.6499  -31.8390   23.1786 C   0  0  0  0  0  0
  -25.9255  -32.4662   23.8220 C   0  0  1  0  0  0
  -27.2160  -27.0460   20.1824 C   0  0  0  0  0  0
  -25.5953  -33.8465   24.2130 N   0  0  0  0  0  0
  -23.4598  -30.4538   21.5249 C   0  0  2  0  0  0
  -24.9107  -28.8626   20.1162 C   0  0  0  0  0  0
  -22.7595  -29.4540   22.4825 C   0  0  0  0  0  0
  -18.0312  -28.1409   22.8470 C   0  0  0  0  0  0
  -24.1495  -36.7230   23.2641 C   0  0  0  0  0  0
  -26.0213  -30.6876   21.3898 C   0  0  0  0  0  0
  -26.0907  -29.2866   20.7394 C   0  0  0  0  0  0
  -27.2420  -28.3965   20.7517 C   0  0  0  0  0  0
  -26.0100  -26.7479   19.5093 C   0  0  0  0  0  0
  -24.8899  -27.6120   19.4791 C   0  0  0  0  0  0
  -23.6922  -29.7761   20.1497 C   0  0  0  0  0  0
  -25.4132  -36.3010   24.0302 C   0  0  1  0  0  0
  -20.5932  -28.3770   23.1199 C   0  0  2  0  0  0
  -20.6807  -26.9459   22.5386 C   0  0  0  0  0  0
  -19.5782  -26.6396   21.5203 C   0  0  0  0  0  0
  -18.1954  -26.7939   22.1619 C   0  0  0  0  0  0
  -19.1564  -28.8907   23.2832 C   0  0  0  0  0  0
  -18.9480  -30.1488   23.8900 C   0  0  0  0  0  0
  -17.6477  -30.6613   24.0569 C   0  0  0  0  0  0
  -25.9085  -34.9402   23.5043 C   0  0  0  0  0  0
  -16.5375  -29.9116   23.6328 C   0  0  0  0  0  0
  -16.7293  -28.6516   23.0376 C   0  0  0  0  0  0
  -26.4559  -31.6543   25.0704 C   0  0  0  0  0  0
  -25.3691  -31.3761   26.1364 C   0  0  0  0  0  0
  -27.0399  -30.2919   24.6308 C   0  0  0  0  0  0
  -27.6119  -32.4271   25.7474 C   0  0  0  0  0  0
  -27.5573  -37.1780   24.8460 C   0  0  0  0  0  0
  -21.4281  -29.3083   22.3551 N   0  0  0  0  0  0
  -26.4290  -37.3729   23.9395 N   0  0  0  0  0  0
  -24.7306  -31.0148   22.0868 N   0  0  0  0  0  0
  -23.4187  -28.8090   23.3015 O   0  0  0  0  0  0
  -28.2541  -26.0162   20.2376 O   0  0  0  0  0  0
  -26.5703  -34.8916   22.4642 O   0  0  0  0  0  0
  -23.5602  -32.1297   23.6961 O   0  0  0  0  0  0
  -31.3294  -19.3914   19.2481 C   0  0  0  0  0  0
  -29.9989  -17.8369   20.2174 C   0  0  0  0  0  0
  -29.5036  -20.2485   20.1941 C   0  0  0  0  0  0
  -30.3629  -23.4539   21.0193 C   0  0  0  0  0  0
  -27.9952  -24.4418   20.4040 C   0  0  0  0  0  0
  -29.0812  -23.0879   20.2349 C   0  0  2  0  0  0
  -31.1148  -18.1127   19.5346 N   0  0  0  0  0  0
  -30.6156  -20.4683   19.5163 N   0  0  0  0  0  0
  -29.1445  -18.9283   20.5649 N   0  0  0  0  0  0
  -32.4761  -19.6555   18.5624 N   0  0  0  0  0  0
  -29.7684  -16.3535   20.4822 N   0  0  0  0  0  0
  -28.7590  -21.5309   20.4800 N   0  0  0  0  0  0
  -31.4724  -12.8243   19.2220 H   0  0  0  0  0  0
  -30.4320  -11.7498   20.0938 H   0  0  0  0  0  0
  -29.8828  -11.7417   17.6353 H   0  0  0  0  0  0
  -29.5989  -13.4638   17.6813 H   0  0  0  0  0  0
  -27.9776  -11.2762   19.0177 H   0  0  0  0  0  0
  -27.4041  -12.4205   17.8369 H   0  0  0  0  0  0
  -27.5683  -14.2502   19.3783 H   0  0  0  0  0  0
  -28.7718  -12.3995   21.4674 H   0  0  0  0  0  0
  -28.3449  -14.0744   21.7374 H   0  0  0  0  0  0
  -25.2790   -9.5634   22.4795 H   0  0  0  0  0  0
  -23.9994   -7.4608   22.7472 H   0  0  0  0  0  0
  -21.0852   -8.8820   19.8978 H   0  0  0  0  0  0
  -22.3739  -10.9701   19.6195 H   0  0  0  0  0  0
  -21.2043   -7.6162   23.9737 H   0  0  0  0  0  0
  -21.1483   -6.0522   25.9084 H   0  0  0  0  0  0
  -22.0576   -2.7619   23.2834 H   0  0  0  0  0  0
  -22.3963  -11.9935   22.4871 H   0  0  0  0  0  0
  -21.1011  -13.1357   22.2676 H   0  0  0  0  0  0
  -24.6063  -15.8198   20.4857 H   0  0  0  0  0  0
  -26.2181  -15.6470   20.0233 H   0  0  0  0  0  0
  -26.7342  -32.5286   23.0956 H   0  0  0  0  0  0
  -25.0016  -33.9535   25.0232 H   0  0  0  0  0  0
  -22.7672  -31.2832   21.3611 H   0  0  0  0  0  0
  -23.3753  -35.9561   23.3306 H   0  0  0  0  0  0
  -24.3564  -36.8863   22.2048 H   0  0  0  0  0  0
  -23.7258  -37.6434   23.6682 H   0  0  0  0  0  0
  -26.1808  -31.4326   20.6085 H   0  0  0  0  0  0
  -26.8903  -30.7497   22.0317 H   0  0  0  0  0  0
  -28.1444  -28.7123   21.2576 H   0  0  0  0  0  0
  -25.9068  -25.7995   19.0024 H   0  0  0  0  0  0
  -23.9952  -27.2830   18.9693 H   0  0  0  0  0  0
  -23.8385  -30.5436   19.3870 H   0  0  0  0  0  0
  -22.8036  -29.2211   19.8399 H   0  0  0  0  0  0
  -25.1318  -36.1847   25.0787 H   0  0  0  0  0  0
  -21.0035  -28.3413   24.1322 H   0  0  0  0  0  0
  -20.5694  -26.2398   23.3625 H   0  0  0  0  0  0
  -21.6694  -26.7464   22.1222 H   0  0  0  0  0  0
  -19.6949  -25.6298   21.1264 H   0  0  0  0  0  0
  -19.6689  -27.3182   20.6707 H   0  0  0  0  0  0
  -17.4202  -26.6667   21.4034 H   0  0  0  0  0  0
  -18.0364  -26.0094   22.9027 H   0  0  0  0  0  0
  -19.7959  -30.7288   24.2299 H   0  0  0  0  0  0
  -17.5037  -31.6288   24.5159 H   0  0  0  0  0  0
  -15.5381  -30.3031   23.7638 H   0  0  0  0  0  0
  -15.8684  -28.0813   22.7155 H   0  0  0  0  0  0
  -24.5858  -30.7128   25.7666 H   0  0  0  0  0  0
  -24.8874  -32.2938   26.4736 H   0  0  0  0  0  0
  -25.7913  -30.8947   27.0183 H   0  0  0  0  0  0
  -26.3020  -29.6619   24.1308 H   0  0  0  0  0  0
  -27.3985  -29.7251   25.4907 H   0  0  0  0  0  0
  -27.8945  -30.4111   23.9643 H   0  0  0  0  0  0
  -27.2777  -33.3611   26.1981 H   0  0  0  0  0  0
  -28.3975  -32.6725   25.0320 H   0  0  0  0  0  0
  -28.0718  -31.8404   26.5419 H   0  0  0  0  0  0
  -28.2620  -38.0057   24.7503 H   0  0  0  0  0  0
  -28.1046  -36.2587   24.6304 H   0  0  0  0  0  0
  -27.2275  -37.1476   25.8862 H   0  0  0  0  0  0
  -20.9503  -29.8725   21.6667 H   0  0  0  0  0  0
  -26.0150  -38.2800   24.1374 H   0  0  0  0  0  0
  -30.6862  -24.4701   20.7908 H   0  0  0  0  0  0
  -31.2000  -22.8028   20.7674 H   0  0  0  0  0  0
  -30.2057  -23.4158   22.0978 H   0  0  0  0  0  0
  -27.5983  -24.3666   21.4173 H   0  0  0  0  0  0
  -27.1386  -24.1990   19.7767 H   0  0  0  0  0  0
  -29.3679  -23.1054   19.1814 H   0  0  0  0  0  0
  -32.8864  -18.9043   18.0214 H   0  0  0  0  0  0
  -32.5591  -20.5807   18.1586 H   0  0  0  0  0  0
  -28.8133  -16.1762   20.7528 H   0  0  0  0  0  0
  -27.8936  -21.3711   20.9796 H   0  0  0  0  0  0
  1 25  1  0  0  0
  1 30  2  0  0  0
  1 81  1  0  0  0
  2  3  1  0  0  0
  2 25  1  0  0  0
  2 83  1  0  0  0
  2 84  1  0  0  0
  3  4  1  0  0  0
  3 85  1  0  0  0
  3 86  1  0  0  0
  4  5  1  0  0  0
  4 87  1  0  0  0
  4 88  1  0  0  0
  5  6  1  0  0  0
  5 26  1  0  0  0
  5 89  1  0  0  0
  6 25  1  0  0  0
  6 90  1  0  0  0
  6 91  1  0  0  0
  7  8  2  0  0  0
  7 26  1  0  0  0
  7 29  1  0  0  0
  8  9  1  0  0  0
  8 22  1  0  0  0
  9 10  1  0  0  0
  9 27  2  0  0  0
 10 11  2  0  0  0
 10 15  1  0  0  0
 11 12  1  0  0  0
 11 92  1  0  0  0
 12 13  2  0  0  0
 12 93  1  0  0  0
 13 14  1  0  0  0
 13 31  1  0  0  0
 14 15  2  0  0  0
 14 94  1  0  0  0
 15 95  1  0  0  0
 16 17  2  0  0  0
 16 21  1  0  0  0
 16 31  1  0  0  0
 17 18  1  0  0  0
 17 96  1  0  0  0
 18 19  2  0  0  0
 18 97  1  0  0  0
 19 20  1  0  0  0
 19 24  1  0  0  0
 20 21  2  0  0  0
 20 98  1  0  0  0
 21 23  1  0  0  0
 22 28  1  0  0  0
 22 32  2  0  0  0
 26 27  1  0  0  0
 28 99  1  0  0  0
 28100  1  0  0  0
 29101  1  0  0  0
 29102  1  0  0  0
 33 34  1  0  0  0
 33 66  1  0  0  0
 33 70  2  0  0  0
 34 36  1  0  0  0
 34 59  1  0  0  0
 34103  1  0  0  0
 35 44  2  0  0  0
 35 45  1  0  0  0
 35 68  1  0  0  0
 36 56  1  0  0  0
 36104  1  0  0  0
 37 39  1  0  0  0
 37 47  1  0  0  0
 37 66  1  0  0  0
 37105  1  0  0  0
 38 43  2  0  0  0
 38 46  1  0  0  0
 38 47  1  0  0  0
 39 64  1  0  0  0
 39 67  2  0  0  0
 40 52  1  0  0  0
 40 53  2  0  0  0
 40 58  1  0  0  0
 41106  1  0  0  0
 41107  1  0  0  0
 41108  1  0  0  0
 41 48  1  0  0  0
 42 43  1  0  0  0
 42 66  1  0  0  0
 42109  1  0  0  0
 42110  1  0  0  0
 43 44  1  0  0  0
 44111  1  0  0  0
 45 46  2  0  0  0
 45112  1  0  0  0
 46113  1  0  0  0
 47114  1  0  0  0
 47115  1  0  0  0
 48 56  1  0  0  0
 48 65  1  0  0  0
 48116  1  0  0  0
 49 50  1  0  0  0
 49 53  1  0  0  0
 49 64  1  0  0  0
 49117  1  0  0  0
 50 51  1  0  0  0
 50118  1  0  0  0
 50119  1  0  0  0
 51 52  1  0  0  0
 51120  1  0  0  0
 51121  1  0  0  0
 52122  1  0  0  0
 52123  1  0  0  0
 53 54  1  0  0  0
 54 55  2  0  0  0
 54124  1  0  0  0
 55 57  1  0  0  0
 55125  1  0  0  0
 56 69  2  0  0  0
 57 58  2  0  0  0
 57126  1  0  0  0
 58127  1  0  0  0
 59 60  1  0  0  0
 59 61  1  0  0  0
 59 62  1  0  0  0
 60128  1  0  0  0
 60129  1  0  0  0
 60130  1  0  0  0
 61131  1  0  0  0
 61132  1  0  0  0
 61133  1  0  0  0
 62134  1  0  0  0
 62135  1  0  0  0
 62136  1  0  0  0
 63 65  1  0  0  0
 63137  1  0  0  0
 63138  1  0  0  0
 63139  1  0  0  0
 64140  1  0  0  0
 65141  1  0  0  0
 68 75  1  0  0  0
 71 77  2  0  0  0
 71 78  1  0  0  0
 71 80  1  0  0  0
 72 77  1  0  0  0
 72 79  2  0  0  0
 72 81  1  0  0  0
 73 78  2  0  0  0
 73 79  1  0  0  0
 73 82  1  0  0  0
 74142  1  0  0  0
 74143  1  0  0  0
 74144  1  0  0  0
 74 76  1  0  0  0
 75 76  1  0  0  0
 75145  1  0  0  0
 75146  1  0  0  0
 76 82  1  0  0  0
 76147  1  0  0  0
 80148  1  0  0  0
 80149  1  0  0  0
 81150  1  0  0  0
 82151  1  0  0  0
M  ISO  4   1 100  68 101  75 101  81 100
M  END
> <chiral flag>
0

> <version>
0

> <s_m_source_file>
/data/baiqing/PycharmProjects/Reinvent-master-3.2/result/LINK_invent/BTK/process_docking_weight1_custom_product_contain_oxygen_bond_distance_aromatic_linkinvent_7_9_3/rearranged_h_0199.sdf

> <i_m_source_file_index>
8

> <r_mmod_Potential_Energy-OPLS-2005>
-103.629638671875

> <r_mmod_Stretch_Energy-OPLS-2005>
376.032104492188

> <r_mmod_Bend_Energy-OPLS-2005>
322.897674560547

> <r_mmod_Torsional_Energy-OPLS-2005>
211.193786621094

> <r_mmod_Improper_Torsional_Energy-OPLS-2005>
6.53126382827759

> <r_mmod_Van_der_Waal_Energy-OPLS-2005>
143.929702758789

> <r_mmod_Electrostatic_Energy-OPLS-2005>
-1194.83959960938

> <r_mmod_Solvation_Energy-OPLS-2005>
-262.183685302734

> <b_mmod_Minimization_Converged-OPLS-2005>
0

> <r_mmod_RMS_Derivative-OPLS-2005>
7.50587940216064

$$$$
8
                    3D
 Structure written by MMmdl.
166174  0  0  1  0            999 V2000
  -30.6704  -14.7816   20.4537 C   0  0  0  0  0  0
  -30.4270  -12.4848   19.4878 C   0  0  0  0  0  0
  -29.5119  -12.4984   18.2457 C   0  0  0  0  0  0
  -28.0423  -12.3213   18.6650 C   0  0  0  0  0  0
  -27.6393  -13.2428   19.8476 C   0  0  2  0  0  0
  -28.6879  -13.2372   20.9836 C   0  0  0  0  0  0
  -25.2502  -13.8214   20.5740 C   0  0  0  0  0  0
  -24.1805  -13.0440   20.9237 C   0  0  0  0  0  0
  -24.6406  -11.6926   20.8750 C   0  0  0  0  0  0
  -23.9084  -10.4297   21.0396 C   0  0  0  0  0  0
  -24.3630   -9.4217   21.9173 C   0  0  0  0  0  0
  -23.6310   -8.2245   22.0749 C   0  0  0  0  0  0
  -22.4293   -8.0277   21.3539 C   0  0  0  0  0  0
  -21.9932   -9.0256   20.4644 C   0  0  0  0  0  0
  -22.7249  -10.2138   20.3052 C   0  0  0  0  0  0
  -21.6853   -6.0732   22.5268 C   0  0  0  0  0  0
  -21.4021   -6.5638   23.8206 C   0  0  0  0  0  0
  -21.3660   -5.6785   24.9164 C   0  0  0  0  0  0
  -21.6033   -4.3047   24.7213 C   0  0  0  0  0  0
  -21.8829   -3.8147   23.4339 C   0  0  0  0  0  0
  -21.9215   -4.6962   22.3392 C   0  0  0  0  0  0
  -22.7816  -13.5213   21.1890 C   0  0  0  0  0  0
  -22.1665   -4.2141   21.0963 F   0  0  0  0  0  0
  -21.5638   -3.4531   25.7735 F   0  0  0  0  0  0
  -29.9862  -13.5810   20.3880 N   0  0  0  0  0  0
  -26.2942  -12.9444   20.3300 N   0  0  0  0  0  0
  -25.9353  -11.6574   20.5775 N   0  0  0  0  0  0
  -22.0484  -12.8178   22.0432 N   0  0  0  0  0  0
  -25.4174  -15.1947   20.4184 N   0  0  0  0  0  0
  -31.8663  -14.7578   20.1397 O   0  0  0  0  0  0
  -21.6646   -6.8881   21.4233 O   0  0  0  0  0  0
  -22.3486  -14.5513   20.6747 O   0  0  0  0  0  0
  -24.6327  -31.8571   23.1996 C   0  0  0  0  0  0
  -25.9141  -32.4774   23.8346 C   0  0  1  0  0  0
  -27.2203  -27.2368   20.1304 C   0  0  0  0  0  0
  -25.5923  -33.8574   24.2254 N   0  0  0  0  0  0
  -23.4356  -30.4767   21.5424 C   0  0  2  0  0  0
  -24.8814  -28.9270   20.1064 C   0  0  0  0  0  0
  -22.7529  -29.4585   22.4873 C   0  0  0  0  0  0
  -18.0305  -28.1444   22.8471 C   0  0  0  0  0  0
  -24.1505  -36.7321   23.2638 C   0  0  0  0  0  0
  -25.9819  -30.7572   21.3880 C   0  0  0  0  0  0
  -26.0516  -29.3791   20.7270 C   0  0  0  0  0  0
  -27.2196  -28.5453   20.7327 C   0  0  0  0  0  0
  -26.0288  -26.8736   19.4567 C   0  0  0  0  0  0
  -24.8760  -27.6832   19.4598 C   0  0  0  0  0  0
  -23.6581  -29.8218   20.1543 C   0  0  0  0  0  0
  -25.4134  -36.3094   24.0322 C   0  0  1  0  0  0
  -20.5904  -28.3755   23.1261 C   0  0  2  0  0  0
  -20.6806  -26.9479   22.5413 C   0  0  0  0  0  0
  -19.5768  -26.6412   21.5241 C   0  0  0  0  0  0
  -18.1938  -26.7983   22.1639 C   0  0  0  0  0  0
  -19.1559  -28.8912   23.2849 C   0  0  0  0  0  0
  -18.9485  -30.1495   23.8899 C   0  0  0  0  0  0
  -17.6481  -30.6612   24.0578 C   0  0  0  0  0  0
  -25.9062  -34.9452   23.5093 C   0  0  0  0  0  0
  -16.5369  -29.9130   23.6325 C   0  0  0  0  0  0
  -16.7295  -28.6566   23.0317 C   0  0  0  0  0  0
  -26.4500  -31.6618   25.0743 C   0  0  0  0  0  0
  -25.3681  -31.3805   26.1428 C   0  0  0  0  0  0
  -27.0364  -30.3042   24.6257 C   0  0  0  0  0  0
  -27.6045  -32.4375   25.7523 C   0  0  0  0  0  0
  -27.5593  -37.1813   24.8450 C   0  0  0  0  0  0
  -21.4227  -29.3099   22.3640 N   0  0  0  0  0  0
  -26.4309  -37.3784   23.9393 N   0  0  0  0  0  0
  -24.7027  -31.0483   22.1019 N   0  0  0  0  0  0
  -23.4198  -28.8089   23.2964 O   0  0  0  0  0  0
  -28.3206  -26.3370   20.2336 O   0  0  0  0  0  0
  -26.5642  -34.8925   22.4667 O   0  0  0  0  0  0
  -23.5465  -32.1433   23.7269 O   0  0  0  0  0  0
  -32.2306  -18.8184   20.6798 C   0  0  0  0  0  0
  -31.4217  -19.9662   20.7882 C   0  0  0  0  0  0
  -30.0276  -19.7545   20.7512 C   0  0  0  0  0  0
  -30.4222  -17.3756   20.6529 C   0  0  0  0  0  0
  -28.1968  -21.8490   18.8654 C   0  0  0  0  0  0
  -26.7362  -21.5773   19.1807 C   0  0  0  0  0  0
  -32.7977  -20.9832   23.2910 C   0  0  0  0  0  0
  -33.5442  -22.9006   21.8313 C   0  0  0  0  0  0
  -28.8165  -23.6294   20.6887 C   0  0  0  0  0  0
  -28.2785  -24.8864   19.7890 C   0  0  0  0  0  0
  -29.1222  -22.1422   20.0457 C   0  0  1  0  0  0
  -33.1044  -21.4332   21.8557 C   0  0  0  0  0  0
  -31.7369  -17.5708   20.6289 N   0  0  0  0  0  0
  -29.5511  -18.4455   20.7086 N   0  0  0  0  0  0
  -31.9404  -21.2601   20.9933 N   0  0  0  0  0  0
  -29.1703  -20.9108   20.9461 N   0  0  0  0  0  0
  -29.9882  -15.9928   20.6493 N   0  0  0  0  0  0
  -28.5922  -21.7979   17.7015 O   0  0  0  0  0  0
  -31.4665  -12.5848   19.1739 H   0  0  0  0  0  0
  -30.3710  -11.5280   20.0088 H   0  0  0  0  0  0
  -29.8060  -11.7021   17.5598 H   0  0  0  0  0  0
  -29.6334  -13.4372   17.7019 H   0  0  0  0  0  0
  -27.9100  -11.2776   18.9515 H   0  0  0  0  0  0
  -27.3839  -12.4864   17.8115 H   0  0  0  0  0  0
  -27.6158  -14.2524   19.4378 H   0  0  0  0  0  0
  -28.7379  -12.2602   21.4682 H   0  0  0  0  0  0
  -28.4164  -13.9555   21.7587 H   0  0  0  0  0  0
  -25.2778   -9.5684   22.4738 H   0  0  0  0  0  0
  -24.0019   -7.4633   22.7469 H   0  0  0  0  0  0
  -21.0866   -8.8780   19.8944 H   0  0  0  0  0  0
  -22.3711  -10.9682   19.6163 H   0  0  0  0  0  0
  -21.1990   -7.6143   23.9702 H   0  0  0  0  0  0
  -21.1474   -6.0508   25.9058 H   0  0  0  0  0  0
  -22.0619   -2.7612   23.2838 H   0  0  0  0  0  0
  -22.4143  -11.9837   22.4780 H   0  0  0  0  0  0
  -21.1100  -13.1184   22.2680 H   0  0  0  0  0  0
  -24.6559  -15.8492   20.5619 H   0  0  0  0  0  0
  -26.2526  -15.6418   20.0644 H   0  0  0  0  0  0
  -26.7187  -32.5410   23.1060 H   0  0  0  0  0  0
  -25.0062  -33.9753   25.0390 H   0  0  0  0  0  0
  -22.7342  -31.3007   21.3947 H   0  0  0  0  0  0
  -23.3770  -35.9649   23.3298 H   0  0  0  0  0  0
  -24.3583  -36.8985   22.2049 H   0  0  0  0  0  0
  -23.7254  -37.6517   23.6682 H   0  0  0  0  0  0
  -26.1191  -31.5171   20.6181 H   0  0  0  0  0  0
  -26.8580  -30.8078   22.0223 H   0  0  0  0  0  0
  -28.1102  -28.8812   21.2440 H   0  0  0  0  0  0
  -25.9260  -25.9472   18.9174 H   0  0  0  0  0  0
  -23.9865  -27.3346   18.9528 H   0  0  0  0  0  0
  -23.8021  -30.6072   19.4108 H   0  0  0  0  0  0
  -22.7737  -29.2708   19.8350 H   0  0  0  0  0  0
  -25.1300  -36.1971   25.0818 H   0  0  0  0  0  0
  -20.9976  -28.3379   24.1390 H   0  0  0  0  0  0
  -20.5802  -26.2388   23.3646 H   0  0  0  0  0  0
  -21.6661  -26.7574   22.1154 H   0  0  0  0  0  0
  -19.6974  -25.6312   21.1329 H   0  0  0  0  0  0
  -19.6725  -27.3175   20.6734 H   0  0  0  0  0  0
  -17.4223  -26.6741   21.4014 H   0  0  0  0  0  0
  -18.0284  -26.0162   22.9070 H   0  0  0  0  0  0
  -19.7960  -30.7279   24.2308 H   0  0  0  0  0  0
  -17.5046  -31.6288   24.5177 H   0  0  0  0  0  0
  -15.5374  -30.3019   23.7652 H   0  0  0  0  0  0
  -15.8709  -28.0881   22.7005 H   0  0  0  0  0  0
  -24.5853  -30.7178   25.7725 H   0  0  0  0  0  0
  -24.8842  -32.2973   26.4796 H   0  0  0  0  0  0
  -25.7913  -30.9001   27.0255 H   0  0  0  0  0  0
  -26.2963  -29.6782   24.1251 H   0  0  0  0  0  0
  -27.4008  -29.7332   25.4811 H   0  0  0  0  0  0
  -27.8855  -30.4354   23.9549 H   0  0  0  0  0  0
  -27.2662  -33.3715   26.2045 H   0  0  0  0  0  0
  -28.3861  -32.6897   25.0338 H   0  0  0  0  0  0
  -28.0690  -31.8531   26.5488 H   0  0  0  0  0  0
  -28.2567  -38.0147   24.7495 H   0  0  0  0  0  0
  -28.1133  -36.2661   24.6269 H   0  0  0  0  0  0
  -27.2293  -37.1429   25.8849 H   0  0  0  0  0  0
  -20.9430  -29.8878   21.6887 H   0  0  0  0  0  0
  -26.0220  -38.2878   24.1394 H   0  0  0  0  0  0
  -33.3078  -18.8891   20.6741 H   0  0  0  0  0  0
  -26.1037  -22.2923   18.6572 H   0  0  0  0  0  0
  -26.5499  -21.6711   20.2499 H   0  0  0  0  0  0
  -26.4708  -20.5671   18.8731 H   0  0  0  0  0  0
  -33.6393  -21.1832   23.9550 H   0  0  0  0  0  0
  -32.5986  -19.9138   23.3483 H   0  0  0  0  0  0
  -31.9305  -21.5005   23.7026 H   0  0  0  0  0  0
  -34.4074  -23.0618   22.4785 H   0  0  0  0  0  0
  -32.7538  -23.5723   22.1718 H   0  0  0  0  0  0
  -33.8368  -23.2107   20.8277 H   0  0  0  0  0  0
  -28.1117  -23.5143   21.5131 H   0  0  0  0  0  0
  -29.7481  -23.9576   21.1527 H   0  0  0  0  0  0
  -27.2670  -24.5922   19.5303 H   0  0  0  0  0  0
  -28.8253  -24.8634   18.8443 H   0  0  0  0  0  0
  -30.1112  -22.2274   19.5956 H   0  0  0  0  0  0
  -33.9404  -20.8437   21.4763 H   0  0  0  0  0  0
  -31.1995  -21.9406   21.1447 H   0  0  0  0  0  0
  -29.1646  -21.1629   21.9254 H   0  0  0  0  0  0
  -28.9985  -15.8814   20.7895 H   0  0  0  0  0  0
  1 25  1  0  0  0
  1 30  2  0  0  0
  1 87  1  0  0  0
  2  3  1  0  0  0
  2 25  1  0  0  0
  2 89  1  0  0  0
  2 90  1  0  0  0
  3  4  1  0  0  0
  3 91  1  0  0  0
  3 92  1  0  0  0
  4  5  1  0  0  0
  4 93  1  0  0  0
  4 94  1  0  0  0
  5  6  1  0  0  0
  5 26  1  0  0  0
  5 95  1  0  0  0
  6 25  1  0  0  0
  6 96  1  0  0  0
  6 97  1  0  0  0
  7  8  2  0  0  0
  7 26  1  0  0  0
  7 29  1  0  0  0
  8  9  1  0  0  0
  8 22  1  0  0  0
  9 10  1  0  0  0
  9 27  2  0  0  0
 10 11  2  0  0  0
 10 15  1  0  0  0
 11 12  1  0  0  0
 11 98  1  0  0  0
 12 13  2  0  0  0
 12 99  1  0  0  0
 13 14  1  0  0  0
 13 31  1  0  0  0
 14 15  2  0  0  0
 14100  1  0  0  0
 15101  1  0  0  0
 16 17  2  0  0  0
 16 21  1  0  0  0
 16 31  1  0  0  0
 17 18  1  0  0  0
 17102  1  0  0  0
 18 19  2  0  0  0
 18103  1  0  0  0
 19 20  1  0  0  0
 19 24  1  0  0  0
 20 21  2  0  0  0
 20104  1  0  0  0
 21 23  1  0  0  0
 22 28  1  0  0  0
 22 32  2  0  0  0
 26 27  1  0  0  0
 28105  1  0  0  0
 28106  1  0  0  0
 29107  1  0  0  0
 29108  1  0  0  0
 33 34  1  0  0  0
 33 66  1  0  0  0
 33 70  2  0  0  0
 34 36  1  0  0  0
 34 59  1  0  0  0
 34109  1  0  0  0
 35 44  2  0  0  0
 35 45  1  0  0  0
 35 68  1  0  0  0
 36 56  1  0  0  0
 36110  1  0  0  0
 37 39  1  0  0  0
 37 47  1  0  0  0
 37 66  1  0  0  0
 37111  1  0  0  0
 38 43  2  0  0  0
 38 46  1  0  0  0
 38 47  1  0  0  0
 39 64  1  0  0  0
 39 67  2  0  0  0
 40 52  1  0  0  0
 40 53  2  0  0  0
 40 58  1  0  0  0
 41112  1  0  0  0
 41113  1  0  0  0
 41114  1  0  0  0
 41 48  1  0  0  0
 42 43  1  0  0  0
 42 66  1  0  0  0
 42115  1  0  0  0
 42116  1  0  0  0
 43 44  1  0  0  0
 44117  1  0  0  0
 45 46  2  0  0  0
 45118  1  0  0  0
 46119  1  0  0  0
 47120  1  0  0  0
 47121  1  0  0  0
 48 56  1  0  0  0
 48 65  1  0  0  0
 48122  1  0  0  0
 49 50  1  0  0  0
 49 53  1  0  0  0
 49 64  1  0  0  0
 49123  1  0  0  0
 50 51  1  0  0  0
 50124  1  0  0  0
 50125  1  0  0  0
 51 52  1  0  0  0
 51126  1  0  0  0
 51127  1  0  0  0
 52128  1  0  0  0
 52129  1  0  0  0
 53 54  1  0  0  0
 54 55  2  0  0  0
 54130  1  0  0  0
 55 57  1  0  0  0
 55131  1  0  0  0
 56 69  2  0  0  0
 57 58  2  0  0  0
 57132  1  0  0  0
 58133  1  0  0  0
 59 60  1  0  0  0
 59 61  1  0  0  0
 59 62  1  0  0  0
 60134  1  0  0  0
 60135  1  0  0  0
 60136  1  0  0  0
 61137  1  0  0  0
 61138  1  0  0  0
 61139  1  0  0  0
 62140  1  0  0  0
 62141  1  0  0  0
 62142  1  0  0  0
 63 65  1  0  0  0
 63143  1  0  0  0
 63144  1  0  0  0
 63145  1  0  0  0
 64146  1  0  0  0
 65147  1  0  0  0
 68 80  1  0  0  0
 71 72  2  0  0  0
 71 83  1  0  0  0
 71148  1  0  0  0
 72 73  1  0  0  0
 72 85  1  0  0  0
 73 84  2  0  0  0
 73 86  1  0  0  0
 74 83  2  0  0  0
 74 84  1  0  0  0
 74 87  1  0  0  0
 75 76  1  0  0  0
 75 81  1  0  0  0
 75 88  2  0  0  0
 76149  1  0  0  0
 76150  1  0  0  0
 76151  1  0  0  0
 77152  1  0  0  0
 77153  1  0  0  0
 77154  1  0  0  0
 77 82  1  0  0  0
 78 82  1  0  0  0
 78155  1  0  0  0
 78156  1  0  0  0
 78157  1  0  0  0
 79 80  1  0  0  0
 79158  1  0  0  0
 79159  1  0  0  0
 79 81  1  0  0  0
 80160  1  0  0  0
 80161  1  0  0  0
 81 86  1  0  0  0
 81162  1  0  0  0
 82 85  1  0  0  0
 82163  1  0  0  0
 85164  1  0  0  0
 86165  1  0  0  0
 87166  1  0  0  0
M  ISO  4   1 100  68 101  80 101  87 100
M  END
> <chiral flag>
0

> <version>
0

> <s_m_source_file>
/data/baiqing/PycharmProjects/Reinvent-master-3.2/result/LINK_invent/BTK/process_docking_weight1_custom_product_contain_oxygen_bond_distance_aromatic_linkinvent_7_9_3/rearranged_h_0199.sdf

> <i_m_source_file_index>
9

> <r_mmod_Potential_Energy-OPLS-2005>
-276.284057617188

> <r_mmod_Stretch_Energy-OPLS-2005>
145.89111328125

> <r_mmod_Bend_Energy-OPLS-2005>
210.218078613281

> <r_mmod_Torsional_Energy-OPLS-2005>
231.786590576172

> <r_mmod_Improper_Torsional_Energy-OPLS-2005>
13.2766017913818

> <r_mmod_Van_der_Waal_Energy-OPLS-2005>
156.249633789062

> <r_mmod_Electrostatic_Energy-OPLS-2005>
-876.818603515625

> <r_mmod_Solvation_Energy-OPLS-2005>
-260.890777587891

> <b_mmod_Minimization_Converged-OPLS-2005>
0

> <r_mmod_RMS_Derivative-OPLS-2005>
3.59818696975708

$$$$
9
                    3D
 Structure written by MMmdl.
160168  0  0  1  0            999 V2000
  -30.6831  -14.4560   20.6130 C   0  0  0  0  0  0
  -30.4292  -12.3089   19.4109 C   0  0  0  0  0  0
  -29.4908  -12.5201   18.2039 C   0  0  0  0  0  0
  -28.0122  -12.3775   18.6128 C   0  0  0  0  0  0
  -27.6635  -13.1997   19.8790 C   0  0  2  0  0  0
  -28.7018  -12.9448   20.9957 C   0  0  0  0  0  0
  -25.2600  -13.8156   20.5682 C   0  0  0  0  0  0
  -24.1826  -13.0444   20.9154 C   0  0  0  0  0  0
  -24.6371  -11.6903   20.8726 C   0  0  0  0  0  0
  -23.9032  -10.4293   21.0420 C   0  0  0  0  0  0
  -24.3580   -9.4207   21.9199 C   0  0  0  0  0  0
  -23.6264   -8.2227   22.0740 C   0  0  0  0  0  0
  -22.4256   -8.0270   21.3515 C   0  0  0  0  0  0
  -21.9887   -9.0239   20.4637 C   0  0  0  0  0  0
  -22.7208  -10.2128   20.3062 C   0  0  0  0  0  0
  -21.6854   -6.0736   22.5275 C   0  0  0  0  0  0
  -21.4039   -6.5637   23.8216 C   0  0  0  0  0  0
  -21.3650   -5.6784   24.9167 C   0  0  0  0  0  0
  -21.6032   -4.3038   24.7215 C   0  0  0  0  0  0
  -21.8829   -3.8153   23.4328 C   0  0  0  0  0  0
  -21.9192   -4.6969   22.3397 C   0  0  0  0  0  0
  -22.7840  -13.5240   21.1803 C   0  0  0  0  0  0
  -22.1643   -4.2164   21.0961 F   0  0  0  0  0  0
  -21.5608   -3.4515   25.7714 F   0  0  0  0  0  0
  -30.0388  -13.2657   20.4577 N   0  0  0  0  0  0
  -26.3022  -12.9306   20.3352 N   0  0  0  0  0  0
  -25.9290  -11.6468   20.5736 N   0  0  0  0  0  0
  -22.0468  -12.8227   22.0358 N   0  0  0  0  0  0
  -25.4316  -15.1889   20.4092 N   0  0  0  0  0  0
  -31.7956  -14.6848   20.1262 O   0  0  0  0  0  0
  -21.6615   -6.8862   21.4227 O   0  0  0  0  0  0
  -22.3523  -14.5544   20.6676 O   0  0  0  0  0  0
  -24.6144  -31.8653   23.2093 C   0  0  0  0  0  0
  -25.9048  -32.4786   23.8383 C   0  0  1  0  0  0
  -27.2429  -27.4362   20.0966 C   0  0  0  0  0  0
  -25.5943  -33.8589   24.2334 N   0  0  0  0  0  0
  -23.4032  -30.4860   21.5478 C   0  0  2  0  0  0
  -24.8532  -28.9554   20.1119 C   0  0  0  0  0  0
  -22.7377  -29.4654   22.4981 C   0  0  0  0  0  0
  -18.0275  -28.1341   22.8546 C   0  0  0  0  0  0
  -24.1497  -36.7291   23.2636 C   0  0  0  0  0  0
  -25.9322  -30.8317   21.3689 C   0  0  0  0  0  0
  -26.0102  -29.4701   20.7070 C   0  0  0  0  0  0
  -27.2076  -28.7186   20.6903 C   0  0  0  0  0  0
  -26.0638  -26.9327   19.4995 C   0  0  0  0  0  0
  -24.8760  -27.6896   19.5027 C   0  0  0  0  0  0
  -23.6135  -29.8162   20.1628 C   0  0  0  0  0  0
  -25.4113  -36.3069   24.0343 C   0  0  1  0  0  0
  -20.5854  -28.3727   23.1383 C   0  0  2  0  0  0
  -20.6798  -26.9423   22.5606 C   0  0  0  0  0  0
  -19.5823  -26.6273   21.5386 C   0  0  0  0  0  0
  -18.1973  -26.7853   22.1730 C   0  0  0  0  0  0
  -19.1494  -28.8862   23.2938 C   0  0  0  0  0  0
  -18.9363  -30.1482   23.8888 C   0  0  0  0  0  0
  -17.6348  -30.6607   24.0452 C   0  0  0  0  0  0
  -25.9030  -34.9440   23.5122 C   0  0  0  0  0  0
  -16.5270  -29.9046   23.6253 C   0  0  0  0  0  0
  -16.7246  -28.6424   23.0384 C   0  0  0  0  0  0
  -26.4519  -31.6564   25.0697 C   0  0  0  0  0  0
  -25.3795  -31.3666   26.1442 C   0  0  0  0  0  0
  -27.0387  -30.3008   24.6113 C   0  0  0  0  0  0
  -27.6107  -32.4269   25.7465 C   0  0  0  0  0  0
  -27.5578  -37.1790   24.8465 C   0  0  0  0  0  0
  -21.4096  -29.3057   22.3735 N   0  0  0  0  0  0
  -26.4293  -37.3765   23.9405 N   0  0  0  0  0  0
  -24.6669  -31.0746   22.0998 N   0  0  0  0  0  0
  -23.4120  -28.8168   23.3014 O   0  0  0  0  0  0
  -28.4307  -26.7358   20.1135 O   0  0  0  0  0  0
  -26.5551  -34.8893   22.4649 O   0  0  0  0  0  0
  -23.5338  -32.1419   23.7486 O   0  0  0  0  0  0
  -28.9966  -17.4631   20.4830 C   0  0  0  0  0  0
  -28.9552  -18.8767   20.4034 C   0  0  0  0  0  0
  -30.0131  -19.6206   21.0141 C   0  0  0  0  0  0
  -30.0534  -16.8016   21.1362 C   0  0  0  0  0  0
  -31.0231  -18.8470   21.6403 C   0  0  0  0  0  0
  -27.7894  -19.4545   19.7005 C   0  0  0  0  0  0
  -29.7865  -24.7665   20.3136 C   0  0  0  0  0  0
  -29.3396  -22.1711   20.7923 C   0  0  0  0  0  0
  -28.4291  -25.3272   19.8345 C   0  0  0  0  0  0
  -30.1480  -23.2747   20.0593 C   0  0  1  0  0  0
  -31.0482  -17.5074   21.7131 N   0  0  0  0  0  0
  -27.2880  -18.9830   18.6338 N   0  0  0  0  0  0
  -32.0959  -19.4736   22.2633 N   0  0  0  0  0  0
  -30.2168  -21.0277   21.0907 N   0  0  0  0  0  0
  -29.9532  -15.3901   21.2528 N   0  0  0  0  0  0
  -30.1079  -22.9621   18.6837 O   0  0  0  0  0  0
  -31.4718  -12.4259   19.1056 H   0  0  0  0  0  0
  -30.3411  -11.2874   19.7837 H   0  0  0  0  0  0
  -29.7235  -11.8014   17.4177 H   0  0  0  0  0  0
  -29.6592  -13.5094   17.7774 H   0  0  0  0  0  0
  -27.8169  -11.3187   18.7884 H   0  0  0  0  0  0
  -27.3590  -12.6690   17.7889 H   0  0  0  0  0  0
  -27.7176  -14.2519   19.6017 H   0  0  0  0  0  0
  -28.6739  -11.8985   21.3033 H   0  0  0  0  0  0
  -28.4544  -13.5066   21.8966 H   0  0  0  0  0  0
  -25.2712   -9.5668   22.4782 H   0  0  0  0  0  0
  -23.9985   -7.4613   22.7451 H   0  0  0  0  0  0
  -21.0812   -8.8747   19.8939 H   0  0  0  0  0  0
  -22.3664  -10.9648   19.6171 H   0  0  0  0  0  0
  -21.2067   -7.6151   23.9725 H   0  0  0  0  0  0
  -21.1441   -6.0502   25.9065 H   0  0  0  0  0  0
  -22.0624   -2.7616   23.2819 H   0  0  0  0  0  0
  -22.4047  -11.9914   22.4804 H   0  0  0  0  0  0
  -21.1096  -13.1300   22.2546 H   0  0  0  0  0  0
  -24.6603  -15.8410   20.5043 H   0  0  0  0  0  0
  -26.2672  -15.6173   20.0368 H   0  0  0  0  0  0
  -26.7097  -32.5511   23.1127 H   0  0  0  0  0  0
  -25.0184  -33.9800   25.0544 H   0  0  0  0  0  0
  -22.6947  -31.3026   21.4011 H   0  0  0  0  0  0
  -23.3758  -35.9627   23.3305 H   0  0  0  0  0  0
  -24.3587  -36.8886   22.2041 H   0  0  0  0  0  0
  -23.7258  -37.6511   23.6647 H   0  0  0  0  0  0
  -26.0534  -31.6124   20.6167 H   0  0  0  0  0  0
  -26.8129  -30.8692   21.9990 H   0  0  0  0  0  0
  -28.1050  -29.1172   21.1462 H   0  0  0  0  0  0
  -26.0459  -25.9664   19.0170 H   0  0  0  0  0  0
  -23.9873  -27.2946   19.0282 H   0  0  0  0  0  0
  -23.7125  -30.5869   19.3974 H   0  0  0  0  0  0
  -22.7423  -29.2247   19.8711 H   0  0  0  0  0  0
  -25.1289  -36.1928   25.0847 H   0  0  0  0  0  0
  -20.9930  -28.3373   24.1518 H   0  0  0  0  0  0
  -20.5672  -26.2368   23.3874 H   0  0  0  0  0  0
  -21.6677  -26.7417   22.1459 H   0  0  0  0  0  0
  -19.7016  -25.6111   21.1607 H   0  0  0  0  0  0
  -19.6803  -27.2934   20.6795 H   0  0  0  0  0  0
  -17.4247  -26.6484   21.4147 H   0  0  0  0  0  0
  -18.0397  -26.0064   22.9200 H   0  0  0  0  0  0
  -19.7814  -30.7351   24.2243 H   0  0  0  0  0  0
  -17.4852  -31.6329   24.4939 H   0  0  0  0  0  0
  -15.5239  -30.2904   23.7575 H   0  0  0  0  0  0
  -15.8656  -28.0680   22.7182 H   0  0  0  0  0  0
  -24.5983  -30.7012   25.7769 H   0  0  0  0  0  0
  -24.8988  -32.2822   26.4888 H   0  0  0  0  0  0
  -25.8148  -30.8824   27.0190 H   0  0  0  0  0  0
  -26.2970  -29.6722   24.1177 H   0  0  0  0  0  0
  -27.4167  -29.7279   25.4598 H   0  0  0  0  0  0
  -27.8807  -30.4325   23.9306 H   0  0  0  0  0  0
  -27.2759  -33.3560   26.2094 H   0  0  0  0  0  0
  -28.3924  -32.6810   25.0292 H   0  0  0  0  0  0
  -28.0801  -31.8348   26.5340 H   0  0  0  0  0  0
  -28.2569  -38.0098   24.7503 H   0  0  0  0  0  0
  -28.1086  -36.2624   24.6308 H   0  0  0  0  0  0
  -27.2292  -37.1460   25.8864 H   0  0  0  0  0  0
  -20.9208  -29.8743   21.6959 H   0  0  0  0  0  0
  -26.0174  -38.2850   24.1384 H   0  0  0  0  0  0
  -28.1929  -16.8852   20.0515 H   0  0  0  0  0  0
  -27.3151  -20.3125   20.1722 H   0  0  0  0  0  0
  -29.8728  -24.9650   21.3837 H   0  0  0  0  0  0
  -30.5714  -25.3730   19.8586 H   0  0  0  0  0  0
  -28.4429  -21.9441   20.2275 H   0  0  0  0  0  0
  -28.9931  -22.5556   21.7521 H   0  0  0  0  0  0
  -27.6113  -24.8205   20.3515 H   0  0  0  0  0  0
  -28.3018  -25.1655   18.7641 H   0  0  0  0  0  0
  -31.1929  -23.1793   20.3658 H   0  0  0  0  0  0
  -27.8220  -18.1814   18.3156 H   0  0  0  0  0  0
  -32.8584  -18.8565   22.5058 H   0  0  0  0  0  0
  -32.4226  -20.3010   21.7835 H   0  0  0  0  0  0
  -30.9062  -21.2340   21.8128 H   0  0  0  0  0  0
  -29.0697  -15.0390   21.5891 H   0  0  0  0  0  0
  -30.3286  -22.0348   18.6271 H   0  0  0  0  0  0
  1 25  1  0  0  0
  1 30  2  0  0  0
  1 85  1  0  0  0
  2  3  1  0  0  0
  2 25  1  0  0  0
  2 87  1  0  0  0
  2 88  1  0  0  0
  3  4  1  0  0  0
  3 89  1  0  0  0
  3 90  1  0  0  0
  4  5  1  0  0  0
  4 91  1  0  0  0
  4 92  1  0  0  0
  5  6  1  0  0  0
  5 26  1  0  0  0
  5 93  1  0  0  0
  6 25  1  0  0  0
  6 94  1  0  0  0
  6 95  1  0  0  0
  7  8  2  0  0  0
  7 26  1  0  0  0
  7 29  1  0  0  0
  8  9  1  0  0  0
  8 22  1  0  0  0
  9 10  1  0  0  0
  9 27  2  0  0  0
 10 11  2  0  0  0
 10 15  1  0  0  0
 11 12  1  0  0  0
 11 96  1  0  0  0
 12 13  2  0  0  0
 12 97  1  0  0  0
 13 14  1  0  0  0
 13 31  1  0  0  0
 14 15  2  0  0  0
 14 98  1  0  0  0
 15 99  1  0  0  0
 16 17  2  0  0  0
 16 21  1  0  0  0
 16 31  1  0  0  0
 17 18  1  0  0  0
 17100  1  0  0  0
 18 19  2  0  0  0
 18101  1  0  0  0
 19 20  1  0  0  0
 19 24  1  0  0  0
 20 21  2  0  0  0
 20102  1  0  0  0
 21 23  1  0  0  0
 22 28  1  0  0  0
 22 32  2  0  0  0
 26 27  1  0  0  0
 28103  1  0  0  0
 28104  1  0  0  0
 29105  1  0  0  0
 29106  1  0  0  0
 33 34  1  0  0  0
 33 66  1  0  0  0
 33 70  2  0  0  0
 34 36  1  0  0  0
 34 59  1  0  0  0
 34107  1  0  0  0
 35 44  2  0  0  0
 35 45  1  0  0  0
 35 68  1  0  0  0
 36 56  1  0  0  0
 36108  1  0  0  0
 37 39  1  0  0  0
 37 47  1  0  0  0
 37 66  1  0  0  0
 37109  1  0  0  0
 38 43  2  0  0  0
 38 46  1  0  0  0
 38 47  1  0  0  0
 39 64  1  0  0  0
 39 67  2  0  0  0
 40 52  1  0  0  0
 40 53  2  0  0  0
 40 58  1  0  0  0
 41110  1  0  0  0
 41111  1  0  0  0
 41112  1  0  0  0
 41 48  1  0  0  0
 42 43  1  0  0  0
 42 66  1  0  0  0
 42113  1  0  0  0
 42114  1  0  0  0
 43 44  1  0  0  0
 44115  1  0  0  0
 45 46  2  0  0  0
 45116  1  0  0  0
 46117  1  0  0  0
 47118  1  0  0  0
 47119  1  0  0  0
 48 56  1  0  0  0
 48 65  1  0  0  0
 48120  1  0  0  0
 49 50  1  0  0  0
 49 53  1  0  0  0
 49 64  1  0  0  0
 49121  1  0  0  0
 50 51  1  0  0  0
 50122  1  0  0  0
 50123  1  0  0  0
 51 52  1  0  0  0
 51124  1  0  0  0
 51125  1  0  0  0
 52126  1  0  0  0
 52127  1  0  0  0
 53 54  1  0  0  0
 54 55  2  0  0  0
 54128  1  0  0  0
 55 57  1  0  0  0
 55129  1  0  0  0
 56 69  2  0  0  0
 57 58  2  0  0  0
 57130  1  0  0  0
 58131  1  0  0  0
 59 60  1  0  0  0
 59 61  1  0  0  0
 59 62  1  0  0  0
 60132  1  0  0  0
 60133  1  0  0  0
 60134  1  0  0  0
 61135  1  0  0  0
 61136  1  0  0  0
 61137  1  0  0  0
 62138  1  0  0  0
 62139  1  0  0  0
 62140  1  0  0  0
 63 65  1  0  0  0
 63141  1  0  0  0
 63142  1  0  0  0
 63143  1  0  0  0
 64144  1  0  0  0
 65145  1  0  0  0
 68 79  1  0  0  0
 71 72  2  0  0  0
 71 74  1  0  0  0
 71146  1  0  0  0
 72 73  1  0  0  0
 72 76  1  0  0  0
 73 75  2  0  0  0
 73 84  1  0  0  0
 74 81  2  0  0  0
 74 85  1  0  0  0
 75 81  1  0  0  0
 75 83  1  0  0  0
 76 82  2  0  0  0
 76147  1  0  0  0
 77 79  1  0  0  0
 77 80  1  0  0  0
 77148  1  0  0  0
 77149  1  0  0  0
 78 80  1  0  0  0
 78 84  1  0  0  0
 78150  1  0  0  0
 78151  1  0  0  0
 79152  1  0  0  0
 79153  1  0  0  0
 80 86  1  0  0  0
 80154  1  0  0  0
 82155  1  0  0  0
 83156  1  0  0  0
 83157  1  0  0  0
 84158  1  0  0  0
 85159  1  0  0  0
 86160  1  0  0  0
M  ISO  4   1 100  68 101  79 101  85 100
M  END
> <chiral flag>
0

> <version>
0

> <s_m_source_file>
/data/baiqing/PycharmProjects/Reinvent-master-3.2/result/LINK_invent/BTK/process_docking_weight1_custom_product_contain_oxygen_bond_distance_aromatic_linkinvent_7_9_3/rearranged_h_0199.sdf

> <i_m_source_file_index>
10

> <r_mmod_Potential_Energy-OPLS-2005>
-266.075988769531

> <r_mmod_Stretch_Energy-OPLS-2005>
40.3510360717773

> <r_mmod_Bend_Energy-OPLS-2005>
157.008316040039

> <r_mmod_Torsional_Energy-OPLS-2005>
264.768737792969

> <r_mmod_Improper_Torsional_Energy-OPLS-2005>
11.3493041992188

> <r_mmod_Van_der_Waal_Energy-OPLS-2005>
165.947021484375

> <r_mmod_Electrostatic_Energy-OPLS-2005>
-643.212341308594

> <r_mmod_Solvation_Energy-OPLS-2005>
-273.732879638672

> <b_mmod_Minimization_Converged-OPLS-2005>
0

> <r_mmod_RMS_Derivative-OPLS-2005>
4.10866546630859

$$$$
10
                    3D
 Structure written by MMmdl.
152160  0  0  1  0            999 V2000
  -30.6280  -14.6356   20.4974 C   0  0  0  0  0  0
  -30.4388  -12.3877   19.4503 C   0  0  0  0  0  0
  -29.5087  -12.5090   18.2227 C   0  0  0  0  0  0
  -28.0309  -12.3489   18.6325 C   0  0  0  0  0  0
  -27.6544  -13.2157   19.8633 C   0  0  2  0  0  0
  -28.7003  -13.0690   20.9922 C   0  0  0  0  0  0
  -25.2570  -13.8168   20.5688 C   0  0  0  0  0  0
  -24.1834  -13.0439   20.9197 C   0  0  0  0  0  0
  -24.6398  -11.6909   20.8737 C   0  0  0  0  0  0
  -23.9065  -10.4294   21.0401 C   0  0  0  0  0  0
  -24.3614   -9.4208   21.9176 C   0  0  0  0  0  0
  -23.6288   -8.2244   22.0752 C   0  0  0  0  0  0
  -22.4267   -8.0284   21.3549 C   0  0  0  0  0  0
  -21.9903   -9.0258   20.4653 C   0  0  0  0  0  0
  -22.7235  -10.2135   20.3054 C   0  0  0  0  0  0
  -21.6857   -6.0732   22.5277 C   0  0  0  0  0  0
  -21.4018   -6.5632   23.8209 C   0  0  0  0  0  0
  -21.3659   -5.6786   24.9172 C   0  0  0  0  0  0
  -21.6043   -4.3050   24.7225 C   0  0  0  0  0  0
  -21.8819   -3.8144   23.4346 C   0  0  0  0  0  0
  -21.9195   -4.6960   22.3401 C   0  0  0  0  0  0
  -22.7857  -13.5236   21.1853 C   0  0  0  0  0  0
  -22.1664   -4.2145   21.0979 F   0  0  0  0  0  0
  -21.5627   -3.4535   25.7738 F   0  0  0  0  0  0
  -30.0171  -13.4089   20.4293 N   0  0  0  0  0  0
  -26.2994  -12.9346   20.3312 N   0  0  0  0  0  0
  -25.9324  -11.6505   20.5744 N   0  0  0  0  0  0
  -22.0494  -12.8236   22.0412 N   0  0  0  0  0  0
  -25.4284  -15.1889   20.4095 N   0  0  0  0  0  0
  -31.7966  -14.7816   20.1229 O   0  0  0  0  0  0
  -21.6638   -6.8878   21.4242 O   0  0  0  0  0  0
  -22.3550  -14.5540   20.6695 O   0  0  0  0  0  0
  -24.6259  -31.8613   23.2046 C   0  0  0  0  0  0
  -25.9112  -32.4786   23.8368 C   0  0  1  0  0  0
  -27.2223  -27.3268   20.1119 C   0  0  0  0  0  0
  -25.5929  -33.8587   24.2294 N   0  0  0  0  0  0
  -23.4184  -30.4868   21.5478 C   0  0  2  0  0  0
  -24.8641  -28.9461   20.1138 C   0  0  0  0  0  0
  -22.7472  -29.4630   22.4943 C   0  0  0  0  0  0
  -18.0284  -28.1384   22.8485 C   0  0  0  0  0  0
  -24.1485  -36.7297   23.2633 C   0  0  0  0  0  0
  -25.9603  -30.7956   21.3741 C   0  0  0  0  0  0
  -26.0349  -29.4240   20.7159 C   0  0  0  0  0  0
  -27.2186  -28.6271   20.7044 C   0  0  0  0  0  0
  -26.0276  -26.9074   19.4803 C   0  0  0  0  0  0
  -24.8622  -27.6925   19.4881 C   0  0  0  0  0  0
  -23.6328  -29.8257   20.1623 C   0  0  0  0  0  0
  -25.4106  -36.3086   24.0329 C   0  0  1  0  0  0
  -20.5884  -28.3686   23.1287 C   0  0  2  0  0  0
  -20.6774  -26.9409   22.5412 C   0  0  0  0  0  0
  -19.5747  -26.6381   21.5215 C   0  0  0  0  0  0
  -18.1927  -26.7925   22.1628 C   0  0  0  0  0  0
  -19.1537  -28.8853   23.2880 C   0  0  0  0  0  0
  -18.9460  -30.1457   23.8893 C   0  0  0  0  0  0
  -17.6458  -30.6584   24.0566 C   0  0  0  0  0  0
  -25.9050  -34.9456   23.5111 C   0  0  0  0  0  0
  -16.5350  -29.9084   23.6325 C   0  0  0  0  0  0
  -16.7271  -28.6504   23.0342 C   0  0  0  0  0  0
  -26.4495  -31.6588   25.0732 C   0  0  0  0  0  0
  -25.3734  -31.3741   26.1468 C   0  0  0  0  0  0
  -27.0319  -30.3003   24.6184 C   0  0  0  0  0  0
  -27.6059  -32.4315   25.7500 C   0  0  0  0  0  0
  -27.5585  -37.1787   24.8452 C   0  0  0  0  0  0
  -21.4185  -29.3043   22.3685 N   0  0  0  0  0  0
  -26.4280  -37.3785   23.9423 N   0  0  0  0  0  0
  -24.6870  -31.0640   22.0990 N   0  0  0  0  0  0
  -23.4202  -28.8153   23.3005 O   0  0  0  0  0  0
  -28.3385  -26.4758   20.1408 O   0  0  0  0  0  0
  -26.5614  -34.8921   22.4674 O   0  0  0  0  0  0
  -23.5425  -32.1405   23.7383 O   0  0  0  0  0  0
  -28.6698  -19.2875   20.7682 C   0  0  0  0  0  0
  -28.7071  -17.8691   20.8861 C   0  0  0  0  0  0
  -30.9982  -19.1908   20.2862 C   0  0  0  0  0  0
  -29.8479  -20.0118   20.4615 C   0  0  0  0  0  0
  -29.9027  -17.1294   20.6888 C   0  0  0  0  0  0
  -28.8206  -22.4325   20.3763 C   0  0  0  0  0  0
  -28.0796  -25.0342   20.3781 C   0  0  0  0  0  0
  -29.2591  -23.9690   20.3017 C   0  0  1  0  0  0
  -31.0296  -17.8273   20.3885 N   0  0  0  0  0  0
  -29.9376  -21.4420   20.3408 N   0  0  0  0  0  0
  -29.8074  -15.6805   20.8360 N   0  0  0  0  0  0
  -30.1213  -24.1547   21.4119 O   0  0  0  0  0  0
  -31.4808  -12.5073   19.1478 H   0  0  0  0  0  0
  -30.3683  -11.3913   19.8889 H   0  0  0  0  0  0
  -29.7715  -11.7602   17.4747 H   0  0  0  0  0  0
  -29.6544  -13.4797   17.7460 H   0  0  0  0  0  0
  -27.8630  -11.2953   18.8582 H   0  0  0  0  0  0
  -27.3793  -12.5874   17.7912 H   0  0  0  0  0  0
  -27.6726  -14.2509   19.5227 H   0  0  0  0  0  0
  -28.7102  -12.0473   21.3751 H   0  0  0  0  0  0
  -28.4477  -13.7005   21.8453 H   0  0  0  0  0  0
  -25.2761   -9.5683   22.4749 H   0  0  0  0  0  0
  -24.0003   -7.4634   22.7463 H   0  0  0  0  0  0
  -21.0836   -8.8777   19.8959 H   0  0  0  0  0  0
  -22.3692  -10.9671   19.6164 H   0  0  0  0  0  0
  -21.2011   -7.6140   23.9707 H   0  0  0  0  0  0
  -21.1480   -6.0521   25.9073 H   0  0  0  0  0  0
  -22.0600   -2.7609   23.2846 H   0  0  0  0  0  0
  -22.4106  -11.9903   22.4814 H   0  0  0  0  0  0
  -21.1112  -13.1268   22.2604 H   0  0  0  0  0  0
  -24.6553  -15.8377   20.5100 H   0  0  0  0  0  0
  -26.2579  -15.6227   20.0273 H   0  0  0  0  0  0
  -26.7182  -32.5463   23.1119 H   0  0  0  0  0  0
  -25.0071  -33.9738   25.0435 H   0  0  0  0  0  0
  -22.7112  -31.3069   21.4073 H   0  0  0  0  0  0
  -23.3758  -35.9616   23.3263 H   0  0  0  0  0  0
  -24.3593  -36.8953   22.2056 H   0  0  0  0  0  0
  -23.7220  -37.6482   23.6676 H   0  0  0  0  0  0
  -26.0909  -31.5598   20.6067 H   0  0  0  0  0  0
  -26.8413  -30.8446   22.0024 H   0  0  0  0  0  0
  -28.1174  -28.9919   21.1818 H   0  0  0  0  0  0
  -25.9594  -25.9654   18.9609 H   0  0  0  0  0  0
  -23.9672  -27.3238   19.0061 H   0  0  0  0  0  0
  -23.7541  -30.6037   19.4078 H   0  0  0  0  0  0
  -22.7527  -29.2567   19.8572 H   0  0  0  0  0  0
  -25.1275  -36.1933   25.0818 H   0  0  0  0  0  0
  -20.9978  -28.3261   24.1408 H   0  0  0  0  0  0
  -20.5676  -26.2293   23.3609 H   0  0  0  0  0  0
  -21.6643  -26.7437   22.1206 H   0  0  0  0  0  0
  -19.6905  -25.6292   21.1241 H   0  0  0  0  0  0
  -19.6676  -27.3191   20.6745 H   0  0  0  0  0  0
  -17.4192  -26.6668   21.4034 H   0  0  0  0  0  0
  -18.0328  -26.0072   22.9028 H   0  0  0  0  0  0
  -19.7938  -30.7276   24.2252 H   0  0  0  0  0  0
  -17.5014  -31.6263   24.5170 H   0  0  0  0  0  0
  -15.5348  -30.2985   23.7647 H   0  0  0  0  0  0
  -15.8674  -28.0823   22.7048 H   0  0  0  0  0  0
  -24.5888  -30.7109   25.7809 H   0  0  0  0  0  0
  -24.8952  -32.2918   26.4902 H   0  0  0  0  0  0
  -25.8065  -30.8912   27.0237 H   0  0  0  0  0  0
  -26.2884  -29.6769   24.1204 H   0  0  0  0  0  0
  -27.3999  -29.7248   25.4689 H   0  0  0  0  0  0
  -27.8765  -30.4270   23.9407 H   0  0  0  0  0  0
  -27.2670  -33.3619   26.2070 H   0  0  0  0  0  0
  -28.3871  -32.6872   25.0329 H   0  0  0  0  0  0
  -28.0718  -31.8443   26.5423 H   0  0  0  0  0  0
  -28.2557  -38.0129   24.7572 H   0  0  0  0  0  0
  -28.1124  -36.2668   24.6173 H   0  0  0  0  0  0
  -27.2325  -37.1320   25.8857 H   0  0  0  0  0  0
  -20.9354  -29.8786   21.6919 H   0  0  0  0  0  0
  -26.0158  -38.2847   24.1474 H   0  0  0  0  0  0
  -27.7360  -19.8068   20.9259 H   0  0  0  0  0  0
  -27.7874  -17.3566   21.1311 H   0  0  0  0  0  0
  -31.9475  -19.6510   20.0522 H   0  0  0  0  0  0
  -28.1529  -22.2233   19.5380 H   0  0  0  0  0  0
  -28.2258  -22.2643   21.2758 H   0  0  0  0  0  0
  -27.5703  -24.9383   21.3385 H   0  0  0  0  0  0
  -27.3736  -24.6706   19.6360 H   0  0  0  0  0  0
  -29.8172  -24.1417   19.3797 H   0  0  0  0  0  0
  -30.8616  -21.8450   20.1903 H   0  0  0  0  0  0
  -28.9000  -15.3619   21.1312 H   0  0  0  0  0  0
  -29.7283  -23.6976   22.1485 H   0  0  0  0  0  0
  1 25  1  0  0  0
  1 30  2  0  0  0
  1 81  1  0  0  0
  2  3  1  0  0  0
  2 25  1  0  0  0
  2 83  1  0  0  0
  2 84  1  0  0  0
  3  4  1  0  0  0
  3 85  1  0  0  0
  3 86  1  0  0  0
  4  5  1  0  0  0
  4 87  1  0  0  0
  4 88  1  0  0  0
  5  6  1  0  0  0
  5 26  1  0  0  0
  5 89  1  0  0  0
  6 25  1  0  0  0
  6 90  1  0  0  0
  6 91  1  0  0  0
  7  8  2  0  0  0
  7 26  1  0  0  0
  7 29  1  0  0  0
  8  9  1  0  0  0
  8 22  1  0  0  0
  9 10  1  0  0  0
  9 27  2  0  0  0
 10 11  2  0  0  0
 10 15  1  0  0  0
 11 12  1  0  0  0
 11 92  1  0  0  0
 12 13  2  0  0  0
 12 93  1  0  0  0
 13 14  1  0  0  0
 13 31  1  0  0  0
 14 15  2  0  0  0
 14 94  1  0  0  0
 15 95  1  0  0  0
 16 17  2  0  0  0
 16 21  1  0  0  0
 16 31  1  0  0  0
 17 18  1  0  0  0
 17 96  1  0  0  0
 18 19  2  0  0  0
 18 97  1  0  0  0
 19 20  1  0  0  0
 19 24  1  0  0  0
 20 21  2  0  0  0
 20 98  1  0  0  0
 21 23  1  0  0  0
 22 28  1  0  0  0
 22 32  2  0  0  0
 26 27  1  0  0  0
 28 99  1  0  0  0
 28100  1  0  0  0
 29101  1  0  0  0
 29102  1  0  0  0
 33 34  1  0  0  0
 33 66  1  0  0  0
 33 70  2  0  0  0
 34 36  1  0  0  0
 34 59  1  0  0  0
 34103  1  0  0  0
 35 44  2  0  0  0
 35 45  1  0  0  0
 35 68  1  0  0  0
 36 56  1  0  0  0
 36104  1  0  0  0
 37 39  1  0  0  0
 37 47  1  0  0  0
 37 66  1  0  0  0
 37105  1  0  0  0
 38 43  2  0  0  0
 38 46  1  0  0  0
 38 47  1  0  0  0
 39 64  1  0  0  0
 39 67  2  0  0  0
 40 52  1  0  0  0
 40 53  2  0  0  0
 40 58  1  0  0  0
 41106  1  0  0  0
 41107  1  0  0  0
 41108  1  0  0  0
 41 48  1  0  0  0
 42 43  1  0  0  0
 42 66  1  0  0  0
 42109  1  0  0  0
 42110  1  0  0  0
 43 44  1  0  0  0
 44111  1  0  0  0
 45 46  2  0  0  0
 45112  1  0  0  0
 46113  1  0  0  0
 47114  1  0  0  0
 47115  1  0  0  0
 48 56  1  0  0  0
 48 65  1  0  0  0
 48116  1  0  0  0
 49 50  1  0  0  0
 49 53  1  0  0  0
 49 64  1  0  0  0
 49117  1  0  0  0
 50 51  1  0  0  0
 50118  1  0  0  0
 50119  1  0  0  0
 51 52  1  0  0  0
 51120  1  0  0  0
 51121  1  0  0  0
 52122  1  0  0  0
 52123  1  0  0  0
 53 54  1  0  0  0
 54 55  2  0  0  0
 54124  1  0  0  0
 55 57  1  0  0  0
 55125  1  0  0  0
 56 69  2  0  0  0
 57 58  2  0  0  0
 57126  1  0  0  0
 58127  1  0  0  0
 59 60  1  0  0  0
 59 61  1  0  0  0
 59 62  1  0  0  0
 60128  1  0  0  0
 60129  1  0  0  0
 60130  1  0  0  0
 61131  1  0  0  0
 61132  1  0  0  0
 61133  1  0  0  0
 62134  1  0  0  0
 62135  1  0  0  0
 62136  1  0  0  0
 63 65  1  0  0  0
 63137  1  0  0  0
 63138  1  0  0  0
 63139  1  0  0  0
 64140  1  0  0  0
 65141  1  0  0  0
 68 77  1  0  0  0
 71 72  2  0  0  0
 71 74  1  0  0  0
 71142  1  0  0  0
 72 75  1  0  0  0
 72143  1  0  0  0
 73 74  2  0  0  0
 73 79  1  0  0  0
 73144  1  0  0  0
 74 80  1  0  0  0
 75 79  2  0  0  0
 75 81  1  0  0  0
 76 78  1  0  0  0
 76 80  1  0  0  0
 76145  1  0  0  0
 76146  1  0  0  0
 77 78  1  0  0  0
 77147  1  0  0  0
 77148  1  0  0  0
 78 82  1  0  0  0
 78149  1  0  0  0
 80150  1  0  0  0
 81151  1  0  0  0
 82152  1  0  0  0
M  ISO  4   1 100  68 101  77 101  81 100
M  END
> <chiral flag>
0

> <version>
0

> <s_m_source_file>
/data/baiqing/PycharmProjects/Reinvent-master-3.2/result/LINK_invent/BTK/process_docking_weight1_custom_product_contain_oxygen_bond_distance_aromatic_linkinvent_7_9_3/rearranged_h_0199.sdf

> <i_m_source_file_index>
11

> <r_mmod_Potential_Energy-OPLS-2005>
-53.1477890014648

> <r_mmod_Stretch_Energy-OPLS-2005>
75.6783676147461

> <r_mmod_Bend_Energy-OPLS-2005>
148.355484008789

> <r_mmod_Torsional_Energy-OPLS-2005>
229.803817749023

> <r_mmod_Improper_Torsional_Energy-OPLS-2005>
4.32048940658569

> <r_mmod_Van_der_Waal_Energy-OPLS-2005>
147.069000244141

> <r_mmod_Electrostatic_Energy-OPLS-2005>
-432.38671875

> <r_mmod_Solvation_Energy-OPLS-2005>
-271.690826416016

> <b_mmod_Minimization_Converged-OPLS-2005>
0

> <r_mmod_RMS_Derivative-OPLS-2005>
0.941344141960144

$$$$
11
                    3D
 Structure written by MMmdl.
154162  0  0  1  0            999 V2000
  -30.6918  -14.4992   20.5467 C   0  0  0  0  0  0
  -30.4240  -12.3120   19.4348 C   0  0  0  0  0  0
  -29.4984  -12.5006   18.2144 C   0  0  0  0  0  0
  -28.0197  -12.3579   18.6246 C   0  0  0  0  0  0
  -27.6608  -13.2078   19.8728 C   0  0  2  0  0  0
  -28.7021  -13.0059   20.9984 C   0  0  0  0  0  0
  -25.2584  -13.8162   20.5672 C   0  0  0  0  0  0
  -24.1837  -13.0436   20.9168 C   0  0  0  0  0  0
  -24.6396  -11.6905   20.8740 C   0  0  0  0  0  0
  -23.9066  -10.4286   21.0404 C   0  0  0  0  0  0
  -24.3617   -9.4203   21.9182 C   0  0  0  0  0  0
  -23.6291   -8.2243   22.0753 C   0  0  0  0  0  0
  -22.4273   -8.0282   21.3545 C   0  0  0  0  0  0
  -21.9909   -9.0254   20.4646 C   0  0  0  0  0  0
  -22.7239  -10.2132   20.3052 C   0  0  0  0  0  0
  -21.6857   -6.0737   22.5279 C   0  0  0  0  0  0
  -21.4014   -6.5640   23.8212 C   0  0  0  0  0  0
  -21.3658   -5.6792   24.9176 C   0  0  0  0  0  0
  -21.6045   -4.3056   24.7225 C   0  0  0  0  0  0
  -21.8819   -3.8150   23.4345 C   0  0  0  0  0  0
  -21.9191   -4.6965   22.3401 C   0  0  0  0  0  0
  -22.7858  -13.5237   21.1831 C   0  0  0  0  0  0
  -22.1659   -4.2150   21.0978 F   0  0  0  0  0  0
  -21.5628   -3.4542   25.7741 F   0  0  0  0  0  0
  -30.0348  -13.3081   20.4468 N   0  0  0  0  0  0
  -26.3023  -12.9337   20.3361 N   0  0  0  0  0  0
  -25.9325  -11.6497   20.5772 N   0  0  0  0  0  0
  -22.0501  -12.8235   22.0391 N   0  0  0  0  0  0
  -25.4305  -15.1881   20.4080 N   0  0  0  0  0  0
  -31.8346  -14.6440   20.0962 O   0  0  0  0  0  0
  -21.6638   -6.8879   21.4242 O   0  0  0  0  0  0
  -22.3545  -14.5547   20.6684 O   0  0  0  0  0  0
  -24.6164  -31.8682   23.2094 C   0  0  0  0  0  0
  -25.9054  -32.4821   23.8396 C   0  0  1  0  0  0
  -27.2262  -27.4200   20.0959 C   0  0  0  0  0  0
  -25.5901  -33.8616   24.2323 N   0  0  0  0  0  0
  -23.4035  -30.4943   21.5500 C   0  0  2  0  0  0
  -24.8472  -28.9620   20.1106 C   0  0  0  0  0  0
  -22.7418  -29.4680   22.4973 C   0  0  0  0  0  0
  -18.0281  -28.1381   22.8483 C   0  0  0  0  0  0
  -24.1487  -36.7316   23.2639 C   0  0  0  0  0  0
  -25.9343  -30.8311   21.3631 C   0  0  0  0  0  0
  -26.0108  -29.4666   20.7053 C   0  0  0  0  0  0
  -27.2047  -28.7054   20.6895 C   0  0  0  0  0  0
  -26.0430  -26.9404   19.4867 C   0  0  0  0  0  0
  -24.8596  -27.6997   19.4963 C   0  0  0  0  0  0
  -23.6103  -29.8302   20.1634 C   0  0  0  0  0  0
  -25.4105  -36.3108   24.0339 C   0  0  1  0  0  0
  -20.5869  -28.3673   23.1301 C   0  0  2  0  0  0
  -20.6776  -26.9408   22.5409 C   0  0  0  0  0  0
  -19.5754  -26.6385   21.5209 C   0  0  0  0  0  0
  -18.1928  -26.7924   22.1620 C   0  0  0  0  0  0
  -19.1529  -28.8843   23.2896 C   0  0  0  0  0  0
  -18.9461  -30.1447   23.8908 C   0  0  0  0  0  0
  -17.6464  -30.6582   24.0566 C   0  0  0  0  0  0
  -25.9036  -34.9474   23.5129 C   0  0  0  0  0  0
  -16.5357  -29.9089   23.6324 C   0  0  0  0  0  0
  -16.7267  -28.6509   23.0336 C   0  0  0  0  0  0
  -26.4466  -31.6598   25.0728 C   0  0  0  0  0  0
  -25.3729  -31.3719   26.1482 C   0  0  0  0  0  0
  -27.0299  -30.3040   24.6107 C   0  0  0  0  0  0
  -27.6058  -32.4301   25.7478 C   0  0  0  0  0  0
  -27.5580  -37.1808   24.8464 C   0  0  0  0  0  0
  -21.4142  -29.3049   22.3712 N   0  0  0  0  0  0
  -26.4292  -37.3792   23.9409 N   0  0  0  0  0  0
  -24.6701  -31.0782   22.0995 N   0  0  0  0  0  0
  -23.4190  -28.8222   23.3018 O   0  0  0  0  0  0
  -28.3778  -26.6524   20.1315 O   0  0  0  0  0  0
  -26.5599  -34.8929   22.4690 O   0  0  0  0  0  0
  -23.5357  -32.1434   23.7489 O   0  0  0  0  0  0
  -29.0177  -18.9036   21.3999 C   0  0  0  0  0  0
  -30.9179  -18.7914   19.9972 C   0  0  0  0  0  0
  -29.9446  -19.6140   20.6023 C   0  0  0  0  0  0
  -30.0226  -16.8859   20.9211 C   0  0  0  0  0  0
  -29.4151  -24.4787   20.7990 C   0  0  0  0  0  0
  -28.7870  -21.8934   20.5907 C   0  0  0  0  0  0
  -28.1787  -25.2261   20.2431 C   0  0  0  0  0  0
  -29.0917  -23.1249   21.4967 C   0  0  1  0  0  0
  -29.0618  -17.5590   21.5474 N   0  0  0  0  0  0
  -30.9499  -17.4527   20.1537 N   0  0  0  0  0  0
  -29.9649  -21.0183   20.3876 N   0  0  0  0  0  0
  -29.9635  -15.5125   21.0721 N   0  0  0  0  0  0
  -30.2002  -22.7019   22.2605 O   0  0  0  0  0  0
  -31.4697  -12.4031   19.1347 H   0  0  0  0  0  0
  -30.3221  -11.3053   19.8433 H   0  0  0  0  0  0
  -29.7426  -11.7728   17.4399 H   0  0  0  0  0  0
  -29.6637  -13.4847   17.7730 H   0  0  0  0  0  0
  -27.8352  -11.3030   18.8309 H   0  0  0  0  0  0
  -27.3687  -12.6202   17.7900 H   0  0  0  0  0  0
  -27.6983  -14.2522   19.5625 H   0  0  0  0  0  0
  -28.6806  -11.9752   21.3549 H   0  0  0  0  0  0
  -28.4594  -13.6172   21.8688 H   0  0  0  0  0  0
  -25.2763   -9.5686   22.4753 H   0  0  0  0  0  0
  -24.0005   -7.4637   22.7472 H   0  0  0  0  0  0
  -21.0842   -8.8777   19.8946 H   0  0  0  0  0  0
  -22.3703  -10.9673   19.6160 H   0  0  0  0  0  0
  -21.2007   -7.6145   23.9721 H   0  0  0  0  0  0
  -21.1479   -6.0519   25.9080 H   0  0  0  0  0  0
  -22.0598   -2.7610   23.2848 H   0  0  0  0  0  0
  -22.4111  -11.9890   22.4773 H   0  0  0  0  0  0
  -21.1119  -13.1267   22.2599 H   0  0  0  0  0  0
  -24.6634  -15.8431   20.5148 H   0  0  0  0  0  0
  -26.2860  -15.6315   20.0990 H   0  0  0  0  0  0
  -26.7128  -32.5517   23.1163 H   0  0  0  0  0  0
  -25.0052  -33.9774   25.0468 H   0  0  0  0  0  0
  -22.6931  -31.3122   21.4123 H   0  0  0  0  0  0
  -23.3749  -35.9650   23.3299 H   0  0  0  0  0  0
  -24.3590  -36.8934   22.2057 H   0  0  0  0  0  0
  -23.7239  -37.6522   23.6654 H   0  0  0  0  0  0
  -26.0481  -31.5994   20.5968 H   0  0  0  0  0  0
  -26.8223  -30.8813   21.9819 H   0  0  0  0  0  0
  -28.1015  -29.0891   21.1555 H   0  0  0  0  0  0
  -26.0153  -25.9770   19.0001 H   0  0  0  0  0  0
  -23.9666  -27.3055   19.0310 H   0  0  0  0  0  0
  -23.7180  -30.6073   19.4056 H   0  0  0  0  0  0
  -22.7321  -29.2539   19.8666 H   0  0  0  0  0  0
  -25.1280  -36.1978   25.0833 H   0  0  0  0  0  0
  -20.9965  -28.3243   24.1421 H   0  0  0  0  0  0
  -20.5685  -26.2283   23.3599 H   0  0  0  0  0  0
  -21.6647  -26.7449   22.1202 H   0  0  0  0  0  0
  -19.6923  -25.6302   21.1231 H   0  0  0  0  0  0
  -19.6696  -27.3202   20.6746 H   0  0  0  0  0  0
  -17.4203  -26.6673   21.4022 H   0  0  0  0  0  0
  -18.0333  -26.0058   22.9006 H   0  0  0  0  0  0
  -19.7945  -30.7261   24.2276 H   0  0  0  0  0  0
  -17.5026  -31.6264   24.5170 H   0  0  0  0  0  0
  -15.5360  -30.3002   23.7643 H   0  0  0  0  0  0
  -15.8665  -28.0845   22.7028 H   0  0  0  0  0  0
  -24.5867  -30.7105   25.7816 H   0  0  0  0  0  0
  -24.8965  -32.2889   26.4966 H   0  0  0  0  0  0
  -25.8070  -30.8848   27.0222 H   0  0  0  0  0  0
  -26.2851  -29.6796   24.1160 H   0  0  0  0  0  0
  -27.4078  -29.7278   25.4563 H   0  0  0  0  0  0
  -27.8676  -30.4367   23.9255 H   0  0  0  0  0  0
  -27.2710  -33.3611   26.2064 H   0  0  0  0  0  0
  -28.3864  -32.6834   25.0291 H   0  0  0  0  0  0
  -28.0724  -31.8408   26.5383 H   0  0  0  0  0  0
  -28.2595  -38.0106   24.7506 H   0  0  0  0  0  0
  -28.1078  -36.2637   24.6287 H   0  0  0  0  0  0
  -27.2305  -37.1463   25.8870 H   0  0  0  0  0  0
  -20.9300  -29.8773   21.6936 H   0  0  0  0  0  0
  -26.0183  -38.2874   24.1406 H   0  0  0  0  0  0
  -28.2280  -19.4067   21.9369 H   0  0  0  0  0  0
  -31.6866  -19.2154   19.3668 H   0  0  0  0  0  0
  -29.8762  -25.1320   21.5410 H   0  0  0  0  0  0
  -30.1601  -24.3481   20.0133 H   0  0  0  0  0  0
  -28.4148  -22.2331   19.6216 H   0  0  0  0  0  0
  -27.9594  -21.3379   21.0316 H   0  0  0  0  0  0
  -27.3383  -25.0379   20.9146 H   0  0  0  0  0  0
  -27.9130  -24.8044   19.2732 H   0  0  0  0  0  0
  -28.2560  -23.2826   22.1812 H   0  0  0  0  0  0
  -30.6252  -21.3535   19.6847 H   0  0  0  0  0  0
  -29.1196  -15.2029   21.5214 H   0  0  0  0  0  0
  -30.4425  -21.8938   21.7876 H   0  0  0  0  0  0
  1 25  1  0  0  0
  1 30  2  0  0  0
  1 82  1  0  0  0
  2  3  1  0  0  0
  2 25  1  0  0  0
  2 84  1  0  0  0
  2 85  1  0  0  0
  3  4  1  0  0  0
  3 86  1  0  0  0
  3 87  1  0  0  0
  4  5  1  0  0  0
  4 88  1  0  0  0
  4 89  1  0  0  0
  5  6  1  0  0  0
  5 26  1  0  0  0
  5 90  1  0  0  0
  6 25  1  0  0  0
  6 91  1  0  0  0
  6 92  1  0  0  0
  7  8  2  0  0  0
  7 26  1  0  0  0
  7 29  1  0  0  0
  8  9  1  0  0  0
  8 22  1  0  0  0
  9 10  1  0  0  0
  9 27  2  0  0  0
 10 11  2  0  0  0
 10 15  1  0  0  0
 11 12  1  0  0  0
 11 93  1  0  0  0
 12 13  2  0  0  0
 12 94  1  0  0  0
 13 14  1  0  0  0
 13 31  1  0  0  0
 14 15  2  0  0  0
 14 95  1  0  0  0
 15 96  1  0  0  0
 16 17  2  0  0  0
 16 21  1  0  0  0
 16 31  1  0  0  0
 17 18  1  0  0  0
 17 97  1  0  0  0
 18 19  2  0  0  0
 18 98  1  0  0  0
 19 20  1  0  0  0
 19 24  1  0  0  0
 20 21  2  0  0  0
 20 99  1  0  0  0
 21 23  1  0  0  0
 22 28  1  0  0  0
 22 32  2  0  0  0
 26 27  1  0  0  0
 28100  1  0  0  0
 28101  1  0  0  0
 29102  1  0  0  0
 29103  1  0  0  0
 33 34  1  0  0  0
 33 66  1  0  0  0
 33 70  2  0  0  0
 34 36  1  0  0  0
 34 59  1  0  0  0
 34104  1  0  0  0
 35 44  2  0  0  0
 35 45  1  0  0  0
 35 68  1  0  0  0
 36 56  1  0  0  0
 36105  1  0  0  0
 37 39  1  0  0  0
 37 47  1  0  0  0
 37 66  1  0  0  0
 37106  1  0  0  0
 38 43  2  0  0  0
 38 46  1  0  0  0
 38 47  1  0  0  0
 39 64  1  0  0  0
 39 67  2  0  0  0
 40 52  1  0  0  0
 40 53  2  0  0  0
 40 58  1  0  0  0
 41107  1  0  0  0
 41108  1  0  0  0
 41109  1  0  0  0
 41 48  1  0  0  0
 42 43  1  0  0  0
 42 66  1  0  0  0
 42110  1  0  0  0
 42111  1  0  0  0
 43 44  1  0  0  0
 44112  1  0  0  0
 45 46  2  0  0  0
 45113  1  0  0  0
 46114  1  0  0  0
 47115  1  0  0  0
 47116  1  0  0  0
 48 56  1  0  0  0
 48 65  1  0  0  0
 48117  1  0  0  0
 49 50  1  0  0  0
 49 53  1  0  0  0
 49 64  1  0  0  0
 49118  1  0  0  0
 50 51  1  0  0  0
 50119  1  0  0  0
 50120  1  0  0  0
 51 52  1  0  0  0
 51121  1  0  0  0
 51122  1  0  0  0
 52123  1  0  0  0
 52124  1  0  0  0
 53 54  1  0  0  0
 54 55  2  0  0  0
 54125  1  0  0  0
 55 57  1  0  0  0
 55126  1  0  0  0
 56 69  2  0  0  0
 57 58  2  0  0  0
 57127  1  0  0  0
 58128  1  0  0  0
 59 60  1  0  0  0
 59 61  1  0  0  0
 59 62  1  0  0  0
 60129  1  0  0  0
 60130  1  0  0  0
 60131  1  0  0  0
 61132  1  0  0  0
 61133  1  0  0  0
 61134  1  0  0  0
 62135  1  0  0  0
 62136  1  0  0  0
 62137  1  0  0  0
 63 65  1  0  0  0
 63138  1  0  0  0
 63139  1  0  0  0
 63140  1  0  0  0
 64141  1  0  0  0
 65142  1  0  0  0
 68 77  1  0  0  0
 71 73  2  0  0  0
 71 79  1  0  0  0
 71143  1  0  0  0
 72 73  1  0  0  0
 72 80  2  0  0  0
 72144  1  0  0  0
 73 81  1  0  0  0
 74 79  2  0  0  0
 74 80  1  0  0  0
 74 82  1  0  0  0
 75 77  1  0  0  0
 75 78  1  0  0  0
 75145  1  0  0  0
 75146  1  0  0  0
 76 78  1  0  0  0
 76 81  1  0  0  0
 76147  1  0  0  0
 76148  1  0  0  0
 77149  1  0  0  0
 77150  1  0  0  0
 78 83  1  0  0  0
 78151  1  0  0  0
 81152  1  0  0  0
 82153  1  0  0  0
 83154  1  0  0  0
M  ISO  4   1 100  68 101  77 101  82 100
M  END
> <chiral flag>
0

> <version>
0

> <s_m_source_file>
/data/baiqing/PycharmProjects/Reinvent-master-3.2/result/LINK_invent/BTK/process_docking_weight1_custom_product_contain_oxygen_bond_distance_aromatic_linkinvent_7_9_3/rearranged_h_0199.sdf

> <i_m_source_file_index>
12

> <r_mmod_Potential_Energy-OPLS-2005>
-375.506439208984

> <r_mmod_Stretch_Energy-OPLS-2005>
42.3977203369141

> <r_mmod_Bend_Energy-OPLS-2005>
125.853584289551

> <r_mmod_Torsional_Energy-OPLS-2005>
254.627883911133

> <r_mmod_Improper_Torsional_Energy-OPLS-2005>
5.13328218460083

> <r_mmod_Van_der_Waal_Energy-OPLS-2005>
180.327453613281

> <r_mmod_Electrostatic_Energy-OPLS-2005>
-739.952697753906

> <r_mmod_Solvation_Energy-OPLS-2005>
-260.594573974609

> <b_mmod_Minimization_Converged-OPLS-2005>
0

> <r_mmod_RMS_Derivative-OPLS-2005>
1.10369694232941

$$$$
12
                    3D
 Structure written by MMmdl.
153161  0  0  1  0            999 V2000
  -30.6181  -14.7602   20.4061 C   0  0  0  0  0  0
  -30.4343  -12.4558   19.4704 C   0  0  0  0  0  0
  -29.5205  -12.4917   18.2263 C   0  0  0  0  0  0
  -28.0451  -12.3189   18.6366 C   0  0  0  0  0  0
  -27.6425  -13.2303   19.8282 C   0  0  2  0  0  0
  -28.6859  -13.1961   20.9668 C   0  0  0  0  0  0
  -25.2545  -13.8169   20.5650 C   0  0  0  0  0  0
  -24.1834  -13.0428   20.9172 C   0  0  0  0  0  0
  -24.6411  -11.6912   20.8698 C   0  0  0  0  0  0
  -23.9065  -10.4300   21.0394 C   0  0  0  0  0  0
  -24.3635   -9.4228   21.9175 C   0  0  0  0  0  0
  -23.6321   -8.2256   22.0741 C   0  0  0  0  0  0
  -22.4305   -8.0282   21.3524 C   0  0  0  0  0  0
  -21.9918   -9.0257   20.4626 C   0  0  0  0  0  0
  -22.7239  -10.2148   20.3033 C   0  0  0  0  0  0
  -21.6877   -6.0755   22.5277 C   0  0  0  0  0  0
  -21.4036   -6.5645   23.8210 C   0  0  0  0  0  0
  -21.3648   -5.6781   24.9159 C   0  0  0  0  0  0
  -21.6053   -4.3051   24.7213 C   0  0  0  0  0  0
  -21.8823   -3.8144   23.4333 C   0  0  0  0  0  0
  -21.9198   -4.6983   22.3393 C   0  0  0  0  0  0
  -22.7850  -13.5245   21.1827 C   0  0  0  0  0  0
  -22.1667   -4.2165   21.0988 F   0  0  0  0  0  0
  -21.5609   -3.4530   25.7724 F   0  0  0  0  0  0
  -29.9883  -13.5345   20.3830 N   0  0  0  0  0  0
  -26.2949  -12.9370   20.3148 N   0  0  0  0  0  0
  -25.9354  -11.6519   20.5660 N   0  0  0  0  0  0
  -22.0470  -12.8273   22.0384 N   0  0  0  0  0  0
  -25.4214  -15.1911   20.4143 N   0  0  0  0  0  0
  -31.8274  -14.8061   20.1518 O   0  0  0  0  0  0
  -21.6652   -6.8910   21.4238 O   0  0  0  0  0  0
  -22.3582  -14.5575   20.6680 O   0  0  0  0  0  0
  -24.6315  -31.8506   23.1964 C   0  0  0  0  0  0
  -25.9150  -32.4726   23.8303 C   0  0  1  0  0  0
  -27.2305  -27.2649   20.1147 C   0  0  0  0  0  0
  -25.5932  -33.8535   24.2217 N   0  0  0  0  0  0
  -23.4279  -30.4681   21.5424 C   0  0  2  0  0  0
  -24.8720  -28.9087   20.1106 C   0  0  0  0  0  0
  -22.7522  -29.4563   22.4964 C   0  0  0  0  0  0
  -18.0284  -28.1393   22.8498 C   0  0  0  0  0  0
  -24.1487  -36.7290   23.2629 C   0  0  0  0  0  0
  -25.9708  -30.7609   21.3741 C   0  0  0  0  0  0
  -26.0412  -29.3831   20.7165 C   0  0  0  0  0  0
  -27.2179  -28.5714   20.7085 C   0  0  0  0  0  0
  -26.0364  -26.8427   19.4913 C   0  0  0  0  0  0
  -24.8740  -27.6453   19.4924 C   0  0  0  0  0  0
  -23.6445  -29.7984   20.1595 C   0  0  0  0  0  0
  -25.4118  -36.3052   24.0307 C   0  0  1  0  0  0
  -20.5896  -28.3698   23.1313 C   0  0  2  0  0  0
  -20.6797  -26.9423   22.5430 C   0  0  0  0  0  0
  -19.5763  -26.6390   21.5242 C   0  0  0  0  0  0
  -18.1937  -26.7940   22.1636 C   0  0  0  0  0  0
  -19.1539  -28.8866   23.2887 C   0  0  0  0  0  0
  -18.9450  -30.1480   23.8884 C   0  0  0  0  0  0
  -17.6448  -30.6599   24.0566 C   0  0  0  0  0  0
  -25.9059  -34.9426   23.5058 C   0  0  0  0  0  0
  -16.5348  -29.9097   23.6336 C   0  0  0  0  0  0
  -16.7272  -28.6519   23.0357 C   0  0  0  0  0  0
  -26.4485  -31.6583   25.0725 C   0  0  0  0  0  0
  -25.3700  -31.3771   26.1457 C   0  0  0  0  0  0
  -27.0319  -30.2992   24.6233 C   0  0  0  0  0  0
  -27.6019  -32.4348   25.7519 C   0  0  0  0  0  0
  -27.5586  -37.1788   24.8450 C   0  0  0  0  0  0
  -21.4226  -29.3022   22.3705 N   0  0  0  0  0  0
  -26.4282  -37.3771   23.9410 N   0  0  0  0  0  0
  -24.6962  -31.0477   22.0934 N   0  0  0  0  0  0
  -23.4224  -28.8134   23.3098 O   0  0  0  0  0  0
  -28.3620  -26.4223   20.2089 O   0  0  0  0  0  0
  -26.5650  -34.8913   22.4640 O   0  0  0  0  0  0
  -23.5478  -32.1342   23.7267 O   0  0  0  0  0  0
  -30.8892  -17.4425   18.8872 C   0  0  0  0  0  0
  -31.0612  -18.7022   18.3096 C   0  0  0  0  0  0
  -30.0648  -17.3032   20.0163 C   0  0  0  0  0  0
  -29.7051  -19.6980   19.8676 C   0  0  0  0  0  0
  -30.5621  -22.7009   19.0471 C   0  0  0  0  0  0
  -28.4398  -23.6332   20.3460 C   0  0  0  0  0  0
  -28.5228  -25.0743   19.5678 C   0  0  0  0  0  0
  -29.5329  -22.4135   20.1664 C   0  0  1  0  0  0
  -30.4675  -19.8005   18.7973 N   0  0  0  0  0  0
  -29.4632  -18.4878   20.4720 N   0  0  0  0  0  0
  -29.8487  -15.9188   20.5332 N   0  0  0  0  0  0
  -29.0936  -20.9389   20.3001 N   0  0  0  0  0  0
  -31.4776  -12.5678   19.1712 H   0  0  0  0  0  0
  -30.3712  -11.4870   19.9683 H   0  0  0  0  0  0
  -29.8126  -11.7009   17.5346 H   0  0  0  0  0  0
  -29.6480  -13.4315   17.6864 H   0  0  0  0  0  0
  -27.9046  -11.2709   18.9069 H   0  0  0  0  0  0
  -27.3915  -12.4972   17.7807 H   0  0  0  0  0  0
  -27.6285  -14.2454   19.4294 H   0  0  0  0  0  0
  -28.7201  -12.2159   21.4455 H   0  0  0  0  0  0
  -28.4175  -13.9111   21.7449 H   0  0  0  0  0  0
  -25.2785   -9.5744   22.4731 H   0  0  0  0  0  0
  -24.0021   -7.4692   22.7489 H   0  0  0  0  0  0
  -21.0824   -8.8799   19.8974 H   0  0  0  0  0  0
  -22.3679  -10.9694   19.6140 H   0  0  0  0  0  0
  -21.2044   -7.6162   23.9731 H   0  0  0  0  0  0
  -21.1453   -6.0505   25.9076 H   0  0  0  0  0  0
  -22.0610   -2.7613   23.2818 H   0  0  0  0  0  0
  -22.4077  -11.9968   22.4846 H   0  0  0  0  0  0
  -21.1082  -13.1305   22.2501 H   0  0  0  0  0  0
  -24.6451  -15.8294   20.5427 H   0  0  0  0  0  0
  -26.2613  -15.6511   20.0850 H   0  0  0  0  0  0
  -26.7221  -32.5347   23.1043 H   0  0  0  0  0  0
  -25.0070  -33.9658   25.0355 H   0  0  0  0  0  0
  -22.7239  -31.2888   21.3987 H   0  0  0  0  0  0
  -23.3744  -35.9621   23.3250 H   0  0  0  0  0  0
  -24.3584  -36.8971   22.2051 H   0  0  0  0  0  0
  -23.7248  -37.6475   23.6702 H   0  0  0  0  0  0
  -26.1115  -31.5179   20.6010 H   0  0  0  0  0  0
  -26.8491  -30.8072   22.0089 H   0  0  0  0  0  0
  -28.1184  -28.9320   21.1879 H   0  0  0  0  0  0
  -25.9694  -25.8701   19.0264 H   0  0  0  0  0  0
  -23.9754  -27.2747   19.0218 H   0  0  0  0  0  0
  -23.7742  -30.5744   19.4046 H   0  0  0  0  0  0
  -22.7603  -29.2362   19.8550 H   0  0  0  0  0  0
  -25.1292  -36.1861   25.0798 H   0  0  0  0  0  0
  -20.9948  -28.3263   24.1455 H   0  0  0  0  0  0
  -20.5782  -26.2282   23.3621 H   0  0  0  0  0  0
  -21.6656  -26.7517   22.1171 H   0  0  0  0  0  0
  -19.6936  -25.6300   21.1280 H   0  0  0  0  0  0
  -19.6710  -27.3205   20.6775 H   0  0  0  0  0  0
  -17.4224  -26.6707   21.4017 H   0  0  0  0  0  0
  -18.0316  -26.0091   22.9033 H   0  0  0  0  0  0
  -19.7917  -30.7305   24.2260 H   0  0  0  0  0  0
  -17.4993  -31.6275   24.5164 H   0  0  0  0  0  0
  -15.5348  -30.2981   23.7664 H   0  0  0  0  0  0
  -15.8684  -28.0829   22.7073 H   0  0  0  0  0  0
  -24.5867  -30.7112   25.7818 H   0  0  0  0  0  0
  -24.8894  -32.2955   26.4845 H   0  0  0  0  0  0
  -25.8010  -30.8991   27.0263 H   0  0  0  0  0  0
  -26.2895  -29.6782   24.1213 H   0  0  0  0  0  0
  -27.3928  -29.7228   25.4757 H   0  0  0  0  0  0
  -27.8806  -30.4251   23.9511 H   0  0  0  0  0  0
  -27.2586  -33.3651   26.2069 H   0  0  0  0  0  0
  -28.3851  -32.6921   25.0373 H   0  0  0  0  0  0
  -28.0668  -31.8506   26.5474 H   0  0  0  0  0  0
  -28.2542  -38.0142   24.7550 H   0  0  0  0  0  0
  -28.1128  -36.2669   24.6176 H   0  0  0  0  0  0
  -27.2314  -37.1325   25.8851 H   0  0  0  0  0  0
  -20.9452  -29.8644   21.6796 H   0  0  0  0  0  0
  -26.0132  -38.2816   24.1466 H   0  0  0  0  0  0
  -31.3891  -16.6003   18.4295 H   0  0  0  0  0  0
  -31.6692  -18.8346   17.4263 H   0  0  0  0  0  0
  -30.9972  -23.6958   19.1316 H   0  0  0  0  0  0
  -30.1412  -22.5915   18.0460 H   0  0  0  0  0  0
  -31.4352  -22.0524   19.1313 H   0  0  0  0  0  0
  -27.4457  -23.2299   20.1449 H   0  0  0  0  0  0
  -28.4179  -23.8653   21.4108 H   0  0  0  0  0  0
  -27.9177  -25.0098   18.6645 H   0  0  0  0  0  0
  -29.5237  -25.1757   19.1589 H   0  0  0  0  0  0
  -30.1454  -22.5244   21.0627 H   0  0  0  0  0  0
  -28.9220  -15.7513   20.8925 H   0  0  0  0  0  0
  -28.4498  -20.7896   21.0693 H   0  0  0  0  0  0
  1 25  1  0  0  0
  1 30  2  0  0  0
  1 81  1  0  0  0
  2  3  1  0  0  0
  2 25  1  0  0  0
  2 83  1  0  0  0
  2 84  1  0  0  0
  3  4  1  0  0  0
  3 85  1  0  0  0
  3 86  1  0  0  0
  4  5  1  0  0  0
  4 87  1  0  0  0
  4 88  1  0  0  0
  5  6  1  0  0  0
  5 26  1  0  0  0
  5 89  1  0  0  0
  6 25  1  0  0  0
  6 90  1  0  0  0
  6 91  1  0  0  0
  7  8  2  0  0  0
  7 26  1  0  0  0
  7 29  1  0  0  0
  8  9  1  0  0  0
  8 22  1  0  0  0
  9 10  1  0  0  0
  9 27  2  0  0  0
 10 11  2  0  0  0
 10 15  1  0  0  0
 11 12  1  0  0  0
 11 92  1  0  0  0
 12 13  2  0  0  0
 12 93  1  0  0  0
 13 14  1  0  0  0
 13 31  1  0  0  0
 14 15  2  0  0  0
 14 94  1  0  0  0
 15 95  1  0  0  0
 16 17  2  0  0  0
 16 21  1  0  0  0
 16 31  1  0  0  0
 17 18  1  0  0  0
 17 96  1  0  0  0
 18 19  2  0  0  0
 18 97  1  0  0  0
 19 20  1  0  0  0
 19 24  1  0  0  0
 20 21  2  0  0  0
 20 98  1  0  0  0
 21 23  1  0  0  0
 22 28  1  0  0  0
 22 32  2  0  0  0
 26 27  1  0  0  0
 28 99  1  0  0  0
 28100  1  0  0  0
 29101  1  0  0  0
 29102  1  0  0  0
 33 34  1  0  0  0
 33 66  1  0  0  0
 33 70  2  0  0  0
 34 36  1  0  0  0
 34 59  1  0  0  0
 34103  1  0  0  0
 35 44  2  0  0  0
 35 45  1  0  0  0
 35 68  1  0  0  0
 36 56  1  0  0  0
 36104  1  0  0  0
 37 39  1  0  0  0
 37 47  1  0  0  0
 37 66  1  0  0  0
 37105  1  0  0  0
 38 43  2  0  0  0
 38 46  1  0  0  0
 38 47  1  0  0  0
 39 64  1  0  0  0
 39 67  2  0  0  0
 40 52  1  0  0  0
 40 53  2  0  0  0
 40 58  1  0  0  0
 41106  1  0  0  0
 41107  1  0  0  0
 41108  1  0  0  0
 41 48  1  0  0  0
 42 43  1  0  0  0
 42 66  1  0  0  0
 42109  1  0  0  0
 42110  1  0  0  0
 43 44  1  0  0  0
 44111  1  0  0  0
 45 46  2  0  0  0
 45112  1  0  0  0
 46113  1  0  0  0
 47114  1  0  0  0
 47115  1  0  0  0
 48 56  1  0  0  0
 48 65  1  0  0  0
 48116  1  0  0  0
 49 50  1  0  0  0
 49 53  1  0  0  0
 49 64  1  0  0  0
 49117  1  0  0  0
 50 51  1  0  0  0
 50118  1  0  0  0
 50119  1  0  0  0
 51 52  1  0  0  0
 51120  1  0  0  0
 51121  1  0  0  0
 52122  1  0  0  0
 52123  1  0  0  0
 53 54  1  0  0  0
 54 55  2  0  0  0
 54124  1  0  0  0
 55 57  1  0  0  0
 55125  1  0  0  0
 56 69  2  0  0  0
 57 58  2  0  0  0
 57126  1  0  0  0
 58127  1  0  0  0
 59 60  1  0  0  0
 59 61  1  0  0  0
 59 62  1  0  0  0
 60128  1  0  0  0
 60129  1  0  0  0
 60130  1  0  0  0
 61131  1  0  0  0
 61132  1  0  0  0
 61133  1  0  0  0
 62134  1  0  0  0
 62135  1  0  0  0
 62136  1  0  0  0
 63 65  1  0  0  0
 63137  1  0  0  0
 63138  1  0  0  0
 63139  1  0  0  0
 64140  1  0  0  0
 65141  1  0  0  0
 68 77  1  0  0  0
 71 72  2  0  0  0
 71 73  1  0  0  0
 71142  1  0  0  0
 72 79  1  0  0  0
 72143  1  0  0  0
 73 80  2  0  0  0
 73 81  1  0  0  0
 74 79  2  0  0  0
 74 80  1  0  0  0
 74 82  1  0  0  0
 75144  1  0  0  0
 75145  1  0  0  0
 75146  1  0  0  0
 75 78  1  0  0  0
 76 77  1  0  0  0
 76 78  1  0  0  0
 76147  1  0  0  0
 76148  1  0  0  0
 77149  1  0  0  0
 77150  1  0  0  0
 78 82  1  0  0  0
 78151  1  0  0  0
 81152  1  0  0  0
 82153  1  0  0  0
M  ISO  4   1 100  68 101  77 101  81 100
M  END
> <chiral flag>
0

> <version>
0

> <s_m_source_file>
/data/baiqing/PycharmProjects/Reinvent-master-3.2/result/LINK_invent/BTK/process_docking_weight1_custom_product_contain_oxygen_bond_distance_aromatic_linkinvent_7_9_3/rearranged_h_0199.sdf

> <i_m_source_file_index>
13

> <r_mmod_Potential_Energy-OPLS-2005>
-209.2783203125

> <r_mmod_Stretch_Energy-OPLS-2005>
142.45832824707

> <r_mmod_Bend_Energy-OPLS-2005>
218.344635009766

> <r_mmod_Torsional_Energy-OPLS-2005>
239.895004272461

> <r_mmod_Improper_Torsional_Energy-OPLS-2005>
6.00649261474609

> <r_mmod_Van_der_Waal_Energy-OPLS-2005>
157.36930847168

> <r_mmod_Electrostatic_Energy-OPLS-2005>
-821.530212402344

> <r_mmod_Solvation_Energy-OPLS-2005>
-240.732498168945

> <b_mmod_Minimization_Converged-OPLS-2005>
0

> <r_mmod_RMS_Derivative-OPLS-2005>
4.23062992095947

$$$$
13
                    3D
 Structure written by MMmdl.
147155  0  0  1  0            999 V2000
  -30.6728  -14.7144   20.4732 C   0  0  0  0  0  0
  -30.4257  -12.4416   19.4645 C   0  0  0  0  0  0
  -29.5029  -12.4961   18.2296 C   0  0  0  0  0  0
  -28.0283  -12.3366   18.6445 C   0  0  0  0  0  0
  -27.6427  -13.2364   19.8490 C   0  0  2  0  0  0
  -28.6937  -13.1795   20.9796 C   0  0  0  0  0  0
  -25.2521  -13.8221   20.5707 C   0  0  0  0  0  0
  -24.1798  -13.0450   20.9208 C   0  0  0  0  0  0
  -24.6407  -11.6937   20.8757 C   0  0  0  0  0  0
  -23.9086  -10.4297   21.0413 C   0  0  0  0  0  0
  -24.3636   -9.4211   21.9196 C   0  0  0  0  0  0
  -23.6302   -8.2246   22.0752 C   0  0  0  0  0  0
  -22.4285   -8.0286   21.3542 C   0  0  0  0  0  0
  -21.9931   -9.0266   20.4644 C   0  0  0  0  0  0
  -22.7264  -10.2146   20.3058 C   0  0  0  0  0  0
  -21.6859   -6.0749   22.5283 C   0  0  0  0  0  0
  -21.4005   -6.5648   23.8219 C   0  0  0  0  0  0
  -21.3649   -5.6799   24.9175 C   0  0  0  0  0  0
  -21.6047   -4.3062   24.7226 C   0  0  0  0  0  0
  -21.8817   -3.8159   23.4344 C   0  0  0  0  0  0
  -21.9183   -4.6973   22.3406 C   0  0  0  0  0  0
  -22.7823  -13.5229   21.1872 C   0  0  0  0  0  0
  -22.1660   -4.2159   21.0980 F   0  0  0  0  0  0
  -21.5631   -3.4547   25.7737 F   0  0  0  0  0  0
  -29.9935  -13.5185   20.3861 N   0  0  0  0  0  0
  -26.2953  -12.9435   20.3308 N   0  0  0  0  0  0
  -25.9340  -11.6575   20.5786 N   0  0  0  0  0  0
  -22.0474  -12.8190   22.0422 N   0  0  0  0  0  0
  -25.4202  -15.1943   20.4128 N   0  0  0  0  0  0
  -31.8647  -14.7578   20.1646 O   0  0  0  0  0  0
  -21.6637   -6.8893   21.4244 O   0  0  0  0  0  0
  -22.3501  -14.5529   20.6718 O   0  0  0  0  0  0
  -24.6323  -31.8520   23.1972 C   0  0  0  0  0  0
  -25.9156  -32.4714   23.8313 C   0  0  1  0  0  0
  -27.2148  -27.2451   20.1777 C   0  0  0  0  0  0
  -25.5959  -33.8528   24.2241 N   0  0  0  0  0  0
  -23.4293  -30.4729   21.5376 C   0  0  2  0  0  0
  -24.8795  -28.9187   20.1001 C   0  0  0  0  0  0
  -22.7520  -29.4565   22.4884 C   0  0  0  0  0  0
  -18.0292  -28.1384   22.8497 C   0  0  0  0  0  0
  -24.1491  -36.7260   23.2667 C   0  0  0  0  0  0
  -25.9739  -30.7575   21.3836 C   0  0  0  0  0  0
  -26.0441  -29.3794   20.7312 C   0  0  0  0  0  0
  -27.2135  -28.5567   20.7574 C   0  0  0  0  0  0
  -26.0384  -26.8532   19.5026 C   0  0  0  0  0  0
  -24.8876  -27.6680   19.4604 C   0  0  0  0  0  0
  -23.6481  -29.8078   20.1501 C   0  0  0  0  0  0
  -25.4133  -36.3049   24.0327 C   0  0  1  0  0  0
  -20.5900  -28.3688   23.1267 C   0  0  2  0  0  0
  -20.6772  -26.9398   22.5412 C   0  0  0  0  0  0
  -19.5741  -26.6371   21.5223 C   0  0  0  0  0  0
  -18.1926  -26.7925   22.1643 C   0  0  0  0  0  0
  -19.1553  -28.8857   23.2871 C   0  0  0  0  0  0
  -18.9477  -30.1474   23.8865 C   0  0  0  0  0  0
  -17.6481  -30.6593   24.0572 C   0  0  0  0  0  0
  -25.9048  -34.9408   23.5083 C   0  0  0  0  0  0
  -16.5367  -29.9083   23.6351 C   0  0  0  0  0  0
  -16.7278  -28.6510   23.0358 C   0  0  0  0  0  0
  -26.4501  -31.6567   25.0732 C   0  0  0  0  0  0
  -25.3719  -31.3803   26.1470 C   0  0  0  0  0  0
  -27.0333  -30.2958   24.6273 C   0  0  0  0  0  0
  -27.6066  -32.4309   25.7490 C   0  0  0  0  0  0
  -27.5508  -37.1899   24.8544 C   0  0  0  0  0  0
  -21.4214  -29.3037   22.3658 N   0  0  0  0  0  0
  -26.4340  -37.3692   23.9298 N   0  0  0  0  0  0
  -24.6971  -31.0466   22.0953 N   0  0  0  0  0  0
  -23.4202  -28.8114   23.3007 O   0  0  0  0  0  0
  -28.2917  -26.3351   20.2434 O   0  0  0  0  0  0
  -26.5591  -34.8891   22.4631 O   0  0  0  0  0  0
  -23.5471  -32.1334   23.7263 O   0  0  0  0  0  0
  -29.6295  -20.6152   19.3455 C   0  0  0  0  0  0
  -29.1668  -21.1551   20.5386 C   0  0  0  0  0  0
  -29.9472  -18.6274   20.5712 C   0  0  0  0  0  0
  -28.8009  -23.6886   20.2721 C   0  0  0  0  0  0
  -30.6409  -17.2579   20.9483 C   0  0  0  0  0  0
  -28.0431  -24.9845   20.8730 C   0  0  0  0  0  0
  -30.0466  -19.2474   19.3773 N   0  0  0  0  0  0
  -28.6614  -22.4332   20.8583 N   0  0  0  0  0  0
  -29.9927  -15.8938   20.7227 N   0  0  0  0  0  0
  -29.5337  -23.8385   19.2880 O   0  0  0  0  0  0
  -29.2594  -19.8203   21.7374 S   0  0  0  0  0  0
  -31.4671  -12.5452   19.1546 H   0  0  0  0  0  0
  -30.3602  -11.4692   19.9557 H   0  0  0  0  0  0
  -29.7755  -11.7151   17.5191 H   0  0  0  0  0  0
  -29.6371  -13.4455   17.7091 H   0  0  0  0  0  0
  -27.8705  -11.2885   18.9008 H   0  0  0  0  0  0
  -27.3726  -12.5423   17.7970 H   0  0  0  0  0  0
  -27.6354  -14.2581   19.4687 H   0  0  0  0  0  0
  -28.7259  -12.1856   21.4275 H   0  0  0  0  0  0
  -28.4391  -13.8706   21.7847 H   0  0  0  0  0  0
  -25.2790   -9.5675   22.4774 H   0  0  0  0  0  0
  -24.0012   -7.4632   22.7467 H   0  0  0  0  0  0
  -21.0868   -8.8788   19.8951 H   0  0  0  0  0  0
  -22.3737  -10.9682   19.6158 H   0  0  0  0  0  0
  -21.1991   -7.6151   23.9724 H   0  0  0  0  0  0
  -21.1478   -6.0529   25.9079 H   0  0  0  0  0  0
  -22.0599   -2.7618   23.2849 H   0  0  0  0  0  0
  -22.4094  -11.9844   22.4780 H   0  0  0  0  0  0
  -21.1086  -13.1199   22.2638 H   0  0  0  0  0  0
  -24.6564  -15.8519   20.5268 H   0  0  0  0  0  0
  -26.2730  -15.6334   20.0889 H   0  0  0  0  0  0
  -26.7238  -32.5319   23.1065 H   0  0  0  0  0  0
  -25.0216  -33.9662   25.0459 H   0  0  0  0  0  0
  -22.7281  -31.2978   21.3932 H   0  0  0  0  0  0
  -23.3620  -35.9777   23.3696 H   0  0  0  0  0  0
  -24.3473  -36.8461   22.2007 H   0  0  0  0  0  0
  -23.7479  -37.6682   23.6417 H   0  0  0  0  0  0
  -26.1221  -31.5137   20.6105 H   0  0  0  0  0  0
  -26.8491  -30.7970   22.0212 H   0  0  0  0  0  0
  -28.0987  -28.8955   21.2771 H   0  0  0  0  0  0
  -25.9989  -25.8886   19.0171 H   0  0  0  0  0  0
  -24.0121  -27.3157   18.9310 H   0  0  0  0  0  0
  -23.7735  -30.5876   19.3989 H   0  0  0  0  0  0
  -22.7630  -29.2486   19.8398 H   0  0  0  0  0  0
  -25.1355  -36.1952   25.0840 H   0  0  0  0  0  0
  -21.0006  -28.3268   24.1383 H   0  0  0  0  0  0
  -20.5677  -26.2293   23.3622 H   0  0  0  0  0  0
  -21.6634  -26.7423   22.1200 H   0  0  0  0  0  0
  -19.6904  -25.6284   21.1241 H   0  0  0  0  0  0
  -19.6677  -27.3202   20.6778 H   0  0  0  0  0  0
  -17.4196  -26.6700   21.4043 H   0  0  0  0  0  0
  -18.0319  -26.0051   22.9028 H   0  0  0  0  0  0
  -19.7959  -30.7323   24.2176 H   0  0  0  0  0  0
  -17.5028  -31.6262   24.5192 H   0  0  0  0  0  0
  -15.5372  -30.2986   23.7682 H   0  0  0  0  0  0
  -15.8674  -28.0832   22.7071 H   0  0  0  0  0  0
  -24.5934  -30.7061   25.7881 H   0  0  0  0  0  0
  -24.8862  -32.3005   26.4751 H   0  0  0  0  0  0
  -25.8035  -30.9149   27.0346 H   0  0  0  0  0  0
  -26.2939  -29.6726   24.1243 H   0  0  0  0  0  0
  -27.3908  -29.7209   25.4831 H   0  0  0  0  0  0
  -27.8853  -30.4180   23.9585 H   0  0  0  0  0  0
  -27.2712  -33.3677   26.1966 H   0  0  0  0  0  0
  -28.3943  -32.6761   25.0347 H   0  0  0  0  0  0
  -28.0657  -31.8488   26.5496 H   0  0  0  0  0  0
  -28.2880  -37.9798   24.7045 H   0  0  0  0  0  0
  -28.0613  -36.2365   24.7118 H   0  0  0  0  0  0
  -27.2144  -37.2458   25.8911 H   0  0  0  0  0  0
  -20.9400  -29.8778   21.6880 H   0  0  0  0  0  0
  -26.0241  -38.2847   24.0963 H   0  0  0  0  0  0
  -29.6952  -21.1334   18.3959 H   0  0  0  0  0  0
  -30.8890  -17.3049   22.0094 H   0  0  0  0  0  0
  -31.6122  -17.2605   20.4498 H   0  0  0  0  0  0
  -28.3465  -25.0727   21.9212 H   0  0  0  0  0  0
  -26.9707  -24.7745   20.9287 H   0  0  0  0  0  0
  -28.1001  -22.4484   21.7004 H   0  0  0  0  0  0
  -28.9999  -15.8293   20.8843 H   0  0  0  0  0  0
  1 25  1  0  0  0
  1 30  2  0  0  0
  1 79  1  0  0  0
  2  3  1  0  0  0
  2 25  1  0  0  0
  2 82  1  0  0  0
  2 83  1  0  0  0
  3  4  1  0  0  0
  3 84  1  0  0  0
  3 85  1  0  0  0
  4  5  1  0  0  0
  4 86  1  0  0  0
  4 87  1  0  0  0
  5  6  1  0  0  0
  5 26  1  0  0  0
  5 88  1  0  0  0
  6 25  1  0  0  0
  6 89  1  0  0  0
  6 90  1  0  0  0
  7  8  2  0  0  0
  7 26  1  0  0  0
  7 29  1  0  0  0
  8  9  1  0  0  0
  8 22  1  0  0  0
  9 10  1  0  0  0
  9 27  2  0  0  0
 10 11  2  0  0  0
 10 15  1  0  0  0
 11 12  1  0  0  0
 11 91  1  0  0  0
 12 13  2  0  0  0
 12 92  1  0  0  0
 13 14  1  0  0  0
 13 31  1  0  0  0
 14 15  2  0  0  0
 14 93  1  0  0  0
 15 94  1  0  0  0
 16 17  2  0  0  0
 16 21  1  0  0  0
 16 31  1  0  0  0
 17 18  1  0  0  0
 17 95  1  0  0  0
 18 19  2  0  0  0
 18 96  1  0  0  0
 19 20  1  0  0  0
 19 24  1  0  0  0
 20 21  2  0  0  0
 20 97  1  0  0  0
 21 23  1  0  0  0
 22 28  1  0  0  0
 22 32  2  0  0  0
 26 27  1  0  0  0
 28 98  1  0  0  0
 28 99  1  0  0  0
 29100  1  0  0  0
 29101  1  0  0  0
 33 34  1  0  0  0
 33 66  1  0  0  0
 33 70  2  0  0  0
 34 36  1  0  0  0
 34 59  1  0  0  0
 34102  1  0  0  0
 35 44  2  0  0  0
 35 45  1  0  0  0
 35 68  1  0  0  0
 36 56  1  0  0  0
 36103  1  0  0  0
 37 39  1  0  0  0
 37 47  1  0  0  0
 37 66  1  0  0  0
 37104  1  0  0  0
 38 43  2  0  0  0
 38 46  1  0  0  0
 38 47  1  0  0  0
 39 64  1  0  0  0
 39 67  2  0  0  0
 40 52  1  0  0  0
 40 53  2  0  0  0
 40 58  1  0  0  0
 41105  1  0  0  0
 41106  1  0  0  0
 41107  1  0  0  0
 41 48  1  0  0  0
 42 43  1  0  0  0
 42 66  1  0  0  0
 42108  1  0  0  0
 42109  1  0  0  0
 43 44  1  0  0  0
 44110  1  0  0  0
 45 46  2  0  0  0
 45111  1  0  0  0
 46112  1  0  0  0
 47113  1  0  0  0
 47114  1  0  0  0
 48 56  1  0  0  0
 48 65  1  0  0  0
 48115  1  0  0  0
 49 50  1  0  0  0
 49 53  1  0  0  0
 49 64  1  0  0  0
 49116  1  0  0  0
 50 51  1  0  0  0
 50117  1  0  0  0
 50118  1  0  0  0
 51 52  1  0  0  0
 51119  1  0  0  0
 51120  1  0  0  0
 52121  1  0  0  0
 52122  1  0  0  0
 53 54  1  0  0  0
 54 55  2  0  0  0
 54123  1  0  0  0
 55 57  1  0  0  0
 55124  1  0  0  0
 56 69  2  0  0  0
 57 58  2  0  0  0
 57125  1  0  0  0
 58126  1  0  0  0
 59 60  1  0  0  0
 59 61  1  0  0  0
 59 62  1  0  0  0
 60127  1  0  0  0
 60128  1  0  0  0
 60129  1  0  0  0
 61130  1  0  0  0
 61131  1  0  0  0
 61132  1  0  0  0
 62133  1  0  0  0
 62134  1  0  0  0
 62135  1  0  0  0
 63 65  1  0  0  0
 63136  1  0  0  0
 63137  1  0  0  0
 63138  1  0  0  0
 64139  1  0  0  0
 65140  1  0  0  0
 68 76  1  0  0  0
 71 72  2  0  0  0
 71 77  1  0  0  0
 71141  1  0  0  0
 72 78  1  0  0  0
 72 81  1  0  0  0
 73 75  1  0  0  0
 73 77  2  0  0  0
 73 81  1  0  0  0
 74 76  1  0  0  0
 74 78  1  0  0  0
 74 80  2  0  0  0
 75 79  1  0  0  0
 75142  1  0  0  0
 75143  1  0  0  0
 76144  1  0  0  0
 76145  1  0  0  0
 78146  1  0  0  0
 79147  1  0  0  0
M  ISO  4   1 100  68 101  76 101  79 100
M  END
> <chiral flag>
0

> <version>
0

> <s_m_source_file>
/data/baiqing/PycharmProjects/Reinvent-master-3.2/result/LINK_invent/BTK/process_docking_weight1_custom_product_contain_oxygen_bond_distance_aromatic_linkinvent_7_9_3/rearranged_h_0199.sdf

> <i_m_source_file_index>
14

> <r_mmod_Potential_Energy-OPLS-2005>
39.8429718017578

> <r_mmod_Stretch_Energy-OPLS-2005>
115.290512084961

> <r_mmod_Bend_Energy-OPLS-2005>
175.958084106445

> <r_mmod_Torsional_Energy-OPLS-2005>
234.531967163086

> <r_mmod_Improper_Torsional_Energy-OPLS-2005>
5.81983184814453

> <r_mmod_Van_der_Waal_Energy-OPLS-2005>
115.555404663086

> <r_mmod_Electrostatic_Energy-OPLS-2005>
-437.064880371094

> <r_mmod_Solvation_Energy-OPLS-2005>
-258.315887451172

> <b_mmod_Minimization_Converged-OPLS-2005>
0

> <r_mmod_RMS_Derivative-OPLS-2005>
5.17005062103271

$$$$
14
                    3D
 Structure written by MMmdl.
152160  0  0  1  0            999 V2000
  -30.5201  -14.9253   20.4314 C   0  0  0  0  0  0
  -30.4534  -12.5746   19.4878 C   0  0  0  0  0  0
  -29.5231  -12.5350   18.2510 C   0  0  0  0  0  0
  -28.0551  -12.3214   18.6681 C   0  0  0  0  0  0
  -27.6371  -13.2397   19.8448 C   0  0  2  0  0  0
  -28.6844  -13.2235   20.9804 C   0  0  0  0  0  0
  -25.2494  -13.8186   20.5683 C   0  0  0  0  0  0
  -24.1805  -13.0434   20.9243 C   0  0  0  0  0  0
  -24.6408  -11.6907   20.8782 C   0  0  0  0  0  0
  -23.9086  -10.4286   21.0429 C   0  0  0  0  0  0
  -24.3630   -9.4193   21.9195 C   0  0  0  0  0  0
  -23.6292   -8.2235   22.0761 C   0  0  0  0  0  0
  -22.4271   -8.0284   21.3544 C   0  0  0  0  0  0
  -21.9921   -9.0264   20.4652 C   0  0  0  0  0  0
  -22.7269  -10.2139   20.3065 C   0  0  0  0  0  0
  -21.6849   -6.0742   22.5281 C   0  0  0  0  0  0
  -21.4019   -6.5650   23.8214 C   0  0  0  0  0  0
  -21.3653   -5.6798   24.9174 C   0  0  0  0  0  0
  -21.6034   -4.3062   24.7224 C   0  0  0  0  0  0
  -21.8818   -3.8153   23.4347 C   0  0  0  0  0  0
  -21.9192   -4.6966   22.3404 C   0  0  0  0  0  0
  -22.7822  -13.5213   21.1879 C   0  0  0  0  0  0
  -22.1655   -4.2161   21.0976 F   0  0  0  0  0  0
  -21.5623   -3.4538   25.7736 F   0  0  0  0  0  0
  -29.9660  -13.6476   20.3969 N   0  0  0  0  0  0
  -26.2914  -12.9405   20.3240 N   0  0  0  0  0  0
  -25.9334  -11.6548   20.5760 N   0  0  0  0  0  0
  -22.0453  -12.8204   22.0429 N   0  0  0  0  0  0
  -25.4163  -15.1901   20.3966 N   0  0  0  0  0  0
  -31.7130  -15.0437   20.1253 O   0  0  0  0  0  0
  -21.6630   -6.8881   21.4238 O   0  0  0  0  0  0
  -22.3510  -14.5512   20.6715 O   0  0  0  0  0  0
  -24.6448  -31.8422   23.1847 C   0  0  0  0  0  0
  -25.9206  -32.4674   23.8255 C   0  0  1  0  0  0
  -27.2184  -27.1328   20.1374 C   0  0  0  0  0  0
  -25.5936  -33.8479   24.2178 N   0  0  0  0  0  0
  -23.4486  -30.4614   21.5316 C   0  0  2  0  0  0
  -24.8955  -28.8874   20.1066 C   0  0  0  0  0  0
  -22.7570  -29.4540   22.4839 C   0  0  0  0  0  0
  -18.0311  -28.1394   22.8486 C   0  0  0  0  0  0
  -24.1484  -36.7255   23.2650 C   0  0  0  0  0  0
  -26.0036  -30.7136   21.3814 C   0  0  0  0  0  0
  -26.0728  -29.3240   20.7248 C   0  0  0  0  0  0
  -27.2351  -28.4628   20.7255 C   0  0  0  0  0  0
  -26.0129  -26.7999   19.4802 C   0  0  0  0  0  0
  -24.8779  -27.6375   19.4698 C   0  0  0  0  0  0
  -23.6720  -29.7905   20.1501 C   0  0  0  0  0  0
  -25.4107  -36.3010   24.0327 C   0  0  1  0  0  0
  -20.5921  -28.3712   23.1227 C   0  0  2  0  0  0
  -20.6779  -26.9408   22.5404 C   0  0  0  0  0  0
  -19.5752  -26.6371   21.5218 C   0  0  0  0  0  0
  -18.1942  -26.7937   22.1631 C   0  0  0  0  0  0
  -19.1571  -28.8863   23.2852 C   0  0  0  0  0  0
  -18.9492  -30.1472   23.8865 C   0  0  0  0  0  0
  -17.6491  -30.6581   24.0568 C   0  0  0  0  0  0
  -25.9068  -34.9389   23.5066 C   0  0  0  0  0  0
  -16.5375  -29.9086   23.6330 C   0  0  0  0  0  0
  -16.7293  -28.6509   23.0346 C   0  0  0  0  0  0
  -26.4517  -31.6533   25.0689 C   0  0  0  0  0  0
  -25.3711  -31.3758   26.1401 C   0  0  0  0  0  0
  -27.0360  -30.2918   24.6253 C   0  0  0  0  0  0
  -27.6047  -32.4289   25.7478 C   0  0  0  0  0  0
  -27.5568  -37.1781   24.8469 C   0  0  0  0  0  0
  -21.4262  -29.3053   22.3609 N   0  0  0  0  0  0
  -26.4268  -37.3722   23.9425 N   0  0  0  0  0  0
  -24.7196  -31.0273   22.0875 N   0  0  0  0  0  0
  -23.4222  -28.8094   23.3001 O   0  0  0  0  0  0
  -28.2726  -26.1472   20.2066 O   0  0  0  0  0  0
  -26.5661  -34.8902   22.4647 O   0  0  0  0  0  0
  -23.5565  -32.1287   23.7056 O   0  0  0  0  0  0
  -28.3111  -18.1713   20.6165 C   0  0  0  0  0  0
  -29.6022  -17.5487   20.4979 C   0  0  0  0  0  0
  -29.0040  -20.4520   20.2357 C   0  0  0  0  0  0
  -30.3247  -19.8544   20.1541 C   0  0  0  0  0  0
  -27.8352  -21.7710   18.6017 C   0  0  0  0  0  0
  -28.9996  -23.2852   20.2574 C   0  0  0  0  0  0
  -28.0086  -24.6305   19.9580 C   0  0  0  0  0  0
  -28.0240  -19.5248   20.4806 N   0  0  0  0  0  0
  -30.6055  -18.4818   20.2746 N   0  0  0  0  0  0
  -31.4192  -20.6616   19.8746 N   0  0  0  0  0  0
  -29.6529  -16.0231   20.6473 N   0  0  0  0  0  0
  -28.5602  -21.8336   19.8747 N   0  0  0  0  0  0
  -31.4839  -12.7464   19.1722 H   0  0  0  0  0  0
  -30.4572  -11.6115   19.9998 H   0  0  0  0  0  0
  -29.8362  -11.7480   17.5640 H   0  0  0  0  0  0
  -29.6100  -13.4717   17.6982 H   0  0  0  0  0  0
  -27.9439  -11.2776   18.9603 H   0  0  0  0  0  0
  -27.3914  -12.4715   17.8154 H   0  0  0  0  0  0
  -27.6123  -14.2489   19.4334 H   0  0  0  0  0  0
  -28.7684  -12.2254   21.4144 H   0  0  0  0  0  0
  -28.3880  -13.8871   21.7939 H   0  0  0  0  0  0
  -25.2779   -9.5657   22.4772 H   0  0  0  0  0  0
  -23.9998   -7.4622   22.7473 H   0  0  0  0  0  0
  -21.0860   -8.8783   19.8958 H   0  0  0  0  0  0
  -22.3727  -10.9673   19.6171 H   0  0  0  0  0  0
  -21.2019   -7.6163   23.9723 H   0  0  0  0  0  0
  -21.1468   -6.0529   25.9077 H   0  0  0  0  0  0
  -22.0604   -2.7618   23.2840 H   0  0  0  0  0  0
  -22.4074  -11.9867   22.4821 H   0  0  0  0  0  0
  -21.1066  -13.1228   22.2632 H   0  0  0  0  0  0
  -24.6172  -15.8133   20.4405 H   0  0  0  0  0  0
  -26.1854  -15.5770   19.8673 H   0  0  0  0  0  0
  -26.7268  -32.5247   23.0987 H   0  0  0  0  0  0
  -25.0054  -33.9586   25.0310 H   0  0  0  0  0  0
  -22.7545  -31.2893   21.3762 H   0  0  0  0  0  0
  -23.3736  -35.9599   23.3280 H   0  0  0  0  0  0
  -24.3606  -36.8907   22.2077 H   0  0  0  0  0  0
  -23.7258  -37.6456   23.6696 H   0  0  0  0  0  0
  -26.1555  -31.4635   20.6037 H   0  0  0  0  0  0
  -26.8793  -30.7662   22.0169 H   0  0  0  0  0  0
  -28.1294  -28.7936   21.2325 H   0  0  0  0  0  0
  -25.9089  -25.8493   18.9806 H   0  0  0  0  0  0
  -23.9829  -27.2960   18.9690 H   0  0  0  0  0  0
  -23.8067  -30.5648   19.3939 H   0  0  0  0  0  0
  -22.7863  -29.2335   19.8395 H   0  0  0  0  0  0
  -25.1299  -36.1834   25.0822 H   0  0  0  0  0  0
  -21.0019  -28.3275   24.1343 H   0  0  0  0  0  0
  -20.5643  -26.2334   23.3629 H   0  0  0  0  0  0
  -21.6649  -26.7391   22.1222 H   0  0  0  0  0  0
  -19.6914  -25.6282   21.1244 H   0  0  0  0  0  0
  -19.6674  -27.3179   20.6744 H   0  0  0  0  0  0
  -17.4210  -26.6671   21.4031 H   0  0  0  0  0  0
  -18.0335  -26.0098   22.9032 H   0  0  0  0  0  0
  -19.7978  -30.7309   24.2175 H   0  0  0  0  0  0
  -17.5049  -31.6249   24.5202 H   0  0  0  0  0  0
  -15.5382  -30.2989   23.7658 H   0  0  0  0  0  0
  -15.8700  -28.0830   22.7042 H   0  0  0  0  0  0
  -24.5901  -30.7064   25.7775 H   0  0  0  0  0  0
  -24.8882  -32.2948   26.4719 H   0  0  0  0  0  0
  -25.8004  -30.9042   27.0244 H   0  0  0  0  0  0
  -26.2954  -29.6648   24.1260 H   0  0  0  0  0  0
  -27.3995  -29.7203   25.4805 H   0  0  0  0  0  0
  -27.8859  -30.4171   23.9540 H   0  0  0  0  0  0
  -27.2657  -33.3671   26.1895 H   0  0  0  0  0  0
  -28.3935  -32.6697   25.0331 H   0  0  0  0  0  0
  -28.0595  -31.8489   26.5519 H   0  0  0  0  0  0
  -28.2558  -38.0097   24.7494 H   0  0  0  0  0  0
  -28.1077  -36.2619   24.6285 H   0  0  0  0  0  0
  -27.2304  -37.1427   25.8878 H   0  0  0  0  0  0
  -20.9447  -29.8829   21.6851 H   0  0  0  0  0  0
  -26.0122  -38.2789   24.1406 H   0  0  0  0  0  0
  -27.4505  -17.5500   20.8179 H   0  0  0  0  0  0
  -27.8111  -20.7687   18.1675 H   0  0  0  0  0  0
  -28.2997  -22.4182   17.8561 H   0  0  0  0  0  0
  -26.7999  -22.0892   18.7305 H   0  0  0  0  0  0
  -29.2449  -23.2767   21.3196 H   0  0  0  0  0  0
  -29.9489  -23.4620   19.7494 H   0  0  0  0  0  0
  -27.0673  -24.4082   20.4614 H   0  0  0  0  0  0
  -27.7778  -24.5846   18.8935 H   0  0  0  0  0  0
  -31.2949  -21.6629   19.9821 H   0  0  0  0  0  0
  -32.3519  -20.3170   20.0640 H   0  0  0  0  0  0
  -28.7490  -15.6615   20.9079 H   0  0  0  0  0  0
  1 25  1  0  0  0
  1 30  2  0  0  0
  1 81  1  0  0  0
  2  3  1  0  0  0
  2 25  1  0  0  0
  2 83  1  0  0  0
  2 84  1  0  0  0
  3  4  1  0  0  0
  3 85  1  0  0  0
  3 86  1  0  0  0
  4  5  1  0  0  0
  4 87  1  0  0  0
  4 88  1  0  0  0
  5  6  1  0  0  0
  5 26  1  0  0  0
  5 89  1  0  0  0
  6 25  1  0  0  0
  6 90  1  0  0  0
  6 91  1  0  0  0
  7  8  2  0  0  0
  7 26  1  0  0  0
  7 29  1  0  0  0
  8  9  1  0  0  0
  8 22  1  0  0  0
  9 10  1  0  0  0
  9 27  2  0  0  0
 10 11  2  0  0  0
 10 15  1  0  0  0
 11 12  1  0  0  0
 11 92  1  0  0  0
 12 13  2  0  0  0
 12 93  1  0  0  0
 13 14  1  0  0  0
 13 31  1  0  0  0
 14 15  2  0  0  0
 14 94  1  0  0  0
 15 95  1  0  0  0
 16 17  2  0  0  0
 16 21  1  0  0  0
 16 31  1  0  0  0
 17 18  1  0  0  0
 17 96  1  0  0  0
 18 19  2  0  0  0
 18 97  1  0  0  0
 19 20  1  0  0  0
 19 24  1  0  0  0
 20 21  2  0  0  0
 20 98  1  0  0  0
 21 23  1  0  0  0
 22 28  1  0  0  0
 22 32  2  0  0  0
 26 27  1  0  0  0
 28 99  1  0  0  0
 28100  1  0  0  0
 29101  1  0  0  0
 29102  1  0  0  0
 33 34  1  0  0  0
 33 66  1  0  0  0
 33 70  2  0  0  0
 34 36  1  0  0  0
 34 59  1  0  0  0
 34103  1  0  0  0
 35 44  2  0  0  0
 35 45  1  0  0  0
 35 68  1  0  0  0
 36 56  1  0  0  0
 36104  1  0  0  0
 37 39  1  0  0  0
 37 47  1  0  0  0
 37 66  1  0  0  0
 37105  1  0  0  0
 38 43  2  0  0  0
 38 46  1  0  0  0
 38 47  1  0  0  0
 39 64  1  0  0  0
 39 67  2  0  0  0
 40 52  1  0  0  0
 40 53  2  0  0  0
 40 58  1  0  0  0
 41106  1  0  0  0
 41107  1  0  0  0
 41108  1  0  0  0
 41 48  1  0  0  0
 42 43  1  0  0  0
 42 66  1  0  0  0
 42109  1  0  0  0
 42110  1  0  0  0
 43 44  1  0  0  0
 44111  1  0  0  0
 45 46  2  0  0  0
 45112  1  0  0  0
 46113  1  0  0  0
 47114  1  0  0  0
 47115  1  0  0  0
 48 56  1  0  0  0
 48 65  1  0  0  0
 48116  1  0  0  0
 49 50  1  0  0  0
 49 53  1  0  0  0
 49 64  1  0  0  0
 49117  1  0  0  0
 50 51  1  0  0  0
 50118  1  0  0  0
 50119  1  0  0  0
 51 52  1  0  0  0
 51120  1  0  0  0
 51121  1  0  0  0
 52122  1  0  0  0
 52123  1  0  0  0
 53 54  1  0  0  0
 54 55  2  0  0  0
 54124  1  0  0  0
 55 57  1  0  0  0
 55125  1  0  0  0
 56 69  2  0  0  0
 57 58  2  0  0  0
 57126  1  0  0  0
 58127  1  0  0  0
 59 60  1  0  0  0
 59 61  1  0  0  0
 59 62  1  0  0  0
 60128  1  0  0  0
 60129  1  0  0  0
 60130  1  0  0  0
 61131  1  0  0  0
 61132  1  0  0  0
 61133  1  0  0  0
 62134  1  0  0  0
 62135  1  0  0  0
 62136  1  0  0  0
 63 65  1  0  0  0
 63137  1  0  0  0
 63138  1  0  0  0
 63139  1  0  0  0
 64140  1  0  0  0
 65141  1  0  0  0
 68 77  1  0  0  0
 71 72  2  0  0  0
 71 78  1  0  0  0
 71142  1  0  0  0
 72 79  1  0  0  0
 72 81  1  0  0  0
 73 74  1  0  0  0
 73 78  2  0  0  0
 73 82  1  0  0  0
 74 79  2  0  0  0
 74 80  1  0  0  0
 75 82  1  0  0  0
 75143  1  0  0  0
 75144  1  0  0  0
 75145  1  0  0  0
 76 77  1  0  0  0
 76 82  1  0  0  0
 76146  1  0  0  0
 76147  1  0  0  0
 77148  1  0  0  0
 77149  1  0  0  0
 80150  1  0  0  0
 80151  1  0  0  0
 81152  1  0  0  0
M  ISO  4   1 100  68 101  77 101  81 100
M  END
> <chiral flag>
0

> <version>
0

> <s_m_source_file>
/data/baiqing/PycharmProjects/Reinvent-master-3.2/result/LINK_invent/BTK/process_docking_weight1_custom_product_contain_oxygen_bond_distance_aromatic_linkinvent_7_9_3/rearranged_h_0199.sdf

> <i_m_source_file_index>
15

> <r_mmod_Potential_Energy-OPLS-2005>
434.662353515625

> <r_mmod_Stretch_Energy-OPLS-2005>
235.308090209961

> <r_mmod_Bend_Energy-OPLS-2005>
283.509246826172

> <r_mmod_Torsional_Energy-OPLS-2005>
228.237716674805

> <r_mmod_Improper_Torsional_Energy-OPLS-2005>
10.348201751709

> <r_mmod_Van_der_Waal_Energy-OPLS-2005>
136.902648925781

> <r_mmod_Electrostatic_Energy-OPLS-2005>
-385.654907226562

> <r_mmod_Solvation_Energy-OPLS-2005>
-258.611694335938

> <b_mmod_Minimization_Converged-OPLS-2005>
0

> <r_mmod_RMS_Derivative-OPLS-2005>
2.52135848999023

$$$$
15
                    3D
 Structure written by MMmdl.
156164  0  0  1  0            999 V2000
  -30.6010  -14.6585   20.4781 C   0  0  0  0  0  0
  -30.4408  -12.3927   19.4426 C   0  0  0  0  0  0
  -29.5012  -12.5097   18.2188 C   0  0  0  0  0  0
  -28.0301  -12.3316   18.6414 C   0  0  0  0  0  0
  -27.6558  -13.2052   19.8671 C   0  0  2  0  0  0
  -28.7074  -13.0625   20.9933 C   0  0  0  0  0  0
  -25.2587  -13.8152   20.5662 C   0  0  0  0  0  0
  -24.1847  -13.0435   20.9212 C   0  0  0  0  0  0
  -24.6389  -11.6898   20.8768 C   0  0  0  0  0  0
  -23.9047  -10.4286   21.0426 C   0  0  0  0  0  0
  -24.3611   -9.4206   21.9191 C   0  0  0  0  0  0
  -23.6284   -8.2248   22.0765 C   0  0  0  0  0  0
  -22.4264   -8.0277   21.3558 C   0  0  0  0  0  0
  -21.9906   -9.0252   20.4650 C   0  0  0  0  0  0
  -22.7234  -10.2133   20.3060 C   0  0  0  0  0  0
  -21.6859   -6.0718   22.5264 C   0  0  0  0  0  0
  -21.4019   -6.5634   23.8198 C   0  0  0  0  0  0
  -21.3660   -5.6793   24.9174 C   0  0  0  0  0  0
  -21.6043   -4.3050   24.7225 C   0  0  0  0  0  0
  -21.8818   -3.8136   23.4354 C   0  0  0  0  0  0
  -21.9190   -4.6941   22.3411 C   0  0  0  0  0  0
  -22.7868  -13.5234   21.1879 C   0  0  0  0  0  0
  -22.1651   -4.2125   21.0979 F   0  0  0  0  0  0
  -21.5638   -3.4541   25.7748 F   0  0  0  0  0  0
  -30.0200  -13.4121   20.4242 N   0  0  0  0  0  0
  -26.3004  -12.9300   20.3346 N   0  0  0  0  0  0
  -25.9325  -11.6457   20.5815 N   0  0  0  0  0  0
  -22.0501  -12.8211   22.0407 N   0  0  0  0  0  0
  -25.4309  -15.1865   20.3995 N   0  0  0  0  0  0
  -31.7591  -14.8430   20.0919 O   0  0  0  0  0  0
  -21.6647   -6.8866   21.4229 O   0  0  0  0  0  0
  -22.3558  -14.5559   20.6734 O   0  0  0  0  0  0
  -24.6249  -31.8562   23.1885 C   0  0  0  0  0  0
  -25.9069  -32.4785   23.8260 C   0  0  1  0  0  0
  -27.2394  -27.3031   20.1287 C   0  0  0  0  0  0
  -25.5876  -33.8597   24.2196 N   0  0  0  0  0  0
  -23.4278  -30.4710   21.5307 C   0  0  2  0  0  0
  -24.8786  -28.9128   20.1115 C   0  0  0  0  0  0
  -22.7517  -29.4592   22.4841 C   0  0  0  0  0  0
  -18.0316  -28.1383   22.8461 C   0  0  0  0  0  0
  -24.1516  -36.7321   23.2654 C   0  0  0  0  0  0
  -25.9641  -30.7832   21.3549 C   0  0  0  0  0  0
  -26.0409  -29.4009   20.7147 C   0  0  0  0  0  0
  -27.2301  -28.6104   20.7060 C   0  0  0  0  0  0
  -26.0505  -26.8543   19.5219 C   0  0  0  0  0  0
  -24.8816  -27.6432   19.5091 C   0  0  0  0  0  0
  -23.6484  -29.7953   20.1497 C   0  0  0  0  0  0
  -25.4121  -36.3078   24.0334 C   0  0  1  0  0  0
  -20.5916  -28.3690   23.1259 C   0  0  2  0  0  0
  -20.6818  -26.9413   22.5384 C   0  0  0  0  0  0
  -19.5807  -26.6345   21.5202 C   0  0  0  0  0  0
  -18.1979  -26.7928   22.1611 C   0  0  0  0  0  0
  -19.1574  -28.8838   23.2880 C   0  0  0  0  0  0
  -18.9512  -30.1441   23.8894 C   0  0  0  0  0  0
  -17.6522  -30.6576   24.0556 C   0  0  0  0  0  0
  -25.9045  -34.9478   23.5062 C   0  0  0  0  0  0
  -16.5409  -29.9094   23.6329 C   0  0  0  0  0  0
  -16.7296  -28.6530   23.0293 C   0  0  0  0  0  0
  -26.4444  -31.6581   25.0622 C   0  0  0  0  0  0
  -25.3661  -31.3740   26.1327 C   0  0  0  0  0  0
  -27.0255  -30.3019   24.5976 C   0  0  0  0  0  0
  -27.5997  -32.4289   25.7433 C   0  0  0  0  0  0
  -27.5589  -37.1803   24.8474 C   0  0  0  0  0  0
  -21.4207  -29.3063   22.3646 N   0  0  0  0  0  0
  -26.4305  -37.3744   23.9422 N   0  0  0  0  0  0
  -24.6930  -31.0545   22.0849 N   0  0  0  0  0  0
  -23.4258  -28.8107   23.2887 O   0  0  0  0  0  0
  -28.3777  -26.4829   20.0919 O   0  0  0  0  0  0
  -26.5629  -34.8948   22.4636 O   0  0  0  0  0  0
  -23.5390  -32.1352   23.7163 O   0  0  0  0  0  0
  -28.4604  -17.6947   21.1486 C   0  0  0  0  0  0
  -29.0591  -19.8934   20.5534 C   0  0  0  0  0  0
  -29.6878  -17.1242   20.7145 C   0  0  0  0  0  0
  -30.3335  -19.3461   20.1468 C   0  0  0  0  0  0
  -28.4607  -21.3049   20.3457 C   0  0  0  0  0  0
  -29.4239  -25.1887   21.7859 C   0  0  0  0  0  0
  -28.6005  -23.8689   19.7028 C   0  0  0  0  0  0
  -28.3506  -25.1171   20.6836 C   0  0  2  0  0  0
  -28.1474  -19.0207   21.0709 N   0  0  0  0  0  0
  -30.6286  -17.9936   20.2139 N   0  0  0  0  0  0
  -31.3616  -20.1418   19.6516 N   0  0  0  0  0  0
  -27.1177  -21.3442   20.2633 N   0  0  0  0  0  0
  -29.7492  -15.6649   20.8466 N   0  0  0  0  0  0
  -29.1125  -22.5222   20.2365 N   0  3  0  0  0  0
  -31.4817  -12.5145   19.1384 H   0  0  0  0  0  0
  -30.3740  -11.3907   19.8740 H   0  0  0  0  0  0
  -29.7635  -11.7690   17.4621 H   0  0  0  0  0  0
  -29.6264  -13.4855   17.7448 H   0  0  0  0  0  0
  -27.8868  -11.2779   18.8799 H   0  0  0  0  0  0
  -27.3613  -12.5455   17.8065 H   0  0  0  0  0  0
  -27.6750  -14.2395   19.5220 H   0  0  0  0  0  0
  -28.7263  -12.0409   21.3787 H   0  0  0  0  0  0
  -28.4561  -13.6900   21.8498 H   0  0  0  0  0  0
  -25.2772   -9.5675   22.4757 H   0  0  0  0  0  0
  -23.9981   -7.4651   22.7502 H   0  0  0  0  0  0
  -21.0838   -8.8771   19.8967 H   0  0  0  0  0  0
  -22.3701  -10.9667   19.6157 H   0  0  0  0  0  0
  -21.2002   -7.6135   23.9696 H   0  0  0  0  0  0
  -21.1485   -6.0530   25.9073 H   0  0  0  0  0  0
  -22.0594   -2.7586   23.2872 H   0  0  0  0  0  0
  -22.4086  -11.9824   22.4727 H   0  0  0  0  0  0
  -21.1131  -13.1246   22.2667 H   0  0  0  0  0  0
  -24.6516  -15.8305   20.4851 H   0  0  0  0  0  0
  -26.2365  -15.6032   19.9516 H   0  0  0  0  0  0
  -26.7138  -32.5407   23.1014 H   0  0  0  0  0  0
  -24.9989  -33.9754   25.0318 H   0  0  0  0  0  0
  -22.7242  -31.2886   21.3670 H   0  0  0  0  0  0
  -23.3769  -35.9668   23.3250 H   0  0  0  0  0  0
  -24.3642  -36.8944   22.2085 H   0  0  0  0  0  0
  -23.7288  -37.6525   23.6683 H   0  0  0  0  0  0
  -26.0627  -31.5303   20.5676 H   0  0  0  0  0  0
  -26.8616  -30.8629   21.9567 H   0  0  0  0  0  0
  -28.1315  -28.9872   21.1649 H   0  0  0  0  0  0
  -26.0207  -25.8769   19.0604 H   0  0  0  0  0  0
  -23.9877  -27.2535   19.0432 H   0  0  0  0  0  0
  -23.7786  -30.5663   19.3889 H   0  0  0  0  0  0
  -22.7730  -29.2175   19.8436 H   0  0  0  0  0  0
  -25.1307  -36.1919   25.0829 H   0  0  0  0  0  0
  -21.0035  -28.3227   24.1363 H   0  0  0  0  0  0
  -20.5745  -26.2303   23.3579 H   0  0  0  0  0  0
  -21.6674  -26.7439   22.1154 H   0  0  0  0  0  0
  -19.7036  -25.6248   21.1233 H   0  0  0  0  0  0
  -19.6778  -27.3162   20.6751 H   0  0  0  0  0  0
  -17.4270  -26.6649   21.3999 H   0  0  0  0  0  0
  -18.0382  -26.0078   22.9018 H   0  0  0  0  0  0
  -19.8002  -30.7237   24.2261 H   0  0  0  0  0  0
  -17.5098  -31.6279   24.5114 H   0  0  0  0  0  0
  -15.5406  -30.3011   23.7670 H   0  0  0  0  0  0
  -15.8692  -28.0877   22.6958 H   0  0  0  0  0  0
  -24.5895  -30.7043   25.7606 H   0  0  0  0  0  0
  -24.8831  -32.2943   26.4635 H   0  0  0  0  0  0
  -25.7946  -30.8989   27.0168 H   0  0  0  0  0  0
  -26.2782  -29.6811   24.1021 H   0  0  0  0  0  0
  -27.4068  -29.7171   25.4354 H   0  0  0  0  0  0
  -27.8578  -30.4342   23.9062 H   0  0  0  0  0  0
  -27.2610  -33.3605   26.1989 H   0  0  0  0  0  0
  -28.3850  -32.6796   25.0291 H   0  0  0  0  0  0
  -28.0632  -31.8438   26.5389 H   0  0  0  0  0  0
  -28.2510  -38.0175   24.7464 H   0  0  0  0  0  0
  -28.1138  -36.2673   24.6286 H   0  0  0  0  0  0
  -27.2324  -37.1403   25.8880 H   0  0  0  0  0  0
  -20.9373  -29.8781   21.6851 H   0  0  0  0  0  0
  -26.0168  -38.2808   24.1427 H   0  0  0  0  0  0
  -27.6803  -17.0669   21.5585 H   0  0  0  0  0  0
  -29.4046  -24.3058   22.4304 H   0  0  0  0  0  0
  -29.2630  -26.0558   22.4293 H   0  0  0  0  0  0
  -30.4277  -25.2688   21.3668 H   0  0  0  0  0  0
  -29.3423  -24.1830   18.9669 H   0  0  0  0  0  0
  -27.6971  -23.6885   19.1194 H   0  0  0  0  0  0
  -27.3778  -24.9749   21.1570 H   0  0  0  0  0  0
  -31.5177  -21.0182   20.1303 H   0  0  0  0  0  0
  -32.2465  -19.6828   19.4678 H   0  0  0  0  0  0
  -26.6464  -20.4678   20.4683 H   0  0  0  0  0  0
  -26.5710  -22.1880   20.2621 H   0  0  0  0  0  0
  -28.8796  -15.2711   21.1685 H   0  0  0  0  0  0
  -30.1170  -22.4972   20.3415 H   0  0  0  0  0  0
  1 25  1  0  0  0
  1 30  2  0  0  0
  1 83  1  0  0  0
  2  3  1  0  0  0
  2 25  1  0  0  0
  2 85  1  0  0  0
  2 86  1  0  0  0
  3  4  1  0  0  0
  3 87  1  0  0  0
  3 88  1  0  0  0
  4  5  1  0  0  0
  4 89  1  0  0  0
  4 90  1  0  0  0
  5  6  1  0  0  0
  5 26  1  0  0  0
  5 91  1  0  0  0
  6 25  1  0  0  0
  6 92  1  0  0  0
  6 93  1  0  0  0
  7  8  2  0  0  0
  7 26  1  0  0  0
  7 29  1  0  0  0
  8  9  1  0  0  0
  8 22  1  0  0  0
  9 10  1  0  0  0
  9 27  2  0  0  0
 10 11  2  0  0  0
 10 15  1  0  0  0
 11 12  1  0  0  0
 11 94  1  0  0  0
 12 13  2  0  0  0
 12 95  1  0  0  0
 13 14  1  0  0  0
 13 31  1  0  0  0
 14 15  2  0  0  0
 14 96  1  0  0  0
 15 97  1  0  0  0
 16 17  2  0  0  0
 16 21  1  0  0  0
 16 31  1  0  0  0
 17 18  1  0  0  0
 17 98  1  0  0  0
 18 19  2  0  0  0
 18 99  1  0  0  0
 19 20  1  0  0  0
 19 24  1  0  0  0
 20 21  2  0  0  0
 20100  1  0  0  0
 21 23  1  0  0  0
 22 28  1  0  0  0
 22 32  2  0  0  0
 26 27  1  0  0  0
 28101  1  0  0  0
 28102  1  0  0  0
 29103  1  0  0  0
 29104  1  0  0  0
 33 34  1  0  0  0
 33 66  1  0  0  0
 33 70  2  0  0  0
 34 36  1  0  0  0
 34 59  1  0  0  0
 34105  1  0  0  0
 35 44  2  0  0  0
 35 45  1  0  0  0
 35 68  1  0  0  0
 36 56  1  0  0  0
 36106  1  0  0  0
 37 39  1  0  0  0
 37 47  1  0  0  0
 37 66  1  0  0  0
 37107  1  0  0  0
 38 43  2  0  0  0
 38 46  1  0  0  0
 38 47  1  0  0  0
 39 64  1  0  0  0
 39 67  2  0  0  0
 40 52  1  0  0  0
 40 53  2  0  0  0
 40 58  1  0  0  0
 41108  1  0  0  0
 41109  1  0  0  0
 41110  1  0  0  0
 41 48  1  0  0  0
 42 43  1  0  0  0
 42 66  1  0  0  0
 42111  1  0  0  0
 42112  1  0  0  0
 43 44  1  0  0  0
 44113  1  0  0  0
 45 46  2  0  0  0
 45114  1  0  0  0
 46115  1  0  0  0
 47116  1  0  0  0
 47117  1  0  0  0
 48 56  1  0  0  0
 48 65  1  0  0  0
 48118  1  0  0  0
 49 50  1  0  0  0
 49 53  1  0  0  0
 49 64  1  0  0  0
 49119  1  0  0  0
 50 51  1  0  0  0
 50120  1  0  0  0
 50121  1  0  0  0
 51 52  1  0  0  0
 51122  1  0  0  0
 51123  1  0  0  0
 52124  1  0  0  0
 52125  1  0  0  0
 53 54  1  0  0  0
 54 55  2  0  0  0
 54126  1  0  0  0
 55 57  1  0  0  0
 55127  1  0  0  0
 56 69  2  0  0  0
 57 58  2  0  0  0
 57128  1  0  0  0
 58129  1  0  0  0
 59 60  1  0  0  0
 59 61  1  0  0  0
 59 62  1  0  0  0
 60130  1  0  0  0
 60131  1  0  0  0
 60132  1  0  0  0
 61133  1  0  0  0
 61134  1  0  0  0
 61135  1  0  0  0
 62136  1  0  0  0
 62137  1  0  0  0
 62138  1  0  0  0
 63 65  1  0  0  0
 63139  1  0  0  0
 63140  1  0  0  0
 63141  1  0  0  0
 64142  1  0  0  0
 65143  1  0  0  0
 68 78  1  0  0  0
 71 73  2  0  0  0
 71 79  1  0  0  0
 71144  1  0  0  0
 72 74  1  0  0  0
 72 75  1  0  0  0
 72 79  2  0  0  0
 73 80  1  0  0  0
 73 83  1  0  0  0
 74 80  2  0  0  0
 74 81  1  0  0  0
 75 82  1  0  0  0
 75 84  2  0  0  0
 76145  1  0  0  0
 76146  1  0  0  0
 76147  1  0  0  0
 76 78  1  0  0  0
 77 78  1  0  0  0
 77 84  1  0  0  0
 77148  1  0  0  0
 77149  1  0  0  0
 78150  1  0  0  0
 81151  1  0  0  0
 81152  1  0  0  0
 82153  1  0  0  0
 82154  1  0  0  0
 83155  1  0  0  0
 84156  1  0  0  0
M  CHG  1  84   1
M  ISO  4   1 100  68 101  78 101  83 100
M  END
> <chiral flag>
0

> <version>
0

> <s_m_source_file>
/data/baiqing/PycharmProjects/Reinvent-master-3.2/result/LINK_invent/BTK/process_docking_weight1_custom_product_contain_oxygen_bond_distance_aromatic_linkinvent_7_9_3/rearranged_h_0199.sdf

> <i_m_source_file_index>
16

> <r_mmod_Potential_Energy-OPLS-2005>
38.4567832946777

> <r_mmod_Stretch_Energy-OPLS-2005>
101.601387023926

> <r_mmod_Bend_Energy-OPLS-2005>
179.884750366211

> <r_mmod_Torsional_Energy-OPLS-2005>
261.158142089844

> <r_mmod_Improper_Torsional_Energy-OPLS-2005>
10.5901908874512

> <r_mmod_Van_der_Waal_Energy-OPLS-2005>
144.04719543457

> <r_mmod_Electrostatic_Energy-OPLS-2005>
-225.23908996582

> <r_mmod_Solvation_Energy-OPLS-2005>
-485.8037109375

> <b_mmod_Minimization_Converged-OPLS-2005>
0

> <r_mmod_RMS_Derivative-OPLS-2005>
5.96577978134155

$$$$
16
                    3D
 Structure written by MMmdl.
151159  0  0  1  0            999 V2000
  -30.6239  -14.6537   20.4887 C   0  0  0  0  0  0
  -30.4393  -12.3986   19.4527 C   0  0  0  0  0  0
  -29.5094  -12.5074   18.2236 C   0  0  0  0  0  0
  -28.0323  -12.3420   18.6354 C   0  0  0  0  0  0
  -27.6523  -13.2159   19.8600 C   0  0  2  0  0  0
  -28.6992  -13.0842   20.9902 C   0  0  0  0  0  0
  -25.2563  -13.8162   20.5678 C   0  0  0  0  0  0
  -24.1834  -13.0436   20.9209 C   0  0  0  0  0  0
  -24.6394  -11.6905   20.8745 C   0  0  0  0  0  0
  -23.9057  -10.4291   21.0409 C   0  0  0  0  0  0
  -24.3608   -9.4207   21.9186 C   0  0  0  0  0  0
  -23.6285   -8.2243   22.0755 C   0  0  0  0  0  0
  -22.4268   -8.0278   21.3544 C   0  0  0  0  0  0
  -21.9902   -9.0254   20.4650 C   0  0  0  0  0  0
  -22.7229  -10.2134   20.3059 C   0  0  0  0  0  0
  -21.6854   -6.0731   22.5277 C   0  0  0  0  0  0
  -21.4015   -6.5636   23.8210 C   0  0  0  0  0  0
  -21.3657   -5.6788   24.9172 C   0  0  0  0  0  0
  -21.6044   -4.3051   24.7225 C   0  0  0  0  0  0
  -21.8818   -3.8143   23.4347 C   0  0  0  0  0  0
  -21.9193   -4.6958   22.3402 C   0  0  0  0  0  0
  -22.7855  -13.5237   21.1854 C   0  0  0  0  0  0
  -22.1662   -4.2145   21.0980 F   0  0  0  0  0  0
  -21.5627   -3.4535   25.7738 F   0  0  0  0  0  0
  -30.0127  -13.4269   20.4231 N   0  0  0  0  0  0
  -26.2986  -12.9341   20.3298 N   0  0  0  0  0  0
  -25.9322  -11.6499   20.5749 N   0  0  0  0  0  0
  -22.0482  -12.8241   22.0409 N   0  0  0  0  0  0
  -25.4269  -15.1880   20.4043 N   0  0  0  0  0  0
  -31.7978  -14.7966   20.1330 O   0  0  0  0  0  0
  -21.6638   -6.8873   21.4238 O   0  0  0  0  0  0
  -22.3551  -14.5542   20.6689 O   0  0  0  0  0  0
  -24.6265  -31.8595   23.2028 C   0  0  0  0  0  0
  -25.9108  -32.4776   23.8355 C   0  0  1  0  0  0
  -27.2241  -27.3144   20.1135 C   0  0  0  0  0  0
  -25.5918  -33.8579   24.2280 N   0  0  0  0  0  0
  -23.4202  -30.4846   21.5460 C   0  0  2  0  0  0
  -24.8668  -28.9418   20.1119 C   0  0  0  0  0  0
  -22.7474  -29.4624   22.4931 C   0  0  0  0  0  0
  -18.0285  -28.1382   22.8482 C   0  0  0  0  0  0
  -24.1490  -36.7301   23.2638 C   0  0  0  0  0  0
  -25.9631  -30.7893   21.3750 C   0  0  0  0  0  0
  -26.0377  -29.4172   20.7158 C   0  0  0  0  0  0
  -27.2198  -28.6162   20.7061 C   0  0  0  0  0  0
  -26.0262  -26.8966   19.4858 C   0  0  0  0  0  0
  -24.8634  -27.6869   19.4883 C   0  0  0  0  0  0
  -23.6348  -29.8214   20.1612 C   0  0  0  0  0  0
  -25.4112  -36.3088   24.0327 C   0  0  1  0  0  0
  -20.5887  -28.3687   23.1278 C   0  0  2  0  0  0
  -20.6774  -26.9406   22.5410 C   0  0  0  0  0  0
  -19.5754  -26.6380   21.5208 C   0  0  0  0  0  0
  -18.1932  -26.7924   22.1618 C   0  0  0  0  0  0
  -19.1538  -28.8850   23.2876 C   0  0  0  0  0  0
  -18.9461  -30.1454   23.8891 C   0  0  0  0  0  0
  -17.6462  -30.6583   24.0561 C   0  0  0  0  0  0
  -25.9046  -34.9452   23.5106 C   0  0  0  0  0  0
  -16.5353  -29.9082   23.6330 C   0  0  0  0  0  0
  -16.7273  -28.6501   23.0344 C   0  0  0  0  0  0
  -26.4483  -31.6584   25.0728 C   0  0  0  0  0  0
  -25.3708  -31.3731   26.1451 C   0  0  0  0  0  0
  -27.0313  -30.3001   24.6186 C   0  0  0  0  0  0
  -27.6048  -32.4308   25.7497 C   0  0  0  0  0  0
  -27.5582  -37.1803   24.8457 C   0  0  0  0  0  0
  -21.4185  -29.3043   22.3672 N   0  0  0  0  0  0
  -26.4292  -37.3780   23.9404 N   0  0  0  0  0  0
  -24.6891  -31.0605   22.0981 N   0  0  0  0  0  0
  -23.4196  -28.8154   23.3003 O   0  0  0  0  0  0
  -28.3368  -26.4535   20.1589 O   0  0  0  0  0  0
  -26.5620  -34.8919   22.4676 O   0  0  0  0  0  0
  -23.5426  -32.1389   23.7355 O   0  0  0  0  0  0
  -28.7604  -17.9569   20.6738 C   0  0  0  0  0  0
  -29.9518  -17.1640   20.6447 C   0  0  0  0  0  0
  -29.9162  -19.9770   20.4751 C   0  0  0  0  0  0
  -31.1195  -19.2011   20.4447 C   0  0  0  0  0  0
  -28.8342  -22.3801   20.2946 C   0  0  0  0  0  0
  -28.0669  -24.9925   20.1279 C   0  0  0  0  0  0
  -29.2292  -23.9319   20.3885 C   0  0  1  0  0  0
  -28.7282  -19.3275   20.5823 N   0  0  0  0  0  0
  -31.1346  -17.8319   20.5213 N   0  0  0  0  0  0
  -29.8000  -15.7131   20.7720 N   0  0  0  0  0  0
  -29.9655  -21.4096   20.4124 N   0  0  0  0  0  0
  -29.6803  -24.1219   21.7172 O   0  0  0  0  0  0
  -32.3096  -19.8412   20.3381 F   0  0  0  0  0  0
  -31.4809  -12.5209   19.1504 H   0  0  0  0  0  0
  -30.3726  -11.4054   19.8997 H   0  0  0  0  0  0
  -29.7766  -11.7557   17.4797 H   0  0  0  0  0  0
  -29.6493  -13.4763   17.7413 H   0  0  0  0  0  0
  -27.8711  -11.2890   18.8697 H   0  0  0  0  0  0
  -27.3785  -12.5689   17.7922 H   0  0  0  0  0  0
  -27.6657  -14.2478   19.5101 H   0  0  0  0  0  0
  -28.7155  -12.0656   21.3811 H   0  0  0  0  0  0
  -28.4458  -13.7232   21.8375 H   0  0  0  0  0  0
  -25.2752   -9.5686   22.4762 H   0  0  0  0  0  0
  -23.9995   -7.4634   22.7472 H   0  0  0  0  0  0
  -21.0834   -8.8771   19.8959 H   0  0  0  0  0  0
  -22.3683  -10.9672   19.6169 H   0  0  0  0  0  0
  -21.2008   -7.6143   23.9709 H   0  0  0  0  0  0
  -21.1481   -6.0521   25.9073 H   0  0  0  0  0  0
  -22.0600   -2.7606   23.2847 H   0  0  0  0  0  0
  -22.4080  -11.9907   22.4820 H   0  0  0  0  0  0
  -21.1100  -13.1281   22.2592 H   0  0  0  0  0  0
  -24.6475  -15.8315   20.4896 H   0  0  0  0  0  0
  -26.2396  -15.6115   19.9773 H   0  0  0  0  0  0
  -26.7176  -32.5443   23.1103 H   0  0  0  0  0  0
  -25.0046  -33.9721   25.0411 H   0  0  0  0  0  0
  -22.7149  -31.3061   21.4037 H   0  0  0  0  0  0
  -23.3750  -35.9635   23.3298 H   0  0  0  0  0  0
  -24.3582  -36.8928   22.2054 H   0  0  0  0  0  0
  -23.7247  -37.6503   23.6664 H   0  0  0  0  0  0
  -26.0949  -31.5530   20.6074 H   0  0  0  0  0  0
  -26.8436  -30.8376   22.0042 H   0  0  0  0  0  0
  -28.1170  -28.9766   21.1897 H   0  0  0  0  0  0
  -25.9506  -25.9421   18.9889 H   0  0  0  0  0  0
  -23.9667  -27.3176   19.0105 H   0  0  0  0  0  0
  -23.7531  -30.5978   19.4046 H   0  0  0  0  0  0
  -22.7548  -29.2504   19.8593 H   0  0  0  0  0  0
  -25.1290  -36.1943   25.0820 H   0  0  0  0  0  0
  -20.9982  -28.3264   24.1397 H   0  0  0  0  0  0
  -20.5668  -26.2291   23.3610 H   0  0  0  0  0  0
  -21.6644  -26.7428   22.1211 H   0  0  0  0  0  0
  -19.6915  -25.6289   21.1242 H   0  0  0  0  0  0
  -19.6699  -27.3185   20.6733 H   0  0  0  0  0  0
  -17.4201  -26.6667   21.4023 H   0  0  0  0  0  0
  -18.0335  -26.0066   22.9016 H   0  0  0  0  0  0
  -19.7939  -30.7271   24.2256 H   0  0  0  0  0  0
  -17.5017  -31.6262   24.5166 H   0  0  0  0  0  0
  -15.5353  -30.2981   23.7658 H   0  0  0  0  0  0
  -15.8671  -28.0824   22.7055 H   0  0  0  0  0  0
  -24.5883  -30.7078   25.7780 H   0  0  0  0  0  0
  -24.8894  -32.2900   26.4861 H   0  0  0  0  0  0
  -25.8024  -30.8917   27.0235 H   0  0  0  0  0  0
  -26.2881  -29.6763   24.1203 H   0  0  0  0  0  0
  -27.3990  -29.7250   25.4694 H   0  0  0  0  0  0
  -27.8765  -30.4274   23.9418 H   0  0  0  0  0  0
  -27.2664  -33.3604   26.2085 H   0  0  0  0  0  0
  -28.3855  -32.6868   25.0321 H   0  0  0  0  0  0
  -28.0715  -31.8419   26.5403 H   0  0  0  0  0  0
  -28.2593  -38.0106   24.7511 H   0  0  0  0  0  0
  -28.1087  -36.2638   24.6271 H   0  0  0  0  0  0
  -27.2303  -37.1442   25.8860 H   0  0  0  0  0  0
  -20.9356  -29.8773   21.6892 H   0  0  0  0  0  0
  -26.0177  -38.2857   24.1403 H   0  0  0  0  0  0
  -27.7969  -17.4785   20.7713 H   0  0  0  0  0  0
  -28.3487  -22.2031   19.3334 H   0  0  0  0  0  0
  -28.0846  -22.1444   21.0522 H   0  0  0  0  0  0
  -27.2492  -24.7770   20.8184 H   0  0  0  0  0  0
  -27.6956  -24.7552   19.1307 H   0  0  0  0  0  0
  -30.0453  -24.1411   19.6947 H   0  0  0  0  0  0
  -28.8663  -15.4195   21.0099 H   0  0  0  0  0  0
  -30.8995  -21.8100   20.4156 H   0  0  0  0  0  0
  -29.8932  -25.0466   21.8061 H   0  0  0  0  0  0
  1 25  1  0  0  0
  1 30  2  0  0  0
  1 80  1  0  0  0
  2  3  1  0  0  0
  2 25  1  0  0  0
  2 84  1  0  0  0
  2 85  1  0  0  0
  3  4  1  0  0  0
  3 86  1  0  0  0
  3 87  1  0  0  0
  4  5  1  0  0  0
  4 88  1  0  0  0
  4 89  1  0  0  0
  5  6  1  0  0  0
  5 26  1  0  0  0
  5 90  1  0  0  0
  6 25  1  0  0  0
  6 91  1  0  0  0
  6 92  1  0  0  0
  7  8  2  0  0  0
  7 26  1  0  0  0
  7 29  1  0  0  0
  8  9  1  0  0  0
  8 22  1  0  0  0
  9 10  1  0  0  0
  9 27  2  0  0  0
 10 11  2  0  0  0
 10 15  1  0  0  0
 11 12  1  0  0  0
 11 93  1  0  0  0
 12 13  2  0  0  0
 12 94  1  0  0  0
 13 14  1  0  0  0
 13 31  1  0  0  0
 14 15  2  0  0  0
 14 95  1  0  0  0
 15 96  1  0  0  0
 16 17  2  0  0  0
 16 21  1  0  0  0
 16 31  1  0  0  0
 17 18  1  0  0  0
 17 97  1  0  0  0
 18 19  2  0  0  0
 18 98  1  0  0  0
 19 20  1  0  0  0
 19 24  1  0  0  0
 20 21  2  0  0  0
 20 99  1  0  0  0
 21 23  1  0  0  0
 22 28  1  0  0  0
 22 32  2  0  0  0
 26 27  1  0  0  0
 28100  1  0  0  0
 28101  1  0  0  0
 29102  1  0  0  0
 29103  1  0  0  0
 33 34  1  0  0  0
 33 66  1  0  0  0
 33 70  2  0  0  0
 34 36  1  0  0  0
 34 59  1  0  0  0
 34104  1  0  0  0
 35 44  2  0  0  0
 35 45  1  0  0  0
 35 68  1  0  0  0
 36 56  1  0  0  0
 36105  1  0  0  0
 37 39  1  0  0  0
 37 47  1  0  0  0
 37 66  1  0  0  0
 37106  1  0  0  0
 38 43  2  0  0  0
 38 46  1  0  0  0
 38 47  1  0  0  0
 39 64  1  0  0  0
 39 67  2  0  0  0
 40 52  1  0  0  0
 40 53  2  0  0  0
 40 58  1  0  0  0
 41107  1  0  0  0
 41108  1  0  0  0
 41109  1  0  0  0
 41 48  1  0  0  0
 42 43  1  0  0  0
 42 66  1  0  0  0
 42110  1  0  0  0
 42111  1  0  0  0
 43 44  1  0  0  0
 44112  1  0  0  0
 45 46  2  0  0  0
 45113  1  0  0  0
 46114  1  0  0  0
 47115  1  0  0  0
 47116  1  0  0  0
 48 56  1  0  0  0
 48 65  1  0  0  0
 48117  1  0  0  0
 49 50  1  0  0  0
 49 53  1  0  0  0
 49 64  1  0  0  0
 49118  1  0  0  0
 50 51  1  0  0  0
 50119  1  0  0  0
 50120  1  0  0  0
 51 52  1  0  0  0
 51121  1  0  0  0
 51122  1  0  0  0
 52123  1  0  0  0
 52124  1  0  0  0
 53 54  1  0  0  0
 54 55  2  0  0  0
 54125  1  0  0  0
 55 57  1  0  0  0
 55126  1  0  0  0
 56 69  2  0  0  0
 57 58  2  0  0  0
 57127  1  0  0  0
 58128  1  0  0  0
 59 60  1  0  0  0
 59 61  1  0  0  0
 59 62  1  0  0  0
 60129  1  0  0  0
 60130  1  0  0  0
 60131  1  0  0  0
 61132  1  0  0  0
 61133  1  0  0  0
 61134  1  0  0  0
 62135  1  0  0  0
 62136  1  0  0  0
 62137  1  0  0  0
 63 65  1  0  0  0
 63138  1  0  0  0
 63139  1  0  0  0
 63140  1  0  0  0
 64141  1  0  0  0
 65142  1  0  0  0
 68 76  1  0  0  0
 71 72  2  0  0  0
 71 78  1  0  0  0
 71143  1  0  0  0
 72 79  1  0  0  0
 72 80  1  0  0  0
 73 74  1  0  0  0
 73 78  2  0  0  0
 73 81  1  0  0  0
 74 79  2  0  0  0
 74 83  1  0  0  0
 75 77  1  0  0  0
 75 81  1  0  0  0
 75144  1  0  0  0
 75145  1  0  0  0
 76 77  1  0  0  0
 76146  1  0  0  0
 76147  1  0  0  0
 77 82  1  0  0  0
 77148  1  0  0  0
 80149  1  0  0  0
 81150  1  0  0  0
 82151  1  0  0  0
M  ISO  4   1 100  68 101  76 101  80 100
M  END
> <chiral flag>
0

> <version>
0

> <s_m_source_file>
/data/baiqing/PycharmProjects/Reinvent-master-3.2/result/LINK_invent/BTK/process_docking_weight1_custom_product_contain_oxygen_bond_distance_aromatic_linkinvent_7_9_3/rearranged_h_0199.sdf

> <i_m_source_file_index>
17

> <r_mmod_Potential_Energy-OPLS-2005>
65.3771438598633

> <r_mmod_Stretch_Energy-OPLS-2005>
83.6199951171875

> <r_mmod_Bend_Energy-OPLS-2005>
147.536697387695

> <r_mmod_Torsional_Energy-OPLS-2005>
224.432495117188

> <r_mmod_Improper_Torsional_Energy-OPLS-2005>
5.20981216430664

> <r_mmod_Van_der_Waal_Energy-OPLS-2005>
148.519119262695

> <r_mmod_Electrostatic_Energy-OPLS-2005>
-338.299713134766

> <r_mmod_Solvation_Energy-OPLS-2005>
-257.944061279297

> <b_mmod_Minimization_Converged-OPLS-2005>
0

> <r_mmod_RMS_Derivative-OPLS-2005>
0.671691358089447

$$$$
17
                    3D
 Structure written by MMmdl.
150158  0  0  1  0            999 V2000
  -30.6211  -14.7534   20.4507 C   0  0  0  0  0  0
  -30.4295  -12.4604   19.4821 C   0  0  0  0  0  0
  -29.5103  -12.5026   18.2414 C   0  0  0  0  0  0
  -28.0369  -12.3288   18.6539 C   0  0  0  0  0  0
  -27.6404  -13.2345   19.8503 C   0  0  2  0  0  0
  -28.6840  -13.1835   20.9888 C   0  0  0  0  0  0
  -25.2502  -13.8210   20.5699 C   0  0  0  0  0  0
  -24.1797  -13.0451   20.9214 C   0  0  0  0  0  0
  -24.6389  -11.6928   20.8753 C   0  0  0  0  0  0
  -23.9066  -10.4299   21.0410 C   0  0  0  0  0  0
  -24.3618   -9.4211   21.9183 C   0  0  0  0  0  0
  -23.6296   -8.2243   22.0750 C   0  0  0  0  0  0
  -22.4278   -8.0280   21.3541 C   0  0  0  0  0  0
  -21.9913   -9.0255   20.4642 C   0  0  0  0  0  0
  -22.7241  -10.2136   20.3055 C   0  0  0  0  0  0
  -21.6856   -6.0735   22.5276 C   0  0  0  0  0  0
  -21.4013   -6.5637   23.8209 C   0  0  0  0  0  0
  -21.3659   -5.6790   24.9171 C   0  0  0  0  0  0
  -21.6045   -4.3053   24.7223 C   0  0  0  0  0  0
  -21.8821   -3.8146   23.4344 C   0  0  0  0  0  0
  -21.9193   -4.6962   22.3400 C   0  0  0  0  0  0
  -22.7817  -13.5228   21.1872 C   0  0  0  0  0  0
  -22.1665   -4.2146   21.0978 F   0  0  0  0  0  0
  -21.5627   -3.4538   25.7737 F   0  0  0  0  0  0
  -29.9857  -13.5310   20.4074 N   0  0  0  0  0  0
  -26.2927  -12.9419   20.3281 N   0  0  0  0  0  0
  -25.9319  -11.6558   20.5751 N   0  0  0  0  0  0
  -22.0462  -12.8215   22.0426 N   0  0  0  0  0  0
  -25.4193  -15.1935   20.4103 N   0  0  0  0  0  0
  -31.8058  -14.8300   20.1160 O   0  0  0  0  0  0
  -21.6644   -6.8878   21.4237 O   0  0  0  0  0  0
  -22.3498  -14.5529   20.6711 O   0  0  0  0  0  0
  -24.6321  -31.8544   23.1980 C   0  0  0  0  0  0
  -25.9144  -32.4747   23.8325 C   0  0  1  0  0  0
  -27.2136  -27.2441   20.1320 C   0  0  0  0  0  0
  -25.5933  -33.8549   24.2243 N   0  0  0  0  0  0
  -23.4288  -30.4783   21.5413 C   0  0  2  0  0  0
  -24.8756  -28.9269   20.1061 C   0  0  0  0  0  0
  -22.7505  -29.4599   22.4900 C   0  0  0  0  0  0
  -18.0294  -28.1387   22.8482 C   0  0  0  0  0  0
  -24.1492  -36.7278   23.2639 C   0  0  0  0  0  0
  -25.9769  -30.7606   21.3832 C   0  0  0  0  0  0
  -26.0471  -29.3829   20.7235 C   0  0  0  0  0  0
  -27.2165  -28.5532   20.7287 C   0  0  0  0  0  0
  -26.0248  -26.8740   19.4613 C   0  0  0  0  0  0
  -24.8717  -27.6812   19.4629 C   0  0  0  0  0  0
  -23.6473  -29.8153   20.1564 C   0  0  0  0  0  0
  -25.4117  -36.3061   24.0325 C   0  0  1  0  0  0
  -20.5898  -28.3698   23.1264 C   0  0  2  0  0  0
  -20.6782  -26.9415   22.5405 C   0  0  0  0  0  0
  -19.5753  -26.6382   21.5212 C   0  0  0  0  0  0
  -18.1935  -26.7926   22.1626 C   0  0  0  0  0  0
  -19.1547  -28.8860   23.2868 C   0  0  0  0  0  0
  -18.9468  -30.1460   23.8886 C   0  0  0  0  0  0
  -17.6468  -30.6589   24.0560 C   0  0  0  0  0  0
  -25.9060  -34.9436   23.5085 C   0  0  0  0  0  0
  -16.5359  -29.9083   23.6335 C   0  0  0  0  0  0
  -16.7280  -28.6501   23.0356 C   0  0  0  0  0  0
  -26.4505  -31.6578   25.0722 C   0  0  0  0  0  0
  -25.3718  -31.3742   26.1438 C   0  0  0  0  0  0
  -27.0358  -30.2986   24.6239 C   0  0  0  0  0  0
  -27.6051  -32.4330   25.7495 C   0  0  0  0  0  0
  -27.5578  -37.1796   24.8465 C   0  0  0  0  0  0
  -21.4212  -29.3044   22.3649 N   0  0  0  0  0  0
  -26.4287  -37.3765   23.9410 N   0  0  0  0  0  0
  -24.6979  -31.0500   22.0961 N   0  0  0  0  0  0
  -23.4199  -28.8143   23.3004 O   0  0  0  0  0  0
  -28.2959  -26.3296   20.2235 O   0  0  0  0  0  0
  -26.5637  -34.8915   22.4659 O   0  0  0  0  0  0
  -23.5468  -32.1378   23.7268 O   0  0  0  0  0  0
  -29.6652  -18.6993   20.6739 C   0  0  0  0  0  0
  -29.1083  -20.9590   20.7010 C   0  0  0  0  0  0
  -28.5675  -23.7461   22.1919 C   0  0  0  0  0  0
  -30.2813  -17.3167   20.1596 C   0  0  0  0  0  0
  -28.0923  -24.8562   19.9402 C   0  0  0  0  0  0
  -28.9200  -23.6744   20.6968 C   0  0  2  0  0  0
  -29.4525  -19.8530   19.9548 N   0  0  0  0  0  0
  -29.0004  -20.7376   22.0194 N   0  0  0  0  0  0
  -28.8113  -22.2572   20.1202 N   0  0  0  0  0  0
  -29.8767  -15.9134   20.6250 N   0  0  0  0  0  0
  -29.3451  -19.0940   22.3508 S   0  0  0  0  0  0
  -31.4702  -12.5790   19.1766 H   0  0  0  0  0  0
  -30.3738  -11.4876   19.9725 H   0  0  0  0  0  0
  -29.7940  -11.7208   17.5354 H   0  0  0  0  0  0
  -29.6375  -13.4512   17.7170 H   0  0  0  0  0  0
  -27.8954  -11.2814   18.9223 H   0  0  0  0  0  0
  -27.3806  -12.5147   17.8028 H   0  0  0  0  0  0
  -27.6315  -14.2529   19.4617 H   0  0  0  0  0  0
  -28.7203  -12.1919   21.4424 H   0  0  0  0  0  0
  -28.4170  -13.8772   21.7876 H   0  0  0  0  0  0
  -25.2762   -9.5690   22.4760 H   0  0  0  0  0  0
  -24.0007   -7.4634   22.7468 H   0  0  0  0  0  0
  -21.0844   -8.8773   19.8948 H   0  0  0  0  0  0
  -22.3696  -10.9674   19.6164 H   0  0  0  0  0  0
  -21.2006   -7.6145   23.9711 H   0  0  0  0  0  0
  -21.1480   -6.0521   25.9073 H   0  0  0  0  0  0
  -22.0601   -2.7606   23.2845 H   0  0  0  0  0  0
  -22.4089  -11.9889   22.4830 H   0  0  0  0  0  0
  -21.1068  -13.1223   22.2612 H   0  0  0  0  0  0
  -24.6495  -15.8461   20.5129 H   0  0  0  0  0  0
  -26.2578  -15.6281   20.0480 H   0  0  0  0  0  0
  -26.7210  -32.5389   23.1062 H   0  0  0  0  0  0
  -25.0060  -33.9683   25.0375 H   0  0  0  0  0  0
  -22.7251  -31.3007   21.3970 H   0  0  0  0  0  0
  -23.3754  -35.9610   23.3293 H   0  0  0  0  0  0
  -24.3580  -36.8908   22.2055 H   0  0  0  0  0  0
  -23.7251  -37.6478   23.6673 H   0  0  0  0  0  0
  -26.1232  -31.5222   20.6160 H   0  0  0  0  0  0
  -26.8513  -30.8046   22.0206 H   0  0  0  0  0  0
  -28.1078  -28.8933   21.2377 H   0  0  0  0  0  0
  -25.9483  -25.9355   18.9342 H   0  0  0  0  0  0
  -23.9802  -27.3311   18.9609 H   0  0  0  0  0  0
  -23.7724  -30.5936   19.4030 H   0  0  0  0  0  0
  -22.7648  -29.2510   19.8499 H   0  0  0  0  0  0
  -25.1305  -36.1895   25.0819 H   0  0  0  0  0  0
  -20.9995  -28.3282   24.1382 H   0  0  0  0  0  0
  -20.5679  -26.2312   23.3611 H   0  0  0  0  0  0
  -21.6651  -26.7436   22.1203 H   0  0  0  0  0  0
  -19.6912  -25.6289   21.1246 H   0  0  0  0  0  0
  -19.6687  -27.3189   20.6737 H   0  0  0  0  0  0
  -17.4203  -26.6671   21.4030 H   0  0  0  0  0  0
  -18.0336  -26.0070   22.9023 H   0  0  0  0  0  0
  -19.7945  -30.7281   24.2247 H   0  0  0  0  0  0
  -17.5023  -31.6268   24.5163 H   0  0  0  0  0  0
  -15.5357  -30.2982   23.7666 H   0  0  0  0  0  0
  -15.8680  -28.0818   22.7077 H   0  0  0  0  0  0
  -24.5901  -30.7079   25.7773 H   0  0  0  0  0  0
  -24.8897  -32.2913   26.4832 H   0  0  0  0  0  0
  -25.8025  -30.8946   27.0235 H   0  0  0  0  0  0
  -26.2951  -29.6718   24.1258 H   0  0  0  0  0  0
  -27.4013  -29.7270   25.4781 H   0  0  0  0  0  0
  -27.8844  -30.4242   23.9510 H   0  0  0  0  0  0
  -27.2658  -33.3649   26.2031 H   0  0  0  0  0  0
  -28.3881  -32.6859   25.0333 H   0  0  0  0  0  0
  -28.0698  -31.8480   26.5442 H   0  0  0  0  0  0
  -28.2595  -38.0095   24.7517 H   0  0  0  0  0  0
  -28.1076  -36.2626   24.6286 H   0  0  0  0  0  0
  -27.2296  -37.1439   25.8868 H   0  0  0  0  0  0
  -20.9391  -29.8763   21.6857 H   0  0  0  0  0  0
  -26.0159  -38.2836   24.1408 H   0  0  0  0  0  0
  -27.5620  -23.3729   22.3890 H   0  0  0  0  0  0
  -28.6079  -24.7769   22.5463 H   0  0  0  0  0  0
  -29.2712  -23.1866   22.8069 H   0  0  0  0  0  0
  -31.3540  -17.4111   20.3332 H   0  0  0  0  0  0
  -30.1750  -17.3198   19.0748 H   0  0  0  0  0  0
  -27.0503  -24.6003   20.1269 H   0  0  0  0  0  0
  -28.2387  -24.7369   18.8664 H   0  0  0  0  0  0
  -29.9746  -23.9377   20.6040 H   0  0  0  0  0  0
  -28.8527  -22.2380   19.1067 H   0  0  0  0  0  0
  -28.9111  -15.7916   20.8884 H   0  0  0  0  0  0
  1 25  1  0  0  0
  1 30  2  0  0  0
  1 80  1  0  0  0
  2  3  1  0  0  0
  2 25  1  0  0  0
  2 82  1  0  0  0
  2 83  1  0  0  0
  3  4  1  0  0  0
  3 84  1  0  0  0
  3 85  1  0  0  0
  4  5  1  0  0  0
  4 86  1  0  0  0
  4 87  1  0  0  0
  5  6  1  0  0  0
  5 26  1  0  0  0
  5 88  1  0  0  0
  6 25  1  0  0  0
  6 89  1  0  0  0
  6 90  1  0  0  0
  7  8  2  0  0  0
  7 26  1  0  0  0
  7 29  1  0  0  0
  8  9  1  0  0  0
  8 22  1  0  0  0
  9 10  1  0  0  0
  9 27  2  0  0  0
 10 11  2  0  0  0
 10 15  1  0  0  0
 11 12  1  0  0  0
 11 91  1  0  0  0
 12 13  2  0  0  0
 12 92  1  0  0  0
 13 14  1  0  0  0
 13 31  1  0  0  0
 14 15  2  0  0  0
 14 93  1  0  0  0
 15 94  1  0  0  0
 16 17  2  0  0  0
 16 21  1  0  0  0
 16 31  1  0  0  0
 17 18  1  0  0  0
 17 95  1  0  0  0
 18 19  2  0  0  0
 18 96  1  0  0  0
 19 20  1  0  0  0
 19 24  1  0  0  0
 20 21  2  0  0  0
 20 97  1  0  0  0
 21 23  1  0  0  0
 22 28  1  0  0  0
 22 32  2  0  0  0
 26 27  1  0  0  0
 28 98  1  0  0  0
 28 99  1  0  0  0
 29100  1  0  0  0
 29101  1  0  0  0
 33 34  1  0  0  0
 33 66  1  0  0  0
 33 70  2  0  0  0
 34 36  1  0  0  0
 34 59  1  0  0  0
 34102  1  0  0  0
 35 44  2  0  0  0
 35 45  1  0  0  0
 35 68  1  0  0  0
 36 56  1  0  0  0
 36103  1  0  0  0
 37 39  1  0  0  0
 37 47  1  0  0  0
 37 66  1  0  0  0
 37104  1  0  0  0
 38 43  2  0  0  0
 38 46  1  0  0  0
 38 47  1  0  0  0
 39 64  1  0  0  0
 39 67  2  0  0  0
 40 52  1  0  0  0
 40 53  2  0  0  0
 40 58  1  0  0  0
 41105  1  0  0  0
 41106  1  0  0  0
 41107  1  0  0  0
 41 48  1  0  0  0
 42 43  1  0  0  0
 42 66  1  0  0  0
 42108  1  0  0  0
 42109  1  0  0  0
 43 44  1  0  0  0
 44110  1  0  0  0
 45 46  2  0  0  0
 45111  1  0  0  0
 46112  1  0  0  0
 47113  1  0  0  0
 47114  1  0  0  0
 48 56  1  0  0  0
 48 65  1  0  0  0
 48115  1  0  0  0
 49 50  1  0  0  0
 49 53  1  0  0  0
 49 64  1  0  0  0
 49116  1  0  0  0
 50 51  1  0  0  0
 50117  1  0  0  0
 50118  1  0  0  0
 51 52  1  0  0  0
 51119  1  0  0  0
 51120  1  0  0  0
 52121  1  0  0  0
 52122  1  0  0  0
 53 54  1  0  0  0
 54 55  2  0  0  0
 54123  1  0  0  0
 55 57  1  0  0  0
 55124  1  0  0  0
 56 69  2  0  0  0
 57 58  2  0  0  0
 57125  1  0  0  0
 58126  1  0  0  0
 59 60  1  0  0  0
 59 61  1  0  0  0
 59 62  1  0  0  0
 60127  1  0  0  0
 60128  1  0  0  0
 60129  1  0  0  0
 61130  1  0  0  0
 61131  1  0  0  0
 61132  1  0  0  0
 62133  1  0  0  0
 62134  1  0  0  0
 62135  1  0  0  0
 63 65  1  0  0  0
 63136  1  0  0  0
 63137  1  0  0  0
 63138  1  0  0  0
 64139  1  0  0  0
 65140  1  0  0  0
 68 75  1  0  0  0
 71 74  1  0  0  0
 71 77  2  0  0  0
 71 81  1  0  0  0
 72 77  1  0  0  0
 72 78  2  0  0  0
 72 79  1  0  0  0
 73141  1  0  0  0
 73142  1  0  0  0
 73143  1  0  0  0
 73 76  1  0  0  0
 74 80  1  0  0  0
 74144  1  0  0  0
 74145  1  0  0  0
 75 76  1  0  0  0
 75146  1  0  0  0
 75147  1  0  0  0
 76 79  1  0  0  0
 76148  1  0  0  0
 78 81  1  0  0  0
 79149  1  0  0  0
 80150  1  0  0  0
M  ISO  4   1 100  68 101  75 101  80 100
M  END
> <chiral flag>
0

> <version>
0

> <s_m_source_file>
/data/baiqing/PycharmProjects/Reinvent-master-3.2/result/LINK_invent/BTK/process_docking_weight1_custom_product_contain_oxygen_bond_distance_aromatic_linkinvent_7_9_3/rearranged_h_0199.sdf

> <i_m_source_file_index>
18

> <r_mmod_Potential_Energy-OPLS-2005>
8.5937614440918

> <r_mmod_Stretch_Energy-OPLS-2005>
125.177635192871

> <r_mmod_Bend_Energy-OPLS-2005>
200.149215698242

> <r_mmod_Torsional_Energy-OPLS-2005>
201.234222412109

> <r_mmod_Improper_Torsional_Energy-OPLS-2005>
8.28984355926514

> <r_mmod_Van_der_Waal_Energy-OPLS-2005>
123.339637756348

> <r_mmod_Electrostatic_Energy-OPLS-2005>
-513.156311035156

> <r_mmod_Solvation_Energy-OPLS-2005>
-231.134796142578

> <b_mmod_Minimization_Converged-OPLS-2005>
0

> <r_mmod_RMS_Derivative-OPLS-2005>
0.793240785598755

$$$$
18
                    3D
 Structure written by MMmdl.
156164  0  0  1  0            999 V2000
  -30.6896  -14.5336   20.5729 C   0  0  0  0  0  0
  -30.4347  -12.3516   19.4296 C   0  0  0  0  0  0
  -29.5046  -12.5220   18.2097 C   0  0  0  0  0  0
  -28.0248  -12.3739   18.6167 C   0  0  0  0  0  0
  -27.6595  -13.2176   19.8665 C   0  0  2  0  0  0
  -28.7029  -13.0259   20.9907 C   0  0  0  0  0  0
  -25.2590  -13.8184   20.5691 C   0  0  0  0  0  0
  -24.1836  -13.0448   20.9169 C   0  0  0  0  0  0
  -24.6409  -11.6921   20.8703 C   0  0  0  0  0  0
  -23.9077  -10.4311   21.0382 C   0  0  0  0  0  0
  -24.3629   -9.4219   21.9154 C   0  0  0  0  0  0
  -23.6299   -8.2251   22.0753 C   0  0  0  0  0  0
  -22.4272   -8.0291   21.3560 C   0  0  0  0  0  0
  -21.9917   -9.0262   20.4656 C   0  0  0  0  0  0
  -22.7252  -10.2145   20.3042 C   0  0  0  0  0  0
  -21.6875   -6.0732   22.5270 C   0  0  0  0  0  0
  -21.4021   -6.5636   23.8203 C   0  0  0  0  0  0
  -21.3664   -5.6788   24.9165 C   0  0  0  0  0  0
  -21.6047   -4.3049   24.7211 C   0  0  0  0  0  0
  -21.8833   -3.8144   23.4329 C   0  0  0  0  0  0
  -21.9207   -4.6954   22.3395 C   0  0  0  0  0  0
  -22.7872  -13.5228   21.1856 C   0  0  0  0  0  0
  -22.1674   -4.2146   21.0968 F   0  0  0  0  0  0
  -21.5634   -3.4537   25.7724 F   0  0  0  0  0  0
  -30.0323  -13.3438   20.4394 N   0  0  0  0  0  0
  -26.3024  -12.9357   20.3332 N   0  0  0  0  0  0
  -25.9334  -11.6504   20.5704 N   0  0  0  0  0  0
  -22.0536  -12.8190   22.0415 N   0  0  0  0  0  0
  -25.4305  -15.1900   20.4136 N   0  0  0  0  0  0
  -31.8332  -14.7085   20.1425 O   0  0  0  0  0  0
  -21.6652   -6.8869   21.4240 O   0  0  0  0  0  0
  -22.3530  -14.5539   20.6727 O   0  0  0  0  0  0
  -24.6214  -31.8676   23.2125 C   0  0  0  0  0  0
  -25.9093  -32.4815   23.8426 C   0  0  1  0  0  0
  -27.2132  -27.3746   20.0839 C   0  0  0  0  0  0
  -25.5959  -33.8611   24.2337 N   0  0  0  0  0  0
  -23.4117  -30.4920   21.5599 C   0  0  2  0  0  0
  -24.8518  -28.9650   20.1184 C   0  0  0  0  0  0
  -22.7467  -29.4626   22.5023 C   0  0  0  0  0  0
  -18.0267  -28.1393   22.8469 C   0  0  0  0  0  0
  -24.1499  -36.7316   23.2624 C   0  0  0  0  0  0
  -25.9498  -30.8160   21.3745 C   0  0  0  0  0  0
  -26.0230  -29.4483   20.7134 C   0  0  0  0  0  0
  -27.2079  -28.6617   20.6922 C   0  0  0  0  0  0
  -26.0144  -26.9407   19.4649 C   0  0  0  0  0  0
  -24.8446  -27.7120   19.4929 C   0  0  0  0  0  0
  -23.6239  -29.8439   20.1700 C   0  0  0  0  0  0
  -25.4116  -36.3112   24.0332 C   0  0  1  0  0  0
  -20.5864  -28.3672   23.1335 C   0  0  2  0  0  0
  -20.6792  -26.9415   22.5426 C   0  0  0  0  0  0
  -19.5784  -26.6390   21.5227 C   0  0  0  0  0  0
  -18.1935  -26.7940   22.1607 C   0  0  0  0  0  0
  -19.1515  -28.8854   23.2887 C   0  0  0  0  0  0
  -18.9431  -30.1464   23.8889 C   0  0  0  0  0  0
  -17.6434  -30.6591   24.0566 C   0  0  0  0  0  0
  -25.9057  -34.9470   23.5124 C   0  0  0  0  0  0
  -16.5331  -29.9096   23.6321 C   0  0  0  0  0  0
  -16.7259  -28.6530   23.0309 C   0  0  0  0  0  0
  -26.4501  -31.6584   25.0746 C   0  0  0  0  0  0
  -25.3755  -31.3709   26.1483 C   0  0  0  0  0  0
  -27.0295  -30.3017   24.6125 C   0  0  0  0  0  0
  -27.6071  -32.4301   25.7512 C   0  0  0  0  0  0
  -27.5590  -37.1820   24.8452 C   0  0  0  0  0  0
  -21.4188  -29.3028   22.3761 N   0  0  0  0  0  0
  -26.4291  -37.3808   23.9409 N   0  0  0  0  0  0
  -24.6808  -31.0710   22.1082 N   0  0  0  0  0  0
  -23.4208  -28.8136   23.3064 O   0  0  0  0  0  0
  -28.3453  -26.5571   20.1146 O   0  0  0  0  0  0
  -26.5583  -34.8931   22.4665 O   0  0  0  0  0  0
  -23.5400  -32.1445   23.7491 O   0  0  0  0  0  0
  -31.1553  -17.5800   21.8170 C   0  0  0  0  0  0
  -30.2127  -16.9489   21.0418 C   0  0  0  0  0  0
  -29.6797  -19.1466   20.5561 C   0  0  0  0  0  0
  -27.4006  -20.2175   20.3652 C   0  0  0  0  0  0
  -29.1332  -22.7529   19.4323 C   0  0  0  0  0  0
  -28.1516  -25.1547   19.7600 C   0  0  0  0  0  0
  -28.8731  -20.2760   19.9130 C   0  0  1  0  0  0
  -29.2570  -24.1268   20.1777 C   0  0  1  0  0  0
  -29.3935  -17.8457   20.3357 N   0  0  0  0  0  0
  -29.9493  -15.5455   21.0804 N   0  0  0  0  0  0
  -29.5087  -21.5779   20.2793 N   0  3  0  0  0  0
  -29.1127  -23.8540   21.5668 O   0  0  0  0  0  0
  -31.0199  -19.3256   21.7008 S   0  0  0  0  0  0
  -31.4772  -12.4701   19.1278 H   0  0  0  0  0  0
  -30.3526  -11.3461   19.8431 H   0  0  0  0  0  0
  -29.7538  -11.7908   17.4400 H   0  0  0  0  0  0
  -29.6619  -13.5038   17.7584 H   0  0  0  0  0  0
  -27.8397  -11.3177   18.8096 H   0  0  0  0  0  0
  -27.3791  -12.6476   17.7818 H   0  0  0  0  0  0
  -27.6899  -14.2629   19.5530 H   0  0  0  0  0  0
  -28.6915  -11.9968   21.3533 H   0  0  0  0  0  0
  -28.4518  -13.6407   21.8579 H   0  0  0  0  0  0
  -25.2785   -9.5690   22.4702 H   0  0  0  0  0  0
  -24.0035   -7.4638   22.7458 H   0  0  0  0  0  0
  -21.0868   -8.8783   19.8930 H   0  0  0  0  0  0
  -22.3725  -10.9677   19.6135 H   0  0  0  0  0  0
  -21.2007   -7.6149   23.9706 H   0  0  0  0  0  0
  -21.1479   -6.0515   25.9071 H   0  0  0  0  0  0
  -22.0605   -2.7604   23.2836 H   0  0  0  0  0  0
  -22.4195  -11.9855   22.4763 H   0  0  0  0  0  0
  -21.1143  -13.1177   22.2636 H   0  0  0  0  0  0
  -24.6657  -15.8478   20.5231 H   0  0  0  0  0  0
  -26.2875  -15.6350   20.1098 H   0  0  0  0  0  0
  -26.7149  -32.5516   23.1175 H   0  0  0  0  0  0
  -25.0190  -33.9791   25.0550 H   0  0  0  0  0  0
  -22.6996  -31.3088   21.4274 H   0  0  0  0  0  0
  -23.3767  -35.9639   23.3271 H   0  0  0  0  0  0
  -24.3605  -36.8961   22.2038 H   0  0  0  0  0  0
  -23.7241  -37.6517   23.6652 H   0  0  0  0  0  0
  -26.0663  -31.5842   20.6086 H   0  0  0  0  0  0
  -26.8368  -30.8675   21.9938 H   0  0  0  0  0  0
  -28.1109  -29.0321   21.1573 H   0  0  0  0  0  0
  -25.9338  -25.9969   18.9478 H   0  0  0  0  0  0
  -23.9459  -27.3346   19.0248 H   0  0  0  0  0  0
  -23.7615  -30.6334   19.4302 H   0  0  0  0  0  0
  -22.7414  -29.2861   19.8504 H   0  0  0  0  0  0
  -25.1283  -36.1989   25.0826 H   0  0  0  0  0  0
  -20.9906  -28.3236   24.1487 H   0  0  0  0  0  0
  -20.5779  -26.2260   23.3605 H   0  0  0  0  0  0
  -21.6660  -26.7532   22.1173 H   0  0  0  0  0  0
  -19.6965  -25.6303   21.1268 H   0  0  0  0  0  0
  -19.6744  -27.3196   20.6764 H   0  0  0  0  0  0
  -17.4230  -26.6677   21.3984 H   0  0  0  0  0  0
  -18.0317  -26.0087   22.9008 H   0  0  0  0  0  0
  -19.7901  -30.7288   24.2266 H   0  0  0  0  0  0
  -17.4978  -31.6263   24.5175 H   0  0  0  0  0  0
  -15.5335  -30.2982   23.7663 H   0  0  0  0  0  0
  -15.8657  -28.0875   22.6976 H   0  0  0  0  0  0
  -24.5911  -30.7087   25.7818 H   0  0  0  0  0  0
  -24.8958  -32.2863   26.4940 H   0  0  0  0  0  0
  -25.8073  -30.8852   27.0239 H   0  0  0  0  0  0
  -26.2830  -29.6822   24.1141 H   0  0  0  0  0  0
  -27.4011  -29.7204   25.4570 H   0  0  0  0  0  0
  -27.8696  -30.4296   23.9296 H   0  0  0  0  0  0
  -27.2679  -33.3578   26.2132 H   0  0  0  0  0  0
  -28.3852  -32.6921   25.0331 H   0  0  0  0  0  0
  -28.0783  -31.8416   26.5397 H   0  0  0  0  0  0
  -28.2584  -38.0148   24.7530 H   0  0  0  0  0  0
  -28.1122  -36.2673   24.6232 H   0  0  0  0  0  0
  -27.2313  -37.1411   25.8863 H   0  0  0  0  0  0
  -20.9390  -29.8720   21.6931 H   0  0  0  0  0  0
  -26.0180  -38.2887   24.1452 H   0  0  0  0  0  0
  -31.8888  -17.1471   22.4866 H   0  0  0  0  0  0
  -26.9653  -19.2445   20.1315 H   0  0  0  0  0  0
  -26.7862  -20.9668   19.8684 H   0  0  0  0  0  0
  -27.3074  -20.3659   21.4410 H   0  0  0  0  0  0
  -29.7369  -22.7512   18.5231 H   0  0  0  0  0  0
  -28.1045  -22.6324   19.0940 H   0  0  0  0  0  0
  -27.2163  -24.7717   20.1730 H   0  0  0  0  0  0
  -28.0416  -25.1187   18.6752 H   0  0  0  0  0  0
  -28.9413  -20.1470   18.8313 H   0  0  0  0  0  0
  -30.2444  -24.5513   19.9873 H   0  0  0  0  0  0
  -28.9997  -15.2859   21.2955 H   0  0  0  0  0  0
  -29.2404  -21.8526   21.2140 H   0  0  0  0  0  0
  -30.5091  -21.4732   20.2765 H   0  0  0  0  0  0
  -29.1975  -24.6860   22.0253 H   0  0  0  0  0  0
  1 25  1  0  0  0
  1 30  2  0  0  0
  1 80  1  0  0  0
  2  3  1  0  0  0
  2 25  1  0  0  0
  2 84  1  0  0  0
  2 85  1  0  0  0
  3  4  1  0  0  0
  3 86  1  0  0  0
  3 87  1  0  0  0
  4  5  1  0  0  0
  4 88  1  0  0  0
  4 89  1  0  0  0
  5  6  1  0  0  0
  5 26  1  0  0  0
  5 90  1  0  0  0
  6 25  1  0  0  0
  6 91  1  0  0  0
  6 92  1  0  0  0
  7  8  2  0  0  0
  7 26  1  0  0  0
  7 29  1  0  0  0
  8  9  1  0  0  0
  8 22  1  0  0  0
  9 10  1  0  0  0
  9 27  2  0  0  0
 10 11  2  0  0  0
 10 15  1  0  0  0
 11 12  1  0  0  0
 11 93  1  0  0  0
 12 13  2  0  0  0
 12 94  1  0  0  0
 13 14  1  0  0  0
 13 31  1  0  0  0
 14 15  2  0  0  0
 14 95  1  0  0  0
 15 96  1  0  0  0
 16 17  2  0  0  0
 16 21  1  0  0  0
 16 31  1  0  0  0
 17 18  1  0  0  0
 17 97  1  0  0  0
 18 19  2  0  0  0
 18 98  1  0  0  0
 19 20  1  0  0  0
 19 24  1  0  0  0
 20 21  2  0  0  0
 20 99  1  0  0  0
 21 23  1  0  0  0
 22 28  1  0  0  0
 22 32  2  0  0  0
 26 27  1  0  0  0
 28100  1  0  0  0
 28101  1  0  0  0
 29102  1  0  0  0
 29103  1  0  0  0
 33 34  1  0  0  0
 33 66  1  0  0  0
 33 70  2  0  0  0
 34 36  1  0  0  0
 34 59  1  0  0  0
 34104  1  0  0  0
 35 44  2  0  0  0
 35 45  1  0  0  0
 35 68  1  0  0  0
 36 56  1  0  0  0
 36105  1  0  0  0
 37 39  1  0  0  0
 37 47  1  0  0  0
 37 66  1  0  0  0
 37106  1  0  0  0
 38 43  2  0  0  0
 38 46  1  0  0  0
 38 47  1  0  0  0
 39 64  1  0  0  0
 39 67  2  0  0  0
 40 52  1  0  0  0
 40 53  2  0  0  0
 40 58  1  0  0  0
 41107  1  0  0  0
 41108  1  0  0  0
 41109  1  0  0  0
 41 48  1  0  0  0
 42 43  1  0  0  0
 42 66  1  0  0  0
 42110  1  0  0  0
 42111  1  0  0  0
 43 44  1  0  0  0
 44112  1  0  0  0
 45 46  2  0  0  0
 45113  1  0  0  0
 46114  1  0  0  0
 47115  1  0  0  0
 47116  1  0  0  0
 48 56  1  0  0  0
 48 65  1  0  0  0
 48117  1  0  0  0
 49 50  1  0  0  0
 49 53  1  0  0  0
 49 64  1  0  0  0
 49118  1  0  0  0
 50 51  1  0  0  0
 50119  1  0  0  0
 50120  1  0  0  0
 51 52  1  0  0  0
 51121  1  0  0  0
 51122  1  0  0  0
 52123  1  0  0  0
 52124  1  0  0  0
 53 54  1  0  0  0
 54 55  2  0  0  0
 54125  1  0  0  0
 55 57  1  0  0  0
 55126  1  0  0  0
 56 69  2  0  0  0
 57 58  2  0  0  0
 57127  1  0  0  0
 58128  1  0  0  0
 59 60  1  0  0  0
 59 61  1  0  0  0
 59 62  1  0  0  0
 60129  1  0  0  0
 60130  1  0  0  0
 60131  1  0  0  0
 61132  1  0  0  0
 61133  1  0  0  0
 61134  1  0  0  0
 62135  1  0  0  0
 62136  1  0  0  0
 62137  1  0  0  0
 63 65  1  0  0  0
 63138  1  0  0  0
 63139  1  0  0  0
 63140  1  0  0  0
 64141  1  0  0  0
 65142  1  0  0  0
 68 76  1  0  0  0
 71 72  2  0  0  0
 71 83  1  0  0  0
 71143  1  0  0  0
 72 79  1  0  0  0
 72 80  1  0  0  0
 73 77  1  0  0  0
 73 79  2  0  0  0
 73 83  1  0  0  0
 74144  1  0  0  0
 74145  1  0  0  0
 74146  1  0  0  0
 74 77  1  0  0  0
 75 78  1  0  0  0
 75 81  1  0  0  0
 75147  1  0  0  0
 75148  1  0  0  0
 76 78  1  0  0  0
 76149  1  0  0  0
 76150  1  0  0  0
 77 81  1  0  0  0
 77151  1  0  0  0
 78 82  1  0  0  0
 78152  1  0  0  0
 80153  1  0  0  0
 81154  1  0  0  0
 81155  1  0  0  0
 82156  1  0  0  0
M  CHG  1  81   1
M  ISO  4   1 100  68 101  76 101  80 100
M  END
> <chiral flag>
0

> <version>
0

> <s_m_source_file>
/data/baiqing/PycharmProjects/Reinvent-master-3.2/result/LINK_invent/BTK/process_docking_weight1_custom_product_contain_oxygen_bond_distance_aromatic_linkinvent_7_9_3/rearranged_h_0199.sdf

> <i_m_source_file_index>
19

> <r_mmod_Potential_Energy-OPLS-2005>
-341.022613525391

> <r_mmod_Stretch_Energy-OPLS-2005>
47.1539688110352

> <r_mmod_Bend_Energy-OPLS-2005>
110.071411132812

> <r_mmod_Torsional_Energy-OPLS-2005>
241.664581298828

> <r_mmod_Improper_Torsional_Energy-OPLS-2005>
4.65902757644653

> <r_mmod_Van_der_Waal_Energy-OPLS-2005>
141.127868652344

> <r_mmod_Electrostatic_Energy-OPLS-2005>
-441.83447265625

> <r_mmod_Solvation_Energy-OPLS-2005>
-469.247924804688

> <b_mmod_Minimization_Converged-OPLS-2005>
0

> <r_mmod_RMS_Derivative-OPLS-2005>
3.93706727027893

$$$$
19
                    3D
 Structure written by MMmdl.
148156  0  0  1  0            999 V2000
  -30.6447  -14.6892   20.4895 C   0  0  0  0  0  0
  -30.4287  -12.4292   19.4560 C   0  0  0  0  0  0
  -29.5022  -12.5004   18.2239 C   0  0  0  0  0  0
  -28.0288  -12.3317   18.6428 C   0  0  0  0  0  0
  -27.6428  -13.2275   19.8502 C   0  0  2  0  0  0
  -28.6900  -13.1436   20.9811 C   0  0  0  0  0  0
  -25.2519  -13.8194   20.5698 C   0  0  0  0  0  0
  -24.1805  -13.0442   20.9210 C   0  0  0  0  0  0
  -24.6391  -11.6918   20.8752 C   0  0  0  0  0  0
  -23.9068  -10.4295   21.0411 C   0  0  0  0  0  0
  -24.3619   -9.4208   21.9186 C   0  0  0  0  0  0
  -23.6294   -8.2243   22.0754 C   0  0  0  0  0  0
  -22.4276   -8.0282   21.3544 C   0  0  0  0  0  0
  -21.9913   -9.0256   20.4647 C   0  0  0  0  0  0
  -22.7242  -10.2136   20.3058 C   0  0  0  0  0  0
  -21.6853   -6.0736   22.5279 C   0  0  0  0  0  0
  -21.4014   -6.5640   23.8212 C   0  0  0  0  0  0
  -21.3659   -5.6794   24.9174 C   0  0  0  0  0  0
  -21.6045   -4.3056   24.7225 C   0  0  0  0  0  0
  -21.8819   -3.8148   23.4346 C   0  0  0  0  0  0
  -21.9193   -4.6964   22.3402 C   0  0  0  0  0  0
  -22.7826  -13.5225   21.1869 C   0  0  0  0  0  0
  -22.1662   -4.2149   21.0980 F   0  0  0  0  0  0
  -21.5629   -3.4540   25.7738 F   0  0  0  0  0  0
  -29.9922  -13.4845   20.3952 N   0  0  0  0  0  0
  -26.2944  -12.9394   20.3290 N   0  0  0  0  0  0
  -25.9320  -11.6540   20.5760 N   0  0  0  0  0  0
  -22.0474  -12.8213   22.0425 N   0  0  0  0  0  0
  -25.4215  -15.1917   20.4107 N   0  0  0  0  0  0
  -31.8349  -14.7763   20.1780 O   0  0  0  0  0  0
  -21.6640   -6.8879   21.4241 O   0  0  0  0  0  0
  -22.3510  -14.5531   20.6716 O   0  0  0  0  0  0
  -24.6303  -31.8575   23.2012 C   0  0  0  0  0  0
  -25.9137  -32.4765   23.8348 C   0  0  1  0  0  0
  -27.2145  -27.2816   20.1185 C   0  0  0  0  0  0
  -25.5940  -33.8567   24.2270 N   0  0  0  0  0  0
  -23.4248  -30.4835   21.5452 C   0  0  2  0  0  0
  -24.8691  -28.9376   20.1113 C   0  0  0  0  0  0
  -22.7495  -29.4620   22.4921 C   0  0  0  0  0  0
  -18.0291  -28.1389   22.8486 C   0  0  0  0  0  0
  -24.1488  -36.7284   23.2640 C   0  0  0  0  0  0
  -25.9710  -30.7775   21.3780 C   0  0  0  0  0  0
  -26.0429  -29.4035   20.7167 C   0  0  0  0  0  0
  -27.2202  -28.5895   20.7073 C   0  0  0  0  0  0
  -26.0131  -26.8828   19.4865 C   0  0  0  0  0  0
  -24.8586  -27.6842   19.4862 C   0  0  0  0  0  0
  -23.6406  -29.8230   20.1597 C   0  0  0  0  0  0
  -25.4115  -36.3073   24.0328 C   0  0  1  0  0  0
  -20.5895  -28.3698   23.1271 C   0  0  2  0  0  0
  -20.6781  -26.9418   22.5406 C   0  0  0  0  0  0
  -19.5755  -26.6385   21.5211 C   0  0  0  0  0  0
  -18.1934  -26.7932   22.1624 C   0  0  0  0  0  0
  -19.1545  -28.8859   23.2873 C   0  0  0  0  0  0
  -18.9467  -30.1460   23.8890 C   0  0  0  0  0  0
  -17.6467  -30.6590   24.0562 C   0  0  0  0  0  0
  -25.9056  -34.9445   23.5098 C   0  0  0  0  0  0
  -16.5356  -29.9089   23.6334 C   0  0  0  0  0  0
  -16.7276  -28.6507   23.0354 C   0  0  0  0  0  0
  -26.4506  -31.6585   25.0731 C   0  0  0  0  0  0
  -25.3729  -31.3738   26.1452 C   0  0  0  0  0  0
  -27.0356  -30.3005   24.6213 C   0  0  0  0  0  0
  -27.6054  -32.4331   25.7506 C   0  0  0  0  0  0
  -27.5576  -37.1799   24.8466 C   0  0  0  0  0  0
  -21.4204  -29.3048   22.3663 N   0  0  0  0  0  0
  -26.4289  -37.3772   23.9409 N   0  0  0  0  0  0
  -24.6945  -31.0567   22.0976 N   0  0  0  0  0  0
  -23.4205  -28.8152   23.3005 O   0  0  0  0  0  0
  -28.3128  -26.3938   20.1630 O   0  0  0  0  0  0
  -26.5621  -34.8918   22.4663 O   0  0  0  0  0  0
  -23.5458  -32.1386   23.7323 O   0  0  0  0  0  0
  -30.3817  -19.2631   19.5209 C   0  0  0  0  0  0
  -29.9313  -18.5627   20.6272 C   0  0  0  0  0  0
  -29.2459  -21.0597   20.4585 C   0  0  0  0  0  0
  -30.4496  -17.1837   21.1730 C   0  0  0  0  0  0
  -29.1835  -23.8174   20.3083 C   0  0  0  0  0  0
  -28.0258  -24.9231   20.1808 C   0  0  0  0  0  0
  -30.0214  -20.6399   19.4516 N   0  0  0  0  0  0
  -28.7813  -22.4046   20.6630 N   0  0  0  0  0  0
  -29.9110  -15.8247   20.7690 N   0  0  0  0  0  0
  -28.9077  -19.6823   21.5668 S   0  0  0  0  0  0
  -31.4691  -12.5491   19.1495 H   0  0  0  0  0  0
  -30.3678  -11.4488   19.9309 H   0  0  0  0  0  0
  -29.7753  -11.7308   17.5007 H   0  0  0  0  0  0
  -29.6339  -13.4578   17.7174 H   0  0  0  0  0  0
  -27.8802  -11.2825   18.9005 H   0  0  0  0  0  0
  -27.3692  -12.5318   17.7976 H   0  0  0  0  0  0
  -27.6438  -14.2521   19.4777 H   0  0  0  0  0  0
  -28.7178  -12.1417   21.4121 H   0  0  0  0  0  0
  -28.4334  -13.8198   21.7982 H   0  0  0  0  0  0
  -25.2762   -9.5684   22.4762 H   0  0  0  0  0  0
  -24.0002   -7.4633   22.7470 H   0  0  0  0  0  0
  -21.0846   -8.8774   19.8951 H   0  0  0  0  0  0
  -22.3700  -10.9675   19.6168 H   0  0  0  0  0  0
  -21.2004   -7.6149   23.9716 H   0  0  0  0  0  0
  -21.1481   -6.0524   25.9077 H   0  0  0  0  0  0
  -22.0598   -2.7610   23.2846 H   0  0  0  0  0  0
  -22.4092  -11.9870   22.4805 H   0  0  0  0  0  0
  -21.1092  -13.1234   22.2638 H   0  0  0  0  0  0
  -24.6529  -15.8447   20.5183 H   0  0  0  0  0  0
  -26.2666  -15.6314   20.0694 H   0  0  0  0  0  0
  -26.7203  -32.5419   23.1089 H   0  0  0  0  0  0
  -25.0094  -33.9709   25.0420 H   0  0  0  0  0  0
  -22.7204  -31.3056   21.4031 H   0  0  0  0  0  0
  -23.3752  -35.9615   23.3303 H   0  0  0  0  0  0
  -24.3578  -36.8904   22.2053 H   0  0  0  0  0  0
  -23.7242  -37.6487   23.6661 H   0  0  0  0  0  0
  -26.1107  -31.5415   20.6119 H   0  0  0  0  0  0
  -26.8484  -30.8216   22.0116 H   0  0  0  0  0  0
  -28.1196  -28.9432   21.1916 H   0  0  0  0  0  0
  -25.9227  -25.9332   18.9848 H   0  0  0  0  0  0
  -23.9602  -27.3222   19.0051 H   0  0  0  0  0  0
  -23.7650  -30.6016   19.4062 H   0  0  0  0  0  0
  -22.7586  -29.2578   19.8536 H   0  0  0  0  0  0
  -25.1299  -36.1917   25.0820 H   0  0  0  0  0  0
  -20.9988  -28.3271   24.1391 H   0  0  0  0  0  0
  -20.5686  -26.2307   23.3609 H   0  0  0  0  0  0
  -21.6649  -26.7446   22.1193 H   0  0  0  0  0  0
  -19.6917  -25.6295   21.1244 H   0  0  0  0  0  0
  -19.6691  -27.3192   20.6739 H   0  0  0  0  0  0
  -17.4205  -26.6675   21.4026 H   0  0  0  0  0  0
  -18.0334  -26.0079   22.9025 H   0  0  0  0  0  0
  -19.7943  -30.7279   24.2253 H   0  0  0  0  0  0
  -17.5023  -31.6270   24.5165 H   0  0  0  0  0  0
  -15.5358  -30.2990   23.7669 H   0  0  0  0  0  0
  -15.8675  -28.0825   22.7072 H   0  0  0  0  0  0
  -24.5906  -30.7082   25.7785 H   0  0  0  0  0  0
  -24.8917  -32.2911   26.4857 H   0  0  0  0  0  0
  -25.8049  -30.8933   27.0238 H   0  0  0  0  0  0
  -26.2942  -29.6751   24.1225 H   0  0  0  0  0  0
  -27.4030  -29.7267   25.4731 H   0  0  0  0  0  0
  -27.8824  -30.4284   23.9465 H   0  0  0  0  0  0
  -27.2651  -33.3635   26.2066 H   0  0  0  0  0  0
  -28.3876  -32.6887   25.0345 H   0  0  0  0  0  0
  -28.0710  -31.8468   26.5438 H   0  0  0  0  0  0
  -28.2595  -38.0094   24.7510 H   0  0  0  0  0  0
  -28.1071  -36.2626   24.6297 H   0  0  0  0  0  0
  -27.2294  -37.1454   25.8869 H   0  0  0  0  0  0
  -20.9382  -29.8779   21.6880 H   0  0  0  0  0  0
  -26.0166  -38.2845   24.1411 H   0  0  0  0  0  0
  -31.0665  -18.8859   18.7741 H   0  0  0  0  0  0
  -30.3565  -17.2116   22.2594 H   0  0  0  0  0  0
  -31.5286  -17.1700   21.0109 H   0  0  0  0  0  0
  -29.8778  -24.1472   21.0819 H   0  0  0  0  0  0
  -29.7621  -23.7956   19.3839 H   0  0  0  0  0  0
  -27.3175  -24.7575   20.9942 H   0  0  0  0  0  0
  -27.5062  -24.6550   19.2629 H   0  0  0  0  0  0
  -28.1028  -22.4146   21.4199 H   0  0  0  0  0  0
  -28.9233  -15.6801   20.9134 H   0  0  0  0  0  0
  1 25  1  0  0  0
  1 30  2  0  0  0
  1 79  1  0  0  0
  2  3  1  0  0  0
  2 25  1  0  0  0
  2 81  1  0  0  0
  2 82  1  0  0  0
  3  4  1  0  0  0
  3 83  1  0  0  0
  3 84  1  0  0  0
  4  5  1  0  0  0
  4 85  1  0  0  0
  4 86  1  0  0  0
  5  6  1  0  0  0
  5 26  1  0  0  0
  5 87  1  0  0  0
  6 25  1  0  0  0
  6 88  1  0  0  0
  6 89  1  0  0  0
  7  8  2  0  0  0
  7 26  1  0  0  0
  7 29  1  0  0  0
  8  9  1  0  0  0
  8 22  1  0  0  0
  9 10  1  0  0  0
  9 27  2  0  0  0
 10 11  2  0  0  0
 10 15  1  0  0  0
 11 12  1  0  0  0
 11 90  1  0  0  0
 12 13  2  0  0  0
 12 91  1  0  0  0
 13 14  1  0  0  0
 13 31  1  0  0  0
 14 15  2  0  0  0
 14 92  1  0  0  0
 15 93  1  0  0  0
 16 17  2  0  0  0
 16 21  1  0  0  0
 16 31  1  0  0  0
 17 18  1  0  0  0
 17 94  1  0  0  0
 18 19  2  0  0  0
 18 95  1  0  0  0
 19 20  1  0  0  0
 19 24  1  0  0  0
 20 21  2  0  0  0
 20 96  1  0  0  0
 21 23  1  0  0  0
 22 28  1  0  0  0
 22 32  2  0  0  0
 26 27  1  0  0  0
 28 97  1  0  0  0
 28 98  1  0  0  0
 29 99  1  0  0  0
 29100  1  0  0  0
 33 34  1  0  0  0
 33 66  1  0  0  0
 33 70  2  0  0  0
 34 36  1  0  0  0
 34 59  1  0  0  0
 34101  1  0  0  0
 35 44  2  0  0  0
 35 45  1  0  0  0
 35 68  1  0  0  0
 36 56  1  0  0  0
 36102  1  0  0  0
 37 39  1  0  0  0
 37 47  1  0  0  0
 37 66  1  0  0  0
 37103  1  0  0  0
 38 43  2  0  0  0
 38 46  1  0  0  0
 38 47  1  0  0  0
 39 64  1  0  0  0
 39 67  2  0  0  0
 40 52  1  0  0  0
 40 53  2  0  0  0
 40 58  1  0  0  0
 41104  1  0  0  0
 41105  1  0  0  0
 41106  1  0  0  0
 41 48  1  0  0  0
 42 43  1  0  0  0
 42 66  1  0  0  0
 42107  1  0  0  0
 42108  1  0  0  0
 43 44  1  0  0  0
 44109  1  0  0  0
 45 46  2  0  0  0
 45110  1  0  0  0
 46111  1  0  0  0
 47112  1  0  0  0
 47113  1  0  0  0
 48 56  1  0  0  0
 48 65  1  0  0  0
 48114  1  0  0  0
 49 50  1  0  0  0
 49 53  1  0  0  0
 49 64  1  0  0  0
 49115  1  0  0  0
 50 51  1  0  0  0
 50116  1  0  0  0
 50117  1  0  0  0
 51 52  1  0  0  0
 51118  1  0  0  0
 51119  1  0  0  0
 52120  1  0  0  0
 52121  1  0  0  0
 53 54  1  0  0  0
 54 55  2  0  0  0
 54122  1  0  0  0
 55 57  1  0  0  0
 55123  1  0  0  0
 56 69  2  0  0  0
 57 58  2  0  0  0
 57124  1  0  0  0
 58125  1  0  0  0
 59 60  1  0  0  0
 59 61  1  0  0  0
 59 62  1  0  0  0
 60126  1  0  0  0
 60127  1  0  0  0
 60128  1  0  0  0
 61129  1  0  0  0
 61130  1  0  0  0
 61131  1  0  0  0
 62132  1  0  0  0
 62133  1  0  0  0
 62134  1  0  0  0
 63 65  1  0  0  0
 63135  1  0  0  0
 63136  1  0  0  0
 63137  1  0  0  0
 64138  1  0  0  0
 65139  1  0  0  0
 68 76  1  0  0  0
 71 72  2  0  0  0
 71 77  1  0  0  0
 71140  1  0  0  0
 72 74  1  0  0  0
 72 80  1  0  0  0
 73 77  2  0  0  0
 73 78  1  0  0  0
 73 80  1  0  0  0
 74 79  1  0  0  0
 74141  1  0  0  0
 74142  1  0  0  0
 75 76  1  0  0  0
 75 78  1  0  0  0
 75143  1  0  0  0
 75144  1  0  0  0
 76145  1  0  0  0
 76146  1  0  0  0
 78147  1  0  0  0
 79148  1  0  0  0
M  ISO  4   1 100  68 101  76 101  79 100
M  END
> <chiral flag>
0

> <version>
0

> <s_m_source_file>
/data/baiqing/PycharmProjects/Reinvent-master-3.2/result/LINK_invent/BTK/process_docking_weight1_custom_product_contain_oxygen_bond_distance_aromatic_linkinvent_7_9_3/rearranged_h_0199.sdf

> <i_m_source_file_index>
20

> <r_mmod_Potential_Energy-OPLS-2005>
-6.10393285751343

> <r_mmod_Stretch_Energy-OPLS-2005>
93.0892486572266

> <r_mmod_Bend_Energy-OPLS-2005>
153.889709472656

> <r_mmod_Torsional_Energy-OPLS-2005>
208.72004699707

> <r_mmod_Improper_Torsional_Energy-OPLS-2005>
6.40135288238525

> <r_mmod_Van_der_Waal_Energy-OPLS-2005>
123.607856750488

> <r_mmod_Electrostatic_Energy-OPLS-2005>
-424.353912353516

> <r_mmod_Solvation_Energy-OPLS-2005>
-236.595260620117

> <b_mmod_Minimization_Converged-OPLS-2005>
0

> <r_mmod_RMS_Derivative-OPLS-2005>
0.346932888031006

$$$$
20
                    3D
 Structure written by MMmdl.
157165  0  0  1  0            999 V2000
  -30.5581  -14.7988   20.4627 C   0  0  0  0  0  0
  -30.4475  -12.4938   19.4621 C   0  0  0  0  0  0
  -29.5132  -12.5118   18.2308 C   0  0  0  0  0  0
  -28.0414  -12.3202   18.6499 C   0  0  0  0  0  0
  -27.6397  -13.2252   19.8439 C   0  0  2  0  0  0
  -28.6873  -13.1642   20.9750 C   0  0  0  0  0  0
  -25.2518  -13.8175   20.5681 C   0  0  0  0  0  0
  -24.1811  -13.0431   20.9215 C   0  0  0  0  0  0
  -24.6396  -11.6907   20.8755 C   0  0  0  0  0  0
  -23.9072  -10.4288   21.0415 C   0  0  0  0  0  0
  -24.3623   -9.4201   21.9190 C   0  0  0  0  0  0
  -23.6294   -8.2239   22.0756 C   0  0  0  0  0  0
  -22.4277   -8.0281   21.3546 C   0  0  0  0  0  0
  -21.9916   -9.0257   20.4647 C   0  0  0  0  0  0
  -22.7247  -10.2133   20.3060 C   0  0  0  0  0  0
  -21.6854   -6.0739   22.5281 C   0  0  0  0  0  0
  -21.4013   -6.5641   23.8214 C   0  0  0  0  0  0
  -21.3657   -5.6793   24.9174 C   0  0  0  0  0  0
  -21.6046   -4.3056   24.7224 C   0  0  0  0  0  0
  -21.8818   -3.8150   23.4343 C   0  0  0  0  0  0
  -21.9191   -4.6967   22.3402 C   0  0  0  0  0  0
  -22.7831  -13.5218   21.1872 C   0  0  0  0  0  0
  -22.1662   -4.2154   21.0978 F   0  0  0  0  0  0
  -21.5627   -3.4539   25.7736 F   0  0  0  0  0  0
  -29.9770  -13.5495   20.3873 N   0  0  0  0  0  0
  -26.2930  -12.9364   20.3245 N   0  0  0  0  0  0
  -25.9319  -11.6518   20.5741 N   0  0  0  0  0  0
  -22.0478  -12.8208   22.0426 N   0  0  0  0  0  0
  -25.4188  -15.1902   20.4077 N   0  0  0  0  0  0
  -31.7614  -14.9286   20.2195 O   0  0  0  0  0  0
  -21.6638   -6.8882   21.4243 O   0  0  0  0  0  0
  -22.3517  -14.5524   20.6718 O   0  0  0  0  0  0
  -24.6328  -31.8527   23.1954 C   0  0  0  0  0  0
  -25.9143  -32.4737   23.8317 C   0  0  1  0  0  0
  -27.2270  -27.2396   20.1529 C   0  0  0  0  0  0
  -25.5934  -33.8542   24.2240 N   0  0  0  0  0  0
  -23.4316  -30.4713   21.5389 C   0  0  2  0  0  0
  -24.8808  -28.9010   20.1254 C   0  0  0  0  0  0
  -22.7510  -29.4585   22.4915 C   0  0  0  0  0  0
  -18.0290  -28.1391   22.8479 C   0  0  0  0  0  0
  -24.1490  -36.7276   23.2642 C   0  0  0  0  0  0
  -25.9770  -30.7593   21.3764 C   0  0  0  0  0  0
  -26.0522  -29.3734   20.7325 C   0  0  0  0  0  0
  -27.2308  -28.5576   20.7294 C   0  0  0  0  0  0
  -26.0338  -26.8275   19.5304 C   0  0  0  0  0  0
  -24.8758  -27.6347   19.5159 C   0  0  0  0  0  0
  -23.6536  -29.7941   20.1601 C   0  0  0  0  0  0
  -25.4116  -36.3062   24.0326 C   0  0  1  0  0  0
  -20.5896  -28.3699   23.1271 C   0  0  2  0  0  0
  -20.6778  -26.9415   22.5411 C   0  0  0  0  0  0
  -19.5756  -26.6382   21.5217 C   0  0  0  0  0  0
  -18.1933  -26.7931   22.1622 C   0  0  0  0  0  0
  -19.1542  -28.8862   23.2868 C   0  0  0  0  0  0
  -18.9466  -30.1460   23.8890 C   0  0  0  0  0  0
  -17.6467  -30.6592   24.0559 C   0  0  0  0  0  0
  -25.9062  -34.9432   23.5088 C   0  0  0  0  0  0
  -16.5357  -29.9084   23.6335 C   0  0  0  0  0  0
  -16.7277  -28.6504   23.0350 C   0  0  0  0  0  0
  -26.4507  -31.6569   25.0714 C   0  0  0  0  0  0
  -25.3717  -31.3721   26.1428 C   0  0  0  0  0  0
  -27.0365  -30.2990   24.6203 C   0  0  0  0  0  0
  -27.6060  -32.4315   25.7485 C   0  0  0  0  0  0
  -27.5579  -37.1782   24.8459 C   0  0  0  0  0  0
  -21.4215  -29.3043   22.3658 N   0  0  0  0  0  0
  -26.4284  -37.3765   23.9417 N   0  0  0  0  0  0
  -24.6997  -31.0470   22.0935 N   0  0  0  0  0  0
  -23.4193  -28.8136   23.3033 O   0  0  0  0  0  0
  -28.3489  -26.3849   20.0383 O   0  0  0  0  0  0
  -26.5638  -34.8911   22.4659 O   0  0  0  0  0  0
  -23.5472  -32.1365   23.7231 O   0  0  0  0  0  0
  -31.1091  -18.8465   17.8675 C   0  0  0  0  0  0
  -30.0224  -18.5092   19.8571 C   0  0  0  0  0  0
  -29.7796  -19.9330   19.6871 C   0  0  0  0  0  0
  -28.1403  -22.5511   18.5523 C   0  0  0  0  0  0
  -28.4024  -25.7076   22.3666 C   0  0  0  0  0  0
  -29.8288  -17.3922   20.9581 C   0  0  0  0  0  0
  -28.2417  -23.6202   20.8154 C   0  0  0  0  0  0
  -28.9416  -22.4854   19.8712 C   0  0  1  0  0  0
  -28.6646  -25.2117   20.9314 C   0  0  1  0  0  0
  -30.7176  -17.9591   18.7706 N   0  0  0  0  0  0
  -29.0608  -21.0228   20.3706 N   0  0  0  0  0  0
  -29.7022  -15.8838   20.6315 N   0  0  0  0  0  0
  -30.6734  -20.4784   18.2659 S   0  0  0  0  0  0
  -31.4812  -12.6568   19.1525 H   0  0  0  0  0  0
  -30.4280  -11.5192   19.9520 H   0  0  0  0  0  0
  -29.8049  -11.7349   17.5233 H   0  0  0  0  0  0
  -29.6212  -13.4609   17.7033 H   0  0  0  0  0  0
  -27.9121  -11.2728   18.9246 H   0  0  0  0  0  0
  -27.3788  -12.4950   17.8017 H   0  0  0  0  0  0
  -27.6286  -14.2429   19.4545 H   0  0  0  0  0  0
  -28.7424  -12.1620   21.4022 H   0  0  0  0  0  0
  -28.4136  -13.8295   21.7956 H   0  0  0  0  0  0
  -25.2769   -9.5677   22.4765 H   0  0  0  0  0  0
  -24.0003   -7.4629   22.7476 H   0  0  0  0  0  0
  -21.0847   -8.8778   19.8952 H   0  0  0  0  0  0
  -22.3709  -10.9675   19.6169 H   0  0  0  0  0  0
  -21.2007   -7.6150   23.9719 H   0  0  0  0  0  0
  -21.1480   -6.0523   25.9077 H   0  0  0  0  0  0
  -22.0600   -2.7613   23.2841 H   0  0  0  0  0  0
  -22.4090  -11.9860   22.4805 H   0  0  0  0  0  0
  -21.1100  -13.1234   22.2642 H   0  0  0  0  0  0
  -24.6429  -15.8356   20.5088 H   0  0  0  0  0  0
  -26.2472  -15.6304   20.0298 H   0  0  0  0  0  0
  -26.7206  -32.5386   23.1058 H   0  0  0  0  0  0
  -25.0080  -33.9677   25.0387 H   0  0  0  0  0  0
  -22.7306  -31.2946   21.3850 H   0  0  0  0  0  0
  -23.3755  -35.9603   23.3294 H   0  0  0  0  0  0
  -24.3585  -36.8916   22.2059 H   0  0  0  0  0  0
  -23.7243  -37.6469   23.6678 H   0  0  0  0  0  0
  -26.1118  -31.5125   20.5988 H   0  0  0  0  0  0
  -26.8561  -30.8183   22.0067 H   0  0  0  0  0  0
  -28.1390  -28.9274   21.1841 H   0  0  0  0  0  0
  -26.0008  -25.8601   19.0486 H   0  0  0  0  0  0
  -23.9798  -27.2670   19.0353 H   0  0  0  0  0  0
  -23.7840  -30.5650   19.3996 H   0  0  0  0  0  0
  -22.7713  -29.2285   19.8544 H   0  0  0  0  0  0
  -25.1295  -36.1898   25.0816 H   0  0  0  0  0  0
  -20.9981  -28.3269   24.1394 H   0  0  0  0  0  0
  -20.5687  -26.2304   23.3613 H   0  0  0  0  0  0
  -21.6642  -26.7443   22.1201 H   0  0  0  0  0  0
  -19.6925  -25.6293   21.1248 H   0  0  0  0  0  0
  -19.6697  -27.3189   20.6747 H   0  0  0  0  0  0
  -17.4204  -26.6680   21.4021 H   0  0  0  0  0  0
  -18.0325  -26.0078   22.9023 H   0  0  0  0  0  0
  -19.7942  -30.7273   24.2256 H   0  0  0  0  0  0
  -17.5022  -31.6272   24.5156 H   0  0  0  0  0  0
  -15.5356  -30.2982   23.7671 H   0  0  0  0  0  0
  -15.8678  -28.0826   22.7068 H   0  0  0  0  0  0
  -24.5908  -30.7058   25.7753 H   0  0  0  0  0  0
  -24.8891  -32.2885   26.4830 H   0  0  0  0  0  0
  -25.8025  -30.8917   27.0223 H   0  0  0  0  0  0
  -26.2959  -29.6725   24.1226 H   0  0  0  0  0  0
  -27.4053  -29.7267   25.4724 H   0  0  0  0  0  0
  -27.8823  -30.4281   23.9449 H   0  0  0  0  0  0
  -27.2678  -33.3629   26.2038 H   0  0  0  0  0  0
  -28.3874  -32.6855   25.0311 H   0  0  0  0  0  0
  -28.0720  -31.8457   26.5417 H   0  0  0  0  0  0
  -28.2563  -38.0110   24.7536 H   0  0  0  0  0  0
  -28.1103  -36.2639   24.6238 H   0  0  0  0  0  0
  -27.2299  -37.1372   25.8861 H   0  0  0  0  0  0
  -20.9411  -29.8760   21.6854 H   0  0  0  0  0  0
  -26.0156  -38.2826   24.1447 H   0  0  0  0  0  0
  -31.6727  -18.5535   16.9927 H   0  0  0  0  0  0
  -28.0615  -23.5823   18.2044 H   0  0  0  0  0  0
  -27.1234  -22.1826   18.6908 H   0  0  0  0  0  0
  -28.5716  -21.9898   17.7287 H   0  0  0  0  0  0
  -28.8350  -25.0395   23.1120 H   0  0  0  0  0  0
  -27.3339  -25.7822   22.5718 H   0  0  0  0  0  0
  -28.8451  -26.6907   22.5313 H   0  0  0  0  0  0
  -28.9456  -17.6483   21.5433 H   0  0  0  0  0  0
  -30.6527  -17.4769   21.6670 H   0  0  0  0  0  0
  -28.4011  -23.2261   21.8189 H   0  0  0  0  0  0
  -27.1579  -23.5698   20.7022 H   0  0  0  0  0  0
  -29.9595  -22.8308   19.6832 H   0  0  0  0  0  0
  -29.7512  -25.1721   20.8518 H   0  0  0  0  0  0
  -28.5605  -20.8054   21.2303 H   0  0  0  0  0  0
  -28.7430  -15.5806   20.6722 H   0  0  0  0  0  0
  1 25  1  0  0  0
  1 30  2  0  0  0
  1 82  1  0  0  0
  2  3  1  0  0  0
  2 25  1  0  0  0
  2 84  1  0  0  0
  2 85  1  0  0  0
  3  4  1  0  0  0
  3 86  1  0  0  0
  3 87  1  0  0  0
  4  5  1  0  0  0
  4 88  1  0  0  0
  4 89  1  0  0  0
  5  6  1  0  0  0
  5 26  1  0  0  0
  5 90  1  0  0  0
  6 25  1  0  0  0
  6 91  1  0  0  0
  6 92  1  0  0  0
  7  8  2  0  0  0
  7 26  1  0  0  0
  7 29  1  0  0  0
  8  9  1  0  0  0
  8 22  1  0  0  0
  9 10  1  0  0  0
  9 27  2  0  0  0
 10 11  2  0  0  0
 10 15  1  0  0  0
 11 12  1  0  0  0
 11 93  1  0  0  0
 12 13  2  0  0  0
 12 94  1  0  0  0
 13 14  1  0  0  0
 13 31  1  0  0  0
 14 15  2  0  0  0
 14 95  1  0  0  0
 15 96  1  0  0  0
 16 17  2  0  0  0
 16 21  1  0  0  0
 16 31  1  0  0  0
 17 18  1  0  0  0
 17 97  1  0  0  0
 18 19  2  0  0  0
 18 98  1  0  0  0
 19 20  1  0  0  0
 19 24  1  0  0  0
 20 21  2  0  0  0
 20 99  1  0  0  0
 21 23  1  0  0  0
 22 28  1  0  0  0
 22 32  2  0  0  0
 26 27  1  0  0  0
 28100  1  0  0  0
 28101  1  0  0  0
 29102  1  0  0  0
 29103  1  0  0  0
 33 34  1  0  0  0
 33 66  1  0  0  0
 33 70  2  0  0  0
 34 36  1  0  0  0
 34 59  1  0  0  0
 34104  1  0  0  0
 35 44  2  0  0  0
 35 45  1  0  0  0
 35 68  1  0  0  0
 36 56  1  0  0  0
 36105  1  0  0  0
 37 39  1  0  0  0
 37 47  1  0  0  0
 37 66  1  0  0  0
 37106  1  0  0  0
 38 43  2  0  0  0
 38 46  1  0  0  0
 38 47  1  0  0  0
 39 64  1  0  0  0
 39 67  2  0  0  0
 40 52  1  0  0  0
 40 53  2  0  0  0
 40 58  1  0  0  0
 41107  1  0  0  0
 41108  1  0  0  0
 41109  1  0  0  0
 41 48  1  0  0  0
 42 43  1  0  0  0
 42 66  1  0  0  0
 42110  1  0  0  0
 42111  1  0  0  0
 43 44  1  0  0  0
 44112  1  0  0  0
 45 46  2  0  0  0
 45113  1  0  0  0
 46114  1  0  0  0
 47115  1  0  0  0
 47116  1  0  0  0
 48 56  1  0  0  0
 48 65  1  0  0  0
 48117  1  0  0  0
 49 50  1  0  0  0
 49 53  1  0  0  0
 49 64  1  0  0  0
 49118  1  0  0  0
 50 51  1  0  0  0
 50119  1  0  0  0
 50120  1  0  0  0
 51 52  1  0  0  0
 51121  1  0  0  0
 51122  1  0  0  0
 52123  1  0  0  0
 52124  1  0  0  0
 53 54  1  0  0  0
 54 55  2  0  0  0
 54125  1  0  0  0
 55 57  1  0  0  0
 55126  1  0  0  0
 56 69  2  0  0  0
 57 58  2  0  0  0
 57127  1  0  0  0
 58128  1  0  0  0
 59 60  1  0  0  0
 59 61  1  0  0  0
 59 62  1  0  0  0
 60129  1  0  0  0
 60130  1  0  0  0
 60131  1  0  0  0
 61132  1  0  0  0
 61133  1  0  0  0
 61134  1  0  0  0
 62135  1  0  0  0
 62136  1  0  0  0
 62137  1  0  0  0
 63 65  1  0  0  0
 63138  1  0  0  0
 63139  1  0  0  0
 63140  1  0  0  0
 64141  1  0  0  0
 65142  1  0  0  0
 68 79  1  0  0  0
 71 80  2  0  0  0
 71 83  1  0  0  0
 71143  1  0  0  0
 72 73  2  0  0  0
 72 76  1  0  0  0
 72 80  1  0  0  0
 73 81  1  0  0  0
 73 83  1  0  0  0
 74144  1  0  0  0
 74145  1  0  0  0
 74146  1  0  0  0
 74 78  1  0  0  0
 75147  1  0  0  0
 75148  1  0  0  0
 75149  1  0  0  0
 75 79  1  0  0  0
 76 82  1  0  0  0
 76150  1  0  0  0
 76151  1  0  0  0
 77 78  1  0  0  0
 77 79  1  0  0  0
 77152  1  0  0  0
 77153  1  0  0  0
 78 81  1  0  0  0
 78154  1  0  0  0
 79155  1  0  0  0
 81156  1  0  0  0
 82157  1  0  0  0
M  ISO  4   1 100  68 101  79 101  82 100
M  END
> <chiral flag>
0

> <version>
0

> <s_m_source_file>
/data/baiqing/PycharmProjects/Reinvent-master-3.2/result/LINK_invent/BTK/process_docking_weight1_custom_product_contain_oxygen_bond_distance_aromatic_linkinvent_7_9_3/rearranged_h_0199.sdf

> <i_m_source_file_index>
21

> <r_mmod_Potential_Energy-OPLS-2005>
250.623931884766

> <r_mmod_Stretch_Energy-OPLS-2005>
163.322250366211

> <r_mmod_Bend_Energy-OPLS-2005>
268.778503417969

> <r_mmod_Torsional_Energy-OPLS-2005>
230.941314697266

> <r_mmod_Improper_Torsional_Energy-OPLS-2005>
5.00205278396606

> <r_mmod_Van_der_Waal_Energy-OPLS-2005>
116.660919189453

> <r_mmod_Electrostatic_Energy-OPLS-2005>
-393.8974609375

> <r_mmod_Solvation_Energy-OPLS-2005>
-240.931579589844

> <b_mmod_Minimization_Converged-OPLS-2005>
0

> <r_mmod_RMS_Derivative-OPLS-2005>
0.85785299539566

$$$$
21
                    3D
 Structure written by MMmdl.
149157  0  0  1  0            999 V2000
  -30.6594  -14.5175   20.5865 C   0  0  0  0  0  0
  -30.4328  -12.3444   19.4200 C   0  0  0  0  0  0
  -29.4967  -12.5067   18.2048 C   0  0  0  0  0  0
  -28.0218  -12.3379   18.6227 C   0  0  0  0  0  0
  -27.6550  -13.1946   19.8634 C   0  0  2  0  0  0
  -28.6932  -12.9923   20.9852 C   0  0  0  0  0  0
  -25.2572  -13.8116   20.5642 C   0  0  0  0  0  0
  -24.1822  -13.0419   20.9144 C   0  0  0  0  0  0
  -24.6348  -11.6876   20.8694 C   0  0  0  0  0  0
  -23.9018  -10.4290   21.0390 C   0  0  0  0  0  0
  -24.3601   -9.4226   21.9172 C   0  0  0  0  0  0
  -23.6301   -8.2251   22.0749 C   0  0  0  0  0  0
  -22.4289   -8.0279   21.3533 C   0  0  0  0  0  0
  -21.9915   -9.0234   20.4620 C   0  0  0  0  0  0
  -22.7207  -10.2124   20.3028 C   0  0  0  0  0  0
  -21.6850   -6.0746   22.5285 C   0  0  0  0  0  0
  -21.4015   -6.5645   23.8220 C   0  0  0  0  0  0
  -21.3679   -5.6789   24.9171 C   0  0  0  0  0  0
  -21.6055   -4.3055   24.7217 C   0  0  0  0  0  0
  -21.8813   -3.8159   23.4329 C   0  0  0  0  0  0
  -21.9189   -4.6975   22.3388 C   0  0  0  0  0  0
  -22.7871  -13.5235   21.1846 C   0  0  0  0  0  0
  -22.1661   -4.2172   21.0956 F   0  0  0  0  0  0
  -21.5641   -3.4526   25.7720 F   0  0  0  0  0  0
  -30.0156  -13.3267   20.4334 N   0  0  0  0  0  0
  -26.2975  -12.9266   20.3283 N   0  0  0  0  0  0
  -25.9260  -11.6443   20.5712 N   0  0  0  0  0  0
  -22.0496  -12.8237   22.0386 N   0  0  0  0  0  0
  -25.4299  -15.1855   20.4071 N   0  0  0  0  0  0
  -31.8042  -14.7130   20.1675 O   0  0  0  0  0  0
  -21.6642   -6.8886   21.4251 O   0  0  0  0  0  0
  -22.3565  -14.5548   20.6694 O   0  0  0  0  0  0
  -24.6175  -31.8662   23.2037 C   0  0  0  0  0  0
  -25.9054  -32.4806   23.8347 C   0  0  1  0  0  0
  -27.2300  -27.3807   20.1211 C   0  0  0  0  0  0
  -25.5892  -33.8607   24.2263 N   0  0  0  0  0  0
  -23.4082  -30.4866   21.5462 C   0  0  2  0  0  0
  -24.8533  -28.9401   20.1182 C   0  0  0  0  0  0
  -22.7449  -29.4656   22.4998 C   0  0  0  0  0  0
  -18.0274  -28.1374   22.8505 C   0  0  0  0  0  0
  -24.1478  -36.7318   23.2635 C   0  0  0  0  0  0
  -25.9409  -30.8158   21.3666 C   0  0  0  0  0  0
  -26.0149  -29.4456   20.7119 C   0  0  0  0  0  0
  -27.2038  -28.6750   20.7057 C   0  0  0  0  0  0
  -26.0481  -26.8996   19.5139 C   0  0  0  0  0  0
  -24.8669  -27.6699   19.5149 C   0  0  0  0  0  0
  -23.6205  -29.8150   20.1627 C   0  0  0  0  0  0
  -25.4111  -36.3110   24.0318 C   0  0  1  0  0  0
  -20.5866  -28.3659   23.1328 C   0  0  2  0  0  0
  -20.6776  -26.9409   22.5415 C   0  0  0  0  0  0
  -19.5752  -26.6382   21.5228 C   0  0  0  0  0  0
  -18.1925  -26.7911   22.1640 C   0  0  0  0  0  0
  -19.1527  -28.8849   23.2880 C   0  0  0  0  0  0
  -18.9463  -30.1460   23.8880 C   0  0  0  0  0  0
  -17.6459  -30.6578   24.0581 C   0  0  0  0  0  0
  -25.9049  -34.9477   23.5096 C   0  0  0  0  0  0
  -16.5349  -29.9087   23.6325 C   0  0  0  0  0  0
  -16.7266  -28.6508   23.0341 C   0  0  0  0  0  0
  -26.4419  -31.6641   25.0740 C   0  0  0  0  0  0
  -25.3633  -31.3863   26.1480 C   0  0  0  0  0  0
  -27.0256  -30.3054   24.6207 C   0  0  0  0  0  0
  -27.5951  -32.4400   25.7527 C   0  0  0  0  0  0
  -27.5590  -37.1809   24.8457 C   0  0  0  0  0  0
  -21.4177  -29.3023   22.3751 N   0  0  0  0  0  0
  -26.4300  -37.3802   23.9412 N   0  0  0  0  0  0
  -24.6732  -31.0731   22.0957 N   0  0  0  0  0  0
  -23.4228  -28.8232   23.3060 O   0  0  0  0  0  0
  -28.4019  -26.6381   20.1791 O   0  0  0  0  0  0
  -26.5626  -34.8945   22.4670 O   0  0  0  0  0  0
  -23.5359  -32.1442   23.7406 O   0  0  0  0  0  0
  -29.3388  -18.4637   19.8846 C   0  0  0  0  0  0
  -29.7250  -18.0903   21.1524 C   0  0  0  0  0  0
  -28.8714  -20.4765   20.9428 C   0  0  0  0  0  0
  -28.3067  -22.6852   20.3778 C   0  0  0  0  0  0
  -30.3864  -16.8087   21.6563 C   0  0  0  0  0  0
  -27.9337  -24.1497   20.7418 C   0  0  0  0  0  0
  -28.4693  -25.2459   19.7558 C   0  0  0  0  0  0
  -28.8711  -19.7942   19.7839 N   0  0  0  0  0  0
  -28.5202  -21.7669   21.2515 N   0  0  0  0  0  0
  -29.9151  -15.5110   21.1267 N   0  0  0  0  0  0
  -29.4491  -19.4304   22.2565 S   0  0  0  0  0  0
  -31.4742  -12.4736   19.1188 H   0  0  0  0  0  0
  -30.3661  -11.3342   19.8261 H   0  0  0  0  0  0
  -29.7592  -11.7826   17.4328 H   0  0  0  0  0  0
  -29.6390  -13.4951   17.7662 H   0  0  0  0  0  0
  -27.8615  -11.2820   18.8472 H   0  0  0  0  0  0
  -27.3619  -12.5741   17.7873 H   0  0  0  0  0  0
  -27.6970  -14.2368   19.5479 H   0  0  0  0  0  0
  -28.6875  -11.9551   21.3210 H   0  0  0  0  0  0
  -28.4417  -13.5795   21.8691 H   0  0  0  0  0  0
  -25.2741   -9.5731   22.4742 H   0  0  0  0  0  0
  -24.0031   -7.4641   22.7464 H   0  0  0  0  0  0
  -21.0862   -8.8712   19.8903 H   0  0  0  0  0  0
  -22.3661  -10.9655   19.6125 H   0  0  0  0  0  0
  -21.2008   -7.6153   23.9733 H   0  0  0  0  0  0
  -21.1519   -6.0507   25.9078 H   0  0  0  0  0  0
  -22.0581   -2.7630   23.2788 H   0  0  0  0  0  0
  -22.4132  -11.9919   22.4805 H   0  0  0  0  0  0
  -21.1084  -13.1240   22.2515 H   0  0  0  0  0  0
  -24.6573  -15.8348   20.5065 H   0  0  0  0  0  0
  -26.2793  -15.6351   20.0896 H   0  0  0  0  0  0
  -26.7156  -32.5499   23.1130 H   0  0  0  0  0  0
  -25.0010  -33.9718   25.0395 H   0  0  0  0  0  0
  -22.6961  -31.3023   21.4026 H   0  0  0  0  0  0
  -23.3743  -35.9648   23.3307 H   0  0  0  0  0  0
  -24.3564  -36.8948   22.2055 H   0  0  0  0  0  0
  -23.7237  -37.6518   23.6656 H   0  0  0  0  0  0
  -26.0674  -31.5852   20.6020 H   0  0  0  0  0  0
  -26.8218  -30.8606   21.9972 H   0  0  0  0  0  0
  -28.1031  -29.0582   21.1674 H   0  0  0  0  0  0
  -26.0129  -25.9237   19.0514 H   0  0  0  0  0  0
  -23.9719  -27.2726   19.0577 H   0  0  0  0  0  0
  -23.7440  -30.5897   19.4033 H   0  0  0  0  0  0
  -22.7430  -29.2409   19.8583 H   0  0  0  0  0  0
  -25.1291  -36.1958   25.0805 H   0  0  0  0  0  0
  -20.9907  -28.3209   24.1469 H   0  0  0  0  0  0
  -20.5749  -26.2254   23.3578 H   0  0  0  0  0  0
  -21.6637  -26.7499   22.1176 H   0  0  0  0  0  0
  -19.6913  -25.6301   21.1241 H   0  0  0  0  0  0
  -19.6676  -27.3210   20.6770 H   0  0  0  0  0  0
  -17.4191  -26.6671   21.4026 H   0  0  0  0  0  0
  -18.0323  -26.0034   22.9023 H   0  0  0  0  0  0
  -19.7951  -30.7275   24.2231 H   0  0  0  0  0  0
  -17.5031  -31.6249   24.5207 H   0  0  0  0  0  0
  -15.5361  -30.2995   23.7654 H   0  0  0  0  0  0
  -15.8659  -28.0837   22.7045 H   0  0  0  0  0  0
  -24.5716  -30.7301   25.7850 H   0  0  0  0  0  0
  -24.8921  -32.3090   26.4879 H   0  0  0  0  0  0
  -25.7910  -30.9053   27.0289 H   0  0  0  0  0  0
  -26.2866  -29.6867   24.1099 H   0  0  0  0  0  0
  -27.3809  -29.7242   25.4730 H   0  0  0  0  0  0
  -27.8778  -30.4339   23.9532 H   0  0  0  0  0  0
  -27.2495  -33.3668   26.2117 H   0  0  0  0  0  0
  -28.3745  -32.7048   25.0375 H   0  0  0  0  0  0
  -28.0625  -31.8551   26.5454 H   0  0  0  0  0  0
  -28.2590  -38.0121   24.7516 H   0  0  0  0  0  0
  -28.1093  -36.2649   24.6248 H   0  0  0  0  0  0
  -27.2299  -37.1433   25.8855 H   0  0  0  0  0  0
  -20.9364  -29.8751   21.6962 H   0  0  0  0  0  0
  -26.0186  -38.2885   24.1376 H   0  0  0  0  0  0
  -29.3912  -17.8582   18.9906 H   0  0  0  0  0  0
  -28.3781  -22.4904   19.3040 H   0  0  0  0  0  0
  -30.2387  -16.7414   22.7363 H   0  0  0  0  0  0
  -31.4668  -16.8945   21.5265 H   0  0  0  0  0  0
  -28.3146  -24.3559   21.7410 H   0  0  0  0  0  0
  -26.8478  -24.2210   20.8132 H   0  0  0  0  0  0
  -29.5356  -25.0561   19.6310 H   0  0  0  0  0  0
  -28.0434  -25.1253   18.7603 H   0  0  0  0  0  0
  -28.9727  -15.2503   21.3679 H   0  0  0  0  0  0
  1 25  1  0  0  0
  1 30  2  0  0  0
  1 80  1  0  0  0
  2  3  1  0  0  0
  2 25  1  0  0  0
  2 82  1  0  0  0
  2 83  1  0  0  0
  3  4  1  0  0  0
  3 84  1  0  0  0
  3 85  1  0  0  0
  4  5  1  0  0  0
  4 86  1  0  0  0
  4 87  1  0  0  0
  5  6  1  0  0  0
  5 26  1  0  0  0
  5 88  1  0  0  0
  6 25  1  0  0  0
  6 89  1  0  0  0
  6 90  1  0  0  0
  7  8  2  0  0  0
  7 26  1  0  0  0
  7 29  1  0  0  0
  8  9  1  0  0  0
  8 22  1  0  0  0
  9 10  1  0  0  0
  9 27  2  0  0  0
 10 11  2  0  0  0
 10 15  1  0  0  0
 11 12  1  0  0  0
 11 91  1  0  0  0
 12 13  2  0  0  0
 12 92  1  0  0  0
 13 14  1  0  0  0
 13 31  1  0  0  0
 14 15  2  0  0  0
 14 93  1  0  0  0
 15 94  1  0  0  0
 16 17  2  0  0  0
 16 21  1  0  0  0
 16 31  1  0  0  0
 17 18  1  0  0  0
 17 95  1  0  0  0
 18 19  2  0  0  0
 18 96  1  0  0  0
 19 20  1  0  0  0
 19 24  1  0  0  0
 20 21  2  0  0  0
 20 97  1  0  0  0
 21 23  1  0  0  0
 22 28  1  0  0  0
 22 32  2  0  0  0
 26 27  1  0  0  0
 28 98  1  0  0  0
 28 99  1  0  0  0
 29100  1  0  0  0
 29101  1  0  0  0
 33 34  1  0  0  0
 33 66  1  0  0  0
 33 70  2  0  0  0
 34 36  1  0  0  0
 34 59  1  0  0  0
 34102  1  0  0  0
 35 44  2  0  0  0
 35 45  1  0  0  0
 35 68  1  0  0  0
 36 56  1  0  0  0
 36103  1  0  0  0
 37 39  1  0  0  0
 37 47  1  0  0  0
 37 66  1  0  0  0
 37104  1  0  0  0
 38 43  2  0  0  0
 38 46  1  0  0  0
 38 47  1  0  0  0
 39 64  1  0  0  0
 39 67  2  0  0  0
 40 52  1  0  0  0
 40 53  2  0  0  0
 40 58  1  0  0  0
 41105  1  0  0  0
 41106  1  0  0  0
 41107  1  0  0  0
 41 48  1  0  0  0
 42 43  1  0  0  0
 42 66  1  0  0  0
 42108  1  0  0  0
 42109  1  0  0  0
 43 44  1  0  0  0
 44110  1  0  0  0
 45 46  2  0  0  0
 45111  1  0  0  0
 46112  1  0  0  0
 47113  1  0  0  0
 47114  1  0  0  0
 48 56  1  0  0  0
 48 65  1  0  0  0
 48115  1  0  0  0
 49 50  1  0  0  0
 49 53  1  0  0  0
 49 64  1  0  0  0
 49116  1  0  0  0
 50 51  1  0  0  0
 50117  1  0  0  0
 50118  1  0  0  0
 51 52  1  0  0  0
 51119  1  0  0  0
 51120  1  0  0  0
 52121  1  0  0  0
 52122  1  0  0  0
 53 54  1  0  0  0
 54 55  2  0  0  0
 54123  1  0  0  0
 55 57  1  0  0  0
 55124  1  0  0  0
 56 69  2  0  0  0
 57 58  2  0  0  0
 57125  1  0  0  0
 58126  1  0  0  0
 59 60  1  0  0  0
 59 61  1  0  0  0
 59 62  1  0  0  0
 60127  1  0  0  0
 60128  1  0  0  0
 60129  1  0  0  0
 61130  1  0  0  0
 61131  1  0  0  0
 61132  1  0  0  0
 62133  1  0  0  0
 62134  1  0  0  0
 62135  1  0  0  0
 63 65  1  0  0  0
 63136  1  0  0  0
 63137  1  0  0  0
 63138  1  0  0  0
 64139  1  0  0  0
 65140  1  0  0  0
 68 77  1  0  0  0
 71 72  2  0  0  0
 71 78  1  0  0  0
 71141  1  0  0  0
 72 75  1  0  0  0
 72 81  1  0  0  0
 73 78  2  0  0  0
 73 79  1  0  0  0
 73 81  1  0  0  0
 74 76  1  0  0  0
 74 79  2  0  0  0
 74142  1  0  0  0
 75 80  1  0  0  0
 75143  1  0  0  0
 75144  1  0  0  0
 76 77  1  0  0  0
 76145  1  0  0  0
 76146  1  0  0  0
 77147  1  0  0  0
 77148  1  0  0  0
 80149  1  0  0  0
M  ISO  4   1 100  68 101  77 101  80 100
M  END
> <chiral flag>
0

> <version>
0

> <s_m_source_file>
/data/baiqing/PycharmProjects/Reinvent-master-3.2/result/LINK_invent/BTK/process_docking_weight1_custom_product_contain_oxygen_bond_distance_aromatic_linkinvent_7_9_3/rearranged_h_0199.sdf

> <i_m_source_file_index>
22

> <r_mmod_Potential_Energy-OPLS-2005>
-126.574096679688

> <r_mmod_Stretch_Energy-OPLS-2005>
46.2080574035645

> <r_mmod_Bend_Energy-OPLS-2005>
130.612365722656

> <r_mmod_Torsional_Energy-OPLS-2005>
185.249465942383

> <r_mmod_Improper_Torsional_Energy-OPLS-2005>
3.1754629611969

> <r_mmod_Van_der_Waal_Energy-OPLS-2005>
126.591743469238

> <r_mmod_Electrostatic_Energy-OPLS-2005>
-420.200897216797

> <r_mmod_Solvation_Energy-OPLS-2005>
-221.159729003906

> <b_mmod_Minimization_Converged-OPLS-2005>
0

> <r_mmod_RMS_Derivative-OPLS-2005>
3.98976159095764

$$$$
22
                    3D
 Structure written by MMmdl.
146154  0  0  1  0            999 V2000
  -30.4832  -15.0534   20.4003 C   0  0  0  0  0  0
  -30.4484  -12.6569   19.5066 C   0  0  0  0  0  0
  -29.5290  -12.5441   18.2661 C   0  0  0  0  0  0
  -28.0663  -12.3067   18.6871 C   0  0  0  0  0  0
  -27.6262  -13.2519   19.8342 C   0  0  2  0  0  0
  -28.6669  -13.3151   20.9724 C   0  0  0  0  0  0
  -25.2448  -13.8214   20.5709 C   0  0  0  0  0  0
  -24.1773  -13.0433   20.9234 C   0  0  0  0  0  0
  -24.6395  -11.6921   20.8753 C   0  0  0  0  0  0
  -23.9079  -10.4289   21.0406 C   0  0  0  0  0  0
  -24.3627   -9.4204   21.9185 C   0  0  0  0  0  0
  -23.6297   -8.2242   22.0754 C   0  0  0  0  0  0
  -22.4280   -8.0280   21.3544 C   0  0  0  0  0  0
  -21.9919   -9.0254   20.4647 C   0  0  0  0  0  0
  -22.7250  -10.2131   20.3055 C   0  0  0  0  0  0
  -21.6855   -6.0735   22.5279 C   0  0  0  0  0  0
  -21.4016   -6.5640   23.8212 C   0  0  0  0  0  0
  -21.3659   -5.6793   24.9174 C   0  0  0  0  0  0
  -21.6043   -4.3055   24.7226 C   0  0  0  0  0  0
  -21.8818   -3.8146   23.4347 C   0  0  0  0  0  0
  -21.9193   -4.6963   22.3403 C   0  0  0  0  0  0
  -22.7792  -13.5202   21.1888 C   0  0  0  0  0  0
  -22.1661   -4.2148   21.0981 F   0  0  0  0  0  0
  -21.5628   -3.4538   25.7739 F   0  0  0  0  0  0
  -29.9304  -13.7632   20.3699 N   0  0  0  0  0  0
  -26.2871  -12.9449   20.3225 N   0  0  0  0  0  0
  -25.9328  -11.6577   20.5729 N   0  0  0  0  0  0
  -22.0444  -12.8189   22.0444 N   0  0  0  0  0  0
  -25.4092  -15.1945   20.4125 N   0  0  0  0  0  0
  -31.6916  -15.1290   20.1422 O   0  0  0  0  0  0
  -21.6641   -6.8878   21.4241 O   0  0  0  0  0  0
  -22.3474  -14.5504   20.6728 O   0  0  0  0  0  0
  -24.6505  -31.8368   23.1812 C   0  0  0  0  0  0
  -25.9245  -32.4657   23.8229 C   0  0  1  0  0  0
  -27.2188  -27.0629   20.1623 C   0  0  0  0  0  0
  -25.5964  -33.8466   24.2145 N   0  0  0  0  0  0
  -23.4580  -30.4536   21.5281 C   0  0  2  0  0  0
  -24.9090  -28.8661   20.1104 C   0  0  0  0  0  0
  -22.7603  -29.4510   22.4825 C   0  0  0  0  0  0
  -18.0313  -28.1407   22.8472 C   0  0  0  0  0  0
  -24.1493  -36.7237   23.2643 C   0  0  0  0  0  0
  -26.0191  -30.6876   21.3902 C   0  0  0  0  0  0
  -26.0895  -29.2913   20.7327 C   0  0  0  0  0  0
  -27.2436  -28.4083   20.7370 C   0  0  0  0  0  0
  -26.0097  -26.7563   19.4997 C   0  0  0  0  0  0
  -24.8865  -27.6147   19.4764 C   0  0  0  0  0  0
  -23.6892  -29.7777   20.1499 C   0  0  0  0  0  0
  -25.4128  -36.3007   24.0308 C   0  0  1  0  0  0
  -20.5929  -28.3738   23.1217 C   0  0  2  0  0  0
  -20.6797  -26.9433   22.5403 C   0  0  0  0  0  0
  -19.5770  -26.6385   21.5214 C   0  0  0  0  0  0
  -18.1950  -26.7943   22.1622 C   0  0  0  0  0  0
  -19.1571  -28.8891   23.2836 C   0  0  0  0  0  0
  -18.9485  -30.1484   23.8866 C   0  0  0  0  0  0
  -17.6480  -30.6598   24.0559 C   0  0  0  0  0  0
  -25.9084  -34.9386   23.5039 C   0  0  0  0  0  0
  -16.5371  -29.9090   23.6340 C   0  0  0  0  0  0
  -16.7296  -28.6511   23.0357 C   0  0  0  0  0  0
  -26.4542  -31.6551   25.0701 C   0  0  0  0  0  0
  -25.3705  -31.3763   26.1380 C   0  0  0  0  0  0
  -27.0419  -30.2937   24.6334 C   0  0  0  0  0  0
  -27.6057  -32.4333   25.7496 C   0  0  0  0  0  0
  -27.5573  -37.1774   24.8467 C   0  0  0  0  0  0
  -21.4287  -29.3050   22.3577 N   0  0  0  0  0  0
  -26.4283  -37.3729   23.9408 N   0  0  0  0  0  0
  -24.7296  -31.0158   22.0878 N   0  0  0  0  0  0
  -23.4211  -28.8066   23.3010 O   0  0  0  0  0  0
  -28.2533  -26.0339   20.2364 O   0  0  0  0  0  0
  -26.5677  -34.8898   22.4624 O   0  0  0  0  0  0
  -23.5607  -32.1275   23.6989 O   0  0  0  0  0  0
  -30.9167  -18.5791   20.2558 C   0  0  0  0  0  0
  -29.7416  -17.7728   20.4196 C   0  0  0  0  0  0
  -28.9537  -23.0713   20.3471 C   0  0  0  0  0  0
  -28.4770  -21.4208   20.1686 C   0  0  0  0  0  0
  -27.9696  -24.4744   20.0880 C   0  0  0  0  0  0
  -30.6578  -19.8956   20.1912 N   0  0  0  0  0  0
  -28.7441  -18.7075   20.4588 N   0  0  0  0  0  0
  -29.2999  -20.0342   20.3327 N   0  0  0  0  0  0
  -29.6401  -16.2168   20.5259 N   0  0  0  0  0  0
  -31.4758  -12.8405   19.1885 H   0  0  0  0  0  0
  -30.4726  -11.7161   20.0585 H   0  0  0  0  0  0
  -29.8682  -11.7379   17.6145 H   0  0  0  0  0  0
  -29.5950  -13.4613   17.6786 H   0  0  0  0  0  0
  -27.9841  -11.2701   19.0161 H   0  0  0  0  0  0
  -27.4000  -12.4074   17.8295 H   0  0  0  0  0  0
  -27.5766  -14.2446   19.3860 H   0  0  0  0  0  0
  -28.7798  -12.3456   21.4599 H   0  0  0  0  0  0
  -28.3464  -14.0138   21.7469 H   0  0  0  0  0  0
  -25.2771   -9.5679   22.4763 H   0  0  0  0  0  0
  -24.0003   -7.4633   22.7475 H   0  0  0  0  0  0
  -21.0850   -8.8774   19.8955 H   0  0  0  0  0  0
  -22.3707  -10.9670   19.6165 H   0  0  0  0  0  0
  -21.2009   -7.6149   23.9715 H   0  0  0  0  0  0
  -21.1482   -6.0524   25.9077 H   0  0  0  0  0  0
  -22.0598   -2.7609   23.2848 H   0  0  0  0  0  0
  -22.4071  -11.9856   22.4837 H   0  0  0  0  0  0
  -21.1057  -13.1201   22.2650 H   0  0  0  0  0  0
  -24.6342  -15.8399   20.5206 H   0  0  0  0  0  0
  -26.2415  -15.6393   20.0483 H   0  0  0  0  0  0
  -26.7309  -32.5241   23.0948 H   0  0  0  0  0  0
  -25.0086  -33.9568   25.0277 H   0  0  0  0  0  0
  -22.7643  -31.2818   21.3676 H   0  0  0  0  0  0
  -23.3762  -35.9562   23.3287 H   0  0  0  0  0  0
  -24.3574  -36.8892   22.2061 H   0  0  0  0  0  0
  -23.7244  -37.6423   23.6700 H   0  0  0  0  0  0
  -26.1825  -31.4370   20.6144 H   0  0  0  0  0  0
  -26.8864  -30.7407   22.0366 H   0  0  0  0  0  0
  -28.1410  -28.7300   21.2462 H   0  0  0  0  0  0
  -25.8974  -25.7991   19.0134 H   0  0  0  0  0  0
  -23.9863  -27.2835   18.9768 H   0  0  0  0  0  0
  -23.8329  -30.5502   19.3934 H   0  0  0  0  0  0
  -22.8020  -29.2244   19.8367 H   0  0  0  0  0  0
  -25.1321  -36.1818   25.0800 H   0  0  0  0  0  0
  -21.0023  -28.3339   24.1338 H   0  0  0  0  0  0
  -20.5692  -26.2352   23.3629 H   0  0  0  0  0  0
  -21.6660  -26.7434   22.1198 H   0  0  0  0  0  0
  -19.6931  -25.6289   21.1262 H   0  0  0  0  0  0
  -19.6709  -27.3181   20.6732 H   0  0  0  0  0  0
  -17.4219  -26.6685   21.4027 H   0  0  0  0  0  0
  -18.0347  -26.0098   22.9031 H   0  0  0  0  0  0
  -19.7960  -30.7309   24.2222 H   0  0  0  0  0  0
  -17.5033  -31.6274   24.5170 H   0  0  0  0  0  0
  -15.5370  -30.2982   23.7686 H   0  0  0  0  0  0
  -15.8696  -28.0822   22.7088 H   0  0  0  0  0  0
  -24.5903  -30.7091   25.7698 H   0  0  0  0  0  0
  -24.8875  -32.2952   26.4713 H   0  0  0  0  0  0
  -25.7970  -30.8998   27.0216 H   0  0  0  0  0  0
  -26.3054  -29.6641   24.1327 H   0  0  0  0  0  0
  -27.3992  -29.7260   25.4935 H   0  0  0  0  0  0
  -27.8977  -30.4153   23.9690 H   0  0  0  0  0  0
  -27.2641  -33.3664   26.1988 H   0  0  0  0  0  0
  -28.3914  -32.6843   25.0358 H   0  0  0  0  0  0
  -28.0671  -31.8512   26.5483 H   0  0  0  0  0  0
  -28.2579  -38.0080   24.7511 H   0  0  0  0  0  0
  -28.1080  -36.2607   24.6298 H   0  0  0  0  0  0
  -27.2287  -37.1423   25.8869 H   0  0  0  0  0  0
  -20.9512  -29.8751   21.6734 H   0  0  0  0  0  0
  -26.0141  -38.2791   24.1417 H   0  0  0  0  0  0
  -31.9362  -18.2268   20.1771 H   0  0  0  0  0  0
  -29.8300  -23.1971   19.7114 H   0  0  0  0  0  0
  -29.3416  -23.1591   21.3617 H   0  0  0  0  0  0
  -28.0521  -21.3595   19.1671 H   0  0  0  0  0  0
  -27.6136  -21.3026   20.8228 H   0  0  0  0  0  0
  -27.0818  -24.3074   20.6987 H   0  0  0  0  0  0
  -27.6177  -24.3649   19.0623 H   0  0  0  0  0  0
  -28.6920  -15.9219   20.6954 H   0  0  0  0  0  0
  1 25  1  0  0  0
  1 30  2  0  0  0
  1 79  1  0  0  0
  2  3  1  0  0  0
  2 25  1  0  0  0
  2 80  1  0  0  0
  2 81  1  0  0  0
  3  4  1  0  0  0
  3 82  1  0  0  0
  3 83  1  0  0  0
  4  5  1  0  0  0
  4 84  1  0  0  0
  4 85  1  0  0  0
  5  6  1  0  0  0
  5 26  1  0  0  0
  5 86  1  0  0  0
  6 25  1  0  0  0
  6 87  1  0  0  0
  6 88  1  0  0  0
  7  8  2  0  0  0
  7 26  1  0  0  0
  7 29  1  0  0  0
  8  9  1  0  0  0
  8 22  1  0  0  0
  9 10  1  0  0  0
  9 27  2  0  0  0
 10 11  2  0  0  0
 10 15  1  0  0  0
 11 12  1  0  0  0
 11 89  1  0  0  0
 12 13  2  0  0  0
 12 90  1  0  0  0
 13 14  1  0  0  0
 13 31  1  0  0  0
 14 15  2  0  0  0
 14 91  1  0  0  0
 15 92  1  0  0  0
 16 17  2  0  0  0
 16 21  1  0  0  0
 16 31  1  0  0  0
 17 18  1  0  0  0
 17 93  1  0  0  0
 18 19  2  0  0  0
 18 94  1  0  0  0
 19 20  1  0  0  0
 19 24  1  0  0  0
 20 21  2  0  0  0
 20 95  1  0  0  0
 21 23  1  0  0  0
 22 28  1  0  0  0
 22 32  2  0  0  0
 26 27  1  0  0  0
 28 96  1  0  0  0
 28 97  1  0  0  0
 29 98  1  0  0  0
 29 99  1  0  0  0
 33 34  1  0  0  0
 33 66  1  0  0  0
 33 70  2  0  0  0
 34 36  1  0  0  0
 34 59  1  0  0  0
 34100  1  0  0  0
 35 44  2  0  0  0
 35 45  1  0  0  0
 35 68  1  0  0  0
 36 56  1  0  0  0
 36101  1  0  0  0
 37 39  1  0  0  0
 37 47  1  0  0  0
 37 66  1  0  0  0
 37102  1  0  0  0
 38 43  2  0  0  0
 38 46  1  0  0  0
 38 47  1  0  0  0
 39 64  1  0  0  0
 39 67  2  0  0  0
 40 52  1  0  0  0
 40 53  2  0  0  0
 40 58  1  0  0  0
 41103  1  0  0  0
 41104  1  0  0  0
 41105  1  0  0  0
 41 48  1  0  0  0
 42 43  1  0  0  0
 42 66  1  0  0  0
 42106  1  0  0  0
 42107  1  0  0  0
 43 44  1  0  0  0
 44108  1  0  0  0
 45 46  2  0  0  0
 45109  1  0  0  0
 46110  1  0  0  0
 47111  1  0  0  0
 47112  1  0  0  0
 48 56  1  0  0  0
 48 65  1  0  0  0
 48113  1  0  0  0
 49 50  1  0  0  0
 49 53  1  0  0  0
 49 64  1  0  0  0
 49114  1  0  0  0
 50 51  1  0  0  0
 50115  1  0  0  0
 50116  1  0  0  0
 51 52  1  0  0  0
 51117  1  0  0  0
 51118  1  0  0  0
 52119  1  0  0  0
 52120  1  0  0  0
 53 54  1  0  0  0
 54 55  2  0  0  0
 54121  1  0  0  0
 55 57  1  0  0  0
 55122  1  0  0  0
 56 69  2  0  0  0
 57 58  2  0  0  0
 57123  1  0  0  0
 58124  1  0  0  0
 59 60  1  0  0  0
 59 61  1  0  0  0
 59 62  1  0  0  0
 60125  1  0  0  0
 60126  1  0  0  0
 60127  1  0  0  0
 61128  1  0  0  0
 61129  1  0  0  0
 61130  1  0  0  0
 62131  1  0  0  0
 62132  1  0  0  0
 62133  1  0  0  0
 63 65  1  0  0  0
 63134  1  0  0  0
 63135  1  0  0  0
 63136  1  0  0  0
 64137  1  0  0  0
 65138  1  0  0  0
 68 75  1  0  0  0
 71 72  1  0  0  0
 71 76  2  0  0  0
 71139  1  0  0  0
 72 77  2  0  0  0
 72 79  1  0  0  0
 73 74  1  0  0  0
 73 75  1  0  0  0
 73140  1  0  0  0
 73141  1  0  0  0
 74 78  1  0  0  0
 74142  1  0  0  0
 74143  1  0  0  0
 75144  1  0  0  0
 75145  1  0  0  0
 76 78  1  0  0  0
 77 78  1  0  0  0
 79146  1  0  0  0
M  ISO  4   1 100  68 101  75 101  79 100
M  END
> <chiral flag>
0

> <version>
0

> <s_m_source_file>
/data/baiqing/PycharmProjects/Reinvent-master-3.2/result/LINK_invent/BTK/process_docking_weight1_custom_product_contain_oxygen_bond_distance_aromatic_linkinvent_7_9_3/rearranged_h_0199.sdf

> <i_m_source_file_index>
23

> <r_mmod_Potential_Energy-OPLS-2005>
630.667907714844

> <r_mmod_Stretch_Energy-OPLS-2005>
341.92919921875

> <r_mmod_Bend_Energy-OPLS-2005>
317.235809326172

> <r_mmod_Torsional_Energy-OPLS-2005>
218.117202758789

> <r_mmod_Improper_Torsional_Energy-OPLS-2005>
4.86993503570557

> <r_mmod_Van_der_Waal_Energy-OPLS-2005>
107.840476989746

> <r_mmod_Electrostatic_Energy-OPLS-2005>
-409.289459228516

> <r_mmod_Solvation_Energy-OPLS-2005>
-220.655258178711

> <b_mmod_Minimization_Converged-OPLS-2005>
0

> <r_mmod_RMS_Derivative-OPLS-2005>
0.330667495727539

$$$$
23
                    3D
 Structure written by MMmdl.
154162  0  0  1  0            999 V2000
  -30.6704  -14.5060   20.5105 C   0  0  0  0  0  0
  -30.4164  -12.3109   19.4371 C   0  0  0  0  0  0
  -29.4973  -12.5053   18.2122 C   0  0  0  0  0  0
  -28.0140  -12.3770   18.6125 C   0  0  0  0  0  0
  -27.6550  -13.2144   19.8698 C   0  0  2  0  0  0
  -28.6952  -13.0167   20.9961 C   0  0  0  0  0  0
  -25.2547  -13.8190   20.5678 C   0  0  0  0  0  0
  -24.1817  -13.0451   20.9189 C   0  0  0  0  0  0
  -24.6374  -11.6923   20.8729 C   0  0  0  0  0  0
  -23.9056  -10.4297   21.0382 C   0  0  0  0  0  0
  -24.3617   -9.4222   21.9161 C   0  0  0  0  0  0
  -23.6301   -8.2250   22.0742 C   0  0  0  0  0  0
  -22.4276   -8.0279   21.3540 C   0  0  0  0  0  0
  -21.9906   -9.0246   20.4635 C   0  0  0  0  0  0
  -22.7230  -10.2133   20.3032 C   0  0  0  0  0  0
  -21.6857   -6.0732   22.5277 C   0  0  0  0  0  0
  -21.4014   -6.5634   23.8209 C   0  0  0  0  0  0
  -21.3673   -5.6790   24.9174 C   0  0  0  0  0  0
  -21.6048   -4.3052   24.7220 C   0  0  0  0  0  0
  -21.8824   -3.8146   23.4340 C   0  0  0  0  0  0
  -21.9188   -4.6961   22.3397 C   0  0  0  0  0  0
  -22.7839  -13.5230   21.1859 C   0  0  0  0  0  0
  -22.1655   -4.2145   21.0975 F   0  0  0  0  0  0
  -21.5634   -3.4537   25.7733 F   0  0  0  0  0  0
  -30.0239  -13.3102   20.4432 N   0  0  0  0  0  0
  -26.2976  -12.9370   20.3330 N   0  0  0  0  0  0
  -25.9303  -11.6523   20.5750 N   0  0  0  0  0  0
  -22.0476  -12.8221   22.0408 N   0  0  0  0  0  0
  -25.4266  -15.1915   20.4106 N   0  0  0  0  0  0
  -31.8412  -14.6428   20.1456 O   0  0  0  0  0  0
  -21.6653   -6.8877   21.4236 O   0  0  0  0  0  0
  -22.3512  -14.5526   20.6694 O   0  0  0  0  0  0
  -24.6144  -31.8672   23.2070 C   0  0  0  0  0  0
  -25.9031  -32.4825   23.8364 C   0  0  1  0  0  0
  -27.2292  -27.4224   20.1199 C   0  0  0  0  0  0
  -25.5865  -33.8625   24.2275 N   0  0  0  0  0  0
  -23.4028  -30.4872   21.5502 C   0  0  2  0  0  0
  -24.8505  -28.9486   20.1187 C   0  0  0  0  0  0
  -22.7410  -29.4640   22.5016 C   0  0  0  0  0  0
  -18.0252  -28.1387   22.8488 C   0  0  0  0  0  0
  -24.1483  -36.7330   23.2637 C   0  0  0  0  0  0
  -25.9310  -30.8324   21.3590 C   0  0  0  0  0  0
  -26.0114  -29.4645   20.7100 C   0  0  0  0  0  0
  -27.2083  -28.7117   20.7007 C   0  0  0  0  0  0
  -26.0555  -26.9176   19.5251 C   0  0  0  0  0  0
  -24.8676  -27.6744   19.5211 C   0  0  0  0  0  0
  -23.6118  -29.8150   20.1666 C   0  0  0  0  0  0
  -25.4109  -36.3121   24.0322 C   0  0  1  0  0  0
  -20.5848  -28.3655   23.1339 C   0  0  2  0  0  0
  -20.6756  -26.9398   22.5433 C   0  0  0  0  0  0
  -19.5733  -26.6388   21.5231 C   0  0  0  0  0  0
  -18.1910  -26.7924   22.1636 C   0  0  0  0  0  0
  -19.1507  -28.8838   23.2906 C   0  0  0  0  0  0
  -18.9446  -30.1452   23.8910 C   0  0  0  0  0  0
  -17.6453  -30.6596   24.0575 C   0  0  0  0  0  0
  -25.9041  -34.9489   23.5105 C   0  0  0  0  0  0
  -16.5337  -29.9113   23.6330 C   0  0  0  0  0  0
  -16.7244  -28.6533   23.0331 C   0  0  0  0  0  0
  -26.4437  -31.6616   25.0711 C   0  0  0  0  0  0
  -25.3676  -31.3766   26.1446 C   0  0  0  0  0  0
  -27.0264  -30.3042   24.6120 C   0  0  0  0  0  0
  -27.5987  -32.4350   25.7497 C   0  0  0  0  0  0
  -27.5577  -37.1822   24.8453 C   0  0  0  0  0  0
  -21.4136  -29.3021   22.3755 N   0  0  0  0  0  0
  -26.4287  -37.3812   23.9404 N   0  0  0  0  0  0
  -24.6681  -31.0757   22.0980 N   0  0  0  0  0  0
  -23.4177  -28.8192   23.3072 O   0  0  0  0  0  0
  -28.3789  -26.6636   20.1204 O   0  0  0  0  0  0
  -26.5640  -34.8944   22.4693 O   0  0  0  0  0  0
  -23.5329  -32.1433   23.7456 O   0  0  0  0  0  0
  -30.6096  -17.0417   18.9648 C   0  0  0  0  0  0
  -30.1841  -19.2961   18.9509 C   0  0  0  0  0  0
  -29.9789  -16.8890   20.2323 C   0  0  0  0  0  0
  -29.5098  -19.1975   20.1971 C   0  0  0  0  0  0
  -28.4197  -24.1492   20.1653 C   0  0  0  0  0  0
  -28.6660  -21.5761   20.1170 C   0  0  0  0  0  0
  -28.3478  -25.4866   20.9554 C   0  0  0  0  0  0
  -28.6587  -22.8512   21.0055 C   0  0  1  0  0  0
  -30.7207  -18.2265   18.3301 N   0  0  0  0  0  0
  -29.4090  -17.9874   20.8251 N   0  0  0  0  0  0
  -29.8956  -15.5759   20.8159 N   0  0  0  0  0  0
  -28.9256  -20.3118   20.8398 N   0  0  0  0  0  0
  -29.9440  -22.9129   21.6051 O   0  0  0  0  0  0
  -31.4629  -12.4041   19.1426 H   0  0  0  0  0  0
  -30.3093  -11.3050   19.8426 H   0  0  0  0  0  0
  -29.7399  -11.7745   17.4394 H   0  0  0  0  0  0
  -29.6759  -13.4890   17.7727 H   0  0  0  0  0  0
  -27.8108  -11.3226   18.7950 H   0  0  0  0  0  0
  -27.3757  -12.6661   17.7774 H   0  0  0  0  0  0
  -27.6889  -14.2607   19.5666 H   0  0  0  0  0  0
  -28.6683  -11.9904   21.3624 H   0  0  0  0  0  0
  -28.4626  -13.6466   21.8559 H   0  0  0  0  0  0
  -25.2755   -9.5716   22.4748 H   0  0  0  0  0  0
  -24.0017   -7.4647   22.7463 H   0  0  0  0  0  0
  -21.0836   -8.8762   19.8943 H   0  0  0  0  0  0
  -22.3674  -10.9669   19.6146 H   0  0  0  0  0  0
  -21.2003   -7.6142   23.9711 H   0  0  0  0  0  0
  -21.1495   -6.0518   25.9080 H   0  0  0  0  0  0
  -22.0589   -2.7602   23.2838 H   0  0  0  0  0  0
  -22.4083  -11.9888   22.4824 H   0  0  0  0  0  0
  -21.1073  -13.1226   22.2588 H   0  0  0  0  0  0
  -24.6655  -15.8497   20.5367 H   0  0  0  0  0  0
  -26.2806  -15.6349   20.0968 H   0  0  0  0  0  0
  -26.7109  -32.5529   23.1133 H   0  0  0  0  0  0
  -24.9932  -33.9785   25.0356 H   0  0  0  0  0  0
  -22.6906  -31.3031   21.4086 H   0  0  0  0  0  0
  -23.3745  -35.9665   23.3309 H   0  0  0  0  0  0
  -24.3567  -36.8949   22.2052 H   0  0  0  0  0  0
  -23.7241  -37.6533   23.6661 H   0  0  0  0  0  0
  -26.0377  -31.5961   20.5875 H   0  0  0  0  0  0
  -26.8205  -30.8905   21.9752 H   0  0  0  0  0  0
  -28.1067  -29.1063   21.1553 H   0  0  0  0  0  0
  -26.0597  -25.9363   19.0719 H   0  0  0  0  0  0
  -23.9741  -27.2662   19.0692 H   0  0  0  0  0  0
  -23.7196  -30.5873   19.4043 H   0  0  0  0  0  0
  -22.7363  -29.2333   19.8728 H   0  0  0  0  0  0
  -25.1295  -36.1976   25.0813 H   0  0  0  0  0  0
  -20.9909  -28.3221   24.1473 H   0  0  0  0  0  0
  -20.5692  -26.2264   23.3619 H   0  0  0  0  0  0
  -21.6627  -26.7483   22.1210 H   0  0  0  0  0  0
  -19.6910  -25.6309   21.1248 H   0  0  0  0  0  0
  -19.6673  -27.3218   20.6779 H   0  0  0  0  0  0
  -17.4188  -26.6657   21.4039 H   0  0  0  0  0  0
  -18.0303  -26.0073   22.9035 H   0  0  0  0  0  0
  -19.7937  -30.7259   24.2273 H   0  0  0  0  0  0
  -17.5026  -31.6275   24.5183 H   0  0  0  0  0  0
  -15.5346  -30.3035   23.7660 H   0  0  0  0  0  0
  -15.8630  -28.0889   22.7012 H   0  0  0  0  0  0
  -24.5798  -30.7178   25.7769 H   0  0  0  0  0  0
  -24.8935  -32.2959   26.4900 H   0  0  0  0  0  0
  -25.7985  -30.8900   27.0202 H   0  0  0  0  0  0
  -26.2834  -29.6836   24.1097 H   0  0  0  0  0  0
  -27.3917  -29.7252   25.4614 H   0  0  0  0  0  0
  -27.8712  -30.4332   23.9349 H   0  0  0  0  0  0
  -27.2550  -33.3610   26.2120 H   0  0  0  0  0  0
  -28.3782  -32.6984   25.0337 H   0  0  0  0  0  0
  -28.0668  -31.8459   26.5390 H   0  0  0  0  0  0
  -28.2600  -38.0117   24.7522 H   0  0  0  0  0  0
  -28.1069  -36.2656   24.6255 H   0  0  0  0  0  0
  -27.2298  -37.1440   25.8855 H   0  0  0  0  0  0
  -20.9305  -29.8720   21.6952 H   0  0  0  0  0  0
  -26.0174  -38.2886   24.1421 H   0  0  0  0  0  0
  -31.0173  -16.2078   18.4125 H   0  0  0  0  0  0
  -30.3167  -20.2262   18.4238 H   0  0  0  0  0  0
  -29.1976  -24.2308   19.4042 H   0  0  0  0  0  0
  -27.4849  -24.0331   19.6150 H   0  0  0  0  0  0
  -29.3993  -21.7520   19.3345 H   0  0  0  0  0  0
  -27.7027  -21.4860   19.6114 H   0  0  0  0  0  0
  -29.2120  -25.5608   21.6155 H   0  0  0  0  0  0
  -27.4765  -25.4822   21.6139 H   0  0  0  0  0  0
  -27.8973  -22.7649   21.7841 H   0  0  0  0  0  0
  -29.0427  -15.3704   21.3089 H   0  0  0  0  0  0
  -28.4239  -20.1568   21.7079 H   0  0  0  0  0  0
  -29.8887  -23.4787   22.3690 H   0  0  0  0  0  0
  1 25  1  0  0  0
  1 30  2  0  0  0
  1 81  1  0  0  0
  2  3  1  0  0  0
  2 25  1  0  0  0
  2 84  1  0  0  0
  2 85  1  0  0  0
  3  4  1  0  0  0
  3 86  1  0  0  0
  3 87  1  0  0  0
  4  5  1  0  0  0
  4 88  1  0  0  0
  4 89  1  0  0  0
  5  6  1  0  0  0
  5 26  1  0  0  0
  5 90  1  0  0  0
  6 25  1  0  0  0
  6 91  1  0  0  0
  6 92  1  0  0  0
  7  8  2  0  0  0
  7 26  1  0  0  0
  7 29  1  0  0  0
  8  9  1  0  0  0
  8 22  1  0  0  0
  9 10  1  0  0  0
  9 27  2  0  0  0
 10 11  2  0  0  0
 10 15  1  0  0  0
 11 12  1  0  0  0
 11 93  1  0  0  0
 12 13  2  0  0  0
 12 94  1  0  0  0
 13 14  1  0  0  0
 13 31  1  0  0  0
 14 15  2  0  0  0
 14 95  1  0  0  0
 15 96  1  0  0  0
 16 17  2  0  0  0
 16 21  1  0  0  0
 16 31  1  0  0  0
 17 18  1  0  0  0
 17 97  1  0  0  0
 18 19  2  0  0  0
 18 98  1  0  0  0
 19 20  1  0  0  0
 19 24  1  0  0  0
 20 21  2  0  0  0
 20 99  1  0  0  0
 21 23  1  0  0  0
 22 28  1  0  0  0
 22 32  2  0  0  0
 26 27  1  0  0  0
 28100  1  0  0  0
 28101  1  0  0  0
 29102  1  0  0  0
 29103  1  0  0  0
 33 34  1  0  0  0
 33 66  1  0  0  0
 33 70  2  0  0  0
 34 36  1  0  0  0
 34 59  1  0  0  0
 34104  1  0  0  0
 35 44  2  0  0  0
 35 45  1  0  0  0
 35 68  1  0  0  0
 36 56  1  0  0  0
 36105  1  0  0  0
 37 39  1  0  0  0
 37 47  1  0  0  0
 37 66  1  0  0  0
 37106  1  0  0  0
 38 43  2  0  0  0
 38 46  1  0  0  0
 38 47  1  0  0  0
 39 64  1  0  0  0
 39 67  2  0  0  0
 40 52  1  0  0  0
 40 53  2  0  0  0
 40 58  1  0  0  0
 41107  1  0  0  0
 41108  1  0  0  0
 41109  1  0  0  0
 41 48  1  0  0  0
 42 43  1  0  0  0
 42 66  1  0  0  0
 42110  1  0  0  0
 42111  1  0  0  0
 43 44  1  0  0  0
 44112  1  0  0  0
 45 46  2  0  0  0
 45113  1  0  0  0
 46114  1  0  0  0
 47115  1  0  0  0
 47116  1  0  0  0
 48 56  1  0  0  0
 48 65  1  0  0  0
 48117  1  0  0  0
 49 50  1  0  0  0
 49 53  1  0  0  0
 49 64  1  0  0  0
 49118  1  0  0  0
 50 51  1  0  0  0
 50119  1  0  0  0
 50120  1  0  0  0
 51 52  1  0  0  0
 51121  1  0  0  0
 51122  1  0  0  0
 52123  1  0  0  0
 52124  1  0  0  0
 53 54  1  0  0  0
 54 55  2  0  0  0
 54125  1  0  0  0
 55 57  1  0  0  0
 55126  1  0  0  0
 56 69  2  0  0  0
 57 58  2  0  0  0
 57127  1  0  0  0
 58128  1  0  0  0
 59 60  1  0  0  0
 59 61  1  0  0  0
 59 62  1  0  0  0
 60129  1  0  0  0
 60130  1  0  0  0
 60131  1  0  0  0
 61132  1  0  0  0
 61133  1  0  0  0
 61134  1  0  0  0
 62135  1  0  0  0
 62136  1  0  0  0
 62137  1  0  0  0
 63 65  1  0  0  0
 63138  1  0  0  0
 63139  1  0  0  0
 63140  1  0  0  0
 64141  1  0  0  0
 65142  1  0  0  0
 68 77  1  0  0  0
 71 73  2  0  0  0
 71 79  1  0  0  0
 71143  1  0  0  0
 72 74  1  0  0  0
 72 79  2  0  0  0
 72144  1  0  0  0
 73 80  1  0  0  0
 73 81  1  0  0  0
 74 80  2  0  0  0
 74 82  1  0  0  0
 75 77  1  0  0  0
 75 78  1  0  0  0
 75145  1  0  0  0
 75146  1  0  0  0
 76 78  1  0  0  0
 76 82  1  0  0  0
 76147  1  0  0  0
 76148  1  0  0  0
 77149  1  0  0  0
 77150  1  0  0  0
 78 83  1  0  0  0
 78151  1  0  0  0
 81152  1  0  0  0
 82153  1  0  0  0
 83154  1  0  0  0
M  ISO  4   1 100  68 101  77 101  81 100
M  END
> <chiral flag>
0

> <version>
0

> <s_m_source_file>
/data/baiqing/PycharmProjects/Reinvent-master-3.2/result/LINK_invent/BTK/process_docking_weight1_custom_product_contain_oxygen_bond_distance_aromatic_linkinvent_7_9_3/rearranged_h_0199.sdf

> <i_m_source_file_index>
24

> <r_mmod_Potential_Energy-OPLS-2005>
-45.0908164978027

> <r_mmod_Stretch_Energy-OPLS-2005>
45.3927001953125

> <r_mmod_Bend_Energy-OPLS-2005>
105.96866607666

> <r_mmod_Torsional_Energy-OPLS-2005>
269.512817382812

> <r_mmod_Improper_Torsional_Energy-OPLS-2005>
6.09464740753174

> <r_mmod_Van_der_Waal_Energy-OPLS-2005>
162.354019165039

> <r_mmod_Electrostatic_Energy-OPLS-2005>
-401.212036132812

> <r_mmod_Solvation_Energy-OPLS-2005>
-251.392837524414

> <b_mmod_Minimization_Converged-OPLS-2005>
0

> <r_mmod_RMS_Derivative-OPLS-2005>
2.21615290641785

$$$$
24
                    3D
 Structure written by MMmdl.
148156  0  0  1  0            999 V2000
  -30.6447  -14.6892   20.4895 C   0  0  0  0  0  0
  -30.4287  -12.4292   19.4560 C   0  0  0  0  0  0
  -29.5022  -12.5004   18.2239 C   0  0  0  0  0  0
  -28.0288  -12.3317   18.6428 C   0  0  0  0  0  0
  -27.6428  -13.2275   19.8502 C   0  0  2  0  0  0
  -28.6900  -13.1436   20.9811 C   0  0  0  0  0  0
  -25.2519  -13.8194   20.5698 C   0  0  0  0  0  0
  -24.1805  -13.0442   20.9210 C   0  0  0  0  0  0
  -24.6391  -11.6918   20.8752 C   0  0  0  0  0  0
  -23.9068  -10.4295   21.0411 C   0  0  0  0  0  0
  -24.3619   -9.4208   21.9186 C   0  0  0  0  0  0
  -23.6294   -8.2243   22.0754 C   0  0  0  0  0  0
  -22.4276   -8.0282   21.3544 C   0  0  0  0  0  0
  -21.9913   -9.0256   20.4647 C   0  0  0  0  0  0
  -22.7242  -10.2136   20.3058 C   0  0  0  0  0  0
  -21.6853   -6.0736   22.5279 C   0  0  0  0  0  0
  -21.4014   -6.5640   23.8212 C   0  0  0  0  0  0
  -21.3659   -5.6794   24.9174 C   0  0  0  0  0  0
  -21.6045   -4.3056   24.7225 C   0  0  0  0  0  0
  -21.8819   -3.8148   23.4346 C   0  0  0  0  0  0
  -21.9193   -4.6964   22.3402 C   0  0  0  0  0  0
  -22.7826  -13.5225   21.1869 C   0  0  0  0  0  0
  -22.1662   -4.2149   21.0980 F   0  0  0  0  0  0
  -21.5629   -3.4540   25.7738 F   0  0  0  0  0  0
  -29.9922  -13.4845   20.3952 N   0  0  0  0  0  0
  -26.2944  -12.9394   20.3290 N   0  0  0  0  0  0
  -25.9320  -11.6540   20.5760 N   0  0  0  0  0  0
  -22.0474  -12.8213   22.0425 N   0  0  0  0  0  0
  -25.4215  -15.1917   20.4107 N   0  0  0  0  0  0
  -31.8349  -14.7763   20.1780 O   0  0  0  0  0  0
  -21.6640   -6.8879   21.4241 O   0  0  0  0  0  0
  -22.3510  -14.5531   20.6716 O   0  0  0  0  0  0
  -24.6303  -31.8575   23.2012 C   0  0  0  0  0  0
  -25.9137  -32.4765   23.8348 C   0  0  1  0  0  0
  -27.2145  -27.2816   20.1185 C   0  0  0  0  0  0
  -25.5940  -33.8567   24.2270 N   0  0  0  0  0  0
  -23.4248  -30.4835   21.5452 C   0  0  2  0  0  0
  -24.8691  -28.9376   20.1113 C   0  0  0  0  0  0
  -22.7495  -29.4620   22.4921 C   0  0  0  0  0  0
  -18.0291  -28.1389   22.8486 C   0  0  0  0  0  0
  -24.1488  -36.7284   23.2640 C   0  0  0  0  0  0
  -25.9710  -30.7775   21.3780 C   0  0  0  0  0  0
  -26.0429  -29.4035   20.7167 C   0  0  0  0  0  0
  -27.2202  -28.5895   20.7073 C   0  0  0  0  0  0
  -26.0131  -26.8828   19.4865 C   0  0  0  0  0  0
  -24.8586  -27.6842   19.4862 C   0  0  0  0  0  0
  -23.6406  -29.8230   20.1597 C   0  0  0  0  0  0
  -25.4115  -36.3073   24.0328 C   0  0  1  0  0  0
  -20.5895  -28.3698   23.1271 C   0  0  2  0  0  0
  -20.6781  -26.9418   22.5406 C   0  0  0  0  0  0
  -19.5755  -26.6385   21.5211 C   0  0  0  0  0  0
  -18.1934  -26.7932   22.1624 C   0  0  0  0  0  0
  -19.1545  -28.8859   23.2873 C   0  0  0  0  0  0
  -18.9467  -30.1460   23.8890 C   0  0  0  0  0  0
  -17.6467  -30.6590   24.0562 C   0  0  0  0  0  0
  -25.9056  -34.9445   23.5098 C   0  0  0  0  0  0
  -16.5356  -29.9089   23.6334 C   0  0  0  0  0  0
  -16.7276  -28.6507   23.0354 C   0  0  0  0  0  0
  -26.4506  -31.6585   25.0731 C   0  0  0  0  0  0
  -25.3729  -31.3738   26.1452 C   0  0  0  0  0  0
  -27.0356  -30.3005   24.6213 C   0  0  0  0  0  0
  -27.6054  -32.4331   25.7506 C   0  0  0  0  0  0
  -27.5576  -37.1799   24.8466 C   0  0  0  0  0  0
  -21.4204  -29.3048   22.3663 N   0  0  0  0  0  0
  -26.4289  -37.3772   23.9409 N   0  0  0  0  0  0
  -24.6945  -31.0567   22.0976 N   0  0  0  0  0  0
  -23.4205  -28.8152   23.3005 O   0  0  0  0  0  0
  -28.3128  -26.3938   20.1630 O   0  0  0  0  0  0
  -26.5621  -34.8918   22.4663 O   0  0  0  0  0  0
  -23.5458  -32.1386   23.7323 O   0  0  0  0  0  0
  -30.3817  -19.2631   19.5209 C   0  0  0  0  0  0
  -29.9313  -18.5627   20.6272 C   0  0  0  0  0  0
  -29.2459  -21.0597   20.4585 C   0  0  0  0  0  0
  -30.4496  -17.1837   21.1730 C   0  0  0  0  0  0
  -29.1835  -23.8174   20.3083 C   0  0  0  0  0  0
  -28.0258  -24.9231   20.1808 C   0  0  0  0  0  0
  -30.0214  -20.6399   19.4516 N   0  0  0  0  0  0
  -28.7813  -22.4046   20.6630 N   0  0  0  0  0  0
  -29.9110  -15.8247   20.7690 N   0  0  0  0  0  0
  -28.9077  -19.6823   21.5668 S   0  0  0  0  0  0
  -31.4691  -12.5491   19.1495 H   0  0  0  0  0  0
  -30.3678  -11.4488   19.9309 H   0  0  0  0  0  0
  -29.7753  -11.7308   17.5007 H   0  0  0  0  0  0
  -29.6339  -13.4578   17.7174 H   0  0  0  0  0  0
  -27.8802  -11.2825   18.9005 H   0  0  0  0  0  0
  -27.3692  -12.5318   17.7976 H   0  0  0  0  0  0
  -27.6438  -14.2521   19.4777 H   0  0  0  0  0  0
  -28.7178  -12.1417   21.4121 H   0  0  0  0  0  0
  -28.4334  -13.8198   21.7982 H   0  0  0  0  0  0
  -25.2762   -9.5684   22.4762 H   0  0  0  0  0  0
  -24.0002   -7.4633   22.7470 H   0  0  0  0  0  0
  -21.0846   -8.8774   19.8951 H   0  0  0  0  0  0
  -22.3700  -10.9675   19.6168 H   0  0  0  0  0  0
  -21.2004   -7.6149   23.9716 H   0  0  0  0  0  0
  -21.1481   -6.0524   25.9077 H   0  0  0  0  0  0
  -22.0598   -2.7610   23.2846 H   0  0  0  0  0  0
  -22.4092  -11.9870   22.4805 H   0  0  0  0  0  0
  -21.1092  -13.1234   22.2638 H   0  0  0  0  0  0
  -24.6529  -15.8447   20.5183 H   0  0  0  0  0  0
  -26.2666  -15.6314   20.0694 H   0  0  0  0  0  0
  -26.7203  -32.5419   23.1089 H   0  0  0  0  0  0
  -25.0094  -33.9709   25.0420 H   0  0  0  0  0  0
  -22.7204  -31.3056   21.4031 H   0  0  0  0  0  0
  -23.3752  -35.9615   23.3303 H   0  0  0  0  0  0
  -24.3578  -36.8904   22.2053 H   0  0  0  0  0  0
  -23.7242  -37.6487   23.6661 H   0  0  0  0  0  0
  -26.1107  -31.5415   20.6119 H   0  0  0  0  0  0
  -26.8484  -30.8216   22.0116 H   0  0  0  0  0  0
  -28.1196  -28.9432   21.1916 H   0  0  0  0  0  0
  -25.9227  -25.9332   18.9848 H   0  0  0  0  0  0
  -23.9602  -27.3222   19.0051 H   0  0  0  0  0  0
  -23.7650  -30.6016   19.4062 H   0  0  0  0  0  0
  -22.7586  -29.2578   19.8536 H   0  0  0  0  0  0
  -25.1299  -36.1917   25.0820 H   0  0  0  0  0  0
  -20.9988  -28.3271   24.1391 H   0  0  0  0  0  0
  -20.5686  -26.2307   23.3609 H   0  0  0  0  0  0
  -21.6649  -26.7446   22.1193 H   0  0  0  0  0  0
  -19.6917  -25.6295   21.1244 H   0  0  0  0  0  0
  -19.6691  -27.3192   20.6739 H   0  0  0  0  0  0
  -17.4205  -26.6675   21.4026 H   0  0  0  0  0  0
  -18.0334  -26.0079   22.9025 H   0  0  0  0  0  0
  -19.7943  -30.7279   24.2253 H   0  0  0  0  0  0
  -17.5023  -31.6270   24.5165 H   0  0  0  0  0  0
  -15.5358  -30.2990   23.7669 H   0  0  0  0  0  0
  -15.8675  -28.0825   22.7072 H   0  0  0  0  0  0
  -24.5906  -30.7082   25.7785 H   0  0  0  0  0  0
  -24.8917  -32.2911   26.4857 H   0  0  0  0  0  0
  -25.8049  -30.8933   27.0238 H   0  0  0  0  0  0
  -26.2942  -29.6751   24.1225 H   0  0  0  0  0  0
  -27.4030  -29.7267   25.4731 H   0  0  0  0  0  0
  -27.8824  -30.4284   23.9465 H   0  0  0  0  0  0
  -27.2651  -33.3635   26.2066 H   0  0  0  0  0  0
  -28.3876  -32.6887   25.0345 H   0  0  0  0  0  0
  -28.0710  -31.8468   26.5438 H   0  0  0  0  0  0
  -28.2595  -38.0094   24.7510 H   0  0  0  0  0  0
  -28.1071  -36.2626   24.6297 H   0  0  0  0  0  0
  -27.2294  -37.1454   25.8869 H   0  0  0  0  0  0
  -20.9382  -29.8779   21.6880 H   0  0  0  0  0  0
  -26.0166  -38.2845   24.1411 H   0  0  0  0  0  0
  -31.0665  -18.8859   18.7741 H   0  0  0  0  0  0
  -30.3565  -17.2116   22.2594 H   0  0  0  0  0  0
  -31.5286  -17.1700   21.0109 H   0  0  0  0  0  0
  -29.8778  -24.1472   21.0819 H   0  0  0  0  0  0
  -29.7621  -23.7956   19.3839 H   0  0  0  0  0  0
  -27.3175  -24.7575   20.9942 H   0  0  0  0  0  0
  -27.5062  -24.6550   19.2629 H   0  0  0  0  0  0
  -28.1028  -22.4146   21.4199 H   0  0  0  0  0  0
  -28.9233  -15.6801   20.9134 H   0  0  0  0  0  0
  1 25  1  0  0  0
  1 30  2  0  0  0
  1 79  1  0  0  0
  2  3  1  0  0  0
  2 25  1  0  0  0
  2 81  1  0  0  0
  2 82  1  0  0  0
  3  4  1  0  0  0
  3 83  1  0  0  0
  3 84  1  0  0  0
  4  5  1  0  0  0
  4 85  1  0  0  0
  4 86  1  0  0  0
  5  6  1  0  0  0
  5 26  1  0  0  0
  5 87  1  0  0  0
  6 25  1  0  0  0
  6 88  1  0  0  0
  6 89  1  0  0  0
  7  8  2  0  0  0
  7 26  1  0  0  0
  7 29  1  0  0  0
  8  9  1  0  0  0
  8 22  1  0  0  0
  9 10  1  0  0  0
  9 27  2  0  0  0
 10 11  2  0  0  0
 10 15  1  0  0  0
 11 12  1  0  0  0
 11 90  1  0  0  0
 12 13  2  0  0  0
 12 91  1  0  0  0
 13 14  1  0  0  0
 13 31  1  0  0  0
 14 15  2  0  0  0
 14 92  1  0  0  0
 15 93  1  0  0  0
 16 17  2  0  0  0
 16 21  1  0  0  0
 16 31  1  0  0  0
 17 18  1  0  0  0
 17 94  1  0  0  0
 18 19  2  0  0  0
 18 95  1  0  0  0
 19 20  1  0  0  0
 19 24  1  0  0  0
 20 21  2  0  0  0
 20 96  1  0  0  0
 21 23  1  0  0  0
 22 28  1  0  0  0
 22 32  2  0  0  0
 26 27  1  0  0  0
 28 97  1  0  0  0
 28 98  1  0  0  0
 29 99  1  0  0  0
 29100  1  0  0  0
 33 34  1  0  0  0
 33 66  1  0  0  0
 33 70  2  0  0  0
 34 36  1  0  0  0
 34 59  1  0  0  0
 34101  1  0  0  0
 35 44  2  0  0  0
 35 45  1  0  0  0
 35 68  1  0  0  0
 36 56  1  0  0  0
 36102  1  0  0  0
 37 39  1  0  0  0
 37 47  1  0  0  0
 37 66  1  0  0  0
 37103  1  0  0  0
 38 43  2  0  0  0
 38 46  1  0  0  0
 38 47  1  0  0  0
 39 64  1  0  0  0
 39 67  2  0  0  0
 40 52  1  0  0  0
 40 53  2  0  0  0
 40 58  1  0  0  0
 41104  1  0  0  0
 41105  1  0  0  0
 41106  1  0  0  0
 41 48  1  0  0  0
 42 43  1  0  0  0
 42 66  1  0  0  0
 42107  1  0  0  0
 42108  1  0  0  0
 43 44  1  0  0  0
 44109  1  0  0  0
 45 46  2  0  0  0
 45110  1  0  0  0
 46111  1  0  0  0
 47112  1  0  0  0
 47113  1  0  0  0
 48 56  1  0  0  0
 48 65  1  0  0  0
 48114  1  0  0  0
 49 50  1  0  0  0
 49 53  1  0  0  0
 49 64  1  0  0  0
 49115  1  0  0  0
 50 51  1  0  0  0
 50116  1  0  0  0
 50117  1  0  0  0
 51 52  1  0  0  0
 51118  1  0  0  0
 51119  1  0  0  0
 52120  1  0  0  0
 52121  1  0  0  0
 53 54  1  0  0  0
 54 55  2  0  0  0
 54122  1  0  0  0
 55 57  1  0  0  0
 55123  1  0  0  0
 56 69  2  0  0  0
 57 58  2  0  0  0
 57124  1  0  0  0
 58125  1  0  0  0
 59 60  1  0  0  0
 59 61  1  0  0  0
 59 62  1  0  0  0
 60126  1  0  0  0
 60127  1  0  0  0
 60128  1  0  0  0
 61129  1  0  0  0
 61130  1  0  0  0
 61131  1  0  0  0
 62132  1  0  0  0
 62133  1  0  0  0
 62134  1  0  0  0
 63 65  1  0  0  0
 63135  1  0  0  0
 63136  1  0  0  0
 63137  1  0  0  0
 64138  1  0  0  0
 65139  1  0  0  0
 68 76  1  0  0  0
 71 72  2  0  0  0
 71 77  1  0  0  0
 71140  1  0  0  0
 72 74  1  0  0  0
 72 80  1  0  0  0
 73 77  2  0  0  0
 73 78  1  0  0  0
 73 80  1  0  0  0
 74 79  1  0  0  0
 74141  1  0  0  0
 74142  1  0  0  0
 75 76  1  0  0  0
 75 78  1  0  0  0
 75143  1  0  0  0
 75144  1  0  0  0
 76145  1  0  0  0
 76146  1  0  0  0
 78147  1  0  0  0
 79148  1  0  0  0
M  ISO  4   1 100  68 101  76 101  79 100
M  END
> <chiral flag>
0

> <version>
0

> <s_m_source_file>
/data/baiqing/PycharmProjects/Reinvent-master-3.2/result/LINK_invent/BTK/process_docking_weight1_custom_product_contain_oxygen_bond_distance_aromatic_linkinvent_7_9_3/rearranged_h_0199.sdf

> <i_m_source_file_index>
25

> <r_mmod_Potential_Energy-OPLS-2005>
-6.10393285751343

> <r_mmod_Stretch_Energy-OPLS-2005>
93.0892486572266

> <r_mmod_Bend_Energy-OPLS-2005>
153.889709472656

> <r_mmod_Torsional_Energy-OPLS-2005>
208.72004699707

> <r_mmod_Improper_Torsional_Energy-OPLS-2005>
6.40135288238525

> <r_mmod_Van_der_Waal_Energy-OPLS-2005>
123.607856750488

> <r_mmod_Electrostatic_Energy-OPLS-2005>
-424.353912353516

> <r_mmod_Solvation_Energy-OPLS-2005>
-236.595260620117

> <b_mmod_Minimization_Converged-OPLS-2005>
0

> <r_mmod_RMS_Derivative-OPLS-2005>
0.346932888031006

$$$$
25
                    3D
 Structure written by MMmdl.
167175  0  0  1  0            999 V2000
  -30.6764  -14.5789   20.5240 C   0  0  0  0  0  0
  -30.4349  -12.3613   19.4440 C   0  0  0  0  0  0
  -29.5086  -12.4959   18.2175 C   0  0  0  0  0  0
  -28.0310  -12.3369   18.6304 C   0  0  0  0  0  0
  -27.6522  -13.2150   19.8551 C   0  0  2  0  0  0
  -28.6987  -13.0776   20.9845 C   0  0  0  0  0  0
  -25.2545  -13.8172   20.5666 C   0  0  0  0  0  0
  -24.1814  -13.0440   20.9190 C   0  0  0  0  0  0
  -24.6385  -11.6915   20.8728 C   0  0  0  0  0  0
  -23.9051  -10.4298   21.0400 C   0  0  0  0  0  0
  -24.3606   -9.4211   21.9174 C   0  0  0  0  0  0
  -23.6286   -8.2236   22.0744 C   0  0  0  0  0  0
  -22.4272   -8.0267   21.3527 C   0  0  0  0  0  0
  -21.9904   -9.0245   20.4641 C   0  0  0  0  0  0
  -22.7227  -10.2129   20.3044 C   0  0  0  0  0  0
  -21.6849   -6.0729   22.5277 C   0  0  0  0  0  0
  -21.4023   -6.5629   23.8215 C   0  0  0  0  0  0
  -21.3660   -5.6777   24.9169 C   0  0  0  0  0  0
  -21.6041   -4.3042   24.7216 C   0  0  0  0  0  0
  -21.8818   -3.8140   23.4336 C   0  0  0  0  0  0
  -21.9191   -4.6959   22.3395 C   0  0  0  0  0  0
  -22.7835  -13.5236   21.1842 C   0  0  0  0  0  0
  -22.1655   -4.2153   21.0970 F   0  0  0  0  0  0
  -21.5629   -3.4516   25.7722 F   0  0  0  0  0  0
  -30.0158  -13.3881   20.4118 N   0  0  0  0  0  0
  -26.2977  -12.9364   20.3270 N   0  0  0  0  0  0
  -25.9311  -11.6526   20.5722 N   0  0  0  0  0  0
  -22.0456  -12.8256   22.0396 N   0  0  0  0  0  0
  -25.4225  -15.1892   20.4062 N   0  0  0  0  0  0
  -31.8613  -14.6949   20.1997 O   0  0  0  0  0  0
  -21.6632   -6.8867   21.4235 O   0  0  0  0  0  0
  -22.3528  -14.5532   20.6661 O   0  0  0  0  0  0
  -24.6173  -31.8660   23.2068 C   0  0  0  0  0  0
  -25.9038  -32.4821   23.8391 C   0  0  1  0  0  0
  -27.2306  -27.3942   20.1126 C   0  0  0  0  0  0
  -25.5872  -33.8618   24.2308 N   0  0  0  0  0  0
  -23.4088  -30.4860   21.5497 C   0  0  2  0  0  0
  -24.8569  -28.9489   20.1153 C   0  0  0  0  0  0
  -22.7433  -29.4623   22.4992 C   0  0  0  0  0  0
  -18.0265  -28.1370   22.8484 C   0  0  0  0  0  0
  -24.1480  -36.7315   23.2645 C   0  0  0  0  0  0
  -25.9419  -30.8205   21.3668 C   0  0  0  0  0  0
  -26.0206  -29.4530   20.7110 C   0  0  0  0  0  0
  -27.2145  -28.6868   20.6981 C   0  0  0  0  0  0
  -26.0503  -26.9182   19.5030 C   0  0  0  0  0  0
  -24.8696  -27.6838   19.5038 C   0  0  0  0  0  0
  -23.6197  -29.8172   20.1653 C   0  0  0  0  0  0
  -25.4108  -36.3123   24.0342 C   0  0  1  0  0  0
  -20.5858  -28.3654   23.1318 C   0  0  2  0  0  0
  -20.6740  -26.9388   22.5415 C   0  0  0  0  0  0
  -19.5728  -26.6376   21.5197 C   0  0  0  0  0  0
  -18.1909  -26.7913   22.1614 C   0  0  0  0  0  0
  -19.1518  -28.8831   23.2891 C   0  0  0  0  0  0
  -18.9449  -30.1435   23.8903 C   0  0  0  0  0  0
  -17.6456  -30.6583   24.0557 C   0  0  0  0  0  0
  -25.9038  -34.9484   23.5135 C   0  0  0  0  0  0
  -16.5344  -29.9087   23.6321 C   0  0  0  0  0  0
  -16.7255  -28.6499   23.0347 C   0  0  0  0  0  0
  -26.4447  -31.6631   25.0746 C   0  0  0  0  0  0
  -25.3682  -31.3763   26.1478 C   0  0  0  0  0  0
  -27.0285  -30.3071   24.6154 C   0  0  0  0  0  0
  -27.6019  -32.4366   25.7500 C   0  0  0  0  0  0
  -27.5588  -37.1811   24.8462 C   0  0  0  0  0  0
  -21.4153  -29.3021   22.3731 N   0  0  0  0  0  0
  -26.4300  -37.3802   23.9409 N   0  0  0  0  0  0
  -24.6743  -31.0729   22.0988 N   0  0  0  0  0  0
  -23.4192  -28.8156   23.3037 O   0  0  0  0  0  0
  -28.3666  -26.5997   20.1240 O   0  0  0  0  0  0
  -26.5622  -34.8937   22.4711 O   0  0  0  0  0  0
  -23.5350  -32.1424   23.7434 O   0  0  0  0  0  0
  -30.2657  -17.0011   21.1065 C   0  0  0  0  0  0
  -30.2099  -19.0836   21.3751 C   0  0  0  0  0  0
  -33.4694  -21.3331   18.6401 C   0  0  0  0  0  0
  -32.1206  -22.7433   21.1409 C   0  0  0  0  0  0
  -31.7856  -19.1934   23.3634 C   0  0  0  0  0  0
  -32.2208  -20.8729   19.4111 C   0  0  0  0  0  0
  -29.0559  -22.7947   20.8978 C   0  0  0  0  0  0
  -28.2074  -25.2898   20.7371 C   0  0  0  0  0  0
  -31.3736  -22.0280   19.9917 C   0  0  1  0  0  0
  -29.9316  -21.5816   20.3847 C   0  0  1  0  0  0
  -28.9731  -24.1164   20.0339 C   0  0  2  0  0  0
  -29.6935  -18.1429   20.5687 N   0  0  0  0  0  0
  -31.0773  -17.2065   22.1433 N   0  0  0  0  0  0
  -31.0194  -18.5549   22.3080 N   0  0  0  0  0  0
  -29.8893  -15.6735   20.7124 N   0  0  0  0  0  0
  -29.9924  -20.4790   21.3704 N   0  0  0  0  0  0
  -28.2861  -23.8217   18.8290 O   0  0  0  0  0  0
  -31.4786  -12.4748   19.1479 H   0  0  0  0  0  0
  -30.3573  -11.3668   19.8890 H   0  0  0  0  0  0
  -29.7727  -11.7524   17.4633 H   0  0  0  0  0  0
  -29.6535  -13.4713   17.7489 H   0  0  0  0  0  0
  -27.8676  -11.2864   18.8715 H   0  0  0  0  0  0
  -27.3780  -12.5564   17.7854 H   0  0  0  0  0  0
  -27.6652  -14.2465   19.5036 H   0  0  0  0  0  0
  -28.6948  -12.0667   21.3950 H   0  0  0  0  0  0
  -28.4600  -13.7380   21.8209 H   0  0  0  0  0  0
  -25.2746   -9.5695   22.4748 H   0  0  0  0  0  0
  -23.9995   -7.4638   22.7470 H   0  0  0  0  0  0
  -21.0831   -8.8779   19.8949 H   0  0  0  0  0  0
  -22.3692  -10.9667   19.6154 H   0  0  0  0  0  0
  -21.2022   -7.6143   23.9718 H   0  0  0  0  0  0
  -21.1481   -6.0505   25.9077 H   0  0  0  0  0  0
  -22.0601   -2.7602   23.2824 H   0  0  0  0  0  0
  -22.4046  -11.9944   22.4859 H   0  0  0  0  0  0
  -21.1066  -13.1323   22.2523 H   0  0  0  0  0  0
  -24.6480  -15.8360   20.5107 H   0  0  0  0  0  0
  -26.2575  -15.6322   20.0468 H   0  0  0  0  0  0
  -26.7105  -32.5520   23.1152 H   0  0  0  0  0  0
  -24.9953  -33.9778   25.0404 H   0  0  0  0  0  0
  -22.6984  -31.3032   21.4084 H   0  0  0  0  0  0
  -23.3752  -35.9637   23.3312 H   0  0  0  0  0  0
  -24.3563  -36.8928   22.2056 H   0  0  0  0  0  0
  -23.7220  -37.6514   23.6658 H   0  0  0  0  0  0
  -26.0633  -31.5884   20.6015 H   0  0  0  0  0  0
  -26.8247  -30.8699   21.9926 H   0  0  0  0  0  0
  -28.1131  -29.0711   21.1598 H   0  0  0  0  0  0
  -26.0376  -25.9434   19.0352 H   0  0  0  0  0  0
  -23.9768  -27.2916   19.0370 H   0  0  0  0  0  0
  -23.7252  -30.5897   19.4030 H   0  0  0  0  0  0
  -22.7449  -29.2348   19.8713 H   0  0  0  0  0  0
  -25.1285  -36.1992   25.0837 H   0  0  0  0  0  0
  -20.9931  -28.3198   24.1447 H   0  0  0  0  0  0
  -20.5605  -26.2256   23.3593 H   0  0  0  0  0  0
  -21.6616  -26.7402   22.1238 H   0  0  0  0  0  0
  -19.6883  -25.6282   21.1230 H   0  0  0  0  0  0
  -19.6680  -27.3183   20.6722 H   0  0  0  0  0  0
  -17.4171  -26.6654   21.4020 H   0  0  0  0  0  0
  -18.0325  -26.0052   22.9015 H   0  0  0  0  0  0
  -19.7933  -30.7231   24.2287 H   0  0  0  0  0  0
  -17.5023  -31.6265   24.5159 H   0  0  0  0  0  0
  -15.5347  -30.2999   23.7643 H   0  0  0  0  0  0
  -15.8647  -28.0822   22.7075 H   0  0  0  0  0  0
  -24.5799  -30.7191   25.7792 H   0  0  0  0  0  0
  -24.8927  -32.2932   26.4976 H   0  0  0  0  0  0
  -25.7984  -30.8862   27.0217 H   0  0  0  0  0  0
  -26.2853  -29.6848   24.1153 H   0  0  0  0  0  0
  -27.3981  -29.7311   25.4648 H   0  0  0  0  0  0
  -27.8719  -30.4402   23.9370 H   0  0  0  0  0  0
  -27.2631  -33.3644   26.2125 H   0  0  0  0  0  0
  -28.3786  -32.6975   25.0299 H   0  0  0  0  0  0
  -28.0730  -31.8466   26.5370 H   0  0  0  0  0  0
  -28.2617  -38.0101   24.7523 H   0  0  0  0  0  0
  -28.1078  -36.2637   24.6275 H   0  0  0  0  0  0
  -27.2305  -37.1448   25.8865 H   0  0  0  0  0  0
  -20.9318  -29.8780   21.6983 H   0  0  0  0  0  0
  -26.0198  -38.2888   24.1394 H   0  0  0  0  0  0
  -34.0056  -20.4751   18.2353 H   0  0  0  0  0  0
  -34.1712  -21.8692   19.2777 H   0  0  0  0  0  0
  -33.2103  -21.9854   17.8058 H   0  0  0  0  0  0
  -33.0966  -23.1036   20.8204 H   0  0  0  0  0  0
  -32.2796  -22.0865   21.9956 H   0  0  0  0  0  0
  -31.5842  -23.6235   21.4942 H   0  0  0  0  0  0
  -32.5739  -19.8046   22.9254 H   0  0  0  0  0  0
  -32.2414  -18.4471   24.0145 H   0  0  0  0  0  0
  -31.1338  -19.8292   23.9616 H   0  0  0  0  0  0
  -32.5310  -20.1998   20.2109 H   0  0  0  0  0  0
  -31.6010  -20.2792   18.7384 H   0  0  0  0  0  0
  -29.4155  -23.0783   21.8869 H   0  0  0  0  0  0
  -28.0417  -22.4359   21.0739 H   0  0  0  0  0  0
  -28.6066  -25.3976   21.7458 H   0  0  0  0  0  0
  -27.1632  -25.0110   20.8883 H   0  0  0  0  0  0
  -31.2661  -22.7507   19.1824 H   0  0  0  0  0  0
  -29.4489  -21.1856   19.4895 H   0  0  0  0  0  0
  -29.9763  -24.4699   19.7926 H   0  0  0  0  0  0
  -28.9004  -15.5176   20.6285 H   0  0  0  0  0  0
  -30.3428  -20.8533   22.2435 H   0  0  0  0  0  0
  -28.2724  -24.6244   18.3134 H   0  0  0  0  0  0
  1 25  1  0  0  0
  1 30  2  0  0  0
  1 85  1  0  0  0
  2  3  1  0  0  0
  2 25  1  0  0  0
  2 88  1  0  0  0
  2 89  1  0  0  0
  3  4  1  0  0  0
  3 90  1  0  0  0
  3 91  1  0  0  0
  4  5  1  0  0  0
  4 92  1  0  0  0
  4 93  1  0  0  0
  5  6  1  0  0  0
  5 26  1  0  0  0
  5 94  1  0  0  0
  6 25  1  0  0  0
  6 95  1  0  0  0
  6 96  1  0  0  0
  7  8  2  0  0  0
  7 26  1  0  0  0
  7 29  1  0  0  0
  8  9  1  0  0  0
  8 22  1  0  0  0
  9 10  1  0  0  0
  9 27  2  0  0  0
 10 11  2  0  0  0
 10 15  1  0  0  0
 11 12  1  0  0  0
 11 97  1  0  0  0
 12 13  2  0  0  0
 12 98  1  0  0  0
 13 14  1  0  0  0
 13 31  1  0  0  0
 14 15  2  0  0  0
 14 99  1  0  0  0
 15100  1  0  0  0
 16 17  2  0  0  0
 16 21  1  0  0  0
 16 31  1  0  0  0
 17 18  1  0  0  0
 17101  1  0  0  0
 18 19  2  0  0  0
 18102  1  0  0  0
 19 20  1  0  0  0
 19 24  1  0  0  0
 20 21  2  0  0  0
 20103  1  0  0  0
 21 23  1  0  0  0
 22 28  1  0  0  0
 22 32  2  0  0  0
 26 27  1  0  0  0
 28104  1  0  0  0
 28105  1  0  0  0
 29106  1  0  0  0
 29107  1  0  0  0
 33 34  1  0  0  0
 33 66  1  0  0  0
 33 70  2  0  0  0
 34 36  1  0  0  0
 34 59  1  0  0  0
 34108  1  0  0  0
 35 44  2  0  0  0
 35 45  1  0  0  0
 35 68  1  0  0  0
 36 56  1  0  0  0
 36109  1  0  0  0
 37 39  1  0  0  0
 37 47  1  0  0  0
 37 66  1  0  0  0
 37110  1  0  0  0
 38 43  2  0  0  0
 38 46  1  0  0  0
 38 47  1  0  0  0
 39 64  1  0  0  0
 39 67  2  0  0  0
 40 52  1  0  0  0
 40 53  2  0  0  0
 40 58  1  0  0  0
 41111  1  0  0  0
 41112  1  0  0  0
 41113  1  0  0  0
 41 48  1  0  0  0
 42 43  1  0  0  0
 42 66  1  0  0  0
 42114  1  0  0  0
 42115  1  0  0  0
 43 44  1  0  0  0
 44116  1  0  0  0
 45 46  2  0  0  0
 45117  1  0  0  0
 46118  1  0  0  0
 47119  1  0  0  0
 47120  1  0  0  0
 48 56  1  0  0  0
 48 65  1  0  0  0
 48121  1  0  0  0
 49 50  1  0  0  0
 49 53  1  0  0  0
 49 64  1  0  0  0
 49122  1  0  0  0
 50 51  1  0  0  0
 50123  1  0  0  0
 50124  1  0  0  0
 51 52  1  0  0  0
 51125  1  0  0  0
 51126  1  0  0  0
 52127  1  0  0  0
 52128  1  0  0  0
 53 54  1  0  0  0
 54 55  2  0  0  0
 54129  1  0  0  0
 55 57  1  0  0  0
 55130  1  0  0  0
 56 69  2  0  0  0
 57 58  2  0  0  0
 57131  1  0  0  0
 58132  1  0  0  0
 59 60  1  0  0  0
 59 61  1  0  0  0
 59 62  1  0  0  0
 60133  1  0  0  0
 60134  1  0  0  0
 60135  1  0  0  0
 61136  1  0  0  0
 61137  1  0  0  0
 61138  1  0  0  0
 62139  1  0  0  0
 62140  1  0  0  0
 62141  1  0  0  0
 63 65  1  0  0  0
 63142  1  0  0  0
 63143  1  0  0  0
 63144  1  0  0  0
 64145  1  0  0  0
 65146  1  0  0  0
 68 78  1  0  0  0
 71 82  1  0  0  0
 71 83  2  0  0  0
 71 85  1  0  0  0
 72 82  2  0  0  0
 72 84  1  0  0  0
 72 86  1  0  0  0
 73 76  1  0  0  0
 73147  1  0  0  0
 73148  1  0  0  0
 73149  1  0  0  0
 74150  1  0  0  0
 74151  1  0  0  0
 74152  1  0  0  0
 74 79  1  0  0  0
 75 84  1  0  0  0
 75153  1  0  0  0
 75154  1  0  0  0
 75155  1  0  0  0
 76 79  1  0  0  0
 76156  1  0  0  0
 76157  1  0  0  0
 77 81  1  0  0  0
 77158  1  0  0  0
 77159  1  0  0  0
 77 80  1  0  0  0
 78 81  1  0  0  0
 78160  1  0  0  0
 78161  1  0  0  0
 79 80  1  0  0  0
 79162  1  0  0  0
 80 86  1  0  0  0
 80163  1  0  0  0
 81 87  1  0  0  0
 81164  1  0  0  0
 83 84  1  0  0  0
 85165  1  0  0  0
 86166  1  0  0  0
 87167  1  0  0  0
M  ISO  4   1 100  68 101  78 101  85 100
M  END
> <chiral flag>
0

> <version>
0

> <s_m_source_file>
/data/baiqing/PycharmProjects/Reinvent-master-3.2/result/LINK_invent/BTK/process_docking_weight1_custom_product_contain_oxygen_bond_distance_aromatic_linkinvent_7_9_3/rearranged_h_0199.sdf

> <i_m_source_file_index>
26

> <r_mmod_Potential_Energy-OPLS-2005>
-98.1668472290039

> <r_mmod_Stretch_Energy-OPLS-2005>
52.1274108886719

> <r_mmod_Bend_Energy-OPLS-2005>
120.389602661133

> <r_mmod_Torsional_Energy-OPLS-2005>
277.297088623047

> <r_mmod_Improper_Torsional_Energy-OPLS-2005>
10.3659820556641

> <r_mmod_Van_der_Waal_Energy-OPLS-2005>
118.417037963867

> <r_mmod_Electrostatic_Energy-OPLS-2005>
-465.336395263672

> <r_mmod_Solvation_Energy-OPLS-2005>
-241.521545410156

> <b_mmod_Minimization_Converged-OPLS-2005>
0

> <r_mmod_RMS_Derivative-OPLS-2005>
2.39004254341125

$$$$
26
                    3D
 Structure written by MMmdl.
155163  0  0  1  0            999 V2000
  -30.7160  -14.4072   20.6074 C   0  0  0  0  0  0
  -30.4218  -12.2778   19.4103 C   0  0  0  0  0  0
  -29.4929  -12.5100   18.2013 C   0  0  0  0  0  0
  -28.0130  -12.3753   18.6115 C   0  0  0  0  0  0
  -27.6663  -13.1984   19.8805 C   0  0  2  0  0  0
  -28.7034  -12.9389   20.9967 C   0  0  0  0  0  0
  -25.2611  -13.8147   20.5666 C   0  0  0  0  0  0
  -24.1850  -13.0439   20.9165 C   0  0  0  0  0  0
  -24.6388  -11.6901   20.8725 C   0  0  0  0  0  0
  -23.9049  -10.4293   21.0402 C   0  0  0  0  0  0
  -24.3605   -9.4211   21.9183 C   0  0  0  0  0  0
  -23.6286   -8.2246   22.0756 C   0  0  0  0  0  0
  -22.4270   -8.0281   21.3544 C   0  0  0  0  0  0
  -21.9904   -9.0251   20.4643 C   0  0  0  0  0  0
  -22.7225  -10.2134   20.3051 C   0  0  0  0  0  0
  -21.6851   -6.0734   22.5278 C   0  0  0  0  0  0
  -21.4014   -6.5638   23.8210 C   0  0  0  0  0  0
  -21.3660   -5.6792   24.9175 C   0  0  0  0  0  0
  -21.6044   -4.3054   24.7224 C   0  0  0  0  0  0
  -21.8819   -3.8147   23.4344 C   0  0  0  0  0  0
  -21.9194   -4.6964   22.3401 C   0  0  0  0  0  0
  -22.7878  -13.5250   21.1834 C   0  0  0  0  0  0
  -22.1662   -4.2150   21.0979 F   0  0  0  0  0  0
  -21.5629   -3.4538   25.7737 F   0  0  0  0  0  0
  -30.0441  -13.2363   20.4578 N   0  0  0  0  0  0
  -26.3039  -12.9301   20.3367 N   0  0  0  0  0  0
  -25.9310  -11.6467   20.5751 N   0  0  0  0  0  0
  -22.0510  -12.8243   22.0385 N   0  0  0  0  0  0
  -25.4361  -15.1861   20.4073 N   0  0  0  0  0  0
  -31.8168  -14.6255   20.0888 O   0  0  0  0  0  0
  -21.6637   -6.8877   21.4240 O   0  0  0  0  0  0
  -22.3574  -14.5564   20.6690 O   0  0  0  0  0  0
  -24.6106  -31.8698   23.2111 C   0  0  0  0  0  0
  -25.9012  -32.4833   23.8401 C   0  0  1  0  0  0
  -27.2403  -27.4672   20.0948 C   0  0  0  0  0  0
  -25.5881  -33.8632   24.2335 N   0  0  0  0  0  0
  -23.3966  -30.4919   21.5511 C   0  0  2  0  0  0
  -24.8428  -28.9559   20.1186 C   0  0  0  0  0  0
  -22.7381  -29.4668   22.5011 C   0  0  0  0  0  0
  -18.0262  -28.1373   22.8499 C   0  0  0  0  0  0
  -24.1485  -36.7324   23.2639 C   0  0  0  0  0  0
  -25.9204  -30.8465   21.3569 C   0  0  0  0  0  0
  -25.9993  -29.4818   20.7070 C   0  0  0  0  0  0
  -27.2007  -28.7456   20.6870 C   0  0  0  0  0  0
  -26.0675  -26.9408   19.5093 C   0  0  0  0  0  0
  -24.8697  -27.6832   19.5184 C   0  0  0  0  0  0
  -23.6026  -29.8186   20.1670 C   0  0  0  0  0  0
  -25.4106  -36.3122   24.0339 C   0  0  1  0  0  0
  -20.5848  -28.3656   23.1333 C   0  0  2  0  0  0
  -20.6756  -26.9399   22.5419 C   0  0  0  0  0  0
  -19.5737  -26.6386   21.5212 C   0  0  0  0  0  0
  -18.1912  -26.7925   22.1620 C   0  0  0  0  0  0
  -19.1510  -28.8831   23.2914 C   0  0  0  0  0  0
  -18.9442  -30.1440   23.8919 C   0  0  0  0  0  0
  -17.6447  -30.6587   24.0562 C   0  0  0  0  0  0
  -25.9032  -34.9484   23.5136 C   0  0  0  0  0  0
  -16.5338  -29.9090   23.6323 C   0  0  0  0  0  0
  -16.7253  -28.6502   23.0355 C   0  0  0  0  0  0
  -26.4456  -31.6602   25.0718 C   0  0  0  0  0  0
  -25.3733  -31.3682   26.1469 C   0  0  0  0  0  0
  -27.0292  -30.3059   24.6065 C   0  0  0  0  0  0
  -27.6034  -32.4314   25.7486 C   0  0  0  0  0  0
  -27.5583  -37.1816   24.8464 C   0  0  0  0  0  0
  -21.4114  -29.3029   22.3750 N   0  0  0  0  0  0
  -26.4298  -37.3803   23.9407 N   0  0  0  0  0  0
  -24.6607  -31.0831   22.0989 N   0  0  0  0  0  0
  -23.4169  -28.8213   23.3042 O   0  0  0  0  0  0
  -28.4388  -26.7974   20.0759 O   0  0  0  0  0  0
  -26.5598  -34.8931   22.4699 O   0  0  0  0  0  0
  -23.5309  -32.1429   23.7535 O   0  0  0  0  0  0
  -30.8408  -18.7874   20.5776 C   0  0  0  0  0  0
  -29.6311  -18.9084   19.9254 C   0  0  0  0  0  0
  -30.0401  -16.6957   20.9017 C   0  0  0  0  0  0
  -29.4555  -22.2706   18.2274 C   0  0  0  0  0  0
  -28.8121  -24.5821   19.1316 C   0  0  0  0  0  0
  -30.0252  -20.8624   18.4897 C   0  0  0  0  0  0
  -28.4327  -25.4042   20.3754 C   0  0  0  0  0  0
  -29.3688  -23.1829   19.4700 C   0  0  2  0  0  0
  -31.0639  -17.5223   21.1360 N   0  0  0  0  0  0
  -29.1055  -19.9936   19.2199 N   0  0  0  0  0  0
  -30.0535  -15.3437   21.2964 N   0  0  0  0  0  0
  -30.6654  -23.3411   20.0305 O   0  0  0  0  0  0
  -28.6933  -17.4403   20.0518 S   0  0  0  0  0  0
  -31.4669  -12.3745   19.1100 H   0  0  0  0  0  0
  -30.3160  -11.2583   19.7845 H   0  0  0  0  0  0
  -29.7253  -11.7994   17.4069 H   0  0  0  0  0  0
  -29.6702  -13.5029   17.7848 H   0  0  0  0  0  0
  -27.8140  -11.3179   18.7906 H   0  0  0  0  0  0
  -27.3654  -12.6695   17.7847 H   0  0  0  0  0  0
  -27.7234  -14.2514   19.6047 H   0  0  0  0  0  0
  -28.6665  -11.8932   21.3064 H   0  0  0  0  0  0
  -28.4604  -13.5072   21.8956 H   0  0  0  0  0  0
  -25.2751   -9.5692   22.4755 H   0  0  0  0  0  0
  -23.9997   -7.4641   22.7479 H   0  0  0  0  0  0
  -21.0838   -8.8763   19.8948 H   0  0  0  0  0  0
  -22.3682  -10.9670   19.6156 H   0  0  0  0  0  0
  -21.2004   -7.6146   23.9714 H   0  0  0  0  0  0
  -21.1482   -6.0523   25.9078 H   0  0  0  0  0  0
  -22.0599   -2.7609   23.2844 H   0  0  0  0  0  0
  -22.4114  -11.9892   22.4754 H   0  0  0  0  0  0
  -21.1132  -13.1280   22.2590 H   0  0  0  0  0  0
  -24.6692  -15.8420   20.5097 H   0  0  0  0  0  0
  -26.2848  -15.6210   20.0691 H   0  0  0  0  0  0
  -26.7085  -32.5563   23.1177 H   0  0  0  0  0  0
  -25.0033  -33.9800   25.0481 H   0  0  0  0  0  0
  -22.6837  -31.3070   21.4110 H   0  0  0  0  0  0
  -23.3746  -35.9658   23.3309 H   0  0  0  0  0  0
  -24.3582  -36.8933   22.2052 H   0  0  0  0  0  0
  -23.7237  -37.6531   23.6650 H   0  0  0  0  0  0
  -26.0253  -31.6132   20.5880 H   0  0  0  0  0  0
  -26.8113  -30.9037   21.9707 H   0  0  0  0  0  0
  -28.0985  -29.1529   21.1308 H   0  0  0  0  0  0
  -26.0786  -25.9709   19.0336 H   0  0  0  0  0  0
  -23.9793  -27.2723   19.0626 H   0  0  0  0  0  0
  -23.7064  -30.5901   19.4031 H   0  0  0  0  0  0
  -22.7281  -29.2336   19.8761 H   0  0  0  0  0  0
  -25.1281  -36.1998   25.0832 H   0  0  0  0  0  0
  -20.9940  -28.3215   24.1454 H   0  0  0  0  0  0
  -20.5668  -26.2259   23.3596 H   0  0  0  0  0  0
  -21.6627  -26.7453   22.1206 H   0  0  0  0  0  0
  -19.6903  -25.6300   21.1232 H   0  0  0  0  0  0
  -19.6681  -27.3202   20.6749 H   0  0  0  0  0  0
  -17.4186  -26.6684   21.4016 H   0  0  0  0  0  0
  -18.0304  -26.0056   22.9005 H   0  0  0  0  0  0
  -19.7918  -30.7248   24.2299 H   0  0  0  0  0  0
  -17.5005  -31.6274   24.5150 H   0  0  0  0  0  0
  -15.5343  -30.3005   23.7629 H   0  0  0  0  0  0
  -15.8649  -28.0829   22.7068 H   0  0  0  0  0  0
  -24.5900  -30.7044   25.7794 H   0  0  0  0  0  0
  -24.8932  -32.2827   26.4957 H   0  0  0  0  0  0
  -25.8093  -30.8814   27.0201 H   0  0  0  0  0  0
  -26.2831  -29.6826   24.1125 H   0  0  0  0  0  0
  -27.4086  -29.7287   25.4507 H   0  0  0  0  0  0
  -27.8647  -30.4400   23.9193 H   0  0  0  0  0  0
  -27.2655  -33.3596   26.2106 H   0  0  0  0  0  0
  -28.3825  -32.6900   25.0304 H   0  0  0  0  0  0
  -28.0722  -31.8410   26.5369 H   0  0  0  0  0  0
  -28.2596  -38.0117   24.7522 H   0  0  0  0  0  0
  -28.1080  -36.2648   24.6279 H   0  0  0  0  0  0
  -27.2300  -37.1459   25.8866 H   0  0  0  0  0  0
  -20.9265  -29.8760   21.6988 H   0  0  0  0  0  0
  -26.0191  -38.2883   24.1408 H   0  0  0  0  0  0
  -31.6101  -19.5398   20.6804 H   0  0  0  0  0  0
  -28.4698  -22.1819   17.7676 H   0  0  0  0  0  0
  -30.0796  -22.7576   17.4760 H   0  0  0  0  0  0
  -29.5431  -25.1301   18.5353 H   0  0  0  0  0  0
  -27.9283  -24.4867   18.4999 H   0  0  0  0  0  0
  -30.9836  -20.9485   19.0025 H   0  0  0  0  0  0
  -30.2415  -20.3874   17.5311 H   0  0  0  0  0  0
  -29.1815  -25.2610   21.1547 H   0  0  0  0  0  0
  -27.4915  -25.0564   20.8050 H   0  0  0  0  0  0
  -28.7213  -22.7064   20.2086 H   0  0  0  0  0  0
  -28.2063  -19.8376   18.7687 H   0  0  0  0  0  0
  -29.1849  -15.0033   21.6763 H   0  0  0  0  0  0
  -31.2265  -23.7490   19.3780 H   0  0  0  0  0  0
  1 25  1  0  0  0
  1 30  2  0  0  0
  1 81  1  0  0  0
  2  3  1  0  0  0
  2 25  1  0  0  0
  2 84  1  0  0  0
  2 85  1  0  0  0
  3  4  1  0  0  0
  3 86  1  0  0  0
  3 87  1  0  0  0
  4  5  1  0  0  0
  4 88  1  0  0  0
  4 89  1  0  0  0
  5  6  1  0  0  0
  5 26  1  0  0  0
  5 90  1  0  0  0
  6 25  1  0  0  0
  6 91  1  0  0  0
  6 92  1  0  0  0
  7  8  2  0  0  0
  7 26  1  0  0  0
  7 29  1  0  0  0
  8  9  1  0  0  0
  8 22  1  0  0  0
  9 10  1  0  0  0
  9 27  2  0  0  0
 10 11  2  0  0  0
 10 15  1  0  0  0
 11 12  1  0  0  0
 11 93  1  0  0  0
 12 13  2  0  0  0
 12 94  1  0  0  0
 13 14  1  0  0  0
 13 31  1  0  0  0
 14 15  2  0  0  0
 14 95  1  0  0  0
 15 96  1  0  0  0
 16 17  2  0  0  0
 16 21  1  0  0  0
 16 31  1  0  0  0
 17 18  1  0  0  0
 17 97  1  0  0  0
 18 19  2  0  0  0
 18 98  1  0  0  0
 19 20  1  0  0  0
 19 24  1  0  0  0
 20 21  2  0  0  0
 20 99  1  0  0  0
 21 23  1  0  0  0
 22 28  1  0  0  0
 22 32  2  0  0  0
 26 27  1  0  0  0
 28100  1  0  0  0
 28101  1  0  0  0
 29102  1  0  0  0
 29103  1  0  0  0
 33 34  1  0  0  0
 33 66  1  0  0  0
 33 70  2  0  0  0
 34 36  1  0  0  0
 34 59  1  0  0  0
 34104  1  0  0  0
 35 44  2  0  0  0
 35 45  1  0  0  0
 35 68  1  0  0  0
 36 56  1  0  0  0
 36105  1  0  0  0
 37 39  1  0  0  0
 37 47  1  0  0  0
 37 66  1  0  0  0
 37106  1  0  0  0
 38 43  2  0  0  0
 38 46  1  0  0  0
 38 47  1  0  0  0
 39 64  1  0  0  0
 39 67  2  0  0  0
 40 52  1  0  0  0
 40 53  2  0  0  0
 40 58  1  0  0  0
 41107  1  0  0  0
 41108  1  0  0  0
 41109  1  0  0  0
 41 48  1  0  0  0
 42 43  1  0  0  0
 42 66  1  0  0  0
 42110  1  0  0  0
 42111  1  0  0  0
 43 44  1  0  0  0
 44112  1  0  0  0
 45 46  2  0  0  0
 45113  1  0  0  0
 46114  1  0  0  0
 47115  1  0  0  0
 47116  1  0  0  0
 48 56  1  0  0  0
 48 65  1  0  0  0
 48117  1  0  0  0
 49 50  1  0  0  0
 49 53  1  0  0  0
 49 64  1  0  0  0
 49118  1  0  0  0
 50 51  1  0  0  0
 50119  1  0  0  0
 50120  1  0  0  0
 51 52  1  0  0  0
 51121  1  0  0  0
 51122  1  0  0  0
 52123  1  0  0  0
 52124  1  0  0  0
 53 54  1  0  0  0
 54 55  2  0  0  0
 54125  1  0  0  0
 55 57  1  0  0  0
 55126  1  0  0  0
 56 69  2  0  0  0
 57 58  2  0  0  0
 57127  1  0  0  0
 58128  1  0  0  0
 59 60  1  0  0  0
 59 61  1  0  0  0
 59 62  1  0  0  0
 60129  1  0  0  0
 60130  1  0  0  0
 60131  1  0  0  0
 61132  1  0  0  0
 61133  1  0  0  0
 61134  1  0  0  0
 62135  1  0  0  0
 62136  1  0  0  0
 62137  1  0  0  0
 63 65  1  0  0  0
 63138  1  0  0  0
 63139  1  0  0  0
 63140  1  0  0  0
 64141  1  0  0  0
 65142  1  0  0  0
 68 77  1  0  0  0
 71 72  2  0  0  0
 71 79  1  0  0  0
 71143  1  0  0  0
 72 80  1  0  0  0
 72 83  1  0  0  0
 73 79  2  0  0  0
 73 81  1  0  0  0
 73 83  1  0  0  0
 74 76  1  0  0  0
 74 78  1  0  0  0
 74144  1  0  0  0
 74145  1  0  0  0
 75 77  1  0  0  0
 75 78  1  0  0  0
 75146  1  0  0  0
 75147  1  0  0  0
 76 80  1  0  0  0
 76148  1  0  0  0
 76149  1  0  0  0
 77150  1  0  0  0
 77151  1  0  0  0
 78 82  1  0  0  0
 78152  1  0  0  0
 80153  1  0  0  0
 81154  1  0  0  0
 82155  1  0  0  0
M  ISO  4   1 100  68 101  77 101  81 100
M  END
> <chiral flag>
0

> <version>
0

> <s_m_source_file>
/data/baiqing/PycharmProjects/Reinvent-master-3.2/result/LINK_invent/BTK/process_docking_weight1_custom_product_contain_oxygen_bond_distance_aromatic_linkinvent_7_9_3/rearranged_h_0199.sdf

> <i_m_source_file_index>
27

> <r_mmod_Potential_Energy-OPLS-2005>
-23.943754196167

> <r_mmod_Stretch_Energy-OPLS-2005>
30.9375114440918

> <r_mmod_Bend_Energy-OPLS-2005>
92.1045913696289

> <r_mmod_Torsional_Energy-OPLS-2005>
253.629180908203

> <r_mmod_Improper_Torsional_Energy-OPLS-2005>
8.46860504150391

> <r_mmod_Van_der_Waal_Energy-OPLS-2005>
127.418823242188

> <r_mmod_Electrostatic_Energy-OPLS-2005>
-289.708312988281

> <r_mmod_Solvation_Energy-OPLS-2005>
-255.143493652344

> <b_mmod_Minimization_Converged-OPLS-2005>
0

> <r_mmod_RMS_Derivative-OPLS-2005>
0.487188041210175

$$$$
27
                    3D
 Structure written by MMmdl.
150158  0  0  1  0            999 V2000
  -30.6139  -14.7288   20.4616 C   0  0  0  0  0  0
  -30.4353  -12.4411   19.4790 C   0  0  0  0  0  0
  -29.5159  -12.5133   18.2394 C   0  0  0  0  0  0
  -28.0398  -12.3417   18.6470 C   0  0  0  0  0  0
  -27.6486  -13.2314   19.8576 C   0  0  2  0  0  0
  -28.6914  -13.1468   20.9954 C   0  0  0  0  0  0
  -25.2536  -13.8197   20.5697 C   0  0  0  0  0  0
  -24.1819  -13.0443   20.9197 C   0  0  0  0  0  0
  -24.6401  -11.6915   20.8733 C   0  0  0  0  0  0
  -23.9068  -10.4291   21.0397 C   0  0  0  0  0  0
  -24.3612   -9.4209   21.9181 C   0  0  0  0  0  0
  -23.6284   -8.2248   22.0756 C   0  0  0  0  0  0
  -22.4269   -8.0281   21.3546 C   0  0  0  0  0  0
  -21.9902   -9.0252   20.4651 C   0  0  0  0  0  0
  -22.7233  -10.2131   20.3052 C   0  0  0  0  0  0
  -21.6856   -6.0732   22.5279 C   0  0  0  0  0  0
  -21.4019   -6.5638   23.8214 C   0  0  0  0  0  0
  -21.3660   -5.6790   24.9176 C   0  0  0  0  0  0
  -21.6042   -4.3051   24.7226 C   0  0  0  0  0  0
  -21.8818   -3.8143   23.4349 C   0  0  0  0  0  0
  -21.9197   -4.6961   22.3405 C   0  0  0  0  0  0
  -22.7839  -13.5231   21.1857 C   0  0  0  0  0  0
  -22.1663   -4.2144   21.0983 F   0  0  0  0  0  0
  -21.5621   -3.4533   25.7739 F   0  0  0  0  0  0
  -29.9996  -13.4959   20.4248 N   0  0  0  0  0  0
  -26.2973  -12.9403   20.3298 N   0  0  0  0  0  0
  -25.9338  -11.6544   20.5743 N   0  0  0  0  0  0
  -22.0470  -12.8227   22.0409 N   0  0  0  0  0  0
  -25.4229  -15.1923   20.4130 N   0  0  0  0  0  0
  -31.7846  -14.8370   20.0832 O   0  0  0  0  0  0
  -21.6634   -6.8877   21.4242 O   0  0  0  0  0  0
  -22.3534  -14.5541   20.6708 O   0  0  0  0  0  0
  -24.6321  -31.8553   23.1998 C   0  0  0  0  0  0
  -25.9150  -32.4750   23.8337 C   0  0  1  0  0  0
  -27.2150  -27.2558   20.1265 C   0  0  0  0  0  0
  -25.5951  -33.8551   24.2262 N   0  0  0  0  0  0
  -23.4285  -30.4801   21.5429 C   0  0  2  0  0  0
  -24.8748  -28.9312   20.1069 C   0  0  0  0  0  0
  -22.7503  -29.4605   22.4905 C   0  0  0  0  0  0
  -18.0290  -28.1389   22.8483 C   0  0  0  0  0  0
  -24.1494  -36.7279   23.2641 C   0  0  0  0  0  0
  -25.9760  -30.7644   21.3838 C   0  0  0  0  0  0
  -26.0459  -29.3878   20.7239 C   0  0  0  0  0  0
  -27.2160  -28.5611   20.7277 C   0  0  0  0  0  0
  -26.0266  -26.8857   19.4532 C   0  0  0  0  0  0
  -24.8710  -27.6881   19.4603 C   0  0  0  0  0  0
  -23.6465  -29.8184   20.1575 C   0  0  0  0  0  0
  -25.4121  -36.3064   24.0328 C   0  0  1  0  0  0
  -20.5894  -28.3703   23.1260 C   0  0  2  0  0  0
  -20.6780  -26.9421   22.5401 C   0  0  0  0  0  0
  -19.5757  -26.6385   21.5204 C   0  0  0  0  0  0
  -18.1935  -26.7933   22.1617 C   0  0  0  0  0  0
  -19.1543  -28.8862   23.2869 C   0  0  0  0  0  0
  -18.9466  -30.1461   23.8889 C   0  0  0  0  0  0
  -17.6468  -30.6593   24.0553 C   0  0  0  0  0  0
  -25.9061  -34.9432   23.5095 C   0  0  0  0  0  0
  -16.5357  -29.9087   23.6331 C   0  0  0  0  0  0
  -16.7274  -28.6502   23.0357 C   0  0  0  0  0  0
  -26.4515  -31.6576   25.0730 C   0  0  0  0  0  0
  -25.3736  -31.3727   26.1450 C   0  0  0  0  0  0
  -27.0369  -30.2987   24.6237 C   0  0  0  0  0  0
  -27.6071  -32.4317   25.7504 C   0  0  0  0  0  0
  -27.5579  -37.1800   24.8468 C   0  0  0  0  0  0
  -21.4209  -29.3052   22.3650 N   0  0  0  0  0  0
  -26.4294  -37.3763   23.9404 N   0  0  0  0  0  0
  -24.6979  -31.0514   22.0980 N   0  0  0  0  0  0
  -23.4201  -28.8145   23.3005 O   0  0  0  0  0  0
  -28.2996  -26.3460   20.2155 O   0  0  0  0  0  0
  -26.5625  -34.8912   22.4659 O   0  0  0  0  0  0
  -23.5471  -32.1379   23.7290 O   0  0  0  0  0  0
  -29.4140  -18.3587   21.0025 C   0  0  0  0  0  0
  -30.3911  -19.4047   19.1828 C   0  0  0  0  0  0
  -29.6477  -19.6411   20.3084 C   0  0  0  0  0  0
  -29.9713  -17.1940   20.4302 C   0  0  0  0  0  0
  -28.8903  -22.1980   19.9182 C   0  0  0  0  0  0
  -28.0808  -24.8805   19.9233 C   0  0  0  0  0  0
  -28.9106  -23.6655   20.6177 C   0  0  1  0  0  0
  -29.1997  -20.9657   20.7507 N   0  0  0  0  0  0
  -29.8584  -15.8406   20.8067 N   0  0  0  0  0  0
  -28.3561  -23.4495   21.9076 O   0  0  0  0  0  0
  -30.8260  -17.7101   18.9853 S   0  0  0  0  0  0
  -31.4785  -12.5556   19.1804 H   0  0  0  0  0  0
  -30.3689  -11.4588   19.9495 H   0  0  0  0  0  0
  -29.7964  -11.7468   17.5156 H   0  0  0  0  0  0
  -29.6506  -13.4725   17.7369 H   0  0  0  0  0  0
  -27.8874  -11.2908   18.8960 H   0  0  0  0  0  0
  -27.3868  -12.5504   17.7986 H   0  0  0  0  0  0
  -27.6510  -14.2582   19.4900 H   0  0  0  0  0  0
  -28.7198  -12.1439   21.4242 H   0  0  0  0  0  0
  -28.4259  -13.8172   21.8139 H   0  0  0  0  0  0
  -25.2759   -9.5685   22.4754 H   0  0  0  0  0  0
  -23.9984   -7.4634   22.7475 H   0  0  0  0  0  0
  -21.0833   -8.8773   19.8958 H   0  0  0  0  0  0
  -22.3690  -10.9663   19.6155 H   0  0  0  0  0  0
  -21.2017   -7.6147   23.9719 H   0  0  0  0  0  0
  -21.1483   -6.0519   25.9079 H   0  0  0  0  0  0
  -22.0601   -2.7606   23.2847 H   0  0  0  0  0  0
  -22.4061  -11.9887   22.4813 H   0  0  0  0  0  0
  -21.1095  -13.1283   22.2607 H   0  0  0  0  0  0
  -24.6551  -15.8462   20.5256 H   0  0  0  0  0  0
  -26.2720  -15.6336   20.0821 H   0  0  0  0  0  0
  -26.7215  -32.5394   23.1075 H   0  0  0  0  0  0
  -25.0116  -33.9688   25.0422 H   0  0  0  0  0  0
  -22.7249  -31.3026   21.3988 H   0  0  0  0  0  0
  -23.3753  -35.9615   23.3306 H   0  0  0  0  0  0
  -24.3582  -36.8895   22.2053 H   0  0  0  0  0  0
  -23.7254  -37.6489   23.6657 H   0  0  0  0  0  0
  -26.1196  -31.5252   20.6156 H   0  0  0  0  0  0
  -26.8516  -30.8092   22.0197 H   0  0  0  0  0  0
  -28.1070  -28.9010   21.2367 H   0  0  0  0  0  0
  -25.9496  -25.9532   18.9161 H   0  0  0  0  0  0
  -23.9800  -27.3391   18.9565 H   0  0  0  0  0  0
  -23.7722  -30.5964   19.4035 H   0  0  0  0  0  0
  -22.7644  -29.2534   19.8508 H   0  0  0  0  0  0
  -25.1303  -36.1910   25.0820 H   0  0  0  0  0  0
  -20.9985  -28.3285   24.1380 H   0  0  0  0  0  0
  -20.5682  -26.2317   23.3608 H   0  0  0  0  0  0
  -21.6649  -26.7449   22.1198 H   0  0  0  0  0  0
  -19.6924  -25.6290   21.1249 H   0  0  0  0  0  0
  -19.6699  -27.3181   20.6722 H   0  0  0  0  0  0
  -17.4208  -26.6672   21.4016 H   0  0  0  0  0  0
  -18.0344  -26.0075   22.9016 H   0  0  0  0  0  0
  -19.7942  -30.7272   24.2264 H   0  0  0  0  0  0
  -17.5022  -31.6274   24.5155 H   0  0  0  0  0  0
  -15.5359  -30.2986   23.7664 H   0  0  0  0  0  0
  -15.8671  -28.0812   22.7087 H   0  0  0  0  0  0
  -24.5918  -30.7069   25.7774 H   0  0  0  0  0  0
  -24.8923  -32.2894   26.4862 H   0  0  0  0  0  0
  -25.8054  -30.8912   27.0232 H   0  0  0  0  0  0
  -26.2959  -29.6722   24.1258 H   0  0  0  0  0  0
  -27.4033  -29.7265   25.4773 H   0  0  0  0  0  0
  -27.8846  -30.4250   23.9499 H   0  0  0  0  0  0
  -27.2682  -33.3624   26.2066 H   0  0  0  0  0  0
  -28.3890  -32.6863   25.0337 H   0  0  0  0  0  0
  -28.0730  -31.8450   26.5434 H   0  0  0  0  0  0
  -28.2602  -38.0091   24.7497 H   0  0  0  0  0  0
  -28.1068  -36.2619   24.6314 H   0  0  0  0  0  0
  -27.2292  -37.1474   25.8871 H   0  0  0  0  0  0
  -20.9396  -29.8775   21.6853 H   0  0  0  0  0  0
  -26.0171  -38.2840   24.1386 H   0  0  0  0  0  0
  -28.8293  -18.3349   21.9110 H   0  0  0  0  0  0
  -30.7466  -20.1223   18.4546 H   0  0  0  0  0  0
  -29.5570  -22.2194   19.0547 H   0  0  0  0  0  0
  -27.8941  -22.0414   19.5007 H   0  0  0  0  0  0
  -27.0379  -24.6230   20.1019 H   0  0  0  0  0  0
  -28.2206  -24.7848   18.8458 H   0  0  0  0  0  0
  -29.9506  -23.9747   20.7327 H   0  0  0  0  0  0
  -28.8494  -21.0330   21.7047 H   0  0  0  0  0  0
  -29.0040  -15.6066   21.2902 H   0  0  0  0  0  0
  -27.4627  -23.1446   21.7841 H   0  0  0  0  0  0
  1 25  1  0  0  0
  1 30  2  0  0  0
  1 79  1  0  0  0
  2  3  1  0  0  0
  2 25  1  0  0  0
  2 82  1  0  0  0
  2 83  1  0  0  0
  3  4  1  0  0  0
  3 84  1  0  0  0
  3 85  1  0  0  0
  4  5  1  0  0  0
  4 86  1  0  0  0
  4 87  1  0  0  0
  5  6  1  0  0  0
  5 26  1  0  0  0
  5 88  1  0  0  0
  6 25  1  0  0  0
  6 89  1  0  0  0
  6 90  1  0  0  0
  7  8  2  0  0  0
  7 26  1  0  0  0
  7 29  1  0  0  0
  8  9  1  0  0  0
  8 22  1  0  0  0
  9 10  1  0  0  0
  9 27  2  0  0  0
 10 11  2  0  0  0
 10 15  1  0  0  0
 11 12  1  0  0  0
 11 91  1  0  0  0
 12 13  2  0  0  0
 12 92  1  0  0  0
 13 14  1  0  0  0
 13 31  1  0  0  0
 14 15  2  0  0  0
 14 93  1  0  0  0
 15 94  1  0  0  0
 16 17  2  0  0  0
 16 21  1  0  0  0
 16 31  1  0  0  0
 17 18  1  0  0  0
 17 95  1  0  0  0
 18 19  2  0  0  0
 18 96  1  0  0  0
 19 20  1  0  0  0
 19 24  1  0  0  0
 20 21  2  0  0  0
 20 97  1  0  0  0
 21 23  1  0  0  0
 22 28  1  0  0  0
 22 32  2  0  0  0
 26 27  1  0  0  0
 28 98  1  0  0  0
 28 99  1  0  0  0
 29100  1  0  0  0
 29101  1  0  0  0
 33 34  1  0  0  0
 33 66  1  0  0  0
 33 70  2  0  0  0
 34 36  1  0  0  0
 34 59  1  0  0  0
 34102  1  0  0  0
 35 44  2  0  0  0
 35 45  1  0  0  0
 35 68  1  0  0  0
 36 56  1  0  0  0
 36103  1  0  0  0
 37 39  1  0  0  0
 37 47  1  0  0  0
 37 66  1  0  0  0
 37104  1  0  0  0
 38 43  2  0  0  0
 38 46  1  0  0  0
 38 47  1  0  0  0
 39 64  1  0  0  0
 39 67  2  0  0  0
 40 52  1  0  0  0
 40 53  2  0  0  0
 40 58  1  0  0  0
 41105  1  0  0  0
 41106  1  0  0  0
 41107  1  0  0  0
 41 48  1  0  0  0
 42 43  1  0  0  0
 42 66  1  0  0  0
 42108  1  0  0  0
 42109  1  0  0  0
 43 44  1  0  0  0
 44110  1  0  0  0
 45 46  2  0  0  0
 45111  1  0  0  0
 46112  1  0  0  0
 47113  1  0  0  0
 47114  1  0  0  0
 48 56  1  0  0  0
 48 65  1  0  0  0
 48115  1  0  0  0
 49 50  1  0  0  0
 49 53  1  0  0  0
 49 64  1  0  0  0
 49116  1  0  0  0
 50 51  1  0  0  0
 50117  1  0  0  0
 50118  1  0  0  0
 51 52  1  0  0  0
 51119  1  0  0  0
 51120  1  0  0  0
 52121  1  0  0  0
 52122  1  0  0  0
 53 54  1  0  0  0
 54 55  2  0  0  0
 54123  1  0  0  0
 55 57  1  0  0  0
 55124  1  0  0  0
 56 69  2  0  0  0
 57 58  2  0  0  0
 57125  1  0  0  0
 58126  1  0  0  0
 59 60  1  0  0  0
 59 61  1  0  0  0
 59 62  1  0  0  0
 60127  1  0  0  0
 60128  1  0  0  0
 60129  1  0  0  0
 61130  1  0  0  0
 61131  1  0  0  0
 61132  1  0  0  0
 62133  1  0  0  0
 62134  1  0  0  0
 62135  1  0  0  0
 63 65  1  0  0  0
 63136  1  0  0  0
 63137  1  0  0  0
 63138  1  0  0  0
 64139  1  0  0  0
 65140  1  0  0  0
 68 76  1  0  0  0
 71 73  1  0  0  0
 71 74  2  0  0  0
 71141  1  0  0  0
 72 73  2  0  0  0
 72 81  1  0  0  0
 72142  1  0  0  0
 73 78  1  0  0  0
 74 79  1  0  0  0
 74 81  1  0  0  0
 75 77  1  0  0  0
 75 78  1  0  0  0
 75143  1  0  0  0
 75144  1  0  0  0
 76 77  1  0  0  0
 76145  1  0  0  0
 76146  1  0  0  0
 77 80  1  0  0  0
 77147  1  0  0  0
 78148  1  0  0  0
 79149  1  0  0  0
 80150  1  0  0  0
M  ISO  4   1 100  68 101  76 101  79 100
M  END
> <chiral flag>
0

> <version>
0

> <s_m_source_file>
/data/baiqing/PycharmProjects/Reinvent-master-3.2/result/LINK_invent/BTK/process_docking_weight1_custom_product_contain_oxygen_bond_distance_aromatic_linkinvent_7_9_3/rearranged_h_0199.sdf

> <i_m_source_file_index>
28

> <r_mmod_Potential_Energy-OPLS-2005>
95.9761810302734

> <r_mmod_Stretch_Energy-OPLS-2005>
117.480445861816

> <r_mmod_Bend_Energy-OPLS-2005>
164.504425048828

> <r_mmod_Torsional_Energy-OPLS-2005>
249.887405395508

> <r_mmod_Improper_Torsional_Energy-OPLS-2005>
3.96060800552368

> <r_mmod_Van_der_Waal_Energy-OPLS-2005>
125.272735595703

> <r_mmod_Electrostatic_Energy-OPLS-2005>
-395.437042236328

> <r_mmod_Solvation_Energy-OPLS-2005>
-253.791137695312

> <b_mmod_Minimization_Converged-OPLS-2005>
0

> <r_mmod_RMS_Derivative-OPLS-2005>
0.852675139904022

$$$$
28
                    3D
 Structure written by MMmdl.
163171  0  0  1  0            999 V2000
  -30.6866  -14.4840   20.5702 C   0  0  0  0  0  0
  -30.4279  -12.3119   19.4226 C   0  0  0  0  0  0
  -29.4972  -12.5090   18.2070 C   0  0  0  0  0  0
  -28.0178  -12.3663   18.6177 C   0  0  0  0  0  0
  -27.6622  -13.2043   19.8747 C   0  0  2  0  0  0
  -28.7034  -12.9783   20.9947 C   0  0  0  0  0  0
  -25.2592  -13.8153   20.5673 C   0  0  0  0  0  0
  -24.1841  -13.0434   20.9179 C   0  0  0  0  0  0
  -24.6391  -11.6900   20.8732 C   0  0  0  0  0  0
  -23.9056  -10.4289   21.0400 C   0  0  0  0  0  0
  -24.3611   -9.4209   21.9182 C   0  0  0  0  0  0
  -23.6289   -8.2243   22.0753 C   0  0  0  0  0  0
  -22.4271   -8.0278   21.3545 C   0  0  0  0  0  0
  -21.9905   -9.0248   20.4646 C   0  0  0  0  0  0
  -22.7230  -10.2128   20.3050 C   0  0  0  0  0  0
  -21.6852   -6.0735   22.5281 C   0  0  0  0  0  0
  -21.4010   -6.5640   23.8214 C   0  0  0  0  0  0
  -21.3659   -5.6793   24.9177 C   0  0  0  0  0  0
  -21.6045   -4.3054   24.7227 C   0  0  0  0  0  0
  -21.8819   -3.8147   23.4347 C   0  0  0  0  0  0
  -21.9192   -4.6963   22.3404 C   0  0  0  0  0  0
  -22.7865  -13.5238   21.1839 C   0  0  0  0  0  0
  -22.1662   -4.2150   21.0981 F   0  0  0  0  0  0
  -21.5630   -3.4537   25.7738 F   0  0  0  0  0  0
  -30.0363  -13.2922   20.4484 N   0  0  0  0  0  0
  -26.3024  -12.9317   20.3351 N   0  0  0  0  0  0
  -25.9317  -11.6482   20.5756 N   0  0  0  0  0  0
  -22.0499  -12.8231   22.0391 N   0  0  0  0  0  0
  -25.4327  -15.1870   20.4082 N   0  0  0  0  0  0
  -31.8146  -14.6680   20.1018 O   0  0  0  0  0  0
  -21.6637   -6.8874   21.4240 O   0  0  0  0  0  0
  -22.3560  -14.5557   20.6702 O   0  0  0  0  0  0
  -24.6147  -31.8673   23.2093 C   0  0  0  0  0  0
  -25.9039  -32.4822   23.8389 C   0  0  1  0  0  0
  -27.2328  -27.4320   20.1024 C   0  0  0  0  0  0
  -25.5898  -33.8620   24.2326 N   0  0  0  0  0  0
  -23.4030  -30.4905   21.5500 C   0  0  2  0  0  0
  -24.8511  -28.9557   20.1146 C   0  0  0  0  0  0
  -22.7410  -29.4655   22.4989 C   0  0  0  0  0  0
  -18.0270  -28.1372   22.8497 C   0  0  0  0  0  0
  -24.1484  -36.7312   23.2635 C   0  0  0  0  0  0
  -25.9317  -30.8336   21.3615 C   0  0  0  0  0  0
  -26.0116  -29.4672   20.7104 C   0  0  0  0  0  0
  -27.2092  -28.7139   20.6987 C   0  0  0  0  0  0
  -26.0596  -26.9377   19.4955 C   0  0  0  0  0  0
  -24.8700  -27.6900   19.5027 C   0  0  0  0  0  0
  -23.6116  -29.8211   20.1653 C   0  0  0  0  0  0
  -25.4104  -36.3112   24.0340 C   0  0  1  0  0  0
  -20.5862  -28.3658   23.1323 C   0  0  2  0  0  0
  -20.6762  -26.9395   22.5418 C   0  0  0  0  0  0
  -19.5742  -26.6381   21.5213 C   0  0  0  0  0  0
  -18.1918  -26.7922   22.1620 C   0  0  0  0  0  0
  -19.1518  -28.8832   23.2907 C   0  0  0  0  0  0
  -18.9448  -30.1441   23.8912 C   0  0  0  0  0  0
  -17.6451  -30.6583   24.0562 C   0  0  0  0  0  0
  -25.9034  -34.9478   23.5130 C   0  0  0  0  0  0
  -16.5340  -29.9082   23.6329 C   0  0  0  0  0  0
  -16.7261  -28.6498   23.0351 C   0  0  0  0  0  0
  -26.4469  -31.6597   25.0713 C   0  0  0  0  0  0
  -25.3743  -31.3696   26.1467 C   0  0  0  0  0  0
  -27.0296  -30.3044   24.6073 C   0  0  0  0  0  0
  -27.6047  -32.4311   25.7483 C   0  0  0  0  0  0
  -27.5586  -37.1801   24.8456 C   0  0  0  0  0  0
  -21.4137  -29.3027   22.3733 N   0  0  0  0  0  0
  -26.4284  -37.3802   23.9420 N   0  0  0  0  0  0
  -24.6683  -31.0778   22.0993 N   0  0  0  0  0  0
  -23.4185  -28.8193   23.3026 O   0  0  0  0  0  0
  -28.3771  -26.6645   20.0961 O   0  0  0  0  0  0
  -26.5592  -34.8931   22.4689 O   0  0  0  0  0  0
  -23.5341  -32.1423   23.7492 O   0  0  0  0  0  0
  -30.0884  -16.8839   21.0425 C   0  0  0  0  0  0
  -29.8608  -19.2991   21.0651 C   0  0  0  0  0  0
  -33.2233  -22.9942   20.9469 C   0  0  0  0  0  0
  -33.3830  -22.7672   23.4519 C   0  0  0  0  0  0
  -31.3498  -21.8493   22.2616 C   0  0  0  0  0  0
  -29.2329  -23.1306   21.4327 C   0  0  0  0  0  0
  -28.2966  -25.4883   20.9240 C   0  0  0  0  0  0
  -32.4265  -22.9527   22.2625 C   0  0  0  0  0  0
  -30.2126  -21.9227   21.1996 C   0  0  2  0  0  0
  -29.3455  -24.4118   20.5353 C   0  0  1  0  0  0
  -31.1689  -17.5080   20.5410 N   0  0  0  0  0  0
  -31.0353  -18.8988   20.5556 N   0  0  0  0  0  0
  -29.9547  -15.4633   21.1402 N   0  0  0  0  0  0
  -29.4922  -20.6395   21.2463 N   0  0  0  0  0  0
  -30.5952  -25.0527   20.6845 O   0  0  0  0  0  0
  -28.8020  -17.9779   21.5655 S   0  0  0  0  0  0
  -31.4721  -12.4148   19.1219 H   0  0  0  0  0  0
  -30.3330  -11.2992   19.8177 H   0  0  0  0  0  0
  -29.7394  -11.7864   17.4267 H   0  0  0  0  0  0
  -29.6623  -13.4955   17.7708 H   0  0  0  0  0  0
  -27.8289  -11.3101   18.8125 H   0  0  0  0  0  0
  -27.3677  -12.6406   17.7863 H   0  0  0  0  0  0
  -27.7068  -14.2525   19.5791 H   0  0  0  0  0  0
  -28.6814  -11.9383   21.3237 H   0  0  0  0  0  0
  -28.4597  -13.5637   21.8823 H   0  0  0  0  0  0
  -25.2756   -9.5689   22.4756 H   0  0  0  0  0  0
  -24.0005   -7.4632   22.7471 H   0  0  0  0  0  0
  -21.0839   -8.8759   19.8950 H   0  0  0  0  0  0
  -22.3690  -10.9662   19.6155 H   0  0  0  0  0  0
  -21.1997   -7.6146   23.9718 H   0  0  0  0  0  0
  -21.1484   -6.0522   25.9080 H   0  0  0  0  0  0
  -22.0598   -2.7608   23.2844 H   0  0  0  0  0  0
  -22.4093  -11.9874   22.4764 H   0  0  0  0  0  0
  -21.1120  -13.1264   22.2596 H   0  0  0  0  0  0
  -24.6625  -15.8397   20.5053 H   0  0  0  0  0  0
  -26.2780  -15.6230   20.0624 H   0  0  0  0  0  0
  -26.7110  -32.5540   23.1156 H   0  0  0  0  0  0
  -25.0068  -33.9780   25.0485 H   0  0  0  0  0  0
  -22.6923  -31.3075   21.4100 H   0  0  0  0  0  0
  -23.3759  -35.9629   23.3275 H   0  0  0  0  0  0
  -24.3592  -36.8949   22.2055 H   0  0  0  0  0  0
  -23.7217  -37.6501   23.6661 H   0  0  0  0  0  0
  -26.0405  -31.5989   20.5915 H   0  0  0  0  0  0
  -26.8208  -30.8901   21.9776 H   0  0  0  0  0  0
  -28.1063  -29.1042   21.1588 H   0  0  0  0  0  0
  -26.0661  -25.9678   19.0181 H   0  0  0  0  0  0
  -23.9791  -27.2918   19.0362 H   0  0  0  0  0  0
  -23.7164  -30.5948   19.4040 H   0  0  0  0  0  0
  -22.7367  -29.2381   19.8719 H   0  0  0  0  0  0
  -25.1277  -36.1971   25.0832 H   0  0  0  0  0  0
  -20.9955  -28.3211   24.1441 H   0  0  0  0  0  0
  -20.5663  -26.2259   23.3598 H   0  0  0  0  0  0
  -21.6631  -26.7437   22.1203 H   0  0  0  0  0  0
  -19.6899  -25.6297   21.1225 H   0  0  0  0  0  0
  -19.6687  -27.3208   20.6756 H   0  0  0  0  0  0
  -17.4194  -26.6688   21.4012 H   0  0  0  0  0  0
  -18.0306  -26.0052   22.9000 H   0  0  0  0  0  0
  -19.7927  -30.7253   24.2279 H   0  0  0  0  0  0
  -17.5008  -31.6269   24.5152 H   0  0  0  0  0  0
  -15.5340  -30.2987   23.7648 H   0  0  0  0  0  0
  -15.8660  -28.0821   22.7054 H   0  0  0  0  0  0
  -24.5914  -30.7046   25.7803 H   0  0  0  0  0  0
  -24.8937  -32.2848   26.4935 H   0  0  0  0  0  0
  -25.8104  -30.8851   27.0211 H   0  0  0  0  0  0
  -26.2831  -29.6813   24.1133 H   0  0  0  0  0  0
  -27.4083  -29.7270   25.4516 H   0  0  0  0  0  0
  -27.8659  -30.4372   23.9206 H   0  0  0  0  0  0
  -27.2670  -33.3609   26.2075 H   0  0  0  0  0  0
  -28.3859  -32.6870   25.0312 H   0  0  0  0  0  0
  -28.0709  -31.8418   26.5391 H   0  0  0  0  0  0
  -28.2571  -38.0131   24.7557 H   0  0  0  0  0  0
  -28.1113  -36.2668   24.6206 H   0  0  0  0  0  0
  -27.2315  -37.1361   25.8857 H   0  0  0  0  0  0
  -20.9287  -29.8765   21.6978 H   0  0  0  0  0  0
  -26.0173  -38.2871   24.1450 H   0  0  0  0  0  0
  -33.9771  -23.7819   20.9690 H   0  0  0  0  0  0
  -32.5786  -23.1957   20.0916 H   0  0  0  0  0  0
  -33.7350  -22.0495   20.7602 H   0  0  0  0  0  0
  -34.1160  -23.5733   23.4995 H   0  0  0  0  0  0
  -33.9294  -21.8257   23.3831 H   0  0  0  0  0  0
  -32.8414  -22.7666   24.3988 H   0  0  0  0  0  0
  -30.8917  -21.8105   23.2515 H   0  0  0  0  0  0
  -31.8813  -20.9029   22.1596 H   0  0  0  0  0  0
  -29.2728  -23.4260   22.4826 H   0  0  0  0  0  0
  -28.2115  -22.7729   21.2949 H   0  0  0  0  0  0
  -28.4313  -25.7884   21.9649 H   0  0  0  0  0  0
  -27.3056  -25.0353   20.8673 H   0  0  0  0  0  0
  -31.9385  -23.9129   22.4148 H   0  0  0  0  0  0
  -30.6423  -22.0016   20.2002 H   0  0  0  0  0  0
  -29.2094  -24.1354   19.4885 H   0  0  0  0  0  0
  -29.0830  -15.1482   21.5326 H   0  0  0  0  0  0
  -28.5436  -20.7207   21.5962 H   0  0  0  0  0  0
  -30.5282  -25.8848   20.2240 H   0  0  0  0  0  0
  1 25  1  0  0  0
  1 30  2  0  0  0
  1 83  1  0  0  0
  2  3  1  0  0  0
  2 25  1  0  0  0
  2 87  1  0  0  0
  2 88  1  0  0  0
  3  4  1  0  0  0
  3 89  1  0  0  0
  3 90  1  0  0  0
  4  5  1  0  0  0
  4 91  1  0  0  0
  4 92  1  0  0  0
  5  6  1  0  0  0
  5 26  1  0  0  0
  5 93  1  0  0  0
  6 25  1  0  0  0
  6 94  1  0  0  0
  6 95  1  0  0  0
  7  8  2  0  0  0
  7 26  1  0  0  0
  7 29  1  0  0  0
  8  9  1  0  0  0
  8 22  1  0  0  0
  9 10  1  0  0  0
  9 27  2  0  0  0
 10 11  2  0  0  0
 10 15  1  0  0  0
 11 12  1  0  0  0
 11 96  1  0  0  0
 12 13  2  0  0  0
 12 97  1  0  0  0
 13 14  1  0  0  0
 13 31  1  0  0  0
 14 15  2  0  0  0
 14 98  1  0  0  0
 15 99  1  0  0  0
 16 17  2  0  0  0
 16 21  1  0  0  0
 16 31  1  0  0  0
 17 18  1  0  0  0
 17100  1  0  0  0
 18 19  2  0  0  0
 18101  1  0  0  0
 19 20  1  0  0  0
 19 24  1  0  0  0
 20 21  2  0  0  0
 20102  1  0  0  0
 21 23  1  0  0  0
 22 28  1  0  0  0
 22 32  2  0  0  0
 26 27  1  0  0  0
 28103  1  0  0  0
 28104  1  0  0  0
 29105  1  0  0  0
 29106  1  0  0  0
 33 34  1  0  0  0
 33 66  1  0  0  0
 33 70  2  0  0  0
 34 36  1  0  0  0
 34 59  1  0  0  0
 34107  1  0  0  0
 35 44  2  0  0  0
 35 45  1  0  0  0
 35 68  1  0  0  0
 36 56  1  0  0  0
 36108  1  0  0  0
 37 39  1  0  0  0
 37 47  1  0  0  0
 37 66  1  0  0  0
 37109  1  0  0  0
 38 43  2  0  0  0
 38 46  1  0  0  0
 38 47  1  0  0  0
 39 64  1  0  0  0
 39 67  2  0  0  0
 40 52  1  0  0  0
 40 53  2  0  0  0
 40 58  1  0  0  0
 41110  1  0  0  0
 41111  1  0  0  0
 41112  1  0  0  0
 41 48  1  0  0  0
 42 43  1  0  0  0
 42 66  1  0  0  0
 42113  1  0  0  0
 42114  1  0  0  0
 43 44  1  0  0  0
 44115  1  0  0  0
 45 46  2  0  0  0
 45116  1  0  0  0
 46117  1  0  0  0
 47118  1  0  0  0
 47119  1  0  0  0
 48 56  1  0  0  0
 48 65  1  0  0  0
 48120  1  0  0  0
 49 50  1  0  0  0
 49 53  1  0  0  0
 49 64  1  0  0  0
 49121  1  0  0  0
 50 51  1  0  0  0
 50122  1  0  0  0
 50123  1  0  0  0
 51 52  1  0  0  0
 51124  1  0  0  0
 51125  1  0  0  0
 52126  1  0  0  0
 52127  1  0  0  0
 53 54  1  0  0  0
 54 55  2  0  0  0
 54128  1  0  0  0
 55 57  1  0  0  0
 55129  1  0  0  0
 56 69  2  0  0  0
 57 58  2  0  0  0
 57130  1  0  0  0
 58131  1  0  0  0
 59 60  1  0  0  0
 59 61  1  0  0  0
 59 62  1  0  0  0
 60132  1  0  0  0
 60133  1  0  0  0
 60134  1  0  0  0
 61135  1  0  0  0
 61136  1  0  0  0
 61137  1  0  0  0
 62138  1  0  0  0
 62139  1  0  0  0
 62140  1  0  0  0
 63 65  1  0  0  0
 63141  1  0  0  0
 63142  1  0  0  0
 63143  1  0  0  0
 64144  1  0  0  0
 65145  1  0  0  0
 68 77  1  0  0  0
 71 81  2  0  0  0
 71 83  1  0  0  0
 71 86  1  0  0  0
 72 82  2  0  0  0
 72 84  1  0  0  0
 72 86  1  0  0  0
 73146  1  0  0  0
 73147  1  0  0  0
 73148  1  0  0  0
 73 78  1  0  0  0
 74 78  1  0  0  0
 74149  1  0  0  0
 74150  1  0  0  0
 74151  1  0  0  0
 75 78  1  0  0  0
 75152  1  0  0  0
 75153  1  0  0  0
 75 79  1  0  0  0
 76 79  1  0  0  0
 76 80  1  0  0  0
 76154  1  0  0  0
 76155  1  0  0  0
 77 80  1  0  0  0
 77156  1  0  0  0
 77157  1  0  0  0
 78158  1  0  0  0
 79 84  1  0  0  0
 79159  1  0  0  0
 80 85  1  0  0  0
 80160  1  0  0  0
 81 82  1  0  0  0
 83161  1  0  0  0
 84162  1  0  0  0
 85163  1  0  0  0
M  ISO  4   1 100  68 101  77 101  83 100
M  END
> <chiral flag>
0

> <version>
0

> <s_m_source_file>
/data/baiqing/PycharmProjects/Reinvent-master-3.2/result/LINK_invent/BTK/process_docking_weight1_custom_product_contain_oxygen_bond_distance_aromatic_linkinvent_7_9_3/rearranged_h_0199.sdf

> <i_m_source_file_index>
29

> <r_mmod_Potential_Energy-OPLS-2005>
-87.6974411010742

> <r_mmod_Stretch_Energy-OPLS-2005>
40.8268852233887

> <r_mmod_Bend_Energy-OPLS-2005>
111.154304504395

> <r_mmod_Torsional_Energy-OPLS-2005>
244.315628051758

> <r_mmod_Improper_Torsional_Energy-OPLS-2005>
3.61766195297241

> <r_mmod_Van_der_Waal_Energy-OPLS-2005>
127.535278320312

> <r_mmod_Electrostatic_Energy-OPLS-2005>
-371.194091796875

> <r_mmod_Solvation_Energy-OPLS-2005>
-257.0771484375

> <b_mmod_Minimization_Converged-OPLS-2005>
0

> <r_mmod_RMS_Derivative-OPLS-2005>
0.647574782371521

$$$$
29
                    3D
 Structure written by MMmdl.
154162  0  0  1  0            999 V2000
  -30.6994  -14.5596   20.4894 C   0  0  0  0  0  0
  -30.4144  -12.3478   19.4411 C   0  0  0  0  0  0
  -29.4926  -12.4859   18.2133 C   0  0  0  0  0  0
  -28.0179  -12.3358   18.6339 C   0  0  0  0  0  0
  -27.6467  -13.2167   19.8564 C   0  0  2  0  0  0
  -28.6950  -13.0935   20.9846 C   0  0  0  0  0  0
  -25.2530  -13.8168   20.5680 C   0  0  0  0  0  0
  -24.1816  -13.0435   20.9231 C   0  0  0  0  0  0
  -24.6383  -11.6905   20.8774 C   0  0  0  0  0  0
  -23.9055  -10.4287   21.0426 C   0  0  0  0  0  0
  -24.3609   -9.4201   21.9197 C   0  0  0  0  0  0
  -23.6287   -8.2236   22.0754 C   0  0  0  0  0  0
  -22.4272   -8.0277   21.3537 C   0  0  0  0  0  0
  -21.9909   -9.0256   20.4643 C   0  0  0  0  0  0
  -22.7235  -10.2138   20.3062 C   0  0  0  0  0  0
  -21.6853   -6.0733   22.5278 C   0  0  0  0  0  0
  -21.4012   -6.5635   23.8211 C   0  0  0  0  0  0
  -21.3655   -5.6793   24.9174 C   0  0  0  0  0  0
  -21.6046   -4.3056   24.7235 C   0  0  0  0  0  0
  -21.8817   -3.8142   23.4355 C   0  0  0  0  0  0
  -21.9188   -4.6958   22.3405 C   0  0  0  0  0  0
  -22.7840  -13.5229   21.1889 C   0  0  0  0  0  0
  -22.1662   -4.2140   21.0989 F   0  0  0  0  0  0
  -21.5628   -3.4541   25.7749 F   0  0  0  0  0  0
  -30.0052  -13.3908   20.3976 N   0  0  0  0  0  0
  -26.2955  -12.9355   20.3312 N   0  0  0  0  0  0
  -25.9308  -11.6509   20.5781 N   0  0  0  0  0  0
  -22.0478  -12.8214   22.0435 N   0  0  0  0  0  0
  -25.4214  -15.1880   20.4013 N   0  0  0  0  0  0
  -31.8958  -14.6233   20.2161 O   0  0  0  0  0  0
  -21.6632   -6.8875   21.4238 O   0  0  0  0  0  0
  -22.3531  -14.5535   20.6732 O   0  0  0  0  0  0
  -24.6191  -31.8635   23.2044 C   0  0  0  0  0  0
  -25.9054  -32.4804   23.8372 C   0  0  1  0  0  0
  -27.2319  -27.3823   20.1219 C   0  0  0  0  0  0
  -25.5883  -33.8600   24.2301 N   0  0  0  0  0  0
  -23.4110  -30.4858   21.5439 C   0  0  2  0  0  0
  -24.8597  -28.9389   20.1179 C   0  0  0  0  0  0
  -22.7427  -29.4663   22.4963 C   0  0  0  0  0  0
  -18.0273  -28.1418   22.8473 C   0  0  0  0  0  0
  -24.1487  -36.7315   23.2638 C   0  0  0  0  0  0
  -25.9434  -30.8164   21.3631 C   0  0  0  0  0  0
  -26.0218  -29.4440   20.7149 C   0  0  0  0  0  0
  -27.2147  -28.6761   20.7063 C   0  0  0  0  0  0
  -26.0541  -26.9002   19.5175 C   0  0  0  0  0  0
  -24.8731  -27.6693   19.5121 C   0  0  0  0  0  0
  -23.6248  -29.8123   20.1611 C   0  0  0  0  0  0
  -25.4108  -36.3105   24.0336 C   0  0  1  0  0  0
  -20.5864  -28.3713   23.1334 C   0  0  2  0  0  0
  -20.6731  -26.9412   22.5515 C   0  0  0  0  0  0
  -19.5769  -26.6430   21.5231 C   0  0  0  0  0  0
  -18.1913  -26.7983   22.1565 C   0  0  0  0  0  0
  -19.1521  -28.8872   23.2915 C   0  0  0  0  0  0
  -18.9446  -30.1466   23.8940 C   0  0  0  0  0  0
  -17.6448  -30.6608   24.0600 C   0  0  0  0  0  0
  -25.9032  -34.9468   23.5122 C   0  0  0  0  0  0
  -16.5343  -29.9111   23.6344 C   0  0  0  0  0  0
  -16.7269  -28.6540   23.0347 C   0  0  0  0  0  0
  -26.4472  -31.6586   25.0713 C   0  0  0  0  0  0
  -25.3734  -31.3682   26.1462 C   0  0  0  0  0  0
  -27.0309  -30.3029   24.6098 C   0  0  0  0  0  0
  -27.6055  -32.4304   25.7471 C   0  0  0  0  0  0
  -27.5582  -37.1814   24.8465 C   0  0  0  0  0  0
  -21.4145  -29.3056   22.3698 N   0  0  0  0  0  0
  -26.4297  -37.3792   23.9401 N   0  0  0  0  0  0
  -24.6760  -31.0718   22.0952 N   0  0  0  0  0  0
  -23.4174  -28.8218   23.3042 O   0  0  0  0  0  0
  -28.3784  -26.6057   20.0919 O   0  0  0  0  0  0
  -26.5614  -34.8921   22.4696 O   0  0  0  0  0  0
  -23.5369  -32.1395   23.7422 O   0  0  0  0  0  0
  -28.7524  -19.0048   20.6627 C   0  0  0  0  0  0
  -30.9491  -19.4417   22.1039 C   0  0  0  0  0  0
  -29.4755  -17.9300   21.2368 C   0  0  0  0  0  0
  -29.2165  -20.3167   20.8979 C   0  0  0  0  0  0
  -29.0770  -16.4464   21.1091 C   0  0  0  0  0  0
  -28.5291  -22.7472   21.0723 C   0  0  0  0  0  0
  -28.3926  -25.3911   20.8968 C   0  0  0  0  0  0
  -28.4675  -24.0108   20.1418 C   0  0  1  0  0  0
  -30.5944  -18.1692   21.9389 N   0  0  0  0  0  0
  -30.3199  -20.5163   21.6307 N   0  0  0  0  0  0
  -28.5910  -21.4567   20.3398 N   0  0  0  0  0  0
  -30.0077  -15.6938   20.2614 N   0  0  0  0  0  0
  -29.6884  -23.9024   19.4380 O   0  0  0  0  0  0
  -31.4597  -12.4373   19.1410 H   0  0  0  0  0  0
  -30.3149  -11.3597   19.8917 H   0  0  0  0  0  0
  -29.7466  -11.7330   17.4674 H   0  0  0  0  0  0
  -29.6464  -13.4565   17.7373 H   0  0  0  0  0  0
  -27.8582  -11.2838   18.8762 H   0  0  0  0  0  0
  -27.3592  -12.5571   17.7929 H   0  0  0  0  0  0
  -27.6601  -14.2472   19.5037 H   0  0  0  0  0  0
  -28.6945  -12.0893   21.4099 H   0  0  0  0  0  0
  -28.4662  -13.7731   21.8053 H   0  0  0  0  0  0
  -25.2751   -9.5683   22.4776 H   0  0  0  0  0  0
  -23.9993   -7.4627   22.7474 H   0  0  0  0  0  0
  -21.0838   -8.8784   19.8950 H   0  0  0  0  0  0
  -22.3696  -10.9687   19.6178 H   0  0  0  0  0  0
  -21.2007   -7.6145   23.9713 H   0  0  0  0  0  0
  -21.1478   -6.0526   25.9079 H   0  0  0  0  0  0
  -22.0598   -2.7606   23.2864 H   0  0  0  0  0  0
  -22.4077  -11.9855   22.4797 H   0  0  0  0  0  0
  -21.1099  -13.1241   22.2641 H   0  0  0  0  0  0
  -24.6454  -15.8363   20.4807 H   0  0  0  0  0  0
  -26.2432  -15.6068   19.9875 H   0  0  0  0  0  0
  -26.7122  -32.5512   23.1131 H   0  0  0  0  0  0
  -25.0010  -33.9759   25.0430 H   0  0  0  0  0  0
  -22.7018  -31.3024   21.3965 H   0  0  0  0  0  0
  -23.3746  -35.9658   23.3318 H   0  0  0  0  0  0
  -24.3571  -36.8917   22.2050 H   0  0  0  0  0  0
  -23.7251  -37.6525   23.6647 H   0  0  0  0  0  0
  -26.0602  -31.5780   20.5907 H   0  0  0  0  0  0
  -26.8306  -30.8750   21.9819 H   0  0  0  0  0  0
  -28.1155  -29.0659   21.1596 H   0  0  0  0  0  0
  -26.0529  -25.9274   19.0462 H   0  0  0  0  0  0
  -23.9813  -27.2771   19.0440 H   0  0  0  0  0  0
  -23.7407  -30.5828   19.3978 H   0  0  0  0  0  0
  -22.7487  -29.2339   19.8631 H   0  0  0  0  0  0
  -25.1293  -36.1971   25.0834 H   0  0  0  0  0  0
  -20.9971  -28.3311   24.1454 H   0  0  0  0  0  0
  -21.6621  -26.7346   22.1422 H   0  0  0  0  0  0
  -20.5488  -26.2349   23.3736 H   0  0  0  0  0  0
  -19.6945  -25.6345   21.1254 H   0  0  0  0  0  0
  -19.6801  -27.3276   20.6803 H   0  0  0  0  0  0
  -17.4230  -26.6812   21.3902 H   0  0  0  0  0  0
  -18.0216  -26.0085   22.8900 H   0  0  0  0  0  0
  -19.7921  -30.7268   24.2327 H   0  0  0  0  0  0
  -17.5006  -31.6282   24.5213 H   0  0  0  0  0  0
  -15.5351  -30.3020   23.7655 H   0  0  0  0  0  0
  -15.8672  -28.0872   22.7017 H   0  0  0  0  0  0
  -24.5912  -30.7029   25.7785 H   0  0  0  0  0  0
  -24.8926  -32.2835   26.4928 H   0  0  0  0  0  0
  -25.8096  -30.8830   27.0205 H   0  0  0  0  0  0
  -26.2854  -29.6779   24.1168 H   0  0  0  0  0  0
  -27.4088  -29.7276   25.4557 H   0  0  0  0  0  0
  -27.8684  -30.4343   23.9245 H   0  0  0  0  0  0
  -27.2677  -33.3587   26.2086 H   0  0  0  0  0  0
  -28.3842  -32.6883   25.0282 H   0  0  0  0  0  0
  -28.0750  -31.8401   26.5350 H   0  0  0  0  0  0
  -28.2617  -38.0094   24.7502 H   0  0  0  0  0  0
  -28.1064  -36.2629   24.6314 H   0  0  0  0  0  0
  -27.2297  -37.1490   25.8868 H   0  0  0  0  0  0
  -20.9317  -29.8751   21.6890 H   0  0  0  0  0  0
  -26.0191  -38.2877   24.1387 H   0  0  0  0  0  0
  -27.8664  -18.8161   20.0716 H   0  0  0  0  0  0
  -31.8416  -19.6217   22.6844 H   0  0  0  0  0  0
  -29.0309  -16.0119   22.1076 H   0  0  0  0  0  0
  -28.0756  -16.3779   20.6858 H   0  0  0  0  0  0
  -29.3745  -22.8415   21.7555 H   0  0  0  0  0  0
  -27.6418  -22.7263   21.7084 H   0  0  0  0  0  0
  -27.5211  -25.3789   21.5539 H   0  0  0  0  0  0
  -29.2497  -25.4676   21.5668 H   0  0  0  0  0  0
  -27.6309  -23.9244   19.4470 H   0  0  0  0  0  0
  -27.7552  -21.2411   19.8078 H   0  0  0  0  0  0
  -30.6157  -16.3596   19.8094 H   0  0  0  0  0  0
  -29.8065  -22.9616   19.3174 H   0  0  0  0  0  0
  1 25  1  0  0  0
  1 30  2  0  0  0
  1 82  1  0  0  0
  2  3  1  0  0  0
  2 25  1  0  0  0
  2 84  1  0  0  0
  2 85  1  0  0  0
  3  4  1  0  0  0
  3 86  1  0  0  0
  3 87  1  0  0  0
  4  5  1  0  0  0
  4 88  1  0  0  0
  4 89  1  0  0  0
  5  6  1  0  0  0
  5 26  1  0  0  0
  5 90  1  0  0  0
  6 25  1  0  0  0
  6 91  1  0  0  0
  6 92  1  0  0  0
  7  8  2  0  0  0
  7 26  1  0  0  0
  7 29  1  0  0  0
  8  9  1  0  0  0
  8 22  1  0  0  0
  9 10  1  0  0  0
  9 27  2  0  0  0
 10 11  2  0  0  0
 10 15  1  0  0  0
 11 12  1  0  0  0
 11 93  1  0  0  0
 12 13  2  0  0  0
 12 94  1  0  0  0
 13 14  1  0  0  0
 13 31  1  0  0  0
 14 15  2  0  0  0
 14 95  1  0  0  0
 15 96  1  0  0  0
 16 17  2  0  0  0
 16 21  1  0  0  0
 16 31  1  0  0  0
 17 18  1  0  0  0
 17 97  1  0  0  0
 18 19  2  0  0  0
 18 98  1  0  0  0
 19 20  1  0  0  0
 19 24  1  0  0  0
 20 21  2  0  0  0
 20 99  1  0  0  0
 21 23  1  0  0  0
 22 28  1  0  0  0
 22 32  2  0  0  0
 26 27  1  0  0  0
 28100  1  0  0  0
 28101  1  0  0  0
 29102  1  0  0  0
 29103  1  0  0  0
 33 34  1  0  0  0
 33 66  1  0  0  0
 33 70  2  0  0  0
 34 36  1  0  0  0
 34 59  1  0  0  0
 34104  1  0  0  0
 35 44  2  0  0  0
 35 45  1  0  0  0
 35 68  1  0  0  0
 36 56  1  0  0  0
 36105  1  0  0  0
 37 39  1  0  0  0
 37 47  1  0  0  0
 37 66  1  0  0  0
 37106  1  0  0  0
 38 43  2  0  0  0
 38 46  1  0  0  0
 38 47  1  0  0  0
 39 64  1  0  0  0
 39 67  2  0  0  0
 40 52  1  0  0  0
 40 53  2  0  0  0
 40 58  1  0  0  0
 41107  1  0  0  0
 41108  1  0  0  0
 41109  1  0  0  0
 41 48  1  0  0  0
 42 43  1  0  0  0
 42 66  1  0  0  0
 42110  1  0  0  0
 42111  1  0  0  0
 43 44  1  0  0  0
 44112  1  0  0  0
 45 46  2  0  0  0
 45113  1  0  0  0
 46114  1  0  0  0
 47115  1  0  0  0
 47116  1  0  0  0
 48 56  1  0  0  0
 48 65  1  0  0  0
 48117  1  0  0  0
 49 50  1  0  0  0
 49 53  1  0  0  0
 49 64  1  0  0  0
 49118  1  0  0  0
 50 51  1  0  0  0
 50119  1  0  0  0
 50120  1  0  0  0
 51 52  1  0  0  0
 51121  1  0  0  0
 51122  1  0  0  0
 52123  1  0  0  0
 52124  1  0  0  0
 53 54  1  0  0  0
 54 55  2  0  0  0
 54125  1  0  0  0
 55 57  1  0  0  0
 55126  1  0  0  0
 56 69  2  0  0  0
 57 58  2  0  0  0
 57127  1  0  0  0
 58128  1  0  0  0
 59 60  1  0  0  0
 59 61  1  0  0  0
 59 62  1  0  0  0
 60129  1  0  0  0
 60130  1  0  0  0
 60131  1  0  0  0
 61132  1  0  0  0
 61133  1  0  0  0
 61134  1  0  0  0
 62135  1  0  0  0
 62136  1  0  0  0
 62137  1  0  0  0
 63 65  1  0  0  0
 63138  1  0  0  0
 63139  1  0  0  0
 63140  1  0  0  0
 64141  1  0  0  0
 65142  1  0  0  0
 68 77  1  0  0  0
 71 73  2  0  0  0
 71 74  1  0  0  0
 71143  1  0  0  0
 72 79  2  0  0  0
 72 80  1  0  0  0
 72144  1  0  0  0
 73 75  1  0  0  0
 73 79  1  0  0  0
 74 80  2  0  0  0
 74 81  1  0  0  0
 75 82  1  0  0  0
 75145  1  0  0  0
 75146  1  0  0  0
 76 78  1  0  0  0
 76 81  1  0  0  0
 76147  1  0  0  0
 76148  1  0  0  0
 77 78  1  0  0  0
 77149  1  0  0  0
 77150  1  0  0  0
 78 83  1  0  0  0
 78151  1  0  0  0
 81152  1  0  0  0
 82153  1  0  0  0
 83154  1  0  0  0
M  ISO  4   1 100  68 101  77 101  82 100
M  END
> <chiral flag>
0

> <version>
0

> <s_m_source_file>
/data/baiqing/PycharmProjects/Reinvent-master-3.2/result/LINK_invent/BTK/process_docking_weight1_custom_product_contain_oxygen_bond_distance_aromatic_linkinvent_7_9_3/rearranged_h_0199.sdf

> <i_m_source_file_index>
30

> <r_mmod_Potential_Energy-OPLS-2005>
-684.680847167969

> <r_mmod_Stretch_Energy-OPLS-2005>
45.0810508728027

> <r_mmod_Bend_Energy-OPLS-2005>
133.553421020508

> <r_mmod_Torsional_Energy-OPLS-2005>
305.6259765625

> <r_mmod_Improper_Torsional_Energy-OPLS-2005>
29.2508640289307

> <r_mmod_Van_der_Waal_Energy-OPLS-2005>
148.147827148438

> <r_mmod_Electrostatic_Energy-OPLS-2005>
-1105.82165527344

> <r_mmod_Solvation_Energy-OPLS-2005>
-272.176483154297

> <b_mmod_Minimization_Converged-OPLS-2005>
0

> <r_mmod_RMS_Derivative-OPLS-2005>
1.68288898468018

$$$$
30
                    3D
 Structure written by MMmdl.
150158  0  0  1  0            999 V2000
  -30.6139  -14.7288   20.4616 C   0  0  0  0  0  0
  -30.4353  -12.4411   19.4790 C   0  0  0  0  0  0
  -29.5159  -12.5133   18.2394 C   0  0  0  0  0  0
  -28.0398  -12.3417   18.6470 C   0  0  0  0  0  0
  -27.6486  -13.2314   19.8576 C   0  0  2  0  0  0
  -28.6914  -13.1468   20.9954 C   0  0  0  0  0  0
  -25.2536  -13.8197   20.5697 C   0  0  0  0  0  0
  -24.1819  -13.0443   20.9197 C   0  0  0  0  0  0
  -24.6401  -11.6915   20.8733 C   0  0  0  0  0  0
  -23.9068  -10.4291   21.0397 C   0  0  0  0  0  0
  -24.3612   -9.4209   21.9181 C   0  0  0  0  0  0
  -23.6284   -8.2248   22.0756 C   0  0  0  0  0  0
  -22.4269   -8.0281   21.3546 C   0  0  0  0  0  0
  -21.9902   -9.0252   20.4651 C   0  0  0  0  0  0
  -22.7233  -10.2131   20.3052 C   0  0  0  0  0  0
  -21.6856   -6.0732   22.5279 C   0  0  0  0  0  0
  -21.4019   -6.5638   23.8214 C   0  0  0  0  0  0
  -21.3660   -5.6790   24.9176 C   0  0  0  0  0  0
  -21.6042   -4.3051   24.7226 C   0  0  0  0  0  0
  -21.8818   -3.8143   23.4349 C   0  0  0  0  0  0
  -21.9197   -4.6961   22.3405 C   0  0  0  0  0  0
  -22.7839  -13.5231   21.1857 C   0  0  0  0  0  0
  -22.1663   -4.2144   21.0983 F   0  0  0  0  0  0
  -21.5621   -3.4533   25.7739 F   0  0  0  0  0  0
  -29.9996  -13.4959   20.4248 N   0  0  0  0  0  0
  -26.2973  -12.9403   20.3298 N   0  0  0  0  0  0
  -25.9338  -11.6544   20.5743 N   0  0  0  0  0  0
  -22.0470  -12.8227   22.0409 N   0  0  0  0  0  0
  -25.4229  -15.1923   20.4130 N   0  0  0  0  0  0
  -31.7846  -14.8370   20.0832 O   0  0  0  0  0  0
  -21.6634   -6.8877   21.4242 O   0  0  0  0  0  0
  -22.3534  -14.5541   20.6708 O   0  0  0  0  0  0
  -24.6321  -31.8553   23.1998 C   0  0  0  0  0  0
  -25.9150  -32.4750   23.8337 C   0  0  1  0  0  0
  -27.2150  -27.2558   20.1265 C   0  0  0  0  0  0
  -25.5951  -33.8551   24.2262 N   0  0  0  0  0  0
  -23.4285  -30.4801   21.5429 C   0  0  2  0  0  0
  -24.8748  -28.9312   20.1069 C   0  0  0  0  0  0
  -22.7503  -29.4605   22.4905 C   0  0  0  0  0  0
  -18.0290  -28.1389   22.8483 C   0  0  0  0  0  0
  -24.1494  -36.7279   23.2641 C   0  0  0  0  0  0
  -25.9760  -30.7644   21.3838 C   0  0  0  0  0  0
  -26.0459  -29.3878   20.7239 C   0  0  0  0  0  0
  -27.2160  -28.5611   20.7277 C   0  0  0  0  0  0
  -26.0266  -26.8857   19.4532 C   0  0  0  0  0  0
  -24.8710  -27.6881   19.4603 C   0  0  0  0  0  0
  -23.6465  -29.8184   20.1575 C   0  0  0  0  0  0
  -25.4121  -36.3064   24.0328 C   0  0  1  0  0  0
  -20.5894  -28.3703   23.1260 C   0  0  2  0  0  0
  -20.6780  -26.9421   22.5401 C   0  0  0  0  0  0
  -19.5757  -26.6385   21.5204 C   0  0  0  0  0  0
  -18.1935  -26.7933   22.1617 C   0  0  0  0  0  0
  -19.1543  -28.8862   23.2869 C   0  0  0  0  0  0
  -18.9466  -30.1461   23.8889 C   0  0  0  0  0  0
  -17.6468  -30.6593   24.0553 C   0  0  0  0  0  0
  -25.9061  -34.9432   23.5095 C   0  0  0  0  0  0
  -16.5357  -29.9087   23.6331 C   0  0  0  0  0  0
  -16.7274  -28.6502   23.0357 C   0  0  0  0  0  0
  -26.4515  -31.6576   25.0730 C   0  0  0  0  0  0
  -25.3736  -31.3727   26.1450 C   0  0  0  0  0  0
  -27.0369  -30.2987   24.6237 C   0  0  0  0  0  0
  -27.6071  -32.4317   25.7504 C   0  0  0  0  0  0
  -27.5579  -37.1800   24.8468 C   0  0  0  0  0  0
  -21.4209  -29.3052   22.3650 N   0  0  0  0  0  0
  -26.4294  -37.3763   23.9404 N   0  0  0  0  0  0
  -24.6979  -31.0514   22.0980 N   0  0  0  0  0  0
  -23.4201  -28.8145   23.3005 O   0  0  0  0  0  0
  -28.2996  -26.3460   20.2155 O   0  0  0  0  0  0
  -26.5625  -34.8912   22.4659 O   0  0  0  0  0  0
  -23.5471  -32.1379   23.7290 O   0  0  0  0  0  0
  -29.4140  -18.3587   21.0025 C   0  0  0  0  0  0
  -30.3911  -19.4047   19.1828 C   0  0  0  0  0  0
  -29.6477  -19.6411   20.3084 C   0  0  0  0  0  0
  -29.9713  -17.1940   20.4302 C   0  0  0  0  0  0
  -28.8903  -22.1980   19.9182 C   0  0  0  0  0  0
  -28.0808  -24.8805   19.9233 C   0  0  0  0  0  0
  -28.9106  -23.6655   20.6177 C   0  0  1  0  0  0
  -29.1997  -20.9657   20.7507 N   0  0  0  0  0  0
  -29.8584  -15.8406   20.8067 N   0  0  0  0  0  0
  -28.3561  -23.4495   21.9076 O   0  0  0  0  0  0
  -30.8260  -17.7101   18.9853 S   0  0  0  0  0  0
  -31.4785  -12.5556   19.1804 H   0  0  0  0  0  0
  -30.3689  -11.4588   19.9495 H   0  0  0  0  0  0
  -29.7964  -11.7468   17.5156 H   0  0  0  0  0  0
  -29.6506  -13.4725   17.7369 H   0  0  0  0  0  0
  -27.8874  -11.2908   18.8960 H   0  0  0  0  0  0
  -27.3868  -12.5504   17.7986 H   0  0  0  0  0  0
  -27.6510  -14.2582   19.4900 H   0  0  0  0  0  0
  -28.7198  -12.1439   21.4242 H   0  0  0  0  0  0
  -28.4259  -13.8172   21.8139 H   0  0  0  0  0  0
  -25.2759   -9.5685   22.4754 H   0  0  0  0  0  0
  -23.9984   -7.4634   22.7475 H   0  0  0  0  0  0
  -21.0833   -8.8773   19.8958 H   0  0  0  0  0  0
  -22.3690  -10.9663   19.6155 H   0  0  0  0  0  0
  -21.2017   -7.6147   23.9719 H   0  0  0  0  0  0
  -21.1483   -6.0519   25.9079 H   0  0  0  0  0  0
  -22.0601   -2.7606   23.2847 H   0  0  0  0  0  0
  -22.4061  -11.9887   22.4813 H   0  0  0  0  0  0
  -21.1095  -13.1283   22.2607 H   0  0  0  0  0  0
  -24.6551  -15.8462   20.5256 H   0  0  0  0  0  0
  -26.2720  -15.6336   20.0821 H   0  0  0  0  0  0
  -26.7215  -32.5394   23.1075 H   0  0  0  0  0  0
  -25.0116  -33.9688   25.0422 H   0  0  0  0  0  0
  -22.7249  -31.3026   21.3988 H   0  0  0  0  0  0
  -23.3753  -35.9615   23.3306 H   0  0  0  0  0  0
  -24.3582  -36.8895   22.2053 H   0  0  0  0  0  0
  -23.7254  -37.6489   23.6657 H   0  0  0  0  0  0
  -26.1196  -31.5252   20.6156 H   0  0  0  0  0  0
  -26.8516  -30.8092   22.0197 H   0  0  0  0  0  0
  -28.1070  -28.9010   21.2367 H   0  0  0  0  0  0
  -25.9496  -25.9532   18.9161 H   0  0  0  0  0  0
  -23.9800  -27.3391   18.9565 H   0  0  0  0  0  0
  -23.7722  -30.5964   19.4035 H   0  0  0  0  0  0
  -22.7644  -29.2534   19.8508 H   0  0  0  0  0  0
  -25.1303  -36.1910   25.0820 H   0  0  0  0  0  0
  -20.9985  -28.3285   24.1380 H   0  0  0  0  0  0
  -20.5682  -26.2317   23.3608 H   0  0  0  0  0  0
  -21.6649  -26.7449   22.1198 H   0  0  0  0  0  0
  -19.6924  -25.6290   21.1249 H   0  0  0  0  0  0
  -19.6699  -27.3181   20.6722 H   0  0  0  0  0  0
  -17.4208  -26.6672   21.4016 H   0  0  0  0  0  0
  -18.0344  -26.0075   22.9016 H   0  0  0  0  0  0
  -19.7942  -30.7272   24.2264 H   0  0  0  0  0  0
  -17.5022  -31.6274   24.5155 H   0  0  0  0  0  0
  -15.5359  -30.2986   23.7664 H   0  0  0  0  0  0
  -15.8671  -28.0812   22.7087 H   0  0  0  0  0  0
  -24.5918  -30.7069   25.7774 H   0  0  0  0  0  0
  -24.8923  -32.2894   26.4862 H   0  0  0  0  0  0
  -25.8054  -30.8912   27.0232 H   0  0  0  0  0  0
  -26.2959  -29.6722   24.1258 H   0  0  0  0  0  0
  -27.4033  -29.7265   25.4773 H   0  0  0  0  0  0
  -27.8846  -30.4250   23.9499 H   0  0  0  0  0  0
  -27.2682  -33.3624   26.2066 H   0  0  0  0  0  0
  -28.3890  -32.6863   25.0337 H   0  0  0  0  0  0
  -28.0730  -31.8450   26.5434 H   0  0  0  0  0  0
  -28.2602  -38.0091   24.7497 H   0  0  0  0  0  0
  -28.1068  -36.2619   24.6314 H   0  0  0  0  0  0
  -27.2292  -37.1474   25.8871 H   0  0  0  0  0  0
  -20.9396  -29.8775   21.6853 H   0  0  0  0  0  0
  -26.0171  -38.2840   24.1386 H   0  0  0  0  0  0
  -28.8293  -18.3349   21.9110 H   0  0  0  0  0  0
  -30.7466  -20.1223   18.4546 H   0  0  0  0  0  0
  -29.5570  -22.2194   19.0547 H   0  0  0  0  0  0
  -27.8941  -22.0414   19.5007 H   0  0  0  0  0  0
  -27.0379  -24.6230   20.1019 H   0  0  0  0  0  0
  -28.2206  -24.7848   18.8458 H   0  0  0  0  0  0
  -29.9506  -23.9747   20.7327 H   0  0  0  0  0  0
  -28.8494  -21.0330   21.7047 H   0  0  0  0  0  0
  -29.0040  -15.6066   21.2902 H   0  0  0  0  0  0
  -27.4627  -23.1446   21.7841 H   0  0  0  0  0  0
  1 25  1  0  0  0
  1 30  2  0  0  0
  1 79  1  0  0  0
  2  3  1  0  0  0
  2 25  1  0  0  0
  2 82  1  0  0  0
  2 83  1  0  0  0
  3  4  1  0  0  0
  3 84  1  0  0  0
  3 85  1  0  0  0
  4  5  1  0  0  0
  4 86  1  0  0  0
  4 87  1  0  0  0
  5  6  1  0  0  0
  5 26  1  0  0  0
  5 88  1  0  0  0
  6 25  1  0  0  0
  6 89  1  0  0  0
  6 90  1  0  0  0
  7  8  2  0  0  0
  7 26  1  0  0  0
  7 29  1  0  0  0
  8  9  1  0  0  0
  8 22  1  0  0  0
  9 10  1  0  0  0
  9 27  2  0  0  0
 10 11  2  0  0  0
 10 15  1  0  0  0
 11 12  1  0  0  0
 11 91  1  0  0  0
 12 13  2  0  0  0
 12 92  1  0  0  0
 13 14  1  0  0  0
 13 31  1  0  0  0
 14 15  2  0  0  0
 14 93  1  0  0  0
 15 94  1  0  0  0
 16 17  2  0  0  0
 16 21  1  0  0  0
 16 31  1  0  0  0
 17 18  1  0  0  0
 17 95  1  0  0  0
 18 19  2  0  0  0
 18 96  1  0  0  0
 19 20  1  0  0  0
 19 24  1  0  0  0
 20 21  2  0  0  0
 20 97  1  0  0  0
 21 23  1  0  0  0
 22 28  1  0  0  0
 22 32  2  0  0  0
 26 27  1  0  0  0
 28 98  1  0  0  0
 28 99  1  0  0  0
 29100  1  0  0  0
 29101  1  0  0  0
 33 34  1  0  0  0
 33 66  1  0  0  0
 33 70  2  0  0  0
 34 36  1  0  0  0
 34 59  1  0  0  0
 34102  1  0  0  0
 35 44  2  0  0  0
 35 45  1  0  0  0
 35 68  1  0  0  0
 36 56  1  0  0  0
 36103  1  0  0  0
 37 39  1  0  0  0
 37 47  1  0  0  0
 37 66  1  0  0  0
 37104  1  0  0  0
 38 43  2  0  0  0
 38 46  1  0  0  0
 38 47  1  0  0  0
 39 64  1  0  0  0
 39 67  2  0  0  0
 40 52  1  0  0  0
 40 53  2  0  0  0
 40 58  1  0  0  0
 41105  1  0  0  0
 41106  1  0  0  0
 41107  1  0  0  0
 41 48  1  0  0  0
 42 43  1  0  0  0
 42 66  1  0  0  0
 42108  1  0  0  0
 42109  1  0  0  0
 43 44  1  0  0  0
 44110  1  0  0  0
 45 46  2  0  0  0
 45111  1  0  0  0
 46112  1  0  0  0
 47113  1  0  0  0
 47114  1  0  0  0
 48 56  1  0  0  0
 48 65  1  0  0  0
 48115  1  0  0  0
 49 50  1  0  0  0
 49 53  1  0  0  0
 49 64  1  0  0  0
 49116  1  0  0  0
 50 51  1  0  0  0
 50117  1  0  0  0
 50118  1  0  0  0
 51 52  1  0  0  0
 51119  1  0  0  0
 51120  1  0  0  0
 52121  1  0  0  0
 52122  1  0  0  0
 53 54  1  0  0  0
 54 55  2  0  0  0
 54123  1  0  0  0
 55 57  1  0  0  0
 55124  1  0  0  0
 56 69  2  0  0  0
 57 58  2  0  0  0
 57125  1  0  0  0
 58126  1  0  0  0
 59 60  1  0  0  0
 59 61  1  0  0  0
 59 62  1  0  0  0
 60127  1  0  0  0
 60128  1  0  0  0
 60129  1  0  0  0
 61130  1  0  0  0
 61131  1  0  0  0
 61132  1  0  0  0
 62133  1  0  0  0
 62134  1  0  0  0
 62135  1  0  0  0
 63 65  1  0  0  0
 63136  1  0  0  0
 63137  1  0  0  0
 63138  1  0  0  0
 64139  1  0  0  0
 65140  1  0  0  0
 68 76  1  0  0  0
 71 73  1  0  0  0
 71 74  2  0  0  0
 71141  1  0  0  0
 72 73  2  0  0  0
 72 81  1  0  0  0
 72142  1  0  0  0
 73 78  1  0  0  0
 74 79  1  0  0  0
 74 81  1  0  0  0
 75 77  1  0  0  0
 75 78  1  0  0  0
 75143  1  0  0  0
 75144  1  0  0  0
 76 77  1  0  0  0
 76145  1  0  0  0
 76146  1  0  0  0
 77 80  1  0  0  0
 77147  1  0  0  0
 78148  1  0  0  0
 79149  1  0  0  0
 80150  1  0  0  0
M  ISO  4   1 100  68 101  76 101  79 100
M  END
> <chiral flag>
0

> <version>
0

> <s_m_source_file>
/data/baiqing/PycharmProjects/Reinvent-master-3.2/result/LINK_invent/BTK/process_docking_weight1_custom_product_contain_oxygen_bond_distance_aromatic_linkinvent_7_9_3/rearranged_h_0199.sdf

> <i_m_source_file_index>
31

> <r_mmod_Potential_Energy-OPLS-2005>
95.9761810302734

> <r_mmod_Stretch_Energy-OPLS-2005>
117.480445861816

> <r_mmod_Bend_Energy-OPLS-2005>
164.504425048828

> <r_mmod_Torsional_Energy-OPLS-2005>
249.887405395508

> <r_mmod_Improper_Torsional_Energy-OPLS-2005>
3.96060800552368

> <r_mmod_Van_der_Waal_Energy-OPLS-2005>
125.272735595703

> <r_mmod_Electrostatic_Energy-OPLS-2005>
-395.437042236328

> <r_mmod_Solvation_Energy-OPLS-2005>
-253.791137695312

> <b_mmod_Minimization_Converged-OPLS-2005>
0

> <r_mmod_RMS_Derivative-OPLS-2005>
0.852675139904022

$$$$
31
                    3D
 Structure written by MMmdl.
151159  0  0  1  0            999 V2000
  -30.6247  -14.6703   20.5050 C   0  0  0  0  0  0
  -30.4388  -12.4118   19.4795 C   0  0  0  0  0  0
  -29.5298  -12.5446   18.2395 C   0  0  0  0  0  0
  -28.0472  -12.3802   18.6339 C   0  0  0  0  0  0
  -27.6588  -13.2325   19.8741 C   0  0  2  0  0  0
  -28.6957  -13.0947   21.0089 C   0  0  0  0  0  0
  -25.2570  -13.8196   20.5738 C   0  0  0  0  0  0
  -24.1836  -13.0448   20.9177 C   0  0  0  0  0  0
  -24.6449  -11.6939   20.8727 C   0  0  0  0  0  0
  -23.9098  -10.4317   21.0390 C   0  0  0  0  0  0
  -24.3654   -9.4227   21.9168 C   0  0  0  0  0  0
  -23.6320   -8.2268   22.0751 C   0  0  0  0  0  0
  -22.4299   -8.0324   21.3569 C   0  0  0  0  0  0
  -21.9945   -9.0287   20.4657 C   0  0  0  0  0  0
  -22.7279  -10.2144   20.3047 C   0  0  0  0  0  0
  -21.6857   -6.0763   22.5296 C   0  0  0  0  0  0
  -21.4018   -6.5652   23.8233 C   0  0  0  0  0  0
  -21.3657   -5.6787   24.9191 C   0  0  0  0  0  0
  -21.6041   -4.3060   24.7217 C   0  0  0  0  0  0
  -21.8805   -3.8167   23.4339 C   0  0  0  0  0  0
  -21.9188   -4.7001   22.3401 C   0  0  0  0  0  0
  -22.7859  -13.5258   21.1819 C   0  0  0  0  0  0
  -22.1663   -4.2204   21.0969 F   0  0  0  0  0  0
  -21.5621   -3.4520   25.7701 F   0  0  0  0  0  0
  -30.0175  -13.4371   20.4542 N   0  0  0  0  0  0
  -26.3036  -12.9438   20.3362 N   0  0  0  0  0  0
  -25.9386  -11.6581   20.5709 N   0  0  0  0  0  0
  -22.0459  -12.8286   22.0370 N   0  0  0  0  0  0
  -25.4283  -15.1911   20.4222 N   0  0  0  0  0  0
  -31.7681  -14.8319   20.0678 O   0  0  0  0  0  0
  -21.6687   -6.8921   21.4253 O   0  0  0  0  0  0
  -22.3570  -14.5565   20.6656 O   0  0  0  0  0  0
  -24.6277  -31.8599   23.1987 C   0  0  0  0  0  0
  -25.9116  -32.4794   23.8332 C   0  0  1  0  0  0
  -27.2454  -27.3128   20.1380 C   0  0  0  0  0  0
  -25.5936  -33.8594   24.2267 N   0  0  0  0  0  0
  -23.4223  -30.4784   21.5410 C   0  0  2  0  0  0
  -24.8731  -28.9130   20.1258 C   0  0  0  0  0  0
  -22.7486  -29.4632   22.4932 C   0  0  0  0  0  0
  -18.0302  -28.1365   22.8469 C   0  0  0  0  0  0
  -24.1495  -36.7297   23.2637 C   0  0  0  0  0  0
  -25.9603  -30.7915   21.3645 C   0  0  0  0  0  0
  -26.0404  -29.4088   20.7213 C   0  0  0  0  0  0
  -27.2319  -28.6235   20.7082 C   0  0  0  0  0  0
  -26.0538  -26.8526   19.5443 C   0  0  0  0  0  0
  -24.8791  -27.6359   19.5361 C   0  0  0  0  0  0
  -23.6425  -29.7993   20.1614 C   0  0  0  0  0  0
  -25.4123  -36.3101   24.0335 C   0  0  1  0  0  0
  -20.5894  -28.3701   23.1275 C   0  0  2  0  0  0
  -20.6793  -26.9419   22.5411 C   0  0  0  0  0  0
  -19.5770  -26.6353   21.5215 C   0  0  0  0  0  0
  -18.1944  -26.7907   22.1611 C   0  0  0  0  0  0
  -19.1547  -28.8843   23.2860 C   0  0  0  0  0  0
  -18.9471  -30.1445   23.8876 C   0  0  0  0  0  0
  -17.6472  -30.6571   24.0550 C   0  0  0  0  0  0
  -25.9056  -34.9475   23.5096 C   0  0  0  0  0  0
  -16.5364  -29.9071   23.6310 C   0  0  0  0  0  0
  -16.7286  -28.6482   23.0334 C   0  0  0  0  0  0
  -26.4466  -31.6604   25.0712 C   0  0  0  0  0  0
  -25.3694  -31.3758   26.1448 C   0  0  0  0  0  0
  -27.0303  -30.3039   24.6137 C   0  0  0  0  0  0
  -27.6021  -32.4319   25.7514 C   0  0  0  0  0  0
  -27.5583  -37.1827   24.8463 C   0  0  0  0  0  0
  -21.4198  -29.3067   22.3690 N   0  0  0  0  0  0
  -26.4296  -37.3798   23.9402 N   0  0  0  0  0  0
  -24.6886  -31.0605   22.0933 N   0  0  0  0  0  0
  -23.4206  -28.8191   23.3025 O   0  0  0  0  0  0
  -28.3926  -26.5095   20.0799 O   0  0  0  0  0  0
  -26.5610  -34.8952   22.4652 O   0  0  0  0  0  0
  -23.5436  -32.1397   23.7289 O   0  0  0  0  0  0
  -30.6382  -17.8255   19.7424 C   0  0  0  0  0  0
  -28.9549  -19.3001   21.2519 C   0  0  0  0  0  0
  -29.8765  -17.1629   20.7576 C   0  0  0  0  0  0
  -29.6773  -19.9419   20.2037 C   0  0  0  0  0  0
  -29.0138  -22.4688   20.6233 C   0  0  0  0  0  0
  -28.4020  -25.1624   20.7040 C   0  0  0  0  0  0
  -28.7843  -23.8631   19.8419 C   0  0  1  0  0  0
  -29.0491  -17.9546   21.5072 N   0  0  0  0  0  0
  -30.5311  -19.1713   19.4700 N   0  0  0  0  0  0
  -29.8605  -15.7107   20.9687 N   0  0  0  0  0  0
  -29.5595  -21.3215   19.8175 N   0  0  0  0  0  0
  -30.0119  -24.1538   19.1974 O   0  0  0  0  0  0
  -31.4903  -12.5158   19.1999 H   0  0  0  0  0  0
  -30.3489  -11.4150   19.9119 H   0  0  0  0  0  0
  -29.8099  -11.8062   17.4897 H   0  0  0  0  0  0
  -29.6805  -13.5219   17.7777 H   0  0  0  0  0  0
  -27.8696  -11.3240   18.8377 H   0  0  0  0  0  0
  -27.4038  -12.6382   17.7914 H   0  0  0  0  0  0
  -27.6757  -14.2732   19.5503 H   0  0  0  0  0  0
  -28.6982  -12.0804   21.4107 H   0  0  0  0  0  0
  -28.4297  -13.7381   21.8487 H   0  0  0  0  0  0
  -25.2783   -9.5718   22.4751 H   0  0  0  0  0  0
  -24.0033   -7.4666   22.7476 H   0  0  0  0  0  0
  -21.0875   -8.8802   19.8954 H   0  0  0  0  0  0
  -22.3738  -10.9697   19.6156 H   0  0  0  0  0  0
  -21.2036   -7.6160   23.9754 H   0  0  0  0  0  0
  -21.1477   -6.0518   25.9087 H   0  0  0  0  0  0
  -22.0590   -2.7644   23.2804 H   0  0  0  0  0  0
  -22.4059  -11.9970   22.4816 H   0  0  0  0  0  0
  -21.1069  -13.1343   22.2487 H   0  0  0  0  0  0
  -24.6676  -15.8489   20.5628 H   0  0  0  0  0  0
  -26.2903  -15.6387   20.1364 H   0  0  0  0  0  0
  -26.7201  -32.5465   23.1103 H   0  0  0  0  0  0
  -25.0189  -33.9729   25.0487 H   0  0  0  0  0  0
  -22.7195  -31.3004   21.3902 H   0  0  0  0  0  0
  -23.3767  -35.9611   23.3301 H   0  0  0  0  0  0
  -24.3583  -36.8905   22.2044 H   0  0  0  0  0  0
  -23.7249  -37.6511   23.6640 H   0  0  0  0  0  0
  -26.0814  -31.5457   20.5848 H   0  0  0  0  0  0
  -26.8438  -30.8554   21.9873 H   0  0  0  0  0  0
  -28.1342  -29.0114   21.1590 H   0  0  0  0  0  0
  -26.0336  -25.8726   19.0866 H   0  0  0  0  0  0
  -23.9777  -27.2423   19.0854 H   0  0  0  0  0  0
  -23.7747  -30.5700   19.4018 H   0  0  0  0  0  0
  -22.7586  -29.2343   19.8547 H   0  0  0  0  0  0
  -25.1307  -36.1953   25.0830 H   0  0  0  0  0  0
  -20.9992  -28.3270   24.1392 H   0  0  0  0  0  0
  -20.5686  -26.2321   23.3625 H   0  0  0  0  0  0
  -21.6673  -26.7441   22.1226 H   0  0  0  0  0  0
  -19.6945  -25.6247   21.1279 H   0  0  0  0  0  0
  -19.6706  -27.3128   20.6716 H   0  0  0  0  0  0
  -17.4242  -26.6666   21.3987 H   0  0  0  0  0  0
  -18.0319  -26.0029   22.8982 H   0  0  0  0  0  0
  -19.7952  -30.7246   24.2236 H   0  0  0  0  0  0
  -17.5037  -31.6254   24.5151 H   0  0  0  0  0  0
  -15.5360  -30.2967   23.7635 H   0  0  0  0  0  0
  -15.8692  -28.0798   22.7045 H   0  0  0  0  0  0
  -24.5860  -30.7107   25.7798 H   0  0  0  0  0  0
  -24.8885  -32.2933   26.4855 H   0  0  0  0  0  0
  -25.8016  -30.8964   27.0248 H   0  0  0  0  0  0
  -26.2875  -29.6826   24.1128 H   0  0  0  0  0  0
  -27.4005  -29.7256   25.4615 H   0  0  0  0  0  0
  -27.8737  -30.4348   23.9354 H   0  0  0  0  0  0
  -27.2638  -33.3627   26.2085 H   0  0  0  0  0  0
  -28.3870  -32.6874   25.0383 H   0  0  0  0  0  0
  -28.0660  -31.8448   26.5454 H   0  0  0  0  0  0
  -28.2622  -38.0109   24.7515 H   0  0  0  0  0  0
  -28.1071  -36.2651   24.6284 H   0  0  0  0  0  0
  -27.2303  -37.1492   25.8869 H   0  0  0  0  0  0
  -20.9380  -29.8825   21.6933 H   0  0  0  0  0  0
  -26.0183  -38.2881   24.1374 H   0  0  0  0  0  0
  -31.3112  -17.2755   19.1001 H   0  0  0  0  0  0
  -28.2676  -19.8594   21.8731 H   0  0  0  0  0  0
  -28.0816  -22.1594   21.0985 H   0  0  0  0  0  0
  -29.7228  -22.6396   21.4352 H   0  0  0  0  0  0
  -29.1302  -25.2352   21.5125 H   0  0  0  0  0  0
  -27.4481  -24.9831   21.2013 H   0  0  0  0  0  0
  -28.0159  -23.7141   19.0827 H   0  0  0  0  0  0
  -29.0440  -15.3932   21.4668 H   0  0  0  0  0  0
  -30.1417  -21.6161   19.0377 H   0  0  0  0  0  0
  -29.9219  -25.0299   18.8329 H   0  0  0  0  0  0
  1 25  1  0  0  0
  1 30  2  0  0  0
  1 80  1  0  0  0
  2  3  1  0  0  0
  2 25  1  0  0  0
  2 83  1  0  0  0
  2 84  1  0  0  0
  3  4  1  0  0  0
  3 85  1  0  0  0
  3 86  1  0  0  0
  4  5  1  0  0  0
  4 87  1  0  0  0
  4 88  1  0  0  0
  5  6  1  0  0  0
  5 26  1  0  0  0
  5 89  1  0  0  0
  6 25  1  0  0  0
  6 90  1  0  0  0
  6 91  1  0  0  0
  7  8  2  0  0  0
  7 26  1  0  0  0
  7 29  1  0  0  0
  8  9  1  0  0  0
  8 22  1  0  0  0
  9 10  1  0  0  0
  9 27  2  0  0  0
 10 11  2  0  0  0
 10 15  1  0  0  0
 11 12  1  0  0  0
 11 92  1  0  0  0
 12 13  2  0  0  0
 12 93  1  0  0  0
 13 14  1  0  0  0
 13 31  1  0  0  0
 14 15  2  0  0  0
 14 94  1  0  0  0
 15 95  1  0  0  0
 16 17  2  0  0  0
 16 21  1  0  0  0
 16 31  1  0  0  0
 17 18  1  0  0  0
 17 96  1  0  0  0
 18 19  2  0  0  0
 18 97  1  0  0  0
 19 20  1  0  0  0
 19 24  1  0  0  0
 20 21  2  0  0  0
 20 98  1  0  0  0
 21 23  1  0  0  0
 22 28  1  0  0  0
 22 32  2  0  0  0
 26 27  1  0  0  0
 28 99  1  0  0  0
 28100  1  0  0  0
 29101  1  0  0  0
 29102  1  0  0  0
 33 34  1  0  0  0
 33 66  1  0  0  0
 33 70  2  0  0  0
 34 36  1  0  0  0
 34 59  1  0  0  0
 34103  1  0  0  0
 35 44  2  0  0  0
 35 45  1  0  0  0
 35 68  1  0  0  0
 36 56  1  0  0  0
 36104  1  0  0  0
 37 39  1  0  0  0
 37 47  1  0  0  0
 37 66  1  0  0  0
 37105  1  0  0  0
 38 43  2  0  0  0
 38 46  1  0  0  0
 38 47  1  0  0  0
 39 64  1  0  0  0
 39 67  2  0  0  0
 40 52  1  0  0  0
 40 53  2  0  0  0
 40 58  1  0  0  0
 41106  1  0  0  0
 41107  1  0  0  0
 41108  1  0  0  0
 41 48  1  0  0  0
 42 43  1  0  0  0
 42 66  1  0  0  0
 42109  1  0  0  0
 42110  1  0  0  0
 43 44  1  0  0  0
 44111  1  0  0  0
 45 46  2  0  0  0
 45112  1  0  0  0
 46113  1  0  0  0
 47114  1  0  0  0
 47115  1  0  0  0
 48 56  1  0  0  0
 48 65  1  0  0  0
 48116  1  0  0  0
 49 50  1  0  0  0
 49 53  1  0  0  0
 49 64  1  0  0  0
 49117  1  0  0  0
 50 51  1  0  0  0
 50118  1  0  0  0
 50119  1  0  0  0
 51 52  1  0  0  0
 51120  1  0  0  0
 51121  1  0  0  0
 52122  1  0  0  0
 52123  1  0  0  0
 53 54  1  0  0  0
 54 55  2  0  0  0
 54124  1  0  0  0
 55 57  1  0  0  0
 55125  1  0  0  0
 56 69  2  0  0  0
 57 58  2  0  0  0
 57126  1  0  0  0
 58127  1  0  0  0
 59 60  1  0  0  0
 59 61  1  0  0  0
 59 62  1  0  0  0
 60128  1  0  0  0
 60129  1  0  0  0
 60130  1  0  0  0
 61131  1  0  0  0
 61132  1  0  0  0
 61133  1  0  0  0
 62134  1  0  0  0
 62135  1  0  0  0
 62136  1  0  0  0
 63 65  1  0  0  0
 63137  1  0  0  0
 63138  1  0  0  0
 63139  1  0  0  0
 64140  1  0  0  0
 65141  1  0  0  0
 68 76  1  0  0  0
 71 73  2  0  0  0
 71 79  1  0  0  0
 71142  1  0  0  0
 72 74  1  0  0  0
 72 78  2  0  0  0
 72143  1  0  0  0
 73 78  1  0  0  0
 73 80  1  0  0  0
 74 79  2  0  0  0
 74 81  1  0  0  0
 75 77  1  0  0  0
 75 81  1  0  0  0
 75144  1  0  0  0
 75145  1  0  0  0
 76 77  1  0  0  0
 76146  1  0  0  0
 76147  1  0  0  0
 77 82  1  0  0  0
 77148  1  0  0  0
 80149  1  0  0  0
 81150  1  0  0  0
 82151  1  0  0  0
M  ISO  4   1 100  68 101  76 101  80 100
M  END
> <chiral flag>
0

> <version>
0

> <s_m_source_file>
/data/baiqing/PycharmProjects/Reinvent-master-3.2/result/LINK_invent/BTK/process_docking_weight1_custom_product_contain_oxygen_bond_distance_aromatic_linkinvent_7_9_3/rearranged_h_0199.sdf

> <i_m_source_file_index>
32

> <r_mmod_Potential_Energy-OPLS-2005>
41.3113784790039

> <r_mmod_Stretch_Energy-OPLS-2005>
90.3777236938477

> <r_mmod_Bend_Energy-OPLS-2005>
164.347076416016

> <r_mmod_Torsional_Energy-OPLS-2005>
265.583282470703

> <r_mmod_Improper_Torsional_Energy-OPLS-2005>
4.12911701202393

> <r_mmod_Van_der_Waal_Energy-OPLS-2005>
138.2568359375

> <r_mmod_Electrostatic_Energy-OPLS-2005>
-430.801361083984

> <r_mmod_Solvation_Energy-OPLS-2005>
-241.219192504883

> <b_mmod_Minimization_Converged-OPLS-2005>
0

> <r_mmod_RMS_Derivative-OPLS-2005>
4.99628400802612

$$$$
32
                    3D
 Structure written by MMmdl.
154162  0  0  1  0            999 V2000
  -30.6631  -14.5888   20.4698 C   0  0  0  0  0  0
  -30.4202  -12.3510   19.4603 C   0  0  0  0  0  0
  -29.5037  -12.4820   18.2259 C   0  0  0  0  0  0
  -28.0268  -12.3324   18.6395 C   0  0  0  0  0  0
  -27.6480  -13.2177   19.8572 C   0  0  2  0  0  0
  -28.6876  -13.0940   20.9935 C   0  0  0  0  0  0
  -25.2543  -13.8186   20.5694 C   0  0  0  0  0  0
  -24.1814  -13.0455   20.9194 C   0  0  0  0  0  0
  -24.6381  -11.6918   20.8748 C   0  0  0  0  0  0
  -23.9059  -10.4304   21.0401 C   0  0  0  0  0  0
  -24.3614   -9.4210   21.9173 C   0  0  0  0  0  0
  -23.6295   -8.2241   22.0741 C   0  0  0  0  0  0
  -22.4270   -8.0278   21.3538 C   0  0  0  0  0  0
  -21.9909   -9.0257   20.4640 C   0  0  0  0  0  0
  -22.7236  -10.2142   20.3053 C   0  0  0  0  0  0
  -21.6858   -6.0731   22.5276 C   0  0  0  0  0  0
  -21.4014   -6.5627   23.8215 C   0  0  0  0  0  0
  -21.3664   -5.6781   24.9176 C   0  0  0  0  0  0
  -21.6050   -4.3041   24.7223 C   0  0  0  0  0  0
  -21.8821   -3.8135   23.4341 C   0  0  0  0  0  0
  -21.9191   -4.6958   22.3400 C   0  0  0  0  0  0
  -22.7831  -13.5236   21.1862 C   0  0  0  0  0  0
  -22.1663   -4.2156   21.0977 F   0  0  0  0  0  0
  -21.5638   -3.4514   25.7728 F   0  0  0  0  0  0
  -30.0096  -13.3902   20.4255 N   0  0  0  0  0  0
  -26.2949  -12.9364   20.3282 N   0  0  0  0  0  0
  -25.9301  -11.6518   20.5741 N   0  0  0  0  0  0
  -22.0464  -12.8238   22.0421 N   0  0  0  0  0  0
  -25.4275  -15.1911   20.4110 N   0  0  0  0  0  0
  -31.8380  -14.6909   20.1107 O   0  0  0  0  0  0
  -21.6633   -6.8871   21.4230 O   0  0  0  0  0  0
  -22.3503  -14.5535   20.6693 O   0  0  0  0  0  0
  -24.6195  -31.8635   23.2071 C   0  0  0  0  0  0
  -25.9066  -32.4811   23.8377 C   0  0  1  0  0  0
  -27.2250  -27.3590   20.1001 C   0  0  0  0  0  0
  -25.5920  -33.8611   24.2310 N   0  0  0  0  0  0
  -23.4111  -30.4881   21.5489 C   0  0  2  0  0  0
  -24.8555  -28.9443   20.1155 C   0  0  0  0  0  0
  -22.7433  -29.4639   22.4958 C   0  0  0  0  0  0
  -18.0276  -28.1374   22.8490 C   0  0  0  0  0  0
  -24.1485  -36.7294   23.2639 C   0  0  0  0  0  0
  -25.9467  -30.8064   21.3716 C   0  0  0  0  0  0
  -26.0211  -29.4353   20.7151 C   0  0  0  0  0  0
  -27.2056  -28.6493   20.7041 C   0  0  0  0  0  0
  -26.0282  -26.8970   19.5045 C   0  0  0  0  0  0
  -24.8569  -27.6787   19.5097 C   0  0  0  0  0  0
  -23.6241  -29.8220   20.1636 C   0  0  0  0  0  0
  -25.4114  -36.3101   24.0330 C   0  0  1  0  0  0
  -20.5870  -28.3671   23.1295 C   0  0  2  0  0  0
  -20.6765  -26.9406   22.5415 C   0  0  0  0  0  0
  -19.5745  -26.6383   21.5212 C   0  0  0  0  0  0
  -18.1923  -26.7914   22.1623 C   0  0  0  0  0  0
  -19.1526  -28.8836   23.2888 C   0  0  0  0  0  0
  -18.9454  -30.1440   23.8911 C   0  0  0  0  0  0
  -17.6460  -30.6587   24.0557 C   0  0  0  0  0  0
  -25.9044  -34.9471   23.5114 C   0  0  0  0  0  0
  -16.5353  -29.9093   23.6323 C   0  0  0  0  0  0
  -16.7263  -28.6502   23.0355 C   0  0  0  0  0  0
  -26.4498  -31.6602   25.0719 C   0  0  0  0  0  0
  -25.3750  -31.3714   26.1460 C   0  0  0  0  0  0
  -27.0335  -30.3035   24.6113 C   0  0  0  0  0  0
  -27.6065  -32.4337   25.7479 C   0  0  0  0  0  0
  -27.5578  -37.1798   24.8469 C   0  0  0  0  0  0
  -21.4151  -29.3047   22.3695 N   0  0  0  0  0  0
  -26.4291  -37.3791   23.9417 N   0  0  0  0  0  0
  -24.6777  -31.0679   22.1010 N   0  0  0  0  0  0
  -23.4178  -28.8169   23.3007 O   0  0  0  0  0  0
  -28.3823  -26.5793   20.1430 O   0  0  0  0  0  0
  -26.5610  -34.8936   22.4674 O   0  0  0  0  0  0
  -23.5371  -32.1436   23.7421 O   0  0  0  0  0  0
  -29.3126  -20.0074   22.3906 C   0  0  0  0  0  0
  -29.7184  -18.6943   22.0541 C   0  0  0  0  0  0
  -29.7131  -18.3701   20.6793 C   0  0  0  0  0  0
  -28.9779  -20.5491   20.2058 C   0  0  0  0  0  0
  -28.2642  -22.7387   19.0122 C   0  0  0  0  0  0
  -30.3072  -17.0471   20.1073 C   0  0  0  0  0  0
  -28.3614  -23.9202   20.0436 C   0  0  0  0  0  0
  -28.5173  -25.3508   19.3569 C   0  0  0  0  0  0
  -28.9572  -20.9313   21.4734 N   0  0  0  0  0  0
  -29.3223  -19.3181   19.7838 N   0  0  0  0  0  0
  -30.1406  -17.7964   23.0423 N   0  0  0  0  0  0
  -28.5823  -21.4222   19.2037 N   0  0  0  0  0  0
  -29.9113  -15.7089   20.6487 N   0  0  0  0  0  0
  -27.8471  -23.0297   17.8877 O   0  0  0  0  0  0
  -31.4670  -12.4418   19.1647 H   0  0  0  0  0  0
  -30.3238  -11.3579   19.9031 H   0  0  0  0  0  0
  -29.7617  -11.7244   17.4829 H   0  0  0  0  0  0
  -29.6618  -13.4491   17.7455 H   0  0  0  0  0  0
  -27.8680  -11.2824   18.8899 H   0  0  0  0  0  0
  -27.3714  -12.5444   17.7934 H   0  0  0  0  0  0
  -27.6619  -14.2476   19.5016 H   0  0  0  0  0  0
  -28.6752  -12.0890   21.4173 H   0  0  0  0  0  0
  -28.4417  -13.7705   21.8125 H   0  0  0  0  0  0
  -25.2773   -9.5689   22.4731 H   0  0  0  0  0  0
  -24.0023   -7.4623   22.7444 H   0  0  0  0  0  0
  -21.0850   -8.8778   19.8935 H   0  0  0  0  0  0
  -22.3701  -10.9680   19.6157 H   0  0  0  0  0  0
  -21.2002   -7.6134   23.9728 H   0  0  0  0  0  0
  -21.1488   -6.0494   25.9084 H   0  0  0  0  0  0
  -22.0595   -2.7597   23.2836 H   0  0  0  0  0  0
  -22.4078  -11.9938   22.4888 H   0  0  0  0  0  0
  -21.1061  -13.1249   22.2581 H   0  0  0  0  0  0
  -24.6619  -15.8470   20.5232 H   0  0  0  0  0  0
  -26.2762  -15.6300   20.0776 H   0  0  0  0  0  0
  -26.7113  -32.5498   23.1109 H   0  0  0  0  0  0
  -25.0092  -33.9794   25.0465 H   0  0  0  0  0  0
  -22.7014  -31.3065   21.4061 H   0  0  0  0  0  0
  -23.3766  -35.9607   23.3311 H   0  0  0  0  0  0
  -24.3569  -36.8909   22.2052 H   0  0  0  0  0  0
  -23.7225  -37.6490   23.6655 H   0  0  0  0  0  0
  -26.0658  -31.5711   20.6034 H   0  0  0  0  0  0
  -26.8323  -30.8589   21.9937 H   0  0  0  0  0  0
  -28.1034  -29.0229   21.1772 H   0  0  0  0  0  0
  -25.9605  -25.9183   19.0537 H   0  0  0  0  0  0
  -23.9522  -27.2954   19.0586 H   0  0  0  0  0  0
  -23.7478  -30.6011   19.4107 H   0  0  0  0  0  0
  -22.7434  -29.2548   19.8555 H   0  0  0  0  0  0
  -25.1280  -36.1954   25.0821 H   0  0  0  0  0  0
  -20.9961  -28.3248   24.1414 H   0  0  0  0  0  0
  -20.5663  -26.2281   23.3599 H   0  0  0  0  0  0
  -21.6625  -26.7443   22.1201 H   0  0  0  0  0  0
  -19.6922  -25.6299   21.1223 H   0  0  0  0  0  0
  -19.6687  -27.3202   20.6744 H   0  0  0  0  0  0
  -17.4185  -26.6667   21.4029 H   0  0  0  0  0  0
  -18.0338  -26.0046   22.9005 H   0  0  0  0  0  0
  -19.7940  -30.7240   24.2295 H   0  0  0  0  0  0
  -17.5029  -31.6269   24.5153 H   0  0  0  0  0  0
  -15.5359  -30.3005   23.7646 H   0  0  0  0  0  0
  -15.8654  -28.0828   22.7079 H   0  0  0  0  0  0
  -24.5908  -30.7087   25.7790 H   0  0  0  0  0  0
  -24.8966  -32.2877   26.4932 H   0  0  0  0  0  0
  -25.8098  -30.8855   27.0203 H   0  0  0  0  0  0
  -26.2885  -29.6793   24.1171 H   0  0  0  0  0  0
  -27.4104  -29.7284   25.4583 H   0  0  0  0  0  0
  -27.8722  -30.4364   23.9274 H   0  0  0  0  0  0
  -27.2678  -33.3623   26.2092 H   0  0  0  0  0  0
  -28.3858  -32.6933   25.0298 H   0  0  0  0  0  0
  -28.0755  -31.8442   26.5373 H   0  0  0  0  0  0
  -28.2595  -38.0097   24.7517 H   0  0  0  0  0  0
  -28.1076  -36.2625   24.6285 H   0  0  0  0  0  0
  -27.2288  -37.1424   25.8871 H   0  0  0  0  0  0
  -20.9310  -29.8789   21.6928 H   0  0  0  0  0  0
  -26.0176  -38.2856   24.1456 H   0  0  0  0  0  0
  -29.3017  -20.3361   23.4204 H   0  0  0  0  0  0
  -31.3863  -17.1622   20.2088 H   0  0  0  0  0  0
  -30.1237  -17.0250   19.0317 H   0  0  0  0  0  0
  -29.1928  -23.7408   20.7248 H   0  0  0  0  0  0
  -27.4514  -23.9048   20.6437 H   0  0  0  0  0  0
  -27.9166  -25.4309   18.4515 H   0  0  0  0  0  0
  -29.5349  -25.3882   18.9661 H   0  0  0  0  0  0
  -30.3384  -18.1177   23.9882 H   0  0  0  0  0  0
  -30.5931  -16.9186   22.7945 H   0  0  0  0  0  0
  -28.4797  -20.9192   18.3387 H   0  0  0  0  0  0
  -28.9574  -15.6103   20.9586 H   0  0  0  0  0  0
  1 25  1  0  0  0
  1 30  2  0  0  0
  1 83  1  0  0  0
  2  3  1  0  0  0
  2 25  1  0  0  0
  2 85  1  0  0  0
  2 86  1  0  0  0
  3  4  1  0  0  0
  3 87  1  0  0  0
  3 88  1  0  0  0
  4  5  1  0  0  0
  4 89  1  0  0  0
  4 90  1  0  0  0
  5  6  1  0  0  0
  5 26  1  0  0  0
  5 91  1  0  0  0
  6 25  1  0  0  0
  6 92  1  0  0  0
  6 93  1  0  0  0
  7  8  2  0  0  0
  7 26  1  0  0  0
  7 29  1  0  0  0
  8  9  1  0  0  0
  8 22  1  0  0  0
  9 10  1  0  0  0
  9 27  2  0  0  0
 10 11  2  0  0  0
 10 15  1  0  0  0
 11 12  1  0  0  0
 11 94  1  0  0  0
 12 13  2  0  0  0
 12 95  1  0  0  0
 13 14  1  0  0  0
 13 31  1  0  0  0
 14 15  2  0  0  0
 14 96  1  0  0  0
 15 97  1  0  0  0
 16 17  2  0  0  0
 16 21  1  0  0  0
 16 31  1  0  0  0
 17 18  1  0  0  0
 17 98  1  0  0  0
 18 19  2  0  0  0
 18 99  1  0  0  0
 19 20  1  0  0  0
 19 24  1  0  0  0
 20 21  2  0  0  0
 20100  1  0  0  0
 21 23  1  0  0  0
 22 28  1  0  0  0
 22 32  2  0  0  0
 26 27  1  0  0  0
 28101  1  0  0  0
 28102  1  0  0  0
 29103  1  0  0  0
 29104  1  0  0  0
 33 34  1  0  0  0
 33 66  1  0  0  0
 33 70  2  0  0  0
 34 36  1  0  0  0
 34 59  1  0  0  0
 34105  1  0  0  0
 35 44  2  0  0  0
 35 45  1  0  0  0
 35 68  1  0  0  0
 36 56  1  0  0  0
 36106  1  0  0  0
 37 39  1  0  0  0
 37 47  1  0  0  0
 37 66  1  0  0  0
 37107  1  0  0  0
 38 43  2  0  0  0
 38 46  1  0  0  0
 38 47  1  0  0  0
 39 64  1  0  0  0
 39 67  2  0  0  0
 40 52  1  0  0  0
 40 53  2  0  0  0
 40 58  1  0  0  0
 41108  1  0  0  0
 41109  1  0  0  0
 41110  1  0  0  0
 41 48  1  0  0  0
 42 43  1  0  0  0
 42 66  1  0  0  0
 42111  1  0  0  0
 42112  1  0  0  0
 43 44  1  0  0  0
 44113  1  0  0  0
 45 46  2  0  0  0
 45114  1  0  0  0
 46115  1  0  0  0
 47116  1  0  0  0
 47117  1  0  0  0
 48 56  1  0  0  0
 48 65  1  0  0  0
 48118  1  0  0  0
 49 50  1  0  0  0
 49 53  1  0  0  0
 49 64  1  0  0  0
 49119  1  0  0  0
 50 51  1  0  0  0
 50120  1  0  0  0
 50121  1  0  0  0
 51 52  1  0  0  0
 51122  1  0  0  0
 51123  1  0  0  0
 52124  1  0  0  0
 52125  1  0  0  0
 53 54  1  0  0  0
 54 55  2  0  0  0
 54126  1  0  0  0
 55 57  1  0  0  0
 55127  1  0  0  0
 56 69  2  0  0  0
 57 58  2  0  0  0
 57128  1  0  0  0
 58129  1  0  0  0
 59 60  1  0  0  0
 59 61  1  0  0  0
 59 62  1  0  0  0
 60130  1  0  0  0
 60131  1  0  0  0
 60132  1  0  0  0
 61133  1  0  0  0
 61134  1  0  0  0
 61135  1  0  0  0
 62136  1  0  0  0
 62137  1  0  0  0
 62138  1  0  0  0
 63 65  1  0  0  0
 63139  1  0  0  0
 63140  1  0  0  0
 63141  1  0  0  0
 64142  1  0  0  0
 65143  1  0  0  0
 68 78  1  0  0  0
 71 72  2  0  0  0
 71 79  1  0  0  0
 71144  1  0  0  0
 72 73  1  0  0  0
 72 81  1  0  0  0
 73 76  1  0  0  0
 73 80  2  0  0  0
 74 79  2  0  0  0
 74 80  1  0  0  0
 74 82  1  0  0  0
 75 77  1  0  0  0
 75 82  1  0  0  0
 75 84  2  0  0  0
 76 83  1  0  0  0
 76145  1  0  0  0
 76146  1  0  0  0
 77 78  1  0  0  0
 77147  1  0  0  0
 77148  1  0  0  0
 78149  1  0  0  0
 78150  1  0  0  0
 81151  1  0  0  0
 81152  1  0  0  0
 82153  1  0  0  0
 83154  1  0  0  0
M  ISO  4   1 100  68 101  78 101  83 100
M  END
> <chiral flag>
0

> <version>
0

> <s_m_source_file>
/data/baiqing/PycharmProjects/Reinvent-master-3.2/result/LINK_invent/BTK/process_docking_weight1_custom_product_contain_oxygen_bond_distance_aromatic_linkinvent_7_9_3/rearranged_h_0199.sdf

> <i_m_source_file_index>
33

> <r_mmod_Potential_Energy-OPLS-2005>
-473.107269287109

> <r_mmod_Stretch_Energy-OPLS-2005>
60.6374588012695

> <r_mmod_Bend_Energy-OPLS-2005>
182.359237670898

> <r_mmod_Torsional_Energy-OPLS-2005>
209.890289306641

> <r_mmod_Improper_Torsional_Energy-OPLS-2005>
9.3515567779541

> <r_mmod_Van_der_Waal_Energy-OPLS-2005>
156.248199462891

> <r_mmod_Electrostatic_Energy-OPLS-2005>
-880.717956542969

> <r_mmod_Solvation_Energy-OPLS-2005>
-245.764663696289

> <b_mmod_Minimization_Converged-OPLS-2005>
0

> <r_mmod_RMS_Derivative-OPLS-2005>
2.23765301704407

$$$$
33
                    3D
 Structure written by MMmdl.
166174  0  0  1  0            999 V2000
  -30.6446  -14.7387   20.5084 C   0  0  0  0  0  0
  -30.4418  -12.4578   19.4918 C   0  0  0  0  0  0
  -29.5232  -12.5485   18.2517 C   0  0  0  0  0  0
  -28.0470  -12.3744   18.6553 C   0  0  0  0  0  0
  -27.6564  -13.2463   19.8796 C   0  0  2  0  0  0
  -28.7043  -13.1490   21.0155 C   0  0  0  0  0  0
  -25.2406  -13.8116   20.5601 C   0  0  0  0  0  0
  -24.1746  -13.0376   20.9210 C   0  0  0  0  0  0
  -24.6407  -11.6898   20.8769 C   0  0  0  0  0  0
  -23.9077  -10.4273   21.0385 C   0  0  0  0  0  0
  -24.3632   -9.4194   21.9158 C   0  0  0  0  0  0
  -23.6303   -8.2229   22.0745 C   0  0  0  0  0  0
  -22.4276   -8.0266   21.3550 C   0  0  0  0  0  0
  -21.9892   -9.0237   20.4645 C   0  0  0  0  0  0
  -22.7236  -10.2112   20.3043 C   0  0  0  0  0  0
  -21.6867   -6.0706   22.5259 C   0  0  0  0  0  0
  -21.4021   -6.5617   23.8194 C   0  0  0  0  0  0
  -21.3665   -5.6767   24.9163 C   0  0  0  0  0  0
  -21.6066   -4.3037   24.7207 C   0  0  0  0  0  0
  -21.8825   -3.8132   23.4328 C   0  0  0  0  0  0
  -21.9201   -4.6940   22.3393 C   0  0  0  0  0  0
  -22.7769  -13.5167   21.1839 C   0  0  0  0  0  0
  -22.1682   -4.2135   21.0973 F   0  0  0  0  0  0
  -21.5625   -3.4524   25.7722 F   0  0  0  0  0  0
  -30.0204  -13.5057   20.4577 N   0  0  0  0  0  0
  -26.3002  -12.9475   20.3416 N   0  0  0  0  0  0
  -25.9382  -11.6591   20.5854 N   0  0  0  0  0  0
  -22.0409  -12.8205   22.0415 N   0  0  0  0  0  0
  -25.3735  -15.1776   20.3718 N   0  0  0  0  0  0
  -31.7586  -14.8779   19.9968 O   0  0  0  0  0  0
  -21.6666   -6.8853   21.4227 O   0  0  0  0  0  0
  -22.3479  -14.5456   20.6644 O   0  0  0  0  0  0
  -24.6248  -31.8558   23.2028 C   0  0  0  0  0  0
  -25.9095  -32.4762   23.8378 C   0  0  1  0  0  0
  -27.2419  -27.2850   20.1405 C   0  0  0  0  0  0
  -25.5896  -33.8570   24.2301 N   0  0  0  0  0  0
  -23.4249  -30.4806   21.5384 C   0  0  2  0  0  0
  -24.8850  -28.9350   20.1096 C   0  0  0  0  0  0
  -22.7487  -29.4604   22.4845 C   0  0  0  0  0  0
  -18.0302  -28.1395   22.8489 C   0  0  0  0  0  0
  -24.1479  -36.7279   23.2642 C   0  0  0  0  0  0
  -25.9706  -30.7793   21.3859 C   0  0  0  0  0  0
  -26.0501  -29.4059   20.7259 C   0  0  0  0  0  0
  -27.2269  -28.5918   20.7354 C   0  0  0  0  0  0
  -26.0551  -26.8890   19.4776 C   0  0  0  0  0  0
  -24.8920  -27.6845   19.4737 C   0  0  0  0  0  0
  -23.6524  -29.8189   20.1532 C   0  0  0  0  0  0
  -25.4116  -36.3071   24.0320 C   0  0  1  0  0  0
  -20.5914  -28.3701   23.1258 C   0  0  2  0  0  0
  -20.6784  -26.9408   22.5412 C   0  0  0  0  0  0
  -19.5757  -26.6382   21.5222 C   0  0  0  0  0  0
  -18.1942  -26.7932   22.1634 C   0  0  0  0  0  0
  -19.1561  -28.8860   23.2891 C   0  0  0  0  0  0
  -18.9471  -30.1460   23.8899 C   0  0  0  0  0  0
  -17.6475  -30.6600   24.0556 C   0  0  0  0  0  0
  -25.9039  -34.9431   23.5114 C   0  0  0  0  0  0
  -16.5369  -29.9095   23.6326 C   0  0  0  0  0  0
  -16.7291  -28.6520   23.0322 C   0  0  0  0  0  0
  -26.4468  -31.6552   25.0729 C   0  0  0  0  0  0
  -25.3690  -31.3595   26.1421 C   0  0  0  0  0  0
  -27.0409  -30.3043   24.6133 C   0  0  0  0  0  0
  -27.5995  -32.4249   25.7574 C   0  0  0  0  0  0
  -27.5587  -37.1756   24.8448 C   0  0  0  0  0  0
  -21.4189  -29.3058   22.3616 N   0  0  0  0  0  0
  -26.4308  -37.3753   23.9394 N   0  0  0  0  0  0
  -24.6915  -31.0569   22.0979 N   0  0  0  0  0  0
  -23.4219  -28.8124   23.2921 O   0  0  0  0  0  0
  -28.3527  -26.4104   20.2328 O   0  0  0  0  0  0
  -26.5629  -34.8899   22.4688 O   0  0  0  0  0  0
  -23.5402  -32.1356   23.7346 O   0  0  0  0  0  0
  -29.6955  -18.3971   21.1869 C   0  0  0  0  0  0
  -28.9559  -18.3621   22.4229 C   0  0  0  0  0  0
  -29.6434  -17.0723   20.6560 C   0  0  0  0  0  0
  -29.0871  -19.2146   23.6505 C   0  0  0  0  0  0
  -30.5441  -22.8302   23.5818 C   0  0  0  0  0  0
  -32.7480  -23.3457   22.5366 C   0  0  0  0  0  0
  -29.1051  -23.8228   20.6793 C   0  0  0  0  0  0
  -29.1037  -22.2671   20.2005 C   0  0  0  0  0  0
  -31.3254  -21.5989   21.3399 C   0  0  0  0  0  0
  -28.2130  -24.9447   19.9329 C   0  0  0  0  0  0
  -31.6782  -22.2495   22.7145 C   0  0  0  0  0  0
  -29.8718  -21.1236   21.0604 C   0  0  2  0  0  0
  -27.8927  -17.5943   22.2974 N   0  0  0  0  0  0
  -29.9045  -19.6971   20.5146 N   0  0  0  0  0  0
  -30.0187  -15.8040   21.1278 N   0  0  0  0  0  0
  -27.9266  -17.0002   20.7202 S   0  0  0  0  0  0
  -31.4903  -12.5558   19.1996 H   0  0  0  0  0  0
  -30.3596  -11.4735   19.9502 H   0  0  0  0  0  0
  -29.7998  -11.7943   17.5155 H   0  0  0  0  0  0
  -29.6639  -13.5167   17.7672 H   0  0  0  0  0  0
  -27.8910  -11.3199   18.8832 H   0  0  0  0  0  0
  -27.3967  -12.6036   17.8103 H   0  0  0  0  0  0
  -27.6598  -14.2800   19.5315 H   0  0  0  0  0  0
  -28.7362  -12.1392   21.4270 H   0  0  0  0  0  0
  -28.4315  -13.8025   21.8451 H   0  0  0  0  0  0
  -25.2770   -9.5696   22.4728 H   0  0  0  0  0  0
  -24.0029   -7.4625   22.7453 H   0  0  0  0  0  0
  -21.0798   -8.8763   19.8950 H   0  0  0  0  0  0
  -22.3678  -10.9654   19.6166 H   0  0  0  0  0  0
  -21.2023   -7.6129   23.9708 H   0  0  0  0  0  0
  -21.1482   -6.0488   25.9066 H   0  0  0  0  0  0
  -22.0590   -2.7581   23.2832 H   0  0  0  0  0  0
  -22.4062  -11.9935   22.4914 H   0  0  0  0  0  0
  -21.1000  -13.1199   22.2532 H   0  0  0  0  0  0
  -24.5820  -15.8044   20.4552 H   0  0  0  0  0  0
  -26.1943  -15.6265   19.9923 H   0  0  0  0  0  0
  -26.7171  -32.5449   23.1132 H   0  0  0  0  0  0
  -24.9979  -33.9722   25.0400 H   0  0  0  0  0  0
  -22.7205  -31.3017   21.3950 H   0  0  0  0  0  0
  -23.3759  -35.9597   23.3302 H   0  0  0  0  0  0
  -24.3588  -36.8895   22.2056 H   0  0  0  0  0  0
  -23.7229  -37.6472   23.6668 H   0  0  0  0  0  0
  -26.1120  -31.5469   20.6231 H   0  0  0  0  0  0
  -26.8455  -30.8266   22.0208 H   0  0  0  0  0  0
  -28.1125  -28.9480   21.2413 H   0  0  0  0  0  0
  -25.9986  -25.9394   18.9692 H   0  0  0  0  0  0
  -24.0028  -27.3223   18.9786 H   0  0  0  0  0  0
  -23.7860  -30.6004   19.4034 H   0  0  0  0  0  0
  -22.7716  -29.2570   19.8375 H   0  0  0  0  0  0
  -25.1306  -36.1919   25.0820 H   0  0  0  0  0  0
  -21.0042  -28.3272   24.1371 H   0  0  0  0  0  0
  -20.5651  -26.2299   23.3619 H   0  0  0  0  0  0
  -21.6639  -26.7395   22.1213 H   0  0  0  0  0  0
  -19.6886  -25.6286   21.1251 H   0  0  0  0  0  0
  -19.6689  -27.3183   20.6747 H   0  0  0  0  0  0
  -17.4194  -26.6686   21.4046 H   0  0  0  0  0  0
  -18.0336  -26.0094   22.9046 H   0  0  0  0  0  0
  -19.7938  -30.7290   24.2253 H   0  0  0  0  0  0
  -17.5016  -31.6270   24.5156 H   0  0  0  0  0  0
  -15.5354  -30.2984   23.7653 H   0  0  0  0  0  0
  -15.8693  -28.0855   22.6984 H   0  0  0  0  0  0
  -24.5834  -30.7018   25.7662 H   0  0  0  0  0  0
  -24.8909  -32.2737   26.4940 H   0  0  0  0  0  0
  -25.7979  -30.8610   27.0124 H   0  0  0  0  0  0
  -26.3105  -29.6773   24.0996 H   0  0  0  0  0  0
  -27.4034  -29.7232   25.4629 H   0  0  0  0  0  0
  -27.8942  -30.4460   23.9517 H   0  0  0  0  0  0
  -27.2620  -33.3588   26.2065 H   0  0  0  0  0  0
  -28.3894  -32.6723   25.0481 H   0  0  0  0  0  0
  -28.0553  -31.8377   26.5566 H   0  0  0  0  0  0
  -28.2606  -38.0049   24.7521 H   0  0  0  0  0  0
  -28.1090  -36.2591   24.6248 H   0  0  0  0  0  0
  -27.2332  -37.1377   25.8860 H   0  0  0  0  0  0
  -20.9320  -29.8832   21.6902 H   0  0  0  0  0  0
  -26.0192  -38.2818   24.1438 H   0  0  0  0  0  0
  -30.0674  -19.6824   23.7117 H   0  0  0  0  0  0
  -28.9695  -18.6133   24.5527 H   0  0  0  0  0  0
  -28.3246  -19.9914   23.6851 H   0  0  0  0  0  0
  -30.9080  -22.9769   24.5992 H   0  0  0  0  0  0
  -29.6672  -22.1918   23.6661 H   0  0  0  0  0  0
  -30.2275  -23.8111   23.2342 H   0  0  0  0  0  0
  -33.0907  -23.7186   23.5037 H   0  0  0  0  0  0
  -32.3413  -24.2027   21.9921 H   0  0  0  0  0  0
  -33.6225  -22.9937   21.9895 H   0  0  0  0  0  0
  -28.7556  -23.8326   21.7090 H   0  0  0  0  0  0
  -30.1414  -24.1670   20.7079 H   0  0  0  0  0  0
  -29.5138  -22.2500   19.1881 H   0  0  0  0  0  0
  -28.0637  -21.9574   20.0949 H   0  0  0  0  0  0
  -31.6307  -22.2671   20.5319 H   0  0  0  0  0  0
  -32.0071  -20.7538   21.2192 H   0  0  0  0  0  0
  -28.3523  -24.8415   18.8565 H   0  0  0  0  0  0
  -27.1872  -24.6441   20.1466 H   0  0  0  0  0  0
  -32.1199  -21.4519   23.3123 H   0  0  0  0  0  0
  -29.3292  -21.0638   21.9928 H   0  0  0  0  0  0
  -30.0805  -19.6309   19.5152 H   0  0  0  0  0  0
  -29.3276  -15.4583   21.7760 H   0  0  0  0  0  0
  1 25  1  0  0  0
  1 30  2  0  0  0
  1 85  1  0  0  0
  2  3  1  0  0  0
  2 25  1  0  0  0
  2 87  1  0  0  0
  2 88  1  0  0  0
  3  4  1  0  0  0
  3 89  1  0  0  0
  3 90  1  0  0  0
  4  5  1  0  0  0
  4 91  1  0  0  0
  4 92  1  0  0  0
  5  6  1  0  0  0
  5 26  1  0  0  0
  5 93  1  0  0  0
  6 25  1  0  0  0
  6 94  1  0  0  0
  6 95  1  0  0  0
  7  8  2  0  0  0
  7 26  1  0  0  0
  7 29  1  0  0  0
  8  9  1  0  0  0
  8 22  1  0  0  0
  9 10  1  0  0  0
  9 27  2  0  0  0
 10 11  2  0  0  0
 10 15  1  0  0  0
 11 12  1  0  0  0
 11 96  1  0  0  0
 12 13  2  0  0  0
 12 97  1  0  0  0
 13 14  1  0  0  0
 13 31  1  0  0  0
 14 15  2  0  0  0
 14 98  1  0  0  0
 15 99  1  0  0  0
 16 17  2  0  0  0
 16 21  1  0  0  0
 16 31  1  0  0  0
 17 18  1  0  0  0
 17100  1  0  0  0
 18 19  2  0  0  0
 18101  1  0  0  0
 19 20  1  0  0  0
 19 24  1  0  0  0
 20 21  2  0  0  0
 20102  1  0  0  0
 21 23  1  0  0  0
 22 28  1  0  0  0
 22 32  2  0  0  0
 26 27  1  0  0  0
 28103  1  0  0  0
 28104  1  0  0  0
 29105  1  0  0  0
 29106  1  0  0  0
 33 34  1  0  0  0
 33 66  1  0  0  0
 33 70  2  0  0  0
 34 36  1  0  0  0
 34 59  1  0  0  0
 34107  1  0  0  0
 35 44  2  0  0  0
 35 45  1  0  0  0
 35 68  1  0  0  0
 36 56  1  0  0  0
 36108  1  0  0  0
 37 39  1  0  0  0
 37 47  1  0  0  0
 37 66  1  0  0  0
 37109  1  0  0  0
 38 43  2  0  0  0
 38 46  1  0  0  0
 38 47  1  0  0  0
 39 64  1  0  0  0
 39 67  2  0  0  0
 40 52  1  0  0  0
 40 53  2  0  0  0
 40 58  1  0  0  0
 41110  1  0  0  0
 41111  1  0  0  0
 41112  1  0  0  0
 41 48  1  0  0  0
 42 43  1  0  0  0
 42 66  1  0  0  0
 42113  1  0  0  0
 42114  1  0  0  0
 43 44  1  0  0  0
 44115  1  0  0  0
 45 46  2  0  0  0
 45116  1  0  0  0
 46117  1  0  0  0
 47118  1  0  0  0
 47119  1  0  0  0
 48 56  1  0  0  0
 48 65  1  0  0  0
 48120  1  0  0  0
 49 50  1  0  0  0
 49 53  1  0  0  0
 49 64  1  0  0  0
 49121  1  0  0  0
 50 51  1  0  0  0
 50122  1  0  0  0
 50123  1  0  0  0
 51 52  1  0  0  0
 51124  1  0  0  0
 51125  1  0  0  0
 52126  1  0  0  0
 52127  1  0  0  0
 53 54  1  0  0  0
 54 55  2  0  0  0
 54128  1  0  0  0
 55 57  1  0  0  0
 55129  1  0  0  0
 56 69  2  0  0  0
 57 58  2  0  0  0
 57130  1  0  0  0
 58131  1  0  0  0
 59 60  1  0  0  0
 59 61  1  0  0  0
 59 62  1  0  0  0
 60132  1  0  0  0
 60133  1  0  0  0
 60134  1  0  0  0
 61135  1  0  0  0
 61136  1  0  0  0
 61137  1  0  0  0
 62138  1  0  0  0
 62139  1  0  0  0
 62140  1  0  0  0
 63 65  1  0  0  0
 63141  1  0  0  0
 63142  1  0  0  0
 63143  1  0  0  0
 64144  1  0  0  0
 65145  1  0  0  0
 68 80  1  0  0  0
 71 72  1  0  0  0
 71 73  2  0  0  0
 71 84  1  0  0  0
 72 74  1  0  0  0
 72 83  2  0  0  0
 73 85  1  0  0  0
 73 86  1  0  0  0
 74146  1  0  0  0
 74147  1  0  0  0
 74148  1  0  0  0
 75149  1  0  0  0
 75150  1  0  0  0
 75151  1  0  0  0
 75 81  1  0  0  0
 76 81  1  0  0  0
 76152  1  0  0  0
 76153  1  0  0  0
 76154  1  0  0  0
 77 78  1  0  0  0
 77 80  1  0  0  0
 77155  1  0  0  0
 77156  1  0  0  0
 78157  1  0  0  0
 78158  1  0  0  0
 78 82  1  0  0  0
 79 81  1  0  0  0
 79 82  1  0  0  0
 79159  1  0  0  0
 79160  1  0  0  0
 80161  1  0  0  0
 80162  1  0  0  0
 81163  1  0  0  0
 82 84  1  0  0  0
 82164  1  0  0  0
 83 86  1  0  0  0
 84165  1  0  0  0
 85166  1  0  0  0
M  ISO  4   1 100  68 101  80 101  85 100
M  END
> <chiral flag>
0

> <version>
0

> <s_m_source_file>
/data/baiqing/PycharmProjects/Reinvent-master-3.2/result/LINK_invent/BTK/process_docking_weight1_custom_product_contain_oxygen_bond_distance_aromatic_linkinvent_7_9_3/rearranged_h_0199.sdf

> <i_m_source_file_index>
34

> <r_mmod_Potential_Energy-OPLS-2005>
425.053100585938

> <r_mmod_Stretch_Energy-OPLS-2005>
129.498947143555

> <r_mmod_Bend_Energy-OPLS-2005>
278.204376220703

> <r_mmod_Torsional_Energy-OPLS-2005>
458.396667480469

> <r_mmod_Improper_Torsional_Energy-OPLS-2005>
28.5182113647461

> <r_mmod_Van_der_Waal_Energy-OPLS-2005>
121.636566162109

> <r_mmod_Electrostatic_Energy-OPLS-2005>
-456.041931152344

> <r_mmod_Solvation_Energy-OPLS-2005>
-212.178955078125

> <b_mmod_Minimization_Converged-OPLS-2005>
0

> <r_mmod_RMS_Derivative-OPLS-2005>
4.32711124420166

$$$$
34
                    3D
 Structure written by MMmdl.
152160  0  0  1  0            999 V2000
  -30.6280  -14.6356   20.4974 C   0  0  0  0  0  0
  -30.4388  -12.3877   19.4503 C   0  0  0  0  0  0
  -29.5087  -12.5090   18.2227 C   0  0  0  0  0  0
  -28.0309  -12.3489   18.6325 C   0  0  0  0  0  0
  -27.6544  -13.2157   19.8633 C   0  0  2  0  0  0
  -28.7003  -13.0690   20.9922 C   0  0  0  0  0  0
  -25.2570  -13.8168   20.5688 C   0  0  0  0  0  0
  -24.1834  -13.0439   20.9197 C   0  0  0  0  0  0
  -24.6398  -11.6909   20.8737 C   0  0  0  0  0  0
  -23.9065  -10.4294   21.0401 C   0  0  0  0  0  0
  -24.3614   -9.4208   21.9176 C   0  0  0  0  0  0
  -23.6288   -8.2244   22.0752 C   0  0  0  0  0  0
  -22.4267   -8.0284   21.3549 C   0  0  0  0  0  0
  -21.9903   -9.0258   20.4653 C   0  0  0  0  0  0
  -22.7235  -10.2135   20.3054 C   0  0  0  0  0  0
  -21.6857   -6.0732   22.5277 C   0  0  0  0  0  0
  -21.4018   -6.5632   23.8209 C   0  0  0  0  0  0
  -21.3659   -5.6786   24.9172 C   0  0  0  0  0  0
  -21.6043   -4.3050   24.7225 C   0  0  0  0  0  0
  -21.8819   -3.8144   23.4346 C   0  0  0  0  0  0
  -21.9195   -4.6960   22.3401 C   0  0  0  0  0  0
  -22.7857  -13.5236   21.1853 C   0  0  0  0  0  0
  -22.1664   -4.2145   21.0979 F   0  0  0  0  0  0
  -21.5627   -3.4535   25.7738 F   0  0  0  0  0  0
  -30.0171  -13.4089   20.4293 N   0  0  0  0  0  0
  -26.2994  -12.9346   20.3312 N   0  0  0  0  0  0
  -25.9324  -11.6505   20.5744 N   0  0  0  0  0  0
  -22.0494  -12.8236   22.0412 N   0  0  0  0  0  0
  -25.4284  -15.1889   20.4095 N   0  0  0  0  0  0
  -31.7966  -14.7816   20.1229 O   0  0  0  0  0  0
  -21.6638   -6.8878   21.4242 O   0  0  0  0  0  0
  -22.3550  -14.5540   20.6695 O   0  0  0  0  0  0
  -24.6259  -31.8613   23.2046 C   0  0  0  0  0  0
  -25.9112  -32.4786   23.8368 C   0  0  1  0  0  0
  -27.2223  -27.3268   20.1119 C   0  0  0  0  0  0
  -25.5929  -33.8587   24.2294 N   0  0  0  0  0  0
  -23.4184  -30.4868   21.5478 C   0  0  2  0  0  0
  -24.8641  -28.9461   20.1138 C   0  0  0  0  0  0
  -22.7472  -29.4630   22.4943 C   0  0  0  0  0  0
  -18.0284  -28.1384   22.8485 C   0  0  0  0  0  0
  -24.1485  -36.7297   23.2633 C   0  0  0  0  0  0
  -25.9603  -30.7956   21.3741 C   0  0  0  0  0  0
  -26.0349  -29.4240   20.7159 C   0  0  0  0  0  0
  -27.2186  -28.6271   20.7044 C   0  0  0  0  0  0
  -26.0276  -26.9074   19.4803 C   0  0  0  0  0  0
  -24.8622  -27.6925   19.4881 C   0  0  0  0  0  0
  -23.6328  -29.8257   20.1623 C   0  0  0  0  0  0
  -25.4106  -36.3086   24.0329 C   0  0  1  0  0  0
  -20.5884  -28.3686   23.1287 C   0  0  2  0  0  0
  -20.6774  -26.9409   22.5412 C   0  0  0  0  0  0
  -19.5747  -26.6381   21.5215 C   0  0  0  0  0  0
  -18.1927  -26.7925   22.1628 C   0  0  0  0  0  0
  -19.1537  -28.8853   23.2880 C   0  0  0  0  0  0
  -18.9460  -30.1457   23.8893 C   0  0  0  0  0  0
  -17.6458  -30.6584   24.0566 C   0  0  0  0  0  0
  -25.9050  -34.9456   23.5111 C   0  0  0  0  0  0
  -16.5350  -29.9084   23.6325 C   0  0  0  0  0  0
  -16.7271  -28.6504   23.0342 C   0  0  0  0  0  0
  -26.4495  -31.6588   25.0732 C   0  0  0  0  0  0
  -25.3734  -31.3741   26.1468 C   0  0  0  0  0  0
  -27.0319  -30.3003   24.6184 C   0  0  0  0  0  0
  -27.6059  -32.4315   25.7500 C   0  0  0  0  0  0
  -27.5585  -37.1787   24.8452 C   0  0  0  0  0  0
  -21.4185  -29.3043   22.3685 N   0  0  0  0  0  0
  -26.4280  -37.3785   23.9423 N   0  0  0  0  0  0
  -24.6870  -31.0640   22.0990 N   0  0  0  0  0  0
  -23.4202  -28.8153   23.3005 O   0  0  0  0  0  0
  -28.3385  -26.4758   20.1408 O   0  0  0  0  0  0
  -26.5614  -34.8921   22.4674 O   0  0  0  0  0  0
  -23.5425  -32.1405   23.7383 O   0  0  0  0  0  0
  -28.6698  -19.2875   20.7682 C   0  0  0  0  0  0
  -28.7071  -17.8691   20.8861 C   0  0  0  0  0  0
  -30.9982  -19.1908   20.2862 C   0  0  0  0  0  0
  -29.8479  -20.0118   20.4615 C   0  0  0  0  0  0
  -29.9027  -17.1294   20.6888 C   0  0  0  0  0  0
  -28.8206  -22.4325   20.3763 C   0  0  0  0  0  0
  -28.0796  -25.0342   20.3781 C   0  0  0  0  0  0
  -29.2591  -23.9690   20.3017 C   0  0  1  0  0  0
  -31.0296  -17.8273   20.3885 N   0  0  0  0  0  0
  -29.9376  -21.4420   20.3408 N   0  0  0  0  0  0
  -29.8074  -15.6805   20.8360 N   0  0  0  0  0  0
  -30.1213  -24.1547   21.4119 O   0  0  0  0  0  0
  -31.4808  -12.5073   19.1478 H   0  0  0  0  0  0
  -30.3683  -11.3913   19.8889 H   0  0  0  0  0  0
  -29.7715  -11.7602   17.4747 H   0  0  0  0  0  0
  -29.6544  -13.4797   17.7460 H   0  0  0  0  0  0
  -27.8630  -11.2953   18.8582 H   0  0  0  0  0  0
  -27.3793  -12.5874   17.7912 H   0  0  0  0  0  0
  -27.6726  -14.2509   19.5227 H   0  0  0  0  0  0
  -28.7102  -12.0473   21.3751 H   0  0  0  0  0  0
  -28.4477  -13.7005   21.8453 H   0  0  0  0  0  0
  -25.2761   -9.5683   22.4749 H   0  0  0  0  0  0
  -24.0003   -7.4634   22.7463 H   0  0  0  0  0  0
  -21.0836   -8.8777   19.8959 H   0  0  0  0  0  0
  -22.3692  -10.9671   19.6164 H   0  0  0  0  0  0
  -21.2011   -7.6140   23.9707 H   0  0  0  0  0  0
  -21.1480   -6.0521   25.9073 H   0  0  0  0  0  0
  -22.0600   -2.7609   23.2846 H   0  0  0  0  0  0
  -22.4106  -11.9903   22.4814 H   0  0  0  0  0  0
  -21.1112  -13.1268   22.2604 H   0  0  0  0  0  0
  -24.6553  -15.8377   20.5100 H   0  0  0  0  0  0
  -26.2579  -15.6227   20.0273 H   0  0  0  0  0  0
  -26.7182  -32.5463   23.1119 H   0  0  0  0  0  0
  -25.0071  -33.9738   25.0435 H   0  0  0  0  0  0
  -22.7112  -31.3069   21.4073 H   0  0  0  0  0  0
  -23.3758  -35.9616   23.3263 H   0  0  0  0  0  0
  -24.3593  -36.8953   22.2056 H   0  0  0  0  0  0
  -23.7220  -37.6482   23.6676 H   0  0  0  0  0  0
  -26.0909  -31.5598   20.6067 H   0  0  0  0  0  0
  -26.8413  -30.8446   22.0024 H   0  0  0  0  0  0
  -28.1174  -28.9919   21.1818 H   0  0  0  0  0  0
  -25.9594  -25.9654   18.9609 H   0  0  0  0  0  0
  -23.9672  -27.3238   19.0061 H   0  0  0  0  0  0
  -23.7541  -30.6037   19.4078 H   0  0  0  0  0  0
  -22.7527  -29.2567   19.8572 H   0  0  0  0  0  0
  -25.1275  -36.1933   25.0818 H   0  0  0  0  0  0
  -20.9978  -28.3261   24.1408 H   0  0  0  0  0  0
  -20.5676  -26.2293   23.3609 H   0  0  0  0  0  0
  -21.6643  -26.7437   22.1206 H   0  0  0  0  0  0
  -19.6905  -25.6292   21.1241 H   0  0  0  0  0  0
  -19.6676  -27.3191   20.6745 H   0  0  0  0  0  0
  -17.4192  -26.6668   21.4034 H   0  0  0  0  0  0
  -18.0328  -26.0072   22.9028 H   0  0  0  0  0  0
  -19.7938  -30.7276   24.2252 H   0  0  0  0  0  0
  -17.5014  -31.6263   24.5170 H   0  0  0  0  0  0
  -15.5348  -30.2985   23.7647 H   0  0  0  0  0  0
  -15.8674  -28.0823   22.7048 H   0  0  0  0  0  0
  -24.5888  -30.7109   25.7809 H   0  0  0  0  0  0
  -24.8952  -32.2918   26.4902 H   0  0  0  0  0  0
  -25.8065  -30.8912   27.0237 H   0  0  0  0  0  0
  -26.2884  -29.6769   24.1204 H   0  0  0  0  0  0
  -27.3999  -29.7248   25.4689 H   0  0  0  0  0  0
  -27.8765  -30.4270   23.9407 H   0  0  0  0  0  0
  -27.2670  -33.3619   26.2070 H   0  0  0  0  0  0
  -28.3871  -32.6872   25.0329 H   0  0  0  0  0  0
  -28.0718  -31.8443   26.5423 H   0  0  0  0  0  0
  -28.2557  -38.0129   24.7572 H   0  0  0  0  0  0
  -28.1124  -36.2668   24.6173 H   0  0  0  0  0  0
  -27.2325  -37.1320   25.8857 H   0  0  0  0  0  0
  -20.9354  -29.8786   21.6919 H   0  0  0  0  0  0
  -26.0158  -38.2847   24.1474 H   0  0  0  0  0  0
  -27.7360  -19.8068   20.9259 H   0  0  0  0  0  0
  -27.7874  -17.3566   21.1311 H   0  0  0  0  0  0
  -31.9475  -19.6510   20.0522 H   0  0  0  0  0  0
  -28.1529  -22.2233   19.5380 H   0  0  0  0  0  0
  -28.2258  -22.2643   21.2758 H   0  0  0  0  0  0
  -27.5703  -24.9383   21.3385 H   0  0  0  0  0  0
  -27.3736  -24.6706   19.6360 H   0  0  0  0  0  0
  -29.8172  -24.1417   19.3797 H   0  0  0  0  0  0
  -30.8616  -21.8450   20.1903 H   0  0  0  0  0  0
  -28.9000  -15.3619   21.1312 H   0  0  0  0  0  0
  -29.7283  -23.6976   22.1485 H   0  0  0  0  0  0
  1 25  1  0  0  0
  1 30  2  0  0  0
  1 81  1  0  0  0
  2  3  1  0  0  0
  2 25  1  0  0  0
  2 83  1  0  0  0
  2 84  1  0  0  0
  3  4  1  0  0  0
  3 85  1  0  0  0
  3 86  1  0  0  0
  4  5  1  0  0  0
  4 87  1  0  0  0
  4 88  1  0  0  0
  5  6  1  0  0  0
  5 26  1  0  0  0
  5 89  1  0  0  0
  6 25  1  0  0  0
  6 90  1  0  0  0
  6 91  1  0  0  0
  7  8  2  0  0  0
  7 26  1  0  0  0
  7 29  1  0  0  0
  8  9  1  0  0  0
  8 22  1  0  0  0
  9 10  1  0  0  0
  9 27  2  0  0  0
 10 11  2  0  0  0
 10 15  1  0  0  0
 11 12  1  0  0  0
 11 92  1  0  0  0
 12 13  2  0  0  0
 12 93  1  0  0  0
 13 14  1  0  0  0
 13 31  1  0  0  0
 14 15  2  0  0  0
 14 94  1  0  0  0
 15 95  1  0  0  0
 16 17  2  0  0  0
 16 21  1  0  0  0
 16 31  1  0  0  0
 17 18  1  0  0  0
 17 96  1  0  0  0
 18 19  2  0  0  0
 18 97  1  0  0  0
 19 20  1  0  0  0
 19 24  1  0  0  0
 20 21  2  0  0  0
 20 98  1  0  0  0
 21 23  1  0  0  0
 22 28  1  0  0  0
 22 32  2  0  0  0
 26 27  1  0  0  0
 28 99  1  0  0  0
 28100  1  0  0  0
 29101  1  0  0  0
 29102  1  0  0  0
 33 34  1  0  0  0
 33 66  1  0  0  0
 33 70  2  0  0  0
 34 36  1  0  0  0
 34 59  1  0  0  0
 34103  1  0  0  0
 35 44  2  0  0  0
 35 45  1  0  0  0
 35 68  1  0  0  0
 36 56  1  0  0  0
 36104  1  0  0  0
 37 39  1  0  0  0
 37 47  1  0  0  0
 37 66  1  0  0  0
 37105  1  0  0  0
 38 43  2  0  0  0
 38 46  1  0  0  0
 38 47  1  0  0  0
 39 64  1  0  0  0
 39 67  2  0  0  0
 40 52  1  0  0  0
 40 53  2  0  0  0
 40 58  1  0  0  0
 41106  1  0  0  0
 41107  1  0  0  0
 41108  1  0  0  0
 41 48  1  0  0  0
 42 43  1  0  0  0
 42 66  1  0  0  0
 42109  1  0  0  0
 42110  1  0  0  0
 43 44  1  0  0  0
 44111  1  0  0  0
 45 46  2  0  0  0
 45112  1  0  0  0
 46113  1  0  0  0
 47114  1  0  0  0
 47115  1  0  0  0
 48 56  1  0  0  0
 48 65  1  0  0  0
 48116  1  0  0  0
 49 50  1  0  0  0
 49 53  1  0  0  0
 49 64  1  0  0  0
 49117  1  0  0  0
 50 51  1  0  0  0
 50118  1  0  0  0
 50119  1  0  0  0
 51 52  1  0  0  0
 51120  1  0  0  0
 51121  1  0  0  0
 52122  1  0  0  0
 52123  1  0  0  0
 53 54  1  0  0  0
 54 55  2  0  0  0
 54124  1  0  0  0
 55 57  1  0  0  0
 55125  1  0  0  0
 56 69  2  0  0  0
 57 58  2  0  0  0
 57126  1  0  0  0
 58127  1  0  0  0
 59 60  1  0  0  0
 59 61  1  0  0  0
 59 62  1  0  0  0
 60128  1  0  0  0
 60129  1  0  0  0
 60130  1  0  0  0
 61131  1  0  0  0
 61132  1  0  0  0
 61133  1  0  0  0
 62134  1  0  0  0
 62135  1  0  0  0
 62136  1  0  0  0
 63 65  1  0  0  0
 63137  1  0  0  0
 63138  1  0  0  0
 63139  1  0  0  0
 64140  1  0  0  0
 65141  1  0  0  0
 68 77  1  0  0  0
 71 72  2  0  0  0
 71 74  1  0  0  0
 71142  1  0  0  0
 72 75  1  0  0  0
 72143  1  0  0  0
 73 74  2  0  0  0
 73 79  1  0  0  0
 73144  1  0  0  0
 74 80  1  0  0  0
 75 79  2  0  0  0
 75 81  1  0  0  0
 76 78  1  0  0  0
 76 80  1  0  0  0
 76145  1  0  0  0
 76146  1  0  0  0
 77 78  1  0  0  0
 77147  1  0  0  0
 77148  1  0  0  0
 78 82  1  0  0  0
 78149  1  0  0  0
 80150  1  0  0  0
 81151  1  0  0  0
 82152  1  0  0  0
M  ISO  4   1 100  68 101  77 101  81 100
M  END
> <chiral flag>
0

> <version>
0

> <s_m_source_file>
/data/baiqing/PycharmProjects/Reinvent-master-3.2/result/LINK_invent/BTK/process_docking_weight1_custom_product_contain_oxygen_bond_distance_aromatic_linkinvent_7_9_3/rearranged_h_0199.sdf

> <i_m_source_file_index>
35

> <r_mmod_Potential_Energy-OPLS-2005>
-53.1477890014648

> <r_mmod_Stretch_Energy-OPLS-2005>
75.6783676147461

> <r_mmod_Bend_Energy-OPLS-2005>
148.355484008789

> <r_mmod_Torsional_Energy-OPLS-2005>
229.803817749023

> <r_mmod_Improper_Torsional_Energy-OPLS-2005>
4.32048940658569

> <r_mmod_Van_der_Waal_Energy-OPLS-2005>
147.069000244141

> <r_mmod_Electrostatic_Energy-OPLS-2005>
-432.38671875

> <r_mmod_Solvation_Energy-OPLS-2005>
-271.690826416016

> <b_mmod_Minimization_Converged-OPLS-2005>
0

> <r_mmod_RMS_Derivative-OPLS-2005>
0.941344141960144

$$$$
35
                    3D
 Structure written by MMmdl.
157165  0  0  1  0            999 V2000
  -30.6884  -14.5219   20.4983 C   0  0  0  0  0  0
  -30.4195  -12.3127   19.4483 C   0  0  0  0  0  0
  -29.4983  -12.4798   18.2217 C   0  0  0  0  0  0
  -28.0209  -12.3371   18.6359 C   0  0  0  0  0  0
  -27.6553  -13.2086   19.8677 C   0  0  2  0  0  0
  -28.6973  -13.0465   20.9986 C   0  0  0  0  0  0
  -25.2565  -13.8162   20.5696 C   0  0  0  0  0  0
  -24.1822  -13.0436   20.9193 C   0  0  0  0  0  0
  -24.6380  -11.6901   20.8741 C   0  0  0  0  0  0
  -23.9045  -10.4287   21.0410 C   0  0  0  0  0  0
  -24.3600   -9.4204   21.9187 C   0  0  0  0  0  0
  -23.6279   -8.2236   22.0754 C   0  0  0  0  0  0
  -22.4262   -8.0276   21.3547 C   0  0  0  0  0  0
  -21.9887   -9.0251   20.4654 C   0  0  0  0  0  0
  -22.7215  -10.2134   20.3068 C   0  0  0  0  0  0
  -21.6850   -6.0731   22.5280 C   0  0  0  0  0  0
  -21.4013   -6.5635   23.8211 C   0  0  0  0  0  0
  -21.3656   -5.6794   24.9176 C   0  0  0  0  0  0
  -21.6041   -4.3054   24.7227 C   0  0  0  0  0  0
  -21.8814   -3.8143   23.4350 C   0  0  0  0  0  0
  -21.9186   -4.6954   22.3405 C   0  0  0  0  0  0
  -22.7849  -13.5242   21.1850 C   0  0  0  0  0  0
  -22.1659   -4.2139   21.0985 F   0  0  0  0  0  0
  -21.5626   -3.4544   25.7744 F   0  0  0  0  0  0
  -30.0250  -13.3331   20.4341 N   0  0  0  0  0  0
  -26.2988  -12.9336   20.3347 N   0  0  0  0  0  0
  -25.9304  -11.6494   20.5775 N   0  0  0  0  0  0
  -22.0477  -12.8254   22.0412 N   0  0  0  0  0  0
  -25.4290  -15.1883   20.4121 N   0  0  0  0  0  0
  -31.8666  -14.6148   20.1436 O   0  0  0  0  0  0
  -21.6625   -6.8871   21.4245 O   0  0  0  0  0  0
  -22.3550  -14.5551   20.6690 O   0  0  0  0  0  0
  -24.6153  -31.8668   23.2093 C   0  0  0  0  0  0
  -25.9041  -32.4821   23.8392 C   0  0  1  0  0  0
  -27.2299  -27.4179   20.1125 C   0  0  0  0  0  0
  -25.5883  -33.8618   24.2320 N   0  0  0  0  0  0
  -23.4049  -30.4895   21.5491 C   0  0  2  0  0  0
  -24.8540  -28.9507   20.1164 C   0  0  0  0  0  0
  -22.7424  -29.4657   22.4987 C   0  0  0  0  0  0
  -18.0271  -28.1380   22.8502 C   0  0  0  0  0  0
  -24.1484  -36.7310   23.2642 C   0  0  0  0  0  0
  -25.9356  -30.8282   21.3661 C   0  0  0  0  0  0
  -26.0141  -29.4610   20.7139 C   0  0  0  0  0  0
  -27.2092  -28.7028   20.7056 C   0  0  0  0  0  0
  -26.0568  -26.9216   19.5099 C   0  0  0  0  0  0
  -24.8710  -27.6823   19.5091 C   0  0  0  0  0  0
  -23.6158  -29.8193   20.1648 C   0  0  0  0  0  0
  -25.4108  -36.3112   24.0339 C   0  0  1  0  0  0
  -20.5867  -28.3665   23.1322 C   0  0  2  0  0  0
  -20.6761  -26.9398   22.5425 C   0  0  0  0  0  0
  -19.5737  -26.6389   21.5223 C   0  0  0  0  0  0
  -18.1916  -26.7927   22.1635 C   0  0  0  0  0  0
  -19.1525  -28.8839   23.2908 C   0  0  0  0  0  0
  -18.9456  -30.1445   23.8922 C   0  0  0  0  0  0
  -17.6460  -30.6590   24.0569 C   0  0  0  0  0  0
  -25.9033  -34.9476   23.5131 C   0  0  0  0  0  0
  -16.5347  -29.9098   23.6328 C   0  0  0  0  0  0
  -16.7261  -28.6509   23.0357 C   0  0  0  0  0  0
  -26.4470  -31.6611   25.0725 C   0  0  0  0  0  0
  -25.3733  -31.3736   26.1478 C   0  0  0  0  0  0
  -27.0298  -30.3047   24.6118 C   0  0  0  0  0  0
  -27.6053  -32.4342   25.7469 C   0  0  0  0  0  0
  -27.5581  -37.1810   24.8470 C   0  0  0  0  0  0
  -21.4148  -29.3029   22.3726 N   0  0  0  0  0  0
  -26.4297  -37.3795   23.9406 N   0  0  0  0  0  0
  -24.6696  -31.0767   22.0997 N   0  0  0  0  0  0
  -23.4192  -28.8204   23.3034 O   0  0  0  0  0  0
  -28.3724  -26.6473   20.1060 O   0  0  0  0  0  0
  -26.5610  -34.8929   22.4701 O   0  0  0  0  0  0
  -23.5346  -32.1423   23.7488 O   0  0  0  0  0  0
  -31.0638  -17.4024   19.5054 C   0  0  0  0  0  0
  -31.1669  -18.7585   19.1840 C   0  0  0  0  0  0
  -30.1061  -16.9915   20.4532 C   0  0  0  0  0  0
  -29.4607  -19.2340   20.6189 C   0  0  0  0  0  0
  -29.8706  -23.0268   22.2129 C   0  0  0  0  0  0
  -28.5636  -20.3159   21.2373 C   0  0  0  0  0  0
  -28.5630  -24.1324   20.2992 C   0  0  0  0  0  0
  -28.3508  -25.5120   20.9975 C   0  0  0  0  0  0
  -28.6652  -22.8880   21.2537 C   0  0  1  0  0  0
  -30.3627  -19.6761   19.7444 N   0  0  0  0  0  0
  -29.3021  -17.9509   20.9858 N   0  0  0  0  0  0
  -29.9319  -15.6062   20.8105 N   0  0  0  0  0  0
  -28.7321  -21.5974   20.4966 N   0  3  0  0  0  0
  -31.4662  -12.3932   19.1489 H   0  0  0  0  0  0
  -30.3121  -11.3164   19.8807 H   0  0  0  0  0  0
  -29.7468  -11.7372   17.4624 H   0  0  0  0  0  0
  -29.6628  -13.4550   17.7605 H   0  0  0  0  0  0
  -27.8486  -11.2849   18.8678 H   0  0  0  0  0  0
  -27.3652  -12.5709   17.7962 H   0  0  0  0  0  0
  -27.6831  -14.2462   19.5340 H   0  0  0  0  0  0
  -28.6775  -12.0306   21.3954 H   0  0  0  0  0  0
  -28.4659  -13.6979   21.8436 H   0  0  0  0  0  0
  -25.2743   -9.5674   22.4765 H   0  0  0  0  0  0
  -23.9984   -7.4623   22.7470 H   0  0  0  0  0  0
  -21.0814   -8.8775   19.8965 H   0  0  0  0  0  0
  -22.3666  -10.9678   19.6187 H   0  0  0  0  0  0
  -21.2015   -7.6146   23.9714 H   0  0  0  0  0  0
  -21.1486   -6.0526   25.9079 H   0  0  0  0  0  0
  -22.0596   -2.7601   23.2855 H   0  0  0  0  0  0
  -22.4076  -11.9925   22.4832 H   0  0  0  0  0  0
  -21.1106  -13.1313   22.2618 H   0  0  0  0  0  0
  -24.6614  -15.8420   20.5241 H   0  0  0  0  0  0
  -26.2776  -15.6295   20.0817 H   0  0  0  0  0  0
  -26.7114  -32.5535   23.1159 H   0  0  0  0  0  0
  -24.9991  -33.9782   25.0436 H   0  0  0  0  0  0
  -22.6929  -31.3056   21.4088 H   0  0  0  0  0  0
  -23.3741  -35.9650   23.3335 H   0  0  0  0  0  0
  -24.3565  -36.8896   22.2049 H   0  0  0  0  0  0
  -23.7252  -37.6530   23.6634 H   0  0  0  0  0  0
  -26.0526  -31.5948   20.5993 H   0  0  0  0  0  0
  -26.8215  -30.8805   21.9874 H   0  0  0  0  0  0
  -28.1058  -29.0918   21.1680 H   0  0  0  0  0  0
  -26.0599  -25.9454   19.0454 H   0  0  0  0  0  0
  -23.9794  -27.2854   19.0440 H   0  0  0  0  0  0
  -23.7262  -30.5929   19.4041 H   0  0  0  0  0  0
  -22.7396  -29.2391   19.8693 H   0  0  0  0  0  0
  -25.1290  -36.1975   25.0835 H   0  0  0  0  0  0
  -20.9959  -28.3228   24.1444 H   0  0  0  0  0  0
  -20.5666  -26.2268   23.3609 H   0  0  0  0  0  0
  -21.6629  -26.7439   22.1215 H   0  0  0  0  0  0
  -19.6893  -25.6309   21.1230 H   0  0  0  0  0  0
  -19.6672  -27.3218   20.6767 H   0  0  0  0  0  0
  -17.4183  -26.6684   21.4037 H   0  0  0  0  0  0
  -18.0309  -26.0064   22.9026 H   0  0  0  0  0  0
  -19.7931  -30.7252   24.2307 H   0  0  0  0  0  0
  -17.5017  -31.6275   24.5158 H   0  0  0  0  0  0
  -15.5352  -30.3012   23.7635 H   0  0  0  0  0  0
  -15.8658  -28.0834   22.7073 H   0  0  0  0  0  0
  -24.5883  -30.7110   25.7817 H   0  0  0  0  0  0
  -24.8948  -32.2902   26.4937 H   0  0  0  0  0  0
  -25.8078  -30.8888   27.0228 H   0  0  0  0  0  0
  -26.2843  -29.6812   24.1167 H   0  0  0  0  0  0
  -27.4053  -29.7289   25.4587 H   0  0  0  0  0  0
  -27.8689  -30.4362   23.9282 H   0  0  0  0  0  0
  -27.2669  -33.3625   26.2086 H   0  0  0  0  0  0
  -28.3820  -32.6943   25.0263 H   0  0  0  0  0  0
  -28.0768  -31.8447   26.5342 H   0  0  0  0  0  0
  -28.2632  -38.0075   24.7490 H   0  0  0  0  0  0
  -28.1043  -36.2609   24.6330 H   0  0  0  0  0  0
  -27.2288  -37.1510   25.8872 H   0  0  0  0  0  0
  -20.9309  -29.8738   21.6939 H   0  0  0  0  0  0
  -26.0188  -38.2877   24.1397 H   0  0  0  0  0  0
  -31.7289  -16.7135   19.0053 H   0  0  0  0  0  0
  -31.8910  -19.1117   18.4641 H   0  0  0  0  0  0
  -29.7740  -23.9024   22.8530 H   0  0  0  0  0  0
  -30.8069  -23.1224   21.6620 H   0  0  0  0  0  0
  -29.9748  -22.1811   22.8899 H   0  0  0  0  0  0
  -28.8309  -20.4116   22.2878 H   0  0  0  0  0  0
  -27.5200  -20.0033   21.2047 H   0  0  0  0  0  0
  -29.4644  -24.1873   19.6885 H   0  0  0  0  0  0
  -27.7408  -23.9792   19.6001 H   0  0  0  0  0  0
  -29.1593  -25.6872   21.7063 H   0  0  0  0  0  0
  -27.4361  -25.4862   21.5942 H   0  0  0  0  0  0
  -27.7509  -22.8588   21.8501 H   0  0  0  0  0  0
  -29.0405  -15.3879   21.2235 H   0  0  0  0  0  0
  -28.0528  -21.5815   19.7553 H   0  0  0  0  0  0
  -29.6348  -21.4468   20.0577 H   0  0  0  0  0  0
  1 25  1  0  0  0
  1 30  2  0  0  0
  1 82  1  0  0  0
  2  3  1  0  0  0
  2 25  1  0  0  0
  2 84  1  0  0  0
  2 85  1  0  0  0
  3  4  1  0  0  0
  3 86  1  0  0  0
  3 87  1  0  0  0
  4  5  1  0  0  0
  4 88  1  0  0  0
  4 89  1  0  0  0
  5  6  1  0  0  0
  5 26  1  0  0  0
  5 90  1  0  0  0
  6 25  1  0  0  0
  6 91  1  0  0  0
  6 92  1  0  0  0
  7  8  2  0  0  0
  7 26  1  0  0  0
  7 29  1  0  0  0
  8  9  1  0  0  0
  8 22  1  0  0  0
  9 10  1  0  0  0
  9 27  2  0  0  0
 10 11  2  0  0  0
 10 15  1  0  0  0
 11 12  1  0  0  0
 11 93  1  0  0  0
 12 13  2  0  0  0
 12 94  1  0  0  0
 13 14  1  0  0  0
 13 31  1  0  0  0
 14 15  2  0  0  0
 14 95  1  0  0  0
 15 96  1  0  0  0
 16 17  2  0  0  0
 16 21  1  0  0  0
 16 31  1  0  0  0
 17 18  1  0  0  0
 17 97  1  0  0  0
 18 19  2  0  0  0
 18 98  1  0  0  0
 19 20  1  0  0  0
 19 24  1  0  0  0
 20 21  2  0  0  0
 20 99  1  0  0  0
 21 23  1  0  0  0
 22 28  1  0  0  0
 22 32  2  0  0  0
 26 27  1  0  0  0
 28100  1  0  0  0
 28101  1  0  0  0
 29102  1  0  0  0
 29103  1  0  0  0
 33 34  1  0  0  0
 33 66  1  0  0  0
 33 70  2  0  0  0
 34 36  1  0  0  0
 34 59  1  0  0  0
 34104  1  0  0  0
 35 44  2  0  0  0
 35 45  1  0  0  0
 35 68  1  0  0  0
 36 56  1  0  0  0
 36105  1  0  0  0
 37 39  1  0  0  0
 37 47  1  0  0  0
 37 66  1  0  0  0
 37106  1  0  0  0
 38 43  2  0  0  0
 38 46  1  0  0  0
 38 47  1  0  0  0
 39 64  1  0  0  0
 39 67  2  0  0  0
 40 52  1  0  0  0
 40 53  2  0  0  0
 40 58  1  0  0  0
 41107  1  0  0  0
 41108  1  0  0  0
 41109  1  0  0  0
 41 48  1  0  0  0
 42 43  1  0  0  0
 42 66  1  0  0  0
 42110  1  0  0  0
 42111  1  0  0  0
 43 44  1  0  0  0
 44112  1  0  0  0
 45 46  2  0  0  0
 45113  1  0  0  0
 46114  1  0  0  0
 47115  1  0  0  0
 47116  1  0  0  0
 48 56  1  0  0  0
 48 65  1  0  0  0
 48117  1  0  0  0
 49 50  1  0  0  0
 49 53  1  0  0  0
 49 64  1  0  0  0
 49118  1  0  0  0
 50 51  1  0  0  0
 50119  1  0  0  0
 50120  1  0  0  0
 51 52  1  0  0  0
 51121  1  0  0  0
 51122  1  0  0  0
 52123  1  0  0  0
 52124  1  0  0  0
 53 54  1  0  0  0
 54 55  2  0  0  0
 54125  1  0  0  0
 55 57  1  0  0  0
 55126  1  0  0  0
 56 69  2  0  0  0
 57 58  2  0  0  0
 57127  1  0  0  0
 58128  1  0  0  0
 59 60  1  0  0  0
 59 61  1  0  0  0
 59 62  1  0  0  0
 60129  1  0  0  0
 60130  1  0  0  0
 60131  1  0  0  0
 61132  1  0  0  0
 61133  1  0  0  0
 61134  1  0  0  0
 62135  1  0  0  0
 62136  1  0  0  0
 62137  1  0  0  0
 63 65  1  0  0  0
 63138  1  0  0  0
 63139  1  0  0  0
 63140  1  0  0  0
 64141  1  0  0  0
 65142  1  0  0  0
 68 78  1  0  0  0
 71 72  2  0  0  0
 71 73  1  0  0  0
 71143  1  0  0  0
 72 80  1  0  0  0
 72144  1  0  0  0
 73 81  2  0  0  0
 73 82  1  0  0  0
 74 76  1  0  0  0
 74 80  2  0  0  0
 74 81  1  0  0  0
 75145  1  0  0  0
 75146  1  0  0  0
 75147  1  0  0  0
 75 79  1  0  0  0
 76 83  1  0  0  0
 76148  1  0  0  0
 76149  1  0  0  0
 77 78  1  0  0  0
 77 79  1  0  0  0
 77150  1  0  0  0
 77151  1  0  0  0
 78152  1  0  0  0
 78153  1  0  0  0
 79 83  1  0  0  0
 79154  1  0  0  0
 82155  1  0  0  0
 83156  1  0  0  0
 83157  1  0  0  0
M  CHG  1  83   1
M  ISO  4   1 100  68 101  78 101  82 100
M  END
> <chiral flag>
0

> <version>
0

> <s_m_source_file>
/data/baiqing/PycharmProjects/Reinvent-master-3.2/result/LINK_invent/BTK/process_docking_weight1_custom_product_contain_oxygen_bond_distance_aromatic_linkinvent_7_9_3/rearranged_h_0199.sdf

> <i_m_source_file_index>
36

> <r_mmod_Potential_Energy-OPLS-2005>
-737.964294433594

> <r_mmod_Stretch_Energy-OPLS-2005>
42.9628715515137

> <r_mmod_Bend_Energy-OPLS-2005>
111.066017150879

> <r_mmod_Torsional_Energy-OPLS-2005>
250.674850463867

> <r_mmod_Improper_Torsional_Energy-OPLS-2005>
4.13229894638062

> <r_mmod_Van_der_Waal_Energy-OPLS-2005>
169.940811157227

> <r_mmod_Electrostatic_Energy-OPLS-2005>
-874.395751953125

> <r_mmod_Solvation_Energy-OPLS-2005>
-463.670532226562

> <b_mmod_Minimization_Converged-OPLS-2005>
0

> <r_mmod_RMS_Derivative-OPLS-2005>
1.38089656829834

$$$$
36
                    3D
 Structure written by MMmdl.
153161  0  0  1  0            999 V2000
  -30.5998  -14.7763   20.4878 C   0  0  0  0  0  0
  -30.4402  -12.4914   19.4749 C   0  0  0  0  0  0
  -29.4973  -12.5119   18.2536 C   0  0  0  0  0  0
  -28.0440  -12.2903   18.6984 C   0  0  0  0  0  0
  -27.6462  -13.2250   19.8674 C   0  0  2  0  0  0
  -28.6867  -13.1758   21.0054 C   0  0  0  0  0  0
  -25.2610  -13.8249   20.5868 C   0  0  0  0  0  0
  -24.1891  -13.0444   20.9237 C   0  0  0  0  0  0
  -24.6443  -11.6927   20.8799 C   0  0  0  0  0  0
  -23.9098  -10.4308   21.0426 C   0  0  0  0  0  0
  -24.3624   -9.4194   21.9186 C   0  0  0  0  0  0
  -23.6307   -8.2231   22.0732 C   0  0  0  0  0  0
  -22.4292   -8.0283   21.3518 C   0  0  0  0  0  0
  -21.9923   -9.0291   20.4623 C   0  0  0  0  0  0
  -22.7272  -10.2187   20.3064 C   0  0  0  0  0  0
  -21.6839   -6.0754   22.5283 C   0  0  0  0  0  0
  -21.4004   -6.5650   23.8213 C   0  0  0  0  0  0
  -21.3644   -5.6808   24.9176 C   0  0  0  0  0  0
  -21.6058   -4.3056   24.7215 C   0  0  0  0  0  0
  -21.8803   -3.8172   23.4317 C   0  0  0  0  0  0
  -21.9197   -4.6999   22.3395 C   0  0  0  0  0  0
  -22.7883  -13.5171   21.1913 C   0  0  0  0  0  0
  -22.1683   -4.2205   21.0960 F   0  0  0  0  0  0
  -21.5639   -3.4507   25.7696 F   0  0  0  0  0  0
  -29.9902  -13.5388   20.4272 N   0  0  0  0  0  0
  -26.2988  -12.9402   20.3450 N   0  0  0  0  0  0
  -25.9383  -11.6544   20.5896 N   0  0  0  0  0  0
  -22.0576  -12.8174   22.0451 N   0  0  0  0  0  0
  -25.4391  -15.1994   20.4377 N   0  0  0  0  0  0
  -31.7768  -14.8829   20.1412 O   0  0  0  0  0  0
  -21.6613   -6.8931   21.4250 O   0  0  0  0  0  0
  -22.3531  -14.5491   20.6775 O   0  0  0  0  0  0
  -24.6319  -31.8520   23.2004 C   0  0  0  0  0  0
  -25.9149  -32.4719   23.8314 C   0  0  1  0  0  0
  -27.2019  -27.2570   20.1257 C   0  0  0  0  0  0
  -25.5936  -33.8522   24.2213 N   0  0  0  0  0  0
  -23.4242  -30.4846   21.5415 C   0  0  2  0  0  0
  -24.8613  -28.9200   20.1132 C   0  0  0  0  0  0
  -22.7472  -29.4640   22.4895 C   0  0  0  0  0  0
  -18.0293  -28.1434   22.8545 C   0  0  0  0  0  0
  -24.1496  -36.7279   23.2629 C   0  0  0  0  0  0
  -25.9742  -30.7611   21.3829 C   0  0  0  0  0  0
  -26.0354  -29.3842   20.7226 C   0  0  0  0  0  0
  -27.2137  -28.5671   20.7084 C   0  0  0  0  0  0
  -26.0074  -26.8549   19.4955 C   0  0  0  0  0  0
  -24.8541  -27.6612   19.4929 C   0  0  0  0  0  0
  -23.6386  -29.8148   20.1592 C   0  0  0  0  0  0
  -25.4126  -36.3040   24.0324 C   0  0  1  0  0  0
  -20.5887  -28.3695   23.1218 C   0  0  2  0  0  0
  -20.6706  -26.9351   22.5545 C   0  0  0  0  0  0
  -19.5638  -26.6271   21.5431 C   0  0  0  0  0  0
  -18.1909  -26.7850   22.1961 C   0  0  0  0  0  0
  -19.1561  -28.8918   23.2836 C   0  0  0  0  0  0
  -18.9519  -30.1515   23.8836 C   0  0  0  0  0  0
  -17.6507  -30.6619   24.0661 C   0  0  0  0  0  0
  -25.9048  -34.9413   23.5064 C   0  0  0  0  0  0
  -16.5420  -29.9140   23.6457 C   0  0  0  0  0  0
  -16.7301  -28.6591   23.0362 C   0  0  0  0  0  0
  -26.4481  -31.6563   25.0730 C   0  0  0  0  0  0
  -25.3665  -31.3774   26.1435 C   0  0  0  0  0  0
  -27.0290  -30.2956   24.6257 C   0  0  0  0  0  0
  -27.6038  -32.4301   25.7478 C   0  0  0  0  0  0
  -27.5597  -37.1802   24.8451 C   0  0  0  0  0  0
  -21.4198  -29.2937   22.3483 N   0  0  0  0  0  0
  -26.4301  -37.3769   23.9392 N   0  0  0  0  0  0
  -24.6983  -31.0459   22.0998 N   0  0  0  0  0  0
  -23.4111  -28.8289   23.3117 O   0  0  0  0  0  0
  -28.3049  -26.3841   20.1002 O   0  0  0  0  0  0
  -26.5653  -34.8913   22.4651 O   0  0  0  0  0  0
  -23.5510  -32.1372   23.7348 O   0  0  0  0  0  0
  -31.0354  -18.0345   20.0180 C   0  0  0  0  0  0
  -30.6489  -19.3610   19.8862 C   0  0  0  0  0  0
  -29.8895  -17.3371   20.5086 C   0  0  0  0  0  0
  -29.0069  -22.2886   20.1248 C   0  0  0  0  0  0
  -28.4286  -20.7815   20.3864 C   0  0  0  0  0  0
  -28.2263  -24.9857   20.6619 C   0  0  0  0  0  0
  -28.0879  -23.6252   19.7818 C   0  0  2  0  0  0
  -28.8836  -18.2488   20.6793 N   0  0  0  0  0  0
  -29.3322  -19.5239   20.3168 N   0  0  0  0  0  0
  -29.7996  -15.8753   20.7914 N   0  0  0  0  0  0
  -26.6486  -23.2881   19.5753 N   0  3  0  0  0  0
  -31.4640  -12.6510   19.1373 H   0  0  0  0  0  0
  -30.4255  -11.5100   19.9541 H   0  0  0  0  0  0
  -29.7815  -11.7326   17.5471 H   0  0  0  0  0  0
  -29.5736  -13.4585   17.7219 H   0  0  0  0  0  0
  -27.9640  -11.2524   19.0278 H   0  0  0  0  0  0
  -27.3600  -12.4073   17.8585 H   0  0  0  0  0  0
  -27.6433  -14.2408   19.4691 H   0  0  0  0  0  0
  -28.7219  -12.1896   21.4672 H   0  0  0  0  0  0
  -28.3959  -13.8693   21.7967 H   0  0  0  0  0  0
  -25.2738   -9.5646   22.4811 H   0  0  0  0  0  0
  -23.9980   -7.4585   22.7414 H   0  0  0  0  0  0
  -21.0852   -8.8830   19.8931 H   0  0  0  0  0  0
  -22.3685  -10.9760   19.6212 H   0  0  0  0  0  0
  -21.1997   -7.6165   23.9709 H   0  0  0  0  0  0
  -21.1471   -6.0547   25.9077 H   0  0  0  0  0  0
  -22.0586   -2.7629   23.2799 H   0  0  0  0  0  0
  -22.4065  -11.9745   22.4828 H   0  0  0  0  0  0
  -21.1238  -13.1321   22.2669 H   0  0  0  0  0  0
  -24.7220  -15.8719   20.6896 H   0  0  0  0  0  0
  -26.3202  -15.6468   20.2085 H   0  0  0  0  0  0
  -26.7215  -32.5325   23.1063 H   0  0  0  0  0  0
  -25.0066  -33.9614   25.0348 H   0  0  0  0  0  0
  -22.7254  -31.3138   21.3982 H   0  0  0  0  0  0
  -23.3749  -35.9614   23.3277 H   0  0  0  0  0  0
  -24.3583  -36.8916   22.2034 H   0  0  0  0  0  0
  -23.7231  -37.6494   23.6657 H   0  0  0  0  0  0
  -26.1223  -31.5221   20.6161 H   0  0  0  0  0  0
  -26.8496  -30.7929   22.0230 H   0  0  0  0  0  0
  -28.1200  -28.9306   21.1745 H   0  0  0  0  0  0
  -25.9575  -25.9093   18.9819 H   0  0  0  0  0  0
  -23.9548  -27.3058   19.0089 H   0  0  0  0  0  0
  -23.7746  -30.5879   19.4014 H   0  0  0  0  0  0
  -22.7539  -29.2552   19.8555 H   0  0  0  0  0  0
  -25.1301  -36.1922   25.0832 H   0  0  0  0  0  0
  -21.0037  -28.3392   24.1332 H   0  0  0  0  0  0
  -20.5570  -26.2414   23.3891 H   0  0  0  0  0  0
  -21.6549  -26.7262   22.1394 H   0  0  0  0  0  0
  -19.6791  -25.6154   21.1497 H   0  0  0  0  0  0
  -19.6491  -27.3027   20.6906 H   0  0  0  0  0  0
  -17.4050  -26.6301   21.4589 H   0  0  0  0  0  0
  -18.0588  -26.0219   22.9647 H   0  0  0  0  0  0
  -19.8049  -30.7314   24.2109 H   0  0  0  0  0  0
  -17.5153  -31.6272   24.5352 H   0  0  0  0  0  0
  -15.5444  -30.3032   23.7913 H   0  0  0  0  0  0
  -15.8660  -28.0962   22.7069 H   0  0  0  0  0  0
  -24.5884  -30.7062   25.7780 H   0  0  0  0  0  0
  -24.8831  -32.2990   26.4720 H   0  0  0  0  0  0
  -25.7988  -30.9071   27.0270 H   0  0  0  0  0  0
  -26.2894  -29.6744   24.1239 H   0  0  0  0  0  0
  -27.3850  -29.7214   25.4803 H   0  0  0  0  0  0
  -27.8810  -30.4161   23.9572 H   0  0  0  0  0  0
  -27.2633  -33.3608   26.2030 H   0  0  0  0  0  0
  -28.3864  -32.6844   25.0301 H   0  0  0  0  0  0
  -28.0674  -31.8421   26.5418 H   0  0  0  0  0  0
  -28.2609  -38.0100   24.7536 H   0  0  0  0  0  0
  -28.1108  -36.2658   24.6252 H   0  0  0  0  0  0
  -27.2315  -37.1403   25.8846 H   0  0  0  0  0  0
  -20.9471  -29.8254   21.6306 H   0  0  0  0  0  0
  -26.0186  -38.2858   24.1388 H   0  0  0  0  0  0
  -32.0098  -17.6147   19.7900 H   0  0  0  0  0  0
  -31.2214  -20.2159   19.5405 H   0  0  0  0  0  0
  -29.7014  -22.2001   19.2852 H   0  0  0  0  0  0
  -29.6536  -22.5450   20.9725 H   0  0  0  0  0  0
  -27.5798  -20.6077   19.7225 H   0  0  0  0  0  0
  -27.9887  -20.7912   21.3850 H   0  0  0  0  0  0
  -27.4943  -24.9657   21.4715 H   0  0  0  0  0  0
  -29.1791  -24.8859   21.1798 H   0  0  0  0  0  0
  -28.4184  -23.9321   18.7840 H   0  0  0  0  0  0
  -28.9228  -15.5893   21.1907 H   0  0  0  0  0  0
  -26.2378  -22.8413   20.3778 H   0  0  0  0  0  0
  -26.5199  -22.6915   18.7775 H   0  0  0  0  0  0
  -26.1047  -24.1133   19.4009 H   0  0  0  0  0  0
  1 25  1  0  0  0
  1 30  2  0  0  0
  1 80  1  0  0  0
  2  3  1  0  0  0
  2 25  1  0  0  0
  2 82  1  0  0  0
  2 83  1  0  0  0
  3  4  1  0  0  0
  3 84  1  0  0  0
  3 85  1  0  0  0
  4  5  1  0  0  0
  4 86  1  0  0  0
  4 87  1  0  0  0
  5  6  1  0  0  0
  5 26  1  0  0  0
  5 88  1  0  0  0
  6 25  1  0  0  0
  6 89  1  0  0  0
  6 90  1  0  0  0
  7  8  2  0  0  0
  7 26  1  0  0  0
  7 29  1  0  0  0
  8  9  1  0  0  0
  8 22  1  0  0  0
  9 10  1  0  0  0
  9 27  2  0  0  0
 10 11  2  0  0  0
 10 15  1  0  0  0
 11 12  1  0  0  0
 11 91  1  0  0  0
 12 13  2  0  0  0
 12 92  1  0  0  0
 13 14  1  0  0  0
 13 31  1  0  0  0
 14 15  2  0  0  0
 14 93  1  0  0  0
 15 94  1  0  0  0
 16 17  2  0  0  0
 16 21  1  0  0  0
 16 31  1  0  0  0
 17 18  1  0  0  0
 17 95  1  0  0  0
 18 19  2  0  0  0
 18 96  1  0  0  0
 19 20  1  0  0  0
 19 24  1  0  0  0
 20 21  2  0  0  0
 20 97  1  0  0  0
 21 23  1  0  0  0
 22 28  1  0  0  0
 22 32  2  0  0  0
 26 27  1  0  0  0
 28 98  1  0  0  0
 28 99  1  0  0  0
 29100  1  0  0  0
 29101  1  0  0  0
 33 34  1  0  0  0
 33 66  1  0  0  0
 33 70  2  0  0  0
 34 36  1  0  0  0
 34 59  1  0  0  0
 34102  1  0  0  0
 35 44  2  0  0  0
 35 45  1  0  0  0
 35 68  1  0  0  0
 36 56  1  0  0  0
 36103  1  0  0  0
 37 39  1  0  0  0
 37 47  1  0  0  0
 37 66  1  0  0  0
 37104  1  0  0  0
 38 43  2  0  0  0
 38 46  1  0  0  0
 38 47  1  0  0  0
 39 64  1  0  0  0
 39 67  2  0  0  0
 40 52  1  0  0  0
 40 53  2  0  0  0
 40 58  1  0  0  0
 41105  1  0  0  0
 41106  1  0  0  0
 41107  1  0  0  0
 41 48  1  0  0  0
 42 43  1  0  0  0
 42 66  1  0  0  0
 42108  1  0  0  0
 42109  1  0  0  0
 43 44  1  0  0  0
 44110  1  0  0  0
 45 46  2  0  0  0
 45111  1  0  0  0
 46112  1  0  0  0
 47113  1  0  0  0
 47114  1  0  0  0
 48 56  1  0  0  0
 48 65  1  0  0  0
 48115  1  0  0  0
 49 50  1  0  0  0
 49 53  1  0  0  0
 49 64  1  0  0  0
 49116  1  0  0  0
 50 51  1  0  0  0
 50117  1  0  0  0
 50118  1  0  0  0
 51 52  1  0  0  0
 51119  1  0  0  0
 51120  1  0  0  0
 52121  1  0  0  0
 52122  1  0  0  0
 53 54  1  0  0  0
 54 55  2  0  0  0
 54123  1  0  0  0
 55 57  1  0  0  0
 55124  1  0  0  0
 56 69  2  0  0  0
 57 58  2  0  0  0
 57125  1  0  0  0
 58126  1  0  0  0
 59 60  1  0  0  0
 59 61  1  0  0  0
 59 62  1  0  0  0
 60127  1  0  0  0
 60128  1  0  0  0
 60129  1  0  0  0
 61130  1  0  0  0
 61131  1  0  0  0
 61132  1  0  0  0
 62133  1  0  0  0
 62134  1  0  0  0
 62135  1  0  0  0
 63 65  1  0  0  0
 63136  1  0  0  0
 63137  1  0  0  0
 63138  1  0  0  0
 64139  1  0  0  0
 65140  1  0  0  0
 68 76  1  0  0  0
 71 72  2  0  0  0
 71 73  1  0  0  0
 71141  1  0  0  0
 72 79  1  0  0  0
 72142  1  0  0  0
 73 78  2  0  0  0
 73 80  1  0  0  0
 74 75  1  0  0  0
 74 77  1  0  0  0
 74143  1  0  0  0
 74144  1  0  0  0
 75 79  1  0  0  0
 75145  1  0  0  0
 75146  1  0  0  0
 76 77  1  0  0  0
 76147  1  0  0  0
 76148  1  0  0  0
 77 81  1  0  0  0
 77149  1  0  0  0
 78 79  1  0  0  0
 80150  1  0  0  0
 81151  1  0  0  0
 81152  1  0  0  0
 81153  1  0  0  0
M  CHG  1  81   1
M  ISO  4   1 100  68 101  76 101  80 100
M  END
> <chiral flag>
0

> <version>
0

> <s_m_source_file>
/data/baiqing/PycharmProjects/Reinvent-master-3.2/result/LINK_invent/BTK/process_docking_weight1_custom_product_contain_oxygen_bond_distance_aromatic_linkinvent_7_9_3/rearranged_h_0199.sdf

> <i_m_source_file_index>
37

> <r_mmod_Potential_Energy-OPLS-2005>
8.5505895614624

> <r_mmod_Stretch_Energy-OPLS-2005>
141.586578369141

> <r_mmod_Bend_Energy-OPLS-2005>
195.804290771484

> <r_mmod_Torsional_Energy-OPLS-2005>
276.89990234375

> <r_mmod_Improper_Torsional_Energy-OPLS-2005>
3.70557069778442

> <r_mmod_Van_der_Waal_Energy-OPLS-2005>
111.059013366699

> <r_mmod_Electrostatic_Energy-OPLS-2005>
-307.868713378906

> <r_mmod_Solvation_Energy-OPLS-2005>
-504.580810546875

> <b_mmod_Minimization_Converged-OPLS-2005>
0

> <r_mmod_RMS_Derivative-OPLS-2005>
9.041579246521

$$$$
37
                    3D
 Structure written by MMmdl.
151159  0  0  1  0            999 V2000
  -30.5292  -14.8017   20.4801 C   0  0  0  0  0  0
  -30.4615  -12.4927   19.4725 C   0  0  0  0  0  0
  -29.5244  -12.5258   18.2405 C   0  0  0  0  0  0
  -28.0500  -12.3318   18.6519 C   0  0  0  0  0  0
  -27.6503  -13.2200   19.8583 C   0  0  2  0  0  0
  -28.6960  -13.1166   20.9918 C   0  0  0  0  0  0
  -25.2552  -13.8149   20.5672 C   0  0  0  0  0  0
  -24.1830  -13.0424   20.9217 C   0  0  0  0  0  0
  -24.6400  -11.6896   20.8746 C   0  0  0  0  0  0
  -23.9062  -10.4286   21.0407 C   0  0  0  0  0  0
  -24.3610   -9.4201   21.9183 C   0  0  0  0  0  0
  -23.6287   -8.2235   22.0752 C   0  0  0  0  0  0
  -22.4268   -8.0275   21.3545 C   0  0  0  0  0  0
  -21.9905   -9.0250   20.4649 C   0  0  0  0  0  0
  -22.7235  -10.2128   20.3058 C   0  0  0  0  0  0
  -21.6851   -6.0729   22.5279 C   0  0  0  0  0  0
  -21.4014   -6.5631   23.8211 C   0  0  0  0  0  0
  -21.3659   -5.6784   24.9173 C   0  0  0  0  0  0
  -21.6043   -4.3048   24.7223 C   0  0  0  0  0  0
  -21.8820   -3.8140   23.4345 C   0  0  0  0  0  0
  -21.9192   -4.6958   22.3403 C   0  0  0  0  0  0
  -22.7854  -13.5233   21.1872 C   0  0  0  0  0  0
  -22.1665   -4.2143   21.0978 F   0  0  0  0  0  0
  -21.5629   -3.4532   25.7738 F   0  0  0  0  0  0
  -29.9962  -13.5250   20.4300 N   0  0  0  0  0  0
  -26.2970  -12.9333   20.3268 N   0  0  0  0  0  0
  -25.9324  -11.6493   20.5728 N   0  0  0  0  0  0
  -22.0485  -12.8234   22.0422 N   0  0  0  0  0  0
  -25.4239  -15.1864   20.4026 N   0  0  0  0  0  0
  -31.6883  -14.9990   20.0955 O   0  0  0  0  0  0
  -21.6634   -6.8872   21.4240 O   0  0  0  0  0  0
  -22.3552  -14.5536   20.6705 O   0  0  0  0  0  0
  -24.6356  -31.8517   23.1949 C   0  0  0  0  0  0
  -25.9163  -32.4739   23.8310 C   0  0  1  0  0  0
  -27.2264  -27.2255   20.1294 C   0  0  0  0  0  0
  -25.5946  -33.8543   24.2233 N   0  0  0  0  0  0
  -23.4347  -30.4734   21.5394 C   0  0  2  0  0  0
  -24.8831  -28.9133   20.1116 C   0  0  0  0  0  0
  -22.7521  -29.4587   22.4895 C   0  0  0  0  0  0
  -18.0296  -28.1390   22.8479 C   0  0  0  0  0  0
  -24.1493  -36.7272   23.2638 C   0  0  0  0  0  0
  -25.9845  -30.7534   21.3799 C   0  0  0  0  0  0
  -26.0578  -29.3730   20.7198 C   0  0  0  0  0  0
  -27.2319  -28.5447   20.7116 C   0  0  0  0  0  0
  -26.0225  -26.8419   19.4953 C   0  0  0  0  0  0
  -24.8732  -27.6574   19.4871 C   0  0  0  0  0  0
  -23.6557  -29.8052   20.1572 C   0  0  0  0  0  0
  -25.4121  -36.3060   24.0320 C   0  0  1  0  0  0
  -20.5902  -28.3708   23.1253 C   0  0  2  0  0  0
  -20.6783  -26.9425   22.5397 C   0  0  0  0  0  0
  -19.5757  -26.6384   21.5205 C   0  0  0  0  0  0
  -18.1941  -26.7925   22.1626 C   0  0  0  0  0  0
  -19.1550  -28.8866   23.2862 C   0  0  0  0  0  0
  -18.9471  -30.1462   23.8887 C   0  0  0  0  0  0
  -17.6470  -30.6591   24.0558 C   0  0  0  0  0  0
  -25.9065  -34.9433   23.5080 C   0  0  0  0  0  0
  -16.5360  -29.9086   23.6333 C   0  0  0  0  0  0
  -16.7282  -28.6502   23.0356 C   0  0  0  0  0  0
  -26.4509  -31.6581   25.0721 C   0  0  0  0  0  0
  -25.3713  -31.3754   26.1432 C   0  0  0  0  0  0
  -27.0349  -30.2986   24.6242 C   0  0  0  0  0  0
  -27.6067  -32.4317   25.7493 C   0  0  0  0  0  0
  -27.5578  -37.1792   24.8465 C   0  0  0  0  0  0
  -21.4224  -29.3050   22.3638 N   0  0  0  0  0  0
  -26.4292  -37.3764   23.9407 N   0  0  0  0  0  0
  -24.7044  -31.0444   22.0943 N   0  0  0  0  0  0
  -23.4196  -28.8129   23.3015 O   0  0  0  0  0  0
  -28.3185  -26.3109   20.1776 O   0  0  0  0  0  0
  -26.5640  -34.8914   22.4652 O   0  0  0  0  0  0
  -23.5495  -32.1360   23.7218 O   0  0  0  0  0  0
  -28.0438  -17.5701   21.1692 C   0  0  0  0  0  0
  -29.3265  -17.2564   20.7841 C   0  0  0  0  0  0
  -29.2744  -19.6644   20.5234 C   0  0  0  0  0  0
  -29.6756  -21.1627   20.2847 C   0  0  0  0  0  0
  -29.9990  -24.0444   21.6320 C   0  0  0  0  0  0
  -28.0689  -24.8087   20.1176 C   0  0  0  0  0  0
  -29.2388  -23.6789   20.3457 C   0  0  2  0  0  0
  -30.0197  -18.4837   20.4162 N   0  0  0  0  0  0
  -28.8279  -22.1882   20.4336 N   0  0  0  0  0  0
  -31.0053  -21.2754   19.9475 N   0  0  0  0  0  0
  -29.6381  -15.7922   20.8854 N   0  0  0  0  0  0
  -27.6457  -19.2755   21.0692 S   0  0  0  0  0  0
  -31.4942  -12.6652   19.1647 H   0  0  0  0  0  0
  -30.4509  -11.5069   19.9406 H   0  0  0  0  0  0
  -29.8172  -11.7568   17.5247 H   0  0  0  0  0  0
  -29.6342  -13.4799   17.7227 H   0  0  0  0  0  0
  -27.9158  -11.2808   18.9116 H   0  0  0  0  0  0
  -27.3905  -12.5218   17.8041 H   0  0  0  0  0  0
  -27.6525  -14.2467   19.4917 H   0  0  0  0  0  0
  -28.7482  -12.0954   21.3722 H   0  0  0  0  0  0
  -28.4087  -13.7305   21.8470 H   0  0  0  0  0  0
  -25.2754   -9.5674   22.4758 H   0  0  0  0  0  0
  -23.9995   -7.4624   22.7466 H   0  0  0  0  0  0
  -21.0837   -8.8771   19.8956 H   0  0  0  0  0  0
  -22.3694  -10.9666   19.6165 H   0  0  0  0  0  0
  -21.2007   -7.6142   23.9715 H   0  0  0  0  0  0
  -21.1484   -6.0514   25.9077 H   0  0  0  0  0  0
  -22.0600   -2.7603   23.2842 H   0  0  0  0  0  0
  -22.4087  -11.9896   22.4819 H   0  0  0  0  0  0
  -21.1099  -13.1266   22.2611 H   0  0  0  0  0  0
  -24.6352  -15.8205   20.4744 H   0  0  0  0  0  0
  -26.2199  -15.5995   19.9343 H   0  0  0  0  0  0
  -26.7228  -32.5372   23.1045 H   0  0  0  0  0  0
  -25.0078  -33.9673   25.0369 H   0  0  0  0  0  0
  -22.7334  -31.2974   21.3908 H   0  0  0  0  0  0
  -23.3759  -35.9600   23.3298 H   0  0  0  0  0  0
  -24.3583  -36.8900   22.2054 H   0  0  0  0  0  0
  -23.7241  -37.6469   23.6666 H   0  0  0  0  0  0
  -26.1293  -31.5142   20.6115 H   0  0  0  0  0  0
  -26.8587  -30.8010   22.0176 H   0  0  0  0  0  0
  -28.1314  -28.8955   21.1974 H   0  0  0  0  0  0
  -25.9374  -25.8836   19.0066 H   0  0  0  0  0  0
  -23.9739  -27.2994   19.0048 H   0  0  0  0  0  0
  -23.7853  -30.5815   19.4020 H   0  0  0  0  0  0
  -22.7724  -29.2426   19.8499 H   0  0  0  0  0  0
  -25.1307  -36.1900   25.0811 H   0  0  0  0  0  0
  -20.9997  -28.3290   24.1373 H   0  0  0  0  0  0
  -20.5688  -26.2320   23.3603 H   0  0  0  0  0  0
  -21.6649  -26.7449   22.1191 H   0  0  0  0  0  0
  -19.6922  -25.6292   21.1245 H   0  0  0  0  0  0
  -19.6690  -27.3181   20.6724 H   0  0  0  0  0  0
  -17.4203  -26.6656   21.4038 H   0  0  0  0  0  0
  -18.0365  -26.0078   22.9039 H   0  0  0  0  0  0
  -19.7947  -30.7278   24.2256 H   0  0  0  0  0  0
  -17.5026  -31.6272   24.5157 H   0  0  0  0  0  0
  -15.5361  -30.2988   23.7662 H   0  0  0  0  0  0
  -15.8680  -28.0816   22.7084 H   0  0  0  0  0  0
  -24.5875  -30.7125   25.7746 H   0  0  0  0  0  0
  -24.8920  -32.2934   26.4847 H   0  0  0  0  0  0
  -25.8006  -30.8921   27.0218 H   0  0  0  0  0  0
  -26.2938  -29.6734   24.1248 H   0  0  0  0  0  0
  -27.3985  -29.7262   25.4785 H   0  0  0  0  0  0
  -27.8841  -30.4239   23.9520 H   0  0  0  0  0  0
  -27.2691  -33.3633   26.2047 H   0  0  0  0  0  0
  -28.3891  -32.6846   25.0325 H   0  0  0  0  0  0
  -28.0717  -31.8449   26.5426 H   0  0  0  0  0  0
  -28.2595  -38.0091   24.7518 H   0  0  0  0  0  0
  -28.1075  -36.2622   24.6288 H   0  0  0  0  0  0
  -27.2294  -37.1439   25.8868 H   0  0  0  0  0  0
  -20.9417  -29.8767   21.6832 H   0  0  0  0  0  0
  -26.0167  -38.2834   24.1412 H   0  0  0  0  0  0
  -27.2729  -16.8968   21.5206 H   0  0  0  0  0  0
  -30.3704  -25.0687   21.5833 H   0  0  0  0  0  0
  -30.8612  -23.3996   21.8002 H   0  0  0  0  0  0
  -29.3525  -23.9724   22.5070 H   0  0  0  0  0  0
  -27.2747  -24.5996   20.8360 H   0  0  0  0  0  0
  -27.6449  -24.5908   19.1378 H   0  0  0  0  0  0
  -29.9363  -23.7957   19.5144 H   0  0  0  0  0  0
  -31.6053  -20.4632   19.8577 H   0  0  0  0  0  0
  -31.5080  -22.1330   19.7700 H   0  0  0  0  0  0
  -28.8417  -15.3005   21.2556 H   0  0  0  0  0  0
  1 25  1  0  0  0
  1 30  2  0  0  0
  1 81  1  0  0  0
  2  3  1  0  0  0
  2 25  1  0  0  0
  2 83  1  0  0  0
  2 84  1  0  0  0
  3  4  1  0  0  0
  3 85  1  0  0  0
  3 86  1  0  0  0
  4  5  1  0  0  0
  4 87  1  0  0  0
  4 88  1  0  0  0
  5  6  1  0  0  0
  5 26  1  0  0  0
  5 89  1  0  0  0
  6 25  1  0  0  0
  6 90  1  0  0  0
  6 91  1  0  0  0
  7  8  2  0  0  0
  7 26  1  0  0  0
  7 29  1  0  0  0
  8  9  1  0  0  0
  8 22  1  0  0  0
  9 10  1  0  0  0
  9 27  2  0  0  0
 10 11  2  0  0  0
 10 15  1  0  0  0
 11 12  1  0  0  0
 11 92  1  0  0  0
 12 13  2  0  0  0
 12 93  1  0  0  0
 13 14  1  0  0  0
 13 31  1  0  0  0
 14 15  2  0  0  0
 14 94  1  0  0  0
 15 95  1  0  0  0
 16 17  2  0  0  0
 16 21  1  0  0  0
 16 31  1  0  0  0
 17 18  1  0  0  0
 17 96  1  0  0  0
 18 19  2  0  0  0
 18 97  1  0  0  0
 19 20  1  0  0  0
 19 24  1  0  0  0
 20 21  2  0  0  0
 20 98  1  0  0  0
 21 23  1  0  0  0
 22 28  1  0  0  0
 22 32  2  0  0  0
 26 27  1  0  0  0
 28 99  1  0  0  0
 28100  1  0  0  0
 29101  1  0  0  0
 29102  1  0  0  0
 33 34  1  0  0  0
 33 66  1  0  0  0
 33 70  2  0  0  0
 34 36  1  0  0  0
 34 59  1  0  0  0
 34103  1  0  0  0
 35 44  2  0  0  0
 35 45  1  0  0  0
 35 68  1  0  0  0
 36 56  1  0  0  0
 36104  1  0  0  0
 37 39  1  0  0  0
 37 47  1  0  0  0
 37 66  1  0  0  0
 37105  1  0  0  0
 38 43  2  0  0  0
 38 46  1  0  0  0
 38 47  1  0  0  0
 39 64  1  0  0  0
 39 67  2  0  0  0
 40 52  1  0  0  0
 40 53  2  0  0  0
 40 58  1  0  0  0
 41106  1  0  0  0
 41107  1  0  0  0
 41108  1  0  0  0
 41 48  1  0  0  0
 42 43  1  0  0  0
 42 66  1  0  0  0
 42109  1  0  0  0
 42110  1  0  0  0
 43 44  1  0  0  0
 44111  1  0  0  0
 45 46  2  0  0  0
 45112  1  0  0  0
 46113  1  0  0  0
 47114  1  0  0  0
 47115  1  0  0  0
 48 56  1  0  0  0
 48 65  1  0  0  0
 48116  1  0  0  0
 49 50  1  0  0  0
 49 53  1  0  0  0
 49 64  1  0  0  0
 49117  1  0  0  0
 50 51  1  0  0  0
 50118  1  0  0  0
 50119  1  0  0  0
 51 52  1  0  0  0
 51120  1  0  0  0
 51121  1  0  0  0
 52122  1  0  0  0
 52123  1  0  0  0
 53 54  1  0  0  0
 54 55  2  0  0  0
 54124  1  0  0  0
 55 57  1  0  0  0
 55125  1  0  0  0
 56 69  2  0  0  0
 57 58  2  0  0  0
 57126  1  0  0  0
 58127  1  0  0  0
 59 60  1  0  0  0
 59 61  1  0  0  0
 59 62  1  0  0  0
 60128  1  0  0  0
 60129  1  0  0  0
 60130  1  0  0  0
 61131  1  0  0  0
 61132  1  0  0  0
 61133  1  0  0  0
 62134  1  0  0  0
 62135  1  0  0  0
 62136  1  0  0  0
 63 65  1  0  0  0
 63137  1  0  0  0
 63138  1  0  0  0
 63139  1  0  0  0
 64140  1  0  0  0
 65141  1  0  0  0
 68 76  1  0  0  0
 71 72  2  0  0  0
 71 82  1  0  0  0
 71142  1  0  0  0
 72 78  1  0  0  0
 72 81  1  0  0  0
 73 74  1  0  0  0
 73 78  2  0  0  0
 73 82  1  0  0  0
 74 79  2  0  0  0
 74 80  1  0  0  0
 75143  1  0  0  0
 75144  1  0  0  0
 75145  1  0  0  0
 75 77  1  0  0  0
 76 77  1  0  0  0
 76146  1  0  0  0
 76147  1  0  0  0
 77 79  1  0  0  0
 77148  1  0  0  0
 80149  1  0  0  0
 80150  1  0  0  0
 81151  1  0  0  0
M  ISO  4   1 100  68 101  76 101  81 100
M  END
> <chiral flag>
0

> <version>
0

> <s_m_source_file>
/data/baiqing/PycharmProjects/Reinvent-master-3.2/result/LINK_invent/BTK/process_docking_weight1_custom_product_contain_oxygen_bond_distance_aromatic_linkinvent_7_9_3/rearranged_h_0199.sdf

> <i_m_source_file_index>
38

> <r_mmod_Potential_Energy-OPLS-2005>
180.354721069336

> <r_mmod_Stretch_Energy-OPLS-2005>
157.966934204102

> <r_mmod_Bend_Energy-OPLS-2005>
244.573989868164

> <r_mmod_Torsional_Energy-OPLS-2005>
220.369110107422

> <r_mmod_Improper_Torsional_Energy-OPLS-2005>
4.24459505081177

> <r_mmod_Van_der_Waal_Energy-OPLS-2005>
118.411697387695

> <r_mmod_Electrostatic_Energy-OPLS-2005>
-432.175720214844

> <r_mmod_Solvation_Energy-OPLS-2005>
-243.443878173828

> <b_mmod_Minimization_Converged-OPLS-2005>
0

> <r_mmod_RMS_Derivative-OPLS-2005>
0.851918935775757

$$$$
38
                    3D
 Structure written by MMmdl.
151159  0  0  1  0            999 V2000
  -30.6833  -14.5005   20.5715 C   0  0  0  0  0  0
  -30.4225  -12.3296   19.4124 C   0  0  0  0  0  0
  -29.4942  -12.5634   18.1999 C   0  0  0  0  0  0
  -28.0143  -12.3966   18.6045 C   0  0  0  0  0  0
  -27.6609  -13.2077   19.8799 C   0  0  2  0  0  0
  -28.7086  -12.9751   20.9962 C   0  0  0  0  0  0
  -25.2546  -13.8142   20.5651 C   0  0  0  0  0  0
  -24.1796  -13.0417   20.9130 C   0  0  0  0  0  0
  -24.6328  -11.6882   20.8665 C   0  0  0  0  0  0
  -23.8985  -10.4275   21.0373 C   0  0  0  0  0  0
  -24.3550   -9.4220   21.9163 C   0  0  0  0  0  0
  -23.6269   -8.2231   22.0744 C   0  0  0  0  0  0
  -22.4258   -8.0220   21.3550 C   0  0  0  0  0  0
  -21.9863   -9.0187   20.4635 C   0  0  0  0  0  0
  -22.7146  -10.2080   20.3045 C   0  0  0  0  0  0
  -21.6841   -6.0693   22.5279 C   0  0  0  0  0  0
  -21.3998   -6.5607   23.8189 C   0  0  0  0  0  0
  -21.3693   -5.6764   24.9178 C   0  0  0  0  0  0
  -21.6088   -4.3029   24.7223 C   0  0  0  0  0  0
  -21.8815   -3.8094   23.4344 C   0  0  0  0  0  0
  -21.9186   -4.6911   22.3388 C   0  0  0  0  0  0
  -22.7818  -13.5242   21.1815 C   0  0  0  0  0  0
  -22.1660   -4.2104   21.0981 F   0  0  0  0  0  0
  -21.5672   -3.4514   25.7751 F   0  0  0  0  0  0
  -30.0421  -13.3011   20.4549 N   0  0  0  0  0  0
  -26.2998  -12.9312   20.3359 N   0  0  0  0  0  0
  -25.9279  -11.6457   20.5671 N   0  0  0  0  0  0
  -22.0417  -12.8274   22.0352 N   0  0  0  0  0  0
  -25.4168  -15.1879   20.4091 N   0  0  0  0  0  0
  -31.7740  -14.7250   20.0369 O   0  0  0  0  0  0
  -21.6621   -6.8822   21.4236 O   0  0  0  0  0  0
  -22.3529  -14.5562   20.6665 O   0  0  0  0  0  0
  -24.6207  -31.8634   23.2063 C   0  0  0  0  0  0
  -25.9066  -32.4779   23.8379 C   0  0  1  0  0  0
  -27.2325  -27.3880   20.0908 C   0  0  0  0  0  0
  -25.5910  -33.8587   24.2305 N   0  0  0  0  0  0
  -23.4115  -30.4888   21.5493 C   0  0  2  0  0  0
  -24.8584  -28.9486   20.1139 C   0  0  0  0  0  0
  -22.7460  -29.4656   22.4983 C   0  0  0  0  0  0
  -18.0273  -28.1405   22.8483 C   0  0  0  0  0  0
  -24.1493  -36.7303   23.2647 C   0  0  0  0  0  0
  -25.9494  -30.8091   21.3746 C   0  0  0  0  0  0
  -26.0223  -29.4448   20.7141 C   0  0  0  0  0  0
  -27.2150  -28.6728   20.6958 C   0  0  0  0  0  0
  -26.0491  -26.9250   19.4714 C   0  0  0  0  0  0
  -24.8684  -27.6913   19.4868 C   0  0  0  0  0  0
  -23.6227  -29.8207   20.1660 C   0  0  0  0  0  0
  -25.4111  -36.3091   24.0350 C   0  0  1  0  0  0
  -20.5871  -28.3697   23.1318 C   0  0  2  0  0  0
  -20.6772  -26.9436   22.5420 C   0  0  0  0  0  0
  -19.5749  -26.6399   21.5226 C   0  0  0  0  0  0
  -18.1922  -26.7947   22.1620 C   0  0  0  0  0  0
  -19.1521  -28.8862   23.2895 C   0  0  0  0  0  0
  -18.9440  -30.1470   23.8890 C   0  0  0  0  0  0
  -17.6449  -30.6593   24.0565 C   0  0  0  0  0  0
  -25.9044  -34.9456   23.5129 C   0  0  0  0  0  0
  -16.5346  -29.9102   23.6333 C   0  0  0  0  0  0
  -16.7259  -28.6530   23.0334 C   0  0  0  0  0  0
  -26.4473  -31.6587   25.0737 C   0  0  0  0  0  0
  -25.3704  -31.3711   26.1459 C   0  0  0  0  0  0
  -27.0309  -30.2998   24.6179 C   0  0  0  0  0  0
  -27.6049  -32.4312   25.7489 C   0  0  0  0  0  0
  -27.5602  -37.1802   24.8457 C   0  0  0  0  0  0
  -21.4172  -29.3034   22.3709 N   0  0  0  0  0  0
  -26.4296  -37.3787   23.9428 N   0  0  0  0  0  0
  -24.6793  -31.0697   22.1001 N   0  0  0  0  0  0
  -23.4200  -28.8210   23.3050 O   0  0  0  0  0  0
  -28.3744  -26.5979   20.0727 O   0  0  0  0  0  0
  -26.5608  -34.8945   22.4694 O   0  0  0  0  0  0
  -23.5376  -32.1421   23.7403 O   0  0  0  0  0  0
  -28.6144  -18.7657   19.9326 C   0  0  0  0  0  0
  -29.5357  -19.0622   20.9182 C   0  0  0  0  0  0
  -29.7399  -16.7576   20.8070 C   0  0  0  0  0  0
  -29.8722  -21.5918   20.5353 C   0  0  0  0  0  0
  -29.8373  -20.4204   21.5653 C   0  0  0  0  0  0
  -28.8891  -22.7682   20.7655 C   0  0  0  0  0  0
  -29.0830  -24.1126   19.9772 C   0  0  0  0  0  0
  -28.2204  -25.2531   20.6035 C   0  0  0  0  0  0
  -30.1421  -17.8840   21.4268 N   0  0  0  0  0  0
  -30.0460  -15.4497   21.2843 N   0  0  0  0  0  0
  -30.6748  -21.6077   19.5961 O   0  0  0  0  0  0
  -28.5614  -17.0643   19.5382 S   0  0  0  0  0  0
  -31.4699  -12.4260   19.1175 H   0  0  0  0  0  0
  -30.3083  -11.3100   19.7847 H   0  0  0  0  0  0
  -29.7440  -11.8863   17.3828 H   0  0  0  0  0  0
  -29.6466  -13.5736   17.8124 H   0  0  0  0  0  0
  -27.8204  -11.3337   18.7635 H   0  0  0  0  0  0
  -27.3647  -12.7030   17.7799 H   0  0  0  0  0  0
  -27.7020  -14.2580   19.6025 H   0  0  0  0  0  0
  -28.6904  -11.9327   21.3128 H   0  0  0  0  0  0
  -28.4627  -13.5479   21.8895 H   0  0  0  0  0  0
  -25.2703   -9.5743   22.4693 H   0  0  0  0  0  0
  -24.0011   -7.4641   22.7479 H   0  0  0  0  0  0
  -21.0784   -8.8667   19.8944 H   0  0  0  0  0  0
  -22.3594  -10.9592   19.6113 H   0  0  0  0  0  0
  -21.1956   -7.6112   23.9701 H   0  0  0  0  0  0
  -21.1562   -6.0484   25.9094 H   0  0  0  0  0  0
  -22.0573   -2.7549   23.2822 H   0  0  0  0  0  0
  -22.4017  -11.9983   22.4838 H   0  0  0  0  0  0
  -21.1018  -13.1313   22.2461 H   0  0  0  0  0  0
  -24.6316  -15.8226   20.5080 H   0  0  0  0  0  0
  -26.2625  -15.6484   20.0975 H   0  0  0  0  0  0
  -26.7139  -32.5456   23.1149 H   0  0  0  0  0  0
  -25.0050  -33.9737   25.0440 H   0  0  0  0  0  0
  -22.7010  -31.3063   21.4074 H   0  0  0  0  0  0
  -23.3771  -35.9618   23.3280 H   0  0  0  0  0  0
  -24.3572  -36.8938   22.2061 H   0  0  0  0  0  0
  -23.7233  -37.6510   23.6654 H   0  0  0  0  0  0
  -26.0775  -31.5751   20.6092 H   0  0  0  0  0  0
  -26.8299  -30.8502   22.0048 H   0  0  0  0  0  0
  -28.1135  -29.0493   21.1650 H   0  0  0  0  0  0
  -26.0337  -25.9644   18.9714 H   0  0  0  0  0  0
  -23.9763  -27.3083   19.0090 H   0  0  0  0  0  0
  -23.7340  -30.5925   19.4032 H   0  0  0  0  0  0
  -22.7457  -29.2399   19.8728 H   0  0  0  0  0  0
  -25.1285  -36.1971   25.0843 H   0  0  0  0  0  0
  -20.9936  -28.3271   24.1447 H   0  0  0  0  0  0
  -20.5721  -26.2309   23.3611 H   0  0  0  0  0  0
  -21.6649  -26.7509   22.1197 H   0  0  0  0  0  0
  -19.6931  -25.6306   21.1258 H   0  0  0  0  0  0
  -19.6718  -27.3217   20.6754 H   0  0  0  0  0  0
  -17.4224  -26.6708   21.3998 H   0  0  0  0  0  0
  -18.0316  -26.0093   22.9016 H   0  0  0  0  0  0
  -19.7915  -30.7285   24.2282 H   0  0  0  0  0  0
  -17.4995  -31.6278   24.5179 H   0  0  0  0  0  0
  -15.5338  -30.3001   23.7659 H   0  0  0  0  0  0
  -15.8661  -28.0861   22.7018 H   0  0  0  0  0  0
  -24.5856  -30.7102   25.7777 H   0  0  0  0  0  0
  -24.8909  -32.2868   26.4937 H   0  0  0  0  0  0
  -25.8001  -30.8836   27.0221 H   0  0  0  0  0  0
  -26.2881  -29.6757   24.1189 H   0  0  0  0  0  0
  -27.3999  -29.7256   25.4702 H   0  0  0  0  0  0
  -27.8770  -30.4298   23.9414 H   0  0  0  0  0  0
  -27.2673  -33.3619   26.2091 H   0  0  0  0  0  0
  -28.3840  -32.6869   25.0285 H   0  0  0  0  0  0
  -28.0755  -31.8413   26.5380 H   0  0  0  0  0  0
  -28.2590  -38.0135   24.7540 H   0  0  0  0  0  0
  -28.1124  -36.2654   24.6212 H   0  0  0  0  0  0
  -27.2312  -37.1396   25.8861 H   0  0  0  0  0  0
  -20.9374  -29.8721   21.6875 H   0  0  0  0  0  0
  -26.0185  -38.2880   24.1399 H   0  0  0  0  0  0
  -27.9398  -19.4386   19.4122 H   0  0  0  0  0  0
  -30.7874  -20.4066   22.1096 H   0  0  0  0  0  0
  -29.0837  -20.6452   22.3213 H   0  0  0  0  0  0
  -28.9328  -22.9924   21.8311 H   0  0  0  0  0  0
  -27.8890  -22.3814   20.5694 H   0  0  0  0  0  0
  -28.7914  -23.9710   18.9345 H   0  0  0  0  0  0
  -30.1344  -24.4041   19.9595 H   0  0  0  0  0  0
  -28.4661  -25.3175   21.6643 H   0  0  0  0  0  0
  -27.1823  -24.9173   20.5820 H   0  0  0  0  0  0
  -29.2950  -15.0531   21.8218 H   0  0  0  0  0  0
  1 25  1  0  0  0
  1 30  2  0  0  0
  1 80  1  0  0  0
  2  3  1  0  0  0
  2 25  1  0  0  0
  2 83  1  0  0  0
  2 84  1  0  0  0
  3  4  1  0  0  0
  3 85  1  0  0  0
  3 86  1  0  0  0
  4  5  1  0  0  0
  4 87  1  0  0  0
  4 88  1  0  0  0
  5  6  1  0  0  0
  5 26  1  0  0  0
  5 89  1  0  0  0
  6 25  1  0  0  0
  6 90  1  0  0  0
  6 91  1  0  0  0
  7  8  2  0  0  0
  7 26  1  0  0  0
  7 29  1  0  0  0
  8  9  1  0  0  0
  8 22  1  0  0  0
  9 10  1  0  0  0
  9 27  2  0  0  0
 10 11  2  0  0  0
 10 15  1  0  0  0
 11 12  1  0  0  0
 11 92  1  0  0  0
 12 13  2  0  0  0
 12 93  1  0  0  0
 13 14  1  0  0  0
 13 31  1  0  0  0
 14 15  2  0  0  0
 14 94  1  0  0  0
 15 95  1  0  0  0
 16 17  2  0  0  0
 16 21  1  0  0  0
 16 31  1  0  0  0
 17 18  1  0  0  0
 17 96  1  0  0  0
 18 19  2  0  0  0
 18 97  1  0  0  0
 19 20  1  0  0  0
 19 24  1  0  0  0
 20 21  2  0  0  0
 20 98  1  0  0  0
 21 23  1  0  0  0
 22 28  1  0  0  0
 22 32  2  0  0  0
 26 27  1  0  0  0
 28 99  1  0  0  0
 28100  1  0  0  0
 29101  1  0  0  0
 29102  1  0  0  0
 33 34  1  0  0  0
 33 66  1  0  0  0
 33 70  2  0  0  0
 34 36  1  0  0  0
 34 59  1  0  0  0
 34103  1  0  0  0
 35 44  2  0  0  0
 35 45  1  0  0  0
 35 68  1  0  0  0
 36 56  1  0  0  0
 36104  1  0  0  0
 37 39  1  0  0  0
 37 47  1  0  0  0
 37 66  1  0  0  0
 37105  1  0  0  0
 38 43  2  0  0  0
 38 46  1  0  0  0
 38 47  1  0  0  0
 39 64  1  0  0  0
 39 67  2  0  0  0
 40 52  1  0  0  0
 40 53  2  0  0  0
 40 58  1  0  0  0
 41106  1  0  0  0
 41107  1  0  0  0
 41108  1  0  0  0
 41 48  1  0  0  0
 42 43  1  0  0  0
 42 66  1  0  0  0
 42109  1  0  0  0
 42110  1  0  0  0
 43 44  1  0  0  0
 44111  1  0  0  0
 45 46  2  0  0  0
 45112  1  0  0  0
 46113  1  0  0  0
 47114  1  0  0  0
 47115  1  0  0  0
 48 56  1  0  0  0
 48 65  1  0  0  0
 48116  1  0  0  0
 49 50  1  0  0  0
 49 53  1  0  0  0
 49 64  1  0  0  0
 49117  1  0  0  0
 50 51  1  0  0  0
 50118  1  0  0  0
 50119  1  0  0  0
 51 52  1  0  0  0
 51120  1  0  0  0
 51121  1  0  0  0
 52122  1  0  0  0
 52123  1  0  0  0
 53 54  1  0  0  0
 54 55  2  0  0  0
 54124  1  0  0  0
 55 57  1  0  0  0
 55125  1  0  0  0
 56 69  2  0  0  0
 57 58  2  0  0  0
 57126  1  0  0  0
 58127  1  0  0  0
 59 60  1  0  0  0
 59 61  1  0  0  0
 59 62  1  0  0  0
 60128  1  0  0  0
 60129  1  0  0  0
 60130  1  0  0  0
 61131  1  0  0  0
 61132  1  0  0  0
 61133  1  0  0  0
 62134  1  0  0  0
 62135  1  0  0  0
 62136  1  0  0  0
 63 65  1  0  0  0
 63137  1  0  0  0
 63138  1  0  0  0
 63139  1  0  0  0
 64140  1  0  0  0
 65141  1  0  0  0
 68 78  1  0  0  0
 71 72  2  0  0  0
 71 82  1  0  0  0
 71142  1  0  0  0
 72 75  1  0  0  0
 72 79  1  0  0  0
 73 79  2  0  0  0
 73 80  1  0  0  0
 73 82  1  0  0  0
 74 75  1  0  0  0
 74 76  1  0  0  0
 74 81  2  0  0  0
 75143  1  0  0  0
 75144  1  0  0  0
 76 77  1  0  0  0
 76145  1  0  0  0
 76146  1  0  0  0
 77 78  1  0  0  0
 77147  1  0  0  0
 77148  1  0  0  0
 78149  1  0  0  0
 78150  1  0  0  0
 80151  1  0  0  0
M  ISO  4   1 100  68 101  78 101  80 100
M  END
> <chiral flag>
0

> <version>
0

> <s_m_source_file>
/data/baiqing/PycharmProjects/Reinvent-master-3.2/result/LINK_invent/BTK/process_docking_weight1_custom_product_contain_oxygen_bond_distance_aromatic_linkinvent_7_9_3/rearranged_h_0199.sdf

> <i_m_source_file_index>
39

> <r_mmod_Potential_Energy-OPLS-2005>
-75.7443084716797

> <r_mmod_Stretch_Energy-OPLS-2005>
46.7164878845215

> <r_mmod_Bend_Energy-OPLS-2005>
112.248100280762

> <r_mmod_Torsional_Energy-OPLS-2005>
258.245880126953

> <r_mmod_Improper_Torsional_Energy-OPLS-2005>
7.3172492980957

> <r_mmod_Van_der_Waal_Energy-OPLS-2005>
117.255393981934

> <r_mmod_Electrostatic_Energy-OPLS-2005>
-392.400695800781

> <r_mmod_Solvation_Energy-OPLS-2005>
-243.436737060547

> <b_mmod_Minimization_Converged-OPLS-2005>
0

> <r_mmod_RMS_Derivative-OPLS-2005>
5.41614484786987

$$$$
39
                    3D
 Structure written by MMmdl.
164172  0  0  1  0            999 V2000
  -30.6905  -14.4966   20.6106 C   0  0  0  0  0  0
  -30.4290  -12.3373   19.4342 C   0  0  0  0  0  0
  -29.5068  -12.5290   18.2141 C   0  0  0  0  0  0
  -28.0265  -12.3766   18.6176 C   0  0  0  0  0  0
  -27.6636  -13.2114   19.8741 C   0  0  2  0  0  0
  -28.6967  -12.9940   21.0018 C   0  0  0  0  0  0
  -25.2560  -13.8150   20.5597 C   0  0  0  0  0  0
  -24.1806  -13.0431   20.9110 C   0  0  0  0  0  0
  -24.6381  -11.6909   20.8664 C   0  0  0  0  0  0
  -23.9036  -10.4302   21.0370 C   0  0  0  0  0  0
  -24.3605   -9.4249   21.9152 C   0  0  0  0  0  0
  -23.6323   -8.2265   22.0732 C   0  0  0  0  0  0
  -22.4296   -8.0277   21.3538 C   0  0  0  0  0  0
  -21.9911   -9.0241   20.4636 C   0  0  0  0  0  0
  -22.7209  -10.2141   20.3042 C   0  0  0  0  0  0
  -21.6860   -6.0726   22.5257 C   0  0  0  0  0  0
  -21.4014   -6.5640   23.8186 C   0  0  0  0  0  0
  -21.3653   -5.6781   24.9147 C   0  0  0  0  0  0
  -21.6070   -4.3048   24.7214 C   0  0  0  0  0  0
  -21.8811   -3.8142   23.4321 C   0  0  0  0  0  0
  -21.9196   -4.6951   22.3381 C   0  0  0  0  0  0
  -22.7828  -13.5253   21.1823 C   0  0  0  0  0  0
  -22.1666   -4.2140   21.0959 F   0  0  0  0  0  0
  -21.5672   -3.4539   25.7725 F   0  0  0  0  0  0
  -30.0288  -13.3130   20.4595 N   0  0  0  0  0  0
  -26.3021  -12.9338   20.3310 N   0  0  0  0  0  0
  -25.9320  -11.6496   20.5672 N   0  0  0  0  0  0
  -22.0492  -12.8255   22.0388 N   0  0  0  0  0  0
  -25.4358  -15.1856   20.3950 N   0  0  0  0  0  0
  -31.8066  -14.6939   20.1211 O   0  0  0  0  0  0
  -21.6677   -6.8871   21.4218 O   0  0  0  0  0  0
  -22.3524  -14.5574   20.6696 O   0  0  0  0  0  0
  -24.6163  -31.8693   23.2107 C   0  0  0  0  0  0
  -25.9063  -32.4806   23.8400 C   0  0  1  0  0  0
  -27.2244  -27.4123   20.0945 C   0  0  0  0  0  0
  -25.5925  -33.8608   24.2311 N   0  0  0  0  0  0
  -23.4033  -30.4951   21.5535 C   0  0  2  0  0  0
  -24.8452  -28.9682   20.1104 C   0  0  0  0  0  0
  -22.7432  -29.4663   22.5007 C   0  0  0  0  0  0
  -18.0272  -28.1381   22.8477 C   0  0  0  0  0  0
  -24.1490  -36.7325   23.2634 C   0  0  0  0  0  0
  -25.9365  -30.8263   21.3677 C   0  0  0  0  0  0
  -26.0105  -29.4641   20.7072 C   0  0  0  0  0  0
  -27.2050  -28.6998   20.6890 C   0  0  0  0  0  0
  -26.0359  -26.9492   19.4789 C   0  0  0  0  0  0
  -24.8570  -27.7119   19.4874 C   0  0  0  0  0  0
  -23.6060  -29.8347   20.1672 C   0  0  0  0  0  0
  -25.4103  -36.3098   24.0320 C   0  0  1  0  0  0
  -20.5868  -28.3653   23.1331 C   0  0  2  0  0  0
  -20.6751  -26.9398   22.5409 C   0  0  0  0  0  0
  -19.5732  -26.6384   21.5200 C   0  0  0  0  0  0
  -18.1924  -26.7926   22.1616 C   0  0  0  0  0  0
  -19.1521  -28.8834   23.2890 C   0  0  0  0  0  0
  -18.9447  -30.1443   23.8892 C   0  0  0  0  0  0
  -17.6449  -30.6583   24.0555 C   0  0  0  0  0  0
  -25.9042  -34.9464   23.5104 C   0  0  0  0  0  0
  -16.5340  -29.9072   23.6337 C   0  0  0  0  0  0
  -16.7257  -28.6493   23.0341 C   0  0  0  0  0  0
  -26.4478  -31.6599   25.0752 C   0  0  0  0  0  0
  -25.3740  -31.3719   26.1509 C   0  0  0  0  0  0
  -27.0294  -30.3023   24.6158 C   0  0  0  0  0  0
  -27.6051  -32.4333   25.7518 C   0  0  0  0  0  0
  -27.5583  -37.1809   24.8450 C   0  0  0  0  0  0
  -21.4159  -29.3021   22.3761 N   0  0  0  0  0  0
  -26.4287  -37.3784   23.9419 N   0  0  0  0  0  0
  -24.6709  -31.0789   22.1003 N   0  0  0  0  0  0
  -23.4210  -28.8216   23.3060 O   0  0  0  0  0  0
  -28.3702  -26.6261   20.1347 O   0  0  0  0  0  0
  -26.5611  -34.8920   22.4674 O   0  0  0  0  0  0
  -23.5359  -32.1469   23.7493 O   0  0  0  0  0  0
  -29.3263  -17.8707   20.8451 C   0  0  0  0  0  0
  -31.4840  -17.4229   21.6405 C   0  0  0  0  0  0
  -30.2906  -16.8793   21.2312 C   0  0  0  0  0  0
  -29.8202  -19.1595   20.8855 C   0  0  0  0  0  0
  -30.2675  -21.7180   18.7936 C   0  0  0  0  0  0
  -32.9329  -23.9970   17.0258 C   0  0  0  0  0  0
  -31.6312  -22.3461   18.4946 C   0  0  0  0  0  0
  -31.5663  -23.3827   17.3542 C   0  0  0  0  0  0
  -28.8512  -22.7893   20.6083 C   0  0  0  0  0  0
  -28.1143  -25.2063   20.2632 C   0  0  0  0  0  0
  -29.8276  -21.6211   20.2700 C   0  0  1  0  0  0
  -29.3320  -24.2795   20.5098 C   0  0  1  0  0  0
  -29.9929  -15.4779   21.2287 N   0  0  0  0  0  0
  -29.1446  -20.3331   20.5076 N   0  0  0  0  0  0
  -29.5543  -21.3155   17.8688 O   0  0  0  0  0  0
  -29.8936  -24.6475   21.7552 O   0  0  0  0  0  0
  -31.4704  -19.1621   21.4781 S   0  0  0  0  0  0
  -31.4731  -12.4532   19.1406 H   0  0  0  0  0  0
  -30.3422  -11.3232   19.8261 H   0  0  0  0  0  0
  -29.7658  -11.8112   17.4364 H   0  0  0  0  0  0
  -29.6680  -13.5201   17.7833 H   0  0  0  0  0  0
  -27.8323  -11.3193   18.8021 H   0  0  0  0  0  0
  -27.3789  -12.6611   17.7884 H   0  0  0  0  0  0
  -27.7160  -14.2606   19.5784 H   0  0  0  0  0  0
  -28.6727  -11.9616   21.3518 H   0  0  0  0  0  0
  -28.4439  -13.5974   21.8753 H   0  0  0  0  0  0
  -25.2751   -9.5787   22.4696 H   0  0  0  0  0  0
  -24.0048   -7.4688   22.7477 H   0  0  0  0  0  0
  -21.0840   -8.8760   19.8948 H   0  0  0  0  0  0
  -22.3649  -10.9671   19.6157 H   0  0  0  0  0  0
  -21.1977   -7.6142   23.9690 H   0  0  0  0  0  0
  -21.1498   -6.0507   25.9053 H   0  0  0  0  0  0
  -22.0601   -2.7604   23.2812 H   0  0  0  0  0  0
  -22.4123  -11.9908   22.4723 H   0  0  0  0  0  0
  -21.1117  -13.1272   22.2612 H   0  0  0  0  0  0
  -24.6776  -15.8506   20.4931 H   0  0  0  0  0  0
  -26.2937  -15.6109   20.0656 H   0  0  0  0  0  0
  -26.7140  -32.5492   23.1160 H   0  0  0  0  0  0
  -25.0036  -33.9767   25.0432 H   0  0  0  0  0  0
  -22.6863  -31.3099   21.4230 H   0  0  0  0  0  0
  -23.3737  -35.9677   23.3275 H   0  0  0  0  0  0
  -24.3600  -36.8969   22.2059 H   0  0  0  0  0  0
  -23.7250  -37.6520   23.6675 H   0  0  0  0  0  0
  -26.0620  -31.5966   20.6065 H   0  0  0  0  0  0
  -26.8191  -30.8670   21.9957 H   0  0  0  0  0  0
  -28.1007  -29.0824   21.1557 H   0  0  0  0  0  0
  -25.9840  -25.9942   18.9787 H   0  0  0  0  0  0
  -23.9663  -27.3260   19.0098 H   0  0  0  0  0  0
  -23.7052  -30.6130   19.4080 H   0  0  0  0  0  0
  -22.7284  -29.2538   19.8764 H   0  0  0  0  0  0
  -25.1272  -36.1944   25.0804 H   0  0  0  0  0  0
  -20.9925  -28.3207   24.1464 H   0  0  0  0  0  0
  -20.5681  -26.2263   23.3586 H   0  0  0  0  0  0
  -21.6626  -26.7489   22.1198 H   0  0  0  0  0  0
  -19.6909  -25.6297   21.1229 H   0  0  0  0  0  0
  -19.6678  -27.3196   20.6733 H   0  0  0  0  0  0
  -17.4196  -26.6683   21.4004 H   0  0  0  0  0  0
  -18.0335  -26.0074   22.9018 H   0  0  0  0  0  0
  -19.7913  -30.7267   24.2271 H   0  0  0  0  0  0
  -17.4997  -31.6262   24.5149 H   0  0  0  0  0  0
  -15.5339  -30.2960   23.7671 H   0  0  0  0  0  0
  -15.8657  -28.0815   22.7049 H   0  0  0  0  0  0
  -24.5867  -30.7112   25.7854 H   0  0  0  0  0  0
  -24.8981  -32.2874   26.5031 H   0  0  0  0  0  0
  -25.8092  -30.8827   27.0233 H   0  0  0  0  0  0
  -26.2833  -29.6809   24.1179 H   0  0  0  0  0  0
  -27.3987  -29.7242   25.4643 H   0  0  0  0  0  0
  -27.8724  -30.4305   23.9361 H   0  0  0  0  0  0
  -27.2639  -33.3588   26.2176 H   0  0  0  0  0  0
  -28.3821  -32.6978   25.0332 H   0  0  0  0  0  0
  -28.0785  -31.8428   26.5372 H   0  0  0  0  0  0
  -28.2569  -38.0137   24.7523 H   0  0  0  0  0  0
  -28.1105  -36.2661   24.6216 H   0  0  0  0  0  0
  -27.2329  -37.1398   25.8862 H   0  0  0  0  0  0
  -20.9348  -29.8728   21.6958 H   0  0  0  0  0  0
  -26.0160  -38.2868   24.1402 H   0  0  0  0  0  0
  -28.3280  -17.6092   20.5236 H   0  0  0  0  0  0
  -32.3713  -16.9313   22.0232 H   0  0  0  0  0  0
  -32.8406  -24.7588   16.2495 H   0  0  0  0  0  0
  -33.6293  -23.2385   16.6630 H   0  0  0  0  0  0
  -33.3816  -24.4745   17.8978 H   0  0  0  0  0  0
  -32.3249  -21.5435   18.2393 H   0  0  0  0  0  0
  -32.0096  -22.8126   19.4028 H   0  0  0  0  0  0
  -31.1497  -22.9271   16.4541 H   0  0  0  0  0  0
  -30.8791  -24.1844   17.6289 H   0  0  0  0  0  0
  -28.4531  -22.6258   21.6106 H   0  0  0  0  0  0
  -27.9877  -22.6671   19.9516 H   0  0  0  0  0  0
  -27.3806  -25.0433   21.0518 H   0  0  0  0  0  0
  -27.6726  -24.8527   19.3330 H   0  0  0  0  0  0
  -30.7044  -21.6990   20.9090 H   0  0  0  0  0  0
  -30.0580  -24.4261   19.7136 H   0  0  0  0  0  0
  -29.0623  -15.2160   21.5260 H   0  0  0  0  0  0
  -28.4000  -20.1783   19.8323 H   0  0  0  0  0  0
  -29.7117  -25.5805   21.8676 H   0  0  0  0  0  0
  1 25  1  0  0  0
  1 30  2  0  0  0
  1 83  1  0  0  0
  2  3  1  0  0  0
  2 25  1  0  0  0
  2 88  1  0  0  0
  2 89  1  0  0  0
  3  4  1  0  0  0
  3 90  1  0  0  0
  3 91  1  0  0  0
  4  5  1  0  0  0
  4 92  1  0  0  0
  4 93  1  0  0  0
  5  6  1  0  0  0
  5 26  1  0  0  0
  5 94  1  0  0  0
  6 25  1  0  0  0
  6 95  1  0  0  0
  6 96  1  0  0  0
  7  8  2  0  0  0
  7 26  1  0  0  0
  7 29  1  0  0  0
  8  9  1  0  0  0
  8 22  1  0  0  0
  9 10  1  0  0  0
  9 27  2  0  0  0
 10 11  2  0  0  0
 10 15  1  0  0  0
 11 12  1  0  0  0
 11 97  1  0  0  0
 12 13  2  0  0  0
 12 98  1  0  0  0
 13 14  1  0  0  0
 13 31  1  0  0  0
 14 15  2  0  0  0
 14 99  1  0  0  0
 15100  1  0  0  0
 16 17  2  0  0  0
 16 21  1  0  0  0
 16 31  1  0  0  0
 17 18  1  0  0  0
 17101  1  0  0  0
 18 19  2  0  0  0
 18102  1  0  0  0
 19 20  1  0  0  0
 19 24  1  0  0  0
 20 21  2  0  0  0
 20103  1  0  0  0
 21 23  1  0  0  0
 22 28  1  0  0  0
 22 32  2  0  0  0
 26 27  1  0  0  0
 28104  1  0  0  0
 28105  1  0  0  0
 29106  1  0  0  0
 29107  1  0  0  0
 33 34  1  0  0  0
 33 66  1  0  0  0
 33 70  2  0  0  0
 34 36  1  0  0  0
 34 59  1  0  0  0
 34108  1  0  0  0
 35 44  2  0  0  0
 35 45  1  0  0  0
 35 68  1  0  0  0
 36 56  1  0  0  0
 36109  1  0  0  0
 37 39  1  0  0  0
 37 47  1  0  0  0
 37 66  1  0  0  0
 37110  1  0  0  0
 38 43  2  0  0  0
 38 46  1  0  0  0
 38 47  1  0  0  0
 39 64  1  0  0  0
 39 67  2  0  0  0
 40 52  1  0  0  0
 40 53  2  0  0  0
 40 58  1  0  0  0
 41111  1  0  0  0
 41112  1  0  0  0
 41113  1  0  0  0
 41 48  1  0  0  0
 42 43  1  0  0  0
 42 66  1  0  0  0
 42114  1  0  0  0
 42115  1  0  0  0
 43 44  1  0  0  0
 44116  1  0  0  0
 45 46  2  0  0  0
 45117  1  0  0  0
 46118  1  0  0  0
 47119  1  0  0  0
 47120  1  0  0  0
 48 56  1  0  0  0
 48 65  1  0  0  0
 48121  1  0  0  0
 49 50  1  0  0  0
 49 53  1  0  0  0
 49 64  1  0  0  0
 49122  1  0  0  0
 50 51  1  0  0  0
 50123  1  0  0  0
 50124  1  0  0  0
 51 52  1  0  0  0
 51125  1  0  0  0
 51126  1  0  0  0
 52127  1  0  0  0
 52128  1  0  0  0
 53 54  1  0  0  0
 54 55  2  0  0  0
 54129  1  0  0  0
 55 57  1  0  0  0
 55130  1  0  0  0
 56 69  2  0  0  0
 57 58  2  0  0  0
 57131  1  0  0  0
 58132  1  0  0  0
 59 60  1  0  0  0
 59 61  1  0  0  0
 59 62  1  0  0  0
 60133  1  0  0  0
 60134  1  0  0  0
 60135  1  0  0  0
 61136  1  0  0  0
 61137  1  0  0  0
 61138  1  0  0  0
 62139  1  0  0  0
 62140  1  0  0  0
 62141  1  0  0  0
 63 65  1  0  0  0
 63142  1  0  0  0
 63143  1  0  0  0
 63144  1  0  0  0
 64145  1  0  0  0
 65146  1  0  0  0
 68 80  1  0  0  0
 71 73  1  0  0  0
 71 74  2  0  0  0
 71147  1  0  0  0
 72 73  2  0  0  0
 72 87  1  0  0  0
 72148  1  0  0  0
 73 83  1  0  0  0
 74 84  1  0  0  0
 74 87  1  0  0  0
 75 77  1  0  0  0
 75 81  1  0  0  0
 75 85  2  0  0  0
 76 78  1  0  0  0
 76149  1  0  0  0
 76150  1  0  0  0
 76151  1  0  0  0
 77 78  1  0  0  0
 77152  1  0  0  0
 77153  1  0  0  0
 78154  1  0  0  0
 78155  1  0  0  0
 79 82  1  0  0  0
 79156  1  0  0  0
 79157  1  0  0  0
 79 81  1  0  0  0
 80 82  1  0  0  0
 80158  1  0  0  0
 80159  1  0  0  0
 81 84  1  0  0  0
 81160  1  0  0  0
 82 86  1  0  0  0
 82161  1  0  0  0
 83162  1  0  0  0
 84163  1  0  0  0
 86164  1  0  0  0
M  ISO  4   1 100  68 101  80 101  83 100
M  END
> <chiral flag>
0

> <version>
0

> <s_m_source_file>
/data/baiqing/PycharmProjects/Reinvent-master-3.2/result/LINK_invent/BTK/process_docking_weight1_custom_product_contain_oxygen_bond_distance_aromatic_linkinvent_7_9_3/rearranged_h_0199.sdf

> <i_m_source_file_index>
40

> <r_mmod_Potential_Energy-OPLS-2005>
-18.4769859313965

> <r_mmod_Stretch_Energy-OPLS-2005>
42.9320526123047

> <r_mmod_Bend_Energy-OPLS-2005>
110.875633239746

> <r_mmod_Torsional_Energy-OPLS-2005>
240.145385742188

> <r_mmod_Improper_Torsional_Energy-OPLS-2005>
6.86161947250366

> <r_mmod_Van_der_Waal_Energy-OPLS-2005>
132.731475830078

> <r_mmod_Electrostatic_Energy-OPLS-2005>
-326.194610595703

> <r_mmod_Solvation_Energy-OPLS-2005>
-243.001556396484

> <b_mmod_Minimization_Converged-OPLS-2005>
0

> <r_mmod_RMS_Derivative-OPLS-2005>
4.90095710754395

$$$$
40
                    3D
 Structure written by MMmdl.
153161  0  0  1  0            999 V2000
  -30.5783  -15.0489   20.3879 C   0  0  0  0  0  0
  -30.4190  -12.6715   19.4972 C   0  0  0  0  0  0
  -29.5077  -12.5493   18.2570 C   0  0  0  0  0  0
  -28.0492  -12.3177   18.6863 C   0  0  0  0  0  0
  -27.6163  -13.2642   19.8375 C   0  0  2  0  0  0
  -28.6670  -13.3401   20.9641 C   0  0  0  0  0  0
  -25.2340  -13.8193   20.5645 C   0  0  0  0  0  0
  -24.1707  -13.0402   20.9201 C   0  0  0  0  0  0
  -24.6386  -11.6909   20.8779 C   0  0  0  0  0  0
  -23.9083  -10.4275   21.0410 C   0  0  0  0  0  0
  -24.3626   -9.4188   21.9185 C   0  0  0  0  0  0
  -23.6299   -8.2228   22.0756 C   0  0  0  0  0  0
  -22.4278   -8.0272   21.3546 C   0  0  0  0  0  0
  -21.9915   -9.0246   20.4648 C   0  0  0  0  0  0
  -22.7251  -10.2121   20.3061 C   0  0  0  0  0  0
  -21.6851   -6.0731   22.5281 C   0  0  0  0  0  0
  -21.4014   -6.5640   23.8212 C   0  0  0  0  0  0
  -21.3662   -5.6791   24.9173 C   0  0  0  0  0  0
  -21.6045   -4.3055   24.7223 C   0  0  0  0  0  0
  -21.8820   -3.8146   23.4345 C   0  0  0  0  0  0
  -21.9194   -4.6962   22.3402 C   0  0  0  0  0  0
  -22.7733  -13.5169   21.1865 C   0  0  0  0  0  0
  -22.1664   -4.2152   21.0977 F   0  0  0  0  0  0
  -21.5626   -3.4538   25.7733 F   0  0  0  0  0  0
  -29.9059  -13.8123   20.3292 N   0  0  0  0  0  0
  -26.2830  -12.9494   20.3317 N   0  0  0  0  0  0
  -25.9336  -11.6607   20.5826 N   0  0  0  0  0  0
  -22.0411  -12.8163   22.0441 N   0  0  0  0  0  0
  -25.3894  -15.1891   20.3912 N   0  0  0  0  0  0
  -31.7995  -14.9599   20.2150 O   0  0  0  0  0  0
  -21.6645   -6.8867   21.4239 O   0  0  0  0  0  0
  -22.3412  -14.5480   20.6730 O   0  0  0  0  0  0
  -24.6490  -31.8385   23.1838 C   0  0  0  0  0  0
  -25.9241  -32.4669   23.8242 C   0  0  1  0  0  0
  -27.2136  -27.0795   20.1609 C   0  0  0  0  0  0
  -25.5966  -33.8476   24.2162 N   0  0  0  0  0  0
  -23.4547  -30.4560   21.5309 C   0  0  2  0  0  0
  -24.9041  -28.8703   20.1141 C   0  0  0  0  0  0
  -22.7588  -29.4525   22.4851 C   0  0  0  0  0  0
  -18.0306  -28.1399   22.8478 C   0  0  0  0  0  0
  -24.1491  -36.7240   23.2647 C   0  0  0  0  0  0
  -26.0145  -30.6945   21.3897 C   0  0  0  0  0  0
  -26.0847  -29.2987   20.7351 C   0  0  0  0  0  0
  -27.2415  -28.4216   20.7361 C   0  0  0  0  0  0
  -26.0082  -26.7674   19.4981 C   0  0  0  0  0  0
  -24.8822  -27.6203   19.4781 C   0  0  0  0  0  0
  -23.6840  -29.7808   20.1528 C   0  0  0  0  0  0
  -25.4128  -36.3019   24.0316 C   0  0  1  0  0  0
  -20.5922  -28.3732   23.1230 C   0  0  2  0  0  0
  -20.6796  -26.9429   22.5413 C   0  0  0  0  0  0
  -19.5775  -26.6380   21.5219 C   0  0  0  0  0  0
  -18.1947  -26.7938   22.1617 C   0  0  0  0  0  0
  -19.1563  -28.8882   23.2844 C   0  0  0  0  0  0
  -18.9485  -30.1471   23.8877 C   0  0  0  0  0  0
  -17.6486  -30.6596   24.0558 C   0  0  0  0  0  0
  -25.9081  -34.9396   23.5050 C   0  0  0  0  0  0
  -16.5373  -29.9093   23.6338 C   0  0  0  0  0  0
  -16.7289  -28.6507   23.0364 C   0  0  0  0  0  0
  -26.4551  -31.6549   25.0695 C   0  0  0  0  0  0
  -25.3716  -31.3759   26.1376 C   0  0  0  0  0  0
  -27.0419  -30.2940   24.6295 C   0  0  0  0  0  0
  -27.6080  -32.4314   25.7483 C   0  0  0  0  0  0
  -27.5574  -37.1779   24.8469 C   0  0  0  0  0  0
  -21.4274  -29.3048   22.3595 N   0  0  0  0  0  0
  -26.4290  -37.3736   23.9409 N   0  0  0  0  0  0
  -24.7265  -31.0191   22.0896 N   0  0  0  0  0  0
  -23.4206  -28.8078   23.3022 O   0  0  0  0  0  0
  -28.2567  -26.0659   20.1759 O   0  0  0  0  0  0
  -26.5672  -34.8907   22.4630 O   0  0  0  0  0  0
  -23.5594  -32.1291   23.7023 O   0  0  0  0  0  0
  -27.1126  -16.9521   22.3136 C   0  0  0  0  0  0
  -26.7525  -18.2931   22.2313 C   0  0  0  0  0  0
  -28.9756  -17.2768   20.8991 C   0  0  0  0  0  0
  -28.6203  -18.7920   20.8693 C   0  0  0  0  0  0
  -29.1959  -21.7641   22.2220 C   0  0  0  0  0  0
  -28.8077  -23.0809   20.0289 C   0  0  0  0  0  0
  -27.9876  -24.5338   20.4794 C   0  0  0  0  0  0
  -28.6403  -21.5535   20.8013 C   0  0  1  0  0  0
  -28.1782  -16.4758   21.6483 N   0  0  0  0  0  0
  -27.4912  -19.1623   21.5266 N   0  0  0  0  0  0
  -30.0488  -16.3966   20.2821 N   0  0  0  0  0  0
  -29.1279  -20.0969   20.3214 N   0  0  0  0  0  0
  -31.4482  -12.8214   19.1685 H   0  0  0  0  0  0
  -30.4318  -11.7395   20.0645 H   0  0  0  0  0  0
  -29.8453  -11.7393   17.6093 H   0  0  0  0  0  0
  -29.5744  -13.4645   17.6667 H   0  0  0  0  0  0
  -27.9676  -11.2808   19.0143 H   0  0  0  0  0  0
  -27.3796  -12.4217   17.8319 H   0  0  0  0  0  0
  -27.5600  -14.2582   19.3925 H   0  0  0  0  0  0
  -28.8008  -12.3671   21.4391 H   0  0  0  0  0  0
  -28.3510  -14.0053   21.7626 H   0  0  0  0  0  0
  -25.2759   -9.5671   22.4772 H   0  0  0  0  0  0
  -24.0007   -7.4617   22.7473 H   0  0  0  0  0  0
  -21.0850   -8.8768   19.8947 H   0  0  0  0  0  0
  -22.3705  -10.9666   19.6184 H   0  0  0  0  0  0
  -21.2010   -7.6151   23.9715 H   0  0  0  0  0  0
  -21.1482   -6.0522   25.9076 H   0  0  0  0  0  0
  -22.0598   -2.7609   23.2843 H   0  0  0  0  0  0
  -22.4056  -11.9834   22.4823 H   0  0  0  0  0  0
  -21.1042  -13.1184   22.2683 H   0  0  0  0  0  0
  -24.6221  -15.8415   20.5027 H   0  0  0  0  0  0
  -26.2731  -15.6299   20.1695 H   0  0  0  0  0  0
  -26.7300  -32.5258   23.0960 H   0  0  0  0  0  0
  -25.0090  -33.9577   25.0296 H   0  0  0  0  0  0
  -22.7609  -31.2844   21.3724 H   0  0  0  0  0  0
  -23.3763  -35.9562   23.3304 H   0  0  0  0  0  0
  -24.3571  -36.8878   22.2062 H   0  0  0  0  0  0
  -23.7243  -37.6434   23.6688 H   0  0  0  0  0  0
  -26.1738  -31.4435   20.6126 H   0  0  0  0  0  0
  -26.8842  -30.7497   22.0329 H   0  0  0  0  0  0
  -28.1425  -28.7484   21.2361 H   0  0  0  0  0  0
  -25.9151  -25.8183   18.9918 H   0  0  0  0  0  0
  -23.9854  -27.2907   18.9731 H   0  0  0  0  0  0
  -23.8276  -30.5538   19.3971 H   0  0  0  0  0  0
  -22.7964  -29.2277   19.8398 H   0  0  0  0  0  0
  -25.1321  -36.1840   25.0810 H   0  0  0  0  0  0
  -21.0009  -28.3324   24.1356 H   0  0  0  0  0  0
  -20.5693  -26.2338   23.3633 H   0  0  0  0  0  0
  -21.6661  -26.7433   22.1208 H   0  0  0  0  0  0
  -19.6945  -25.6285   21.1258 H   0  0  0  0  0  0
  -19.6722  -27.3180   20.6742 H   0  0  0  0  0  0
  -17.4223  -26.6686   21.4010 H   0  0  0  0  0  0
  -18.0340  -26.0078   22.9010 H   0  0  0  0  0  0
  -19.7962  -30.7284   24.2241 H   0  0  0  0  0  0
  -17.5043  -31.6277   24.5161 H   0  0  0  0  0  0
  -15.5372  -30.2996   23.7679 H   0  0  0  0  0  0
  -15.8683  -28.0816   22.7112 H   0  0  0  0  0  0
  -24.5913  -30.7087   25.7702 H   0  0  0  0  0  0
  -24.8881  -32.2941   26.4714 H   0  0  0  0  0  0
  -25.7977  -30.8995   27.0210 H   0  0  0  0  0  0
  -26.3039  -29.6648   24.1302 H   0  0  0  0  0  0
  -27.4037  -29.7261   25.4878 H   0  0  0  0  0  0
  -27.8948  -30.4188   23.9621 H   0  0  0  0  0  0
  -27.2691  -33.3659   26.1973 H   0  0  0  0  0  0
  -28.3939  -32.6791   25.0333 H   0  0  0  0  0  0
  -28.0686  -31.8478   26.5465 H   0  0  0  0  0  0
  -28.2596  -38.0071   24.7498 H   0  0  0  0  0  0
  -28.1066  -36.2597   24.6315 H   0  0  0  0  0  0
  -27.2284  -37.1449   25.8871 H   0  0  0  0  0  0
  -20.9497  -29.8742   21.6751 H   0  0  0  0  0  0
  -26.0151  -38.2805   24.1408 H   0  0  0  0  0  0
  -26.5202  -16.2471   22.8775 H   0  0  0  0  0  0
  -25.8728  -18.6725   22.7310 H   0  0  0  0  0  0
  -28.8148  -22.6805   22.6719 H   0  0  0  0  0  0
  -30.2843  -21.8396   22.2080 H   0  0  0  0  0  0
  -28.9305  -20.9517   22.8979 H   0  0  0  0  0  0
  -29.8725  -23.3160   20.0430 H   0  0  0  0  0  0
  -28.5817  -22.9254   18.9738 H   0  0  0  0  0  0
  -27.9884  -24.5226   21.5686 H   0  0  0  0  0  0
  -26.9441  -24.3425   20.2358 H   0  0  0  0  0  0
  -27.5560  -21.4787   20.8875 H   0  0  0  0  0  0
  -30.7666  -16.9812   19.8830 H   0  0  0  0  0  0
  -29.9695  -20.0446   19.7527 H   0  0  0  0  0  0
  1 25  1  0  0  0
  1 30  2  0  0  0
  1 81  1  0  0  0
  2  3  1  0  0  0
  2 25  1  0  0  0
  2 83  1  0  0  0
  2 84  1  0  0  0
  3  4  1  0  0  0
  3 85  1  0  0  0
  3 86  1  0  0  0
  4  5  1  0  0  0
  4 87  1  0  0  0
  4 88  1  0  0  0
  5  6  1  0  0  0
  5 26  1  0  0  0
  5 89  1  0  0  0
  6 25  1  0  0  0
  6 90  1  0  0  0
  6 91  1  0  0  0
  7  8  2  0  0  0
  7 26  1  0  0  0
  7 29  1  0  0  0
  8  9  1  0  0  0
  8 22  1  0  0  0
  9 10  1  0  0  0
  9 27  2  0  0  0
 10 11  2  0  0  0
 10 15  1  0  0  0
 11 12  1  0  0  0
 11 92  1  0  0  0
 12 13  2  0  0  0
 12 93  1  0  0  0
 13 14  1  0  0  0
 13 31  1  0  0  0
 14 15  2  0  0  0
 14 94  1  0  0  0
 15 95  1  0  0  0
 16 17  2  0  0  0
 16 21  1  0  0  0
 16 31  1  0  0  0
 17 18  1  0  0  0
 17 96  1  0  0  0
 18 19  2  0  0  0
 18 97  1  0  0  0
 19 20  1  0  0  0
 19 24  1  0  0  0
 20 21  2  0  0  0
 20 98  1  0  0  0
 21 23  1  0  0  0
 22 28  1  0  0  0
 22 32  2  0  0  0
 26 27  1  0  0  0
 28 99  1  0  0  0
 28100  1  0  0  0
 29101  1  0  0  0
 29102  1  0  0  0
 33 34  1  0  0  0
 33 66  1  0  0  0
 33 70  2  0  0  0
 34 36  1  0  0  0
 34 59  1  0  0  0
 34103  1  0  0  0
 35 44  2  0  0  0
 35 45  1  0  0  0
 35 68  1  0  0  0
 36 56  1  0  0  0
 36104  1  0  0  0
 37 39  1  0  0  0
 37 47  1  0  0  0
 37 66  1  0  0  0
 37105  1  0  0  0
 38 43  2  0  0  0
 38 46  1  0  0  0
 38 47  1  0  0  0
 39 64  1  0  0  0
 39 67  2  0  0  0
 40 52  1  0  0  0
 40 53  2  0  0  0
 40 58  1  0  0  0
 41106  1  0  0  0
 41107  1  0  0  0
 41108  1  0  0  0
 41 48  1  0  0  0
 42 43  1  0  0  0
 42 66  1  0  0  0
 42109  1  0  0  0
 42110  1  0  0  0
 43 44  1  0  0  0
 44111  1  0  0  0
 45 46  2  0  0  0
 45112  1  0  0  0
 46113  1  0  0  0
 47114  1  0  0  0
 47115  1  0  0  0
 48 56  1  0  0  0
 48 65  1  0  0  0
 48116  1  0  0  0
 49 50  1  0  0  0
 49 53  1  0  0  0
 49 64  1  0  0  0
 49117  1  0  0  0
 50 51  1  0  0  0
 50118  1  0  0  0
 50119  1  0  0  0
 51 52  1  0  0  0
 51120  1  0  0  0
 51121  1  0  0  0
 52122  1  0  0  0
 52123  1  0  0  0
 53 54  1  0  0  0
 54 55  2  0  0  0
 54124  1  0  0  0
 55 57  1  0  0  0
 55125  1  0  0  0
 56 69  2  0  0  0
 57 58  2  0  0  0
 57126  1  0  0  0
 58127  1  0  0  0
 59 60  1  0  0  0
 59 61  1  0  0  0
 59 62  1  0  0  0
 60128  1  0  0  0
 60129  1  0  0  0
 60130  1  0  0  0
 61131  1  0  0  0
 61132  1  0  0  0
 61133  1  0  0  0
 62134  1  0  0  0
 62135  1  0  0  0
 62136  1  0  0  0
 63 65  1  0  0  0
 63137  1  0  0  0
 63138  1  0  0  0
 63139  1  0  0  0
 64140  1  0  0  0
 65141  1  0  0  0
 68 77  1  0  0  0
 71 72  2  0  0  0
 71 79  1  0  0  0
 71142  1  0  0  0
 72 80  1  0  0  0
 72143  1  0  0  0
 73 74  1  0  0  0
 73 79  2  0  0  0
 73 81  1  0  0  0
 74 80  2  0  0  0
 74 82  1  0  0  0
 75144  1  0  0  0
 75145  1  0  0  0
 75146  1  0  0  0
 75 78  1  0  0  0
 76 77  1  0  0  0
 76 78  1  0  0  0
 76147  1  0  0  0
 76148  1  0  0  0
 77149  1  0  0  0
 77150  1  0  0  0
 78 82  1  0  0  0
 78151  1  0  0  0
 81152  1  0  0  0
 82153  1  0  0  0
M  ISO  4   1 100  68 101  77 101  81 100
M  END
> <chiral flag>
0

> <version>
0

> <s_m_source_file>
/data/baiqing/PycharmProjects/Reinvent-master-3.2/result/LINK_invent/BTK/process_docking_weight1_custom_product_contain_oxygen_bond_distance_aromatic_linkinvent_7_9_3/rearranged_h_0199.sdf

> <i_m_source_file_index>
41

> <r_mmod_Potential_Energy-OPLS-2005>
808.4775390625

> <r_mmod_Stretch_Energy-OPLS-2005>
364.460968017578

> <r_mmod_Bend_Energy-OPLS-2005>
455.296081542969

> <r_mmod_Torsional_Energy-OPLS-2005>
233.454238891602

> <r_mmod_Improper_Torsional_Energy-OPLS-2005>
10.8065433502197

> <r_mmod_Van_der_Waal_Energy-OPLS-2005>
145.862365722656

> <r_mmod_Electrostatic_Energy-OPLS-2005>
-433.714080810547

> <r_mmod_Solvation_Energy-OPLS-2005>
-220.901260375977

> <b_mmod_Minimization_Converged-OPLS-2005>
0

> <r_mmod_RMS_Derivative-OPLS-2005>
1.44658493995667

$$$$
41
                    3D
 Structure written by MMmdl.
156164  0  0  1  0            999 V2000
  -30.5628  -14.7160   20.5011 C   0  0  0  0  0  0
  -30.4461  -12.4385   19.4710 C   0  0  0  0  0  0
  -29.5146  -12.5107   18.2391 C   0  0  0  0  0  0
  -28.0414  -12.3197   18.6524 C   0  0  0  0  0  0
  -27.6471  -13.2112   19.8585 C   0  0  2  0  0  0
  -28.6839  -13.0874   20.9946 C   0  0  0  0  0  0
  -25.2531  -13.8143   20.5650 C   0  0  0  0  0  0
  -24.1811  -13.0425   20.9224 C   0  0  0  0  0  0
  -24.6360  -11.6898   20.8727 C   0  0  0  0  0  0
  -23.9052  -10.4269   21.0394 C   0  0  0  0  0  0
  -24.3606   -9.4194   21.9191 C   0  0  0  0  0  0
  -23.6274   -8.2231   22.0755 C   0  0  0  0  0  0
  -22.4260   -8.0269   21.3537 C   0  0  0  0  0  0
  -21.9907   -9.0254   20.4645 C   0  0  0  0  0  0
  -22.7224  -10.2128   20.3048 C   0  0  0  0  0  0
  -21.6848   -6.0733   22.5273 C   0  0  0  0  0  0
  -21.4015   -6.5635   23.8215 C   0  0  0  0  0  0
  -21.3653   -5.6785   24.9176 C   0  0  0  0  0  0
  -21.6036   -4.3051   24.7219 C   0  0  0  0  0  0
  -21.8821   -3.8145   23.4343 C   0  0  0  0  0  0
  -21.9198   -4.6962   22.3397 C   0  0  0  0  0  0
  -22.7835  -13.5225   21.1894 C   0  0  0  0  0  0
  -22.1665   -4.2153   21.0973 F   0  0  0  0  0  0
  -21.5627   -3.4538   25.7736 F   0  0  0  0  0  0
  -29.9942  -13.4637   20.4392 N   0  0  0  0  0  0
  -26.2927  -12.9307   20.3246 N   0  0  0  0  0  0
  -25.9290  -11.6472   20.5733 N   0  0  0  0  0  0
  -22.0481  -12.8211   22.0435 N   0  0  0  0  0  0
  -25.4268  -15.1850   20.3943 N   0  0  0  0  0  0
  -31.7304  -14.8899   20.1350 O   0  0  0  0  0  0
  -21.6617   -6.8876   21.4237 O   0  0  0  0  0  0
  -22.3515  -14.5528   20.6742 O   0  0  0  0  0  0
  -24.6257  -31.8549   23.2019 C   0  0  0  0  0  0
  -25.9122  -32.4734   23.8325 C   0  0  1  0  0  0
  -27.2276  -27.2875   20.1262 C   0  0  0  0  0  0
  -25.5959  -33.8526   24.2261 N   0  0  0  0  0  0
  -23.4199  -30.4750   21.5439 C   0  0  2  0  0  0
  -24.8673  -28.9112   20.1184 C   0  0  0  0  0  0
  -22.7462  -29.4576   22.4953 C   0  0  0  0  0  0
  -18.0281  -28.1358   22.8422 C   0  0  0  0  0  0
  -24.1488  -36.7249   23.2650 C   0  0  0  0  0  0
  -25.9621  -30.7702   21.3785 C   0  0  0  0  0  0
  -26.0340  -29.3916   20.7259 C   0  0  0  0  0  0
  -27.2168  -28.5921   20.7144 C   0  0  0  0  0  0
  -26.0412  -26.8519   19.5044 C   0  0  0  0  0  0
  -24.8748  -27.6486   19.4970 C   0  0  0  0  0  0
  -23.6365  -29.8003   20.1611 C   0  0  0  0  0  0
  -25.4113  -36.3043   24.0348 C   0  0  1  0  0  0
  -20.5873  -28.3660   23.1263 C   0  0  2  0  0  0
  -20.6758  -26.9372   22.5405 C   0  0  0  0  0  0
  -19.5747  -26.6344   21.5181 C   0  0  0  0  0  0
  -18.1913  -26.7883   22.1587 C   0  0  0  0  0  0
  -19.1528  -28.8827   23.2812 C   0  0  0  0  0  0
  -18.9480  -30.1416   23.8856 C   0  0  0  0  0  0
  -17.6482  -30.6574   24.0524 C   0  0  0  0  0  0
  -25.9046  -34.9416   23.5096 C   0  0  0  0  0  0
  -16.5372  -29.9049   23.6338 C   0  0  0  0  0  0
  -16.7274  -28.6477   23.0327 C   0  0  0  0  0  0
  -26.4526  -31.6555   25.0702 C   0  0  0  0  0  0
  -25.3763  -31.3682   26.1432 C   0  0  0  0  0  0
  -27.0418  -30.3011   24.6143 C   0  0  0  0  0  0
  -27.6082  -32.4301   25.7470 C   0  0  0  0  0  0
  -27.5574  -37.1770   24.8472 C   0  0  0  0  0  0
  -21.4180  -29.3009   22.3677 N   0  0  0  0  0  0
  -26.4287  -37.3739   23.9421 N   0  0  0  0  0  0
  -24.6884  -31.0513   22.0995 N   0  0  0  0  0  0
  -23.4171  -28.8104   23.3026 O   0  0  0  0  0  0
  -28.3841  -26.4935   20.0539 O   0  0  0  0  0  0
  -26.5579  -34.8896   22.4630 O   0  0  0  0  0  0
  -23.5425  -32.1408   23.7341 O   0  0  0  0  0  0
  -28.4065  -17.8481   20.7919 C   0  0  0  0  0  0
  -30.5382  -19.4229   20.4301 C   0  0  0  0  0  0
  -29.6836  -17.2138   20.6818 C   0  0  0  0  0  0
  -29.2444  -20.0379   20.5548 C   0  0  0  0  0  0
  -31.7911  -20.2618   20.2602 C   0  0  0  0  0  0
  -28.3646  -21.7047   18.2665 C   0  0  0  0  0  0
  -28.0273  -23.8114   19.6955 C   0  0  0  0  0  0
  -28.4672  -25.0885   20.5561 C   0  0  0  0  0  0
  -28.8831  -22.4327   19.5260 C   0  0  1  0  0  0
  -28.1867  -19.2028   20.7225 N   0  0  0  0  0  0
  -30.7465  -18.0553   20.4849 N   0  0  0  0  0  0
  -29.7006  -15.7431   20.8287 N   0  0  0  0  0  0
  -28.9787  -21.4569   20.6718 N   0  0  0  0  0  0
  -31.4846  -12.5914   19.1725 H   0  0  0  0  0  0
  -30.4113  -11.4474   19.9241 H   0  0  0  0  0  0
  -29.7988  -11.7537   17.5074 H   0  0  0  0  0  0
  -29.6336  -13.4773   17.7444 H   0  0  0  0  0  0
  -27.9129  -11.2688   18.9164 H   0  0  0  0  0  0
  -27.3780  -12.5025   17.8058 H   0  0  0  0  0  0
  -27.6585  -14.2378   19.4934 H   0  0  0  0  0  0
  -28.7118  -12.0643   21.3736 H   0  0  0  0  0  0
  -28.4072  -13.7092   21.8477 H   0  0  0  0  0  0
  -25.2745   -9.5665   22.4763 H   0  0  0  0  0  0
  -23.9993   -7.4609   22.7456 H   0  0  0  0  0  0
  -21.0866   -8.8750   19.8927 H   0  0  0  0  0  0
  -22.3692  -10.9669   19.6145 H   0  0  0  0  0  0
  -21.1999   -7.6137   23.9724 H   0  0  0  0  0  0
  -21.1475   -6.0511   25.9085 H   0  0  0  0  0  0
  -22.0604   -2.7606   23.2836 H   0  0  0  0  0  0
  -22.4097  -11.9866   22.4813 H   0  0  0  0  0  0
  -21.1082  -13.1222   22.2630 H   0  0  0  0  0  0
  -24.6460  -15.8285   20.4548 H   0  0  0  0  0  0
  -26.2310  -15.5900   19.9345 H   0  0  0  0  0  0
  -26.7156  -32.5415   23.1032 H   0  0  0  0  0  0
  -25.0216  -33.9654   25.0499 H   0  0  0  0  0  0
  -22.7164  -31.2960   21.3948 H   0  0  0  0  0  0
  -23.3750  -35.9575   23.3311 H   0  0  0  0  0  0
  -24.3616  -36.8903   22.2069 H   0  0  0  0  0  0
  -23.7230  -37.6450   23.6684 H   0  0  0  0  0  0
  -26.0974  -31.5275   20.6058 H   0  0  0  0  0  0
  -26.8443  -30.8203   22.0058 H   0  0  0  0  0  0
  -28.1196  -28.9623   21.1771 H   0  0  0  0  0  0
  -26.0209  -25.8962   19.0004 H   0  0  0  0  0  0
  -23.9866  -27.2798   19.0020 H   0  0  0  0  0  0
  -23.7579  -30.5760   19.4042 H   0  0  0  0  0  0
  -22.7547  -29.2329   19.8572 H   0  0  0  0  0  0
  -25.1281  -36.1903   25.0850 H   0  0  0  0  0  0
  -20.9943  -28.3231   24.1393 H   0  0  0  0  0  0
  -20.5641  -26.2255   23.3605 H   0  0  0  0  0  0
  -21.6620  -26.7366   22.1219 H   0  0  0  0  0  0
  -19.6912  -25.6245   21.1242 H   0  0  0  0  0  0
  -19.6725  -27.3103   20.6678 H   0  0  0  0  0  0
  -17.4176  -26.6613   21.3982 H   0  0  0  0  0  0
  -18.0310  -26.0030   22.9008 H   0  0  0  0  0  0
  -19.7964  -30.7174   24.2255 H   0  0  0  0  0  0
  -17.5066  -31.6271   24.5056 H   0  0  0  0  0  0
  -15.5363  -30.2923   23.7737 H   0  0  0  0  0  0
  -15.8665  -28.0803   22.7069 H   0  0  0  0  0  0
  -24.5952  -30.7006   25.7778 H   0  0  0  0  0  0
  -24.8906  -32.2821   26.4864 H   0  0  0  0  0  0
  -25.8087  -30.8880   27.0215 H   0  0  0  0  0  0
  -26.2994  -29.6693   24.1247 H   0  0  0  0  0  0
  -27.4260  -29.7325   25.4631 H   0  0  0  0  0  0
  -27.8790  -30.4377   23.9281 H   0  0  0  0  0  0
  -27.2716  -33.3639   26.1985 H   0  0  0  0  0  0
  -28.3903  -32.6817   25.0289 H   0  0  0  0  0  0
  -28.0704  -31.8450   26.5441 H   0  0  0  0  0  0
  -28.2550  -38.0092   24.7529 H   0  0  0  0  0  0
  -28.1109  -36.2627   24.6286 H   0  0  0  0  0  0
  -27.2295  -37.1408   25.8872 H   0  0  0  0  0  0
  -20.9374  -29.8809   21.6946 H   0  0  0  0  0  0
  -26.0166  -38.2821   24.1435 H   0  0  0  0  0  0
  -27.5203  -17.2529   20.9577 H   0  0  0  0  0  0
  -32.0346  -20.7685   21.1944 H   0  0  0  0  0  0
  -31.6481  -21.0157   19.4859 H   0  0  0  0  0  0
  -32.6436  -19.6473   19.9674 H   0  0  0  0  0  0
  -28.2718  -22.3790   17.4145 H   0  0  0  0  0  0
  -27.3786  -21.2652   18.4356 H   0  0  0  0  0  0
  -29.0419  -20.9118   17.9506 H   0  0  0  0  0  0
  -27.9346  -24.2204   18.6889 H   0  0  0  0  0  0
  -27.0045  -23.5574   19.9723 H   0  0  0  0  0  0
  -29.5268  -24.9539   20.7793 H   0  0  0  0  0  0
  -27.9823  -25.0403   21.5326 H   0  0  0  0  0  0
  -29.9070  -22.7384   19.3027 H   0  0  0  0  0  0
  -28.8121  -15.3729   21.1249 H   0  0  0  0  0  0
  -29.6429  -21.8416   21.3375 H   0  0  0  0  0  0
  1 25  1  0  0  0
  1 30  2  0  0  0
  1 82  1  0  0  0
  2  3  1  0  0  0
  2 25  1  0  0  0
  2 84  1  0  0  0
  2 85  1  0  0  0
  3  4  1  0  0  0
  3 86  1  0  0  0
  3 87  1  0  0  0
  4  5  1  0  0  0
  4 88  1  0  0  0
  4 89  1  0  0  0
  5  6  1  0  0  0
  5 26  1  0  0  0
  5 90  1  0  0  0
  6 25  1  0  0  0
  6 91  1  0  0  0
  6 92  1  0  0  0
  7  8  2  0  0  0
  7 26  1  0  0  0
  7 29  1  0  0  0
  8  9  1  0  0  0
  8 22  1  0  0  0
  9 10  1  0  0  0
  9 27  2  0  0  0
 10 11  2  0  0  0
 10 15  1  0  0  0
 11 12  1  0  0  0
 11 93  1  0  0  0
 12 13  2  0  0  0
 12 94  1  0  0  0
 13 14  1  0  0  0
 13 31  1  0  0  0
 14 15  2  0  0  0
 14 95  1  0  0  0
 15 96  1  0  0  0
 16 17  2  0  0  0
 16 21  1  0  0  0
 16 31  1  0  0  0
 17 18  1  0  0  0
 17 97  1  0  0  0
 18 19  2  0  0  0
 18 98  1  0  0  0
 19 20  1  0  0  0
 19 24  1  0  0  0
 20 21  2  0  0  0
 20 99  1  0  0  0
 21 23  1  0  0  0
 22 28  1  0  0  0
 22 32  2  0  0  0
 26 27  1  0  0  0
 28100  1  0  0  0
 28101  1  0  0  0
 29102  1  0  0  0
 29103  1  0  0  0
 33 34  1  0  0  0
 33 66  1  0  0  0
 33 70  2  0  0  0
 34 36  1  0  0  0
 34 59  1  0  0  0
 34104  1  0  0  0
 35 44  2  0  0  0
 35 45  1  0  0  0
 35 68  1  0  0  0
 36 56  1  0  0  0
 36105  1  0  0  0
 37 39  1  0  0  0
 37 47  1  0  0  0
 37 66  1  0  0  0
 37106  1  0  0  0
 38 43  2  0  0  0
 38 46  1  0  0  0
 38 47  1  0  0  0
 39 64  1  0  0  0
 39 67  2  0  0  0
 40 52  1  0  0  0
 40 53  2  0  0  0
 40 58  1  0  0  0
 41107  1  0  0  0
 41108  1  0  0  0
 41109  1  0  0  0
 41 48  1  0  0  0
 42 43  1  0  0  0
 42 66  1  0  0  0
 42110  1  0  0  0
 42111  1  0  0  0
 43 44  1  0  0  0
 44112  1  0  0  0
 45 46  2  0  0  0
 45113  1  0  0  0
 46114  1  0  0  0
 47115  1  0  0  0
 47116  1  0  0  0
 48 56  1  0  0  0
 48 65  1  0  0  0
 48117  1  0  0  0
 49 50  1  0  0  0
 49 53  1  0  0  0
 49 64  1  0  0  0
 49118  1  0  0  0
 50 51  1  0  0  0
 50119  1  0  0  0
 50120  1  0  0  0
 51 52  1  0  0  0
 51121  1  0  0  0
 51122  1  0  0  0
 52123  1  0  0  0
 52124  1  0  0  0
 53 54  1  0  0  0
 54 55  2  0  0  0
 54125  1  0  0  0
 55 57  1  0  0  0
 55126  1  0  0  0
 56 69  2  0  0  0
 57 58  2  0  0  0
 57127  1  0  0  0
 58128  1  0  0  0
 59 60  1  0  0  0
 59 61  1  0  0  0
 59 62  1  0  0  0
 60129  1  0  0  0
 60130  1  0  0  0
 60131  1  0  0  0
 61132  1  0  0  0
 61133  1  0  0  0
 61134  1  0  0  0
 62135  1  0  0  0
 62136  1  0  0  0
 62137  1  0  0  0
 63 65  1  0  0  0
 63138  1  0  0  0
 63139  1  0  0  0
 63140  1  0  0  0
 64141  1  0  0  0
 65142  1  0  0  0
 68 78  1  0  0  0
 71 73  2  0  0  0
 71 80  1  0  0  0
 71143  1  0  0  0
 72 74  1  0  0  0
 72 75  1  0  0  0
 72 81  2  0  0  0
 73 81  1  0  0  0
 73 82  1  0  0  0
 74 80  2  0  0  0
 74 83  1  0  0  0
 75144  1  0  0  0
 75145  1  0  0  0
 75146  1  0  0  0
 76147  1  0  0  0
 76148  1  0  0  0
 76149  1  0  0  0
 76 79  1  0  0  0
 77 78  1  0  0  0
 77 79  1  0  0  0
 77150  1  0  0  0
 77151  1  0  0  0
 78152  1  0  0  0
 78153  1  0  0  0
 79 83  1  0  0  0
 79154  1  0  0  0
 82155  1  0  0  0
 83156  1  0  0  0
M  ISO  4   1 100  68 101  78 101  82 100
M  END
> <chiral flag>
0

> <version>
0

> <s_m_source_file>
/data/baiqing/PycharmProjects/Reinvent-master-3.2/result/LINK_invent/BTK/process_docking_weight1_custom_product_contain_oxygen_bond_distance_aromatic_linkinvent_7_9_3/rearranged_h_0199.sdf

> <i_m_source_file_index>
42

> <r_mmod_Potential_Energy-OPLS-2005>
135.967025756836

> <r_mmod_Stretch_Energy-OPLS-2005>
105.883331298828

> <r_mmod_Bend_Energy-OPLS-2005>
202.504348754883

> <r_mmod_Torsional_Energy-OPLS-2005>
260.411956787109

> <r_mmod_Improper_Torsional_Energy-OPLS-2005>
11.0423545837402

> <r_mmod_Van_der_Waal_Energy-OPLS-2005>
133.11474609375

> <r_mmod_Electrostatic_Energy-OPLS-2005>
-398.146179199219

> <r_mmod_Solvation_Energy-OPLS-2005>
-243.904052734375

> <b_mmod_Minimization_Converged-OPLS-2005>
0

> <r_mmod_RMS_Derivative-OPLS-2005>
3.65418553352356

$$$$
42
                    3D
 Structure written by MMmdl.
154162  0  0  1  0            999 V2000
  -30.5718  -14.6677   20.4956 C   0  0  0  0  0  0
  -30.4457  -12.4218   19.4268 C   0  0  0  0  0  0
  -29.5109  -12.5645   18.2044 C   0  0  0  0  0  0
  -28.0297  -12.3952   18.6011 C   0  0  0  0  0  0
  -27.6538  -13.2199   19.8640 C   0  0  2  0  0  0
  -28.7022  -13.0355   20.9839 C   0  0  0  0  0  0
  -25.2545  -13.8173   20.5603 C   0  0  0  0  0  0
  -24.1830  -13.0437   20.9158 C   0  0  0  0  0  0
  -24.6418  -11.6917   20.8725 C   0  0  0  0  0  0
  -23.9114  -10.4301   21.0401 C   0  0  0  0  0  0
  -24.3673   -9.4216   21.9172 C   0  0  0  0  0  0
  -23.6322   -8.2252   22.0749 C   0  0  0  0  0  0
  -22.4288   -8.0305   21.3558 C   0  0  0  0  0  0
  -21.9941   -9.0260   20.4643 C   0  0  0  0  0  0
  -22.7272  -10.2131   20.3038 C   0  0  0  0  0  0
  -21.6853   -6.0750   22.5282 C   0  0  0  0  0  0
  -21.4025   -6.5644   23.8210 C   0  0  0  0  0  0
  -21.3664   -5.6782   24.9164 C   0  0  0  0  0  0
  -21.6043   -4.3041   24.7214 C   0  0  0  0  0  0
  -21.8829   -3.8149   23.4342 C   0  0  0  0  0  0
  -21.9205   -4.6965   22.3394 C   0  0  0  0  0  0
  -22.7862  -13.5216   21.1824 C   0  0  0  0  0  0
  -22.1650   -4.2151   21.0967 F   0  0  0  0  0  0
  -21.5626   -3.4522   25.7734 F   0  0  0  0  0  0
  -30.0124  -13.4162   20.4306 N   0  0  0  0  0  0
  -26.2999  -12.9367   20.3281 N   0  0  0  0  0  0
  -25.9361  -11.6539   20.5757 N   0  0  0  0  0  0
  -22.0469  -12.8251   22.0394 N   0  0  0  0  0  0
  -25.4179  -15.1907   20.3911 N   0  0  0  0  0  0
  -31.7209  -14.8761   20.0829 O   0  0  0  0  0  0
  -21.6644   -6.8900   21.4251 O   0  0  0  0  0  0
  -22.3543  -14.5490   20.6622 O   0  0  0  0  0  0
  -24.6247  -31.8617   23.1973 C   0  0  0  0  0  0
  -25.9107  -32.4778   23.8316 C   0  0  1  0  0  0
  -27.2300  -27.3242   20.1258 C   0  0  0  0  0  0
  -25.5937  -33.8583   24.2268 N   0  0  0  0  0  0
  -23.4178  -30.4801   21.5413 C   0  0  2  0  0  0
  -24.8648  -28.9275   20.1157 C   0  0  0  0  0  0
  -22.7472  -29.4646   22.4968 C   0  0  0  0  0  0
  -18.0280  -28.1377   22.8469 C   0  0  0  0  0  0
  -24.1501  -36.7299   23.2633 C   0  0  0  0  0  0
  -25.9544  -30.7962   21.3635 C   0  0  0  0  0  0
  -26.0318  -29.4186   20.7136 C   0  0  0  0  0  0
  -27.2207  -28.6298   20.7058 C   0  0  0  0  0  0
  -26.0422  -26.8777   19.5155 C   0  0  0  0  0  0
  -24.8703  -27.6631   19.5028 C   0  0  0  0  0  0
  -23.6300  -29.8038   20.1608 C   0  0  0  0  0  0
  -25.4130  -36.3088   24.0312 C   0  0  1  0  0  0
  -20.5880  -28.3714   23.1287 C   0  0  2  0  0  0
  -20.6786  -26.9440   22.5416 C   0  0  0  0  0  0
  -19.5772  -26.6386   21.5220 C   0  0  0  0  0  0
  -18.1946  -26.7934   22.1602 C   0  0  0  0  0  0
  -19.1523  -28.8854   23.2871 C   0  0  0  0  0  0
  -18.9445  -30.1443   23.8901 C   0  0  0  0  0  0
  -17.6450  -30.6580   24.0546 C   0  0  0  0  0  0
  -25.9071  -34.9449   23.5098 C   0  0  0  0  0  0
  -16.5343  -29.9070   23.6307 C   0  0  0  0  0  0
  -16.7269  -28.6478   23.0349 C   0  0  0  0  0  0
  -26.4487  -31.6565   25.0679 C   0  0  0  0  0  0
  -25.3704  -31.3666   26.1377 C   0  0  0  0  0  0
  -27.0341  -30.2993   24.6105 C   0  0  0  0  0  0
  -27.6043  -32.4290   25.7482 C   0  0  0  0  0  0
  -27.5591  -37.1806   24.8446 C   0  0  0  0  0  0
  -21.4196  -29.3062   22.3688 N   0  0  0  0  0  0
  -26.4298  -37.3782   23.9396 N   0  0  0  0  0  0
  -24.6841  -31.0639   22.0906 N   0  0  0  0  0  0
  -23.4193  -28.8209   23.3088 O   0  0  0  0  0  0
  -28.3541  -26.4900   20.1135 O   0  0  0  0  0  0
  -26.5637  -34.8905   22.4670 O   0  0  0  0  0  0
  -23.5413  -32.1410   23.7300 O   0  0  0  0  0  0
  -29.7645  -17.6900   19.4236 C   0  0  0  0  0  0
  -29.2935  -19.3105   21.5309 C   0  0  0  0  0  0
  -29.7318  -17.1159   20.7289 C   0  0  0  0  0  0
  -29.3200  -19.8720   20.2192 C   0  0  0  0  0  0
  -30.3258  -22.6739   21.4699 C   0  0  0  0  0  0
  -28.2469  -25.1532   20.7441 C   0  0  0  0  0  0
  -28.9910  -22.4664   20.7286 C   0  0  1  0  0  0
  -28.6042  -23.8165   19.9249 C   0  0  1  0  0  0
  -29.4765  -17.9697   21.7710 N   0  0  0  0  0  0
  -29.5588  -19.0243   19.1779 N   0  0  0  0  0  0
  -29.7383  -15.6691   20.9231 N   0  0  0  0  0  0
  -29.0906  -21.2440   19.8608 N   0  0  0  0  0  0
  -27.4866  -23.4976   19.1129 O   0  0  0  0  0  0
  -31.4809  -12.5849   19.1192 H   0  0  0  0  0  0
  -30.4068  -11.4098   19.8321 H   0  0  0  0  0  0
  -29.7841  -11.8500   17.4293 H   0  0  0  0  0  0
  -29.6528  -13.5526   17.7622 H   0  0  0  0  0  0
  -27.8381  -11.3357   18.7646 H   0  0  0  0  0  0
  -27.3939  -12.6907   17.7632 H   0  0  0  0  0  0
  -27.6789  -14.2670   19.5649 H   0  0  0  0  0  0
  -28.7300  -11.9950   21.3043 H   0  0  0  0  0  0
  -28.4432  -13.6131   21.8733 H   0  0  0  0  0  0
  -25.2835   -9.5667   22.4747 H   0  0  0  0  0  0
  -24.0004   -7.4659   22.7504 H   0  0  0  0  0  0
  -21.0854   -8.8819   19.8977 H   0  0  0  0  0  0
  -22.3755  -10.9688   19.6148 H   0  0  0  0  0  0
  -21.2009   -7.6149   23.9721 H   0  0  0  0  0  0
  -21.1471   -6.0498   25.9062 H   0  0  0  0  0  0
  -22.0615   -2.7604   23.2833 H   0  0  0  0  0  0
  -22.4013  -11.9900   22.4828 H   0  0  0  0  0  0
  -21.1081  -13.1311   22.2542 H   0  0  0  0  0  0
  -24.6331  -15.8321   20.4630 H   0  0  0  0  0  0
  -26.2408  -15.6311   19.9986 H   0  0  0  0  0  0
  -26.7196  -32.5451   23.1084 H   0  0  0  0  0  0
  -25.0101  -33.9763   25.0419 H   0  0  0  0  0  0
  -22.7095  -31.2953   21.3903 H   0  0  0  0  0  0
  -23.3762  -35.9627   23.3261 H   0  0  0  0  0  0
  -24.3617  -36.8964   22.2056 H   0  0  0  0  0  0
  -23.7226  -37.6474   23.6691 H   0  0  0  0  0  0
  -26.0783  -31.5552   20.5875 H   0  0  0  0  0  0
  -26.8366  -30.8510   21.9886 H   0  0  0  0  0  0
  -28.1157  -29.0119   21.1731 H   0  0  0  0  0  0
  -26.0102  -25.9065   19.0431 H   0  0  0  0  0  0
  -23.9765  -27.2850   19.0245 H   0  0  0  0  0  0
  -23.7392  -30.5675   19.3897 H   0  0  0  0  0  0
  -22.7526  -29.2237   19.8720 H   0  0  0  0  0  0
  -25.1313  -36.1938   25.0799 H   0  0  0  0  0  0
  -20.9939  -28.3287   24.1416 H   0  0  0  0  0  0
  -20.5716  -26.2348   23.3624 H   0  0  0  0  0  0
  -21.6662  -26.7510   22.1188 H   0  0  0  0  0  0
  -19.6966  -25.6290   21.1268 H   0  0  0  0  0  0
  -19.6698  -27.3173   20.6725 H   0  0  0  0  0  0
  -17.4231  -26.6662   21.3968 H   0  0  0  0  0  0
  -18.0319  -26.0062   22.8973 H   0  0  0  0  0  0
  -19.7925  -30.7234   24.2299 H   0  0  0  0  0  0
  -17.5001  -31.6265   24.5139 H   0  0  0  0  0  0
  -15.5333  -30.2968   23.7640 H   0  0  0  0  0  0
  -15.8670  -28.0779   22.7108 H   0  0  0  0  0  0
  -24.5871  -30.7061   25.7630 H   0  0  0  0  0  0
  -24.8901  -32.2817   26.4845 H   0  0  0  0  0  0
  -25.7985  -30.8750   27.0116 H   0  0  0  0  0  0
  -26.2905  -29.6731   24.1143 H   0  0  0  0  0  0
  -27.4076  -29.7251   25.4597 H   0  0  0  0  0  0
  -27.8752  -30.4287   23.9284 H   0  0  0  0  0  0
  -27.2638  -33.3563   26.2091 H   0  0  0  0  0  0
  -28.3843  -32.6888   25.0317 H   0  0  0  0  0  0
  -28.0708  -31.8385   26.5371 H   0  0  0  0  0  0
  -28.2562  -38.0154   24.7568 H   0  0  0  0  0  0
  -28.1146  -36.2688   24.6193 H   0  0  0  0  0  0
  -27.2327  -37.1335   25.8852 H   0  0  0  0  0  0
  -20.9421  -29.8744   21.6827 H   0  0  0  0  0  0
  -26.0176  -38.2856   24.1388 H   0  0  0  0  0  0
  -29.8795  -17.0634   18.5478 H   0  0  0  0  0  0
  -29.0888  -19.9213   22.4033 H   0  0  0  0  0  0
  -30.2063  -23.3075   22.3497 H   0  0  0  0  0  0
  -31.0634  -23.1441   20.8193 H   0  0  0  0  0  0
  -30.7638  -21.7395   21.8174 H   0  0  0  0  0  0
  -28.9553  -25.2046   21.5704 H   0  0  0  0  0  0
  -27.2817  -25.0389   21.2413 H   0  0  0  0  0  0
  -28.2170  -22.2647   21.4707 H   0  0  0  0  0  0
  -29.4321  -24.0534   19.2531 H   0  0  0  0  0  0
  -28.8918  -15.3165   21.3423 H   0  0  0  0  0  0
  -28.9020  -21.4240   18.8788 H   0  0  0  0  0  0
  -27.4471  -24.1480   18.4198 H   0  0  0  0  0  0
  1 25  1  0  0  0
  1 30  2  0  0  0
  1 81  1  0  0  0
  2  3  1  0  0  0
  2 25  1  0  0  0
  2 84  1  0  0  0
  2 85  1  0  0  0
  3  4  1  0  0  0
  3 86  1  0  0  0
  3 87  1  0  0  0
  4  5  1  0  0  0
  4 88  1  0  0  0
  4 89  1  0  0  0
  5  6  1  0  0  0
  5 26  1  0  0  0
  5 90  1  0  0  0
  6 25  1  0  0  0
  6 91  1  0  0  0
  6 92  1  0  0  0
  7  8  2  0  0  0
  7 26  1  0  0  0
  7 29  1  0  0  0
  8  9  1  0  0  0
  8 22  1  0  0  0
  9 10  1  0  0  0
  9 27  2  0  0  0
 10 11  2  0  0  0
 10 15  1  0  0  0
 11 12  1  0  0  0
 11 93  1  0  0  0
 12 13  2  0  0  0
 12 94  1  0  0  0
 13 14  1  0  0  0
 13 31  1  0  0  0
 14 15  2  0  0  0
 14 95  1  0  0  0
 15 96  1  0  0  0
 16 17  2  0  0  0
 16 21  1  0  0  0
 16 31  1  0  0  0
 17 18  1  0  0  0
 17 97  1  0  0  0
 18 19  2  0  0  0
 18 98  1  0  0  0
 19 20  1  0  0  0
 19 24  1  0  0  0
 20 21  2  0  0  0
 20 99  1  0  0  0
 21 23  1  0  0  0
 22 28  1  0  0  0
 22 32  2  0  0  0
 26 27  1  0  0  0
 28100  1  0  0  0
 28101  1  0  0  0
 29102  1  0  0  0
 29103  1  0  0  0
 33 34  1  0  0  0
 33 66  1  0  0  0
 33 70  2  0  0  0
 34 36  1  0  0  0
 34 59  1  0  0  0
 34104  1  0  0  0
 35 44  2  0  0  0
 35 45  1  0  0  0
 35 68  1  0  0  0
 36 56  1  0  0  0
 36105  1  0  0  0
 37 39  1  0  0  0
 37 47  1  0  0  0
 37 66  1  0  0  0
 37106  1  0  0  0
 38 43  2  0  0  0
 38 46  1  0  0  0
 38 47  1  0  0  0
 39 64  1  0  0  0
 39 67  2  0  0  0
 40 52  1  0  0  0
 40 53  2  0  0  0
 40 58  1  0  0  0
 41107  1  0  0  0
 41108  1  0  0  0
 41109  1  0  0  0
 41 48  1  0  0  0
 42 43  1  0  0  0
 42 66  1  0  0  0
 42110  1  0  0  0
 42111  1  0  0  0
 43 44  1  0  0  0
 44112  1  0  0  0
 45 46  2  0  0  0
 45113  1  0  0  0
 46114  1  0  0  0
 47115  1  0  0  0
 47116  1  0  0  0
 48 56  1  0  0  0
 48 65  1  0  0  0
 48117  1  0  0  0
 49 50  1  0  0  0
 49 53  1  0  0  0
 49 64  1  0  0  0
 49118  1  0  0  0
 50 51  1  0  0  0
 50119  1  0  0  0
 50120  1  0  0  0
 51 52  1  0  0  0
 51121  1  0  0  0
 51122  1  0  0  0
 52123  1  0  0  0
 52124  1  0  0  0
 53 54  1  0  0  0
 54 55  2  0  0  0
 54125  1  0  0  0
 55 57  1  0  0  0
 55126  1  0  0  0
 56 69  2  0  0  0
 57 58  2  0  0  0
 57127  1  0  0  0
 58128  1  0  0  0
 59 60  1  0  0  0
 59 61  1  0  0  0
 59 62  1  0  0  0
 60129  1  0  0  0
 60130  1  0  0  0
 60131  1  0  0  0
 61132  1  0  0  0
 61133  1  0  0  0
 61134  1  0  0  0
 62135  1  0  0  0
 62136  1  0  0  0
 62137  1  0  0  0
 63 65  1  0  0  0
 63138  1  0  0  0
 63139  1  0  0  0
 63140  1  0  0  0
 64141  1  0  0  0
 65142  1  0  0  0
 68 76  1  0  0  0
 71 73  2  0  0  0
 71 80  1  0  0  0
 71143  1  0  0  0
 72 74  1  0  0  0
 72 79  2  0  0  0
 72144  1  0  0  0
 73 79  1  0  0  0
 73 81  1  0  0  0
 74 80  2  0  0  0
 74 82  1  0  0  0
 75145  1  0  0  0
 75146  1  0  0  0
 75147  1  0  0  0
 75 77  1  0  0  0
 76 78  1  0  0  0
 76148  1  0  0  0
 76149  1  0  0  0
 77 78  1  0  0  0
 77 82  1  0  0  0
 77150  1  0  0  0
 78 83  1  0  0  0
 78151  1  0  0  0
 81152  1  0  0  0
 82153  1  0  0  0
 83154  1  0  0  0
M  ISO  4   1 100  68 101  76 101  81 100
M  END
> <chiral flag>
0

> <version>
0

> <s_m_source_file>
/data/baiqing/PycharmProjects/Reinvent-master-3.2/result/LINK_invent/BTK/process_docking_weight1_custom_product_contain_oxygen_bond_distance_aromatic_linkinvent_7_9_3/rearranged_h_0199.sdf

> <i_m_source_file_index>
43

> <r_mmod_Potential_Energy-OPLS-2005>
49.7653388977051

> <r_mmod_Stretch_Energy-OPLS-2005>
87.5762481689453

> <r_mmod_Bend_Energy-OPLS-2005>
161.569244384766

> <r_mmod_Torsional_Energy-OPLS-2005>
278.530334472656

> <r_mmod_Improper_Torsional_Energy-OPLS-2005>
5.14113187789917

> <r_mmod_Van_der_Waal_Energy-OPLS-2005>
138.138809204102

> <r_mmod_Electrostatic_Energy-OPLS-2005>
-432.569702148438

> <r_mmod_Solvation_Energy-OPLS-2005>
-239.854904174805

> <b_mmod_Minimization_Converged-OPLS-2005>
0

> <r_mmod_RMS_Derivative-OPLS-2005>
5.13039827346802

$$$$
43
                    3D
 Structure written by MMmdl.
153161  0  0  1  0            999 V2000
  -30.5800  -14.7347   20.4698 C   0  0  0  0  0  0
  -30.4435  -12.4467   19.4704 C   0  0  0  0  0  0
  -29.5145  -12.5129   18.2362 C   0  0  0  0  0  0
  -28.0390  -12.3353   18.6476 C   0  0  0  0  0  0
  -27.6482  -13.2229   19.8588 C   0  0  2  0  0  0
  -28.6925  -13.1203   20.9930 C   0  0  0  0  0  0
  -25.2540  -13.8176   20.5694 C   0  0  0  0  0  0
  -24.1815  -13.0434   20.9200 C   0  0  0  0  0  0
  -24.6394  -11.6906   20.8744 C   0  0  0  0  0  0
  -23.9065  -10.4288   21.0409 C   0  0  0  0  0  0
  -24.3617   -9.4203   21.9185 C   0  0  0  0  0  0
  -23.6291   -8.2240   22.0754 C   0  0  0  0  0  0
  -22.4274   -8.0278   21.3543 C   0  0  0  0  0  0
  -21.9910   -9.0252   20.4645 C   0  0  0  0  0  0
  -22.7238  -10.2131   20.3055 C   0  0  0  0  0  0
  -21.6852   -6.0736   22.5277 C   0  0  0  0  0  0
  -21.4013   -6.5640   23.8210 C   0  0  0  0  0  0
  -21.3658   -5.6793   24.9172 C   0  0  0  0  0  0
  -21.6044   -4.3055   24.7224 C   0  0  0  0  0  0
  -21.8819   -3.8147   23.4344 C   0  0  0  0  0  0
  -21.9193   -4.6964   22.3401 C   0  0  0  0  0  0
  -22.7837  -13.5224   21.1862 C   0  0  0  0  0  0
  -22.1661   -4.2151   21.0977 F   0  0  0  0  0  0
  -21.5630   -3.4537   25.7735 F   0  0  0  0  0  0
  -29.9977  -13.4874   20.4241 N   0  0  0  0  0  0
  -26.2966  -12.9367   20.3301 N   0  0  0  0  0  0
  -25.9325  -11.6518   20.5755 N   0  0  0  0  0  0
  -22.0484  -12.8209   22.0417 N   0  0  0  0  0  0
  -25.4249  -15.1899   20.4098 N   0  0  0  0  0  0
  -31.7491  -14.8920   20.1036 O   0  0  0  0  0  0
  -21.6636   -6.8879   21.4239 O   0  0  0  0  0  0
  -22.3523  -14.5536   20.6718 O   0  0  0  0  0  0
  -24.6310  -31.8540   23.1967 C   0  0  0  0  0  0
  -25.9131  -32.4748   23.8316 C   0  0  1  0  0  0
  -27.2261  -27.2570   20.1197 C   0  0  0  0  0  0
  -25.5923  -33.8549   24.2236 N   0  0  0  0  0  0
  -23.4278  -30.4757   21.5399 C   0  0  2  0  0  0
  -24.8744  -28.9204   20.1088 C   0  0  0  0  0  0
  -22.7498  -29.4592   22.4902 C   0  0  0  0  0  0
  -18.0288  -28.1392   22.8482 C   0  0  0  0  0  0
  -24.1489  -36.7284   23.2642 C   0  0  0  0  0  0
  -25.9731  -30.7650   21.3764 C   0  0  0  0  0  0
  -26.0446  -29.3870   20.7177 C   0  0  0  0  0  0
  -27.2177  -28.5671   20.7124 C   0  0  0  0  0  0
  -26.0252  -26.8536   19.4914 C   0  0  0  0  0  0
  -24.8702  -27.6621   19.4877 C   0  0  0  0  0  0
  -23.6454  -29.8081   20.1566 C   0  0  0  0  0  0
  -25.4117  -36.3064   24.0321 C   0  0  1  0  0  0
  -20.5894  -28.3699   23.1268 C   0  0  2  0  0  0
  -20.6776  -26.9415   22.5410 C   0  0  0  0  0  0
  -19.5752  -26.6382   21.5215 C   0  0  0  0  0  0
  -18.1931  -26.7933   22.1621 C   0  0  0  0  0  0
  -19.1544  -28.8861   23.2870 C   0  0  0  0  0  0
  -18.9468  -30.1461   23.8893 C   0  0  0  0  0  0
  -17.6466  -30.6590   24.0563 C   0  0  0  0  0  0
  -25.9056  -34.9434   23.5083 C   0  0  0  0  0  0
  -16.5357  -29.9087   23.6338 C   0  0  0  0  0  0
  -16.7276  -28.6510   23.0352 C   0  0  0  0  0  0
  -26.4494  -31.6582   25.0712 C   0  0  0  0  0  0
  -25.3713  -31.3741   26.1434 C   0  0  0  0  0  0
  -27.0348  -30.2997   24.6210 C   0  0  0  0  0  0
  -27.6040  -32.4333   25.7493 C   0  0  0  0  0  0
  -27.5575  -37.1798   24.8465 C   0  0  0  0  0  0
  -21.4205  -29.3047   22.3654 N   0  0  0  0  0  0
  -26.4289  -37.3767   23.9406 N   0  0  0  0  0  0
  -24.6963  -31.0502   22.0940 N   0  0  0  0  0  0
  -23.4199  -28.8136   23.3002 O   0  0  0  0  0  0
  -28.3549  -26.4046   20.2000 O   0  0  0  0  0  0
  -26.5640  -34.8916   22.4661 O   0  0  0  0  0  0
  -23.5457  -32.1359   23.7259 O   0  0  0  0  0  0
  -30.9042  -18.0334   19.9585 C   0  0  0  0  0  0
  -28.9725  -18.2625   20.9672 C   0  0  0  0  0  0
  -29.8707  -17.2706   20.5834 C   0  0  0  0  0  0
  -29.0385  -22.2510   20.0515 C   0  0  0  0  0  0
  -28.9298  -20.9319   20.9907 C   0  0  0  0  0  0
  -28.4339  -24.9944   19.6663 C   0  0  0  0  0  0
  -28.6297  -23.7209   20.6534 C   0  0  2  0  0  0
  -30.6571  -19.3622   19.9841 N   0  0  0  0  0  0
  -29.4517  -19.5453   20.5980 N   0  0  0  0  0  0
  -29.7529  -15.8018   20.7800 N   0  0  0  0  0  0
  -29.5939  -24.1135   21.7039 N   0  3  0  0  0  0
  -31.4826  -12.5862   19.1682 H   0  0  0  0  0  0
  -30.3979  -11.4608   19.9357 H   0  0  0  0  0  0
  -29.7945  -11.7477   17.5111 H   0  0  0  0  0  0
  -29.6409  -13.4723   17.7320 H   0  0  0  0  0  0
  -27.8926  -11.2845   18.9003 H   0  0  0  0  0  0
  -27.3818  -12.5383   17.8012 H   0  0  0  0  0  0
  -27.6523  -14.2503   19.4947 H   0  0  0  0  0  0
  -28.7252  -12.1070   21.3962 H   0  0  0  0  0  0
  -28.4249  -13.7670   21.8298 H   0  0  0  0  0  0
  -25.2763   -9.5680   22.4759 H   0  0  0  0  0  0
  -24.0000   -7.4631   22.7471 H   0  0  0  0  0  0
  -21.0844   -8.8769   19.8948 H   0  0  0  0  0  0
  -22.3698  -10.9671   19.6164 H   0  0  0  0  0  0
  -21.2003   -7.6148   23.9716 H   0  0  0  0  0  0
  -21.1481   -6.0521   25.9077 H   0  0  0  0  0  0
  -22.0600   -2.7609   23.2841 H   0  0  0  0  0  0
  -22.4097  -11.9861   22.4793 H   0  0  0  0  0  0
  -21.1106  -13.1235   22.2636 H   0  0  0  0  0  0
  -24.6540  -15.8417   20.5088 H   0  0  0  0  0  0
  -26.2642  -15.6245   20.0483 H   0  0  0  0  0  0
  -26.7190  -32.5391   23.1052 H   0  0  0  0  0  0
  -25.0058  -33.9689   25.0371 H   0  0  0  0  0  0
  -22.7246  -31.2986   21.3930 H   0  0  0  0  0  0
  -23.3751  -35.9618   23.3303 H   0  0  0  0  0  0
  -24.3577  -36.8909   22.2057 H   0  0  0  0  0  0
  -23.7241  -37.6480   23.6673 H   0  0  0  0  0  0
  -26.1133  -31.5260   20.6072 H   0  0  0  0  0  0
  -26.8501  -30.8136   22.0104 H   0  0  0  0  0  0
  -28.1147  -28.9230   21.2002 H   0  0  0  0  0  0
  -25.9261  -25.8932   19.0131 H   0  0  0  0  0  0
  -23.9707  -27.2974   19.0112 H   0  0  0  0  0  0
  -23.7694  -30.5837   19.3999 H   0  0  0  0  0  0
  -22.7637  -29.2414   19.8520 H   0  0  0  0  0  0
  -25.1300  -36.1910   25.0811 H   0  0  0  0  0  0
  -20.9986  -28.3280   24.1389 H   0  0  0  0  0  0
  -20.5676  -26.2313   23.3619 H   0  0  0  0  0  0
  -21.6643  -26.7439   22.1203 H   0  0  0  0  0  0
  -19.6920  -25.6295   21.1247 H   0  0  0  0  0  0
  -19.6690  -27.3190   20.6746 H   0  0  0  0  0  0
  -17.4200  -26.6679   21.4022 H   0  0  0  0  0  0
  -18.0328  -26.0076   22.9021 H   0  0  0  0  0  0
  -19.7945  -30.7278   24.2254 H   0  0  0  0  0  0
  -17.5025  -31.6273   24.5166 H   0  0  0  0  0  0
  -15.5360  -30.2992   23.7668 H   0  0  0  0  0  0
  -15.8673  -28.0831   22.7069 H   0  0  0  0  0  0
  -24.5885  -30.7094   25.7761 H   0  0  0  0  0  0
  -24.8916  -32.2918   26.4843 H   0  0  0  0  0  0
  -25.8023  -30.8924   27.0221 H   0  0  0  0  0  0
  -26.2936  -29.6741   24.1224 H   0  0  0  0  0  0
  -27.4014  -29.7262   25.4735 H   0  0  0  0  0  0
  -27.8819  -30.4265   23.9465 H   0  0  0  0  0  0
  -27.2632  -33.3638   26.2046 H   0  0  0  0  0  0
  -28.3864  -32.6888   25.0333 H   0  0  0  0  0  0
  -28.0696  -31.8480   26.5430 H   0  0  0  0  0  0
  -28.2589  -38.0099   24.7509 H   0  0  0  0  0  0
  -28.1072  -36.2628   24.6293 H   0  0  0  0  0  0
  -27.2297  -37.1447   25.8869 H   0  0  0  0  0  0
  -20.9389  -29.8778   21.6867 H   0  0  0  0  0  0
  -26.0164  -38.2839   24.1409 H   0  0  0  0  0  0
  -31.8195  -17.6806   19.5038 H   0  0  0  0  0  0
  -28.0386  -18.1719   21.5043 H   0  0  0  0  0  0
  -28.4181  -22.0669   19.1736 H   0  0  0  0  0  0
  -30.0566  -22.3083   19.6642 H   0  0  0  0  0  0
  -27.8780  -20.8036   21.2482 H   0  0  0  0  0  0
  -29.4162  -21.1638   21.9377 H   0  0  0  0  0  0
  -27.6296  -24.7667   18.9729 H   0  0  0  0  0  0
  -29.3133  -25.0124   19.0217 H   0  0  0  0  0  0
  -27.6699  -23.5950   21.1562 H   0  0  0  0  0  0
  -28.8563  -15.4978   21.1284 H   0  0  0  0  0  0
  -30.5231  -24.2148   21.3319 H   0  0  0  0  0  0
  -29.6207  -23.4488   22.4571 H   0  0  0  0  0  0
  -29.3257  -25.0033   22.0921 H   0  0  0  0  0  0
  1 25  1  0  0  0
  1 30  2  0  0  0
  1 80  1  0  0  0
  2  3  1  0  0  0
  2 25  1  0  0  0
  2 82  1  0  0  0
  2 83  1  0  0  0
  3  4  1  0  0  0
  3 84  1  0  0  0
  3 85  1  0  0  0
  4  5  1  0  0  0
  4 86  1  0  0  0
  4 87  1  0  0  0
  5  6  1  0  0  0
  5 26  1  0  0  0
  5 88  1  0  0  0
  6 25  1  0  0  0
  6 89  1  0  0  0
  6 90  1  0  0  0
  7  8  2  0  0  0
  7 26  1  0  0  0
  7 29  1  0  0  0
  8  9  1  0  0  0
  8 22  1  0  0  0
  9 10  1  0  0  0
  9 27  2  0  0  0
 10 11  2  0  0  0
 10 15  1  0  0  0
 11 12  1  0  0  0
 11 91  1  0  0  0
 12 13  2  0  0  0
 12 92  1  0  0  0
 13 14  1  0  0  0
 13 31  1  0  0  0
 14 15  2  0  0  0
 14 93  1  0  0  0
 15 94  1  0  0  0
 16 17  2  0  0  0
 16 21  1  0  0  0
 16 31  1  0  0  0
 17 18  1  0  0  0
 17 95  1  0  0  0
 18 19  2  0  0  0
 18 96  1  0  0  0
 19 20  1  0  0  0
 19 24  1  0  0  0
 20 21  2  0  0  0
 20 97  1  0  0  0
 21 23  1  0  0  0
 22 28  1  0  0  0
 22 32  2  0  0  0
 26 27  1  0  0  0
 28 98  1  0  0  0
 28 99  1  0  0  0
 29100  1  0  0  0
 29101  1  0  0  0
 33 34  1  0  0  0
 33 66  1  0  0  0
 33 70  2  0  0  0
 34 36  1  0  0  0
 34 59  1  0  0  0
 34102  1  0  0  0
 35 44  2  0  0  0
 35 45  1  0  0  0
 35 68  1  0  0  0
 36 56  1  0  0  0
 36103  1  0  0  0
 37 39  1  0  0  0
 37 47  1  0  0  0
 37 66  1  0  0  0
 37104  1  0  0  0
 38 43  2  0  0  0
 38 46  1  0  0  0
 38 47  1  0  0  0
 39 64  1  0  0  0
 39 67  2  0  0  0
 40 52  1  0  0  0
 40 53  2  0  0  0
 40 58  1  0  0  0
 41105  1  0  0  0
 41106  1  0  0  0
 41107  1  0  0  0
 41 48  1  0  0  0
 42 43  1  0  0  0
 42 66  1  0  0  0
 42108  1  0  0  0
 42109  1  0  0  0
 43 44  1  0  0  0
 44110  1  0  0  0
 45 46  2  0  0  0
 45111  1  0  0  0
 46112  1  0  0  0
 47113  1  0  0  0
 47114  1  0  0  0
 48 56  1  0  0  0
 48 65  1  0  0  0
 48115  1  0  0  0
 49 50  1  0  0  0
 49 53  1  0  0  0
 49 64  1  0  0  0
 49116  1  0  0  0
 50 51  1  0  0  0
 50117  1  0  0  0
 50118  1  0  0  0
 51 52  1  0  0  0
 51119  1  0  0  0
 51120  1  0  0  0
 52121  1  0  0  0
 52122  1  0  0  0
 53 54  1  0  0  0
 54 55  2  0  0  0
 54123  1  0  0  0
 55 57  1  0  0  0
 55124  1  0  0  0
 56 69  2  0  0  0
 57 58  2  0  0  0
 57125  1  0  0  0
 58126  1  0  0  0
 59 60  1  0  0  0
 59 61  1  0  0  0
 59 62  1  0  0  0
 60127  1  0  0  0
 60128  1  0  0  0
 60129  1  0  0  0
 61130  1  0  0  0
 61131  1  0  0  0
 61132  1  0  0  0
 62133  1  0  0  0
 62134  1  0  0  0
 62135  1  0  0  0
 63 65  1  0  0  0
 63136  1  0  0  0
 63137  1  0  0  0
 63138  1  0  0  0
 64139  1  0  0  0
 65140  1  0  0  0
 68 76  1  0  0  0
 71 73  1  0  0  0
 71 78  2  0  0  0
 71141  1  0  0  0
 72 73  2  0  0  0
 72 79  1  0  0  0
 72142  1  0  0  0
 73 80  1  0  0  0
 74 75  1  0  0  0
 74 77  1  0  0  0
 74143  1  0  0  0
 74144  1  0  0  0
 75 79  1  0  0  0
 75145  1  0  0  0
 75146  1  0  0  0
 76 77  1  0  0  0
 76147  1  0  0  0
 76148  1  0  0  0
 77 81  1  0  0  0
 77149  1  0  0  0
 78 79  1  0  0  0
 80150  1  0  0  0
 81151  1  0  0  0
 81152  1  0  0  0
 81153  1  0  0  0
M  CHG  1  81   1
M  ISO  4   1 100  68 101  76 101  80 100
M  END
> <chiral flag>
0

> <version>
0

> <s_m_source_file>
/data/baiqing/PycharmProjects/Reinvent-master-3.2/result/LINK_invent/BTK/process_docking_weight1_custom_product_contain_oxygen_bond_distance_aromatic_linkinvent_7_9_3/rearranged_h_0199.sdf

> <i_m_source_file_index>
44

> <r_mmod_Potential_Energy-OPLS-2005>
-57.974739074707

> <r_mmod_Stretch_Energy-OPLS-2005>
123.199531555176

> <r_mmod_Bend_Energy-OPLS-2005>
190.487213134766

> <r_mmod_Torsional_Energy-OPLS-2005>
233.465316772461

> <r_mmod_Improper_Torsional_Energy-OPLS-2005>
4.91622591018677

> <r_mmod_Van_der_Waal_Energy-OPLS-2005>
114.042617797852

> <r_mmod_Electrostatic_Energy-OPLS-2005>
-312.113342285156

> <r_mmod_Solvation_Energy-OPLS-2005>
-492.658142089844

> <b_mmod_Minimization_Converged-OPLS-2005>
0

> <r_mmod_RMS_Derivative-OPLS-2005>
0.842830538749695

$$$$
44
                    3D
 Structure written by MMmdl.
152160  0  0  1  0            999 V2000
  -30.6000  -14.7650   20.4361 C   0  0  0  0  0  0
  -30.4306  -12.4657   19.4713 C   0  0  0  0  0  0
  -29.5076  -12.5090   18.2336 C   0  0  0  0  0  0
  -28.0337  -12.3313   18.6495 C   0  0  0  0  0  0
  -27.6372  -13.2360   19.8481 C   0  0  2  0  0  0
  -28.6841  -13.1816   20.9814 C   0  0  0  0  0  0
  -25.2476  -13.8201   20.5718 C   0  0  0  0  0  0
  -24.1770  -13.0422   20.9170 C   0  0  0  0  0  0
  -24.6390  -11.6911   20.8724 C   0  0  0  0  0  0
  -23.9074  -10.4285   21.0392 C   0  0  0  0  0  0
  -24.3623   -9.4204   21.9175 C   0  0  0  0  0  0
  -23.6295   -8.2241   22.0747 C   0  0  0  0  0  0
  -22.4277   -8.0279   21.3541 C   0  0  0  0  0  0
  -21.9914   -9.0249   20.4641 C   0  0  0  0  0  0
  -22.7245  -10.2124   20.3044 C   0  0  0  0  0  0
  -21.6854   -6.0734   22.5281 C   0  0  0  0  0  0
  -21.4017   -6.5636   23.8217 C   0  0  0  0  0  0
  -21.3663   -5.6786   24.9177 C   0  0  0  0  0  0
  -21.6042   -4.3049   24.7227 C   0  0  0  0  0  0
  -21.8822   -3.8143   23.4350 C   0  0  0  0  0  0
  -21.9195   -4.6960   22.3407 C   0  0  0  0  0  0
  -22.7796  -13.5193   21.1853 C   0  0  0  0  0  0
  -22.1657   -4.2145   21.0984 F   0  0  0  0  0  0
  -21.5635   -3.4535   25.7740 F   0  0  0  0  0  0
  -29.9824  -13.5336   20.3939 N   0  0  0  0  0  0
  -26.2920  -12.9423   20.3310 N   0  0  0  0  0  0
  -25.9325  -11.6556   20.5757 N   0  0  0  0  0  0
  -22.0468  -12.8170   22.0423 N   0  0  0  0  0  0
  -25.4123  -15.1940   20.4269 N   0  0  0  0  0  0
  -31.7932  -14.8606   20.1403 O   0  0  0  0  0  0
  -21.6640   -6.8875   21.4240 O   0  0  0  0  0  0
  -22.3459  -14.5507   20.6724 O   0  0  0  0  0  0
  -24.6322  -31.8527   23.1959 C   0  0  0  0  0  0
  -25.9142  -32.4737   23.8311 C   0  0  1  0  0  0
  -27.2233  -27.2473   20.1228 C   0  0  0  0  0  0
  -25.5931  -33.8542   24.2234 N   0  0  0  0  0  0
  -23.4295  -30.4732   21.5395 C   0  0  2  0  0  0
  -24.8755  -28.9133   20.1088 C   0  0  0  0  0  0
  -22.7510  -29.4582   22.4911 C   0  0  0  0  0  0
  -18.0301  -28.1371   22.8477 C   0  0  0  0  0  0
  -24.1492  -36.7275   23.2642 C   0  0  0  0  0  0
  -25.9750  -30.7597   21.3774 C   0  0  0  0  0  0
  -26.0459  -29.3813   20.7169 C   0  0  0  0  0  0
  -27.2181  -28.5600   20.7120 C   0  0  0  0  0  0
  -26.0242  -26.8404   19.4980 C   0  0  0  0  0  0
  -24.8699  -27.6523   19.4907 C   0  0  0  0  0  0
  -23.6477  -29.8036   20.1564 C   0  0  0  0  0  0
  -25.4122  -36.3057   24.0322 C   0  0  1  0  0  0
  -20.5904  -28.3686   23.1263 C   0  0  2  0  0  0
  -20.6794  -26.9407   22.5403 C   0  0  0  0  0  0
  -19.5771  -26.6371   21.5209 C   0  0  0  0  0  0
  -18.1948  -26.7919   22.1610 C   0  0  0  0  0  0
  -19.1554  -28.8846   23.2863 C   0  0  0  0  0  0
  -18.9475  -30.1450   23.8877 C   0  0  0  0  0  0
  -17.6471  -30.6578   24.0548 C   0  0  0  0  0  0
  -25.9062  -34.9428   23.5083 C   0  0  0  0  0  0
  -16.5363  -29.9070   23.6325 C   0  0  0  0  0  0
  -16.7289  -28.6485   23.0351 C   0  0  0  0  0  0
  -26.4502  -31.6580   25.0718 C   0  0  0  0  0  0
  -25.3710  -31.3741   26.1431 C   0  0  0  0  0  0
  -27.0363  -30.2993   24.6238 C   0  0  0  0  0  0
  -27.6047  -32.4336   25.7493 C   0  0  0  0  0  0
  -27.5580  -37.1796   24.8465 C   0  0  0  0  0  0
  -21.4218  -29.3030   22.3657 N   0  0  0  0  0  0
  -26.4294  -37.3760   23.9403 N   0  0  0  0  0  0
  -24.6980  -31.0479   22.0935 N   0  0  0  0  0  0
  -23.4207  -28.8136   23.3025 O   0  0  0  0  0  0
  -28.3474  -26.3894   20.2027 O   0  0  0  0  0  0
  -26.5640  -34.8907   22.4658 O   0  0  0  0  0  0
  -23.5469  -32.1363   23.7242 O   0  0  0  0  0  0
  -27.5050  -20.7266   21.2715 C   0  0  0  0  0  0
  -29.2023  -18.6163   20.6775 C   0  0  0  0  0  0
  -28.6715  -20.9891   20.5131 C   0  0  0  0  0  0
  -28.0158  -18.4664   21.4495 C   0  0  0  0  0  0
  -30.1886  -17.3803   20.3748 C   0  0  0  0  0  0
  -28.3679  -23.6404   20.5668 C   0  0  0  0  0  0
  -28.4341  -24.9868   19.6517 C   0  0  0  0  0  0
  -27.1793  -19.4909   21.7232 N   0  0  0  0  0  0
  -29.5077  -19.9073   20.2177 N   0  0  0  0  0  0
  -27.6193  -17.2584   22.0054 N   0  0  0  0  0  0
  -28.9601  -22.3312   20.0395 N   0  0  0  0  0  0
  -29.8171  -15.9017   20.5842 N   0  0  0  0  0  0
  -31.4714  -12.5928   19.1673 H   0  0  0  0  0  0
  -30.3776  -11.4921   19.9608 H   0  0  0  0  0  0
  -29.7924  -11.7335   17.5209 H   0  0  0  0  0  0
  -29.6303  -13.4614   17.7154 H   0  0  0  0  0  0
  -27.8948  -11.2829   18.9175 H   0  0  0  0  0  0
  -27.3751  -12.5152   17.7996 H   0  0  0  0  0  0
  -27.6226  -14.2555   19.4604 H   0  0  0  0  0  0
  -28.7219  -12.1876   21.4294 H   0  0  0  0  0  0
  -28.4183  -13.8717   21.7842 H   0  0  0  0  0  0
  -25.2773   -9.5678   22.4743 H   0  0  0  0  0  0
  -24.0003   -7.4636   22.7473 H   0  0  0  0  0  0
  -21.0842   -8.8772   19.8951 H   0  0  0  0  0  0
  -22.3711  -10.9656   19.6146 H   0  0  0  0  0  0
  -21.2005   -7.6144   23.9720 H   0  0  0  0  0  0
  -21.1480   -6.0516   25.9082 H   0  0  0  0  0  0
  -22.0599   -2.7603   23.2853 H   0  0  0  0  0  0
  -22.4092  -11.9820   22.4780 H   0  0  0  0  0  0
  -21.1090  -13.1180   22.2667 H   0  0  0  0  0  0
  -24.6532  -15.8386   20.6166 H   0  0  0  0  0  0
  -26.3050  -15.6655   20.3363 H   0  0  0  0  0  0
  -26.7206  -32.5372   23.1046 H   0  0  0  0  0  0
  -25.0054  -33.9675   25.0363 H   0  0  0  0  0  0
  -22.7256  -31.2953   21.3921 H   0  0  0  0  0  0
  -23.3754  -35.9609   23.3301 H   0  0  0  0  0  0
  -24.3579  -36.8907   22.2057 H   0  0  0  0  0  0
  -23.7245  -37.6473   23.6676 H   0  0  0  0  0  0
  -26.1199  -31.5219   20.6106 H   0  0  0  0  0  0
  -26.8498  -30.8049   22.0142 H   0  0  0  0  0  0
  -28.1159  -28.9141   21.1988 H   0  0  0  0  0  0
  -25.9394  -25.8698   19.0353 H   0  0  0  0  0  0
  -23.9689  -27.2857   19.0184 H   0  0  0  0  0  0
  -23.7753  -30.5785   19.3993 H   0  0  0  0  0  0
  -22.7646  -29.2388   19.8513 H   0  0  0  0  0  0
  -25.1308  -36.1901   25.0814 H   0  0  0  0  0  0
  -20.9983  -28.3251   24.1390 H   0  0  0  0  0  0
  -20.5698  -26.2304   23.3612 H   0  0  0  0  0  0
  -21.6662  -26.7430   22.1195 H   0  0  0  0  0  0
  -19.6930  -25.6271   21.1263 H   0  0  0  0  0  0
  -19.6715  -27.3165   20.6724 H   0  0  0  0  0  0
  -17.4231  -26.6676   21.3997 H   0  0  0  0  0  0
  -18.0340  -26.0049   22.8994 H   0  0  0  0  0  0
  -19.7950  -30.7273   24.2234 H   0  0  0  0  0  0
  -17.5023  -31.6263   24.5137 H   0  0  0  0  0  0
  -15.5361  -30.2962   23.7644 H   0  0  0  0  0  0
  -15.8696  -28.0789   22.7069 H   0  0  0  0  0  0
  -24.5889  -30.7092   25.7749 H   0  0  0  0  0  0
  -24.8898  -32.2915   26.4831 H   0  0  0  0  0  0
  -25.8014  -30.8928   27.0221 H   0  0  0  0  0  0
  -26.2964  -29.6725   24.1248 H   0  0  0  0  0  0
  -27.4013  -29.7278   25.4780 H   0  0  0  0  0  0
  -27.8849  -30.4256   23.9511 H   0  0  0  0  0  0
  -27.2648  -33.3642   26.2049 H   0  0  0  0  0  0
  -28.3865  -32.6895   25.0328 H   0  0  0  0  0  0
  -28.0710  -31.8482   26.5427 H   0  0  0  0  0  0
  -28.2595  -38.0095   24.7508 H   0  0  0  0  0  0
  -28.1079  -36.2624   24.6298 H   0  0  0  0  0  0
  -27.2294  -37.1450   25.8867 H   0  0  0  0  0  0
  -20.9410  -29.8747   21.6852 H   0  0  0  0  0  0
  -26.0168  -38.2833   24.1401 H   0  0  0  0  0  0
  -26.8034  -21.5078   21.5194 H   0  0  0  0  0  0
  -31.0900  -17.5652   20.9597 H   0  0  0  0  0  0
  -30.4969  -17.4797   19.3337 H   0  0  0  0  0  0
  -28.8924  -23.8530   21.4991 H   0  0  0  0  0  0
  -27.3265  -23.4872   20.8485 H   0  0  0  0  0  0
  -27.7750  -24.8650   18.7937 H   0  0  0  0  0  0
  -29.4270  -24.9745   19.2014 H   0  0  0  0  0  0
  -28.3734  -16.6792   22.3520 H   0  0  0  0  0  0
  -26.8576  -17.3181   22.6714 H   0  0  0  0  0  0
  -29.8123  -22.4266   19.4959 H   0  0  0  0  0  0
  -28.8353  -15.7371   20.7499 H   0  0  0  0  0  0
  1 25  1  0  0  0
  1 30  2  0  0  0
  1 82  1  0  0  0
  2  3  1  0  0  0
  2 25  1  0  0  0
  2 83  1  0  0  0
  2 84  1  0  0  0
  3  4  1  0  0  0
  3 85  1  0  0  0
  3 86  1  0  0  0
  4  5  1  0  0  0
  4 87  1  0  0  0
  4 88  1  0  0  0
  5  6  1  0  0  0
  5 26  1  0  0  0
  5 89  1  0  0  0
  6 25  1  0  0  0
  6 90  1  0  0  0
  6 91  1  0  0  0
  7  8  2  0  0  0
  7 26  1  0  0  0
  7 29  1  0  0  0
  8  9  1  0  0  0
  8 22  1  0  0  0
  9 10  1  0  0  0
  9 27  2  0  0  0
 10 11  2  0  0  0
 10 15  1  0  0  0
 11 12  1  0  0  0
 11 92  1  0  0  0
 12 13  2  0  0  0
 12 93  1  0  0  0
 13 14  1  0  0  0
 13 31  1  0  0  0
 14 15  2  0  0  0
 14 94  1  0  0  0
 15 95  1  0  0  0
 16 17  2  0  0  0
 16 21  1  0  0  0
 16 31  1  0  0  0
 17 18  1  0  0  0
 17 96  1  0  0  0
 18 19  2  0  0  0
 18 97  1  0  0  0
 19 20  1  0  0  0
 19 24  1  0  0  0
 20 21  2  0  0  0
 20 98  1  0  0  0
 21 23  1  0  0  0
 22 28  1  0  0  0
 22 32  2  0  0  0
 26 27  1  0  0  0
 28 99  1  0  0  0
 28100  1  0  0  0
 29101  1  0  0  0
 29102  1  0  0  0
 33 34  1  0  0  0
 33 66  1  0  0  0
 33 70  2  0  0  0
 34 36  1  0  0  0
 34 59  1  0  0  0
 34103  1  0  0  0
 35 44  2  0  0  0
 35 45  1  0  0  0
 35 68  1  0  0  0
 36 56  1  0  0  0
 36104  1  0  0  0
 37 39  1  0  0  0
 37 47  1  0  0  0
 37 66  1  0  0  0
 37105  1  0  0  0
 38 43  2  0  0  0
 38 46  1  0  0  0
 38 47  1  0  0  0
 39 64  1  0  0  0
 39 67  2  0  0  0
 40 52  1  0  0  0
 40 53  2  0  0  0
 40 58  1  0  0  0
 41106  1  0  0  0
 41107  1  0  0  0
 41108  1  0  0  0
 41 48  1  0  0  0
 42 43  1  0  0  0
 42 66  1  0  0  0
 42109  1  0  0  0
 42110  1  0  0  0
 43 44  1  0  0  0
 44111  1  0  0  0
 45 46  2  0  0  0
 45112  1  0  0  0
 46113  1  0  0  0
 47114  1  0  0  0
 47115  1  0  0  0
 48 56  1  0  0  0
 48 65  1  0  0  0
 48116  1  0  0  0
 49 50  1  0  0  0
 49 53  1  0  0  0
 49 64  1  0  0  0
 49117  1  0  0  0
 50 51  1  0  0  0
 50118  1  0  0  0
 50119  1  0  0  0
 51 52  1  0  0  0
 51120  1  0  0  0
 51121  1  0  0  0
 52122  1  0  0  0
 52123  1  0  0  0
 53 54  1  0  0  0
 54 55  2  0  0  0
 54124  1  0  0  0
 55 57  1  0  0  0
 55125  1  0  0  0
 56 69  2  0  0  0
 57 58  2  0  0  0
 57126  1  0  0  0
 58127  1  0  0  0
 59 60  1  0  0  0
 59 61  1  0  0  0
 59 62  1  0  0  0
 60128  1  0  0  0
 60129  1  0  0  0
 60130  1  0  0  0
 61131  1  0  0  0
 61132  1  0  0  0
 61133  1  0  0  0
 62134  1  0  0  0
 62135  1  0  0  0
 62136  1  0  0  0
 63 65  1  0  0  0
 63137  1  0  0  0
 63138  1  0  0  0
 63139  1  0  0  0
 64140  1  0  0  0
 65141  1  0  0  0
 68 77  1  0  0  0
 71 73  2  0  0  0
 71 78  1  0  0  0
 71142  1  0  0  0
 72 74  1  0  0  0
 72 75  1  0  0  0
 72 79  2  0  0  0
 73 79  1  0  0  0
 73 81  1  0  0  0
 74 78  2  0  0  0
 74 80  1  0  0  0
 75 82  1  0  0  0
 75143  1  0  0  0
 75144  1  0  0  0
 76 77  1  0  0  0
 76 81  1  0  0  0
 76145  1  0  0  0
 76146  1  0  0  0
 77147  1  0  0  0
 77148  1  0  0  0
 80149  1  0  0  0
 80150  1  0  0  0
 81151  1  0  0  0
 82152  1  0  0  0
M  ISO  4   1 100  68 101  77 101  82 100
M  END
> <chiral flag>
0

> <version>
0

> <s_m_source_file>
/data/baiqing/PycharmProjects/Reinvent-master-3.2/result/LINK_invent/BTK/process_docking_weight1_custom_product_contain_oxygen_bond_distance_aromatic_linkinvent_7_9_3/rearranged_h_0199.sdf

> <i_m_source_file_index>
45

> <r_mmod_Potential_Energy-OPLS-2005>
83.0324478149414

> <r_mmod_Stretch_Energy-OPLS-2005>
134.929138183594

> <r_mmod_Bend_Energy-OPLS-2005>
193.237640380859

> <r_mmod_Torsional_Energy-OPLS-2005>
198.142120361328

> <r_mmod_Improper_Torsional_Energy-OPLS-2005>
11.070650100708

> <r_mmod_Van_der_Waal_Energy-OPLS-2005>
139.689544677734

> <r_mmod_Electrostatic_Energy-OPLS-2005>
-450.310455322266

> <r_mmod_Solvation_Energy-OPLS-2005>
-236.275619506836

> <b_mmod_Minimization_Converged-OPLS-2005>
0

> <r_mmod_RMS_Derivative-OPLS-2005>
1.17269062995911

$$$$
45
                    3D
 Structure written by MMmdl.
151159  0  0  1  0            999 V2000
  -30.6124  -14.6542   20.4988 C   0  0  0  0  0  0
  -30.4433  -12.4003   19.4524 C   0  0  0  0  0  0
  -29.5104  -12.5078   18.2246 C   0  0  0  0  0  0
  -28.0330  -12.3420   18.6358 C   0  0  0  0  0  0
  -27.6535  -13.2135   19.8620 C   0  0  2  0  0  0
  -28.6993  -13.0699   20.9917 C   0  0  0  0  0  0
  -25.2567  -13.8159   20.5674 C   0  0  0  0  0  0
  -24.1836  -13.0434   20.9206 C   0  0  0  0  0  0
  -24.6397  -11.6903   20.8748 C   0  0  0  0  0  0
  -23.9062  -10.4289   21.0410 C   0  0  0  0  0  0
  -24.3613   -9.4203   21.9186 C   0  0  0  0  0  0
  -23.6288   -8.2241   22.0755 C   0  0  0  0  0  0
  -22.4270   -8.0280   21.3546 C   0  0  0  0  0  0
  -21.9904   -9.0255   20.4650 C   0  0  0  0  0  0
  -22.7234  -10.2134   20.3059 C   0  0  0  0  0  0
  -21.6852   -6.0733   22.5278 C   0  0  0  0  0  0
  -21.4015   -6.5638   23.8211 C   0  0  0  0  0  0
  -21.3659   -5.6791   24.9173 C   0  0  0  0  0  0
  -21.6043   -4.3054   24.7225 C   0  0  0  0  0  0
  -21.8820   -3.8145   23.4347 C   0  0  0  0  0  0
  -21.9192   -4.6961   22.3402 C   0  0  0  0  0  0
  -22.7859  -13.5234   21.1859 C   0  0  0  0  0  0
  -22.1661   -4.2147   21.0980 F   0  0  0  0  0  0
  -21.5627   -3.4538   25.7738 F   0  0  0  0  0  0
  -30.0144  -13.4206   20.4298 N   0  0  0  0  0  0
  -26.2988  -12.9332   20.3300 N   0  0  0  0  0  0
  -25.9323  -11.6493   20.5754 N   0  0  0  0  0  0
  -22.0492  -12.8234   22.0413 N   0  0  0  0  0  0
  -25.4272  -15.1877   20.4036 N   0  0  0  0  0  0
  -31.7788  -14.8171   20.1249 O   0  0  0  0  0  0
  -21.6637   -6.8875   21.4240 O   0  0  0  0  0  0
  -22.3552  -14.5539   20.6699 O   0  0  0  0  0  0
  -24.6271  -31.8599   23.2031 C   0  0  0  0  0  0
  -25.9117  -32.4780   23.8358 C   0  0  1  0  0  0
  -27.2233  -27.3146   20.1133 C   0  0  0  0  0  0
  -25.5929  -33.8580   24.2284 N   0  0  0  0  0  0
  -23.4206  -30.4851   21.5463 C   0  0  2  0  0  0
  -24.8666  -28.9428   20.1116 C   0  0  0  0  0  0
  -22.7478  -29.4627   22.4934 C   0  0  0  0  0  0
  -18.0288  -28.1383   22.8486 C   0  0  0  0  0  0
  -24.1489  -36.7297   23.2638 C   0  0  0  0  0  0
  -25.9635  -30.7897   21.3753 C   0  0  0  0  0  0
  -26.0378  -29.4179   20.7151 C   0  0  0  0  0  0
  -27.2199  -28.6169   20.7046 C   0  0  0  0  0  0
  -26.0247  -26.8969   19.4865 C   0  0  0  0  0  0
  -24.8625  -27.6876   19.4885 C   0  0  0  0  0  0
  -23.6353  -29.8232   20.1610 C   0  0  0  0  0  0
  -25.4113  -36.3084   24.0328 C   0  0  1  0  0  0
  -20.5889  -28.3690   23.1278 C   0  0  2  0  0  0
  -20.6778  -26.9412   22.5406 C   0  0  0  0  0  0
  -19.5752  -26.6382   21.5211 C   0  0  0  0  0  0
  -18.1933  -26.7925   22.1626 C   0  0  0  0  0  0
  -19.1540  -28.8853   23.2878 C   0  0  0  0  0  0
  -18.9463  -30.1456   23.8893 C   0  0  0  0  0  0
  -17.6463  -30.6585   24.0563 C   0  0  0  0  0  0
  -25.9051  -34.9453   23.5106 C   0  0  0  0  0  0
  -16.5354  -29.9083   23.6329 C   0  0  0  0  0  0
  -16.7275  -28.6501   23.0350 C   0  0  0  0  0  0
  -26.4497  -31.6588   25.0729 C   0  0  0  0  0  0
  -25.3731  -31.3728   26.1458 C   0  0  0  0  0  0
  -27.0339  -30.3010   24.6187 C   0  0  0  0  0  0
  -27.6057  -32.4321   25.7499 C   0  0  0  0  0  0
  -27.5579  -37.1802   24.8463 C   0  0  0  0  0  0
  -21.4191  -29.3046   22.3674 N   0  0  0  0  0  0
  -26.4291  -37.3778   23.9407 N   0  0  0  0  0  0
  -24.6894  -31.0610   22.0984 N   0  0  0  0  0  0
  -23.4200  -28.8160   23.3010 O   0  0  0  0  0  0
  -28.3353  -26.4529   20.1600 O   0  0  0  0  0  0
  -26.5618  -34.8919   22.4672 O   0  0  0  0  0  0
  -23.5433  -32.1397   23.7357 O   0  0  0  0  0  0
  -28.6210  -17.8444   20.8545 C   0  0  0  0  0  0
  -28.5825  -19.2636   20.7461 C   0  0  0  0  0  0
  -29.8445  -17.1359   20.6969 C   0  0  0  0  0  0
  -29.7871  -19.9582   20.4997 C   0  0  0  0  0  0
  -28.7989  -22.3784   20.3112 C   0  0  0  0  0  0
  -28.0617  -24.9922   20.1291 C   0  0  0  0  0  0
  -29.2157  -23.9241   20.3983 C   0  0  1  0  0  0
  -30.9659  -17.8774   20.4454 N   0  0  0  0  0  0
  -30.9356  -19.2320   20.3603 N   0  0  0  0  0  0
  -29.7766  -15.6856   20.8371 N   0  0  0  0  0  0
  -29.9088  -21.3792   20.4071 N   0  0  0  0  0  0
  -29.6596  -24.1139   21.7292 O   0  0  0  0  0  0
  -31.4834  -12.5320   19.1491 H   0  0  0  0  0  0
  -30.3852  -11.4049   19.8953 H   0  0  0  0  0  0
  -29.7774  -11.7547   17.4818 H   0  0  0  0  0  0
  -29.6496  -13.4757   17.7406 H   0  0  0  0  0  0
  -27.8720  -11.2888   18.8689 H   0  0  0  0  0  0
  -27.3788  -12.5694   17.7934 H   0  0  0  0  0  0
  -27.6699  -14.2474   19.5177 H   0  0  0  0  0  0
  -28.7149  -12.0468   21.3702 H   0  0  0  0  0  0
  -28.4414  -13.6961   21.8473 H   0  0  0  0  0  0
  -25.2759   -9.5678   22.4760 H   0  0  0  0  0  0
  -23.9997   -7.4630   22.7472 H   0  0  0  0  0  0
  -21.0835   -8.8774   19.8957 H   0  0  0  0  0  0
  -22.3692  -10.9673   19.6169 H   0  0  0  0  0  0
  -21.2008   -7.6146   23.9713 H   0  0  0  0  0  0
  -21.1481   -6.0522   25.9075 H   0  0  0  0  0  0
  -22.0600   -2.7607   23.2848 H   0  0  0  0  0  0
  -22.4100  -11.9897   22.4811 H   0  0  0  0  0  0
  -21.1111  -13.1269   22.2612 H   0  0  0  0  0  0
  -24.6456  -15.8293   20.4836 H   0  0  0  0  0  0
  -26.2394  -15.6097   19.9737 H   0  0  0  0  0  0
  -26.7185  -32.5447   23.1106 H   0  0  0  0  0  0
  -25.0073  -33.9724   25.0426 H   0  0  0  0  0  0
  -22.7147  -31.3061   21.4047 H   0  0  0  0  0  0
  -23.3749  -35.9631   23.3300 H   0  0  0  0  0  0
  -24.3581  -36.8919   22.2052 H   0  0  0  0  0  0
  -23.7245  -37.6500   23.6661 H   0  0  0  0  0  0
  -26.0969  -31.5543   20.6086 H   0  0  0  0  0  0
  -26.8433  -30.8363   22.0055 H   0  0  0  0  0  0
  -28.1176  -28.9777   21.1869 H   0  0  0  0  0  0
  -25.9482  -25.9416   18.9914 H   0  0  0  0  0  0
  -23.9653  -27.3181   19.0108 H   0  0  0  0  0  0
  -23.7556  -30.6011   19.4062 H   0  0  0  0  0  0
  -22.7548  -29.2540   19.8570 H   0  0  0  0  0  0
  -25.1292  -36.1937   25.0821 H   0  0  0  0  0  0
  -20.9983  -28.3265   24.1398 H   0  0  0  0  0  0
  -20.5682  -26.2298   23.3606 H   0  0  0  0  0  0
  -21.6647  -26.7443   22.1197 H   0  0  0  0  0  0
  -19.6914  -25.6293   21.1241 H   0  0  0  0  0  0
  -19.6687  -27.3191   20.6739 H   0  0  0  0  0  0
  -17.4200  -26.6666   21.4033 H   0  0  0  0  0  0
  -18.0340  -26.0069   22.9025 H   0  0  0  0  0  0
  -19.7939  -30.7273   24.2259 H   0  0  0  0  0  0
  -17.5018  -31.6266   24.5164 H   0  0  0  0  0  0
  -15.5355  -30.2985   23.7654 H   0  0  0  0  0  0
  -15.8675  -28.0820   22.7064 H   0  0  0  0  0  0
  -24.5886  -30.7104   25.7781 H   0  0  0  0  0  0
  -24.8949  -32.2899   26.4906 H   0  0  0  0  0  0
  -25.8052  -30.8877   27.0219 H   0  0  0  0  0  0
  -26.2914  -29.6760   24.1211 H   0  0  0  0  0  0
  -27.4035  -29.7267   25.4692 H   0  0  0  0  0  0
  -27.8786  -30.4293   23.9414 H   0  0  0  0  0  0
  -27.2666  -33.3616   26.2084 H   0  0  0  0  0  0
  -28.3863  -32.6889   25.0326 H   0  0  0  0  0  0
  -28.0731  -31.8443   26.5410 H   0  0  0  0  0  0
  -28.2594  -38.0102   24.7514 H   0  0  0  0  0  0
  -28.1079  -36.2634   24.6283 H   0  0  0  0  0  0
  -27.2300  -37.1447   25.8866 H   0  0  0  0  0  0
  -20.9365  -29.8777   21.6895 H   0  0  0  0  0  0
  -26.0174  -38.2854   24.1408 H   0  0  0  0  0  0
  -27.7043  -17.3120   21.0596 H   0  0  0  0  0  0
  -27.6499  -19.7926   20.8700 H   0  0  0  0  0  0
  -28.2970  -22.2114   19.3567 H   0  0  0  0  0  0
  -28.0552  -22.1599   21.0791 H   0  0  0  0  0  0
  -27.2377  -24.7801   20.8132 H   0  0  0  0  0  0
  -27.6963  -24.7566   19.1294 H   0  0  0  0  0  0
  -30.0368  -24.1220   19.7073 H   0  0  0  0  0  0
  -28.8720  -15.3533   21.1260 H   0  0  0  0  0  0
  -30.8503  -21.7450   20.3144 H   0  0  0  0  0  0
  -29.8896  -25.0351   21.8138 H   0  0  0  0  0  0
  1 25  1  0  0  0
  1 30  2  0  0  0
  1 80  1  0  0  0
  2  3  1  0  0  0
  2 25  1  0  0  0
  2 83  1  0  0  0
  2 84  1  0  0  0
  3  4  1  0  0  0
  3 85  1  0  0  0
  3 86  1  0  0  0
  4  5  1  0  0  0
  4 87  1  0  0  0
  4 88  1  0  0  0
  5  6  1  0  0  0
  5 26  1  0  0  0
  5 89  1  0  0  0
  6 25  1  0  0  0
  6 90  1  0  0  0
  6 91  1  0  0  0
  7  8  2  0  0  0
  7 26  1  0  0  0
  7 29  1  0  0  0
  8  9  1  0  0  0
  8 22  1  0  0  0
  9 10  1  0  0  0
  9 27  2  0  0  0
 10 11  2  0  0  0
 10 15  1  0  0  0
 11 12  1  0  0  0
 11 92  1  0  0  0
 12 13  2  0  0  0
 12 93  1  0  0  0
 13 14  1  0  0  0
 13 31  1  0  0  0
 14 15  2  0  0  0
 14 94  1  0  0  0
 15 95  1  0  0  0
 16 17  2  0  0  0
 16 21  1  0  0  0
 16 31  1  0  0  0
 17 18  1  0  0  0
 17 96  1  0  0  0
 18 19  2  0  0  0
 18 97  1  0  0  0
 19 20  1  0  0  0
 19 24  1  0  0  0
 20 21  2  0  0  0
 20 98  1  0  0  0
 21 23  1  0  0  0
 22 28  1  0  0  0
 22 32  2  0  0  0
 26 27  1  0  0  0
 28 99  1  0  0  0
 28100  1  0  0  0
 29101  1  0  0  0
 29102  1  0  0  0
 33 34  1  0  0  0
 33 66  1  0  0  0
 33 70  2  0  0  0
 34 36  1  0  0  0
 34 59  1  0  0  0
 34103  1  0  0  0
 35 44  2  0  0  0
 35 45  1  0  0  0
 35 68  1  0  0  0
 36 56  1  0  0  0
 36104  1  0  0  0
 37 39  1  0  0  0
 37 47  1  0  0  0
 37 66  1  0  0  0
 37105  1  0  0  0
 38 43  2  0  0  0
 38 46  1  0  0  0
 38 47  1  0  0  0
 39 64  1  0  0  0
 39 67  2  0  0  0
 40 52  1  0  0  0
 40 53  2  0  0  0
 40 58  1  0  0  0
 41106  1  0  0  0
 41107  1  0  0  0
 41108  1  0  0  0
 41 48  1  0  0  0
 42 43  1  0  0  0
 42 66  1  0  0  0
 42109  1  0  0  0
 42110  1  0  0  0
 43 44  1  0  0  0
 44111  1  0  0  0
 45 46  2  0  0  0
 45112  1  0  0  0
 46113  1  0  0  0
 47114  1  0  0  0
 47115  1  0  0  0
 48 56  1  0  0  0
 48 65  1  0  0  0
 48116  1  0  0  0
 49 50  1  0  0  0
 49 53  1  0  0  0
 49 64  1  0  0  0
 49117  1  0  0  0
 50 51  1  0  0  0
 50118  1  0  0  0
 50119  1  0  0  0
 51 52  1  0  0  0
 51120  1  0  0  0
 51121  1  0  0  0
 52122  1  0  0  0
 52123  1  0  0  0
 53 54  1  0  0  0
 54 55  2  0  0  0
 54124  1  0  0  0
 55 57  1  0  0  0
 55125  1  0  0  0
 56 69  2  0  0  0
 57 58  2  0  0  0
 57126  1  0  0  0
 58127  1  0  0  0
 59 60  1  0  0  0
 59 61  1  0  0  0
 59 62  1  0  0  0
 60128  1  0  0  0
 60129  1  0  0  0
 60130  1  0  0  0
 61131  1  0  0  0
 61132  1  0  0  0
 61133  1  0  0  0
 62134  1  0  0  0
 62135  1  0  0  0
 62136  1  0  0  0
 63 65  1  0  0  0
 63137  1  0  0  0
 63138  1  0  0  0
 63139  1  0  0  0
 64140  1  0  0  0
 65141  1  0  0  0
 68 76  1  0  0  0
 71 72  2  0  0  0
 71 73  1  0  0  0
 71142  1  0  0  0
 72 74  1  0  0  0
 72143  1  0  0  0
 73 78  2  0  0  0
 73 80  1  0  0  0
 74 79  2  0  0  0
 74 81  1  0  0  0
 75 77  1  0  0  0
 75 81  1  0  0  0
 75144  1  0  0  0
 75145  1  0  0  0
 76 77  1  0  0  0
 76146  1  0  0  0
 76147  1  0  0  0
 77 82  1  0  0  0
 77148  1  0  0  0
 78 79  1  0  0  0
 80149  1  0  0  0
 81150  1  0  0  0
 82151  1  0  0  0
M  ISO  4   1 100  68 101  76 101  80 100
M  END
> <chiral flag>
0

> <version>
0

> <s_m_source_file>
/data/baiqing/PycharmProjects/Reinvent-master-3.2/result/LINK_invent/BTK/process_docking_weight1_custom_product_contain_oxygen_bond_distance_aromatic_linkinvent_7_9_3/rearranged_h_0199.sdf

> <i_m_source_file_index>
46

> <r_mmod_Potential_Energy-OPLS-2005>
-109.200668334961

> <r_mmod_Stretch_Energy-OPLS-2005>
79.7350234985352

> <r_mmod_Bend_Energy-OPLS-2005>
153.586715698242

> <r_mmod_Torsional_Energy-OPLS-2005>
224.852828979492

> <r_mmod_Improper_Torsional_Energy-OPLS-2005>
4.82317590713501

> <r_mmod_Van_der_Waal_Energy-OPLS-2005>
145.258590698242

> <r_mmod_Electrostatic_Energy-OPLS-2005>
-489.765869140625

> <r_mmod_Solvation_Energy-OPLS-2005>
-279.906280517578

> <b_mmod_Minimization_Converged-OPLS-2005>
0

> <r_mmod_RMS_Derivative-OPLS-2005>
0.282811909914017

$$$$
46
                    3D
 Structure written by MMmdl.
151159  0  0  1  0            999 V2000
  -30.5511  -14.8119   20.4386 C   0  0  0  0  0  0
  -30.4446  -12.4946   19.4721 C   0  0  0  0  0  0
  -29.5135  -12.5123   18.2368 C   0  0  0  0  0  0
  -28.0416  -12.3180   18.6532 C   0  0  0  0  0  0
  -27.6385  -13.2253   19.8455 C   0  0  2  0  0  0
  -28.6848  -13.1716   20.9803 C   0  0  0  0  0  0
  -25.2506  -13.8153   20.5644 C   0  0  0  0  0  0
  -24.1814  -13.0426   20.9257 C   0  0  0  0  0  0
  -24.6396  -11.6901   20.8786 C   0  0  0  0  0  0
  -23.9061  -10.4288   21.0426 C   0  0  0  0  0  0
  -24.3616   -9.4198   21.9196 C   0  0  0  0  0  0
  -23.6290   -8.2234   22.0759 C   0  0  0  0  0  0
  -22.4272   -8.0280   21.3544 C   0  0  0  0  0  0
  -21.9911   -9.0254   20.4654 C   0  0  0  0  0  0
  -22.7239  -10.2134   20.3069 C   0  0  0  0  0  0
  -21.6852   -6.0738   22.5275 C   0  0  0  0  0  0
  -21.4012   -6.5640   23.8208 C   0  0  0  0  0  0
  -21.3664   -5.6792   24.9173 C   0  0  0  0  0  0
  -21.6036   -4.3053   24.7219 C   0  0  0  0  0  0
  -21.8825   -3.8148   23.4341 C   0  0  0  0  0  0
  -21.9189   -4.6965   22.3397 C   0  0  0  0  0  0
  -22.7835  -13.5224   21.1881 C   0  0  0  0  0  0
  -22.1662   -4.2153   21.0975 F   0  0  0  0  0  0
  -21.5630   -3.4537   25.7731 F   0  0  0  0  0  0
  -29.9762  -13.5557   20.3948 N   0  0  0  0  0  0
  -26.2918  -12.9348   20.3235 N   0  0  0  0  0  0
  -25.9316  -11.6504   20.5760 N   0  0  0  0  0  0
  -22.0472  -12.8225   22.0437 N   0  0  0  0  0  0
  -25.4159  -15.1858   20.3863 N   0  0  0  0  0  0
  -31.7518  -14.9342   20.1675 O   0  0  0  0  0  0
  -21.6640   -6.8879   21.4237 O   0  0  0  0  0  0
  -22.3548  -14.5532   20.6715 O   0  0  0  0  0  0
  -24.6323  -31.8528   23.1923 C   0  0  0  0  0  0
  -25.9129  -32.4741   23.8293 C   0  0  1  0  0  0
  -27.2322  -27.2362   20.1511 C   0  0  0  0  0  0
  -25.5916  -33.8543   24.2229 N   0  0  0  0  0  0
  -23.4317  -30.4706   21.5376 C   0  0  2  0  0  0
  -24.8822  -28.8990   20.1214 C   0  0  0  0  0  0
  -22.7508  -29.4585   22.4906 C   0  0  0  0  0  0
  -18.0298  -28.1405   22.8487 C   0  0  0  0  0  0
  -24.1489  -36.7274   23.2646 C   0  0  0  0  0  0
  -25.9773  -30.7588   21.3727 C   0  0  0  0  0  0
  -26.0533  -29.3731   20.7261 C   0  0  0  0  0  0
  -27.2334  -28.5570   20.7209 C   0  0  0  0  0  0
  -26.0349  -26.8209   19.5357 C   0  0  0  0  0  0
  -24.8779  -27.6309   19.5156 C   0  0  0  0  0  0
  -23.6529  -29.7905   20.1589 C   0  0  0  0  0  0
  -25.4114  -36.3063   24.0329 C   0  0  1  0  0  0
  -20.5899  -28.3707   23.1277 C   0  0  2  0  0  0
  -20.6789  -26.9423   22.5417 C   0  0  0  0  0  0
  -19.5763  -26.6389   21.5229 C   0  0  0  0  0  0
  -18.1944  -26.7949   22.1625 C   0  0  0  0  0  0
  -19.1554  -28.8866   23.2884 C   0  0  0  0  0  0
  -18.9474  -30.1472   23.8893 C   0  0  0  0  0  0
  -17.6471  -30.6601   24.0566 C   0  0  0  0  0  0
  -25.9048  -34.9433   23.5085 C   0  0  0  0  0  0
  -16.5365  -29.9100   23.6335 C   0  0  0  0  0  0
  -16.7281  -28.6523   23.0351 C   0  0  0  0  0  0
  -26.4488  -31.6580   25.0691 C   0  0  0  0  0  0
  -25.3696  -31.3756   26.1408 C   0  0  0  0  0  0
  -27.0336  -30.2989   24.6186 C   0  0  0  0  0  0
  -27.6045  -32.4312   25.7471 C   0  0  0  0  0  0
  -27.5579  -37.1790   24.8468 C   0  0  0  0  0  0
  -21.4209  -29.3042   22.3650 N   0  0  0  0  0  0
  -26.4290  -37.3761   23.9406 N   0  0  0  0  0  0
  -24.7007  -31.0458   22.0915 N   0  0  0  0  0  0
  -23.4197  -28.8132   23.3022 O   0  0  0  0  0  0
  -28.3536  -26.3716   20.1009 O   0  0  0  0  0  0
  -26.5636  -34.8919   22.4662 O   0  0  0  0  0  0
  -23.5462  -32.1359   23.7200 O   0  0  0  0  0  0
  -28.8322  -18.2517   20.2950 C   0  0  0  0  0  0
  -29.4672  -19.5671   20.3229 C   0  0  0  0  0  0
  -29.8482  -17.3034   20.4865 C   0  0  0  0  0  0
  -28.9553  -22.1808   20.7400 C   0  0  0  0  0  0
  -28.3547  -24.9881   20.7204 C   0  0  0  0  0  0
  -28.6318  -23.5729   19.9270 C   0  0  1  0  0  0
  -30.7655  -19.4041   20.5601 N   0  0  0  0  0  0
  -27.4533  -17.9780   20.1151 N   0  0  0  0  0  0
  -28.8011  -20.8316   20.0437 N   0  0  0  0  0  0
  -29.6903  -15.9029   20.5537 N   0  0  0  0  0  0
  -31.0185  -18.0020   20.6433 O   0  0  0  0  0  0
  -29.8157  -23.7220   19.1682 O   0  0  0  0  0  0
  -31.4807  -12.6493   19.1640 H   0  0  0  0  0  0
  -30.4182  -11.5217   19.9656 H   0  0  0  0  0  0
  -29.8079  -11.7348   17.5307 H   0  0  0  0  0  0
  -29.6204  -13.4619   17.7099 H   0  0  0  0  0  0
  -27.9115  -11.2699   18.9260 H   0  0  0  0  0  0
  -27.3800  -12.4939   17.8040 H   0  0  0  0  0  0
  -27.6269  -14.2420   19.4526 H   0  0  0  0  0  0
  -28.7413  -12.1709   21.4121 H   0  0  0  0  0  0
  -28.4078  -13.8412   21.7970 H   0  0  0  0  0  0
  -25.2765   -9.5671   22.4773 H   0  0  0  0  0  0
  -23.9997   -7.4624   22.7477 H   0  0  0  0  0  0
  -21.0843   -8.8775   19.8959 H   0  0  0  0  0  0
  -22.3699  -10.9677   19.6183 H   0  0  0  0  0  0
  -21.2011   -7.6150   23.9712 H   0  0  0  0  0  0
  -21.1478   -6.0524   25.9073 H   0  0  0  0  0  0
  -22.0600   -2.7610   23.2834 H   0  0  0  0  0  0
  -22.4075  -11.9868   22.4801 H   0  0  0  0  0  0
  -21.1098  -13.1265   22.2661 H   0  0  0  0  0  0
  -24.5725  -15.7498   20.3746 H   0  0  0  0  0  0
  -26.0940  -15.5091   19.7078 H   0  0  0  0  0  0
  -26.7184  -32.5391   23.1032 H   0  0  0  0  0  0
  -25.0052  -33.9680   25.0368 H   0  0  0  0  0  0
  -22.7296  -31.2929   21.3821 H   0  0  0  0  0  0
  -23.3756  -35.9604   23.3310 H   0  0  0  0  0  0
  -24.3581  -36.8890   22.2059 H   0  0  0  0  0  0
  -23.7233  -37.6475   23.6662 H   0  0  0  0  0  0
  -26.1104  -31.5122   20.5944 H   0  0  0  0  0  0
  -26.8573  -30.8195   22.0022 H   0  0  0  0  0  0
  -28.1380  -28.9252   21.1824 H   0  0  0  0  0  0
  -25.9958  -25.8477   19.0668 H   0  0  0  0  0  0
  -23.9797  -27.2608   19.0411 H   0  0  0  0  0  0
  -23.7772  -30.5604   19.3960 H   0  0  0  0  0  0
  -22.7710  -29.2220   19.8572 H   0  0  0  0  0  0
  -25.1302  -36.1913   25.0822 H   0  0  0  0  0  0
  -20.9989  -28.3287   24.1401 H   0  0  0  0  0  0
  -20.5716  -26.2309   23.3624 H   0  0  0  0  0  0
  -21.6660  -26.7467   22.1198 H   0  0  0  0  0  0
  -19.6940  -25.6305   21.1260 H   0  0  0  0  0  0
  -19.6714  -27.3203   20.6768 H   0  0  0  0  0  0
  -17.4223  -26.6698   21.4026 H   0  0  0  0  0  0
  -18.0326  -26.0111   22.9031 H   0  0  0  0  0  0
  -19.7954  -30.7293   24.2253 H   0  0  0  0  0  0
  -17.5034  -31.6285   24.5170 H   0  0  0  0  0  0
  -15.5367  -30.3000   23.7678 H   0  0  0  0  0  0
  -15.8682  -28.0845   22.7051 H   0  0  0  0  0  0
  -24.5877  -30.7101   25.7732 H   0  0  0  0  0  0
  -24.8888  -32.2943   26.4767 H   0  0  0  0  0  0
  -25.7994  -30.8973   27.0215 H   0  0  0  0  0  0
  -26.2928  -29.6730   24.1194 H   0  0  0  0  0  0
  -27.4011  -29.7249   25.4701 H   0  0  0  0  0  0
  -27.8801  -30.4267   23.9433 H   0  0  0  0  0  0
  -27.2665  -33.3632   26.2011 H   0  0  0  0  0  0
  -28.3879  -32.6830   25.0311 H   0  0  0  0  0  0
  -28.0683  -31.8454   26.5418 H   0  0  0  0  0  0
  -28.2593  -38.0090   24.7498 H   0  0  0  0  0  0
  -28.1074  -36.2611   24.6309 H   0  0  0  0  0  0
  -27.2299  -37.1459   25.8876 H   0  0  0  0  0  0
  -20.9400  -29.8717   21.6817 H   0  0  0  0  0  0
  -26.0173  -38.2839   24.1404 H   0  0  0  0  0  0
  -28.2718  -22.1484   21.5906 H   0  0  0  0  0  0
  -29.9485  -22.2350   21.1905 H   0  0  0  0  0  0
  -29.1153  -25.0519   21.4998 H   0  0  0  0  0  0
  -27.4220  -24.8729   21.2728 H   0  0  0  0  0  0
  -27.7938  -23.4034   19.2493 H   0  0  0  0  0  0
  -26.8027  -18.7570   20.1435 H   0  0  0  0  0  0
  -27.0482  -17.1597   20.5553 H   0  0  0  0  0  0
  -27.8522  -20.6606   19.7299 H   0  0  0  0  0  0
  -28.7272  -15.6295   20.6405 H   0  0  0  0  0  0
  -30.0250  -22.8522   18.8379 H   0  0  0  0  0  0
  1 25  1  0  0  0
  1 30  2  0  0  0
  1 80  1  0  0  0
  2  3  1  0  0  0
  2 25  1  0  0  0
  2 83  1  0  0  0
  2 84  1  0  0  0
  3  4  1  0  0  0
  3 85  1  0  0  0
  3 86  1  0  0  0
  4  5  1  0  0  0
  4 87  1  0  0  0
  4 88  1  0  0  0
  5  6  1  0  0  0
  5 26  1  0  0  0
  5 89  1  0  0  0
  6 25  1  0  0  0
  6 90  1  0  0  0
  6 91  1  0  0  0
  7  8  2  0  0  0
  7 26  1  0  0  0
  7 29  1  0  0  0
  8  9  1  0  0  0
  8 22  1  0  0  0
  9 10  1  0  0  0
  9 27  2  0  0  0
 10 11  2  0  0  0
 10 15  1  0  0  0
 11 12  1  0  0  0
 11 92  1  0  0  0
 12 13  2  0  0  0
 12 93  1  0  0  0
 13 14  1  0  0  0
 13 31  1  0  0  0
 14 15  2  0  0  0
 14 94  1  0  0  0
 15 95  1  0  0  0
 16 17  2  0  0  0
 16 21  1  0  0  0
 16 31  1  0  0  0
 17 18  1  0  0  0
 17 96  1  0  0  0
 18 19  2  0  0  0
 18 97  1  0  0  0
 19 20  1  0  0  0
 19 24  1  0  0  0
 20 21  2  0  0  0
 20 98  1  0  0  0
 21 23  1  0  0  0
 22 28  1  0  0  0
 22 32  2  0  0  0
 26 27  1  0  0  0
 28 99  1  0  0  0
 28100  1  0  0  0
 29101  1  0  0  0
 29102  1  0  0  0
 33 34  1  0  0  0
 33 66  1  0  0  0
 33 70  2  0  0  0
 34 36  1  0  0  0
 34 59  1  0  0  0
 34103  1  0  0  0
 35 44  2  0  0  0
 35 45  1  0  0  0
 35 68  1  0  0  0
 36 56  1  0  0  0
 36104  1  0  0  0
 37 39  1  0  0  0
 37 47  1  0  0  0
 37 66  1  0  0  0
 37105  1  0  0  0
 38 43  2  0  0  0
 38 46  1  0  0  0
 38 47  1  0  0  0
 39 64  1  0  0  0
 39 67  2  0  0  0
 40 52  1  0  0  0
 40 53  2  0  0  0
 40 58  1  0  0  0
 41106  1  0  0  0
 41107  1  0  0  0
 41108  1  0  0  0
 41 48  1  0  0  0
 42 43  1  0  0  0
 42 66  1  0  0  0
 42109  1  0  0  0
 42110  1  0  0  0
 43 44  1  0  0  0
 44111  1  0  0  0
 45 46  2  0  0  0
 45112  1  0  0  0
 46113  1  0  0  0
 47114  1  0  0  0
 47115  1  0  0  0
 48 56  1  0  0  0
 48 65  1  0  0  0
 48116  1  0  0  0
 49 50  1  0  0  0
 49 53  1  0  0  0
 49 64  1  0  0  0
 49117  1  0  0  0
 50 51  1  0  0  0
 50118  1  0  0  0
 50119  1  0  0  0
 51 52  1  0  0  0
 51120  1  0  0  0
 51121  1  0  0  0
 52122  1  0  0  0
 52123  1  0  0  0
 53 54  1  0  0  0
 54 55  2  0  0  0
 54124  1  0  0  0
 55 57  1  0  0  0
 55125  1  0  0  0
 56 69  2  0  0  0
 57 58  2  0  0  0
 57126  1  0  0  0
 58127  1  0  0  0
 59 60  1  0  0  0
 59 61  1  0  0  0
 59 62  1  0  0  0
 60128  1  0  0  0
 60129  1  0  0  0
 60130  1  0  0  0
 61131  1  0  0  0
 61132  1  0  0  0
 61133  1  0  0  0
 62134  1  0  0  0
 62135  1  0  0  0
 62136  1  0  0  0
 63 65  1  0  0  0
 63137  1  0  0  0
 63138  1  0  0  0
 63139  1  0  0  0
 64140  1  0  0  0
 65141  1  0  0  0
 68 75  1  0  0  0
 71 72  1  0  0  0
 71 73  2  0  0  0
 71 78  1  0  0  0
 72 77  2  0  0  0
 72 79  1  0  0  0
 73 80  1  0  0  0
 73 81  1  0  0  0
 74 76  1  0  0  0
 74 79  1  0  0  0
 74142  1  0  0  0
 74143  1  0  0  0
 75 76  1  0  0  0
 75144  1  0  0  0
 75145  1  0  0  0
 76 82  1  0  0  0
 76146  1  0  0  0
 77 81  1  0  0  0
 78147  1  0  0  0
 78148  1  0  0  0
 79149  1  0  0  0
 80150  1  0  0  0
 82151  1  0  0  0
M  ISO  4   1 100  68 101  75 101  80 100
M  END
> <chiral flag>
0

> <version>
0

> <s_m_source_file>
/data/baiqing/PycharmProjects/Reinvent-master-3.2/result/LINK_invent/BTK/process_docking_weight1_custom_product_contain_oxygen_bond_distance_aromatic_linkinvent_7_9_3/rearranged_h_0199.sdf

> <i_m_source_file_index>
47

> <r_mmod_Potential_Energy-OPLS-2005>
45.2822113037109

> <r_mmod_Stretch_Energy-OPLS-2005>
132.900146484375

> <r_mmod_Bend_Energy-OPLS-2005>
202.483825683594

> <r_mmod_Torsional_Energy-OPLS-2005>
273.786926269531

> <r_mmod_Improper_Torsional_Energy-OPLS-2005>
15.705228805542

> <r_mmod_Van_der_Waal_Energy-OPLS-2005>
107.269996643066

> <r_mmod_Electrostatic_Energy-OPLS-2005>
-521.035034179688

> <r_mmod_Solvation_Energy-OPLS-2005>
-271.244262695312

> <b_mmod_Minimization_Converged-OPLS-2005>
0

> <r_mmod_RMS_Derivative-OPLS-2005>
2.0478355884552

$$$$
47
                    3D
 Structure written by MMmdl.
156164  0  0  1  0            999 V2000
  -30.6273  -14.6451   20.5151 C   0  0  0  0  0  0
  -30.4412  -12.3970   19.4534 C   0  0  0  0  0  0
  -29.5089  -12.5051   18.2248 C   0  0  0  0  0  0
  -28.0317  -12.3395   18.6357 C   0  0  0  0  0  0
  -27.6512  -13.2111   19.8616 C   0  0  2  0  0  0
  -28.6965  -13.0661   20.9933 C   0  0  0  0  0  0
  -25.2551  -13.8152   20.5684 C   0  0  0  0  0  0
  -24.1824  -13.0423   20.9211 C   0  0  0  0  0  0
  -24.6384  -11.6892   20.8749 C   0  0  0  0  0  0
  -23.9055  -10.4277   21.0410 C   0  0  0  0  0  0
  -24.3606   -9.4191   21.9185 C   0  0  0  0  0  0
  -23.6278   -8.2230   22.0757 C   0  0  0  0  0  0
  -22.4265   -8.0267   21.3546 C   0  0  0  0  0  0
  -21.9899   -9.0243   20.4652 C   0  0  0  0  0  0
  -22.7226  -10.2120   20.3062 C   0  0  0  0  0  0
  -21.6845   -6.0724   22.5280 C   0  0  0  0  0  0
  -21.4001   -6.5630   23.8209 C   0  0  0  0  0  0
  -21.3667   -5.6788   24.9175 C   0  0  0  0  0  0
  -21.6050   -4.3052   24.7226 C   0  0  0  0  0  0
  -21.8817   -3.8138   23.4348 C   0  0  0  0  0  0
  -21.9187   -4.6952   22.3403 C   0  0  0  0  0  0
  -22.7848  -13.5226   21.1867 C   0  0  0  0  0  0
  -22.1658   -4.2137   21.0979 F   0  0  0  0  0  0
  -21.5636   -3.4538   25.7740 F   0  0  0  0  0  0
  -30.0152  -13.4154   20.4372 N   0  0  0  0  0  0
  -26.2967  -12.9320   20.3293 N   0  0  0  0  0  0
  -25.9308  -11.6484   20.5744 N   0  0  0  0  0  0
  -22.0480  -12.8231   22.0422 N   0  0  0  0  0  0
  -25.4252  -15.1877   20.4080 N   0  0  0  0  0  0
  -31.7838  -14.7989   20.0951 O   0  0  0  0  0  0
  -21.6633   -6.8863   21.4239 O   0  0  0  0  0  0
  -22.3552  -14.5540   20.6710 O   0  0  0  0  0  0
  -24.6255  -31.8607   23.2038 C   0  0  0  0  0  0
  -25.9107  -32.4785   23.8360 C   0  0  1  0  0  0
  -27.2244  -27.3277   20.1129 C   0  0  0  0  0  0
  -25.5921  -33.8584   24.2286 N   0  0  0  0  0  0
  -23.4184  -30.4858   21.5465 C   0  0  2  0  0  0
  -24.8646  -28.9451   20.1106 C   0  0  0  0  0  0
  -22.7468  -29.4630   22.4938 C   0  0  0  0  0  0
  -18.0286  -28.1382   22.8486 C   0  0  0  0  0  0
  -24.1488  -36.7301   23.2638 C   0  0  0  0  0  0
  -25.9595  -30.7954   21.3732 C   0  0  0  0  0  0
  -26.0343  -29.4244   20.7134 C   0  0  0  0  0  0
  -27.2176  -28.6283   20.7038 C   0  0  0  0  0  0
  -26.0287  -26.9023   19.4864 C   0  0  0  0  0  0
  -24.8636  -27.6893   19.4879 C   0  0  0  0  0  0
  -23.6319  -29.8231   20.1610 C   0  0  0  0  0  0
  -25.4111  -36.3089   24.0332 C   0  0  1  0  0  0
  -20.5885  -28.3685   23.1283 C   0  0  2  0  0  0
  -20.6775  -26.9409   22.5406 C   0  0  0  0  0  0
  -19.5750  -26.6384   21.5209 C   0  0  0  0  0  0
  -18.1931  -26.7926   22.1624 C   0  0  0  0  0  0
  -19.1538  -28.8850   23.2883 C   0  0  0  0  0  0
  -18.9461  -30.1453   23.8901 C   0  0  0  0  0  0
  -17.6461  -30.6585   24.0563 C   0  0  0  0  0  0
  -25.9046  -34.9456   23.5109 C   0  0  0  0  0  0
  -16.5353  -29.9086   23.6327 C   0  0  0  0  0  0
  -16.7274  -28.6502   23.0351 C   0  0  0  0  0  0
  -26.4493  -31.6589   25.0725 C   0  0  0  0  0  0
  -25.3730  -31.3722   26.1453 C   0  0  0  0  0  0
  -27.0337  -30.3015   24.6172 C   0  0  0  0  0  0
  -27.6054  -32.4320   25.7496 C   0  0  0  0  0  0
  -27.5579  -37.1805   24.8463 C   0  0  0  0  0  0
  -21.4183  -29.3045   22.3680 N   0  0  0  0  0  0
  -26.4293  -37.3779   23.9407 N   0  0  0  0  0  0
  -24.6868  -31.0629   22.0984 N   0  0  0  0  0  0
  -23.4193  -28.8165   23.3014 O   0  0  0  0  0  0
  -28.3436  -26.4800   20.1614 O   0  0  0  0  0  0
  -26.5614  -34.8921   22.4675 O   0  0  0  0  0  0
  -23.5419  -32.1400   23.7369 O   0  0  0  0  0  0
  -30.8924  -17.8493   20.0328 C   0  0  0  0  0  0
  -28.8184  -19.3003   21.1693 C   0  0  0  0  0  0
  -30.8511  -19.2700   19.8881 C   0  0  0  0  0  0
  -29.7961  -20.0423   20.4569 C   0  0  0  0  0  0
  -29.8924  -17.1417   20.7592 C   0  0  0  0  0  0
  -28.8979  -22.4685   20.5862 C   0  0  0  0  0  0
  -32.8517  -20.5941   20.0141 C   0  0  0  0  0  0
  -29.2741  -23.9939   20.3942 C   0  0  0  0  0  0
  -28.0956  -25.0197   20.1044 C   0  0  0  0  0  0
  -28.9046  -17.9362   21.2878 N   0  3  0  0  0  0
  -29.8109  -21.4964   20.2874 N   0  0  0  0  0  0
  -31.8696  -19.9212   19.1703 N   0  0  0  0  0  0
  -29.8368  -15.6831   20.9472 N   0  0  0  0  0  0
  -27.7797  -22.1823   21.0180 O   0  0  0  0  0  0
  -31.4817  -12.5247   19.1478 H   0  0  0  0  0  0
  -30.3817  -11.3994   19.8925 H   0  0  0  0  0  0
  -29.7744  -11.7515   17.4818 H   0  0  0  0  0  0
  -29.6483  -13.4710   17.7371 H   0  0  0  0  0  0
  -27.8701  -11.2863   18.8689 H   0  0  0  0  0  0
  -27.3789  -12.5648   17.7918 H   0  0  0  0  0  0
  -27.6646  -14.2444   19.5155 H   0  0  0  0  0  0
  -28.7110  -12.0409   21.3679 H   0  0  0  0  0  0
  -28.4314  -13.6839   21.8524 H   0  0  0  0  0  0
  -25.2751   -9.5658   22.4757 H   0  0  0  0  0  0
  -23.9980   -7.4619   22.7480 H   0  0  0  0  0  0
  -21.0826   -8.8761   19.8962 H   0  0  0  0  0  0
  -22.3685  -10.9656   19.6172 H   0  0  0  0  0  0
  -21.1980   -7.6138   23.9709 H   0  0  0  0  0  0
  -21.1503   -6.0520   25.9080 H   0  0  0  0  0  0
  -22.0591   -2.7598   23.2854 H   0  0  0  0  0  0
  -22.4075  -11.9879   22.4807 H   0  0  0  0  0  0
  -21.1101  -13.1272   22.2621 H   0  0  0  0  0  0
  -24.6436  -15.8276   20.5026 H   0  0  0  0  0  0
  -26.2365  -15.6216   19.9881 H   0  0  0  0  0  0
  -26.7175  -32.5456   23.1110 H   0  0  0  0  0  0
  -25.0063  -33.9729   25.0427 H   0  0  0  0  0  0
  -22.7127  -31.3069   21.4047 H   0  0  0  0  0  0
  -23.3748  -35.9635   23.3302 H   0  0  0  0  0  0
  -24.3579  -36.8918   22.2052 H   0  0  0  0  0  0
  -23.7246  -37.6506   23.6658 H   0  0  0  0  0  0
  -26.0889  -31.5620   20.6077 H   0  0  0  0  0  0
  -26.8406  -30.8425   22.0016 H   0  0  0  0  0  0
  -28.1150  -28.9918   21.1844 H   0  0  0  0  0  0
  -25.9582  -25.9466   18.9911 H   0  0  0  0  0  0
  -23.9681  -27.3177   19.0090 H   0  0  0  0  0  0
  -23.7493  -30.6004   19.4052 H   0  0  0  0  0  0
  -22.7518  -29.2524   19.8585 H   0  0  0  0  0  0
  -25.1291  -36.1945   25.0826 H   0  0  0  0  0  0
  -20.9981  -28.3259   24.1403 H   0  0  0  0  0  0
  -20.5673  -26.2296   23.3606 H   0  0  0  0  0  0
  -21.6645  -26.7437   22.1203 H   0  0  0  0  0  0
  -19.6913  -25.6297   21.1238 H   0  0  0  0  0  0
  -19.6688  -27.3196   20.6741 H   0  0  0  0  0  0
  -17.4198  -26.6667   21.4034 H   0  0  0  0  0  0
  -18.0337  -26.0070   22.9023 H   0  0  0  0  0  0
  -19.7937  -30.7265   24.2274 H   0  0  0  0  0  0
  -17.5017  -31.6268   24.5162 H   0  0  0  0  0  0
  -15.5355  -30.2989   23.7651 H   0  0  0  0  0  0
  -15.8673  -28.0822   22.7066 H   0  0  0  0  0  0
  -24.5907  -30.7069   25.7781 H   0  0  0  0  0  0
  -24.8920  -32.2889   26.4879 H   0  0  0  0  0  0
  -25.8061  -30.8900   27.0226 H   0  0  0  0  0  0
  -26.2910  -29.6765   24.1200 H   0  0  0  0  0  0
  -27.4042  -29.7271   25.4673 H   0  0  0  0  0  0
  -27.8775  -30.4304   23.9389 H   0  0  0  0  0  0
  -27.2666  -33.3617   26.2078 H   0  0  0  0  0  0
  -28.3866  -32.6882   25.0328 H   0  0  0  0  0  0
  -28.0720  -31.8441   26.5411 H   0  0  0  0  0  0
  -28.2597  -38.0101   24.7509 H   0  0  0  0  0  0
  -28.1078  -36.2634   24.6294 H   0  0  0  0  0  0
  -27.2297  -37.1456   25.8866 H   0  0  0  0  0  0
  -20.9354  -29.8777   21.6902 H   0  0  0  0  0  0
  -26.0178  -38.2857   24.1403 H   0  0  0  0  0  0
  -31.7070  -17.3008   19.5847 H   0  0  0  0  0  0
  -27.9690  -19.7585   21.6606 H   0  0  0  0  0  0
  -33.0602  -21.5946   19.6317 H   0  0  0  0  0  0
  -33.7913  -20.0387   20.0137 H   0  0  0  0  0  0
  -32.5239  -20.6931   21.0511 H   0  0  0  0  0  0
  -30.0174  -24.0753   19.6015 H   0  0  0  0  0  0
  -29.7786  -24.3037   21.3090 H   0  0  0  0  0  0
  -27.2831  -24.7992   20.7990 H   0  0  0  0  0  0
  -27.7285  -24.7741   19.1077 H   0  0  0  0  0  0
  -28.1550  -17.4899   21.8272 H   0  0  0  0  0  0
  -30.6665  -21.8182   19.8530 H   0  0  0  0  0  0
  -32.3092  -19.3132   18.4860 H   0  0  0  0  0  0
  -28.9878  -15.3418   21.3581 H   0  0  0  0  0  0
  1 25  1  0  0  0
  1 30  2  0  0  0
  1 83  1  0  0  0
  2  3  1  0  0  0
  2 25  1  0  0  0
  2 85  1  0  0  0
  2 86  1  0  0  0
  3  4  1  0  0  0
  3 87  1  0  0  0
  3 88  1  0  0  0
  4  5  1  0  0  0
  4 89  1  0  0  0
  4 90  1  0  0  0
  5  6  1  0  0  0
  5 26  1  0  0  0
  5 91  1  0  0  0
  6 25  1  0  0  0
  6 92  1  0  0  0
  6 93  1  0  0  0
  7  8  2  0  0  0
  7 26  1  0  0  0
  7 29  1  0  0  0
  8  9  1  0  0  0
  8 22  1  0  0  0
  9 10  1  0  0  0
  9 27  2  0  0  0
 10 11  2  0  0  0
 10 15  1  0  0  0
 11 12  1  0  0  0
 11 94  1  0  0  0
 12 13  2  0  0  0
 12 95  1  0  0  0
 13 14  1  0  0  0
 13 31  1  0  0  0
 14 15  2  0  0  0
 14 96  1  0  0  0
 15 97  1  0  0  0
 16 17  2  0  0  0
 16 21  1  0  0  0
 16 31  1  0  0  0
 17 18  1  0  0  0
 17 98  1  0  0  0
 18 19  2  0  0  0
 18 99  1  0  0  0
 19 20  1  0  0  0
 19 24  1  0  0  0
 20 21  2  0  0  0
 20100  1  0  0  0
 21 23  1  0  0  0
 22 28  1  0  0  0
 22 32  2  0  0  0
 26 27  1  0  0  0
 28101  1  0  0  0
 28102  1  0  0  0
 29103  1  0  0  0
 29104  1  0  0  0
 33 34  1  0  0  0
 33 66  1  0  0  0
 33 70  2  0  0  0
 34 36  1  0  0  0
 34 59  1  0  0  0
 34105  1  0  0  0
 35 44  2  0  0  0
 35 45  1  0  0  0
 35 68  1  0  0  0
 36 56  1  0  0  0
 36106  1  0  0  0
 37 39  1  0  0  0
 37 47  1  0  0  0
 37 66  1  0  0  0
 37107  1  0  0  0
 38 43  2  0  0  0
 38 46  1  0  0  0
 38 47  1  0  0  0
 39 64  1  0  0  0
 39 67  2  0  0  0
 40 52  1  0  0  0
 40 53  2  0  0  0
 40 58  1  0  0  0
 41108  1  0  0  0
 41109  1  0  0  0
 41110  1  0  0  0
 41 48  1  0  0  0
 42 43  1  0  0  0
 42 66  1  0  0  0
 42111  1  0  0  0
 42112  1  0  0  0
 43 44  1  0  0  0
 44113  1  0  0  0
 45 46  2  0  0  0
 45114  1  0  0  0
 46115  1  0  0  0
 47116  1  0  0  0
 47117  1  0  0  0
 48 56  1  0  0  0
 48 65  1  0  0  0
 48118  1  0  0  0
 49 50  1  0  0  0
 49 53  1  0  0  0
 49 64  1  0  0  0
 49119  1  0  0  0
 50 51  1  0  0  0
 50120  1  0  0  0
 50121  1  0  0  0
 51 52  1  0  0  0
 51122  1  0  0  0
 51123  1  0  0  0
 52124  1  0  0  0
 52125  1  0  0  0
 53 54  1  0  0  0
 54 55  2  0  0  0
 54126  1  0  0  0
 55 57  1  0  0  0
 55127  1  0  0  0
 56 69  2  0  0  0
 57 58  2  0  0  0
 57128  1  0  0  0
 58129  1  0  0  0
 59 60  1  0  0  0
 59 61  1  0  0  0
 59 62  1  0  0  0
 60130  1  0  0  0
 60131  1  0  0  0
 60132  1  0  0  0
 61133  1  0  0  0
 61134  1  0  0  0
 61135  1  0  0  0
 62136  1  0  0  0
 62137  1  0  0  0
 62138  1  0  0  0
 63 65  1  0  0  0
 63139  1  0  0  0
 63140  1  0  0  0
 63141  1  0  0  0
 64142  1  0  0  0
 65143  1  0  0  0
 68 79  1  0  0  0
 71 73  2  0  0  0
 71 75  1  0  0  0
 71144  1  0  0  0
 72 74  2  0  0  0
 72 80  1  0  0  0
 72145  1  0  0  0
 73 74  1  0  0  0
 73 82  1  0  0  0
 74 81  1  0  0  0
 75 80  2  0  0  0
 75 83  1  0  0  0
 76 78  1  0  0  0
 76 81  1  0  0  0
 76 84  2  0  0  0
 77 82  1  0  0  0
 77146  1  0  0  0
 77147  1  0  0  0
 77148  1  0  0  0
 78 79  1  0  0  0
 78149  1  0  0  0
 78150  1  0  0  0
 79151  1  0  0  0
 79152  1  0  0  0
 80153  1  0  0  0
 81154  1  0  0  0
 82155  1  0  0  0
 83156  1  0  0  0
M  CHG  1  80   1
M  ISO  4   1 100  68 101  79 101  83 100
M  END
> <chiral flag>
0

> <version>
0

> <s_m_source_file>
/data/baiqing/PycharmProjects/Reinvent-master-3.2/result/LINK_invent/BTK/process_docking_weight1_custom_product_contain_oxygen_bond_distance_aromatic_linkinvent_7_9_3/rearranged_h_0199.sdf

> <i_m_source_file_index>
48

> <r_mmod_Potential_Energy-OPLS-2005>
-70.7502975463867

> <r_mmod_Stretch_Energy-OPLS-2005>
81.5091857910156

> <r_mmod_Bend_Energy-OPLS-2005>
142.513885498047

> <r_mmod_Torsional_Energy-OPLS-2005>
233.342590332031

> <r_mmod_Improper_Torsional_Energy-OPLS-2005>
9.06393718719482

> <r_mmod_Van_der_Waal_Energy-OPLS-2005>
153.157608032227

> <r_mmod_Electrostatic_Energy-OPLS-2005>
-276.515350341797

> <r_mmod_Solvation_Energy-OPLS-2005>
-460.398529052734

> <b_mmod_Minimization_Converged-OPLS-2005>
0

> <r_mmod_RMS_Derivative-OPLS-2005>
0.881901443004608

$$$$
48
                    3D
 Structure written by MMmdl.
157165  0  0  1  0            999 V2000
  -30.5873  -14.6660   20.5202 C   0  0  0  0  0  0
  -30.4366  -12.4059   19.4625 C   0  0  0  0  0  0
  -29.5144  -12.5194   18.2242 C   0  0  0  0  0  0
  -28.0349  -12.3462   18.6316 C   0  0  0  0  0  0
  -27.6496  -13.2146   19.8587 C   0  0  2  0  0  0
  -28.6848  -13.0585   20.9964 C   0  0  0  0  0  0
  -25.2533  -13.8142   20.5649 C   0  0  0  0  0  0
  -24.1810  -13.0415   20.9186 C   0  0  0  0  0  0
  -24.6386  -11.6884   20.8719 C   0  0  0  0  0  0
  -23.9066  -10.4274   21.0415 C   0  0  0  0  0  0
  -24.3613   -9.4198   21.9203 C   0  0  0  0  0  0
  -23.6276   -8.2236   22.0775 C   0  0  0  0  0  0
  -22.4258   -8.0275   21.3558 C   0  0  0  0  0  0
  -21.9890   -9.0259   20.4673 C   0  0  0  0  0  0
  -22.7239  -10.2131   20.3073 C   0  0  0  0  0  0
  -21.6851   -6.0730   22.5283 C   0  0  0  0  0  0
  -21.4032   -6.5642   23.8221 C   0  0  0  0  0  0
  -21.3651   -5.6783   24.9185 C   0  0  0  0  0  0
  -21.6026   -4.3044   24.7237 C   0  0  0  0  0  0
  -21.8814   -3.8148   23.4354 C   0  0  0  0  0  0
  -21.9195   -4.6960   22.3408 C   0  0  0  0  0  0
  -22.7839  -13.5230   21.1841 C   0  0  0  0  0  0
  -22.1662   -4.2153   21.0986 F   0  0  0  0  0  0
  -21.5625   -3.4530   25.7753 F   0  0  0  0  0  0
  -30.0021  -13.4227   20.4479 N   0  0  0  0  0  0
  -26.2942  -12.9323   20.3215 N   0  0  0  0  0  0
  -25.9295  -11.6479   20.5672 N   0  0  0  0  0  0
  -22.0462  -12.8254   22.0404 N   0  0  0  0  0  0
  -25.4185  -15.1866   20.4093 N   0  0  0  0  0  0
  -31.7298  -14.8463   20.0716 O   0  0  0  0  0  0
  -21.6618   -6.8862   21.4240 O   0  0  0  0  0  0
  -22.3534  -14.5555   20.6689 O   0  0  0  0  0  0
  -24.6263  -31.8609   23.2036 C   0  0  0  0  0  0
  -25.9104  -32.4814   23.8383 C   0  0  1  0  0  0
  -27.2236  -27.3411   20.1410 C   0  0  0  0  0  0
  -25.5914  -33.8609   24.2311 N   0  0  0  0  0  0
  -23.4218  -30.4834   21.5429 C   0  0  2  0  0  0
  -24.8682  -28.9335   20.1192 C   0  0  0  0  0  0
  -22.7488  -29.4625   22.4917 C   0  0  0  0  0  0
  -18.0295  -28.1399   22.8483 C   0  0  0  0  0  0
  -24.1476  -36.7325   23.2638 C   0  0  0  0  0  0
  -25.9566  -30.8043   21.3638 C   0  0  0  0  0  0
  -26.0340  -29.4275   20.7198 C   0  0  0  0  0  0
  -27.2197  -28.6422   20.7168 C   0  0  0  0  0  0
  -26.0388  -26.8774   19.5345 C   0  0  0  0  0  0
  -24.8683  -27.6621   19.5210 C   0  0  0  0  0  0
  -23.6411  -29.8197   20.1568 C   0  0  0  0  0  0
  -25.4092  -36.3121   24.0337 C   0  0  1  0  0  0
  -20.5896  -28.3694   23.1284 C   0  0  2  0  0  0
  -20.6793  -26.9418   22.5414 C   0  0  0  0  0  0
  -19.5761  -26.6391   21.5226 C   0  0  0  0  0  0
  -18.1935  -26.7944   22.1629 C   0  0  0  0  0  0
  -19.1554  -28.8860   23.2894 C   0  0  0  0  0  0
  -18.9468  -30.1452   23.8926 C   0  0  0  0  0  0
  -17.6468  -30.6589   24.0574 C   0  0  0  0  0  0
  -25.9016  -34.9479   23.5119 C   0  0  0  0  0  0
  -16.5362  -29.9105   23.6319 C   0  0  0  0  0  0
  -16.7283  -28.6530   23.0340 C   0  0  0  0  0  0
  -26.4474  -31.6636   25.0756 C   0  0  0  0  0  0
  -25.3709  -31.3787   26.1494 C   0  0  0  0  0  0
  -27.0299  -30.3082   24.6154 C   0  0  0  0  0  0
  -27.6031  -32.4354   25.7533 C   0  0  0  0  0  0
  -27.5571  -37.1815   24.8452 C   0  0  0  0  0  0
  -21.4200  -29.3044   22.3670 N   0  0  0  0  0  0
  -26.4274  -37.3805   23.9414 N   0  0  0  0  0  0
  -24.6878  -31.0652   22.0961 N   0  0  0  0  0  0
  -23.4201  -28.8146   23.2988 O   0  0  0  0  0  0
  -28.3483  -26.5214   20.1489 O   0  0  0  0  0  0
  -26.5581  -34.8931   22.4680 O   0  0  0  0  0  0
  -23.5424  -32.1364   23.7377 O   0  0  0  0  0  0
  -29.6017  -17.6609   19.4229 C   0  0  0  0  0  0
  -29.3557  -19.3936   21.5783 C   0  0  0  0  0  0
  -29.3588  -19.0503   19.2029 C   0  0  0  0  0  0
  -29.2547  -19.9752   20.2825 C   0  0  0  0  0  0
  -29.7195  -17.1214   20.7386 C   0  0  0  0  0  0
  -30.1600  -22.7663   21.7153 C   0  0  0  0  0  0
  -28.5708  -23.9026   20.0542 C   0  0  0  0  0  0
  -28.2498  -25.2352   20.8570 C   0  0  0  0  0  0
  -28.8970  -22.5573   20.8591 C   0  0  1  0  0  0
  -29.5644  -18.0439   21.7464 N   0  3  0  0  0  0
  -29.1680  -19.5431   17.9033 N   0  0  0  0  0  0
  -29.0578  -21.3675   19.9701 N   0  0  0  0  0  0
  -29.8000  -15.6794   21.0280 N   0  0  0  0  0  0
  -31.4857  -12.5196   19.1805 H   0  0  0  0  0  0
  -30.3573  -11.4088   19.8992 H   0  0  0  0  0  0
  -29.7883  -11.7664   17.4825 H   0  0  0  0  0  0
  -29.6532  -13.4865   17.7379 H   0  0  0  0  0  0
  -27.8808  -11.2937   18.8687 H   0  0  0  0  0  0
  -27.3810  -12.5648   17.7873 H   0  0  0  0  0  0
  -27.6682  -14.2493   19.5144 H   0  0  0  0  0  0
  -28.6991  -12.0299   21.3626 H   0  0  0  0  0  0
  -28.4118  -13.6648   21.8613 H   0  0  0  0  0  0
  -25.2770   -9.5670   22.4778 H   0  0  0  0  0  0
  -24.0008   -7.4609   22.7472 H   0  0  0  0  0  0
  -21.0831   -8.8772   19.8951 H   0  0  0  0  0  0
  -22.3715  -10.9666   19.6168 H   0  0  0  0  0  0
  -21.2032   -7.6148   23.9737 H   0  0  0  0  0  0
  -21.1474   -6.0515   25.9088 H   0  0  0  0  0  0
  -22.0593   -2.7607   23.2851 H   0  0  0  0  0  0
  -22.4059  -11.9942   22.4840 H   0  0  0  0  0  0
  -21.1077  -13.1286   22.2568 H   0  0  0  0  0  0
  -24.6242  -15.8111   20.5087 H   0  0  0  0  0  0
  -26.2269  -15.6329   19.9959 H   0  0  0  0  0  0
  -26.7182  -32.5491   23.1151 H   0  0  0  0  0  0
  -25.0109  -33.9742   25.0498 H   0  0  0  0  0  0
  -22.7155  -31.3038   21.3982 H   0  0  0  0  0  0
  -23.3746  -35.9650   23.3287 H   0  0  0  0  0  0
  -24.3581  -36.8956   22.2053 H   0  0  0  0  0  0
  -23.7202  -37.6512   23.6664 H   0  0  0  0  0  0
  -26.0631  -31.5543   20.5792 H   0  0  0  0  0  0
  -26.8473  -30.8741   21.9769 H   0  0  0  0  0  0
  -28.1210  -29.0099   21.1868 H   0  0  0  0  0  0
  -26.0189  -25.8940   19.0883 H   0  0  0  0  0  0
  -23.9701  -27.2728   19.0624 H   0  0  0  0  0  0
  -23.7831  -30.5967   19.4048 H   0  0  0  0  0  0
  -22.7600  -29.2603   19.8399 H   0  0  0  0  0  0
  -25.1260  -36.1988   25.0826 H   0  0  0  0  0  0
  -21.0001  -28.3282   24.1404 H   0  0  0  0  0  0
  -20.5721  -26.2290   23.3610 H   0  0  0  0  0  0
  -21.6654  -26.7451   22.1193 H   0  0  0  0  0  0
  -19.6909  -25.6305   21.1257 H   0  0  0  0  0  0
  -19.6710  -27.3195   20.6754 H   0  0  0  0  0  0
  -17.4206  -26.6697   21.4036 H   0  0  0  0  0  0
  -18.0324  -26.0097   22.9030 H   0  0  0  0  0  0
  -19.7937  -30.7271   24.2321 H   0  0  0  0  0  0
  -17.5013  -31.6266   24.5185 H   0  0  0  0  0  0
  -15.5361  -30.3016   23.7618 H   0  0  0  0  0  0
  -15.8686  -28.0855   22.7032 H   0  0  0  0  0  0
  -24.5848  -30.7177   25.7840 H   0  0  0  0  0  0
  -24.8948  -32.2965   26.4944 H   0  0  0  0  0  0
  -25.8021  -30.8948   27.0264 H   0  0  0  0  0  0
  -26.2858  -29.6873   24.1155 H   0  0  0  0  0  0
  -27.4012  -29.7298   25.4622 H   0  0  0  0  0  0
  -27.8714  -30.4430   23.9356 H   0  0  0  0  0  0
  -27.2652  -33.3646   26.2131 H   0  0  0  0  0  0
  -28.3840  -32.6922   25.0368 H   0  0  0  0  0  0
  -28.0705  -31.8474   26.5439 H   0  0  0  0  0  0
  -28.2572  -38.0132   24.7524 H   0  0  0  0  0  0
  -28.1083  -36.2656   24.6244 H   0  0  0  0  0  0
  -27.2302  -37.1432   25.8860 H   0  0  0  0  0  0
  -20.9377  -29.8803   21.6917 H   0  0  0  0  0  0
  -26.0171  -38.2878   24.1457 H   0  0  0  0  0  0
  -29.6474  -16.9981   18.5724 H   0  0  0  0  0  0
  -29.2646  -19.9668   22.4908 H   0  0  0  0  0  0
  -29.9391  -23.3910   22.5821 H   0  0  0  0  0  0
  -30.9481  -23.2655   21.1500 H   0  0  0  0  0  0
  -30.5759  -21.8352   22.0972 H   0  0  0  0  0  0
  -29.4150  -24.1184   19.3997 H   0  0  0  0  0  0
  -27.7270  -23.7194   19.3868 H   0  0  0  0  0  0
  -28.9593  -25.3177   21.6800 H   0  0  0  0  0  0
  -27.2761  -25.1314   21.3393 H   0  0  0  0  0  0
  -28.0635  -22.3408   21.5311 H   0  0  0  0  0  0
  -29.6021  -17.7098   22.7161 H   0  0  0  0  0  0
  -28.9036  -18.8553   17.2106 H   0  0  0  0  0  0
  -28.5210  -20.3211   17.8785 H   0  0  0  0  0  0
  -29.1717  -21.5694   18.9807 H   0  0  0  0  0  0
  -29.0138  -15.3171   21.5377 H   0  0  0  0  0  0
  1 25  1  0  0  0
  1 30  2  0  0  0
  1 83  1  0  0  0
  2  3  1  0  0  0
  2 25  1  0  0  0
  2 84  1  0  0  0
  2 85  1  0  0  0
  3  4  1  0  0  0
  3 86  1  0  0  0
  3 87  1  0  0  0
  4  5  1  0  0  0
  4 88  1  0  0  0
  4 89  1  0  0  0
  5  6  1  0  0  0
  5 26  1  0  0  0
  5 90  1  0  0  0
  6 25  1  0  0  0
  6 91  1  0  0  0
  6 92  1  0  0  0
  7  8  2  0  0  0
  7 26  1  0  0  0
  7 29  1  0  0  0
  8  9  1  0  0  0
  8 22  1  0  0  0
  9 10  1  0  0  0
  9 27  2  0  0  0
 10 11  2  0  0  0
 10 15  1  0  0  0
 11 12  1  0  0  0
 11 93  1  0  0  0
 12 13  2  0  0  0
 12 94  1  0  0  0
 13 14  1  0  0  0
 13 31  1  0  0  0
 14 15  2  0  0  0
 14 95  1  0  0  0
 15 96  1  0  0  0
 16 17  2  0  0  0
 16 21  1  0  0  0
 16 31  1  0  0  0
 17 18  1  0  0  0
 17 97  1  0  0  0
 18 19  2  0  0  0
 18 98  1  0  0  0
 19 20  1  0  0  0
 19 24  1  0  0  0
 20 21  2  0  0  0
 20 99  1  0  0  0
 21 23  1  0  0  0
 22 28  1  0  0  0
 22 32  2  0  0  0
 26 27  1  0  0  0
 28100  1  0  0  0
 28101  1  0  0  0
 29102  1  0  0  0
 29103  1  0  0  0
 33 34  1  0  0  0
 33 66  1  0  0  0
 33 70  2  0  0  0
 34 36  1  0  0  0
 34 59  1  0  0  0
 34104  1  0  0  0
 35 44  2  0  0  0
 35 45  1  0  0  0
 35 68  1  0  0  0
 36 56  1  0  0  0
 36105  1  0  0  0
 37 39  1  0  0  0
 37 47  1  0  0  0
 37 66  1  0  0  0
 37106  1  0  0  0
 38 43  2  0  0  0
 38 46  1  0  0  0
 38 47  1  0  0  0
 39 64  1  0  0  0
 39 67  2  0  0  0
 40 52  1  0  0  0
 40 53  2  0  0  0
 40 58  1  0  0  0
 41107  1  0  0  0
 41108  1  0  0  0
 41109  1  0  0  0
 41 48  1  0  0  0
 42 43  1  0  0  0
 42 66  1  0  0  0
 42110  1  0  0  0
 42111  1  0  0  0
 43 44  1  0  0  0
 44112  1  0  0  0
 45 46  2  0  0  0
 45113  1  0  0  0
 46114  1  0  0  0
 47115  1  0  0  0
 47116  1  0  0  0
 48 56  1  0  0  0
 48 65  1  0  0  0
 48117  1  0  0  0
 49 50  1  0  0  0
 49 53  1  0  0  0
 49 64  1  0  0  0
 49118  1  0  0  0
 50 51  1  0  0  0
 50119  1  0  0  0
 50120  1  0  0  0
 51 52  1  0  0  0
 51121  1  0  0  0
 51122  1  0  0  0
 52123  1  0  0  0
 52124  1  0  0  0
 53 54  1  0  0  0
 54 55  2  0  0  0
 54125  1  0  0  0
 55 57  1  0  0  0
 55126  1  0  0  0
 56 69  2  0  0  0
 57 58  2  0  0  0
 57127  1  0  0  0
 58128  1  0  0  0
 59 60  1  0  0  0
 59 61  1  0  0  0
 59 62  1  0  0  0
 60129  1  0  0  0
 60130  1  0  0  0
 60131  1  0  0  0
 61132  1  0  0  0
 61133  1  0  0  0
 61134  1  0  0  0
 62135  1  0  0  0
 62136  1  0  0  0
 62137  1  0  0  0
 63 65  1  0  0  0
 63138  1  0  0  0
 63139  1  0  0  0
 63140  1  0  0  0
 64141  1  0  0  0
 65142  1  0  0  0
 68 78  1  0  0  0
 71 73  2  0  0  0
 71 75  1  0  0  0
 71143  1  0  0  0
 72 74  2  0  0  0
 72 80  1  0  0  0
 72144  1  0  0  0
 73 74  1  0  0  0
 73 81  1  0  0  0
 74 82  1  0  0  0
 75 80  2  0  0  0
 75 83  1  0  0  0
 76145  1  0  0  0
 76146  1  0  0  0
 76147  1  0  0  0
 76 79  1  0  0  0
 77 78  1  0  0  0
 77 79  1  0  0  0
 77148  1  0  0  0
 77149  1  0  0  0
 78150  1  0  0  0
 78151  1  0  0  0
 79 82  1  0  0  0
 79152  1  0  0  0
 80153  1  0  0  0
 81154  1  0  0  0
 81155  1  0  0  0
 82156  1  0  0  0
 83157  1  0  0  0
M  CHG  1  80   1
M  ISO  4   1 100  68 101  78 101  83 100
M  END
> <chiral flag>
0

> <version>
0

> <s_m_source_file>
/data/baiqing/PycharmProjects/Reinvent-master-3.2/result/LINK_invent/BTK/process_docking_weight1_custom_product_contain_oxygen_bond_distance_aromatic_linkinvent_7_9_3/rearranged_h_0199.sdf

> <i_m_source_file_index>
49

> <r_mmod_Potential_Energy-OPLS-2005>
30.3115577697754

> <r_mmod_Stretch_Energy-OPLS-2005>
80.8168258666992

> <r_mmod_Bend_Energy-OPLS-2005>
155.263854980469

> <r_mmod_Torsional_Energy-OPLS-2005>
255.561538696289

> <r_mmod_Improper_Torsional_Energy-OPLS-2005>
10.1121549606323

> <r_mmod_Van_der_Waal_Energy-OPLS-2005>
141.336975097656

> <r_mmod_Electrostatic_Energy-OPLS-2005>
-208.893173217773

> <r_mmod_Solvation_Energy-OPLS-2005>
-452.091461181641

> <b_mmod_Minimization_Converged-OPLS-2005>
0

> <r_mmod_RMS_Derivative-OPLS-2005>
3.72221565246582

$$$$
49
                    3D
 Structure written by MMmdl.
154162  0  0  1  0            999 V2000
  -30.5747  -14.7792   20.4459 C   0  0  0  0  0  0
  -30.4398  -12.4724   19.4832 C   0  0  0  0  0  0
  -29.5171  -12.5142   18.2434 C   0  0  0  0  0  0
  -28.0439  -12.3297   18.6557 C   0  0  0  0  0  0
  -27.6448  -13.2297   19.8554 C   0  0  2  0  0  0
  -28.6874  -13.1642   20.9942 C   0  0  0  0  0  0
  -25.2515  -13.8185   20.5698 C   0  0  0  0  0  0
  -24.1807  -13.0433   20.9207 C   0  0  0  0  0  0
  -24.6394  -11.6911   20.8746 C   0  0  0  0  0  0
  -23.9064  -10.4292   21.0403 C   0  0  0  0  0  0
  -24.3614   -9.4210   21.9180 C   0  0  0  0  0  0
  -23.6292   -8.2246   22.0743 C   0  0  0  0  0  0
  -22.4272   -8.0275   21.3538 C   0  0  0  0  0  0
  -21.9908   -9.0249   20.4641 C   0  0  0  0  0  0
  -22.7235  -10.2131   20.3052 C   0  0  0  0  0  0
  -21.6855   -6.0727   22.5273 C   0  0  0  0  0  0
  -21.4019   -6.5633   23.8204 C   0  0  0  0  0  0
  -21.3662   -5.6787   24.9169 C   0  0  0  0  0  0
  -21.6049   -4.3049   24.7224 C   0  0  0  0  0  0
  -21.8822   -3.8137   23.4346 C   0  0  0  0  0  0
  -21.9199   -4.6956   22.3400 C   0  0  0  0  0  0
  -22.7831  -13.5205   21.1885 C   0  0  0  0  0  0
  -22.1665   -4.2135   21.0979 F   0  0  0  0  0  0
  -21.5635   -3.4536   25.7742 F   0  0  0  0  0  0
  -29.9880  -13.5304   20.4187 N   0  0  0  0  0  0
  -26.2947  -12.9394   20.3291 N   0  0  0  0  0  0
  -25.9326  -11.6537   20.5753 N   0  0  0  0  0  0
  -22.0489  -12.8176   22.0436 N   0  0  0  0  0  0
  -25.4196  -15.1911   20.4115 N   0  0  0  0  0  0
  -31.7481  -14.9082   20.0841 O   0  0  0  0  0  0
  -21.6643   -6.8869   21.4231 O   0  0  0  0  0  0
  -22.3511  -14.5523   20.6755 O   0  0  0  0  0  0
  -24.6309  -31.8516   23.1929 C   0  0  0  0  0  0
  -25.9127  -32.4733   23.8289 C   0  0  1  0  0  0
  -27.2344  -27.2431   20.1344 C   0  0  0  0  0  0
  -25.5907  -33.8537   24.2210 N   0  0  0  0  0  0
  -23.4295  -30.4692   21.5351 C   0  0  2  0  0  0
  -24.8811  -28.9062   20.1052 C   0  0  0  0  0  0
  -22.7486  -29.4584   22.4896 C   0  0  0  0  0  0
  -18.0284  -28.1388   22.8476 C   0  0  0  0  0  0
  -24.1490  -36.7278   23.2642 C   0  0  0  0  0  0
  -25.9738  -30.7589   21.3737 C   0  0  0  0  0  0
  -26.0475  -29.3780   20.7176 C   0  0  0  0  0  0
  -27.2205  -28.5574   20.7211 C   0  0  0  0  0  0
  -26.0446  -26.8338   19.4961 C   0  0  0  0  0  0
  -24.8861  -27.6441   19.4834 C   0  0  0  0  0  0
  -23.6498  -29.7935   20.1534 C   0  0  0  0  0  0
  -25.4120  -36.3053   24.0318 C   0  0  1  0  0  0
  -20.5880  -28.3711   23.1267 C   0  0  2  0  0  0
  -20.6770  -26.9426   22.5410 C   0  0  0  0  0  0
  -19.5751  -26.6386   21.5211 C   0  0  0  0  0  0
  -18.1933  -26.7926   22.1626 C   0  0  0  0  0  0
  -19.1533  -28.8867   23.2865 C   0  0  0  0  0  0
  -18.9456  -30.1469   23.8874 C   0  0  0  0  0  0
  -17.6456  -30.6589   24.0553 C   0  0  0  0  0  0
  -25.9059  -34.9428   23.5071 C   0  0  0  0  0  0
  -16.5346  -29.9080   23.6333 C   0  0  0  0  0  0
  -16.7268  -28.6501   23.0343 C   0  0  0  0  0  0
  -26.4491  -31.6578   25.0694 C   0  0  0  0  0  0
  -25.3706  -31.3746   26.1410 C   0  0  0  0  0  0
  -27.0351  -30.2992   24.6204 C   0  0  0  0  0  0
  -27.6028  -32.4335   25.7484 C   0  0  0  0  0  0
  -27.5577  -37.1795   24.8464 C   0  0  0  0  0  0
  -21.4185  -29.3068   22.3659 N   0  0  0  0  0  0
  -26.4290  -37.3758   23.9403 N   0  0  0  0  0  0
  -24.6970  -31.0465   22.0903 N   0  0  0  0  0  0
  -23.4171  -28.8134   23.3016 O   0  0  0  0  0  0
  -28.3563  -26.3847   20.2517 O   0  0  0  0  0  0
  -26.5647  -34.8914   22.4653 O   0  0  0  0  0  0
  -23.5457  -32.1345   23.7218 O   0  0  0  0  0  0
  -29.9290  -18.8353   23.6006 C   0  0  0  0  0  0
  -29.6908  -20.2136   23.4743 C   0  0  0  0  0  0
  -29.6888  -18.5384   21.3012 C   0  0  0  0  0  0
  -29.4030  -20.0031   21.1743 C   0  0  0  0  0  0
  -29.8592  -17.3698   20.2304 C   0  0  0  0  0  0
  -29.2988  -22.2992   19.8164 C   0  0  0  0  0  0
  -28.5407  -25.0114   19.6420 C   0  0  0  0  0  0
  -28.4274  -23.5552   20.4022 C   0  0  1  0  0  0
  -29.9364  -18.0148   22.5300 N   0  0  0  0  0  0
  -29.4356  -20.7864   22.2794 N   0  0  0  0  0  0
  -28.9903  -20.8150   20.0592 N   0  0  0  0  0  0
  -29.7544  -15.8816   20.6542 N   0  0  0  0  0  0
  -28.9525  -23.6891   21.7071 O   0  0  0  0  0  0
  -31.4803  -12.6055   19.1818 H   0  0  0  0  0  0
  -30.3910  -11.4948   19.9647 H   0  0  0  0  0  0
  -29.8053  -11.7405   17.5306 H   0  0  0  0  0  0
  -29.6376  -13.4673   17.7263 H   0  0  0  0  0  0
  -27.9089  -11.2810   18.9226 H   0  0  0  0  0  0
  -27.3845  -12.5144   17.8074 H   0  0  0  0  0  0
  -27.6406  -14.2506   19.4734 H   0  0  0  0  0  0
  -28.7286  -12.1651   21.4304 H   0  0  0  0  0  0
  -28.4149  -13.8393   21.8072 H   0  0  0  0  0  0
  -25.2754   -9.5697   22.4756 H   0  0  0  0  0  0
  -24.0010   -7.4634   22.7453 H   0  0  0  0  0  0
  -21.0841   -8.8760   19.8940 H   0  0  0  0  0  0
  -22.3680  -10.9669   19.6162 H   0  0  0  0  0  0
  -21.2007   -7.6138   23.9703 H   0  0  0  0  0  0
  -21.1483   -6.0519   25.9070 H   0  0  0  0  0  0
  -22.0602   -2.7597   23.2851 H   0  0  0  0  0  0
  -22.4117  -11.9830   22.4808 H   0  0  0  0  0  0
  -21.1103  -13.1184   22.2654 H   0  0  0  0  0  0
  -24.6502  -15.8428   20.5216 H   0  0  0  0  0  0
  -26.2615  -15.6301   20.0630 H   0  0  0  0  0  0
  -26.7189  -32.5377   23.1025 H   0  0  0  0  0  0
  -25.0024  -33.9671   25.0332 H   0  0  0  0  0  0
  -22.7263  -31.2905   21.3822 H   0  0  0  0  0  0
  -23.3748  -35.9613   23.3299 H   0  0  0  0  0  0
  -24.3575  -36.8916   22.2057 H   0  0  0  0  0  0
  -23.7254  -37.6478   23.6681 H   0  0  0  0  0  0
  -26.1137  -31.5184   20.6030 H   0  0  0  0  0  0
  -26.8500  -30.8096   22.0086 H   0  0  0  0  0  0
  -28.1125  -28.9123   21.2175 H   0  0  0  0  0  0
  -25.9796  -25.8585   19.0371 H   0  0  0  0  0  0
  -23.9900  -27.2747   19.0037 H   0  0  0  0  0  0
  -23.7716  -30.5652   19.3920 H   0  0  0  0  0  0
  -22.7692  -29.2227   19.8533 H   0  0  0  0  0  0
  -25.1311  -36.1886   25.0810 H   0  0  0  0  0  0
  -20.9975  -28.3285   24.1387 H   0  0  0  0  0  0
  -20.5664  -26.2311   23.3609 H   0  0  0  0  0  0
  -21.6645  -26.7448   22.1218 H   0  0  0  0  0  0
  -19.6907  -25.6290   21.1254 H   0  0  0  0  0  0
  -19.6695  -27.3185   20.6736 H   0  0  0  0  0  0
  -17.4197  -26.6649   21.4039 H   0  0  0  0  0  0
  -18.0351  -26.0075   22.9036 H   0  0  0  0  0  0
  -19.7937  -30.7295   24.2218 H   0  0  0  0  0  0
  -17.5012  -31.6269   24.5153 H   0  0  0  0  0  0
  -15.5347  -30.2973   23.7673 H   0  0  0  0  0  0
  -15.8675  -28.0817   22.7050 H   0  0  0  0  0  0
  -24.5873  -30.7102   25.7739 H   0  0  0  0  0  0
  -24.8906  -32.2929   26.4806 H   0  0  0  0  0  0
  -25.8013  -30.8941   27.0203 H   0  0  0  0  0  0
  -26.2947  -29.6728   24.1214 H   0  0  0  0  0  0
  -27.4009  -29.7269   25.4740 H   0  0  0  0  0  0
  -27.8827  -30.4258   23.9463 H   0  0  0  0  0  0
  -27.2609  -33.3634   26.2042 H   0  0  0  0  0  0
  -28.3857  -32.6903   25.0334 H   0  0  0  0  0  0
  -28.0671  -31.8475   26.5428 H   0  0  0  0  0  0
  -28.2593  -38.0092   24.7502 H   0  0  0  0  0  0
  -28.1074  -36.2623   24.6299 H   0  0  0  0  0  0
  -27.2292  -37.1453   25.8867 H   0  0  0  0  0  0
  -20.9369  -29.8788   21.6859 H   0  0  0  0  0  0
  -26.0161  -38.2829   24.1401 H   0  0  0  0  0  0
  -30.1186  -18.3907   24.5667 H   0  0  0  0  0  0
  -29.6900  -20.8594   24.3397 H   0  0  0  0  0  0
  -29.1170  -17.5399   19.4507 H   0  0  0  0  0  0
  -30.8250  -17.5200   19.7467 H   0  0  0  0  0  0
  -30.3542  -22.4627   20.0441 H   0  0  0  0  0  0
  -29.2522  -22.3975   18.7306 H   0  0  0  0  0  0
  -27.9667  -24.9562   18.7180 H   0  0  0  0  0  0
  -29.5706  -25.0575   19.2854 H   0  0  0  0  0  0
  -27.3744  -23.2767   20.4683 H   0  0  0  0  0  0
  -28.8351  -20.2863   19.2055 H   0  0  0  0  0  0
  -28.8419  -15.6354   21.0036 H   0  0  0  0  0  0
  -29.0423  -22.7942   22.0396 H   0  0  0  0  0  0
  1 25  1  0  0  0
  1 30  2  0  0  0
  1 82  1  0  0  0
  2  3  1  0  0  0
  2 25  1  0  0  0
  2 84  1  0  0  0
  2 85  1  0  0  0
  3  4  1  0  0  0
  3 86  1  0  0  0
  3 87  1  0  0  0
  4  5  1  0  0  0
  4 88  1  0  0  0
  4 89  1  0  0  0
  5  6  1  0  0  0
  5 26  1  0  0  0
  5 90  1  0  0  0
  6 25  1  0  0  0
  6 91  1  0  0  0
  6 92  1  0  0  0
  7  8  2  0  0  0
  7 26  1  0  0  0
  7 29  1  0  0  0
  8  9  1  0  0  0
  8 22  1  0  0  0
  9 10  1  0  0  0
  9 27  2  0  0  0
 10 11  2  0  0  0
 10 15  1  0  0  0
 11 12  1  0  0  0
 11 93  1  0  0  0
 12 13  2  0  0  0
 12 94  1  0  0  0
 13 14  1  0  0  0
 13 31  1  0  0  0
 14 15  2  0  0  0
 14 95  1  0  0  0
 15 96  1  0  0  0
 16 17  2  0  0  0
 16 21  1  0  0  0
 16 31  1  0  0  0
 17 18  1  0  0  0
 17 97  1  0  0  0
 18 19  2  0  0  0
 18 98  1  0  0  0
 19 20  1  0  0  0
 19 24  1  0  0  0
 20 21  2  0  0  0
 20 99  1  0  0  0
 21 23  1  0  0  0
 22 28  1  0  0  0
 22 32  2  0  0  0
 26 27  1  0  0  0
 28100  1  0  0  0
 28101  1  0  0  0
 29102  1  0  0  0
 29103  1  0  0  0
 33 34  1  0  0  0
 33 66  1  0  0  0
 33 70  2  0  0  0
 34 36  1  0  0  0
 34 59  1  0  0  0
 34104  1  0  0  0
 35 44  2  0  0  0
 35 45  1  0  0  0
 35 68  1  0  0  0
 36 56  1  0  0  0
 36105  1  0  0  0
 37 39  1  0  0  0
 37 47  1  0  0  0
 37 66  1  0  0  0
 37106  1  0  0  0
 38 43  2  0  0  0
 38 46  1  0  0  0
 38 47  1  0  0  0
 39 64  1  0  0  0
 39 67  2  0  0  0
 40 52  1  0  0  0
 40 53  2  0  0  0
 40 58  1  0  0  0
 41107  1  0  0  0
 41108  1  0  0  0
 41109  1  0  0  0
 41 48  1  0  0  0
 42 43  1  0  0  0
 42 66  1  0  0  0
 42110  1  0  0  0
 42111  1  0  0  0
 43 44  1  0  0  0
 44112  1  0  0  0
 45 46  2  0  0  0
 45113  1  0  0  0
 46114  1  0  0  0
 47115  1  0  0  0
 47116  1  0  0  0
 48 56  1  0  0  0
 48 65  1  0  0  0
 48117  1  0  0  0
 49 50  1  0  0  0
 49 53  1  0  0  0
 49 64  1  0  0  0
 49118  1  0  0  0
 50 51  1  0  0  0
 50119  1  0  0  0
 50120  1  0  0  0
 51 52  1  0  0  0
 51121  1  0  0  0
 51122  1  0  0  0
 52123  1  0  0  0
 52124  1  0  0  0
 53 54  1  0  0  0
 54 55  2  0  0  0
 54125  1  0  0  0
 55 57  1  0  0  0
 55126  1  0  0  0
 56 69  2  0  0  0
 57 58  2  0  0  0
 57127  1  0  0  0
 58128  1  0  0  0
 59 60  1  0  0  0
 59 61  1  0  0  0
 59 62  1  0  0  0
 60129  1  0  0  0
 60130  1  0  0  0
 60131  1  0  0  0
 61132  1  0  0  0
 61133  1  0  0  0
 61134  1  0  0  0
 62135  1  0  0  0
 62136  1  0  0  0
 62137  1  0  0  0
 63 65  1  0  0  0
 63138  1  0  0  0
 63139  1  0  0  0
 63140  1  0  0  0
 64141  1  0  0  0
 65142  1  0  0  0
 68 77  1  0  0  0
 71 72  2  0  0  0
 71 79  1  0  0  0
 71143  1  0  0  0
 72 80  1  0  0  0
 72144  1  0  0  0
 73 74  1  0  0  0
 73 75  1  0  0  0
 73 79  2  0  0  0
 74 80  2  0  0  0
 74 81  1  0  0  0
 75 82  1  0  0  0
 75145  1  0  0  0
 75146  1  0  0  0
 76 78  1  0  0  0
 76 81  1  0  0  0
 76147  1  0  0  0
 76148  1  0  0  0
 77 78  1  0  0  0
 77149  1  0  0  0
 77150  1  0  0  0
 78 83  1  0  0  0
 78151  1  0  0  0
 81152  1  0  0  0
 82153  1  0  0  0
 83154  1  0  0  0
M  ISO  4   1 100  68 101  77 101  82 100
M  END
> <chiral flag>
0

> <version>
0

> <s_m_source_file>
/data/baiqing/PycharmProjects/Reinvent-master-3.2/result/LINK_invent/BTK/process_docking_weight1_custom_product_contain_oxygen_bond_distance_aromatic_linkinvent_7_9_3/rearranged_h_0199.sdf

> <i_m_source_file_index>
50

> <r_mmod_Potential_Energy-OPLS-2005>
215.757446289062

> <r_mmod_Stretch_Energy-OPLS-2005>
155.897201538086

> <r_mmod_Bend_Energy-OPLS-2005>
255.377075195312

> <r_mmod_Torsional_Energy-OPLS-2005>
239.192367553711

> <r_mmod_Improper_Torsional_Energy-OPLS-2005>
8.00520896911621

> <r_mmod_Van_der_Waal_Energy-OPLS-2005>
138.618896484375

> <r_mmod_Electrostatic_Energy-OPLS-2005>
-406.500061035156

> <r_mmod_Solvation_Energy-OPLS-2005>
-272.692840576172

> <b_mmod_Minimization_Converged-OPLS-2005>
0

> <r_mmod_RMS_Derivative-OPLS-2005>
1.13172471523285

$$$$
50
                    3D
 Structure written by MMmdl.
148156  0  0  1  0            999 V2000
  -30.6013  -14.7255   20.4716 C   0  0  0  0  0  0
  -30.4301  -12.4488   19.4594 C   0  0  0  0  0  0
  -29.5033  -12.5006   18.2252 C   0  0  0  0  0  0
  -28.0277  -12.3341   18.6393 C   0  0  0  0  0  0
  -27.6395  -13.2275   19.8480 C   0  0  2  0  0  0
  -28.6845  -13.1457   20.9805 C   0  0  0  0  0  0
  -25.2510  -13.8193   20.5682 C   0  0  0  0  0  0
  -24.1799  -13.0439   20.9203 C   0  0  0  0  0  0
  -24.6388  -11.6919   20.8762 C   0  0  0  0  0  0
  -23.9074  -10.4295   21.0427 C   0  0  0  0  0  0
  -24.3630   -9.4204   21.9204 C   0  0  0  0  0  0
  -23.6298   -8.2235   22.0759 C   0  0  0  0  0  0
  -22.4286   -8.0280   21.3544 C   0  0  0  0  0  0
  -21.9924   -9.0260   20.4649 C   0  0  0  0  0  0
  -22.7250  -10.2137   20.3067 C   0  0  0  0  0  0
  -21.6854   -6.0742   22.5286 C   0  0  0  0  0  0
  -21.4003   -6.5645   23.8217 C   0  0  0  0  0  0
  -21.3645   -5.6796   24.9181 C   0  0  0  0  0  0
  -21.6049   -4.3061   24.7230 C   0  0  0  0  0  0
  -21.8818   -3.8156   23.4343 C   0  0  0  0  0  0
  -21.9188   -4.6972   22.3404 C   0  0  0  0  0  0
  -22.7823  -13.5230   21.1878 C   0  0  0  0  0  0
  -22.1663   -4.2159   21.0982 F   0  0  0  0  0  0
  -21.5627   -3.4548   25.7741 F   0  0  0  0  0  0
  -29.9797  -13.5044   20.3933 N   0  0  0  0  0  0
  -26.2927  -12.9385   20.3274 N   0  0  0  0  0  0
  -25.9321  -11.6535   20.5765 N   0  0  0  0  0  0
  -22.0462  -12.8211   22.0419 N   0  0  0  0  0  0
  -25.4212  -15.1908   20.4061 N   0  0  0  0  0  0
  -31.7981  -14.8232   20.1838 O   0  0  0  0  0  0
  -21.6632   -6.8883   21.4246 O   0  0  0  0  0  0
  -22.3499  -14.5535   20.6724 O   0  0  0  0  0  0
  -24.6313  -31.8550   23.1972 C   0  0  0  0  0  0
  -25.9129  -32.4756   23.8337 C   0  0  1  0  0  0
  -27.2188  -27.2688   20.1328 C   0  0  0  0  0  0
  -25.5927  -33.8558   24.2276 N   0  0  0  0  0  0
  -23.4284  -30.4764   21.5404 C   0  0  2  0  0  0
  -24.8752  -28.9152   20.1213 C   0  0  0  0  0  0
  -22.7495  -29.4621   22.4911 C   0  0  0  0  0  0
  -18.0286  -28.1382   22.8494 C   0  0  0  0  0  0
  -24.1482  -36.7265   23.2671 C   0  0  0  0  0  0
  -25.9736  -30.7714   21.3738 C   0  0  0  0  0  0
  -26.0492  -29.3932   20.7188 C   0  0  0  0  0  0
  -27.2300  -28.5833   20.7084 C   0  0  0  0  0  0
  -26.0219  -26.8467   19.5221 C   0  0  0  0  0  0
  -24.8631  -27.6464   19.5192 C   0  0  0  0  0  0
  -23.6460  -29.8032   20.1604 C   0  0  0  0  0  0
  -25.4126  -36.3069   24.0337 C   0  0  1  0  0  0
  -20.5896  -28.3701   23.1255 C   0  0  2  0  0  0
  -20.6774  -26.9411   22.5403 C   0  0  0  0  0  0
  -19.5741  -26.6376   21.5214 C   0  0  0  0  0  0
  -18.1924  -26.7929   22.1631 C   0  0  0  0  0  0
  -19.1545  -28.8862   23.2869 C   0  0  0  0  0  0
  -18.9473  -30.1466   23.8880 C   0  0  0  0  0  0
  -17.6479  -30.6598   24.0567 C   0  0  0  0  0  0
  -25.9035  -34.9434   23.5107 C   0  0  0  0  0  0
  -16.5374  -29.9085   23.6348 C   0  0  0  0  0  0
  -16.7281  -28.6503   23.0364 C   0  0  0  0  0  0
  -26.4489  -31.6589   25.0728 C   0  0  0  0  0  0
  -25.3711  -31.3749   26.1456 C   0  0  0  0  0  0
  -27.0355  -30.3007   24.6226 C   0  0  0  0  0  0
  -27.6042  -32.4345   25.7486 C   0  0  0  0  0  0
  -27.5512  -37.1890   24.8540 C   0  0  0  0  0  0
  -21.4203  -29.3052   22.3646 N   0  0  0  0  0  0
  -26.4345  -37.3719   23.9300 N   0  0  0  0  0  0
  -24.6971  -31.0524   22.0942 N   0  0  0  0  0  0
  -23.4177  -28.8160   23.3034 O   0  0  0  0  0  0
  -28.3012  -26.3709   20.1291 O   0  0  0  0  0  0
  -26.5581  -34.8905   22.4661 O   0  0  0  0  0  0
  -23.5454  -32.1354   23.7275 O   0  0  0  0  0  0
  -28.7899  -18.9760   19.4775 C   0  0  0  0  0  0
  -28.3912  -20.3801   19.4312 C   0  0  0  0  0  0
  -29.5333  -18.6011   20.5788 C   0  0  0  0  0  0
  -28.7928  -21.1636   20.4989 C   0  0  0  0  0  0
  -28.4110  -23.6721   20.0671 C   0  0  0  0  0  0
  -30.3280  -17.2797   20.9270 C   0  0  0  0  0  0
  -28.1189  -25.0558   20.8297 C   0  0  0  0  0  0
  -28.5601  -22.5129   20.8154 N   0  0  0  0  0  0
  -29.8306  -15.8592   20.6912 N   0  0  0  0  0  0
  -28.4995  -23.6621   18.8358 O   0  0  0  0  0  0
  -29.6601  -20.0597   21.6016 S   0  0  0  0  0  0
  -31.4702  -12.5796   19.1556 H   0  0  0  0  0  0
  -30.3788  -11.4697   19.9389 H   0  0  0  0  0  0
  -29.7799  -11.7220   17.5136 H   0  0  0  0  0  0
  -29.6338  -13.4505   17.7037 H   0  0  0  0  0  0
  -27.8751  -11.2843   18.8922 H   0  0  0  0  0  0
  -27.3716  -12.5401   17.7928 H   0  0  0  0  0  0
  -27.6374  -14.2527   19.4769 H   0  0  0  0  0  0
  -28.7218  -12.1400   21.4018 H   0  0  0  0  0  0
  -28.4244  -13.8137   21.8039 H   0  0  0  0  0  0
  -25.2781   -9.5671   22.4777 H   0  0  0  0  0  0
  -24.0014   -7.4619   22.7475 H   0  0  0  0  0  0
  -21.0856   -8.8786   19.8949 H   0  0  0  0  0  0
  -22.3730  -10.9685   19.6168 H   0  0  0  0  0  0
  -21.1986   -7.6147   23.9725 H   0  0  0  0  0  0
  -21.1467   -6.0527   25.9084 H   0  0  0  0  0  0
  -22.0604   -2.7623   23.2853 H   0  0  0  0  0  0
  -22.4085  -11.9864   22.4796 H   0  0  0  0  0  0
  -21.1083  -13.1235   22.2641 H   0  0  0  0  0  0
  -24.6522  -15.8451   20.5021 H   0  0  0  0  0  0
  -26.2652  -15.6271   20.0595 H   0  0  0  0  0  0
  -26.7204  -32.5390   23.1082 H   0  0  0  0  0  0
  -25.0144  -33.9695   25.0475 H   0  0  0  0  0  0
  -22.7279  -31.3001   21.3894 H   0  0  0  0  0  0
  -23.3636  -35.9743   23.3676 H   0  0  0  0  0  0
  -24.3465  -36.8493   22.2013 H   0  0  0  0  0  0
  -23.7421  -37.6663   23.6434 H   0  0  0  0  0  0
  -26.1116  -31.5323   20.6045 H   0  0  0  0  0  0
  -26.8512  -30.8213   22.0058 H   0  0  0  0  0  0
  -28.1350  -28.9472   21.1742 H   0  0  0  0  0  0
  -25.9782  -25.8682   19.0641 H   0  0  0  0  0  0
  -23.9594  -27.2639   19.0645 H   0  0  0  0  0  0
  -23.7742  -30.5750   19.4008 H   0  0  0  0  0  0
  -22.7631  -29.2371   19.8557 H   0  0  0  0  0  0
  -25.1349  -36.1991   25.0842 H   0  0  0  0  0  0
  -21.0011  -28.3287   24.1370 H   0  0  0  0  0  0
  -20.5671  -26.2312   23.3618 H   0  0  0  0  0  0
  -21.6639  -26.7417   22.1201 H   0  0  0  0  0  0
  -19.6899  -25.6284   21.1248 H   0  0  0  0  0  0
  -19.6675  -27.3187   20.6751 H   0  0  0  0  0  0
  -17.4192  -26.6693   21.4031 H   0  0  0  0  0  0
  -18.0318  -26.0059   22.9010 H   0  0  0  0  0  0
  -19.7957  -30.7295   24.2218 H   0  0  0  0  0  0
  -17.5032  -31.6276   24.5170 H   0  0  0  0  0  0
  -15.5373  -30.2986   23.7683 H   0  0  0  0  0  0
  -15.8669  -28.0818   22.7099 H   0  0  0  0  0  0
  -24.5908  -30.7053   25.7811 H   0  0  0  0  0  0
  -24.8870  -32.2920   26.4830 H   0  0  0  0  0  0
  -25.8032  -30.8991   27.0267 H   0  0  0  0  0  0
  -26.2967  -29.6748   24.1207 H   0  0  0  0  0  0
  -27.4000  -29.7270   25.4761 H   0  0  0  0  0  0
  -27.8840  -30.4289   23.9498 H   0  0  0  0  0  0
  -27.2652  -33.3653   26.2046 H   0  0  0  0  0  0
  -28.3850  -32.6906   25.0307 H   0  0  0  0  0  0
  -28.0713  -31.8486   26.5408 H   0  0  0  0  0  0
  -28.2883  -37.9811   24.7093 H   0  0  0  0  0  0
  -28.0638  -36.2368   24.7069 H   0  0  0  0  0  0
  -27.2147  -37.2394   25.8917 H   0  0  0  0  0  0
  -20.9392  -29.8750   21.6820 H   0  0  0  0  0  0
  -26.0259  -38.2870   24.0987 H   0  0  0  0  0  0
  -28.5464  -18.2997   18.6703 H   0  0  0  0  0  0
  -27.8109  -20.7574   18.6011 H   0  0  0  0  0  0
  -30.5667  -17.3183   21.9915 H   0  0  0  0  0  0
  -31.2990  -17.3659   20.4367 H   0  0  0  0  0  0
  -28.8085  -25.0767   21.6722 H   0  0  0  0  0  0
  -27.1266  -24.9943   21.2803 H   0  0  0  0  0  0
  -28.5284  -22.6968   21.8107 H   0  0  0  0  0  0
  -28.8445  -15.7037   20.8323 H   0  0  0  0  0  0
  1 25  1  0  0  0
  1 30  2  0  0  0
  1 79  1  0  0  0
  2  3  1  0  0  0
  2 25  1  0  0  0
  2 82  1  0  0  0
  2 83  1  0  0  0
  3  4  1  0  0  0
  3 84  1  0  0  0
  3 85  1  0  0  0
  4  5  1  0  0  0
  4 86  1  0  0  0
  4 87  1  0  0  0
  5  6  1  0  0  0
  5 26  1  0  0  0
  5 88  1  0  0  0
  6 25  1  0  0  0
  6 89  1  0  0  0
  6 90  1  0  0  0
  7  8  2  0  0  0
  7 26  1  0  0  0
  7 29  1  0  0  0
  8  9  1  0  0  0
  8 22  1  0  0  0
  9 10  1  0  0  0
  9 27  2  0  0  0
 10 11  2  0  0  0
 10 15  1  0  0  0
 11 12  1  0  0  0
 11 91  1  0  0  0
 12 13  2  0  0  0
 12 92  1  0  0  0
 13 14  1  0  0  0
 13 31  1  0  0  0
 14 15  2  0  0  0
 14 93  1  0  0  0
 15 94  1  0  0  0
 16 17  2  0  0  0
 16 21  1  0  0  0
 16 31  1  0  0  0
 17 18  1  0  0  0
 17 95  1  0  0  0
 18 19  2  0  0  0
 18 96  1  0  0  0
 19 20  1  0  0  0
 19 24  1  0  0  0
 20 21  2  0  0  0
 20 97  1  0  0  0
 21 23  1  0  0  0
 22 28  1  0  0  0
 22 32  2  0  0  0
 26 27  1  0  0  0
 28 98  1  0  0  0
 28 99  1  0  0  0
 29100  1  0  0  0
 29101  1  0  0  0
 33 34  1  0  0  0
 33 66  1  0  0  0
 33 70  2  0  0  0
 34 36  1  0  0  0
 34 59  1  0  0  0
 34102  1  0  0  0
 35 44  2  0  0  0
 35 45  1  0  0  0
 35 68  1  0  0  0
 36 56  1  0  0  0
 36103  1  0  0  0
 37 39  1  0  0  0
 37 47  1  0  0  0
 37 66  1  0  0  0
 37104  1  0  0  0
 38 43  2  0  0  0
 38 46  1  0  0  0
 38 47  1  0  0  0
 39 64  1  0  0  0
 39 67  2  0  0  0
 40 52  1  0  0  0
 40 53  2  0  0  0
 40 58  1  0  0  0
 41105  1  0  0  0
 41106  1  0  0  0
 41107  1  0  0  0
 41 48  1  0  0  0
 42 43  1  0  0  0
 42 66  1  0  0  0
 42108  1  0  0  0
 42109  1  0  0  0
 43 44  1  0  0  0
 44110  1  0  0  0
 45 46  2  0  0  0
 45111  1  0  0  0
 46112  1  0  0  0
 47113  1  0  0  0
 47114  1  0  0  0
 48 56  1  0  0  0
 48 65  1  0  0  0
 48115  1  0  0  0
 49 50  1  0  0  0
 49 53  1  0  0  0
 49 64  1  0  0  0
 49116  1  0  0  0
 50 51  1  0  0  0
 50117  1  0  0  0
 50118  1  0  0  0
 51 52  1  0  0  0
 51119  1  0  0  0
 51120  1  0  0  0
 52121  1  0  0  0
 52122  1  0  0  0
 53 54  1  0  0  0
 54 55  2  0  0  0
 54123  1  0  0  0
 55 57  1  0  0  0
 55124  1  0  0  0
 56 69  2  0  0  0
 57 58  2  0  0  0
 57125  1  0  0  0
 58126  1  0  0  0
 59 60  1  0  0  0
 59 61  1  0  0  0
 59 62  1  0  0  0
 60127  1  0  0  0
 60128  1  0  0  0
 60129  1  0  0  0
 61130  1  0  0  0
 61131  1  0  0  0
 61132  1  0  0  0
 62133  1  0  0  0
 62134  1  0  0  0
 62135  1  0  0  0
 63 65  1  0  0  0
 63136  1  0  0  0
 63137  1  0  0  0
 63138  1  0  0  0
 64139  1  0  0  0
 65140  1  0  0  0
 68 77  1  0  0  0
 71 72  1  0  0  0
 71 73  2  0  0  0
 71141  1  0  0  0
 72 74  2  0  0  0
 72142  1  0  0  0
 73 76  1  0  0  0
 73 81  1  0  0  0
 74 78  1  0  0  0
 74 81  1  0  0  0
 75 77  1  0  0  0
 75 78  1  0  0  0
 75 80  2  0  0  0
 76 79  1  0  0  0
 76143  1  0  0  0
 76144  1  0  0  0
 77145  1  0  0  0
 77146  1  0  0  0
 78147  1  0  0  0
 79148  1  0  0  0
M  ISO  4   1 100  68 101  77 101  79 100
M  END
> <chiral flag>
0

> <version>
0

> <s_m_source_file>
/data/baiqing/PycharmProjects/Reinvent-master-3.2/result/LINK_invent/BTK/process_docking_weight1_custom_product_contain_oxygen_bond_distance_aromatic_linkinvent_7_9_3/rearranged_h_0199.sdf

> <i_m_source_file_index>
51

> <r_mmod_Potential_Energy-OPLS-2005>
65.9956207275391

> <r_mmod_Stretch_Energy-OPLS-2005>
103.956047058105

> <r_mmod_Bend_Energy-OPLS-2005>
173.040939331055

> <r_mmod_Torsional_Energy-OPLS-2005>
238.459716796875

> <r_mmod_Improper_Torsional_Energy-OPLS-2005>
4.65559244155884

> <r_mmod_Van_der_Waal_Energy-OPLS-2005>
112.999862670898

> <r_mmod_Electrostatic_Energy-OPLS-2005>
-405.581939697266

> <r_mmod_Solvation_Energy-OPLS-2005>
-241.360015869141

> <b_mmod_Minimization_Converged-OPLS-2005>
0

> <r_mmod_RMS_Derivative-OPLS-2005>
2.90943837165833

$$$$
51
                    3D
 Structure written by MMmdl.
160168  0  0  1  0            999 V2000
  -30.7009  -14.5280   20.5000 C   0  0  0  0  0  0
  -30.4110  -12.3188   19.4436 C   0  0  0  0  0  0
  -29.4933  -12.4859   18.2155 C   0  0  0  0  0  0
  -28.0152  -12.3497   18.6267 C   0  0  0  0  0  0
  -27.6517  -13.2170   19.8625 C   0  0  2  0  0  0
  -28.6953  -13.0587   20.9916 C   0  0  0  0  0  0
  -25.2540  -13.8185   20.5684 C   0  0  0  0  0  0
  -24.1814  -13.0445   20.9189 C   0  0  0  0  0  0
  -24.6381  -11.6917   20.8744 C   0  0  0  0  0  0
  -23.9062  -10.4298   21.0406 C   0  0  0  0  0  0
  -24.3613   -9.4214   21.9185 C   0  0  0  0  0  0
  -23.6295   -8.2246   22.0751 C   0  0  0  0  0  0
  -22.4279   -8.0281   21.3544 C   0  0  0  0  0  0
  -21.9911   -9.0256   20.4645 C   0  0  0  0  0  0
  -22.7231  -10.2136   20.3058 C   0  0  0  0  0  0
  -21.6846   -6.0740   22.5284 C   0  0  0  0  0  0
  -21.4010   -6.5642   23.8219 C   0  0  0  0  0  0
  -21.3661   -5.6793   24.9177 C   0  0  0  0  0  0
  -21.6044   -4.3060   24.7227 C   0  0  0  0  0  0
  -21.8816   -3.8151   23.4350 C   0  0  0  0  0  0
  -21.9191   -4.6968   22.3404 C   0  0  0  0  0  0
  -22.7834  -13.5229   21.1860 C   0  0  0  0  0  0
  -22.1658   -4.2154   21.0984 F   0  0  0  0  0  0
  -21.5632   -3.4540   25.7741 F   0  0  0  0  0  0
  -30.0205  -13.3474   20.4247 N   0  0  0  0  0  0
  -26.2977  -12.9375   20.3329 N   0  0  0  0  0  0
  -25.9308  -11.6525   20.5764 N   0  0  0  0  0  0
  -22.0481  -12.8227   22.0417 N   0  0  0  0  0  0
  -25.4254  -15.1912   20.4105 N   0  0  0  0  0  0
  -31.8751  -14.5911   20.1287 O   0  0  0  0  0  0
  -21.6635   -6.8881   21.4248 O   0  0  0  0  0  0
  -22.3520  -14.5538   20.6706 O   0  0  0  0  0  0
  -24.6178  -31.8666   23.2073 C   0  0  0  0  0  0
  -25.9063  -32.4814   23.8378 C   0  0  1  0  0  0
  -27.2250  -27.3919   20.0931 C   0  0  0  0  0  0
  -25.5910  -33.8615   24.2313 N   0  0  0  0  0  0
  -23.4061  -30.4925   21.5494 C   0  0  2  0  0  0
  -24.8477  -28.9551   20.1142 C   0  0  0  0  0  0
  -22.7420  -29.4669   22.4971 C   0  0  0  0  0  0
  -18.0278  -28.1377   22.8493 C   0  0  0  0  0  0
  -24.1482  -36.7309   23.2640 C   0  0  0  0  0  0
  -25.9403  -30.8189   21.3652 C   0  0  0  0  0  0
  -26.0129  -29.4517   20.7092 C   0  0  0  0  0  0
  -27.2019  -28.6792   20.6928 C   0  0  0  0  0  0
  -26.0296  -26.9206   19.4999 C   0  0  0  0  0  0
  -24.8527  -27.6904   19.5074 C   0  0  0  0  0  0
  -23.6144  -29.8284   20.1635 C   0  0  0  0  0  0
  -25.4109  -36.3110   24.0334 C   0  0  1  0  0  0
  -20.5870  -28.3674   23.1300 C   0  0  2  0  0  0
  -20.6762  -26.9400   22.5419 C   0  0  0  0  0  0
  -19.5744  -26.6381   21.5211 C   0  0  0  0  0  0
  -18.1924  -26.7923   22.1626 C   0  0  0  0  0  0
  -19.1528  -28.8839   23.2898 C   0  0  0  0  0  0
  -18.9458  -30.1444   23.8911 C   0  0  0  0  0  0
  -17.6461  -30.6582   24.0564 C   0  0  0  0  0  0
  -25.9041  -34.9478   23.5125 C   0  0  0  0  0  0
  -16.5347  -29.9090   23.6326 C   0  0  0  0  0  0
  -16.7267  -28.6507   23.0352 C   0  0  0  0  0  0
  -26.4481  -31.6601   25.0722 C   0  0  0  0  0  0
  -25.3737  -31.3715   26.1469 C   0  0  0  0  0  0
  -27.0308  -30.3035   24.6117 C   0  0  0  0  0  0
  -27.6050  -32.4322   25.7488 C   0  0  0  0  0  0
  -27.5579  -37.1812   24.8469 C   0  0  0  0  0  0
  -21.4141  -29.3044   22.3706 N   0  0  0  0  0  0
  -26.4291  -37.3799   23.9411 N   0  0  0  0  0  0
  -24.6735  -31.0749   22.0983 N   0  0  0  0  0  0
  -23.4178  -28.8206   23.3014 O   0  0  0  0  0  0
  -28.4009  -26.6490   20.1124 O   0  0  0  0  0  0
  -26.5605  -34.8934   22.4684 O   0  0  0  0  0  0
  -23.5369  -32.1423   23.7458 O   0  0  0  0  0  0
  -31.5138  -17.5104   20.2153 C   0  0  0  0  0  0
  -31.7082  -18.8846   20.0320 C   0  0  0  0  0  0
  -30.2465  -17.0414   20.6268 C   0  0  0  0  0  0
  -29.5582  -19.2788   20.6395 C   0  0  0  0  0  0
  -33.0367  -19.4336   19.5576 C   0  0  0  0  0  0
  -27.8885  -21.7264   22.6290 C   0  0  0  0  0  0
  -28.3679  -22.6905   20.2622 C   0  0  0  0  0  0
  -28.4268  -25.2690   19.6511 C   0  0  0  0  0  0
  -28.7018  -21.5808   21.3298 C   0  0  1  0  0  0
  -28.1972  -24.1803   20.7528 C   0  0  1  0  0  0
  -30.7228  -19.7683   20.2541 N   0  0  0  0  0  0
  -29.2753  -17.9822   20.8271 N   0  0  0  0  0  0
  -29.9715  -15.6317   20.8258 N   0  0  0  0  0  0
  -28.5353  -20.1982   20.8255 N   0  0  0  0  0  0
  -26.8599  -24.3151   21.2111 O   0  0  0  0  0  0
  -31.4584  -12.3893   19.1434 H   0  0  0  0  0  0
  -30.2974  -11.3238   19.8765 H   0  0  0  0  0  0
  -29.7388  -11.7407   17.4571 H   0  0  0  0  0  0
  -29.6611  -13.4608   17.7547 H   0  0  0  0  0  0
  -27.8304  -11.2974   18.8461 H   0  0  0  0  0  0
  -27.3651  -12.6002   17.7877 H   0  0  0  0  0  0
  -27.6766  -14.2540   19.5284 H   0  0  0  0  0  0
  -28.6759  -12.0419   21.3872 H   0  0  0  0  0  0
  -28.4632  -13.7114   21.8346 H   0  0  0  0  0  0
  -25.2759   -9.5688   22.4754 H   0  0  0  0  0  0
  -24.0005   -7.4634   22.7466 H   0  0  0  0  0  0
  -21.0841   -8.8771   19.8947 H   0  0  0  0  0  0
  -22.3691  -10.9676   19.6166 H   0  0  0  0  0  0
  -21.1995   -7.6147   23.9723 H   0  0  0  0  0  0
  -21.1488   -6.0523   25.9082 H   0  0  0  0  0  0
  -22.0592   -2.7614   23.2847 H   0  0  0  0  0  0
  -22.4091  -11.9891   22.4816 H   0  0  0  0  0  0
  -21.1095  -13.1257   22.2619 H   0  0  0  0  0  0
  -24.6596  -15.8453   20.5271 H   0  0  0  0  0  0
  -26.2755  -15.6356   20.0880 H   0  0  0  0  0  0
  -26.7127  -32.5498   23.1130 H   0  0  0  0  0  0
  -25.0057  -33.9768   25.0457 H   0  0  0  0  0  0
  -22.6963  -31.3111   21.4121 H   0  0  0  0  0  0
  -23.3747  -35.9639   23.3312 H   0  0  0  0  0  0
  -24.3578  -36.8914   22.2055 H   0  0  0  0  0  0
  -23.7232  -37.6513   23.6648 H   0  0  0  0  0  0
  -26.0589  -31.5824   20.5951 H   0  0  0  0  0  0
  -26.8258  -30.8695   21.9873 H   0  0  0  0  0  0
  -28.1015  -29.0636   21.1520 H   0  0  0  0  0  0
  -25.9602  -25.9488   19.0380 H   0  0  0  0  0  0
  -23.9539  -27.2982   19.0502 H   0  0  0  0  0  0
  -23.7268  -30.6047   19.4054 H   0  0  0  0  0  0
  -22.7351  -29.2540   19.8655 H   0  0  0  0  0  0
  -25.1284  -36.1971   25.0827 H   0  0  0  0  0  0
  -20.9976  -28.3245   24.1412 H   0  0  0  0  0  0
  -20.5656  -26.2280   23.3613 H   0  0  0  0  0  0
  -21.6635  -26.7427   22.1217 H   0  0  0  0  0  0
  -19.6902  -25.6295   21.1237 H   0  0  0  0  0  0
  -19.6685  -27.3196   20.6745 H   0  0  0  0  0  0
  -17.4193  -26.6674   21.4030 H   0  0  0  0  0  0
  -18.0327  -26.0060   22.9019 H   0  0  0  0  0  0
  -19.7934  -30.7257   24.2285 H   0  0  0  0  0  0
  -17.5017  -31.6266   24.5161 H   0  0  0  0  0  0
  -15.5353  -30.3000   23.7636 H   0  0  0  0  0  0
  -15.8668  -28.0829   22.7059 H   0  0  0  0  0  0
  -24.5911  -30.7064   25.7808 H   0  0  0  0  0  0
  -24.8936  -32.2876   26.4918 H   0  0  0  0  0  0
  -25.8093  -30.8885   27.0223 H   0  0  0  0  0  0
  -26.2855  -29.6806   24.1160 H   0  0  0  0  0  0
  -27.4053  -29.7270   25.4583 H   0  0  0  0  0  0
  -27.8701  -30.4347   23.9283 H   0  0  0  0  0  0
  -27.2663  -33.3608   26.2091 H   0  0  0  0  0  0
  -28.3847  -32.6905   25.0310 H   0  0  0  0  0  0
  -28.0730  -31.8431   26.5383 H   0  0  0  0  0  0
  -28.2608  -38.0096   24.7508 H   0  0  0  0  0  0
  -28.1056  -36.2630   24.6298 H   0  0  0  0  0  0
  -27.2297  -37.1471   25.8872 H   0  0  0  0  0  0
  -20.9294  -29.8773   21.6937 H   0  0  0  0  0  0
  -26.0178  -38.2874   24.1409 H   0  0  0  0  0  0
  -32.3496  -16.8555   20.0223 H   0  0  0  0  0  0
  -33.1271  -19.3168   18.4777 H   0  0  0  0  0  0
  -33.8636  -18.8994   20.0271 H   0  0  0  0  0  0
  -33.1391  -20.4927   19.7966 H   0  0  0  0  0  0
  -28.1018  -22.6704   23.1325 H   0  0  0  0  0  0
  -28.1356  -20.9369   23.3408 H   0  0  0  0  0  0
  -26.8149  -21.6760   22.4431 H   0  0  0  0  0  0
  -27.4803  -22.4021   19.6968 H   0  0  0  0  0  0
  -29.1776  -22.6689   19.5315 H   0  0  0  0  0  0
  -27.8093  -25.0918   18.7729 H   0  0  0  0  0  0
  -29.4408  -25.1251   19.2754 H   0  0  0  0  0  0
  -29.7469  -21.7147   21.6131 H   0  0  0  0  0  0
  -28.8901  -24.3730   21.5730 H   0  0  0  0  0  0
  -29.0343  -15.4265   21.1296 H   0  0  0  0  0  0
  -27.6562  -19.7585   21.0671 H   0  0  0  0  0  0
  -26.7441  -23.7308   21.9514 H   0  0  0  0  0  0
  1 25  1  0  0  0
  1 30  2  0  0  0
  1 83  1  0  0  0
  2  3  1  0  0  0
  2 25  1  0  0  0
  2 86  1  0  0  0
  2 87  1  0  0  0
  3  4  1  0  0  0
  3 88  1  0  0  0
  3 89  1  0  0  0
  4  5  1  0  0  0
  4 90  1  0  0  0
  4 91  1  0  0  0
  5  6  1  0  0  0
  5 26  1  0  0  0
  5 92  1  0  0  0
  6 25  1  0  0  0
  6 93  1  0  0  0
  6 94  1  0  0  0
  7  8  2  0  0  0
  7 26  1  0  0  0
  7 29  1  0  0  0
  8  9  1  0  0  0
  8 22  1  0  0  0
  9 10  1  0  0  0
  9 27  2  0  0  0
 10 11  2  0  0  0
 10 15  1  0  0  0
 11 12  1  0  0  0
 11 95  1  0  0  0
 12 13  2  0  0  0
 12 96  1  0  0  0
 13 14  1  0  0  0
 13 31  1  0  0  0
 14 15  2  0  0  0
 14 97  1  0  0  0
 15 98  1  0  0  0
 16 17  2  0  0  0
 16 21  1  0  0  0
 16 31  1  0  0  0
 17 18  1  0  0  0
 17 99  1  0  0  0
 18 19  2  0  0  0
 18100  1  0  0  0
 19 20  1  0  0  0
 19 24  1  0  0  0
 20 21  2  0  0  0
 20101  1  0  0  0
 21 23  1  0  0  0
 22 28  1  0  0  0
 22 32  2  0  0  0
 26 27  1  0  0  0
 28102  1  0  0  0
 28103  1  0  0  0
 29104  1  0  0  0
 29105  1  0  0  0
 33 34  1  0  0  0
 33 66  1  0  0  0
 33 70  2  0  0  0
 34 36  1  0  0  0
 34 59  1  0  0  0
 34106  1  0  0  0
 35 44  2  0  0  0
 35 45  1  0  0  0
 35 68  1  0  0  0
 36 56  1  0  0  0
 36107  1  0  0  0
 37 39  1  0  0  0
 37 47  1  0  0  0
 37 66  1  0  0  0
 37108  1  0  0  0
 38 43  2  0  0  0
 38 46  1  0  0  0
 38 47  1  0  0  0
 39 64  1  0  0  0
 39 67  2  0  0  0
 40 52  1  0  0  0
 40 53  2  0  0  0
 40 58  1  0  0  0
 41109  1  0  0  0
 41110  1  0  0  0
 41111  1  0  0  0
 41 48  1  0  0  0
 42 43  1  0  0  0
 42 66  1  0  0  0
 42112  1  0  0  0
 42113  1  0  0  0
 43 44  1  0  0  0
 44114  1  0  0  0
 45 46  2  0  0  0
 45115  1  0  0  0
 46116  1  0  0  0
 47117  1  0  0  0
 47118  1  0  0  0
 48 56  1  0  0  0
 48 65  1  0  0  0
 48119  1  0  0  0
 49 50  1  0  0  0
 49 53  1  0  0  0
 49 64  1  0  0  0
 49120  1  0  0  0
 50 51  1  0  0  0
 50121  1  0  0  0
 50122  1  0  0  0
 51 52  1  0  0  0
 51123  1  0  0  0
 51124  1  0  0  0
 52125  1  0  0  0
 52126  1  0  0  0
 53 54  1  0  0  0
 54 55  2  0  0  0
 54127  1  0  0  0
 55 57  1  0  0  0
 55128  1  0  0  0
 56 69  2  0  0  0
 57 58  2  0  0  0
 57129  1  0  0  0
 58130  1  0  0  0
 59 60  1  0  0  0
 59 61  1  0  0  0
 59 62  1  0  0  0
 60131  1  0  0  0
 60132  1  0  0  0
 60133  1  0  0  0
 61134  1  0  0  0
 61135  1  0  0  0
 61136  1  0  0  0
 62137  1  0  0  0
 62138  1  0  0  0
 62139  1  0  0  0
 63 65  1  0  0  0
 63140  1  0  0  0
 63141  1  0  0  0
 63142  1  0  0  0
 64143  1  0  0  0
 65144  1  0  0  0
 68 78  1  0  0  0
 71 72  2  0  0  0
 71 73  1  0  0  0
 71145  1  0  0  0
 72 75  1  0  0  0
 72 81  1  0  0  0
 73 82  2  0  0  0
 73 83  1  0  0  0
 74 81  2  0  0  0
 74 82  1  0  0  0
 74 84  1  0  0  0
 75146  1  0  0  0
 75147  1  0  0  0
 75148  1  0  0  0
 76149  1  0  0  0
 76150  1  0  0  0
 76151  1  0  0  0
 76 79  1  0  0  0
 77 79  1  0  0  0
 77 80  1  0  0  0
 77152  1  0  0  0
 77153  1  0  0  0
 78 80  1  0  0  0
 78154  1  0  0  0
 78155  1  0  0  0
 79 84  1  0  0  0
 79156  1  0  0  0
 80 85  1  0  0  0
 80157  1  0  0  0
 83158  1  0  0  0
 84159  1  0  0  0
 85160  1  0  0  0
M  ISO  4   1 100  68 101  78 101  83 100
M  END
> <chiral flag>
0

> <version>
0

> <s_m_source_file>
/data/baiqing/PycharmProjects/Reinvent-master-3.2/result/LINK_invent/BTK/process_docking_weight1_custom_product_contain_oxygen_bond_distance_aromatic_linkinvent_7_9_3/rearranged_h_0199.sdf

> <i_m_source_file_index>
52

> <r_mmod_Potential_Energy-OPLS-2005>
-458.140563964844

> <r_mmod_Stretch_Energy-OPLS-2005>
51.119743347168

> <r_mmod_Bend_Energy-OPLS-2005>
131.14208984375

> <r_mmod_Torsional_Energy-OPLS-2005>
218.480880737305

> <r_mmod_Improper_Torsional_Energy-OPLS-2005>
6.35639953613281

> <r_mmod_Van_der_Waal_Energy-OPLS-2005>
165.939025878906

> <r_mmod_Electrostatic_Energy-OPLS-2005>
-811.039245605469

> <r_mmod_Solvation_Energy-OPLS-2005>
-243.994354248047

> <b_mmod_Minimization_Converged-OPLS-2005>
0

> <r_mmod_RMS_Derivative-OPLS-2005>
1.60118448734283

$$$$
52
                    3D
 Structure written by MMmdl.
155163  0  0  1  0            999 V2000
  -30.6535  -14.5716   20.5539 C   0  0  0  0  0  0
  -30.4372  -12.3647   19.4394 C   0  0  0  0  0  0
  -29.5045  -12.5081   18.2173 C   0  0  0  0  0  0
  -28.0278  -12.3481   18.6331 C   0  0  0  0  0  0
  -27.6571  -13.2106   19.8693 C   0  0  2  0  0  0
  -28.7009  -13.0336   20.9964 C   0  0  0  0  0  0
  -25.2573  -13.8150   20.5667 C   0  0  0  0  0  0
  -24.1824  -13.0432   20.9190 C   0  0  0  0  0  0
  -24.6389  -11.6905   20.8755 C   0  0  0  0  0  0
  -23.9050  -10.4292   21.0408 C   0  0  0  0  0  0
  -24.3609   -9.4204   21.9180 C   0  0  0  0  0  0
  -23.6302   -8.2231   22.0726 C   0  0  0  0  0  0
  -22.4274   -8.0278   21.3541 C   0  0  0  0  0  0
  -21.9903   -9.0245   20.4630 C   0  0  0  0  0  0
  -22.7223  -10.2136   20.3054 C   0  0  0  0  0  0
  -21.6842   -6.0742   22.5279 C   0  0  0  0  0  0
  -21.4012   -6.5640   23.8219 C   0  0  0  0  0  0
  -21.3671   -5.6792   24.9181 C   0  0  0  0  0  0
  -21.6039   -4.3053   24.7226 C   0  0  0  0  0  0
  -21.8827   -3.8152   23.4349 C   0  0  0  0  0  0
  -21.9188   -4.6969   22.3409 C   0  0  0  0  0  0
  -22.7847  -13.5225   21.1871 C   0  0  0  0  0  0
  -22.1653   -4.2157   21.0990 F   0  0  0  0  0  0
  -21.5628   -3.4543   25.7746 F   0  0  0  0  0  0
  -30.0220  -13.3668   20.4372 N   0  0  0  0  0  0
  -26.3001  -12.9318   20.3334 N   0  0  0  0  0  0
  -25.9316  -11.6478   20.5765 N   0  0  0  0  0  0
  -22.0481  -12.8209   22.0422 N   0  0  0  0  0  0
  -25.4299  -15.1866   20.4090 N   0  0  0  0  0  0
  -31.7989  -14.7616   20.1383 O   0  0  0  0  0  0
  -21.6632   -6.8891   21.4243 O   0  0  0  0  0  0
  -22.3530  -14.5533   20.6737 O   0  0  0  0  0  0
  -24.6200  -31.8626   23.2035 C   0  0  0  0  0  0
  -25.9062  -32.4790   23.8366 C   0  0  1  0  0  0
  -27.2425  -27.3808   20.1246 C   0  0  0  0  0  0
  -25.5898  -33.8595   24.2294 N   0  0  0  0  0  0
  -23.4122  -30.4815   21.5438 C   0  0  2  0  0  0
  -24.8615  -28.9311   20.1198 C   0  0  0  0  0  0
  -22.7449  -29.4627   22.4970 C   0  0  0  0  0  0
  -18.0282  -28.1382   22.8492 C   0  0  0  0  0  0
  -24.1485  -36.7305   23.2638 C   0  0  0  0  0  0
  -25.9440  -30.8132   21.3604 C   0  0  0  0  0  0
  -26.0229  -29.4404   20.7142 C   0  0  0  0  0  0
  -27.2183  -28.6776   20.7035 C   0  0  0  0  0  0
  -26.0610  -26.8897   19.5325 C   0  0  0  0  0  0
  -24.8781  -27.6577   19.5217 C   0  0  0  0  0  0
  -23.6250  -29.8044   20.1619 C   0  0  0  0  0  0
  -25.4108  -36.3097   24.0329 C   0  0  1  0  0  0
  -20.5871  -28.3667   23.1310 C   0  0  2  0  0  0
  -20.6767  -26.9401   22.5413 C   0  0  0  0  0  0
  -19.5744  -26.6385   21.5215 C   0  0  0  0  0  0
  -18.1926  -26.7928   22.1624 C   0  0  0  0  0  0
  -19.1532  -28.8846   23.2897 C   0  0  0  0  0  0
  -18.9452  -30.1456   23.8906 C   0  0  0  0  0  0
  -17.6452  -30.6584   24.0570 C   0  0  0  0  0  0
  -25.9038  -34.9466   23.5114 C   0  0  0  0  0  0
  -16.5346  -29.9088   23.6322 C   0  0  0  0  0  0
  -16.7271  -28.6504   23.0346 C   0  0  0  0  0  0
  -26.4481  -31.6586   25.0719 C   0  0  0  0  0  0
  -25.3730  -31.3703   26.1454 C   0  0  0  0  0  0
  -27.0305  -30.3024   24.6112 C   0  0  0  0  0  0
  -27.6050  -32.4313   25.7474 C   0  0  0  0  0  0
  -27.5576  -37.1809   24.8469 C   0  0  0  0  0  0
  -21.4167  -29.3030   22.3708 N   0  0  0  0  0  0
  -26.4291  -37.3785   23.9407 N   0  0  0  0  0  0
  -24.6774  -31.0694   22.0945 N   0  0  0  0  0  0
  -23.4196  -28.8191   23.3047 O   0  0  0  0  0  0
  -28.4073  -26.6276   20.0970 O   0  0  0  0  0  0
  -26.5613  -34.8923   22.4682 O   0  0  0  0  0  0
  -23.5376  -32.1395   23.7394 O   0  0  0  0  0  0
  -27.4027  -20.7412   22.0730 C   0  0  0  0  0  0
  -27.9207  -19.4663   21.7556 C   0  0  0  0  0  0
  -28.9718  -19.4239   20.8097 C   0  0  0  0  0  0
  -28.8418  -21.7439   20.6370 C   0  0  0  0  0  0
  -29.4915  -18.0578   20.2508 C   0  0  0  0  0  0
  -30.1927  -17.0399   21.2339 C   0  0  0  0  0  0
  -28.5184  -24.0999   19.6669 C   0  0  0  0  0  0
  -28.4004  -25.2910   20.6812 C   0  0  0  0  0  0
  -27.8481  -21.8702   21.4939 N   0  0  0  0  0  0
  -29.4358  -20.5952   20.2775 N   0  0  0  0  0  0
  -27.3621  -18.3168   22.3265 N   0  0  0  0  0  0
  -29.3255  -22.9244   20.0881 N   0  0  0  0  0  0
  -29.8811  -15.5904   21.0135 N   0  0  0  0  0  0
  -31.4784  -12.4923   19.1357 H   0  0  0  0  0  0
  -30.3669  -11.3621   19.8626 H   0  0  0  0  0  0
  -29.7652  -11.7674   17.4598 H   0  0  0  0  0  0
  -29.6539  -13.4839   17.7528 H   0  0  0  0  0  0
  -27.8631  -11.2932   18.8578 H   0  0  0  0  0  0
  -27.3694  -12.5838   17.7952 H   0  0  0  0  0  0
  -27.6856  -14.2514   19.5453 H   0  0  0  0  0  0
  -28.7006  -12.0066   21.3616 H   0  0  0  0  0  0
  -28.4473  -13.6511   21.8600 H   0  0  0  0  0  0
  -25.2751   -9.5690   22.4761 H   0  0  0  0  0  0
  -24.0022   -7.4614   22.7422 H   0  0  0  0  0  0
  -21.0837   -8.8756   19.8939 H   0  0  0  0  0  0
  -22.3654  -10.9681   19.6179 H   0  0  0  0  0  0
  -21.1993   -7.6144   23.9738 H   0  0  0  0  0  0
  -21.1481   -6.0511   25.9094 H   0  0  0  0  0  0
  -22.0595   -2.7611   23.2839 H   0  0  0  0  0  0
  -22.4096  -11.9874   22.4813 H   0  0  0  0  0  0
  -21.1100  -13.1247   22.2621 H   0  0  0  0  0  0
  -24.6637  -15.8422   20.5168 H   0  0  0  0  0  0
  -26.2749  -15.6218   20.0637 H   0  0  0  0  0  0
  -26.7145  -32.5496   23.1137 H   0  0  0  0  0  0
  -25.0064  -33.9751   25.0454 H   0  0  0  0  0  0
  -22.7039  -31.2994   21.3966 H   0  0  0  0  0  0
  -23.3742  -35.9646   23.3315 H   0  0  0  0  0  0
  -24.3581  -36.8905   22.2051 H   0  0  0  0  0  0
  -23.7243  -37.6513   23.6651 H   0  0  0  0  0  0
  -26.0584  -31.5734   20.5856 H   0  0  0  0  0  0
  -26.8311  -30.8741   21.9792 H   0  0  0  0  0  0
  -28.1177  -29.0724   21.1576 H   0  0  0  0  0  0
  -26.0561  -25.9109   19.0763 H   0  0  0  0  0  0
  -23.9866  -27.2576   19.0586 H   0  0  0  0  0  0
  -23.7387  -30.5737   19.3978 H   0  0  0  0  0  0
  -22.7505  -29.2227   19.8664 H   0  0  0  0  0  0
  -25.1290  -36.1956   25.0823 H   0  0  0  0  0  0
  -20.9963  -28.3240   24.1433 H   0  0  0  0  0  0
  -20.5667  -26.2292   23.3614 H   0  0  0  0  0  0
  -21.6643  -26.7444   22.1213 H   0  0  0  0  0  0
  -19.6904  -25.6303   21.1240 H   0  0  0  0  0  0
  -19.6677  -27.3207   20.6759 H   0  0  0  0  0  0
  -17.4198  -26.6685   21.4021 H   0  0  0  0  0  0
  -18.0316  -26.0069   22.9017 H   0  0  0  0  0  0
  -19.7929  -30.7271   24.2274 H   0  0  0  0  0  0
  -17.5007  -31.6261   24.5177 H   0  0  0  0  0  0
  -15.5349  -30.2992   23.7635 H   0  0  0  0  0  0
  -15.8673  -28.0828   22.7048 H   0  0  0  0  0  0
  -24.5914  -30.7037   25.7791 H   0  0  0  0  0  0
  -24.8912  -32.2862   26.4890 H   0  0  0  0  0  0
  -25.8068  -30.8886   27.0222 H   0  0  0  0  0  0
  -26.2853  -29.6789   24.1153 H   0  0  0  0  0  0
  -27.4058  -29.7256   25.4574 H   0  0  0  0  0  0
  -27.8702  -30.4341   23.9275 H   0  0  0  0  0  0
  -27.2671  -33.3609   26.2062 H   0  0  0  0  0  0
  -28.3845  -32.6866   25.0287 H   0  0  0  0  0  0
  -28.0736  -31.8431   26.5376 H   0  0  0  0  0  0
  -28.2612  -38.0088   24.7500 H   0  0  0  0  0  0
  -28.1045  -36.2621   24.6310 H   0  0  0  0  0  0
  -27.2296  -37.1478   25.8872 H   0  0  0  0  0  0
  -20.9346  -29.8751   21.6911 H   0  0  0  0  0  0
  -26.0174  -38.2861   24.1404 H   0  0  0  0  0  0
  -26.5932  -20.8509   22.7810 H   0  0  0  0  0  0
  -30.1666  -18.2535   19.4189 H   0  0  0  0  0  0
  -28.6310  -17.5697   19.7950 H   0  0  0  0  0  0
  -29.8692  -17.2584   22.2497 H   0  0  0  0  0  0
  -31.2725  -17.2090   21.2354 H   0  0  0  0  0  0
  -29.0041  -24.4809   18.7683 H   0  0  0  0  0  0
  -27.5270  -23.7745   19.3472 H   0  0  0  0  0  0
  -29.2676  -25.2663   21.3432 H   0  0  0  0  0  0
  -27.5343  -25.1509   21.3304 H   0  0  0  0  0  0
  -26.4795  -18.3870   22.8302 H   0  0  0  0  0  0
  -27.5169  -17.4075   21.9064 H   0  0  0  0  0  0
  -30.1546  -22.7758   19.5273 H   0  0  0  0  0  0
  -28.9560  -15.3005   21.2951 H   0  0  0  0  0  0
  1 25  1  0  0  0
  1 30  2  0  0  0
  1 83  1  0  0  0
  2  3  1  0  0  0
  2 25  1  0  0  0
  2 84  1  0  0  0
  2 85  1  0  0  0
  3  4  1  0  0  0
  3 86  1  0  0  0
  3 87  1  0  0  0
  4  5  1  0  0  0
  4 88  1  0  0  0
  4 89  1  0  0  0
  5  6  1  0  0  0
  5 26  1  0  0  0
  5 90  1  0  0  0
  6 25  1  0  0  0
  6 91  1  0  0  0
  6 92  1  0  0  0
  7  8  2  0  0  0
  7 26  1  0  0  0
  7 29  1  0  0  0
  8  9  1  0  0  0
  8 22  1  0  0  0
  9 10  1  0  0  0
  9 27  2  0  0  0
 10 11  2  0  0  0
 10 15  1  0  0  0
 11 12  1  0  0  0
 11 93  1  0  0  0
 12 13  2  0  0  0
 12 94  1  0  0  0
 13 14  1  0  0  0
 13 31  1  0  0  0
 14 15  2  0  0  0
 14 95  1  0  0  0
 15 96  1  0  0  0
 16 17  2  0  0  0
 16 21  1  0  0  0
 16 31  1  0  0  0
 17 18  1  0  0  0
 17 97  1  0  0  0
 18 19  2  0  0  0
 18 98  1  0  0  0
 19 20  1  0  0  0
 19 24  1  0  0  0
 20 21  2  0  0  0
 20 99  1  0  0  0
 21 23  1  0  0  0
 22 28  1  0  0  0
 22 32  2  0  0  0
 26 27  1  0  0  0
 28100  1  0  0  0
 28101  1  0  0  0
 29102  1  0  0  0
 29103  1  0  0  0
 33 34  1  0  0  0
 33 66  1  0  0  0
 33 70  2  0  0  0
 34 36  1  0  0  0
 34 59  1  0  0  0
 34104  1  0  0  0
 35 44  2  0  0  0
 35 45  1  0  0  0
 35 68  1  0  0  0
 36 56  1  0  0  0
 36105  1  0  0  0
 37 39  1  0  0  0
 37 47  1  0  0  0
 37 66  1  0  0  0
 37106  1  0  0  0
 38 43  2  0  0  0
 38 46  1  0  0  0
 38 47  1  0  0  0
 39 64  1  0  0  0
 39 67  2  0  0  0
 40 52  1  0  0  0
 40 53  2  0  0  0
 40 58  1  0  0  0
 41107  1  0  0  0
 41108  1  0  0  0
 41109  1  0  0  0
 41 48  1  0  0  0
 42 43  1  0  0  0
 42 66  1  0  0  0
 42110  1  0  0  0
 42111  1  0  0  0
 43 44  1  0  0  0
 44112  1  0  0  0
 45 46  2  0  0  0
 45113  1  0  0  0
 46114  1  0  0  0
 47115  1  0  0  0
 47116  1  0  0  0
 48 56  1  0  0  0
 48 65  1  0  0  0
 48117  1  0  0  0
 49 50  1  0  0  0
 49 53  1  0  0  0
 49 64  1  0  0  0
 49118  1  0  0  0
 50 51  1  0  0  0
 50119  1  0  0  0
 50120  1  0  0  0
 51 52  1  0  0  0
 51121  1  0  0  0
 51122  1  0  0  0
 52123  1  0  0  0
 52124  1  0  0  0
 53 54  1  0  0  0
 54 55  2  0  0  0
 54125  1  0  0  0
 55 57  1  0  0  0
 55126  1  0  0  0
 56 69  2  0  0  0
 57 58  2  0  0  0
 57127  1  0  0  0
 58128  1  0  0  0
 59 60  1  0  0  0
 59 61  1  0  0  0
 59 62  1  0  0  0
 60129  1  0  0  0
 60130  1  0  0  0
 60131  1  0  0  0
 61132  1  0  0  0
 61133  1  0  0  0
 61134  1  0  0  0
 62135  1  0  0  0
 62136  1  0  0  0
 62137  1  0  0  0
 63 65  1  0  0  0
 63138  1  0  0  0
 63139  1  0  0  0
 63140  1  0  0  0
 64141  1  0  0  0
 65142  1  0  0  0
 68 78  1  0  0  0
 71 72  2  0  0  0
 71 79  1  0  0  0
 71143  1  0  0  0
 72 73  1  0  0  0
 72 81  1  0  0  0
 73 75  1  0  0  0
 73 80  2  0  0  0
 74 79  2  0  0  0
 74 80  1  0  0  0
 74 82  1  0  0  0
 75 76  1  0  0  0
 75144  1  0  0  0
 75145  1  0  0  0
 76 83  1  0  0  0
 76146  1  0  0  0
 76147  1  0  0  0
 77 78  1  0  0  0
 77 82  1  0  0  0
 77148  1  0  0  0
 77149  1  0  0  0
 78150  1  0  0  0
 78151  1  0  0  0
 81152  1  0  0  0
 81153  1  0  0  0
 82154  1  0  0  0
 83155  1  0  0  0
M  ISO  4   1 100  68 101  78 101  83 100
M  END
> <chiral flag>
0

> <version>
0

> <s_m_source_file>
/data/baiqing/PycharmProjects/Reinvent-master-3.2/result/LINK_invent/BTK/process_docking_weight1_custom_product_contain_oxygen_bond_distance_aromatic_linkinvent_7_9_3/rearranged_h_0199.sdf

> <i_m_source_file_index>
53

> <r_mmod_Potential_Energy-OPLS-2005>
-480.181121826172

> <r_mmod_Stretch_Energy-OPLS-2005>
55.2369613647461

> <r_mmod_Bend_Energy-OPLS-2005>
128.552886962891

> <r_mmod_Torsional_Energy-OPLS-2005>
229.462509155273

> <r_mmod_Improper_Torsional_Energy-OPLS-2005>
8.5552978515625

> <r_mmod_Van_der_Waal_Energy-OPLS-2005>
146.695861816406

> <r_mmod_Electrostatic_Energy-OPLS-2005>
-817.351745605469

> <r_mmod_Solvation_Energy-OPLS-2005>
-257.277618408203

> <b_mmod_Minimization_Converged-OPLS-2005>
0

> <r_mmod_RMS_Derivative-OPLS-2005>
2.94584536552429

$$$$
53
                    3D
 Structure written by MMmdl.
166174  0  0  1  0            999 V2000
  -30.5701  -14.7856   20.4743 C   0  0  0  0  0  0
  -30.4422  -12.4803   19.4888 C   0  0  0  0  0  0
  -29.5217  -12.5331   18.2469 C   0  0  0  0  0  0
  -28.0447  -12.3527   18.6492 C   0  0  0  0  0  0
  -27.6477  -13.2358   19.8614 C   0  0  2  0  0  0
  -28.6864  -13.1509   21.0023 C   0  0  0  0  0  0
  -25.2522  -13.8205   20.5674 C   0  0  0  0  0  0
  -24.1800  -13.0465   20.9155 C   0  0  0  0  0  0
  -24.6384  -11.6933   20.8714 C   0  0  0  0  0  0
  -23.9051  -10.4317   21.0388 C   0  0  0  0  0  0
  -24.3592   -9.4245   21.9164 C   0  0  0  0  0  0
  -23.6277   -8.2272   22.0755 C   0  0  0  0  0  0
  -22.4259   -8.0286   21.3546 C   0  0  0  0  0  0
  -21.9878   -9.0257   20.4650 C   0  0  0  0  0  0
  -22.7213  -10.2143   20.3059 C   0  0  0  0  0  0
  -21.6864   -6.0715   22.5271 C   0  0  0  0  0  0
  -21.4026   -6.5613   23.8196 C   0  0  0  0  0  0
  -21.3668   -5.6767   24.9158 C   0  0  0  0  0  0
  -21.6057   -4.3038   24.7205 C   0  0  0  0  0  0
  -21.8826   -3.8124   23.4333 C   0  0  0  0  0  0
  -21.9193   -4.6948   22.3395 C   0  0  0  0  0  0
  -22.7822  -13.5270   21.1809 C   0  0  0  0  0  0
  -22.1670   -4.2134   21.0978 F   0  0  0  0  0  0
  -21.5629   -3.4523   25.7725 F   0  0  0  0  0  0
  -29.9912  -13.5289   20.4412 N   0  0  0  0  0  0
  -26.2957  -12.9423   20.3285 N   0  0  0  0  0  0
  -25.9316  -11.6556   20.5692 N   0  0  0  0  0  0
  -22.0473  -12.8287   22.0385 N   0  0  0  0  0  0
  -25.4223  -15.1928   20.4130 N   0  0  0  0  0  0
  -31.7145  -14.9286   20.0297 O   0  0  0  0  0  0
  -21.6648   -6.8867   21.4235 O   0  0  0  0  0  0
  -22.3534  -14.5581   20.6666 O   0  0  0  0  0  0
  -24.6380  -31.8506   23.1934 C   0  0  0  0  0  0
  -25.9183  -32.4730   23.8303 C   0  0  1  0  0  0
  -27.2158  -27.1992   20.1300 C   0  0  0  0  0  0
  -25.5953  -33.8531   24.2232 N   0  0  0  0  0  0
  -23.4373  -30.4728   21.5369 C   0  0  2  0  0  0
  -24.8833  -28.9115   20.1066 C   0  0  0  0  0  0
  -22.7527  -29.4594   22.4878 C   0  0  0  0  0  0
  -18.0297  -28.1391   22.8480 C   0  0  0  0  0  0
  -24.1486  -36.7265   23.2639 C   0  0  0  0  0  0
  -25.9888  -30.7441   21.3831 C   0  0  0  0  0  0
  -26.0574  -29.3620   20.7210 C   0  0  0  0  0  0
  -27.2211  -28.5174   20.7216 C   0  0  0  0  0  0
  -26.0113  -26.8308   19.4892 C   0  0  0  0  0  0
  -24.8691  -27.6571   19.4810 C   0  0  0  0  0  0
  -23.6583  -29.8067   20.1536 C   0  0  0  0  0  0
  -25.4111  -36.3052   24.0324 C   0  0  1  0  0  0
  -20.5905  -28.3716   23.1244 C   0  0  2  0  0  0
  -20.6787  -26.9428   22.5400 C   0  0  0  0  0  0
  -19.5759  -26.6384   21.5210 C   0  0  0  0  0  0
  -18.1940  -26.7933   22.1624 C   0  0  0  0  0  0
  -19.1551  -28.8871   23.2862 C   0  0  0  0  0  0
  -18.9478  -30.1468   23.8888 C   0  0  0  0  0  0
  -17.6476  -30.6596   24.0560 C   0  0  0  0  0  0
  -25.9061  -34.9425   23.5080 C   0  0  0  0  0  0
  -16.5363  -29.9089   23.6329 C   0  0  0  0  0  0
  -16.7287  -28.6501   23.0361 C   0  0  0  0  0  0
  -26.4513  -31.6583   25.0727 C   0  0  0  0  0  0
  -25.3715  -31.3785   26.1444 C   0  0  0  0  0  0
  -27.0371  -30.2979   24.6297 C   0  0  0  0  0  0
  -27.6053  -32.4339   25.7498 C   0  0  0  0  0  0
  -27.5579  -37.1779   24.8459 C   0  0  0  0  0  0
  -21.4228  -29.3052   22.3616 N   0  0  0  0  0  0
  -26.4282  -37.3761   23.9413 N   0  0  0  0  0  0
  -24.7075  -31.0417   22.0938 N   0  0  0  0  0  0
  -23.4195  -28.8140   23.3008 O   0  0  0  0  0  0
  -28.3098  -26.2864   20.2346 O   0  0  0  0  0  0
  -26.5630  -34.8911   22.4651 O   0  0  0  0  0  0
  -23.5510  -32.1368   23.7176 O   0  0  0  0  0  0
  -29.4570  -17.1755   20.4101 C   0  0  0  0  0  0
  -28.9210  -19.2927   20.2492 C   0  0  0  0  0  0
  -32.5609  -23.2325   22.2710 C   0  0  0  0  0  0
  -32.3417  -23.2039   19.7669 C   0  0  0  0  0  0
  -29.5072  -24.9392   18.6419 C   0  0  0  0  0  0
  -26.8967  -18.9263   18.7565 C   0  0  0  0  0  0
  -30.5771  -22.0470   21.2146 C   0  0  0  0  0  0
  -28.4431  -23.4783   20.5889 C   0  0  0  0  0  0
  -31.5694  -23.2245   21.0975 C   0  0  0  0  0  0
  -29.3422  -22.1100   20.2815 C   0  0  2  0  0  0
  -28.3741  -24.8619   19.6726 C   0  0  1  0  0  0
  -29.8435  -18.4658   20.8423 N   0  0  0  0  0  0
  -28.3867  -17.2066   19.6181 N   0  0  0  0  0  0
  -28.0613  -18.5355   19.5324 N   0  0  0  0  0  0
  -29.8359  -15.8544   20.9814 N   0  0  0  0  0  0
  -28.6690  -20.7361   20.3034 N   0  0  0  0  0  0
  -31.4840  -12.6133   19.1885 H   0  0  0  0  0  0
  -30.3940  -11.4975   19.9604 H   0  0  0  0  0  0
  -29.8118  -11.7681   17.5262 H   0  0  0  0  0  0
  -29.6458  -13.4915   17.7406 H   0  0  0  0  0  0
  -27.8914  -11.3009   18.8932 H   0  0  0  0  0  0
  -27.3952  -12.5680   17.7995 H   0  0  0  0  0  0
  -27.6474  -14.2629   19.4953 H   0  0  0  0  0  0
  -28.7265  -12.1425   21.4176 H   0  0  0  0  0  0
  -28.4030  -13.8029   21.8287 H   0  0  0  0  0  0
  -25.2741   -9.5726   22.4730 H   0  0  0  0  0  0
  -23.9990   -7.4679   22.7478 H   0  0  0  0  0  0
  -21.0799   -8.8778   19.8966 H   0  0  0  0  0  0
  -22.3656  -10.9668   19.6165 H   0  0  0  0  0  0
  -21.2029   -7.6123   23.9689 H   0  0  0  0  0  0
  -21.1484   -6.0499   25.9056 H   0  0  0  0  0  0
  -22.0593   -2.7585   23.2834 H   0  0  0  0  0  0
  -22.4070  -11.9978   22.4835 H   0  0  0  0  0  0
  -21.1108  -13.1361   22.2609 H   0  0  0  0  0  0
  -24.6462  -15.8380   20.5113 H   0  0  0  0  0  0
  -26.2648  -15.6379   20.0688 H   0  0  0  0  0  0
  -26.7257  -32.5357   23.1041 H   0  0  0  0  0  0
  -25.0091  -33.9647   25.0373 H   0  0  0  0  0  0
  -22.7389  -31.2982   21.3864 H   0  0  0  0  0  0
  -23.3755  -35.9595   23.3302 H   0  0  0  0  0  0
  -24.3585  -36.8885   22.2057 H   0  0  0  0  0  0
  -23.7236  -37.6461   23.6664 H   0  0  0  0  0  0
  -26.1405  -31.5079   20.6185 H   0  0  0  0  0  0
  -26.8603  -30.7871   22.0251 H   0  0  0  0  0  0
  -28.1165  -28.8519   21.2258 H   0  0  0  0  0  0
  -25.8908  -25.8723   19.0147 H   0  0  0  0  0  0
  -23.9664  -27.3022   19.0025 H   0  0  0  0  0  0
  -23.7881  -30.5828   19.3980 H   0  0  0  0  0  0
  -22.7744  -29.2441   19.8463 H   0  0  0  0  0  0
  -25.1293  -36.1888   25.0817 H   0  0  0  0  0  0
  -21.0009  -28.3313   24.1362 H   0  0  0  0  0  0
  -20.5690  -26.2331   23.3613 H   0  0  0  0  0  0
  -21.6656  -26.7452   22.1193 H   0  0  0  0  0  0
  -19.6917  -25.6293   21.1252 H   0  0  0  0  0  0
  -19.6687  -27.3184   20.6733 H   0  0  0  0  0  0
  -17.4204  -26.6685   21.4030 H   0  0  0  0  0  0
  -18.0341  -26.0083   22.9030 H   0  0  0  0  0  0
  -19.7957  -30.7285   24.2256 H   0  0  0  0  0  0
  -17.5034  -31.6275   24.5166 H   0  0  0  0  0  0
  -15.5366  -30.2992   23.7663 H   0  0  0  0  0  0
  -15.8685  -28.0818   22.7089 H   0  0  0  0  0  0
  -24.5850  -30.7180   25.7777 H   0  0  0  0  0  0
  -24.8957  -32.2983   26.4856 H   0  0  0  0  0  0
  -25.8004  -30.8955   27.0236 H   0  0  0  0  0  0
  -26.2994  -29.6707   24.1287 H   0  0  0  0  0  0
  -27.3965  -29.7271   25.4870 H   0  0  0  0  0  0
  -27.8904  -30.4207   23.9625 H   0  0  0  0  0  0
  -27.2648  -33.3634   26.2074 H   0  0  0  0  0  0
  -28.3860  -32.6923   25.0332 H   0  0  0  0  0  0
  -28.0743  -31.8488   26.5419 H   0  0  0  0  0  0
  -28.2580  -38.0094   24.7532 H   0  0  0  0  0  0
  -28.1090  -36.2624   24.6244 H   0  0  0  0  0  0
  -27.2306  -37.1387   25.8865 H   0  0  0  0  0  0
  -20.9416  -29.8781   21.6821 H   0  0  0  0  0  0
  -26.0155  -38.2829   24.1434 H   0  0  0  0  0  0
  -33.2162  -24.1038   22.2292 H   0  0  0  0  0  0
  -33.1910  -22.3425   22.2588 H   0  0  0  0  0  0
  -32.0480  -23.2621   23.2329 H   0  0  0  0  0  0
  -32.8699  -24.1460   19.6145 H   0  0  0  0  0  0
  -31.6870  -23.0640   18.9087 H   0  0  0  0  0  0
  -33.0759  -22.3983   19.7412 H   0  0  0  0  0  0
  -29.5581  -24.0392   18.0284 H   0  0  0  0  0  0
  -30.4752  -25.0922   19.1121 H   0  0  0  0  0  0
  -29.3480  -25.7749   17.9604 H   0  0  0  0  0  0
  -26.1133  -19.2910   19.4212 H   0  0  0  0  0  0
  -26.5117  -18.0766   18.1944 H   0  0  0  0  0  0
  -27.1673  -19.7092   18.0493 H   0  0  0  0  0  0
  -30.2229  -21.9769   22.2442 H   0  0  0  0  0  0
  -31.1299  -21.1226   21.0410 H   0  0  0  0  0  0
  -28.6898  -23.7958   21.6025 H   0  0  0  0  0  0
  -27.4101  -23.1480   20.6942 H   0  0  0  0  0  0
  -31.0060  -24.1554   21.1592 H   0  0  0  0  0  0
  -29.7065  -22.1839   19.2591 H   0  0  0  0  0  0
  -27.5060  -24.6897   19.0465 H   0  0  0  0  0  0
  -29.0841  -15.4880   21.5408 H   0  0  0  0  0  0
  -27.7354  -20.8664   19.9287 H   0  0  0  0  0  0
  1 25  1  0  0  0
  1 30  2  0  0  0
  1 85  1  0  0  0
  2  3  1  0  0  0
  2 25  1  0  0  0
  2 87  1  0  0  0
  2 88  1  0  0  0
  3  4  1  0  0  0
  3 89  1  0  0  0
  3 90  1  0  0  0
  4  5  1  0  0  0
  4 91  1  0  0  0
  4 92  1  0  0  0
  5  6  1  0  0  0
  5 26  1  0  0  0
  5 93  1  0  0  0
  6 25  1  0  0  0
  6 94  1  0  0  0
  6 95  1  0  0  0
  7  8  2  0  0  0
  7 26  1  0  0  0
  7 29  1  0  0  0
  8  9  1  0  0  0
  8 22  1  0  0  0
  9 10  1  0  0  0
  9 27  2  0  0  0
 10 11  2  0  0  0
 10 15  1  0  0  0
 11 12  1  0  0  0
 11 96  1  0  0  0
 12 13  2  0  0  0
 12 97  1  0  0  0
 13 14  1  0  0  0
 13 31  1  0  0  0
 14 15  2  0  0  0
 14 98  1  0  0  0
 15 99  1  0  0  0
 16 17  2  0  0  0
 16 21  1  0  0  0
 16 31  1  0  0  0
 17 18  1  0  0  0
 17100  1  0  0  0
 18 19  2  0  0  0
 18101  1  0  0  0
 19 20  1  0  0  0
 19 24  1  0  0  0
 20 21  2  0  0  0
 20102  1  0  0  0
 21 23  1  0  0  0
 22 28  1  0  0  0
 22 32  2  0  0  0
 26 27  1  0  0  0
 28103  1  0  0  0
 28104  1  0  0  0
 29105  1  0  0  0
 29106  1  0  0  0
 33 34  1  0  0  0
 33 66  1  0  0  0
 33 70  2  0  0  0
 34 36  1  0  0  0
 34 59  1  0  0  0
 34107  1  0  0  0
 35 44  2  0  0  0
 35 45  1  0  0  0
 35 68  1  0  0  0
 36 56  1  0  0  0
 36108  1  0  0  0
 37 39  1  0  0  0
 37 47  1  0  0  0
 37 66  1  0  0  0
 37109  1  0  0  0
 38 43  2  0  0  0
 38 46  1  0  0  0
 38 47  1  0  0  0
 39 64  1  0  0  0
 39 67  2  0  0  0
 40 52  1  0  0  0
 40 53  2  0  0  0
 40 58  1  0  0  0
 41110  1  0  0  0
 41111  1  0  0  0
 41112  1  0  0  0
 41 48  1  0  0  0
 42 43  1  0  0  0
 42 66  1  0  0  0
 42113  1  0  0  0
 42114  1  0  0  0
 43 44  1  0  0  0
 44115  1  0  0  0
 45 46  2  0  0  0
 45116  1  0  0  0
 46117  1  0  0  0
 47118  1  0  0  0
 47119  1  0  0  0
 48 56  1  0  0  0
 48 65  1  0  0  0
 48120  1  0  0  0
 49 50  1  0  0  0
 49 53  1  0  0  0
 49 64  1  0  0  0
 49121  1  0  0  0
 50 51  1  0  0  0
 50122  1  0  0  0
 50123  1  0  0  0
 51 52  1  0  0  0
 51124  1  0  0  0
 51125  1  0  0  0
 52126  1  0  0  0
 52127  1  0  0  0
 53 54  1  0  0  0
 54 55  2  0  0  0
 54128  1  0  0  0
 55 57  1  0  0  0
 55129  1  0  0  0
 56 69  2  0  0  0
 57 58  2  0  0  0
 57130  1  0  0  0
 58131  1  0  0  0
 59 60  1  0  0  0
 59 61  1  0  0  0
 59 62  1  0  0  0
 60132  1  0  0  0
 60133  1  0  0  0
 60134  1  0  0  0
 61135  1  0  0  0
 61136  1  0  0  0
 61137  1  0  0  0
 62138  1  0  0  0
 62139  1  0  0  0
 62140  1  0  0  0
 63 65  1  0  0  0
 63141  1  0  0  0
 63142  1  0  0  0
 63143  1  0  0  0
 64144  1  0  0  0
 65145  1  0  0  0
 68 81  1  0  0  0
 71 82  1  0  0  0
 71 83  2  0  0  0
 71 85  1  0  0  0
 72 82  2  0  0  0
 72 84  1  0  0  0
 72 86  1  0  0  0
 73146  1  0  0  0
 73147  1  0  0  0
 73148  1  0  0  0
 73 79  1  0  0  0
 74 79  1  0  0  0
 74149  1  0  0  0
 74150  1  0  0  0
 74151  1  0  0  0
 75152  1  0  0  0
 75153  1  0  0  0
 75154  1  0  0  0
 75 81  1  0  0  0
 76 84  1  0  0  0
 76155  1  0  0  0
 76156  1  0  0  0
 76157  1  0  0  0
 77 79  1  0  0  0
 77158  1  0  0  0
 77159  1  0  0  0
 77 80  1  0  0  0
 78 80  1  0  0  0
 78 81  1  0  0  0
 78160  1  0  0  0
 78161  1  0  0  0
 79162  1  0  0  0
 80 86  1  0  0  0
 80163  1  0  0  0
 81164  1  0  0  0
 83 84  1  0  0  0
 85165  1  0  0  0
 86166  1  0  0  0
M  ISO  4   1 100  68 101  81 101  85 100
M  END
> <chiral flag>
0

> <version>
0

> <s_m_source_file>
/data/baiqing/PycharmProjects/Reinvent-master-3.2/result/LINK_invent/BTK/process_docking_weight1_custom_product_contain_oxygen_bond_distance_aromatic_linkinvent_7_9_3/rearranged_h_0199.sdf

> <i_m_source_file_index>
54

> <r_mmod_Potential_Energy-OPLS-2005>
253.186645507812

> <r_mmod_Stretch_Energy-OPLS-2005>
162.53125

> <r_mmod_Bend_Energy-OPLS-2005>
243.066131591797

> <r_mmod_Torsional_Energy-OPLS-2005>
277.798797607422

> <r_mmod_Improper_Torsional_Energy-OPLS-2005>
10.5830249786377

> <r_mmod_Van_der_Waal_Energy-OPLS-2005>
109.475357055664

> <r_mmod_Electrostatic_Energy-OPLS-2005>
-435.467559814453

> <r_mmod_Solvation_Energy-OPLS-2005>
-227.444381713867

> <b_mmod_Minimization_Converged-OPLS-2005>
0

> <r_mmod_RMS_Derivative-OPLS-2005>
3.06932711601257

$$$$
54
                    3D
 Structure written by MMmdl.
153161  0  0  1  0            999 V2000
  -30.5583  -14.6726   20.4833 C   0  0  0  0  0  0
  -30.4323  -12.4141   19.4445 C   0  0  0  0  0  0
  -29.5150  -12.5585   18.2082 C   0  0  0  0  0  0
  -28.0256  -12.3958   18.5899 C   0  0  0  0  0  0
  -27.6452  -13.2241   19.8487 C   0  0  2  0  0  0
  -28.6833  -13.0423   20.9757 C   0  0  0  0  0  0
  -25.2489  -13.8166   20.5622 C   0  0  0  0  0  0
  -24.1784  -13.0428   20.9180 C   0  0  0  0  0  0
  -24.6374  -11.6903   20.8693 C   0  0  0  0  0  0
  -23.9059  -10.4298   21.0366 C   0  0  0  0  0  0
  -24.3627   -9.4222   21.9165 C   0  0  0  0  0  0
  -23.6320   -8.2244   22.0737 C   0  0  0  0  0  0
  -22.4307   -8.0258   21.3525 C   0  0  0  0  0  0
  -21.9919   -9.0228   20.4636 C   0  0  0  0  0  0
  -22.7218  -10.2111   20.3028 C   0  0  0  0  0  0
  -21.6861   -6.0750   22.5306 C   0  0  0  0  0  0
  -21.4003   -6.5645   23.8239 C   0  0  0  0  0  0
  -21.3651   -5.6787   24.9180 C   0  0  0  0  0  0
  -21.6056   -4.3054   24.7226 C   0  0  0  0  0  0
  -21.8810   -3.8151   23.4337 C   0  0  0  0  0  0
  -21.9177   -4.6977   22.3408 C   0  0  0  0  0  0
  -22.7810  -13.5240   21.1849 C   0  0  0  0  0  0
  -22.1662   -4.2166   21.0988 F   0  0  0  0  0  0
  -21.5621   -3.4533   25.7726 F   0  0  0  0  0  0
  -29.9949  -13.4217   20.4337 N   0  0  0  0  0  0
  -26.2914  -12.9366   20.3134 N   0  0  0  0  0  0
  -25.9291  -11.6521   20.5604 N   0  0  0  0  0  0
  -22.0425  -12.8238   22.0398 N   0  0  0  0  0  0
  -25.4120  -15.1895   20.4037 N   0  0  0  0  0  0
  -31.7253  -14.8478   20.1111 O   0  0  0  0  0  0
  -21.6646   -6.8877   21.4262 O   0  0  0  0  0  0
  -22.3501  -14.5549   20.6686 O   0  0  0  0  0  0
  -24.6267  -31.8625   23.1975 C   0  0  0  0  0  0
  -25.9117  -32.4774   23.8315 C   0  0  1  0  0  0
  -27.2225  -27.3179   20.1380 C   0  0  0  0  0  0
  -25.5946  -33.8574   24.2253 N   0  0  0  0  0  0
  -23.4176  -30.4846   21.5396 C   0  0  2  0  0  0
  -24.8652  -28.9259   20.1163 C   0  0  0  0  0  0
  -22.7472  -29.4680   22.4935 C   0  0  0  0  0  0
  -18.0305  -28.1376   22.8500 C   0  0  0  0  0  0
  -24.1497  -36.7305   23.2642 C   0  0  0  0  0  0
  -25.9553  -30.7930   21.3629 C   0  0  0  0  0  0
  -26.0318  -29.4163   20.7160 C   0  0  0  0  0  0
  -27.2181  -28.6246   20.7158 C   0  0  0  0  0  0
  -26.0361  -26.8679   19.5282 C   0  0  0  0  0  0
  -24.8679  -27.6550   19.5148 C   0  0  0  0  0  0
  -23.6333  -29.8079   20.1581 C   0  0  0  0  0  0
  -25.4118  -36.3081   24.0336 C   0  0  1  0  0  0
  -20.5895  -28.3705   23.1291 C   0  0  2  0  0  0
  -20.6790  -26.9428   22.5418 C   0  0  0  0  0  0
  -19.5768  -26.6371   21.5224 C   0  0  0  0  0  0
  -18.1945  -26.7921   22.1614 C   0  0  0  0  0  0
  -19.1540  -28.8847   23.2888 C   0  0  0  0  0  0
  -18.9457  -30.1456   23.8909 C   0  0  0  0  0  0
  -17.6448  -30.6579   24.0557 C   0  0  0  0  0  0
  -25.9056  -34.9461   23.5085 C   0  0  0  0  0  0
  -16.5356  -29.9078   23.6312 C   0  0  0  0  0  0
  -16.7275  -28.6482   23.0348 C   0  0  0  0  0  0
  -26.4468  -31.6592   25.0706 C   0  0  0  0  0  0
  -25.3681  -31.3731   26.1415 C   0  0  0  0  0  0
  -27.0304  -30.3032   24.6122 C   0  0  0  0  0  0
  -27.6001  -32.4342   25.7503 C   0  0  0  0  0  0
  -27.5587  -37.1827   24.8455 C   0  0  0  0  0  0
  -21.4182  -29.3067   22.3671 N   0  0  0  0  0  0
  -26.4276  -37.3794   23.9427 N   0  0  0  0  0  0
  -24.6850  -31.0647   22.0916 N   0  0  0  0  0  0
  -23.4200  -28.8254   23.3026 O   0  0  0  0  0  0
  -28.3409  -26.4805   20.1295 O   0  0  0  0  0  0
  -26.5586  -34.8937   22.4629 O   0  0  0  0  0  0
  -23.5444  -32.1430   23.7343 O   0  0  0  0  0  0
  -29.4042  -19.2536   21.4539 C   0  0  0  0  0  0
  -29.2048  -18.8491   19.1498 C   0  0  0  0  0  0
  -29.1547  -19.8313   20.1768 C   0  0  0  0  0  0
  -29.6949  -17.0918   20.5953 C   0  0  0  0  0  0
  -30.2605  -22.5950   21.3728 C   0  0  0  0  0  0
  -28.5407  -23.8146   19.9176 C   0  0  0  0  0  0
  -28.2270  -25.1429   20.7545 C   0  0  0  0  0  0
  -28.8798  -22.4456   20.7033 C   0  0  1  0  0  0
  -29.6450  -17.9190   21.6475 N   0  0  0  0  0  0
  -29.4571  -17.5236   19.3541 N   0  0  0  0  0  0
  -28.8575  -21.2133   19.8470 N   0  0  0  0  0  0
  -29.7125  -15.7004   20.8406 N   0  0  0  0  0  0
  -31.4791  -12.5452   19.1594 H   0  0  0  0  0  0
  -30.3586  -11.4079   19.8590 H   0  0  0  0  0  0
  -29.8019  -11.8369   17.4413 H   0  0  0  0  0  0
  -29.6635  -13.5438   17.7597 H   0  0  0  0  0  0
  -27.8304  -11.3360   18.7567 H   0  0  0  0  0  0
  -27.3962  -12.6834   17.7460 H   0  0  0  0  0  0
  -27.6669  -14.2685   19.5379 H   0  0  0  0  0  0
  -28.6930  -12.0025   21.3064 H   0  0  0  0  0  0
  -28.4221  -13.6365   21.8516 H   0  0  0  0  0  0
  -25.2765   -9.5741   22.4726 H   0  0  0  0  0  0
  -24.0045   -7.4651   22.7460 H   0  0  0  0  0  0
  -21.0837   -8.8710   19.8971 H   0  0  0  0  0  0
  -22.3636  -10.9638   19.6124 H   0  0  0  0  0  0
  -21.2011   -7.6153   23.9756 H   0  0  0  0  0  0
  -21.1484   -6.0507   25.9096 H   0  0  0  0  0  0
  -22.0597   -2.7616   23.2826 H   0  0  0  0  0  0
  -22.3996  -11.9948   22.4903 H   0  0  0  0  0  0
  -21.1016  -13.1260   22.2521 H   0  0  0  0  0  0
  -24.6155  -15.8145   20.4738 H   0  0  0  0  0  0
  -26.2184  -15.6281   19.9795 H   0  0  0  0  0  0
  -26.7182  -32.5439   23.1064 H   0  0  0  0  0  0
  -25.0127  -33.9676   25.0415 H   0  0  0  0  0  0
  -22.7099  -31.3029   21.3907 H   0  0  0  0  0  0
  -23.3769  -35.9624   23.3264 H   0  0  0  0  0  0
  -24.3602  -36.8971   22.2067 H   0  0  0  0  0  0
  -23.7228  -37.6501   23.6665 H   0  0  0  0  0  0
  -26.0683  -31.5482   20.5838 H   0  0  0  0  0  0
  -26.8451  -30.8564   21.9784 H   0  0  0  0  0  0
  -28.1162  -28.9993   21.1870 H   0  0  0  0  0  0
  -26.0074  -25.8895   19.0700 H   0  0  0  0  0  0
  -23.9720  -27.2643   19.0538 H   0  0  0  0  0  0
  -23.7474  -30.5735   19.3902 H   0  0  0  0  0  0
  -22.7543  -29.2332   19.8640 H   0  0  0  0  0  0
  -25.1300  -36.1924   25.0828 H   0  0  0  0  0  0
  -20.9980  -28.3278   24.1420 H   0  0  0  0  0  0
  -20.5728  -26.2320   23.3627 H   0  0  0  0  0  0
  -21.6660  -26.7503   22.1205 H   0  0  0  0  0  0
  -19.6939  -25.6275   21.1273 H   0  0  0  0  0  0
  -19.6694  -27.3154   20.6734 H   0  0  0  0  0  0
  -17.4248  -26.6701   21.3991 H   0  0  0  0  0  0
  -18.0327  -26.0047   22.8987 H   0  0  0  0  0  0
  -19.7924  -30.7263   24.2301 H   0  0  0  0  0  0
  -17.5008  -31.6273   24.5141 H   0  0  0  0  0  0
  -15.5352  -30.2980   23.7631 H   0  0  0  0  0  0
  -15.8681  -28.0801   22.7062 H   0  0  0  0  0  0
  -24.5815  -30.7135   25.7724 H   0  0  0  0  0  0
  -24.8900  -32.2907   26.4876 H   0  0  0  0  0  0
  -25.7993  -30.8858   27.0167 H   0  0  0  0  0  0
  -26.2861  -29.6825   24.1114 H   0  0  0  0  0  0
  -27.4001  -29.7257   25.4609 H   0  0  0  0  0  0
  -27.8726  -30.4364   23.9319 H   0  0  0  0  0  0
  -27.2552  -33.3620   26.2077 H   0  0  0  0  0  0
  -28.3809  -32.6968   25.0351 H   0  0  0  0  0  0
  -28.0642  -31.8472   26.5436 H   0  0  0  0  0  0
  -28.2577  -38.0153   24.7557 H   0  0  0  0  0  0
  -28.1107  -36.2705   24.6188 H   0  0  0  0  0  0
  -27.2321  -37.1374   25.8852 H   0  0  0  0  0  0
  -20.9356  -29.8759   21.6849 H   0  0  0  0  0  0
  -26.0166  -38.2878   24.1395 H   0  0  0  0  0  0
  -29.3727  -19.8588   22.3505 H   0  0  0  0  0  0
  -29.0252  -19.1319   18.1193 H   0  0  0  0  0  0
  -30.2094  -23.2680   22.2291 H   0  0  0  0  0  0
  -31.0047  -22.9976   20.6819 H   0  0  0  0  0  0
  -30.6606  -21.6546   21.7485 H   0  0  0  0  0  0
  -29.3788  -24.0308   19.2521 H   0  0  0  0  0  0
  -27.6898  -23.6522   19.2554 H   0  0  0  0  0  0
  -28.9295  -25.1814   21.5866 H   0  0  0  0  0  0
  -27.2456  -25.0264   21.2232 H   0  0  0  0  0  0
  -28.1194  -22.3074   21.4774 H   0  0  0  0  0  0
  -28.5105  -21.3699   18.9019 H   0  0  0  0  0  0
  -28.8378  -15.3673   21.2067 H   0  0  0  0  0  0
  1 25  1  0  0  0
  1 30  2  0  0  0
  1 82  1  0  0  0
  2  3  1  0  0  0
  2 25  1  0  0  0
  2 83  1  0  0  0
  2 84  1  0  0  0
  3  4  1  0  0  0
  3 85  1  0  0  0
  3 86  1  0  0  0
  4  5  1  0  0  0
  4 87  1  0  0  0
  4 88  1  0  0  0
  5  6  1  0  0  0
  5 26  1  0  0  0
  5 89  1  0  0  0
  6 25  1  0  0  0
  6 90  1  0  0  0
  6 91  1  0  0  0
  7  8  2  0  0  0
  7 26  1  0  0  0
  7 29  1  0  0  0
  8  9  1  0  0  0
  8 22  1  0  0  0
  9 10  1  0  0  0
  9 27  2  0  0  0
 10 11  2  0  0  0
 10 15  1  0  0  0
 11 12  1  0  0  0
 11 92  1  0  0  0
 12 13  2  0  0  0
 12 93  1  0  0  0
 13 14  1  0  0  0
 13 31  1  0  0  0
 14 15  2  0  0  0
 14 94  1  0  0  0
 15 95  1  0  0  0
 16 17  2  0  0  0
 16 21  1  0  0  0
 16 31  1  0  0  0
 17 18  1  0  0  0
 17 96  1  0  0  0
 18 19  2  0  0  0
 18 97  1  0  0  0
 19 20  1  0  0  0
 19 24  1  0  0  0
 20 21  2  0  0  0
 20 98  1  0  0  0
 21 23  1  0  0  0
 22 28  1  0  0  0
 22 32  2  0  0  0
 26 27  1  0  0  0
 28 99  1  0  0  0
 28100  1  0  0  0
 29101  1  0  0  0
 29102  1  0  0  0
 33 34  1  0  0  0
 33 66  1  0  0  0
 33 70  2  0  0  0
 34 36  1  0  0  0
 34 59  1  0  0  0
 34103  1  0  0  0
 35 44  2  0  0  0
 35 45  1  0  0  0
 35 68  1  0  0  0
 36 56  1  0  0  0
 36104  1  0  0  0
 37 39  1  0  0  0
 37 47  1  0  0  0
 37 66  1  0  0  0
 37105  1  0  0  0
 38 43  2  0  0  0
 38 46  1  0  0  0
 38 47  1  0  0  0
 39 64  1  0  0  0
 39 67  2  0  0  0
 40 52  1  0  0  0
 40 53  2  0  0  0
 40 58  1  0  0  0
 41106  1  0  0  0
 41107  1  0  0  0
 41108  1  0  0  0
 41 48  1  0  0  0
 42 43  1  0  0  0
 42 66  1  0  0  0
 42109  1  0  0  0
 42110  1  0  0  0
 43 44  1  0  0  0
 44111  1  0  0  0
 45 46  2  0  0  0
 45112  1  0  0  0
 46113  1  0  0  0
 47114  1  0  0  0
 47115  1  0  0  0
 48 56  1  0  0  0
 48 65  1  0  0  0
 48116  1  0  0  0
 49 50  1  0  0  0
 49 53  1  0  0  0
 49 64  1  0  0  0
 49117  1  0  0  0
 50 51  1  0  0  0
 50118  1  0  0  0
 50119  1  0  0  0
 51 52  1  0  0  0
 51120  1  0  0  0
 51121  1  0  0  0
 52122  1  0  0  0
 52123  1  0  0  0
 53 54  1  0  0  0
 54 55  2  0  0  0
 54124  1  0  0  0
 55 57  1  0  0  0
 55125  1  0  0  0
 56 69  2  0  0  0
 57 58  2  0  0  0
 57126  1  0  0  0
 58127  1  0  0  0
 59 60  1  0  0  0
 59 61  1  0  0  0
 59 62  1  0  0  0
 60128  1  0  0  0
 60129  1  0  0  0
 60130  1  0  0  0
 61131  1  0  0  0
 61132  1  0  0  0
 61133  1  0  0  0
 62134  1  0  0  0
 62135  1  0  0  0
 62136  1  0  0  0
 63 65  1  0  0  0
 63137  1  0  0  0
 63138  1  0  0  0
 63139  1  0  0  0
 64140  1  0  0  0
 65141  1  0  0  0
 68 77  1  0  0  0
 71 73  2  0  0  0
 71 79  1  0  0  0
 71142  1  0  0  0
 72 73  1  0  0  0
 72 80  2  0  0  0
 72143  1  0  0  0
 73 81  1  0  0  0
 74 79  2  0  0  0
 74 80  1  0  0  0
 74 82  1  0  0  0
 75144  1  0  0  0
 75145  1  0  0  0
 75146  1  0  0  0
 75 78  1  0  0  0
 76 77  1  0  0  0
 76 78  1  0  0  0
 76147  1  0  0  0
 76148  1  0  0  0
 77149  1  0  0  0
 77150  1  0  0  0
 78 81  1  0  0  0
 78151  1  0  0  0
 81152  1  0  0  0
 82153  1  0  0  0
M  ISO  4   1 100  68 101  77 101  82 100
M  END
> <chiral flag>
0

> <version>
0

> <s_m_source_file>
/data/baiqing/PycharmProjects/Reinvent-master-3.2/result/LINK_invent/BTK/process_docking_weight1_custom_product_contain_oxygen_bond_distance_aromatic_linkinvent_7_9_3/rearranged_h_0199.sdf

> <i_m_source_file_index>
55

> <r_mmod_Potential_Energy-OPLS-2005>
-246.702850341797

> <r_mmod_Stretch_Energy-OPLS-2005>
83.7594909667969

> <r_mmod_Bend_Energy-OPLS-2005>
165.55029296875

> <r_mmod_Torsional_Energy-OPLS-2005>
249.455184936523

> <r_mmod_Improper_Torsional_Energy-OPLS-2005>
6.30785369873047

> <r_mmod_Van_der_Waal_Energy-OPLS-2005>
141.045333862305

> <r_mmod_Electrostatic_Energy-OPLS-2005>
-709.77734375

> <r_mmod_Solvation_Energy-OPLS-2005>
-237.326232910156

> <b_mmod_Minimization_Converged-OPLS-2005>
0

> <r_mmod_RMS_Derivative-OPLS-2005>
5.40313148498535

$$$$
55
                    3D
 Structure written by MMmdl.
153161  0  0  1  0            999 V2000
  -30.5690  -14.8058   20.4973 C   0  0  0  0  0  0
  -30.4353  -12.4906   19.5042 C   0  0  0  0  0  0
  -29.5177  -12.4838   18.2592 C   0  0  0  0  0  0
  -28.0432  -12.2948   18.6660 C   0  0  0  0  0  0
  -27.6211  -13.2273   19.8273 C   0  0  2  0  0  0
  -28.6505  -13.2262   20.9741 C   0  0  0  0  0  0
  -25.2354  -13.8172   20.5637 C   0  0  0  0  0  0
  -24.1709  -13.0439   20.9221 C   0  0  0  0  0  0
  -24.6298  -11.6907   20.8736 C   0  0  0  0  0  0
  -23.8999  -10.4316   21.0407 C   0  0  0  0  0  0
  -24.3552   -9.4231   21.9167 C   0  0  0  0  0  0
  -23.6282   -8.2250   22.0725 C   0  0  0  0  0  0
  -22.4283   -8.0253   21.3526 C   0  0  0  0  0  0
  -21.9899   -9.0209   20.4640 C   0  0  0  0  0  0
  -22.7168  -10.2099   20.3079 C   0  0  0  0  0  0
  -21.6842   -6.0736   22.5282 C   0  0  0  0  0  0
  -21.3986   -6.5625   23.8215 C   0  0  0  0  0  0
  -21.3677   -5.6786   24.9178 C   0  0  0  0  0  0
  -21.6037   -4.3065   24.7242 C   0  0  0  0  0  0
  -21.8795   -3.8139   23.4381 C   0  0  0  0  0  0
  -21.9178   -4.6955   22.3415 C   0  0  0  0  0  0
  -22.7743  -13.5178   21.1958 C   0  0  0  0  0  0
  -22.1641   -4.2116   21.1012 F   0  0  0  0  0  0
  -21.5646   -3.4562   25.7779 F   0  0  0  0  0  0
  -29.9569  -13.5740   20.3984 N   0  0  0  0  0  0
  -26.2770  -12.9355   20.3149 N   0  0  0  0  0  0
  -25.9199  -11.6516   20.5665 N   0  0  0  0  0  0
  -22.0532  -12.8112   22.0537 N   0  0  0  0  0  0
  -25.4025  -15.1931   20.4001 N   0  0  0  0  0  0
  -31.7874  -14.8847   20.2765 O   0  0  0  0  0  0
  -21.6620   -6.8865   21.4266 O   0  0  0  0  0  0
  -22.3416  -14.5527   20.6876 O   0  0  0  0  0  0
  -24.6290  -31.8592   23.1907 C   0  0  0  0  0  0
  -25.9101  -32.4777   23.8268 C   0  0  1  0  0  0
  -27.2207  -27.2661   20.1264 C   0  0  0  0  0  0
  -25.5921  -33.8577   24.2234 N   0  0  0  0  0  0
  -23.4231  -30.4734   21.5369 C   0  0  2  0  0  0
  -24.8785  -28.9123   20.1112 C   0  0  0  0  0  0
  -22.7448  -29.4636   22.4955 C   0  0  0  0  0  0
  -18.0301  -28.1476   22.8378 C   0  0  0  0  0  0
  -24.1487  -36.7321   23.2613 C   0  0  0  0  0  0
  -25.9577  -30.7765   21.3550 C   0  0  0  0  0  0
  -26.0452  -29.3934   20.7168 C   0  0  0  0  0  0
  -27.2155  -28.5730   20.7190 C   0  0  0  0  0  0
  -26.0325  -26.8456   19.5004 C   0  0  0  0  0  0
  -24.8712  -27.6468   19.5000 C   0  0  0  0  0  0
  -23.6436  -29.7950   20.1579 C   0  0  0  0  0  0
  -25.4110  -36.3084   24.0296 C   0  0  1  0  0  0
  -20.5868  -28.3787   23.1293 C   0  0  2  0  0  0
  -20.6831  -26.9542   22.5377 C   0  0  0  0  0  0
  -19.5854  -26.6439   21.5204 C   0  0  0  0  0  0
  -18.2010  -26.7967   22.1584 C   0  0  0  0  0  0
  -19.1538  -28.8926   23.2855 C   0  0  0  0  0  0
  -18.9424  -30.1522   23.8900 C   0  0  0  0  0  0
  -17.6412  -30.6552   24.0611 C   0  0  0  0  0  0
  -25.9057  -34.9437   23.5086 C   0  0  0  0  0  0
  -16.5322  -29.9096   23.6335 C   0  0  0  0  0  0
  -16.7271  -28.6567   23.0280 C   0  0  0  0  0  0
  -26.4489  -31.6631   25.0690 C   0  0  0  0  0  0
  -25.3739  -31.3792   26.1432 C   0  0  0  0  0  0
  -27.0290  -30.3070   24.6106 C   0  0  0  0  0  0
  -27.6105  -32.4300   25.7506 C   0  0  0  0  0  0
  -27.5563  -37.1805   24.8448 C   0  0  0  0  0  0
  -21.4152  -29.3160   22.3700 N   0  0  0  0  0  0
  -26.4278  -37.3809   23.9396 N   0  0  0  0  0  0
  -24.6918  -31.0456   22.0924 N   0  0  0  0  0  0
  -23.4170  -28.8073   23.2992 O   0  0  0  0  0  0
  -28.3397  -26.4161   20.2071 O   0  0  0  0  0  0
  -26.5615  -34.8921   22.4632 O   0  0  0  0  0  0
  -23.5450  -32.1320   23.7223 O   0  0  0  0  0  0
  -29.1499  -18.4379   20.2832 C   0  0  0  0  0  0
  -29.9286  -17.3687   20.8820 C   0  0  0  0  0  0
  -29.3264  -19.8173   20.6813 C   0  0  0  0  0  0
  -30.7625  -19.0222   22.2748 C   0  0  0  0  0  0
  -29.1152  -22.3681   19.9981 C   0  0  0  0  0  0
  -28.4401  -25.0660   19.5737 C   0  0  0  0  0  0
  -28.1501  -23.6388   20.2998 C   0  0  1  0  0  0
  -30.7319  -17.7437   21.9074 N   0  0  0  0  0  0
  -30.1580  -20.0677   21.7118 N   0  0  0  0  0  0
  -31.4271  -19.2769   23.4397 N   0  0  0  0  0  0
  -29.7387  -15.9335   20.5281 N   0  0  0  0  0  0
  -28.5852  -20.9524   20.1600 N   0  0  0  0  0  0
  -26.8898  -23.1547   19.8798 O   0  0  0  0  0  0
  -31.4748  -12.6421   19.2094 H   0  0  0  0  0  0
  -30.4053  -11.5370   20.0388 H   0  0  0  0  0  0
  -29.8016  -11.6941   17.5622 H   0  0  0  0  0  0
  -29.6299  -13.4241   17.7207 H   0  0  0  0  0  0
  -27.9230  -11.2559   18.9797 H   0  0  0  0  0  0
  -27.3829  -12.4232   17.8030 H   0  0  0  0  0  0
  -27.5905  -14.2268   19.3891 H   0  0  0  0  0  0
  -28.7065  -12.2637   21.4783 H   0  0  0  0  0  0
  -28.3358  -13.9456   21.7334 H   0  0  0  0  0  0
  -25.2695   -9.5704   22.4713 H   0  0  0  0  0  0
  -23.9988   -7.4651   22.7423 H   0  0  0  0  0  0
  -21.0832   -8.8713   19.8973 H   0  0  0  0  0  0
  -22.3601  -10.9625   19.6212 H   0  0  0  0  0  0
  -21.1942   -7.6130   23.9684 H   0  0  0  0  0  0
  -21.1545   -6.0550   25.9069 H   0  0  0  0  0  0
  -22.0564   -2.7607   23.2892 H   0  0  0  0  0  0
  -22.4117  -11.9657   22.4738 H   0  0  0  0  0  0
  -21.1239  -13.1157   22.2966 H   0  0  0  0  0  0
  -24.6108  -15.8278   20.4535 H   0  0  0  0  0  0
  -26.2222  -15.6280   19.9968 H   0  0  0  0  0  0
  -26.7208  -32.5454   23.1045 H   0  0  0  0  0  0
  -25.0084  -33.9775   25.0388 H   0  0  0  0  0  0
  -22.7261  -31.2977   21.3737 H   0  0  0  0  0  0
  -23.3743  -35.9668   23.3281 H   0  0  0  0  0  0
  -24.3569  -36.8960   22.2032 H   0  0  0  0  0  0
  -23.7256  -37.6528   23.6652 H   0  0  0  0  0  0
  -26.0520  -31.5020   20.5550 H   0  0  0  0  0  0
  -26.8602  -30.8766   21.9426 H   0  0  0  0  0  0
  -28.1001  -28.9213   21.2273 H   0  0  0  0  0  0
  -25.9633  -25.8692   19.0476 H   0  0  0  0  0  0
  -23.9630  -27.2697   19.0461 H   0  0  0  0  0  0
  -23.7605  -30.5644   19.3965 H   0  0  0  0  0  0
  -22.7652  -29.2244   19.8611 H   0  0  0  0  0  0
  -25.1280  -36.1943   25.0799 H   0  0  0  0  0  0
  -20.9956  -28.3433   24.1371 H   0  0  0  0  0  0
  -20.5745  -26.2327   23.3518 H   0  0  0  0  0  0
  -21.6700  -26.7568   22.1214 H   0  0  0  0  0  0
  -19.7082  -25.6345   21.1261 H   0  0  0  0  0  0
  -19.6851  -27.3216   20.6703 H   0  0  0  0  0  0
  -17.4300  -26.6694   21.3915 H   0  0  0  0  0  0
  -18.0439  -26.0180   22.9046 H   0  0  0  0  0  0
  -19.7832  -30.7417   24.2342 H   0  0  0  0  0  0
  -17.4964  -31.6238   24.5125 H   0  0  0  0  0  0
  -15.5338  -30.3019   23.7660 H   0  0  0  0  0  0
  -15.8727  -28.0902   22.6897 H   0  0  0  0  0  0
  -24.5930  -30.7120   25.7766 H   0  0  0  0  0  0
  -24.8863  -32.2958   26.4788 H   0  0  0  0  0  0
  -25.8003  -30.9033   27.0268 H   0  0  0  0  0  0
  -26.2812  -29.6925   24.1049 H   0  0  0  0  0  0
  -27.3957  -29.7252   25.4575 H   0  0  0  0  0  0
  -27.8724  -30.4431   23.9317 H   0  0  0  0  0  0
  -27.2798  -33.3607   26.2137 H   0  0  0  0  0  0
  -28.3925  -32.6823   25.0334 H   0  0  0  0  0  0
  -28.0788  -31.8368   26.5386 H   0  0  0  0  0  0
  -28.2570  -38.0113   24.7463 H   0  0  0  0  0  0
  -28.1055  -36.2610   24.6286 H   0  0  0  0  0  0
  -27.2278  -37.1513   25.8863 H   0  0  0  0  0  0
  -20.9319  -29.8882   21.6901 H   0  0  0  0  0  0
  -26.0136  -38.2883   24.1435 H   0  0  0  0  0  0
  -28.4015  -18.1809   19.5462 H   0  0  0  0  0  0
  -29.4161  -22.4596   18.9530 H   0  0  0  0  0  0
  -30.0402  -22.4697   20.5666 H   0  0  0  0  0  0
  -27.9871  -25.0835   18.5824 H   0  0  0  0  0  0
  -29.5059  -25.0123   19.3499 H   0  0  0  0  0  0
  -28.1073  -23.7808   21.3810 H   0  0  0  0  0  0
  -31.4629  -18.5074   24.1000 H   0  0  0  0  0  0
  -31.1699  -20.1506   23.8842 H   0  0  0  0  0  0
  -28.7783  -15.7060   20.3296 H   0  0  0  0  0  0
  -28.0127  -20.6743   19.3673 H   0  0  0  0  0  0
  -26.9275  -22.2252   20.0847 H   0  0  0  0  0  0
  1 25  1  0  0  0
  1 30  2  0  0  0
  1 81  1  0  0  0
  2  3  1  0  0  0
  2 25  1  0  0  0
  2 84  1  0  0  0
  2 85  1  0  0  0
  3  4  1  0  0  0
  3 86  1  0  0  0
  3 87  1  0  0  0
  4  5  1  0  0  0
  4 88  1  0  0  0
  4 89  1  0  0  0
  5  6  1  0  0  0
  5 26  1  0  0  0
  5 90  1  0  0  0
  6 25  1  0  0  0
  6 91  1  0  0  0
  6 92  1  0  0  0
  7  8  2  0  0  0
  7 26  1  0  0  0
  7 29  1  0  0  0
  8  9  1  0  0  0
  8 22  1  0  0  0
  9 10  1  0  0  0
  9 27  2  0  0  0
 10 11  2  0  0  0
 10 15  1  0  0  0
 11 12  1  0  0  0
 11 93  1  0  0  0
 12 13  2  0  0  0
 12 94  1  0  0  0
 13 14  1  0  0  0
 13 31  1  0  0  0
 14 15  2  0  0  0
 14 95  1  0  0  0
 15 96  1  0  0  0
 16 17  2  0  0  0
 16 21  1  0  0  0
 16 31  1  0  0  0
 17 18  1  0  0  0
 17 97  1  0  0  0
 18 19  2  0  0  0
 18 98  1  0  0  0
 19 20  1  0  0  0
 19 24  1  0  0  0
 20 21  2  0  0  0
 20 99  1  0  0  0
 21 23  1  0  0  0
 22 28  1  0  0  0
 22 32  2  0  0  0
 26 27  1  0  0  0
 28100  1  0  0  0
 28101  1  0  0  0
 29102  1  0  0  0
 29103  1  0  0  0
 33 34  1  0  0  0
 33 66  1  0  0  0
 33 70  2  0  0  0
 34 36  1  0  0  0
 34 59  1  0  0  0
 34104  1  0  0  0
 35 44  2  0  0  0
 35 45  1  0  0  0
 35 68  1  0  0  0
 36 56  1  0  0  0
 36105  1  0  0  0
 37 39  1  0  0  0
 37 47  1  0  0  0
 37 66  1  0  0  0
 37106  1  0  0  0
 38 43  2  0  0  0
 38 46  1  0  0  0
 38 47  1  0  0  0
 39 64  1  0  0  0
 39 67  2  0  0  0
 40 52  1  0  0  0
 40 53  2  0  0  0
 40 58  1  0  0  0
 41107  1  0  0  0
 41108  1  0  0  0
 41109  1  0  0  0
 41 48  1  0  0  0
 42 43  1  0  0  0
 42 66  1  0  0  0
 42110  1  0  0  0
 42111  1  0  0  0
 43 44  1  0  0  0
 44112  1  0  0  0
 45 46  2  0  0  0
 45113  1  0  0  0
 46114  1  0  0  0
 47115  1  0  0  0
 47116  1  0  0  0
 48 56  1  0  0  0
 48 65  1  0  0  0
 48117  1  0  0  0
 49 50  1  0  0  0
 49 53  1  0  0  0
 49 64  1  0  0  0
 49118  1  0  0  0
 50 51  1  0  0  0
 50119  1  0  0  0
 50120  1  0  0  0
 51 52  1  0  0  0
 51121  1  0  0  0
 51122  1  0  0  0
 52123  1  0  0  0
 52124  1  0  0  0
 53 54  1  0  0  0
 54 55  2  0  0  0
 54125  1  0  0  0
 55 57  1  0  0  0
 55126  1  0  0  0
 56 69  2  0  0  0
 57 58  2  0  0  0
 57127  1  0  0  0
 58128  1  0  0  0
 59 60  1  0  0  0
 59 61  1  0  0  0
 59 62  1  0  0  0
 60129  1  0  0  0
 60130  1  0  0  0
 60131  1  0  0  0
 61132  1  0  0  0
 61133  1  0  0  0
 61134  1  0  0  0
 62135  1  0  0  0
 62136  1  0  0  0
 62137  1  0  0  0
 63 65  1  0  0  0
 63138  1  0  0  0
 63139  1  0  0  0
 63140  1  0  0  0
 64141  1  0  0  0
 65142  1  0  0  0
 68 76  1  0  0  0
 71 72  2  0  0  0
 71 73  1  0  0  0
 71143  1  0  0  0
 72 78  1  0  0  0
 72 81  1  0  0  0
 73 79  2  0  0  0
 73 82  1  0  0  0
 74 78  2  0  0  0
 74 79  1  0  0  0
 74 80  1  0  0  0
 75 77  1  0  0  0
 75 82  1  0  0  0
 75144  1  0  0  0
 75145  1  0  0  0
 76 77  1  0  0  0
 76146  1  0  0  0
 76147  1  0  0  0
 77 83  1  0  0  0
 77148  1  0  0  0
 80149  1  0  0  0
 80150  1  0  0  0
 81151  1  0  0  0
 82152  1  0  0  0
 83153  1  0  0  0
M  ISO  4   1 100  68 101  76 101  81 100
M  END
> <chiral flag>
0

> <version>
0

> <s_m_source_file>
/data/baiqing/PycharmProjects/Reinvent-master-3.2/result/LINK_invent/BTK/process_docking_weight1_custom_product_contain_oxygen_bond_distance_aromatic_linkinvent_7_9_3/rearranged_h_0199.sdf

> <i_m_source_file_index>
56

> <r_mmod_Potential_Energy-OPLS-2005>
-432.957794189453

> <r_mmod_Stretch_Energy-OPLS-2005>
118.533798217773

> <r_mmod_Bend_Energy-OPLS-2005>
198.210357666016

> <r_mmod_Torsional_Energy-OPLS-2005>
263.596618652344

> <r_mmod_Improper_Torsional_Energy-OPLS-2005>
17.9400043487549

> <r_mmod_Van_der_Waal_Energy-OPLS-2005>
144.214630126953

> <r_mmod_Electrostatic_Energy-OPLS-2005>
-995.2822265625

> <r_mmod_Solvation_Energy-OPLS-2005>
-285.299987792969

> <b_mmod_Minimization_Converged-OPLS-2005>
0

> <r_mmod_RMS_Derivative-OPLS-2005>
11.1575202941895

$$$$
56
                    3D
 Structure written by MMmdl.
151159  0  0  1  0            999 V2000
  -30.6108  -14.7550   20.4493 C   0  0  0  0  0  0
  -30.4315  -12.4574   19.4844 C   0  0  0  0  0  0
  -29.5128  -12.5074   18.2432 C   0  0  0  0  0  0
  -28.0388  -12.3310   18.6545 C   0  0  0  0  0  0
  -27.6423  -13.2336   19.8534 C   0  0  2  0  0  0
  -28.6854  -13.1757   20.9919 C   0  0  0  0  0  0
  -25.2506  -13.8199   20.5700 C   0  0  0  0  0  0
  -24.1800  -13.0441   20.9210 C   0  0  0  0  0  0
  -24.6395  -11.6920   20.8750 C   0  0  0  0  0  0
  -23.9073  -10.4294   21.0408 C   0  0  0  0  0  0
  -24.3622   -9.4208   21.9185 C   0  0  0  0  0  0
  -23.6296   -8.2244   22.0754 C   0  0  0  0  0  0
  -22.4278   -8.0282   21.3544 C   0  0  0  0  0  0
  -21.9915   -9.0256   20.4646 C   0  0  0  0  0  0
  -22.7245  -10.2135   20.3056 C   0  0  0  0  0  0
  -21.6854   -6.0736   22.5279 C   0  0  0  0  0  0
  -21.4015   -6.5640   23.8212 C   0  0  0  0  0  0
  -21.3660   -5.6793   24.9174 C   0  0  0  0  0  0
  -21.6044   -4.3055   24.7225 C   0  0  0  0  0  0
  -21.8819   -3.8147   23.4346 C   0  0  0  0  0  0
  -21.9193   -4.6964   22.3402 C   0  0  0  0  0  0
  -22.7820  -13.5220   21.1867 C   0  0  0  0  0  0
  -22.1661   -4.2149   21.0980 F   0  0  0  0  0  0
  -21.5629   -3.4539   25.7737 F   0  0  0  0  0  0
  -29.9882  -13.5254   20.4129 N   0  0  0  0  0  0
  -26.2938  -12.9412   20.3294 N   0  0  0  0  0  0
  -25.9327  -11.6552   20.5761 N   0  0  0  0  0  0
  -22.0468  -12.8209   22.0424 N   0  0  0  0  0  0
  -25.4185  -15.1924   20.4110 N   0  0  0  0  0  0
  -31.7923  -14.8473   20.1060 O   0  0  0  0  0  0
  -21.6641   -6.8880   21.4241 O   0  0  0  0  0  0
  -22.3503  -14.5525   20.6714 O   0  0  0  0  0  0
  -24.6326  -31.8539   23.1978 C   0  0  0  0  0  0
  -25.9147  -32.4746   23.8326 C   0  0  1  0  0  0
  -27.2169  -27.2444   20.1304 C   0  0  0  0  0  0
  -25.5937  -33.8549   24.2246 N   0  0  0  0  0  0
  -23.4301  -30.4769   21.5412 C   0  0  2  0  0  0
  -24.8775  -28.9243   20.1071 C   0  0  0  0  0  0
  -22.7511  -29.4594   22.4902 C   0  0  0  0  0  0
  -18.0293  -28.1389   22.8483 C   0  0  0  0  0  0
  -24.1490  -36.7280   23.2640 C   0  0  0  0  0  0
  -25.9777  -30.7606   21.3820 C   0  0  0  0  0  0
  -26.0490  -29.3825   20.7226 C   0  0  0  0  0  0
  -27.2195  -28.5544   20.7252 C   0  0  0  0  0  0
  -26.0261  -26.8689   19.4669 C   0  0  0  0  0  0
  -24.8727  -27.6766   19.4672 C   0  0  0  0  0  0
  -23.6490  -29.8126   20.1566 C   0  0  0  0  0  0
  -25.4118  -36.3064   24.0324 C   0  0  1  0  0  0
  -20.5899  -28.3701   23.1264 C   0  0  2  0  0  0
  -20.6780  -26.9417   22.5407 C   0  0  0  0  0  0
  -19.5755  -26.6383   21.5212 C   0  0  0  0  0  0
  -18.1936  -26.7930   22.1625 C   0  0  0  0  0  0
  -19.1548  -28.8862   23.2868 C   0  0  0  0  0  0
  -18.9468  -30.1462   23.8888 C   0  0  0  0  0  0
  -17.6467  -30.6589   24.0562 C   0  0  0  0  0  0
  -25.9060  -34.9435   23.5088 C   0  0  0  0  0  0
  -16.5358  -29.9085   23.6333 C   0  0  0  0  0  0
  -16.7280  -28.6503   23.0354 C   0  0  0  0  0  0
  -26.4507  -31.6580   25.0725 C   0  0  0  0  0  0
  -25.3721  -31.3738   26.1439 C   0  0  0  0  0  0
  -27.0363  -30.2992   24.6235 C   0  0  0  0  0  0
  -27.6053  -32.4330   25.7502 C   0  0  0  0  0  0
  -27.5578  -37.1797   24.8466 C   0  0  0  0  0  0
  -21.4216  -29.3044   22.3648 N   0  0  0  0  0  0
  -26.4291  -37.3765   23.9407 N   0  0  0  0  0  0
  -24.6992  -31.0490   22.0963 N   0  0  0  0  0  0
  -23.4204  -28.8135   23.3007 O   0  0  0  0  0  0
  -28.3012  -26.3317   20.2177 O   0  0  0  0  0  0
  -26.5636  -34.8913   22.4660 O   0  0  0  0  0  0
  -23.5473  -32.1371   23.7263 O   0  0  0  0  0  0
  -28.6567  -19.7296   22.7963 C   0  0  0  0  0  0
  -29.1153  -18.5610   22.1571 C   0  0  0  0  0  0
  -28.6269  -20.9569   22.1015 C   0  0  0  0  0  0
  -29.5463  -18.6252   20.8227 C   0  0  0  0  0  0
  -29.0423  -21.0187   20.7603 C   0  0  0  0  0  0
  -30.1628  -17.3185   20.1494 C   0  0  0  0  0  0
  -29.0091  -23.6854   20.5941 C   0  0  0  0  0  0
  -28.0927  -24.8585   19.9383 C   0  0  0  0  0  0
  -29.4905  -19.8508   20.1483 N   0  0  0  0  0  0
  -28.9484  -22.2663   20.0310 N   0  0  0  0  0  0
  -29.8454  -15.8974   20.6295 N   0  0  0  0  0  0
  -31.4740  -12.5748   19.1838 H   0  0  0  0  0  0
  -30.3713  -11.4824   19.9706 H   0  0  0  0  0  0
  -29.7975  -11.7326   17.5301 H   0  0  0  0  0  0
  -29.6399  -13.4606   17.7275 H   0  0  0  0  0  0
  -27.8969  -11.2828   18.9201 H   0  0  0  0  0  0
  -27.3823  -12.5198   17.8043 H   0  0  0  0  0  0
  -27.6349  -14.2537   19.4691 H   0  0  0  0  0  0
  -28.7199  -12.1811   21.4390 H   0  0  0  0  0  0
  -28.4189  -13.8636   21.7959 H   0  0  0  0  0  0
  -25.2766   -9.5684   22.4761 H   0  0  0  0  0  0
  -24.0004   -7.4635   22.7473 H   0  0  0  0  0  0
  -21.0846   -8.8776   19.8952 H   0  0  0  0  0  0
  -22.3703  -10.9675   19.6167 H   0  0  0  0  0  0
  -21.2008   -7.6148   23.9715 H   0  0  0  0  0  0
  -21.1482   -6.0523   25.9077 H   0  0  0  0  0  0
  -22.0598   -2.7609   23.2846 H   0  0  0  0  0  0
  -22.4090  -11.9873   22.4813 H   0  0  0  0  0  0
  -21.1084  -13.1228   22.2630 H   0  0  0  0  0  0
  -24.6482  -15.8432   20.5196 H   0  0  0  0  0  0
  -26.2608  -15.6336   20.0653 H   0  0  0  0  0  0
  -26.7211  -32.5389   23.1063 H   0  0  0  0  0  0
  -25.0074  -33.9684   25.0385 H   0  0  0  0  0  0
  -22.7272  -31.2998   21.3954 H   0  0  0  0  0  0
  -23.3753  -35.9611   23.3300 H   0  0  0  0  0  0
  -24.3578  -36.8908   22.2055 H   0  0  0  0  0  0
  -23.7244  -37.6478   23.6670 H   0  0  0  0  0  0
  -26.1212  -31.5211   20.6132 H   0  0  0  0  0  0
  -26.8536  -30.8076   22.0176 H   0  0  0  0  0  0
  -28.1121  -28.8965   21.2300 H   0  0  0  0  0  0
  -25.9514  -25.9237   18.9507 H   0  0  0  0  0  0
  -23.9791  -27.3245   18.9704 H   0  0  0  0  0  0
  -23.7743  -30.5899   19.4020 H   0  0  0  0  0  0
  -22.7668  -29.2473   19.8506 H   0  0  0  0  0  0
  -25.1302  -36.1908   25.0816 H   0  0  0  0  0  0
  -20.9992  -28.3283   24.1384 H   0  0  0  0  0  0
  -20.5680  -26.2312   23.3615 H   0  0  0  0  0  0
  -21.6648  -26.7438   22.1201 H   0  0  0  0  0  0
  -19.6917  -25.6292   21.1247 H   0  0  0  0  0  0
  -19.6692  -27.3189   20.6739 H   0  0  0  0  0  0
  -17.4205  -26.6676   21.4028 H   0  0  0  0  0  0
  -18.0337  -26.0074   22.9024 H   0  0  0  0  0  0
  -19.7944  -30.7281   24.2252 H   0  0  0  0  0  0
  -17.5021  -31.6268   24.5165 H   0  0  0  0  0  0
  -15.5358  -30.2984   23.7662 H   0  0  0  0  0  0
  -15.8680  -28.0819   22.7074 H   0  0  0  0  0  0
  -24.5903  -30.7079   25.7765 H   0  0  0  0  0  0
  -24.8904  -32.2909   26.4839 H   0  0  0  0  0  0
  -25.8029  -30.8932   27.0232 H   0  0  0  0  0  0
  -26.2958  -29.6730   24.1245 H   0  0  0  0  0  0
  -27.4018  -29.7267   25.4770 H   0  0  0  0  0  0
  -27.8846  -30.4258   23.9505 H   0  0  0  0  0  0
  -27.2654  -33.3637   26.2056 H   0  0  0  0  0  0
  -28.3875  -32.6879   25.0339 H   0  0  0  0  0  0
  -28.0708  -31.8471   26.5438 H   0  0  0  0  0  0
  -28.2594  -38.0094   24.7509 H   0  0  0  0  0  0
  -28.1075  -36.2624   24.6297 H   0  0  0  0  0  0
  -27.2294  -37.1451   25.8868 H   0  0  0  0  0  0
  -20.9404  -29.8767   21.6851 H   0  0  0  0  0  0
  -26.0167  -38.2838   24.1405 H   0  0  0  0  0  0
  -28.3292  -19.6867   23.8250 H   0  0  0  0  0  0
  -29.1577  -17.6283   22.7030 H   0  0  0  0  0  0
  -28.2531  -21.8301   22.6159 H   0  0  0  0  0  0
  -31.2455  -17.4463   20.1833 H   0  0  0  0  0  0
  -29.9053  -17.3541   19.0905 H   0  0  0  0  0  0
  -28.8214  -23.6664   21.6664 H   0  0  0  0  0  0
  -30.0497  -23.9963   20.4975 H   0  0  0  0  0  0
  -27.0746  -24.5921   20.2215 H   0  0  0  0  0  0
  -28.1395  -24.7507   18.8542 H   0  0  0  0  0  0
  -29.2033  -22.2009   19.0510 H   0  0  0  0  0  0
  -28.8922  -15.7506   20.9218 H   0  0  0  0  0  0
  1 25  1  0  0  0
  1 30  2  0  0  0
  1 81  1  0  0  0
  2  3  1  0  0  0
  2 25  1  0  0  0
  2 82  1  0  0  0
  2 83  1  0  0  0
  3  4  1  0  0  0
  3 84  1  0  0  0
  3 85  1  0  0  0
  4  5  1  0  0  0
  4 86  1  0  0  0
  4 87  1  0  0  0
  5  6  1  0  0  0
  5 26  1  0  0  0
  5 88  1  0  0  0
  6 25  1  0  0  0
  6 89  1  0  0  0
  6 90  1  0  0  0
  7  8  2  0  0  0
  7 26  1  0  0  0
  7 29  1  0  0  0
  8  9  1  0  0  0
  8 22  1  0  0  0
  9 10  1  0  0  0
  9 27  2  0  0  0
 10 11  2  0  0  0
 10 15  1  0  0  0
 11 12  1  0  0  0
 11 91  1  0  0  0
 12 13  2  0  0  0
 12 92  1  0  0  0
 13 14  1  0  0  0
 13 31  1  0  0  0
 14 15  2  0  0  0
 14 93  1  0  0  0
 15 94  1  0  0  0
 16 17  2  0  0  0
 16 21  1  0  0  0
 16 31  1  0  0  0
 17 18  1  0  0  0
 17 95  1  0  0  0
 18 19  2  0  0  0
 18 96  1  0  0  0
 19 20  1  0  0  0
 19 24  1  0  0  0
 20 21  2  0  0  0
 20 97  1  0  0  0
 21 23  1  0  0  0
 22 28  1  0  0  0
 22 32  2  0  0  0
 26 27  1  0  0  0
 28 98  1  0  0  0
 28 99  1  0  0  0
 29100  1  0  0  0
 29101  1  0  0  0
 33 34  1  0  0  0
 33 66  1  0  0  0
 33 70  2  0  0  0
 34 36  1  0  0  0
 34 59  1  0  0  0
 34102  1  0  0  0
 35 44  2  0  0  0
 35 45  1  0  0  0
 35 68  1  0  0  0
 36 56  1  0  0  0
 36103  1  0  0  0
 37 39  1  0  0  0
 37 47  1  0  0  0
 37 66  1  0  0  0
 37104  1  0  0  0
 38 43  2  0  0  0
 38 46  1  0  0  0
 38 47  1  0  0  0
 39 64  1  0  0  0
 39 67  2  0  0  0
 40 52  1  0  0  0
 40 53  2  0  0  0
 40 58  1  0  0  0
 41105  1  0  0  0
 41106  1  0  0  0
 41107  1  0  0  0
 41 48  1  0  0  0
 42 43  1  0  0  0
 42 66  1  0  0  0
 42108  1  0  0  0
 42109  1  0  0  0
 43 44  1  0  0  0
 44110  1  0  0  0
 45 46  2  0  0  0
 45111  1  0  0  0
 46112  1  0  0  0
 47113  1  0  0  0
 47114  1  0  0  0
 48 56  1  0  0  0
 48 65  1  0  0  0
 48115  1  0  0  0
 49 50  1  0  0  0
 49 53  1  0  0  0
 49 64  1  0  0  0
 49116  1  0  0  0
 50 51  1  0  0  0
 50117  1  0  0  0
 50118  1  0  0  0
 51 52  1  0  0  0
 51119  1  0  0  0
 51120  1  0  0  0
 52121  1  0  0  0
 52122  1  0  0  0
 53 54  1  0  0  0
 54 55  2  0  0  0
 54123  1  0  0  0
 55 57  1  0  0  0
 55124  1  0  0  0
 56 69  2  0  0  0
 57 58  2  0  0  0
 57125  1  0  0  0
 58126  1  0  0  0
 59 60  1  0  0  0
 59 61  1  0  0  0
 59 62  1  0  0  0
 60127  1  0  0  0
 60128  1  0  0  0
 60129  1  0  0  0
 61130  1  0  0  0
 61131  1  0  0  0
 61132  1  0  0  0
 62133  1  0  0  0
 62134  1  0  0  0
 62135  1  0  0  0
 63 65  1  0  0  0
 63136  1  0  0  0
 63137  1  0  0  0
 63138  1  0  0  0
 64139  1  0  0  0
 65140  1  0  0  0
 68 78  1  0  0  0
 71 72  2  0  0  0
 71 73  1  0  0  0
 71141  1  0  0  0
 72 74  1  0  0  0
 72142  1  0  0  0
 73 75  2  0  0  0
 73143  1  0  0  0
 74 76  1  0  0  0
 74 79  2  0  0  0
 75 79  1  0  0  0
 75 80  1  0  0  0
 76 81  1  0  0  0
 76144  1  0  0  0
 76145  1  0  0  0
 77 78  1  0  0  0
 77 80  1  0  0  0
 77146  1  0  0  0
 77147  1  0  0  0
 78148  1  0  0  0
 78149  1  0  0  0
 80150  1  0  0  0
 81151  1  0  0  0
M  ISO  4   1 100  68 101  78 101  81 100
M  END
> <chiral flag>
0

> <version>
0

> <s_m_source_file>
/data/baiqing/PycharmProjects/Reinvent-master-3.2/result/LINK_invent/BTK/process_docking_weight1_custom_product_contain_oxygen_bond_distance_aromatic_linkinvent_7_9_3/rearranged_h_0199.sdf

> <i_m_source_file_index>
57

> <r_mmod_Potential_Energy-OPLS-2005>
-208.496704101562

> <r_mmod_Stretch_Energy-OPLS-2005>
125.112373352051

> <r_mmod_Bend_Energy-OPLS-2005>
172.494094848633

> <r_mmod_Torsional_Energy-OPLS-2005>
198.541412353516

> <r_mmod_Improper_Torsional_Energy-OPLS-2005>
7.74763441085815

> <r_mmod_Van_der_Waal_Energy-OPLS-2005>
142.878890991211

> <r_mmod_Electrostatic_Energy-OPLS-2005>
-709.50439453125

> <r_mmod_Solvation_Energy-OPLS-2005>
-239.934448242188

> <b_mmod_Minimization_Converged-OPLS-2005>
1

> <r_mmod_RMS_Derivative-OPLS-2005>
0.0478739365935326

$$$$
57
                    3D
 Structure written by MMmdl.
155163  0  0  1  0            999 V2000
  -30.6090  -14.7616   20.3818 C   0  0  0  0  0  0
  -30.4295  -12.4510   19.4722 C   0  0  0  0  0  0
  -29.5121  -12.4857   18.2335 C   0  0  0  0  0  0
  -28.0336  -12.3174   18.6412 C   0  0  0  0  0  0
  -27.6313  -13.2331   19.8271 C   0  0  2  0  0  0
  -28.6770  -13.2064   20.9635 C   0  0  0  0  0  0
  -25.2466  -13.8231   20.5589 C   0  0  0  0  0  0
  -24.1758  -13.0471   20.9183 C   0  0  0  0  0  0
  -24.6352  -11.6965   20.8696 C   0  0  0  0  0  0
  -23.9021  -10.4343   21.0357 C   0  0  0  0  0  0
  -24.3607   -9.4265   21.9121 C   0  0  0  0  0  0
  -23.6309   -8.2270   22.0699 C   0  0  0  0  0  0
  -22.4263   -8.0292   21.3525 C   0  0  0  0  0  0
  -21.9922   -9.0215   20.4586 C   0  0  0  0  0  0
  -22.7211  -10.2117   20.2996 C   0  0  0  0  0  0
  -21.6862   -6.0729   22.5245 C   0  0  0  0  0  0
  -21.4047   -6.5614   23.8172 C   0  0  0  0  0  0
  -21.3687   -5.6741   24.9143 C   0  0  0  0  0  0
  -21.6053   -4.3020   24.7192 C   0  0  0  0  0  0
  -21.8836   -3.8126   23.4286 C   0  0  0  0  0  0
  -21.9220   -4.6948   22.3366 C   0  0  0  0  0  0
  -22.7792  -13.5243   21.1860 C   0  0  0  0  0  0
  -22.1651   -4.2142   21.0933 F   0  0  0  0  0  0
  -21.5658   -3.4510   25.7706 F   0  0  0  0  0  0
  -29.9772  -13.5352   20.3697 N   0  0  0  0  0  0
  -26.2873  -12.9406   20.3155 N   0  0  0  0  0  0
  -25.9276  -11.6568   20.5680 N   0  0  0  0  0  0
  -22.0429  -12.8209   22.0397 N   0  0  0  0  0  0
  -25.4302  -15.1945   20.3987 N   0  0  0  0  0  0
  -31.8271  -14.7914   20.1818 O   0  0  0  0  0  0
  -21.6664   -6.8857   21.4182 O   0  0  0  0  0  0
  -22.3455  -14.5532   20.6739 O   0  0  0  0  0  0
  -24.6309  -31.8563   23.1970 C   0  0  0  0  0  0
  -25.9133  -32.4775   23.8312 C   0  0  1  0  0  0
  -27.2070  -27.2650   20.0955 C   0  0  0  0  0  0
  -25.5952  -33.8574   24.2271 N   0  0  0  0  0  0
  -23.4270  -30.4793   21.5460 C   0  0  2  0  0  0
  -24.8686  -28.9177   20.1150 C   0  0  0  0  0  0
  -22.7478  -29.4624   22.4954 C   0  0  0  0  0  0
  -18.0289  -28.1373   22.8478 C   0  0  0  0  0  0
  -24.1513  -36.7291   23.2630 C   0  0  0  0  0  0
  -25.9726  -30.7673   21.3757 C   0  0  0  0  0  0
  -26.0441  -29.3894   20.7124 C   0  0  0  0  0  0
  -27.2262  -28.5763   20.6828 C   0  0  0  0  0  0
  -26.0083  -26.8530   19.4844 C   0  0  0  0  0  0
  -24.8545  -27.6586   19.4925 C   0  0  0  0  0  0
  -23.6389  -29.8081   20.1642 C   0  0  0  0  0  0
  -25.4135  -36.3099   24.0325 C   0  0  1  0  0  0
  -20.5890  -28.3691   23.1277 C   0  0  2  0  0  0
  -20.6801  -26.9424   22.5408 C   0  0  0  0  0  0
  -19.5787  -26.6374   21.5218 C   0  0  0  0  0  0
  -18.1949  -26.7920   22.1593 C   0  0  0  0  0  0
  -19.1531  -28.8854   23.2867 C   0  0  0  0  0  0
  -18.9449  -30.1440   23.8890 C   0  0  0  0  0  0
  -17.6445  -30.6588   24.0543 C   0  0  0  0  0  0
  -25.9061  -34.9458   23.5095 C   0  0  0  0  0  0
  -16.5340  -29.9067   23.6341 C   0  0  0  0  0  0
  -16.7270  -28.6475   23.0363 C   0  0  0  0  0  0
  -26.4476  -31.6569   25.0693 C   0  0  0  0  0  0
  -25.3664  -31.3702   26.1380 C   0  0  0  0  0  0
  -27.0306  -30.2986   24.6158 C   0  0  0  0  0  0
  -27.6061  -32.4282   25.7454 C   0  0  0  0  0  0
  -27.5619  -37.1794   24.8446 C   0  0  0  0  0  0
  -21.4208  -29.3037   22.3676 N   0  0  0  0  0  0
  -26.4331  -37.3791   23.9399 N   0  0  0  0  0  0
  -24.6959  -31.0496   22.0978 N   0  0  0  0  0  0
  -23.4148  -28.8181   23.3078 O   0  0  0  0  0  0
  -28.2990  -26.3748   20.0427 O   0  0  0  0  0  0
  -26.5637  -34.8922   22.4663 O   0  0  0  0  0  0
  -23.5458  -32.1396   23.7266 O   0  0  0  0  0  0
  -31.3458  -17.7238   19.5156 C   0  0  0  0  0  0
  -31.6261  -19.0755   19.2740 C   0  0  0  0  0  0
  -30.1011  -17.3548   20.0738 C   0  0  0  0  0  0
  -29.5735  -19.7256   20.0200 C   0  0  0  0  0  0
  -30.2485  -22.5269   21.2817 C   0  0  0  0  0  0
  -28.3630  -23.5605   19.7774 C   0  0  0  0  0  0
  -28.1422  -24.9746   20.5654 C   0  0  0  0  0  0
  -28.8639  -22.2768   20.6616 C   0  0  1  0  0  0
  -30.7557  -20.0578   19.5272 N   0  0  0  0  0  0
  -29.2158  -18.4232   20.2834 N   0  0  0  0  0  0
  -32.8445  -19.4972   18.7664 N   0  0  0  0  0  0
  -29.8175  -15.9155   20.3639 N   0  0  0  0  0  0
  -28.6574  -20.8218   20.2186 N   0  0  0  0  0  0
  -31.4679  -12.5764   19.1644 H   0  0  0  0  0  0
  -30.3793  -11.4889   19.9833 H   0  0  0  0  0  0
  -29.8009  -11.7008   17.5352 H   0  0  0  0  0  0
  -29.6451  -13.4325   17.7037 H   0  0  0  0  0  0
  -27.8953  -11.2723   18.9199 H   0  0  0  0  0  0
  -27.3827  -12.4879   17.7852 H   0  0  0  0  0  0
  -27.6121  -14.2460   19.4194 H   0  0  0  0  0  0
  -28.7047  -12.2281   21.4488 H   0  0  0  0  0  0
  -28.4075  -13.9256   21.7403 H   0  0  0  0  0  0
  -25.2746   -9.5759   22.4716 H   0  0  0  0  0  0
  -24.0024   -7.4686   22.7444 H   0  0  0  0  0  0
  -21.0864   -8.8721   19.8902 H   0  0  0  0  0  0
  -22.3646  -10.9641   19.6117 H   0  0  0  0  0  0
  -21.2006   -7.6124   23.9677 H   0  0  0  0  0  0
  -21.1502   -6.0477   25.9043 H   0  0  0  0  0  0
  -22.0603   -2.7598   23.2784 H   0  0  0  0  0  0
  -22.4023  -11.9882   22.4835 H   0  0  0  0  0  0
  -21.1036  -13.1181   22.2576 H   0  0  0  0  0  0
  -24.6937  -15.8809   20.5276 H   0  0  0  0  0  0
  -26.2909  -15.6082   20.0589 H   0  0  0  0  0  0
  -26.7203  -32.5416   23.1047 H   0  0  0  0  0  0
  -25.0102  -33.9722   25.0431 H   0  0  0  0  0  0
  -22.7227  -31.3006   21.4022 H   0  0  0  0  0  0
  -23.3823  -35.9579   23.3254 H   0  0  0  0  0  0
  -24.3619  -36.8943   22.2056 H   0  0  0  0  0  0
  -23.7218  -37.6455   23.6670 H   0  0  0  0  0  0
  -26.1143  -31.5319   20.6101 H   0  0  0  0  0  0
  -26.8496  -30.8101   22.0095 H   0  0  0  0  0  0
  -28.1375  -28.9408   21.1368 H   0  0  0  0  0  0
  -25.9647  -25.8892   18.9974 H   0  0  0  0  0  0
  -23.9548  -27.2997   19.0144 H   0  0  0  0  0  0
  -23.7553  -30.5841   19.4047 H   0  0  0  0  0  0
  -22.7540  -29.2376   19.8717 H   0  0  0  0  0  0
  -25.1336  -36.1955   25.0829 H   0  0  0  0  0  0
  -20.9951  -28.3276   24.1403 H   0  0  0  0  0  0
  -20.5732  -26.2298   23.3597 H   0  0  0  0  0  0
  -21.6663  -26.7493   22.1174 H   0  0  0  0  0  0
  -19.6954  -25.6281   21.1262 H   0  0  0  0  0  0
  -19.6735  -27.3162   20.6731 H   0  0  0  0  0  0
  -17.4237  -26.6676   21.3980 H   0  0  0  0  0  0
  -18.0324  -26.0052   22.8965 H   0  0  0  0  0  0
  -19.7909  -30.7279   24.2228 H   0  0  0  0  0  0
  -17.4988  -31.6259   24.5135 H   0  0  0  0  0  0
  -15.5328  -30.2944   23.7692 H   0  0  0  0  0  0
  -15.8657  -28.0783   22.7099 H   0  0  0  0  0  0
  -24.5882  -30.7024   25.7657 H   0  0  0  0  0  0
  -24.8788  -32.2845   26.4762 H   0  0  0  0  0  0
  -25.7928  -30.8878   27.0179 H   0  0  0  0  0  0
  -26.2855  -29.6730   24.1212 H   0  0  0  0  0  0
  -27.4021  -29.7253   25.4661 H   0  0  0  0  0  0
  -27.8734  -30.4266   23.9364 H   0  0  0  0  0  0
  -27.2723  -33.3607   26.2008 H   0  0  0  0  0  0
  -28.3864  -32.6771   25.0254 H   0  0  0  0  0  0
  -28.0714  -31.8387   26.5359 H   0  0  0  0  0  0
  -28.2591  -38.0141   24.7605 H   0  0  0  0  0  0
  -28.1179  -36.2684   24.6170 H   0  0  0  0  0  0
  -27.2333  -37.1305   25.8841 H   0  0  0  0  0  0
  -20.9393  -29.8677   21.6827 H   0  0  0  0  0  0
  -26.0224  -38.2874   24.1397 H   0  0  0  0  0  0
  -32.0794  -16.9734   19.2604 H   0  0  0  0  0  0
  -30.2424  -23.4106   21.9123 H   0  0  0  0  0  0
  -31.0201  -22.6741   20.5240 H   0  0  0  0  0  0
  -30.5465  -21.7043   21.9278 H   0  0  0  0  0  0
  -29.0390  -23.7047   18.9325 H   0  0  0  0  0  0
  -27.4102  -23.3028   19.3080 H   0  0  0  0  0  0
  -28.8595  -24.9679   21.3778 H   0  0  0  0  0  0
  -27.1850  -24.8980   21.0766 H   0  0  0  0  0  0
  -28.1846  -22.3181   21.5136 H   0  0  0  0  0  0
  -33.5640  -18.8652   18.4302 H   0  0  0  0  0  0
  -32.9937  -20.4799   18.5539 H   0  0  0  0  0  0
  -28.8401  -15.7169   20.5153 H   0  0  0  0  0  0
  -27.7550  -20.4766   20.5404 H   0  0  0  0  0  0
  1 25  1  0  0  0
  1 30  2  0  0  0
  1 82  1  0  0  0
  2  3  1  0  0  0
  2 25  1  0  0  0
  2 84  1  0  0  0
  2 85  1  0  0  0
  3  4  1  0  0  0
  3 86  1  0  0  0
  3 87  1  0  0  0
  4  5  1  0  0  0
  4 88  1  0  0  0
  4 89  1  0  0  0
  5  6  1  0  0  0
  5 26  1  0  0  0
  5 90  1  0  0  0
  6 25  1  0  0  0
  6 91  1  0  0  0
  6 92  1  0  0  0
  7  8  2  0  0  0
  7 26  1  0  0  0
  7 29  1  0  0  0
  8  9  1  0  0  0
  8 22  1  0  0  0
  9 10  1  0  0  0
  9 27  2  0  0  0
 10 11  2  0  0  0
 10 15  1  0  0  0
 11 12  1  0  0  0
 11 93  1  0  0  0
 12 13  2  0  0  0
 12 94  1  0  0  0
 13 14  1  0  0  0
 13 31  1  0  0  0
 14 15  2  0  0  0
 14 95  1  0  0  0
 15 96  1  0  0  0
 16 17  2  0  0  0
 16 21  1  0  0  0
 16 31  1  0  0  0
 17 18  1  0  0  0
 17 97  1  0  0  0
 18 19  2  0  0  0
 18 98  1  0  0  0
 19 20  1  0  0  0
 19 24  1  0  0  0
 20 21  2  0  0  0
 20 99  1  0  0  0
 21 23  1  0  0  0
 22 28  1  0  0  0
 22 32  2  0  0  0
 26 27  1  0  0  0
 28100  1  0  0  0
 28101  1  0  0  0
 29102  1  0  0  0
 29103  1  0  0  0
 33 34  1  0  0  0
 33 66  1  0  0  0
 33 70  2  0  0  0
 34 36  1  0  0  0
 34 59  1  0  0  0
 34104  1  0  0  0
 35 44  2  0  0  0
 35 45  1  0  0  0
 35 68  1  0  0  0
 36 56  1  0  0  0
 36105  1  0  0  0
 37 39  1  0  0  0
 37 47  1  0  0  0
 37 66  1  0  0  0
 37106  1  0  0  0
 38 43  2  0  0  0
 38 46  1  0  0  0
 38 47  1  0  0  0
 39 64  1  0  0  0
 39 67  2  0  0  0
 40 52  1  0  0  0
 40 53  2  0  0  0
 40 58  1  0  0  0
 41107  1  0  0  0
 41108  1  0  0  0
 41109  1  0  0  0
 41 48  1  0  0  0
 42 43  1  0  0  0
 42 66  1  0  0  0
 42110  1  0  0  0
 42111  1  0  0  0
 43 44  1  0  0  0
 44112  1  0  0  0
 45 46  2  0  0  0
 45113  1  0  0  0
 46114  1  0  0  0
 47115  1  0  0  0
 47116  1  0  0  0
 48 56  1  0  0  0
 48 65  1  0  0  0
 48117  1  0  0  0
 49 50  1  0  0  0
 49 53  1  0  0  0
 49 64  1  0  0  0
 49118  1  0  0  0
 50 51  1  0  0  0
 50119  1  0  0  0
 50120  1  0  0  0
 51 52  1  0  0  0
 51121  1  0  0  0
 51122  1  0  0  0
 52123  1  0  0  0
 52124  1  0  0  0
 53 54  1  0  0  0
 54 55  2  0  0  0
 54125  1  0  0  0
 55 57  1  0  0  0
 55126  1  0  0  0
 56 69  2  0  0  0
 57 58  2  0  0  0
 57127  1  0  0  0
 58128  1  0  0  0
 59 60  1  0  0  0
 59 61  1  0  0  0
 59 62  1  0  0  0
 60129  1  0  0  0
 60130  1  0  0  0
 60131  1  0  0  0
 61132  1  0  0  0
 61133  1  0  0  0
 61134  1  0  0  0
 62135  1  0  0  0
 62136  1  0  0  0
 62137  1  0  0  0
 63 65  1  0  0  0
 63138  1  0  0  0
 63139  1  0  0  0
 63140  1  0  0  0
 64141  1  0  0  0
 65142  1  0  0  0
 68 77  1  0  0  0
 71 72  2  0  0  0
 71 73  1  0  0  0
 71143  1  0  0  0
 72 79  1  0  0  0
 72 81  1  0  0  0
 73 80  2  0  0  0
 73 82  1  0  0  0
 74 79  2  0  0  0
 74 80  1  0  0  0
 74 83  1  0  0  0
 75144  1  0  0  0
 75145  1  0  0  0
 75146  1  0  0  0
 75 78  1  0  0  0
 76 77  1  0  0  0
 76 78  1  0  0  0
 76147  1  0  0  0
 76148  1  0  0  0
 77149  1  0  0  0
 77150  1  0  0  0
 78 83  1  0  0  0
 78151  1  0  0  0
 81152  1  0  0  0
 81153  1  0  0  0
 82154  1  0  0  0
 83155  1  0  0  0
M  ISO  4   1 100  68 101  77 101  82 100
M  END
> <chiral flag>
0

> <version>
0

> <s_m_source_file>
/data/baiqing/PycharmProjects/Reinvent-master-3.2/result/LINK_invent/BTK/process_docking_weight1_custom_product_contain_oxygen_bond_distance_aromatic_linkinvent_7_9_3/rearranged_h_0199.sdf

> <i_m_source_file_index>
58

> <r_mmod_Potential_Energy-OPLS-2005>
-282.151214599609

> <r_mmod_Stretch_Energy-OPLS-2005>
135.056060791016

> <r_mmod_Bend_Energy-OPLS-2005>
213.697311401367

> <r_mmod_Torsional_Energy-OPLS-2005>
244.935195922852

> <r_mmod_Improper_Torsional_Energy-OPLS-2005>
8.73205280303955

> <r_mmod_Van_der_Waal_Energy-OPLS-2005>
147.905426025391

> <r_mmod_Electrostatic_Energy-OPLS-2005>
-877.8974609375

> <r_mmod_Solvation_Energy-OPLS-2005>
-246.540283203125

> <b_mmod_Minimization_Converged-OPLS-2005>
0

> <r_mmod_RMS_Derivative-OPLS-2005>
8.31782531738281

$$$$
58
                    3D
 Structure written by MMmdl.
155163  0  0  1  0            999 V2000
  -30.6096  -14.7451   20.4689 C   0  0  0  0  0  0
  -30.4345  -12.4567   19.4647 C   0  0  0  0  0  0
  -29.5092  -12.5042   18.2298 C   0  0  0  0  0  0
  -28.0351  -12.3257   18.6466 C   0  0  0  0  0  0
  -27.6397  -13.2266   19.8475 C   0  0  2  0  0  0
  -28.6873  -13.1650   20.9806 C   0  0  0  0  0  0
  -25.2509  -13.8175   20.5697 C   0  0  0  0  0  0
  -24.1803  -13.0422   20.9202 C   0  0  0  0  0  0
  -24.6383  -11.6902   20.8736 C   0  0  0  0  0  0
  -23.9055  -10.4284   21.0396 C   0  0  0  0  0  0
  -24.3611   -9.4209   21.9176 C   0  0  0  0  0  0
  -23.6296   -8.2241   22.0751 C   0  0  0  0  0  0
  -22.4281   -8.0271   21.3545 C   0  0  0  0  0  0
  -21.9904   -9.0237   20.4641 C   0  0  0  0  0  0
  -22.7222  -10.2121   20.3047 C   0  0  0  0  0  0
  -21.6852   -6.0728   22.5281 C   0  0  0  0  0  0
  -21.4011   -6.5636   23.8214 C   0  0  0  0  0  0
  -21.3660   -5.6795   24.9173 C   0  0  0  0  0  0
  -21.6048   -4.3056   24.7228 C   0  0  0  0  0  0
  -21.8820   -3.8144   23.4353 C   0  0  0  0  0  0
  -21.9195   -4.6959   22.3406 C   0  0  0  0  0  0
  -22.7824  -13.5211   21.1862 C   0  0  0  0  0  0
  -22.1669   -4.2141   21.0986 F   0  0  0  0  0  0
  -21.5625   -3.4545   25.7743 F   0  0  0  0  0  0
  -29.9835  -13.5200   20.3916 N   0  0  0  0  0  0
  -26.2931  -12.9374   20.3268 N   0  0  0  0  0  0
  -25.9315  -11.6521   20.5739 N   0  0  0  0  0  0
  -22.0479  -12.8204   22.0423 N   0  0  0  0  0  0
  -25.4160  -15.1907   20.4139 N   0  0  0  0  0  0
  -31.8095  -14.8236   20.1837 O   0  0  0  0  0  0
  -21.6651   -6.8871   21.4244 O   0  0  0  0  0  0
  -22.3515  -14.5517   20.6702 O   0  0  0  0  0  0
  -24.6322  -31.8538   23.1945 C   0  0  0  0  0  0
  -25.9141  -32.4749   23.8295 C   0  0  1  0  0  0
  -27.2280  -27.2667   20.1397 C   0  0  0  0  0  0
  -25.5939  -33.8553   24.2214 N   0  0  0  0  0  0
  -23.4289  -30.4760   21.5358 C   0  0  2  0  0  0
  -24.8765  -28.9099   20.1187 C   0  0  0  0  0  0
  -22.7485  -29.4631   22.4887 C   0  0  0  0  0  0
  -18.0284  -28.1399   22.8480 C   0  0  0  0  0  0
  -24.1491  -36.7295   23.2641 C   0  0  0  0  0  0
  -25.9726  -30.7731   21.3671 C   0  0  0  0  0  0
  -26.0483  -29.3914   20.7164 C   0  0  0  0  0  0
  -27.2316  -28.5864   20.7042 C   0  0  0  0  0  0
  -26.0323  -26.8359   19.5341 C   0  0  0  0  0  0
  -24.8722  -27.6388   19.5178 C   0  0  0  0  0  0
  -23.6478  -29.7999   20.1560 C   0  0  0  0  0  0
  -25.4118  -36.3057   24.0311 C   0  0  1  0  0  0
  -20.5895  -28.3721   23.1248 C   0  0  2  0  0  0
  -20.6778  -26.9435   22.5400 C   0  0  0  0  0  0
  -19.5753  -26.6383   21.5213 C   0  0  0  0  0  0
  -18.1932  -26.7936   22.1623 C   0  0  0  0  0  0
  -19.1542  -28.8869   23.2859 C   0  0  0  0  0  0
  -18.9471  -30.1474   23.8877 C   0  0  0  0  0  0
  -17.6477  -30.6598   24.0579 C   0  0  0  0  0  0
  -25.9056  -34.9437   23.5058 C   0  0  0  0  0  0
  -16.5360  -29.9107   23.6341 C   0  0  0  0  0  0
  -16.7272  -28.6530   23.0351 C   0  0  0  0  0  0
  -26.4498  -31.6598   25.0711 C   0  0  0  0  0  0
  -25.3718  -31.3792   26.1443 C   0  0  0  0  0  0
  -27.0343  -30.2998   24.6236 C   0  0  0  0  0  0
  -27.6010  -32.4378   25.7508 C   0  0  0  0  0  0
  -27.5569  -37.1801   24.8452 C   0  0  0  0  0  0
  -21.4193  -29.3071   22.3624 N   0  0  0  0  0  0
  -26.4276  -37.3770   23.9408 N   0  0  0  0  0  0
  -24.6971  -31.0524   22.0892 N   0  0  0  0  0  0
  -23.4177  -28.8187   23.3007 O   0  0  0  0  0  0
  -28.3452  -26.4083   20.1015 O   0  0  0  0  0  0
  -26.5630  -34.8922   22.4628 O   0  0  0  0  0  0
  -23.5475  -32.1339   23.7254 O   0  0  0  0  0  0
  -31.4118  -18.9062   21.9016 C   0  0  0  0  0  0
  -29.3333  -18.3976   20.3384 C   0  0  0  0  0  0
  -30.1440  -17.2945   20.8405 C   0  0  0  0  0  0
  -29.6753  -19.7686   20.6854 C   0  0  0  0  0  0
  -30.7252  -22.7797   20.0499 C   0  0  0  0  0  0
  -28.3269  -23.6127   20.0314 C   0  0  0  0  0  0
  -28.3169  -25.0654   20.7730 C   0  0  0  0  0  0
  -29.3121  -22.4182   20.5533 C   0  0  1  0  0  0
  -31.1851  -17.6229   21.6270 N   0  0  0  0  0  0
  -30.7211  -19.9670   21.4926 N   0  0  0  0  0  0
  -28.2454  -18.1381   19.4957 N   0  0  0  0  0  0
  -29.8109  -15.8764   20.5855 N   0  0  0  0  0  0
  -28.9848  -20.9619   20.2188 N   0  0  0  0  0  0
  -31.4743  -12.5846   19.1593 H   0  0  0  0  0  0
  -30.3861  -11.4803   19.9490 H   0  0  0  0  0  0
  -29.7925  -11.7304   17.5146 H   0  0  0  0  0  0
  -29.6326  -13.4572   17.7130 H   0  0  0  0  0  0
  -27.8952  -11.2763   18.9113 H   0  0  0  0  0  0
  -27.3762  -12.5149   17.7986 H   0  0  0  0  0  0
  -27.6289  -14.2459   19.4618 H   0  0  0  0  0  0
  -28.7285  -12.1687   21.4243 H   0  0  0  0  0  0
  -28.4252  -13.8501   21.7888 H   0  0  0  0  0  0
  -25.2751   -9.5705   22.4756 H   0  0  0  0  0  0
  -24.0013   -7.4637   22.7472 H   0  0  0  0  0  0
  -21.0834   -8.8736   19.8953 H   0  0  0  0  0  0
  -22.3658  -10.9655   19.6165 H   0  0  0  0  0  0
  -21.2005   -7.6145   23.9711 H   0  0  0  0  0  0
  -21.1480   -6.0525   25.9076 H   0  0  0  0  0  0
  -22.0599   -2.7606   23.2850 H   0  0  0  0  0  0
  -22.4101  -11.9870   22.4816 H   0  0  0  0  0  0
  -21.1089  -13.1220   22.2621 H   0  0  0  0  0  0
  -24.6374  -15.8309   20.5264 H   0  0  0  0  0  0
  -26.2524  -15.6528   20.0809 H   0  0  0  0  0  0
  -26.7228  -32.5400   23.1054 H   0  0  0  0  0  0
  -25.0087  -33.9688   25.0362 H   0  0  0  0  0  0
  -22.7269  -31.2988   21.3844 H   0  0  0  0  0  0
  -23.3739  -35.9639   23.3286 H   0  0  0  0  0  0
  -24.3576  -36.8940   22.2058 H   0  0  0  0  0  0
  -23.7256  -37.6494   23.6688 H   0  0  0  0  0  0
  -26.1049  -31.5316   20.5945 H   0  0  0  0  0  0
  -26.8520  -30.8263   21.9976 H   0  0  0  0  0  0
  -28.1399  -28.9644   21.1522 H   0  0  0  0  0  0
  -25.9964  -25.8585   19.0736 H   0  0  0  0  0  0
  -23.9739  -27.2597   19.0511 H   0  0  0  0  0  0
  -23.7752  -30.5723   19.3962 H   0  0  0  0  0  0
  -22.7650  -29.2349   19.8514 H   0  0  0  0  0  0
  -25.1303  -36.1876   25.0799 H   0  0  0  0  0  0
  -21.0006  -28.3311   24.1360 H   0  0  0  0  0  0
  -20.5680  -26.2339   23.3613 H   0  0  0  0  0  0
  -21.6649  -26.7449   22.1202 H   0  0  0  0  0  0
  -19.6926  -25.6288   21.1257 H   0  0  0  0  0  0
  -19.6699  -27.3183   20.6739 H   0  0  0  0  0  0
  -17.4208  -26.6683   21.4026 H   0  0  0  0  0  0
  -18.0332  -26.0075   22.9015 H   0  0  0  0  0  0
  -19.7953  -30.7301   24.2222 H   0  0  0  0  0  0
  -17.5037  -31.6274   24.5195 H   0  0  0  0  0  0
  -15.5371  -30.3027   23.7669 H   0  0  0  0  0  0
  -15.8661  -28.0865   22.7063 H   0  0  0  0  0  0
  -24.5865  -30.7164   25.7801 H   0  0  0  0  0  0
  -24.8966  -32.2997   26.4847 H   0  0  0  0  0  0
  -25.8039  -30.8989   27.0229 H   0  0  0  0  0  0
  -26.2936  -29.6760   24.1229 H   0  0  0  0  0  0
  -27.3945  -29.7268   25.4789 H   0  0  0  0  0  0
  -27.8843  -30.4237   23.9522 H   0  0  0  0  0  0
  -27.2542  -33.3665   26.2054 H   0  0  0  0  0  0
  -28.3843  -32.6978   25.0376 H   0  0  0  0  0  0
  -28.0657  -31.8544   26.5466 H   0  0  0  0  0  0
  -28.2568  -38.0117   24.7505 H   0  0  0  0  0  0
  -28.1069  -36.2642   24.6247 H   0  0  0  0  0  0
  -27.2283  -37.1411   25.8852 H   0  0  0  0  0  0
  -20.9359  -29.8797   21.6841 H   0  0  0  0  0  0
  -26.0134  -38.2823   24.1442 H   0  0  0  0  0  0
  -32.2638  -19.1085   22.5329 H   0  0  0  0  0  0
  -30.9654  -23.8192   20.2718 H   0  0  0  0  0  0
  -30.8073  -22.6521   18.9696 H   0  0  0  0  0  0
  -31.5103  -22.1836   20.5114 H   0  0  0  0  0  0
  -28.5145  -23.7762   18.9696 H   0  0  0  0  0  0
  -27.3023  -23.2423   20.0696 H   0  0  0  0  0  0
  -29.2019  -25.0791   21.4087 H   0  0  0  0  0  0
  -27.4936  -25.0671   21.4890 H   0  0  0  0  0  0
  -29.3209  -22.4643   21.6435 H   0  0  0  0  0  0
  -28.2919  -17.3005   18.9242 H   0  0  0  0  0  0
  -27.8848  -18.9234   18.9639 H   0  0  0  0  0  0
  -28.8221  -15.7014   20.5420 H   0  0  0  0  0  0
  -28.1599  -20.7851   19.6590 H   0  0  0  0  0  0
  1 25  1  0  0  0
  1 30  2  0  0  0
  1 82  1  0  0  0
  2  3  1  0  0  0
  2 25  1  0  0  0
  2 84  1  0  0  0
  2 85  1  0  0  0
  3  4  1  0  0  0
  3 86  1  0  0  0
  3 87  1  0  0  0
  4  5  1  0  0  0
  4 88  1  0  0  0
  4 89  1  0  0  0
  5  6  1  0  0  0
  5 26  1  0  0  0
  5 90  1  0  0  0
  6 25  1  0  0  0
  6 91  1  0  0  0
  6 92  1  0  0  0
  7  8  2  0  0  0
  7 26  1  0  0  0
  7 29  1  0  0  0
  8  9  1  0  0  0
  8 22  1  0  0  0
  9 10  1  0  0  0
  9 27  2  0  0  0
 10 11  2  0  0  0
 10 15  1  0  0  0
 11 12  1  0  0  0
 11 93  1  0  0  0
 12 13  2  0  0  0
 12 94  1  0  0  0
 13 14  1  0  0  0
 13 31  1  0  0  0
 14 15  2  0  0  0
 14 95  1  0  0  0
 15 96  1  0  0  0
 16 17  2  0  0  0
 16 21  1  0  0  0
 16 31  1  0  0  0
 17 18  1  0  0  0
 17 97  1  0  0  0
 18 19  2  0  0  0
 18 98  1  0  0  0
 19 20  1  0  0  0
 19 24  1  0  0  0
 20 21  2  0  0  0
 20 99  1  0  0  0
 21 23  1  0  0  0
 22 28  1  0  0  0
 22 32  2  0  0  0
 26 27  1  0  0  0
 28100  1  0  0  0
 28101  1  0  0  0
 29102  1  0  0  0
 29103  1  0  0  0
 33 34  1  0  0  0
 33 66  1  0  0  0
 33 70  2  0  0  0
 34 36  1  0  0  0
 34 59  1  0  0  0
 34104  1  0  0  0
 35 44  2  0  0  0
 35 45  1  0  0  0
 35 68  1  0  0  0
 36 56  1  0  0  0
 36105  1  0  0  0
 37 39  1  0  0  0
 37 47  1  0  0  0
 37 66  1  0  0  0
 37106  1  0  0  0
 38 43  2  0  0  0
 38 46  1  0  0  0
 38 47  1  0  0  0
 39 64  1  0  0  0
 39 67  2  0  0  0
 40 52  1  0  0  0
 40 53  2  0  0  0
 40 58  1  0  0  0
 41107  1  0  0  0
 41108  1  0  0  0
 41109  1  0  0  0
 41 48  1  0  0  0
 42 43  1  0  0  0
 42 66  1  0  0  0
 42110  1  0  0  0
 42111  1  0  0  0
 43 44  1  0  0  0
 44112  1  0  0  0
 45 46  2  0  0  0
 45113  1  0  0  0
 46114  1  0  0  0
 47115  1  0  0  0
 47116  1  0  0  0
 48 56  1  0  0  0
 48 65  1  0  0  0
 48117  1  0  0  0
 49 50  1  0  0  0
 49 53  1  0  0  0
 49 64  1  0  0  0
 49118  1  0  0  0
 50 51  1  0  0  0
 50119  1  0  0  0
 50120  1  0  0  0
 51 52  1  0  0  0
 51121  1  0  0  0
 51122  1  0  0  0
 52123  1  0  0  0
 52124  1  0  0  0
 53 54  1  0  0  0
 54 55  2  0  0  0
 54125  1  0  0  0
 55 57  1  0  0  0
 55126  1  0  0  0
 56 69  2  0  0  0
 57 58  2  0  0  0
 57127  1  0  0  0
 58128  1  0  0  0
 59 60  1  0  0  0
 59 61  1  0  0  0
 59 62  1  0  0  0
 60129  1  0  0  0
 60130  1  0  0  0
 60131  1  0  0  0
 61132  1  0  0  0
 61133  1  0  0  0
 61134  1  0  0  0
 62135  1  0  0  0
 62136  1  0  0  0
 62137  1  0  0  0
 63 65  1  0  0  0
 63138  1  0  0  0
 63139  1  0  0  0
 63140  1  0  0  0
 64141  1  0  0  0
 65142  1  0  0  0
 68 77  1  0  0  0
 71 79  2  0  0  0
 71 80  1  0  0  0
 71143  1  0  0  0
 72 73  2  0  0  0
 72 74  1  0  0  0
 72 81  1  0  0  0
 73 79  1  0  0  0
 73 82  1  0  0  0
 74 80  2  0  0  0
 74 83  1  0  0  0
 75144  1  0  0  0
 75145  1  0  0  0
 75146  1  0  0  0
 75 78  1  0  0  0
 76 77  1  0  0  0
 76 78  1  0  0  0
 76147  1  0  0  0
 76148  1  0  0  0
 77149  1  0  0  0
 77150  1  0  0  0
 78 83  1  0  0  0
 78151  1  0  0  0
 81152  1  0  0  0
 81153  1  0  0  0
 82154  1  0  0  0
 83155  1  0  0  0
M  ISO  4   1 100  68 101  77 101  82 100
M  END
> <chiral flag>
0

> <version>
0

> <s_m_source_file>
/data/baiqing/PycharmProjects/Reinvent-master-3.2/result/LINK_invent/BTK/process_docking_weight1_custom_product_contain_oxygen_bond_distance_aromatic_linkinvent_7_9_3/rearranged_h_0199.sdf

> <i_m_source_file_index>
59

> <r_mmod_Potential_Energy-OPLS-2005>
-275.913635253906

> <r_mmod_Stretch_Energy-OPLS-2005>
123.421371459961

> <r_mmod_Bend_Energy-OPLS-2005>
183.372909545898

> <r_mmod_Torsional_Energy-OPLS-2005>
242.115249633789

> <r_mmod_Improper_Torsional_Energy-OPLS-2005>
11.1489715576172

> <r_mmod_Van_der_Waal_Energy-OPLS-2005>
144.277328491211

> <r_mmod_Electrostatic_Energy-OPLS-2005>
-812.840759277344

> <r_mmod_Solvation_Energy-OPLS-2005>
-247.763076782227

> <b_mmod_Minimization_Converged-OPLS-2005>
0

> <r_mmod_RMS_Derivative-OPLS-2005>
1.55784380435944

$$$$
59
                    3D
 Structure written by MMmdl.
159167  0  0  1  0            999 V2000
  -30.6377  -14.5245   20.5998 C   0  0  0  0  0  0
  -30.4487  -12.3497   19.4154 C   0  0  0  0  0  0
  -29.5033  -12.5273   18.2061 C   0  0  0  0  0  0
  -28.0242  -12.3726   18.6176 C   0  0  0  0  0  0
  -27.6678  -13.1990   19.8811 C   0  0  2  0  0  0
  -28.7097  -12.9448   20.9931 C   0  0  0  0  0  0
  -25.2624  -13.8138   20.5674 C   0  0  0  0  0  0
  -24.1857  -13.0428   20.9160 C   0  0  0  0  0  0
  -24.6396  -11.6891   20.8716 C   0  0  0  0  0  0
  -23.9054  -10.4284   21.0393 C   0  0  0  0  0  0
  -24.3607   -9.4204   21.9176 C   0  0  0  0  0  0
  -23.6284   -8.2241   22.0751 C   0  0  0  0  0  0
  -22.4268   -8.0278   21.3542 C   0  0  0  0  0  0
  -21.9898   -9.0249   20.4645 C   0  0  0  0  0  0
  -22.7224  -10.2127   20.3048 C   0  0  0  0  0  0
  -21.6851   -6.0731   22.5277 C   0  0  0  0  0  0
  -21.4013   -6.5635   23.8211 C   0  0  0  0  0  0
  -21.3659   -5.6789   24.9173 C   0  0  0  0  0  0
  -21.6043   -4.3052   24.7224 C   0  0  0  0  0  0
  -21.8822   -3.8142   23.4346 C   0  0  0  0  0  0
  -21.9193   -4.6958   22.3401 C   0  0  0  0  0  0
  -22.7882  -13.5237   21.1830 C   0  0  0  0  0  0
  -22.1663   -4.2143   21.0979 F   0  0  0  0  0  0
  -21.5628   -3.4537   25.7738 F   0  0  0  0  0  0
  -30.0393  -13.3046   20.4588 N   0  0  0  0  0  0
  -26.3056  -12.9289   20.3375 N   0  0  0  0  0  0
  -25.9324  -11.6458   20.5751 N   0  0  0  0  0  0
  -22.0521  -12.8235   22.0389 N   0  0  0  0  0  0
  -25.4375  -15.1856   20.4101 N   0  0  0  0  0  0
  -31.7265  -14.8020   20.0841 O   0  0  0  0  0  0
  -21.6637   -6.8872   21.4240 O   0  0  0  0  0  0
  -22.3568  -14.5547   20.6685 O   0  0  0  0  0  0
  -24.6194  -31.8643   23.2059 C   0  0  0  0  0  0
  -25.9067  -32.4807   23.8367 C   0  0  1  0  0  0
  -27.2405  -27.3875   20.0880 C   0  0  0  0  0  0
  -25.5910  -33.8604   24.2303 N   0  0  0  0  0  0
  -23.4093  -30.4888   21.5474 C   0  0  2  0  0  0
  -24.8548  -28.9501   20.1117 C   0  0  0  0  0  0
  -22.7437  -29.4650   22.4956 C   0  0  0  0  0  0
  -18.0281  -28.1388   22.8498 C   0  0  0  0  0  0
  -24.1487  -36.7298   23.2638 C   0  0  0  0  0  0
  -25.9439  -30.8147   21.3660 C   0  0  0  0  0  0
  -26.0189  -29.4471   20.7081 C   0  0  0  0  0  0
  -27.2078  -28.6731   20.6943 C   0  0  0  0  0  0
  -26.0408  -26.9107   19.5051 C   0  0  0  0  0  0
  -24.8633  -27.6825   19.5095 C   0  0  0  0  0  0
  -23.6198  -29.8228   20.1622 C   0  0  0  0  0  0
  -25.4111  -36.3101   24.0338 C   0  0  1  0  0  0
  -20.5877  -28.3676   23.1309 C   0  0  2  0  0  0
  -20.6770  -26.9405   22.5421 C   0  0  0  0  0  0
  -19.5748  -26.6390   21.5217 C   0  0  0  0  0  0
  -18.1927  -26.7935   22.1629 C   0  0  0  0  0  0
  -19.1532  -28.8846   23.2902 C   0  0  0  0  0  0
  -18.9459  -30.1451   23.8919 C   0  0  0  0  0  0
  -17.6462  -30.6595   24.0570 C   0  0  0  0  0  0
  -25.9046  -34.9471   23.5117 C   0  0  0  0  0  0
  -16.5352  -29.9102   23.6332 C   0  0  0  0  0  0
  -16.7271  -28.6513   23.0360 C   0  0  0  0  0  0
  -26.4477  -31.6605   25.0713 C   0  0  0  0  0  0
  -25.3735  -31.3724   26.1456 C   0  0  0  0  0  0
  -27.0308  -30.3044   24.6111 C   0  0  0  0  0  0
  -27.6043  -32.4326   25.7483 C   0  0  0  0  0  0
  -27.5578  -37.1806   24.8466 C   0  0  0  0  0  0
  -21.4155  -29.3041   22.3705 N   0  0  0  0  0  0
  -26.4293  -37.3792   23.9407 N   0  0  0  0  0  0
  -24.6759  -31.0713   22.0974 N   0  0  0  0  0  0
  -23.4189  -28.8186   23.3007 O   0  0  0  0  0  0
  -28.4197  -26.6439   20.1398 O   0  0  0  0  0  0
  -26.5610  -34.8928   22.4682 O   0  0  0  0  0  0
  -23.5376  -32.1408   23.7442 O   0  0  0  0  0  0
  -30.4115  -17.8067   20.6739 C   0  0  0  0  0  0
  -28.9211  -19.0511   21.9546 C   0  0  0  0  0  0
  -29.9288  -19.1327   21.0260 C   0  0  0  0  0  0
  -29.7832  -16.7635   21.3402 C   0  0  0  0  0  0
  -31.1155  -23.0683   19.0694 C   0  0  0  0  0  0
  -29.7903  -25.9249   18.3564 C   0  0  0  0  0  0
  -30.4931  -20.4664   20.5207 C   0  0  0  0  0  0
  -28.9090  -24.1137   20.1141 C   0  0  0  0  0  0
  -30.0421  -22.9777   20.1852 C   0  0  1  0  0  0
  -28.6626  -25.4741   19.3036 C   0  0  1  0  0  0
  -29.9077  -15.3994   21.3278 N   0  0  0  0  0  0
  -29.4960  -21.5728   20.3144 N   0  3  0  0  0  0
  -28.5531  -17.4108   22.3939 S   0  0  0  0  0  0
  -31.4857  -12.4985   19.1087 H   0  0  0  0  0  0
  -30.3955  -11.3294   19.7986 H   0  0  0  0  0  0
  -29.7508  -11.8057   17.4264 H   0  0  0  0  0  0
  -29.6563  -13.5140   17.7658 H   0  0  0  0  0  0
  -27.8398  -11.3144   18.8059 H   0  0  0  0  0  0
  -27.3717  -12.6510   17.7894 H   0  0  0  0  0  0
  -27.7201  -14.2520   19.6030 H   0  0  0  0  0  0
  -28.7045  -11.8909   21.2764 H   0  0  0  0  0  0
  -28.4459  -13.4782   21.9070 H   0  0  0  0  0  0
  -25.2758   -9.5681   22.4742 H   0  0  0  0  0  0
  -23.9995   -7.4635   22.7471 H   0  0  0  0  0  0
  -21.0830   -8.8764   19.8953 H   0  0  0  0  0  0
  -22.3684  -10.9661   19.6152 H   0  0  0  0  0  0
  -21.2007   -7.6144   23.9711 H   0  0  0  0  0  0
  -21.1478   -6.0519   25.9074 H   0  0  0  0  0  0
  -22.0602   -2.7605   23.2848 H   0  0  0  0  0  0
  -22.4130  -11.9889   22.4771 H   0  0  0  0  0  0
  -21.1142  -13.1263   22.2599 H   0  0  0  0  0  0
  -24.6765  -15.8462   20.5240 H   0  0  0  0  0  0
  -26.2997  -15.6226   20.1087 H   0  0  0  0  0  0
  -26.7132  -32.5493   23.1120 H   0  0  0  0  0  0
  -25.0068  -33.9757   25.0453 H   0  0  0  0  0  0
  -22.7004  -31.3068   21.4075 H   0  0  0  0  0  0
  -23.3756  -35.9623   23.3319 H   0  0  0  0  0  0
  -24.3578  -36.8895   22.2047 H   0  0  0  0  0  0
  -23.7235  -37.6505   23.6646 H   0  0  0  0  0  0
  -26.0659  -31.5809   20.5996 H   0  0  0  0  0  0
  -26.8282  -30.8634   21.9901 H   0  0  0  0  0  0
  -28.1049  -29.0564   21.1606 H   0  0  0  0  0  0
  -25.9598  -25.9293   19.0675 H   0  0  0  0  0  0
  -23.9634  -27.2855   19.0599 H   0  0  0  0  0  0
  -23.7333  -30.5981   19.4039 H   0  0  0  0  0  0
  -22.7423  -29.2472   19.8634 H   0  0  0  0  0  0
  -25.1294  -36.1958   25.0834 H   0  0  0  0  0  0
  -20.9971  -28.3241   24.1426 H   0  0  0  0  0  0
  -20.5676  -26.2276   23.3609 H   0  0  0  0  0  0
  -21.6639  -26.7453   22.1204 H   0  0  0  0  0  0
  -19.6907  -25.6303   21.1236 H   0  0  0  0  0  0
  -19.6692  -27.3208   20.6754 H   0  0  0  0  0  0
  -17.4197  -26.6692   21.4028 H   0  0  0  0  0  0
  -18.0327  -26.0076   22.9027 H   0  0  0  0  0  0
  -19.7935  -30.7262   24.2293 H   0  0  0  0  0  0
  -17.5024  -31.6279   24.5167 H   0  0  0  0  0  0
  -15.5353  -30.3017   23.7648 H   0  0  0  0  0  0
  -15.8668  -28.0842   22.7070 H   0  0  0  0  0  0
  -24.5912  -30.7067   25.7796 H   0  0  0  0  0  0
  -24.8921  -32.2883   26.4895 H   0  0  0  0  0  0
  -25.8080  -30.8904   27.0223 H   0  0  0  0  0  0
  -26.2856  -29.6811   24.1152 H   0  0  0  0  0  0
  -27.4060  -29.7279   25.4576 H   0  0  0  0  0  0
  -27.8705  -30.4362   23.9281 H   0  0  0  0  0  0
  -27.2657  -33.3619   26.2077 H   0  0  0  0  0  0
  -28.3849  -32.6895   25.0311 H   0  0  0  0  0  0
  -28.0718  -31.8441   26.5388 H   0  0  0  0  0  0
  -28.2609  -38.0091   24.7517 H   0  0  0  0  0  0
  -28.1063  -36.2628   24.6300 H   0  0  0  0  0  0
  -27.2295  -37.1458   25.8869 H   0  0  0  0  0  0
  -20.9316  -29.8772   21.6939 H   0  0  0  0  0  0
  -26.0184  -38.2867   24.1418 H   0  0  0  0  0  0
  -31.2143  -17.6715   19.9618 H   0  0  0  0  0  0
  -28.3692  -19.8456   22.4416 H   0  0  0  0  0  0
  -31.5972  -24.0441   19.0619 H   0  0  0  0  0  0
  -30.6944  -22.8893   18.0800 H   0  0  0  0  0  0
  -31.9258  -22.3557   19.2159 H   0  0  0  0  0  0
  -30.0122  -25.1703   17.6026 H   0  0  0  0  0  0
  -30.7070  -26.1583   18.8976 H   0  0  0  0  0  0
  -29.4985  -26.8281   17.8192 H   0  0  0  0  0  0
  -31.0231  -20.2984   19.5830 H   0  0  0  0  0  0
  -31.2473  -20.8118   21.2289 H   0  0  0  0  0  0
  -28.7396  -23.6642   19.1356 H   0  0  0  0  0  0
  -29.7105  -24.7346   20.5157 H   0  0  0  0  0  0
  -30.5861  -23.1095   21.1268 H   0  0  0  0  0  0
  -27.8237  -25.3145   18.6303 H   0  0  0  0  0  0
  -29.1613  -14.9293   21.8174 H   0  0  0  0  0  0
  -28.8824  -21.5637   21.1109 H   0  0  0  0  0  0
  -28.9387  -21.3367   19.5103 H   0  0  0  0  0  0
  1 25  1  0  0  0
  1 30  2  0  0  0
  1 81  1  0  0  0
  2  3  1  0  0  0
  2 25  1  0  0  0
  2 84  1  0  0  0
  2 85  1  0  0  0
  3  4  1  0  0  0
  3 86  1  0  0  0
  3 87  1  0  0  0
  4  5  1  0  0  0
  4 88  1  0  0  0
  4 89  1  0  0  0
  5  6  1  0  0  0
  5 26  1  0  0  0
  5 90  1  0  0  0
  6 25  1  0  0  0
  6 91  1  0  0  0
  6 92  1  0  0  0
  7  8  2  0  0  0
  7 26  1  0  0  0
  7 29  1  0  0  0
  8  9  1  0  0  0
  8 22  1  0  0  0
  9 10  1  0  0  0
  9 27  2  0  0  0
 10 11  2  0  0  0
 10 15  1  0  0  0
 11 12  1  0  0  0
 11 93  1  0  0  0
 12 13  2  0  0  0
 12 94  1  0  0  0
 13 14  1  0  0  0
 13 31  1  0  0  0
 14 15  2  0  0  0
 14 95  1  0  0  0
 15 96  1  0  0  0
 16 17  2  0  0  0
 16 21  1  0  0  0
 16 31  1  0  0  0
 17 18  1  0  0  0
 17 97  1  0  0  0
 18 19  2  0  0  0
 18 98  1  0  0  0
 19 20  1  0  0  0
 19 24  1  0  0  0
 20 21  2  0  0  0
 20 99  1  0  0  0
 21 23  1  0  0  0
 22 28  1  0  0  0
 22 32  2  0  0  0
 26 27  1  0  0  0
 28100  1  0  0  0
 28101  1  0  0  0
 29102  1  0  0  0
 29103  1  0  0  0
 33 34  1  0  0  0
 33 66  1  0  0  0
 33 70  2  0  0  0
 34 36  1  0  0  0
 34 59  1  0  0  0
 34104  1  0  0  0
 35 44  2  0  0  0
 35 45  1  0  0  0
 35 68  1  0  0  0
 36 56  1  0  0  0
 36105  1  0  0  0
 37 39  1  0  0  0
 37 47  1  0  0  0
 37 66  1  0  0  0
 37106  1  0  0  0
 38 43  2  0  0  0
 38 46  1  0  0  0
 38 47  1  0  0  0
 39 64  1  0  0  0
 39 67  2  0  0  0
 40 52  1  0  0  0
 40 53  2  0  0  0
 40 58  1  0  0  0
 41107  1  0  0  0
 41108  1  0  0  0
 41109  1  0  0  0
 41 48  1  0  0  0
 42 43  1  0  0  0
 42 66  1  0  0  0
 42110  1  0  0  0
 42111  1  0  0  0
 43 44  1  0  0  0
 44112  1  0  0  0
 45 46  2  0  0  0
 45113  1  0  0  0
 46114  1  0  0  0
 47115  1  0  0  0
 47116  1  0  0  0
 48 56  1  0  0  0
 48 65  1  0  0  0
 48117  1  0  0  0
 49 50  1  0  0  0
 49 53  1  0  0  0
 49 64  1  0  0  0
 49118  1  0  0  0
 50 51  1  0  0  0
 50119  1  0  0  0
 50120  1  0  0  0
 51 52  1  0  0  0
 51121  1  0  0  0
 51122  1  0  0  0
 52123  1  0  0  0
 52124  1  0  0  0
 53 54  1  0  0  0
 54 55  2  0  0  0
 54125  1  0  0  0
 55 57  1  0  0  0
 55126  1  0  0  0
 56 69  2  0  0  0
 57 58  2  0  0  0
 57127  1  0  0  0
 58128  1  0  0  0
 59 60  1  0  0  0
 59 61  1  0  0  0
 59 62  1  0  0  0
 60129  1  0  0  0
 60130  1  0  0  0
 60131  1  0  0  0
 61132  1  0  0  0
 61133  1  0  0  0
 61134  1  0  0  0
 62135  1  0  0  0
 62136  1  0  0  0
 62137  1  0  0  0
 63 65  1  0  0  0
 63138  1  0  0  0
 63139  1  0  0  0
 63140  1  0  0  0
 64141  1  0  0  0
 65142  1  0  0  0
 68 80  1  0  0  0
 71 73  1  0  0  0
 71 74  2  0  0  0
 71143  1  0  0  0
 72 73  2  0  0  0
 72 83  1  0  0  0
 72144  1  0  0  0
 73 77  1  0  0  0
 74 81  1  0  0  0
 74 83  1  0  0  0
 75145  1  0  0  0
 75146  1  0  0  0
 75147  1  0  0  0
 75 79  1  0  0  0
 76148  1  0  0  0
 76149  1  0  0  0
 76150  1  0  0  0
 76 80  1  0  0  0
 77 82  1  0  0  0
 77151  1  0  0  0
 77152  1  0  0  0
 78 79  1  0  0  0
 78 80  1  0  0  0
 78153  1  0  0  0
 78154  1  0  0  0
 79 82  1  0  0  0
 79155  1  0  0  0
 80156  1  0  0  0
 81157  1  0  0  0
 82158  1  0  0  0
 82159  1  0  0  0
M  CHG  1  82   1
M  ISO  4   1 100  68 101  80 101  81 100
M  END
> <chiral flag>
0

> <version>
0

> <s_m_source_file>
/data/baiqing/PycharmProjects/Reinvent-master-3.2/result/LINK_invent/BTK/process_docking_weight1_custom_product_contain_oxygen_bond_distance_aromatic_linkinvent_7_9_3/rearranged_h_0199.sdf

> <i_m_source_file_index>
60

> <r_mmod_Potential_Energy-OPLS-2005>
45.1619911193848

> <r_mmod_Stretch_Energy-OPLS-2005>
60.5916748046875

> <r_mmod_Bend_Energy-OPLS-2005>
377.506439208984

> <r_mmod_Torsional_Energy-OPLS-2005>
223.916122436523

> <r_mmod_Improper_Torsional_Energy-OPLS-2005>
2.98762917518616

> <r_mmod_Van_der_Waal_Energy-OPLS-2005>
144.920959472656

> <r_mmod_Electrostatic_Energy-OPLS-2005>
-308.315826416016

> <r_mmod_Solvation_Energy-OPLS-2005>
-477.980865478516

> <b_mmod_Minimization_Converged-OPLS-2005>
0

> <r_mmod_RMS_Derivative-OPLS-2005>
0.928745031356812

$$$$
60
                    3D
 Structure written by MMmdl.
151159  0  0  1  0            999 V2000
  -30.6220  -14.7926   20.4417 C   0  0  0  0  0  0
  -30.4251  -12.4832   19.4831 C   0  0  0  0  0  0
  -29.5076  -12.5053   18.2418 C   0  0  0  0  0  0
  -28.0364  -12.3232   18.6582 C   0  0  0  0  0  0
  -27.6343  -13.2398   19.8443 C   0  0  2  0  0  0
  -28.6793  -13.2163   20.9810 C   0  0  0  0  0  0
  -25.2478  -13.8215   20.5703 C   0  0  0  0  0  0
  -24.1786  -13.0443   20.9223 C   0  0  0  0  0  0
  -24.6391  -11.6926   20.8761 C   0  0  0  0  0  0
  -23.9079  -10.4293   21.0412 C   0  0  0  0  0  0
  -24.3628   -9.4205   21.9188 C   0  0  0  0  0  0
  -23.6298   -8.2243   22.0756 C   0  0  0  0  0  0
  -22.4281   -8.0283   21.3546 C   0  0  0  0  0  0
  -21.9919   -9.0258   20.4649 C   0  0  0  0  0  0
  -22.7252  -10.2134   20.3059 C   0  0  0  0  0  0
  -21.6856   -6.0738   22.5280 C   0  0  0  0  0  0
  -21.4014   -6.5642   23.8212 C   0  0  0  0  0  0
  -21.3659   -5.6796   24.9175 C   0  0  0  0  0  0
  -21.6042   -4.3055   24.7225 C   0  0  0  0  0  0
  -21.8821   -3.8149   23.4344 C   0  0  0  0  0  0
  -21.9190   -4.6967   22.3402 C   0  0  0  0  0  0
  -22.7803  -13.5213   21.1876 C   0  0  0  0  0  0
  -22.1661   -4.2153   21.0979 F   0  0  0  0  0  0
  -21.5627   -3.4540   25.7736 F   0  0  0  0  0  0
  -29.9745  -13.5709   20.3892 N   0  0  0  0  0  0
  -26.2902  -12.9437   20.3273 N   0  0  0  0  0  0
  -25.9324  -11.6572   20.5764 N   0  0  0  0  0  0
  -22.0456  -12.8199   22.0431 N   0  0  0  0  0  0
  -25.4141  -15.1943   20.4113 N   0  0  0  0  0  0
  -31.8255  -14.8014   20.1553 O   0  0  0  0  0  0
  -21.6642   -6.8883   21.4241 O   0  0  0  0  0  0
  -22.3487  -14.5517   20.6720 O   0  0  0  0  0  0
  -24.6324  -31.8528   23.1952 C   0  0  0  0  0  0
  -25.9142  -32.4735   23.8306 C   0  0  1  0  0  0
  -27.2169  -27.2377   20.1321 C   0  0  0  0  0  0
  -25.5931  -33.8541   24.2230 N   0  0  0  0  0  0
  -23.4289  -30.4741   21.5388 C   0  0  2  0  0  0
  -24.8744  -28.9148   20.1065 C   0  0  0  0  0  0
  -22.7501  -29.4585   22.4897 C   0  0  0  0  0  0
  -18.0292  -28.1390   22.8482 C   0  0  0  0  0  0
  -24.1490  -36.7272   23.2643 C   0  0  0  0  0  0
  -25.9751  -30.7580   21.3769 C   0  0  0  0  0  0
  -26.0448  -29.3782   20.7184 C   0  0  0  0  0  0
  -27.2141  -28.5509   20.7210 C   0  0  0  0  0  0
  -26.0199  -26.8396   19.4973 C   0  0  0  0  0  0
  -24.8689  -27.6553   19.4852 C   0  0  0  0  0  0
  -23.6466  -29.8056   20.1549 C   0  0  0  0  0  0
  -25.4119  -36.3057   24.0324 C   0  0  1  0  0  0
  -20.5895  -28.3700   23.1271 C   0  0  2  0  0  0
  -20.6778  -26.9414   22.5417 C   0  0  0  0  0  0
  -19.5757  -26.6385   21.5216 C   0  0  0  0  0  0
  -18.1935  -26.7933   22.1623 C   0  0  0  0  0  0
  -19.1547  -28.8863   23.2869 C   0  0  0  0  0  0
  -18.9468  -30.1464   23.8890 C   0  0  0  0  0  0
  -17.6467  -30.6590   24.0565 C   0  0  0  0  0  0
  -25.9065  -34.9431   23.5081 C   0  0  0  0  0  0
  -16.5358  -29.9090   23.6334 C   0  0  0  0  0  0
  -16.7277  -28.6510   23.0351 C   0  0  0  0  0  0
  -26.4508  -31.6571   25.0707 C   0  0  0  0  0  0
  -25.3727  -31.3732   26.1424 C   0  0  0  0  0  0
  -27.0362  -30.2988   24.6210 C   0  0  0  0  0  0
  -27.6059  -32.4322   25.7477 C   0  0  0  0  0  0
  -27.5577  -37.1789   24.8467 C   0  0  0  0  0  0
  -21.4207  -29.3041   22.3652 N   0  0  0  0  0  0
  -26.4288  -37.3762   23.9410 N   0  0  0  0  0  0
  -24.6980  -31.0473   22.0932 N   0  0  0  0  0  0
  -23.4198  -28.8136   23.3007 O   0  0  0  0  0  0
  -28.3290  -26.3635   20.2279 O   0  0  0  0  0  0
  -26.5641  -34.8913   22.4654 O   0  0  0  0  0  0
  -23.5473  -32.1363   23.7241 O   0  0  0  0  0  0
  -31.7653  -18.9781   20.2664 C   0  0  0  0  0  0
  -30.2028  -17.3909   20.5014 C   0  0  0  0  0  0
  -29.6778  -19.6710   20.4050 C   0  0  0  0  0  0
  -28.3664  -23.5666   20.4949 C   0  0  0  0  0  0
  -29.0016  -22.1998   19.8484 C   0  0  0  0  0  0
  -28.4177  -24.9678   19.6497 C   0  0  0  0  0  0
  -31.4967  -17.6931   20.3826 N   0  0  0  0  0  0
  -30.9463  -20.0081   20.2576 N   0  0  0  0  0  0
  -29.2349  -18.3777   20.5383 N   0  0  0  0  0  0
  -33.0860  -19.2873   20.1799 N   0  0  0  0  0  0
  -29.8788  -15.9763   20.6000 N   0  0  0  0  0  0
  -28.7899  -20.8085   20.4582 N   0  0  0  0  0  0
  -31.4658  -12.5942   19.1749 H   0  0  0  0  0  0
  -30.3694  -11.5181   19.9891 H   0  0  0  0  0  0
  -29.7976  -11.7207   17.5421 H   0  0  0  0  0  0
  -29.6265  -13.4508   17.7106 H   0  0  0  0  0  0
  -27.9034  -11.2778   18.9398 H   0  0  0  0  0  0
  -27.3768  -12.4928   17.8066 H   0  0  0  0  0  0
  -27.6151  -14.2524   19.4411 H   0  0  0  0  0  0
  -28.7263  -12.2319   21.4489 H   0  0  0  0  0  0
  -28.4073  -13.9182   21.7712 H   0  0  0  0  0  0
  -25.2773   -9.5678   22.4764 H   0  0  0  0  0  0
  -24.0007   -7.4633   22.7473 H   0  0  0  0  0  0
  -21.0853   -8.8781   19.8953 H   0  0  0  0  0  0
  -22.3715  -10.9676   19.6170 H   0  0  0  0  0  0
  -21.2011   -7.6151   23.9718 H   0  0  0  0  0  0
  -21.1479   -6.0523   25.9077 H   0  0  0  0  0  0
  -22.0600   -2.7611   23.2843 H   0  0  0  0  0  0
  -22.4078  -11.9860   22.4816 H   0  0  0  0  0  0
  -21.1073  -13.1216   22.2647 H   0  0  0  0  0  0
  -24.6399  -15.8412   20.5173 H   0  0  0  0  0  0
  -26.2492  -15.6379   20.0520 H   0  0  0  0  0  0
  -26.7197  -32.5376   23.1033 H   0  0  0  0  0  0
  -25.0068  -33.9670   25.0369 H   0  0  0  0  0  0
  -22.7263  -31.2971   21.3915 H   0  0  0  0  0  0
  -23.3755  -35.9601   23.3304 H   0  0  0  0  0  0
  -24.3575  -36.8903   22.2058 H   0  0  0  0  0  0
  -23.7244  -37.6472   23.6670 H   0  0  0  0  0  0
  -26.1176  -31.5181   20.6078 H   0  0  0  0  0  0
  -26.8514  -30.8062   22.0119 H   0  0  0  0  0  0
  -28.1086  -28.8989   21.2190 H   0  0  0  0  0  0
  -25.9308  -25.8688   19.0360 H   0  0  0  0  0  0
  -23.9698  -27.2921   19.0074 H   0  0  0  0  0  0
  -23.7720  -30.5815   19.3986 H   0  0  0  0  0  0
  -22.7640  -29.2409   19.8498 H   0  0  0  0  0  0
  -25.1302  -36.1897   25.0817 H   0  0  0  0  0  0
  -20.9992  -28.3285   24.1391 H   0  0  0  0  0  0
  -20.5676  -26.2309   23.3622 H   0  0  0  0  0  0
  -21.6643  -26.7437   22.1206 H   0  0  0  0  0  0
  -19.6916  -25.6295   21.1249 H   0  0  0  0  0  0
  -19.6697  -27.3197   20.6745 H   0  0  0  0  0  0
  -17.4202  -26.6690   21.4023 H   0  0  0  0  0  0
  -18.0325  -26.0078   22.9023 H   0  0  0  0  0  0
  -19.7945  -30.7285   24.2254 H   0  0  0  0  0  0
  -17.5020  -31.6270   24.5169 H   0  0  0  0  0  0
  -15.5354  -30.2987   23.7664 H   0  0  0  0  0  0
  -15.8680  -28.0828   22.7063 H   0  0  0  0  0  0
  -24.5912  -30.7069   25.7754 H   0  0  0  0  0  0
  -24.8907  -32.2902   26.4820 H   0  0  0  0  0  0
  -25.8043  -30.8934   27.0216 H   0  0  0  0  0  0
  -26.2951  -29.6721   24.1237 H   0  0  0  0  0  0
  -27.4046  -29.7269   25.4734 H   0  0  0  0  0  0
  -27.8824  -30.4259   23.9455 H   0  0  0  0  0  0
  -27.2668  -33.3635   26.2023 H   0  0  0  0  0  0
  -28.3881  -32.6864   25.0311 H   0  0  0  0  0  0
  -28.0708  -31.8469   26.5419 H   0  0  0  0  0  0
  -28.2594  -38.0088   24.7506 H   0  0  0  0  0  0
  -28.1074  -36.2616   24.6296 H   0  0  0  0  0  0
  -27.2291  -37.1441   25.8871 H   0  0  0  0  0  0
  -20.9396  -29.8753   21.6848 H   0  0  0  0  0  0
  -26.0164  -38.2835   24.1417 H   0  0  0  0  0  0
  -28.8689  -23.7370   21.4469 H   0  0  0  0  0  0
  -27.3228  -23.3810   20.7495 H   0  0  0  0  0  0
  -30.0737  -22.3648   19.7371 H   0  0  0  0  0  0
  -28.6288  -22.1267   18.8263 H   0  0  0  0  0  0
  -27.7637  -24.8726   18.7850 H   0  0  0  0  0  0
  -29.4098  -24.9717   19.1979 H   0  0  0  0  0  0
  -33.7158  -18.5431   19.9129 H   0  0  0  0  0  0
  -33.3224  -20.2103   19.8423 H   0  0  0  0  0  0
  -28.9030  -15.8068   20.7731 H   0  0  0  0  0  0
  -27.8199  -20.5470   20.5984 H   0  0  0  0  0  0
  1 25  1  0  0  0
  1 30  2  0  0  0
  1 81  1  0  0  0
  2  3  1  0  0  0
  2 25  1  0  0  0
  2 83  1  0  0  0
  2 84  1  0  0  0
  3  4  1  0  0  0
  3 85  1  0  0  0
  3 86  1  0  0  0
  4  5  1  0  0  0
  4 87  1  0  0  0
  4 88  1  0  0  0
  5  6  1  0  0  0
  5 26  1  0  0  0
  5 89  1  0  0  0
  6 25  1  0  0  0
  6 90  1  0  0  0
  6 91  1  0  0  0
  7  8  2  0  0  0
  7 26  1  0  0  0
  7 29  1  0  0  0
  8  9  1  0  0  0
  8 22  1  0  0  0
  9 10  1  0  0  0
  9 27  2  0  0  0
 10 11  2  0  0  0
 10 15  1  0  0  0
 11 12  1  0  0  0
 11 92  1  0  0  0
 12 13  2  0  0  0
 12 93  1  0  0  0
 13 14  1  0  0  0
 13 31  1  0  0  0
 14 15  2  0  0  0
 14 94  1  0  0  0
 15 95  1  0  0  0
 16 17  2  0  0  0
 16 21  1  0  0  0
 16 31  1  0  0  0
 17 18  1  0  0  0
 17 96  1  0  0  0
 18 19  2  0  0  0
 18 97  1  0  0  0
 19 20  1  0  0  0
 19 24  1  0  0  0
 20 21  2  0  0  0
 20 98  1  0  0  0
 21 23  1  0  0  0
 22 28  1  0  0  0
 22 32  2  0  0  0
 26 27  1  0  0  0
 28 99  1  0  0  0
 28100  1  0  0  0
 29101  1  0  0  0
 29102  1  0  0  0
 33 34  1  0  0  0
 33 66  1  0  0  0
 33 70  2  0  0  0
 34 36  1  0  0  0
 34 59  1  0  0  0
 34103  1  0  0  0
 35 44  2  0  0  0
 35 45  1  0  0  0
 35 68  1  0  0  0
 36 56  1  0  0  0
 36104  1  0  0  0
 37 39  1  0  0  0
 37 47  1  0  0  0
 37 66  1  0  0  0
 37105  1  0  0  0
 38 43  2  0  0  0
 38 46  1  0  0  0
 38 47  1  0  0  0
 39 64  1  0  0  0
 39 67  2  0  0  0
 40 52  1  0  0  0
 40 53  2  0  0  0
 40 58  1  0  0  0
 41106  1  0  0  0
 41107  1  0  0  0
 41108  1  0  0  0
 41 48  1  0  0  0
 42 43  1  0  0  0
 42 66  1  0  0  0
 42109  1  0  0  0
 42110  1  0  0  0
 43 44  1  0  0  0
 44111  1  0  0  0
 45 46  2  0  0  0
 45112  1  0  0  0
 46113  1  0  0  0
 47114  1  0  0  0
 47115  1  0  0  0
 48 56  1  0  0  0
 48 65  1  0  0  0
 48116  1  0  0  0
 49 50  1  0  0  0
 49 53  1  0  0  0
 49 64  1  0  0  0
 49117  1  0  0  0
 50 51  1  0  0  0
 50118  1  0  0  0
 50119  1  0  0  0
 51 52  1  0  0  0
 51120  1  0  0  0
 51121  1  0  0  0
 52122  1  0  0  0
 52123  1  0  0  0
 53 54  1  0  0  0
 54 55  2  0  0  0
 54124  1  0  0  0
 55 57  1  0  0  0
 55125  1  0  0  0
 56 69  2  0  0  0
 57 58  2  0  0  0
 57126  1  0  0  0
 58127  1  0  0  0
 59 60  1  0  0  0
 59 61  1  0  0  0
 59 62  1  0  0  0
 60128  1  0  0  0
 60129  1  0  0  0
 60130  1  0  0  0
 61131  1  0  0  0
 61132  1  0  0  0
 61133  1  0  0  0
 62134  1  0  0  0
 62135  1  0  0  0
 62136  1  0  0  0
 63 65  1  0  0  0
 63137  1  0  0  0
 63138  1  0  0  0
 63139  1  0  0  0
 64140  1  0  0  0
 65141  1  0  0  0
 68 76  1  0  0  0
 71 77  2  0  0  0
 71 78  1  0  0  0
 71 80  1  0  0  0
 72 77  1  0  0  0
 72 79  2  0  0  0
 72 81  1  0  0  0
 73 78  2  0  0  0
 73 79  1  0  0  0
 73 82  1  0  0  0
 74 75  1  0  0  0
 74 76  1  0  0  0
 74142  1  0  0  0
 74143  1  0  0  0
 75 82  1  0  0  0
 75144  1  0  0  0
 75145  1  0  0  0
 76146  1  0  0  0
 76147  1  0  0  0
 80148  1  0  0  0
 80149  1  0  0  0
 81150  1  0  0  0
 82151  1  0  0  0
M  ISO  4   1 100  68 101  76 101  81 100
M  END
> <chiral flag>
0

> <version>
0

> <s_m_source_file>
/data/baiqing/PycharmProjects/Reinvent-master-3.2/result/LINK_invent/BTK/process_docking_weight1_custom_product_contain_oxygen_bond_distance_aromatic_linkinvent_7_9_3/rearranged_h_0199.sdf

> <i_m_source_file_index>
61

> <r_mmod_Potential_Energy-OPLS-2005>
-626.469665527344

> <r_mmod_Stretch_Energy-OPLS-2005>
145.015716552734

> <r_mmod_Bend_Energy-OPLS-2005>
204.573257446289

> <r_mmod_Torsional_Energy-OPLS-2005>
198.226150512695

> <r_mmod_Improper_Torsional_Energy-OPLS-2005>
9.08986854553223

> <r_mmod_Van_der_Waal_Energy-OPLS-2005>
160.579895019531

> <r_mmod_Electrostatic_Energy-OPLS-2005>
-1186.05151367188

> <r_mmod_Solvation_Energy-OPLS-2005>
-260.382965087891

> <b_mmod_Minimization_Converged-OPLS-2005>
0

> <r_mmod_RMS_Derivative-OPLS-2005>
1.08694076538086

$$$$
61
                    3D
 Structure written by MMmdl.
162170  0  0  1  0            999 V2000
  -30.7764  -14.4940   20.5880 C   0  0  0  0  0  0
  -30.4016  -12.3549   19.3898 C   0  0  0  0  0  0
  -29.4685  -12.5826   18.1845 C   0  0  0  0  0  0
  -27.9928  -12.4305   18.6016 C   0  0  0  0  0  0
  -27.6536  -13.2409   19.8803 C   0  0  2  0  0  0
  -28.7169  -13.0355   20.9832 C   0  0  0  0  0  0
  -25.2407  -13.8180   20.5672 C   0  0  0  0  0  0
  -24.1683  -13.0309   20.9051 C   0  0  0  0  0  0
  -24.6379  -11.6850   20.8686 C   0  0  0  0  0  0
  -23.9133  -10.4154   21.0385 C   0  0  0  0  0  0
  -24.3691   -9.4065   21.9141 C   0  0  0  0  0  0
  -23.6300   -8.2131   22.0732 C   0  0  0  0  0  0
  -22.4251   -8.0232   21.3604 C   0  0  0  0  0  0
  -21.9864   -9.0215   20.4736 C   0  0  0  0  0  0
  -22.7283  -10.2030   20.3089 C   0  0  0  0  0  0
  -21.6760   -6.0740   22.5296 C   0  0  0  0  0  0
  -21.3970   -6.5653   23.8229 C   0  0  0  0  0  0
  -21.3674   -5.6802   24.9203 C   0  0  0  0  0  0
  -21.6027   -4.3069   24.7215 C   0  0  0  0  0  0
  -21.8807   -3.8173   23.4338 C   0  0  0  0  0  0
  -21.9149   -4.6970   22.3410 C   0  0  0  0  0  0
  -22.7717  -13.5121   21.1837 C   0  0  0  0  0  0
  -22.1623   -4.2171   21.1005 F   0  0  0  0  0  0
  -21.5693   -3.4560   25.7753 F   0  0  0  0  0  0
  -30.0455  -13.3437   20.4263 N   0  0  0  0  0  0
  -26.2963  -12.9447   20.3467 N   0  0  0  0  0  0
  -25.9348  -11.6530   20.5826 N   0  0  0  0  0  0
  -22.0604  -12.8259   22.0737 N   0  0  0  0  0  0
  -25.3819  -15.1928   20.4240 N   0  0  0  0  0  0
  -31.8516  -14.6652   20.0112 O   0  0  0  0  0  0
  -21.6592   -6.8850   21.4250 O   0  0  0  0  0  0
  -22.3241  -14.5276   20.6584 O   0  0  0  0  0  0
  -24.6086  -31.8630   23.2159 C   0  0  0  0  0  0
  -25.8992  -32.4812   23.8381 C   0  0  1  0  0  0
  -27.2138  -27.4510   20.0522 C   0  0  0  0  0  0
  -25.5778  -33.8608   24.2228 N   0  0  0  0  0  0
  -23.4002  -30.4930   21.5605 C   0  0  2  0  0  0
  -24.8385  -28.9688   20.1162 C   0  0  0  0  0  0
  -22.7428  -29.4624   22.5073 C   0  0  0  0  0  0
  -18.0239  -28.1413   22.8426 C   0  0  0  0  0  0
  -24.1533  -36.7363   23.2610 C   0  0  0  0  0  0
  -25.9301  -30.8343   21.3682 C   0  0  0  0  0  0
  -26.0052  -29.4741   20.7014 C   0  0  0  0  0  0
  -27.2039  -28.7245   20.6627 C   0  0  0  0  0  0
  -26.0377  -26.9574   19.4561 C   0  0  0  0  0  0
  -24.8467  -27.7105   19.4887 C   0  0  0  0  0  0
  -23.6035  -29.8400   20.1727 C   0  0  0  0  0  0
  -25.4125  -36.3113   24.0321 C   0  0  1  0  0  0
  -20.5820  -28.3660   23.1351 C   0  0  2  0  0  0
  -20.6754  -26.9420   22.5455 C   0  0  0  0  0  0
  -19.5779  -26.6397   21.5214 C   0  0  0  0  0  0
  -18.1924  -26.7950   22.1570 C   0  0  0  0  0  0
  -19.1491  -28.8825   23.2873 C   0  0  0  0  0  0
  -18.9445  -30.1398   23.8933 C   0  0  0  0  0  0
  -17.6481  -30.6599   24.0550 C   0  0  0  0  0  0
  -25.9012  -34.9487   23.5077 C   0  0  0  0  0  0
  -16.5342  -29.9138   23.6310 C   0  0  0  0  0  0
  -16.7245  -28.6546   23.0322 C   0  0  0  0  0  0
  -26.4498  -31.6602   25.0694 C   0  0  0  0  0  0
  -25.3819  -31.3763   26.1486 C   0  0  0  0  0  0
  -27.0239  -30.3000   24.6107 C   0  0  0  0  0  0
  -27.6095  -32.4349   25.7427 C   0  0  0  0  0  0
  -27.5632  -37.1840   24.8434 C   0  0  0  0  0  0
  -21.4158  -29.3005   22.3782 N   0  0  0  0  0  0
  -26.4313  -37.3792   23.9405 N   0  0  0  0  0  0
  -24.6660  -31.0755   22.1074 N   0  0  0  0  0  0
  -23.4204  -28.8235   23.3178 O   0  0  0  0  0  0
  -28.3492  -26.6737   20.0246 O   0  0  0  0  0  0
  -26.5713  -34.8930   22.4726 O   0  0  0  0  0  0
  -23.5269  -32.1405   23.7555 O   0  0  0  0  0  0
  -30.5046  -17.8566   21.5358 C   0  0  0  0  0  0
  -28.6240  -19.1831   21.1871 C   0  0  0  0  0  0
  -29.7678  -16.6672   21.2433 C   0  0  0  0  0  0
  -27.8767  -17.9942   20.9250 C   0  0  0  0  0  0
  -27.2604  -20.6454   22.7249 C   0  0  0  0  0  0
  -29.2598  -23.2834   22.8733 C   0  0  0  0  0  0
  -28.8469  -24.2160   20.4789 C   0  0  0  0  0  0
  -28.3032  -25.5924   20.9693 C   0  0  0  0  0  0
  -27.9582  -20.5730   21.3354 C   0  0  1  0  0  0
  -28.5540  -23.0711   21.5076 C   0  0  1  0  0  0
  -29.9490  -19.1004   21.4877 N   0  0  0  0  0  0
  -28.4535  -16.7668   20.9016 N   0  0  0  0  0  0
  -26.4876  -17.9815   20.8047 N   0  0  0  0  0  0
  -30.3933  -15.4049   21.5049 N   0  0  0  0  0  0
  -28.8966  -21.6944   21.0232 N   0  3  0  0  0  0
  -31.4462  -12.4283   19.0791 H   0  0  0  0  0  0
  -30.2599  -11.3355   19.7517 H   0  0  0  0  0  0
  -29.6987  -11.8994   17.3676 H   0  0  0  0  0  0
  -29.6197  -13.5857   17.7761 H   0  0  0  0  0  0
  -27.7858  -11.3719   18.7549 H   0  0  0  0  0  0
  -27.3385  -12.7479   17.7898 H   0  0  0  0  0  0
  -27.6774  -14.2956   19.6099 H   0  0  0  0  0  0
  -28.7142  -11.9975   21.3207 H   0  0  0  0  0  0
  -28.4865  -13.6369   21.8642 H   0  0  0  0  0  0
  -25.2882   -9.5451   22.4656 H   0  0  0  0  0  0
  -24.0027   -7.4505   22.7455 H   0  0  0  0  0  0
  -21.0756   -8.8820   19.9112 H   0  0  0  0  0  0
  -22.3825  -10.9603   19.6208 H   0  0  0  0  0  0
  -21.1952   -7.6175   23.9767 H   0  0  0  0  0  0
  -21.1558   -6.0521   25.9108 H   0  0  0  0  0  0
  -22.0585   -2.7613   23.2845 H   0  0  0  0  0  0
  -22.4502  -12.0264   22.5447 H   0  0  0  0  0  0
  -21.1220  -13.1197   22.3106 H   0  0  0  0  0  0
  -24.5550  -15.7829   20.3569 H   0  0  0  0  0  0
  -26.2399  -15.6514   20.1244 H   0  0  0  0  0  0
  -26.7003  -32.5548   23.1077 H   0  0  0  0  0  0
  -24.9715  -33.9754   25.0231 H   0  0  0  0  0  0
  -22.6875  -31.3112   21.4389 H   0  0  0  0  0  0
  -23.3750  -35.9727   23.3233 H   0  0  0  0  0  0
  -24.3643  -36.9009   22.2021 H   0  0  0  0  0  0
  -23.7354  -37.6602   23.6646 H   0  0  0  0  0  0
  -26.0547  -31.6194   20.6198 H   0  0  0  0  0  0
  -26.8152  -30.8650   21.9946 H   0  0  0  0  0  0
  -28.1108  -29.1177   21.0976 H   0  0  0  0  0  0
  -26.0406  -26.0019   18.9479 H   0  0  0  0  0  0
  -23.9482  -27.3246   19.0268 H   0  0  0  0  0  0
  -23.7213  -30.6312   19.4310 H   0  0  0  0  0  0
  -22.7240  -29.2701   19.8699 H   0  0  0  0  0  0
  -25.1319  -36.1978   25.0814 H   0  0  0  0  0  0
  -20.9782  -28.3187   24.1529 H   0  0  0  0  0  0
  -20.5601  -26.2289   23.3634 H   0  0  0  0  0  0
  -21.6662  -26.7512   22.1310 H   0  0  0  0  0  0
  -19.7003  -25.6308   21.1265 H   0  0  0  0  0  0
  -19.6761  -27.3191   20.6726 H   0  0  0  0  0  0
  -17.4224  -26.6602   21.3952 H   0  0  0  0  0  0
  -18.0346  -26.0139   22.8993 H   0  0  0  0  0  0
  -19.7903  -30.7150   24.2433 H   0  0  0  0  0  0
  -17.5031  -31.6307   24.5134 H   0  0  0  0  0  0
  -15.5322  -30.3066   23.7623 H   0  0  0  0  0  0
  -15.8630  -28.0867   22.7074 H   0  0  0  0  0  0
  -24.6082  -30.6947   25.7945 H   0  0  0  0  0  0
  -24.8918  -32.2934   26.4759 H   0  0  0  0  0  0
  -25.8221  -30.9175   27.0330 H   0  0  0  0  0  0
  -26.2679  -29.6823   24.1204 H   0  0  0  0  0  0
  -27.3984  -29.7225   25.4561 H   0  0  0  0  0  0
  -27.8604  -30.4246   23.9228 H   0  0  0  0  0  0
  -27.2692  -33.3704   26.1901 H   0  0  0  0  0  0
  -28.3919  -32.6780   25.0228 H   0  0  0  0  0  0
  -28.0716  -31.8529   26.5406 H   0  0  0  0  0  0
  -28.2596  -38.0194   24.7470 H   0  0  0  0  0  0
  -28.1196  -36.2704   24.6215 H   0  0  0  0  0  0
  -27.2363  -37.1461   25.8848 H   0  0  0  0  0  0
  -20.9346  -29.8609   21.6889 H   0  0  0  0  0  0
  -26.0203  -38.2894   24.1349 H   0  0  0  0  0  0
  -31.5430  -17.8366   21.8552 H   0  0  0  0  0  0
  -26.3018  -20.1294   22.6630 H   0  0  0  0  0  0
  -27.0019  -21.6335   23.0948 H   0  0  0  0  0  0
  -27.8548  -20.1529   23.4968 H   0  0  0  0  0  0
  -29.1406  -24.2844   23.2790 H   0  0  0  0  0  0
  -30.3295  -23.1011   22.7932 H   0  0  0  0  0  0
  -28.8837  -22.6030   23.6377 H   0  0  0  0  0  0
  -29.9147  -24.2831   20.2637 H   0  0  0  0  0  0
  -28.3711  -23.9852   19.5233 H   0  0  0  0  0  0
  -27.2874  -25.4446   21.3442 H   0  0  0  0  0  0
  -28.8748  -25.9314   21.8309 H   0  0  0  0  0  0
  -27.1855  -20.6397   20.5690 H   0  0  0  0  0  0
  -27.4726  -23.1279   21.6453 H   0  0  0  0  0  0
  -25.9587  -18.7418   21.2141 H   0  0  0  0  0  0
  -26.0276  -17.0954   20.9887 H   0  0  0  0  0  0
  -31.2092  -15.5861   22.0726 H   0  0  0  0  0  0
  -29.7944  -21.4214   21.3953 H   0  0  0  0  0  0
  -28.9996  -21.7150   20.0209 H   0  0  0  0  0  0
  1 25  1  0  0  0
  1 30  2  0  0  0
  1 84  1  0  0  0
  2  3  1  0  0  0
  2 25  1  0  0  0
  2 86  1  0  0  0
  2 87  1  0  0  0
  3  4  1  0  0  0
  3 88  1  0  0  0
  3 89  1  0  0  0
  4  5  1  0  0  0
  4 90  1  0  0  0
  4 91  1  0  0  0
  5  6  1  0  0  0
  5 26  1  0  0  0
  5 92  1  0  0  0
  6 25  1  0  0  0
  6 93  1  0  0  0
  6 94  1  0  0  0
  7  8  2  0  0  0
  7 26  1  0  0  0
  7 29  1  0  0  0
  8  9  1  0  0  0
  8 22  1  0  0  0
  9 10  1  0  0  0
  9 27  2  0  0  0
 10 11  2  0  0  0
 10 15  1  0  0  0
 11 12  1  0  0  0
 11 95  1  0  0  0
 12 13  2  0  0  0
 12 96  1  0  0  0
 13 14  1  0  0  0
 13 31  1  0  0  0
 14 15  2  0  0  0
 14 97  1  0  0  0
 15 98  1  0  0  0
 16 17  2  0  0  0
 16 21  1  0  0  0
 16 31  1  0  0  0
 17 18  1  0  0  0
 17 99  1  0  0  0
 18 19  2  0  0  0
 18100  1  0  0  0
 19 20  1  0  0  0
 19 24  1  0  0  0
 20 21  2  0  0  0
 20101  1  0  0  0
 21 23  1  0  0  0
 22 28  1  0  0  0
 22 32  2  0  0  0
 26 27  1  0  0  0
 28102  1  0  0  0
 28103  1  0  0  0
 29104  1  0  0  0
 29105  1  0  0  0
 33 34  1  0  0  0
 33 66  1  0  0  0
 33 70  2  0  0  0
 34 36  1  0  0  0
 34 59  1  0  0  0
 34106  1  0  0  0
 35 44  2  0  0  0
 35 45  1  0  0  0
 35 68  1  0  0  0
 36 56  1  0  0  0
 36107  1  0  0  0
 37 39  1  0  0  0
 37 47  1  0  0  0
 37 66  1  0  0  0
 37108  1  0  0  0
 38 43  2  0  0  0
 38 46  1  0  0  0
 38 47  1  0  0  0
 39 64  1  0  0  0
 39 67  2  0  0  0
 40 52  1  0  0  0
 40 53  2  0  0  0
 40 58  1  0  0  0
 41109  1  0  0  0
 41110  1  0  0  0
 41111  1  0  0  0
 41 48  1  0  0  0
 42 43  1  0  0  0
 42 66  1  0  0  0
 42112  1  0  0  0
 42113  1  0  0  0
 43 44  1  0  0  0
 44114  1  0  0  0
 45 46  2  0  0  0
 45115  1  0  0  0
 46116  1  0  0  0
 47117  1  0  0  0
 47118  1  0  0  0
 48 56  1  0  0  0
 48 65  1  0  0  0
 48119  1  0  0  0
 49 50  1  0  0  0
 49 53  1  0  0  0
 49 64  1  0  0  0
 49120  1  0  0  0
 50 51  1  0  0  0
 50121  1  0  0  0
 50122  1  0  0  0
 51 52  1  0  0  0
 51123  1  0  0  0
 51124  1  0  0  0
 52125  1  0  0  0
 52126  1  0  0  0
 53 54  1  0  0  0
 54 55  2  0  0  0
 54127  1  0  0  0
 55 57  1  0  0  0
 55128  1  0  0  0
 56 69  2  0  0  0
 57 58  2  0  0  0
 57129  1  0  0  0
 58130  1  0  0  0
 59 60  1  0  0  0
 59 61  1  0  0  0
 59 62  1  0  0  0
 60131  1  0  0  0
 60132  1  0  0  0
 60133  1  0  0  0
 61134  1  0  0  0
 61135  1  0  0  0
 61136  1  0  0  0
 62137  1  0  0  0
 62138  1  0  0  0
 62139  1  0  0  0
 63 65  1  0  0  0
 63140  1  0  0  0
 63141  1  0  0  0
 63142  1  0  0  0
 64143  1  0  0  0
 65144  1  0  0  0
 68 78  1  0  0  0
 71 73  2  0  0  0
 71 81  1  0  0  0
 71145  1  0  0  0
 72 74  1  0  0  0
 72 79  1  0  0  0
 72 81  2  0  0  0
 73 82  1  0  0  0
 73 84  1  0  0  0
 74 82  2  0  0  0
 74 83  1  0  0  0
 75146  1  0  0  0
 75147  1  0  0  0
 75148  1  0  0  0
 75 79  1  0  0  0
 76149  1  0  0  0
 76150  1  0  0  0
 76151  1  0  0  0
 76 80  1  0  0  0
 77 78  1  0  0  0
 77 80  1  0  0  0
 77152  1  0  0  0
 77153  1  0  0  0
 78154  1  0  0  0
 78155  1  0  0  0
 79 85  1  0  0  0
 79156  1  0  0  0
 80 85  1  0  0  0
 80157  1  0  0  0
 83158  1  0  0  0
 83159  1  0  0  0
 84160  1  0  0  0
 85161  1  0  0  0
 85162  1  0  0  0
M  CHG  1  85   1
M  ISO  4   1 100  68 101  78 101  84 100
M  END
> <chiral flag>
0

> <version>
0

> <s_m_source_file>
/data/baiqing/PycharmProjects/Reinvent-master-3.2/result/LINK_invent/BTK/process_docking_weight1_custom_product_contain_oxygen_bond_distance_aromatic_linkinvent_7_9_3/rearranged_h_0199.sdf

> <i_m_source_file_index>
62

> <r_mmod_Potential_Energy-OPLS-2005>
-125.086563110352

> <r_mmod_Stretch_Energy-OPLS-2005>
48.7328643798828

> <r_mmod_Bend_Energy-OPLS-2005>
134.757400512695

> <r_mmod_Torsional_Energy-OPLS-2005>
306.897155761719

> <r_mmod_Improper_Torsional_Energy-OPLS-2005>
14.9676198959351

> <r_mmod_Van_der_Waal_Energy-OPLS-2005>
153.008224487305

> <r_mmod_Electrostatic_Energy-OPLS-2005>
-342.692047119141

> <r_mmod_Solvation_Energy-OPLS-2005>
-458.392120361328

> <b_mmod_Minimization_Converged-OPLS-2005>
0

> <r_mmod_RMS_Derivative-OPLS-2005>
10.1307401657104

$$$$
62
                    3D
 Structure written by MMmdl.
150158  0  0  1  0            999 V2000
  -30.5038  -15.0168   20.4046 C   0  0  0  0  0  0
  -30.4452  -12.6305   19.5042 C   0  0  0  0  0  0
  -29.5261  -12.5390   18.2624 C   0  0  0  0  0  0
  -28.0611  -12.3123   18.6809 C   0  0  0  0  0  0
  -27.6277  -13.2508   19.8366 C   0  0  2  0  0  0
  -28.6698  -13.2987   20.9744 C   0  0  0  0  0  0
  -25.2452  -13.8213   20.5708 C   0  0  0  0  0  0
  -24.1776  -13.0435   20.9237 C   0  0  0  0  0  0
  -24.6396  -11.6921   20.8758 C   0  0  0  0  0  0
  -23.9080  -10.4291   21.0409 C   0  0  0  0  0  0
  -24.3627   -9.4205   21.9186 C   0  0  0  0  0  0
  -23.6297   -8.2242   22.0755 C   0  0  0  0  0  0
  -22.4280   -8.0281   21.3545 C   0  0  0  0  0  0
  -21.9919   -9.0255   20.4646 C   0  0  0  0  0  0
  -22.7252  -10.2133   20.3057 C   0  0  0  0  0  0
  -21.6854   -6.0735   22.5278 C   0  0  0  0  0  0
  -21.4016   -6.5639   23.8210 C   0  0  0  0  0  0
  -21.3660   -5.6792   24.9173 C   0  0  0  0  0  0
  -21.6044   -4.3055   24.7224 C   0  0  0  0  0  0
  -21.8819   -3.8145   23.4346 C   0  0  0  0  0  0
  -21.9193   -4.6962   22.3402 C   0  0  0  0  0  0
  -22.7795  -13.5204   21.1887 C   0  0  0  0  0  0
  -22.1662   -4.2147   21.0980 F   0  0  0  0  0  0
  -21.5628   -3.4539   25.7738 F   0  0  0  0  0  0
  -29.9381  -13.7351   20.3738 N   0  0  0  0  0  0
  -26.2877  -12.9449   20.3236 N   0  0  0  0  0  0
  -25.9329  -11.6577   20.5736 N   0  0  0  0  0  0
  -22.0447  -12.8190   22.0441 N   0  0  0  0  0  0
  -25.4098  -15.1943   20.4105 N   0  0  0  0  0  0
  -31.7121  -15.0810   20.1416 O   0  0  0  0  0  0
  -21.6642   -6.8879   21.4240 O   0  0  0  0  0  0
  -22.3480  -14.5509   20.6730 O   0  0  0  0  0  0
  -24.6484  -31.8391   23.1835 C   0  0  0  0  0  0
  -25.9232  -32.4669   23.8244 C   0  0  1  0  0  0
  -27.2179  -27.0838   20.1594 C   0  0  0  0  0  0
  -25.5959  -33.8476   24.2158 N   0  0  0  0  0  0
  -23.4549  -30.4566   21.5301 C   0  0  2  0  0  0
  -24.9058  -28.8739   20.1106 C   0  0  0  0  0  0
  -22.7594  -29.4520   22.4837 C   0  0  0  0  0  0
  -18.0310  -28.1400   22.8473 C   0  0  0  0  0  0
  -24.1493  -36.7244   23.2644 C   0  0  0  0  0  0
  -26.0146  -30.6964   21.3902 C   0  0  0  0  0  0
  -26.0852  -29.3023   20.7324 C   0  0  0  0  0  0
  -27.2411  -28.4252   20.7367 C   0  0  0  0  0  0
  -26.0107  -26.7707   19.4954 C   0  0  0  0  0  0
  -24.8846  -27.6238   19.4750 C   0  0  0  0  0  0
  -23.6850  -29.7826   20.1511 C   0  0  0  0  0  0
  -25.4126  -36.3016   24.0312 C   0  0  1  0  0  0
  -20.5925  -28.3732   23.1223 C   0  0  2  0  0  0
  -20.6791  -26.9429   22.5404 C   0  0  0  0  0  0
  -19.5765  -26.6381   21.5213 C   0  0  0  0  0  0
  -18.1947  -26.7938   22.1622 C   0  0  0  0  0  0
  -19.1568  -28.8885   23.2839 C   0  0  0  0  0  0
  -18.9483  -30.1479   23.8867 C   0  0  0  0  0  0
  -17.6479  -30.6594   24.0559 C   0  0  0  0  0  0
  -25.9080  -34.9393   23.5047 C   0  0  0  0  0  0
  -16.5369  -29.9086   23.6339 C   0  0  0  0  0  0
  -16.7295  -28.6506   23.0357 C   0  0  0  0  0  0
  -26.4533  -31.6558   25.0711 C   0  0  0  0  0  0
  -25.3699  -31.3766   26.1393 C   0  0  0  0  0  0
  -27.0409  -30.2946   24.6334 C   0  0  0  0  0  0
  -27.6052  -32.4336   25.7502 C   0  0  0  0  0  0
  -27.5574  -37.1778   24.8466 C   0  0  0  0  0  0
  -21.4280  -29.3048   22.3588 N   0  0  0  0  0  0
  -26.4285  -37.3734   23.9408 N   0  0  0  0  0  0
  -24.7262  -31.0198   22.0895 N   0  0  0  0  0  0
  -23.4214  -28.8070   23.3008 O   0  0  0  0  0  0
  -28.2566  -26.0661   20.2349 O   0  0  0  0  0  0
  -26.5675  -34.8900   22.4633 O   0  0  0  0  0  0
  -23.5590  -32.1288   23.7023 O   0  0  0  0  0  0
  -28.7759  -18.7392   20.4845 C   0  0  0  0  0  0
  -30.5746  -19.8202   20.1480 C   0  0  0  0  0  0
  -29.7962  -17.7291   20.4208 C   0  0  0  0  0  0
  -28.4576  -21.5113   20.1811 C   0  0  0  0  0  0
  -27.9657  -24.5152   20.0972 C   0  0  0  0  0  0
  -28.9606  -23.1412   20.3947 C   0  0  1  0  0  0
  -30.9473  -18.5075   20.2075 N   0  0  0  0  0  0
  -29.2602  -20.1165   20.3072 N   0  0  0  0  0  0
  -29.6737  -16.1837   20.5384 N   0  0  0  0  0  0
  -29.5107  -23.2832   21.7600 N   0  3  0  0  0  0
  -31.4751  -12.8032   19.1881 H   0  0  0  0  0  0
  -30.4572  -11.6852   20.0492 H   0  0  0  0  0  0
  -29.8569  -11.7351   17.6034 H   0  0  0  0  0  0
  -29.6020  -13.4607   17.6833 H   0  0  0  0  0  0
  -27.9675  -11.2730   18.9982 H   0  0  0  0  0  0
  -27.3970  -12.4301   17.8237 H   0  0  0  0  0  0
  -27.5835  -14.2478   19.3977 H   0  0  0  0  0  0
  -28.7731  -12.3252   21.4560 H   0  0  0  0  0  0
  -28.3572  -13.9959   21.7533 H   0  0  0  0  0  0
  -25.2769   -9.5679   22.4764 H   0  0  0  0  0  0
  -24.0002   -7.4634   22.7477 H   0  0  0  0  0  0
  -21.0850   -8.8777   19.8952 H   0  0  0  0  0  0
  -22.3709  -10.9672   19.6167 H   0  0  0  0  0  0
  -21.2010   -7.6147   23.9713 H   0  0  0  0  0  0
  -21.1482   -6.0523   25.9076 H   0  0  0  0  0  0
  -22.0598   -2.7607   23.2847 H   0  0  0  0  0  0
  -22.4071  -11.9853   22.4826 H   0  0  0  0  0  0
  -21.1060  -13.1202   22.2646 H   0  0  0  0  0  0
  -24.6315  -15.8375   20.5085 H   0  0  0  0  0  0
  -26.2337  -15.6311   20.0194 H   0  0  0  0  0  0
  -26.7299  -32.5259   23.0968 H   0  0  0  0  0  0
  -25.0071  -33.9581   25.0283 H   0  0  0  0  0  0
  -22.7602  -31.2840   21.3712 H   0  0  0  0  0  0
  -23.3761  -35.9569   23.3289 H   0  0  0  0  0  0
  -24.3575  -36.8899   22.2062 H   0  0  0  0  0  0
  -23.7242  -37.6430   23.6698 H   0  0  0  0  0  0
  -26.1763  -31.4478   20.6161 H   0  0  0  0  0  0
  -26.8823  -30.7483   22.0362 H   0  0  0  0  0  0
  -28.1377  -28.7487   21.2466 H   0  0  0  0  0  0
  -25.8987  -25.8172   19.0021 H   0  0  0  0  0  0
  -23.9856  -27.2915   18.9743 H   0  0  0  0  0  0
  -23.8272  -30.5557   19.3952 H   0  0  0  0  0  0
  -22.7984  -29.2284   19.8382 H   0  0  0  0  0  0
  -25.1316  -36.1836   25.0804 H   0  0  0  0  0  0
  -21.0015  -28.3329   24.1346 H   0  0  0  0  0  0
  -20.5684  -26.2347   23.3629 H   0  0  0  0  0  0
  -21.6657  -26.7428   22.1203 H   0  0  0  0  0  0
  -19.6927  -25.6285   21.1262 H   0  0  0  0  0  0
  -19.6705  -27.3176   20.6731 H   0  0  0  0  0  0
  -17.4216  -26.6683   21.4026 H   0  0  0  0  0  0
  -18.0343  -26.0087   22.9026 H   0  0  0  0  0  0
  -19.7959  -30.7301   24.2224 H   0  0  0  0  0  0
  -17.5033  -31.6272   24.5166 H   0  0  0  0  0  0
  -15.5369  -30.2978   23.7681 H   0  0  0  0  0  0
  -15.8695  -28.0816   22.7087 H   0  0  0  0  0  0
  -24.5895  -30.7094   25.7714 H   0  0  0  0  0  0
  -24.8865  -32.2953   26.4726 H   0  0  0  0  0  0
  -25.7964  -30.9005   27.0230 H   0  0  0  0  0  0
  -26.3043  -29.6653   24.1327 H   0  0  0  0  0  0
  -27.3988  -29.7267   25.4932 H   0  0  0  0  0  0
  -27.8964  -30.4168   23.9688 H   0  0  0  0  0  0
  -27.2642  -33.3674   26.1986 H   0  0  0  0  0  0
  -28.3912  -32.6835   25.0365 H   0  0  0  0  0  0
  -28.0661  -31.8521   26.5496 H   0  0  0  0  0  0
  -28.2577  -38.0087   24.7511 H   0  0  0  0  0  0
  -28.1083  -36.2613   24.6295 H   0  0  0  0  0  0
  -27.2289  -37.1425   25.8868 H   0  0  0  0  0  0
  -20.9502  -29.8759   21.6758 H   0  0  0  0  0  0
  -26.0148  -38.2800   24.1413 H   0  0  0  0  0  0
  -27.7132  -18.5868   20.6211 H   0  0  0  0  0  0
  -31.2997  -20.5983   19.9546 H   0  0  0  0  0  0
  -28.0365  -21.4838   19.1756 H   0  0  0  0  0  0
  -27.5851  -21.3880   20.8233 H   0  0  0  0  0  0
  -27.0664  -24.3524   20.6921 H   0  0  0  0  0  0
  -27.6350  -24.3915   19.0660 H   0  0  0  0  0  0
  -29.8104  -23.2650   19.7225 H   0  0  0  0  0  0
  -28.7251  -15.8973   20.7230 H   0  0  0  0  0  0
  -28.7929  -23.1818   22.4573 H   0  0  0  0  0  0
  -29.9218  -24.1946   21.8750 H   0  0  0  0  0  0
  -30.2251  -22.6010   21.9426 H   0  0  0  0  0  0
  1 25  1  0  0  0
  1 30  2  0  0  0
  1 79  1  0  0  0
  2  3  1  0  0  0
  2 25  1  0  0  0
  2 81  1  0  0  0
  2 82  1  0  0  0
  3  4  1  0  0  0
  3 83  1  0  0  0
  3 84  1  0  0  0
  4  5  1  0  0  0
  4 85  1  0  0  0
  4 86  1  0  0  0
  5  6  1  0  0  0
  5 26  1  0  0  0
  5 87  1  0  0  0
  6 25  1  0  0  0
  6 88  1  0  0  0
  6 89  1  0  0  0
  7  8  2  0  0  0
  7 26  1  0  0  0
  7 29  1  0  0  0
  8  9  1  0  0  0
  8 22  1  0  0  0
  9 10  1  0  0  0
  9 27  2  0  0  0
 10 11  2  0  0  0
 10 15  1  0  0  0
 11 12  1  0  0  0
 11 90  1  0  0  0
 12 13  2  0  0  0
 12 91  1  0  0  0
 13 14  1  0  0  0
 13 31  1  0  0  0
 14 15  2  0  0  0
 14 92  1  0  0  0
 15 93  1  0  0  0
 16 17  2  0  0  0
 16 21  1  0  0  0
 16 31  1  0  0  0
 17 18  1  0  0  0
 17 94  1  0  0  0
 18 19  2  0  0  0
 18 95  1  0  0  0
 19 20  1  0  0  0
 19 24  1  0  0  0
 20 21  2  0  0  0
 20 96  1  0  0  0
 21 23  1  0  0  0
 22 28  1  0  0  0
 22 32  2  0  0  0
 26 27  1  0  0  0
 28 97  1  0  0  0
 28 98  1  0  0  0
 29 99  1  0  0  0
 29100  1  0  0  0
 33 34  1  0  0  0
 33 66  1  0  0  0
 33 70  2  0  0  0
 34 36  1  0  0  0
 34 59  1  0  0  0
 34101  1  0  0  0
 35 44  2  0  0  0
 35 45  1  0  0  0
 35 68  1  0  0  0
 36 56  1  0  0  0
 36102  1  0  0  0
 37 39  1  0  0  0
 37 47  1  0  0  0
 37 66  1  0  0  0
 37103  1  0  0  0
 38 43  2  0  0  0
 38 46  1  0  0  0
 38 47  1  0  0  0
 39 64  1  0  0  0
 39 67  2  0  0  0
 40 52  1  0  0  0
 40 53  2  0  0  0
 40 58  1  0  0  0
 41104  1  0  0  0
 41105  1  0  0  0
 41106  1  0  0  0
 41 48  1  0  0  0
 42 43  1  0  0  0
 42 66  1  0  0  0
 42107  1  0  0  0
 42108  1  0  0  0
 43 44  1  0  0  0
 44109  1  0  0  0
 45 46  2  0  0  0
 45110  1  0  0  0
 46111  1  0  0  0
 47112  1  0  0  0
 47113  1  0  0  0
 48 56  1  0  0  0
 48 65  1  0  0  0
 48114  1  0  0  0
 49 50  1  0  0  0
 49 53  1  0  0  0
 49 64  1  0  0  0
 49115  1  0  0  0
 50 51  1  0  0  0
 50116  1  0  0  0
 50117  1  0  0  0
 51 52  1  0  0  0
 51118  1  0  0  0
 51119  1  0  0  0
 52120  1  0  0  0
 52121  1  0  0  0
 53 54  1  0  0  0
 54 55  2  0  0  0
 54122  1  0  0  0
 55 57  1  0  0  0
 55123  1  0  0  0
 56 69  2  0  0  0
 57 58  2  0  0  0
 57124  1  0  0  0
 58125  1  0  0  0
 59 60  1  0  0  0
 59 61  1  0  0  0
 59 62  1  0  0  0
 60126  1  0  0  0
 60127  1  0  0  0
 60128  1  0  0  0
 61129  1  0  0  0
 61130  1  0  0  0
 61131  1  0  0  0
 62132  1  0  0  0
 62133  1  0  0  0
 62134  1  0  0  0
 63 65  1  0  0  0
 63135  1  0  0  0
 63136  1  0  0  0
 63137  1  0  0  0
 64138  1  0  0  0
 65139  1  0  0  0
 68 75  1  0  0  0
 71 73  2  0  0  0
 71 78  1  0  0  0
 71140  1  0  0  0
 72 77  2  0  0  0
 72 78  1  0  0  0
 72141  1  0  0  0
 73 77  1  0  0  0
 73 79  1  0  0  0
 74 76  1  0  0  0
 74 78  1  0  0  0
 74142  1  0  0  0
 74143  1  0  0  0
 75 76  1  0  0  0
 75144  1  0  0  0
 75145  1  0  0  0
 76 80  1  0  0  0
 76146  1  0  0  0
 79147  1  0  0  0
 80148  1  0  0  0
 80149  1  0  0  0
 80150  1  0  0  0
M  CHG  1  80   1
M  ISO  4   1 100  68 101  75 101  79 100
M  END
> <chiral flag>
0

> <version>
0

> <s_m_source_file>
/data/baiqing/PycharmProjects/Reinvent-master-3.2/result/LINK_invent/BTK/process_docking_weight1_custom_product_contain_oxygen_bond_distance_aromatic_linkinvent_7_9_3/rearranged_h_0199.sdf

> <i_m_source_file_index>
63

> <r_mmod_Potential_Energy-OPLS-2005>
387.394805908203

> <r_mmod_Stretch_Energy-OPLS-2005>
317.076293945312

> <r_mmod_Bend_Energy-OPLS-2005>
301.859710693359

> <r_mmod_Torsional_Energy-OPLS-2005>
226.624099731445

> <r_mmod_Improper_Torsional_Energy-OPLS-2005>
4.94123220443726

> <r_mmod_Van_der_Waal_Energy-OPLS-2005>
106.804122924805

> <r_mmod_Electrostatic_Energy-OPLS-2005>
-266.586517333984

> <r_mmod_Solvation_Energy-OPLS-2005>
-546.159790039062

> <b_mmod_Minimization_Converged-OPLS-2005>
0

> <r_mmod_RMS_Derivative-OPLS-2005>
0.224889129400253

$$$$
63
                    3D
 Structure written by MMmdl.
148156  0  0  1  0            999 V2000
  -30.5938  -14.7576   20.4559 C   0  0  0  0  0  0
  -30.4336  -12.4628   19.4787 C   0  0  0  0  0  0
  -29.5088  -12.5096   18.2414 C   0  0  0  0  0  0
  -28.0355  -12.3369   18.6529 C   0  0  0  0  0  0
  -27.6413  -13.2340   19.8552 C   0  0  2  0  0  0
  -28.6842  -13.1615   20.9920 C   0  0  0  0  0  0
  -25.2497  -13.8205   20.5711 C   0  0  0  0  0  0
  -24.1793  -13.0439   20.9221 C   0  0  0  0  0  0
  -24.6384  -11.6918   20.8755 C   0  0  0  0  0  0
  -23.9060  -10.4299   21.0417 C   0  0  0  0  0  0
  -24.3617   -9.4211   21.9189 C   0  0  0  0  0  0
  -23.6294   -8.2243   22.0749 C   0  0  0  0  0  0
  -22.4273   -8.0279   21.3545 C   0  0  0  0  0  0
  -21.9905   -9.0256   20.4649 C   0  0  0  0  0  0
  -22.7233  -10.2139   20.3064 C   0  0  0  0  0  0
  -21.6859   -6.0732   22.5280 C   0  0  0  0  0  0
  -21.4021   -6.5640   23.8214 C   0  0  0  0  0  0
  -21.3660   -5.6792   24.9179 C   0  0  0  0  0  0
  -21.6043   -4.3053   24.7228 C   0  0  0  0  0  0
  -21.8815   -3.8141   23.4351 C   0  0  0  0  0  0
  -21.9194   -4.6956   22.3405 C   0  0  0  0  0  0
  -22.7817  -13.5223   21.1890 C   0  0  0  0  0  0
  -22.1664   -4.2139   21.0982 F   0  0  0  0  0  0
  -21.5622   -3.4537   25.7742 F   0  0  0  0  0  0
  -29.9877  -13.5192   20.4188 N   0  0  0  0  0  0
  -26.2923  -12.9412   20.3296 N   0  0  0  0  0  0
  -25.9319  -11.6547   20.5762 N   0  0  0  0  0  0
  -22.0467  -12.8217   22.0450 N   0  0  0  0  0  0
  -25.4181  -15.1934   20.4155 N   0  0  0  0  0  0
  -31.7700  -14.8644   20.0972 O   0  0  0  0  0  0
  -21.6634   -6.8876   21.4241 O   0  0  0  0  0  0
  -22.3502  -14.5526   20.6731 O   0  0  0  0  0  0
  -24.6323  -31.8563   23.2008 C   0  0  0  0  0  0
  -25.9140  -32.4769   23.8360 C   0  0  1  0  0  0
  -27.2132  -27.2486   20.1234 C   0  0  0  0  0  0
  -25.5940  -33.8573   24.2275 N   0  0  0  0  0  0
  -23.4301  -30.4805   21.5443 C   0  0  2  0  0  0
  -24.8747  -28.9300   20.1093 C   0  0  0  0  0  0
  -22.7522  -29.4601   22.4906 C   0  0  0  0  0  0
  -18.0302  -28.1382   22.8488 C   0  0  0  0  0  0
  -24.1483  -36.7283   23.2640 C   0  0  0  0  0  0
  -25.9787  -30.7612   21.3873 C   0  0  0  0  0  0
  -26.0472  -29.3846   20.7249 C   0  0  0  0  0  0
  -27.2155  -28.5554   20.7248 C   0  0  0  0  0  0
  -26.0216  -26.8806   19.4545 C   0  0  0  0  0  0
  -24.8678  -27.6864   19.4638 C   0  0  0  0  0  0
  -23.6494  -29.8219   20.1581 C   0  0  0  0  0  0
  -25.4112  -36.3081   24.0330 C   0  0  1  0  0  0
  -20.5911  -28.3698   23.1264 C   0  0  2  0  0  0
  -20.6781  -26.9413   22.5404 C   0  0  0  0  0  0
  -19.5751  -26.6373   21.5215 C   0  0  0  0  0  0
  -18.1937  -26.7922   22.1633 C   0  0  0  0  0  0
  -19.1557  -28.8857   23.2870 C   0  0  0  0  0  0
  -18.9473  -30.1455   23.8891 C   0  0  0  0  0  0
  -17.6472  -30.6585   24.0556 C   0  0  0  0  0  0
  -25.9058  -34.9450   23.5101 C   0  0  0  0  0  0
  -16.5364  -29.9078   23.6328 C   0  0  0  0  0  0
  -16.7287  -28.6495   23.0354 C   0  0  0  0  0  0
  -26.4492  -31.6613   25.0766 C   0  0  0  0  0  0
  -25.3704  -31.3787   26.1485 C   0  0  0  0  0  0
  -27.0347  -30.3024   24.6290 C   0  0  0  0  0  0
  -27.6046  -32.4365   25.7531 C   0  0  0  0  0  0
  -27.5578  -37.1802   24.8469 C   0  0  0  0  0  0
  -21.4230  -29.3047   22.3653 N   0  0  0  0  0  0
  -26.4288  -37.3780   23.9414 N   0  0  0  0  0  0
  -24.6993  -31.0517   22.0995 N   0  0  0  0  0  0
  -23.4219  -28.8135   23.3002 O   0  0  0  0  0  0
  -28.3029  -26.3436   20.2181 O   0  0  0  0  0  0
  -26.5629  -34.8921   22.4672 O   0  0  0  0  0  0
  -23.5467  -32.1391   23.7291 O   0  0  0  0  0  0
  -29.3197  -18.3905   20.9266 C   0  0  0  0  0  0
  -30.4231  -19.4450   19.1650 C   0  0  0  0  0  0
  -29.5986  -19.6678   20.2385 C   0  0  0  0  0  0
  -29.9309  -17.2286   20.3977 C   0  0  0  0  0  0
  -29.1014  -22.2339   19.9397 C   0  0  0  0  0  0
  -28.8733  -23.6637   20.6421 C   0  0  0  0  0  0
  -28.1724  -24.8854   19.8297 C   0  0  0  0  0  0
  -29.1501  -21.0328   20.6451 N   0  0  0  0  0  0
  -29.8199  -15.8720   20.7732 N   0  0  0  0  0  0
  -29.2409  -22.2356   18.7143 O   0  0  0  0  0  0
  -30.8749  -17.7509   19.0067 S   0  0  0  0  0  0
  -31.4712  -12.5943   19.1692 H   0  0  0  0  0  0
  -30.3884  -11.4850   19.9604 H   0  0  0  0  0  0
  -29.7874  -11.7309   17.5305 H   0  0  0  0  0  0
  -29.6352  -13.4603   17.7209 H   0  0  0  0  0  0
  -27.8892  -11.2878   18.9113 H   0  0  0  0  0  0
  -27.3785  -12.5346   17.8050 H   0  0  0  0  0  0
  -27.6374  -14.2576   19.4798 H   0  0  0  0  0  0
  -28.7188  -12.1602   21.4227 H   0  0  0  0  0  0
  -28.4109  -13.8336   21.8067 H   0  0  0  0  0  0
  -25.2768   -9.5670   22.4763 H   0  0  0  0  0  0
  -24.0000   -7.4623   22.7466 H   0  0  0  0  0  0
  -21.0830   -8.8778   19.8963 H   0  0  0  0  0  0
  -22.3689  -10.9679   19.6175 H   0  0  0  0  0  0
  -21.2018   -7.6149   23.9713 H   0  0  0  0  0  0
  -21.1490   -6.0528   25.9083 H   0  0  0  0  0  0
  -22.0589   -2.7597   23.2856 H   0  0  0  0  0  0
  -22.4091  -11.9897   22.4869 H   0  0  0  0  0  0
  -21.1084  -13.1238   22.2665 H   0  0  0  0  0  0
  -24.6464  -15.8434   20.5253 H   0  0  0  0  0  0
  -26.2605  -15.6350   20.0692 H   0  0  0  0  0  0
  -26.7211  -32.5400   23.1107 H   0  0  0  0  0  0
  -25.0096  -33.9722   25.0425 H   0  0  0  0  0  0
  -22.7262  -31.3027   21.4023 H   0  0  0  0  0  0
  -23.3755  -35.9605   23.3303 H   0  0  0  0  0  0
  -24.3569  -36.8903   22.2053 H   0  0  0  0  0  0
  -23.7219  -37.6479   23.6659 H   0  0  0  0  0  0
  -26.1297  -31.5228   20.6210 H   0  0  0  0  0  0
  -26.8516  -30.8023   22.0272 H   0  0  0  0  0  0
  -28.1091  -28.8969   21.2284 H   0  0  0  0  0  0
  -25.9342  -25.9524   18.9138 H   0  0  0  0  0  0
  -23.9745  -27.3388   18.9635 H   0  0  0  0  0  0
  -23.7839  -30.6041   19.4099 H   0  0  0  0  0  0
  -22.7646  -29.2654   19.8447 H   0  0  0  0  0  0
  -25.1289  -36.1937   25.0821 H   0  0  0  0  0  0
  -21.0006  -28.3268   24.1385 H   0  0  0  0  0  0
  -20.5675  -26.2316   23.3615 H   0  0  0  0  0  0
  -21.6644  -26.7417   22.1201 H   0  0  0  0  0  0
  -19.6902  -25.6277   21.1256 H   0  0  0  0  0  0
  -19.6673  -27.3172   20.6736 H   0  0  0  0  0  0
  -17.4199  -26.6672   21.4040 H   0  0  0  0  0  0
  -18.0331  -26.0067   22.9034 H   0  0  0  0  0  0
  -19.7949  -30.7269   24.2261 H   0  0  0  0  0  0
  -17.5025  -31.6263   24.5158 H   0  0  0  0  0  0
  -15.5363  -30.2973   23.7645 H   0  0  0  0  0  0
  -15.8695  -28.0802   22.7071 H   0  0  0  0  0  0
  -24.5841  -30.7185   25.7808 H   0  0  0  0  0  0
  -24.8939  -32.2972   26.4925 H   0  0  0  0  0  0
  -25.7993  -30.8935   27.0263 H   0  0  0  0  0  0
  -26.2952  -29.6778   24.1265 H   0  0  0  0  0  0
  -27.3961  -29.7290   25.4840 H   0  0  0  0  0  0
  -27.8861  -30.4298   23.9598 H   0  0  0  0  0  0
  -27.2650  -33.3665   26.2105 H   0  0  0  0  0  0
  -28.3847  -32.6937   25.0354 H   0  0  0  0  0  0
  -28.0728  -31.8507   26.5453 H   0  0  0  0  0  0
  -28.2605  -38.0092   24.7515 H   0  0  0  0  0  0
  -28.1068  -36.2626   24.6296 H   0  0  0  0  0  0
  -27.2304  -37.1450   25.8876 H   0  0  0  0  0  0
  -20.9418  -29.8791   21.6875 H   0  0  0  0  0  0
  -26.0173  -38.2858   24.1410 H   0  0  0  0  0  0
  -28.6734  -18.3706   21.7930 H   0  0  0  0  0  0
  -30.8214  -20.1672   18.4618 H   0  0  0  0  0  0
  -29.8644  -23.9985   20.9473 H   0  0  0  0  0  0
  -28.3268  -23.5034   21.5716 H   0  0  0  0  0  0
  -27.1274  -24.5900   19.8226 H   0  0  0  0  0  0
  -28.4940  -24.8329   18.7894 H   0  0  0  0  0  0
  -28.8789  -21.1137   21.6164 H   0  0  0  0  0  0
  -28.9566  -15.6333   21.2378 H   0  0  0  0  0  0
  1 25  1  0  0  0
  1 30  2  0  0  0
  1 79  1  0  0  0
  2  3  1  0  0  0
  2 25  1  0  0  0
  2 82  1  0  0  0
  2 83  1  0  0  0
  3  4  1  0  0  0
  3 84  1  0  0  0
  3 85  1  0  0  0
  4  5  1  0  0  0
  4 86  1  0  0  0
  4 87  1  0  0  0
  5  6  1  0  0  0
  5 26  1  0  0  0
  5 88  1  0  0  0
  6 25  1  0  0  0
  6 89  1  0  0  0
  6 90  1  0  0  0
  7  8  2  0  0  0
  7 26  1  0  0  0
  7 29  1  0  0  0
  8  9  1  0  0  0
  8 22  1  0  0  0
  9 10  1  0  0  0
  9 27  2  0  0  0
 10 11  2  0  0  0
 10 15  1  0  0  0
 11 12  1  0  0  0
 11 91  1  0  0  0
 12 13  2  0  0  0
 12 92  1  0  0  0
 13 14  1  0  0  0
 13 31  1  0  0  0
 14 15  2  0  0  0
 14 93  1  0  0  0
 15 94  1  0  0  0
 16 17  2  0  0  0
 16 21  1  0  0  0
 16 31  1  0  0  0
 17 18  1  0  0  0
 17 95  1  0  0  0
 18 19  2  0  0  0
 18 96  1  0  0  0
 19 20  1  0  0  0
 19 24  1  0  0  0
 20 21  2  0  0  0
 20 97  1  0  0  0
 21 23  1  0  0  0
 22 28  1  0  0  0
 22 32  2  0  0  0
 26 27  1  0  0  0
 28 98  1  0  0  0
 28 99  1  0  0  0
 29100  1  0  0  0
 29101  1  0  0  0
 33 34  1  0  0  0
 33 66  1  0  0  0
 33 70  2  0  0  0
 34 36  1  0  0  0
 34 59  1  0  0  0
 34102  1  0  0  0
 35 44  2  0  0  0
 35 45  1  0  0  0
 35 68  1  0  0  0
 36 56  1  0  0  0
 36103  1  0  0  0
 37 39  1  0  0  0
 37 47  1  0  0  0
 37 66  1  0  0  0
 37104  1  0  0  0
 38 43  2  0  0  0
 38 46  1  0  0  0
 38 47  1  0  0  0
 39 64  1  0  0  0
 39 67  2  0  0  0
 40 52  1  0  0  0
 40 53  2  0  0  0
 40 58  1  0  0  0
 41105  1  0  0  0
 41106  1  0  0  0
 41107  1  0  0  0
 41 48  1  0  0  0
 42 43  1  0  0  0
 42 66  1  0  0  0
 42108  1  0  0  0
 42109  1  0  0  0
 43 44  1  0  0  0
 44110  1  0  0  0
 45 46  2  0  0  0
 45111  1  0  0  0
 46112  1  0  0  0
 47113  1  0  0  0
 47114  1  0  0  0
 48 56  1  0  0  0
 48 65  1  0  0  0
 48115  1  0  0  0
 49 50  1  0  0  0
 49 53  1  0  0  0
 49 64  1  0  0  0
 49116  1  0  0  0
 50 51  1  0  0  0
 50117  1  0  0  0
 50118  1  0  0  0
 51 52  1  0  0  0
 51119  1  0  0  0
 51120  1  0  0  0
 52121  1  0  0  0
 52122  1  0  0  0
 53 54  1  0  0  0
 54 55  2  0  0  0
 54123  1  0  0  0
 55 57  1  0  0  0
 55124  1  0  0  0
 56 69  2  0  0  0
 57 58  2  0  0  0
 57125  1  0  0  0
 58126  1  0  0  0
 59 60  1  0  0  0
 59 61  1  0  0  0
 59 62  1  0  0  0
 60127  1  0  0  0
 60128  1  0  0  0
 60129  1  0  0  0
 61130  1  0  0  0
 61131  1  0  0  0
 61132  1  0  0  0
 62133  1  0  0  0
 62134  1  0  0  0
 62135  1  0  0  0
 63 65  1  0  0  0
 63136  1  0  0  0
 63137  1  0  0  0
 63138  1  0  0  0
 64139  1  0  0  0
 65140  1  0  0  0
 68 77  1  0  0  0
 71 73  1  0  0  0
 71 74  2  0  0  0
 71141  1  0  0  0
 72 73  2  0  0  0
 72 81  1  0  0  0
 72142  1  0  0  0
 73 78  1  0  0  0
 74 79  1  0  0  0
 74 81  1  0  0  0
 75 76  1  0  0  0
 75 78  1  0  0  0
 75 80  2  0  0  0
 76 77  1  0  0  0
 76143  1  0  0  0
 76144  1  0  0  0
 77145  1  0  0  0
 77146  1  0  0  0
 78147  1  0  0  0
 79148  1  0  0  0
M  ISO  4   1 100  68 101  77 101  79 100
M  END
> <chiral flag>
0

> <version>
0

> <s_m_source_file>
/data/baiqing/PycharmProjects/Reinvent-master-3.2/result/LINK_invent/BTK/process_docking_weight1_custom_product_contain_oxygen_bond_distance_aromatic_linkinvent_7_9_3/rearranged_h_0199.sdf

> <i_m_source_file_index>
64

> <r_mmod_Potential_Energy-OPLS-2005>
104.900169372559

> <r_mmod_Stretch_Energy-OPLS-2005>
124.607040405273

> <r_mmod_Bend_Energy-OPLS-2005>
171.435317993164

> <r_mmod_Torsional_Energy-OPLS-2005>
223.614318847656

> <r_mmod_Improper_Torsional_Energy-OPLS-2005>
3.61958026885986

> <r_mmod_Van_der_Waal_Energy-OPLS-2005>
125.894546508789

> <r_mmod_Electrostatic_Energy-OPLS-2005>
-394.125640869141

> <r_mmod_Solvation_Energy-OPLS-2005>
-243.098571777344

> <b_mmod_Minimization_Converged-OPLS-2005>
0

> <r_mmod_RMS_Derivative-OPLS-2005>
1.76457917690277

$$$$
64
                    3D
 Structure written by MMmdl.
153161  0  0  1  0            999 V2000
  -30.5960  -14.6947   20.4876 C   0  0  0  0  0  0
  -30.4445  -12.4250   19.4630 C   0  0  0  0  0  0
  -29.5134  -12.5094   18.2324 C   0  0  0  0  0  0
  -28.0361  -12.3404   18.6424 C   0  0  0  0  0  0
  -27.6517  -13.2190   19.8626 C   0  0  2  0  0  0
  -28.6968  -13.0942   20.9941 C   0  0  0  0  0  0
  -25.2573  -13.8168   20.5687 C   0  0  0  0  0  0
  -24.1847  -13.0434   20.9201 C   0  0  0  0  0  0
  -24.6410  -11.6905   20.8750 C   0  0  0  0  0  0
  -23.9078  -10.4288   21.0416 C   0  0  0  0  0  0
  -24.3627   -9.4202   21.9199 C   0  0  0  0  0  0
  -23.6301   -8.2238   22.0757 C   0  0  0  0  0  0
  -22.4282   -8.0280   21.3543 C   0  0  0  0  0  0
  -21.9918   -9.0257   20.4652 C   0  0  0  0  0  0
  -22.7250  -10.2136   20.3067 C   0  0  0  0  0  0
  -21.6856   -6.0737   22.5275 C   0  0  0  0  0  0
  -21.4023   -6.5637   23.8212 C   0  0  0  0  0  0
  -21.3662   -5.6791   24.9171 C   0  0  0  0  0  0
  -21.6034   -4.3053   24.7221 C   0  0  0  0  0  0
  -21.8819   -3.8145   23.4341 C   0  0  0  0  0  0
  -21.9197   -4.6965   22.3395 C   0  0  0  0  0  0
  -22.7869  -13.5238   21.1843 C   0  0  0  0  0  0
  -22.1664   -4.2153   21.0974 F   0  0  0  0  0  0
  -21.5623   -3.4532   25.7730 F   0  0  0  0  0  0
  -30.0054  -13.4542   20.4286 N   0  0  0  0  0  0
  -26.2990  -12.9347   20.3318 N   0  0  0  0  0  0
  -25.9345  -11.6500   20.5780 N   0  0  0  0  0  0
  -22.0507  -12.8246   22.0398 N   0  0  0  0  0  0
  -25.4260  -15.1894   20.4074 N   0  0  0  0  0  0
  -31.7668  -14.8472   20.1233 O   0  0  0  0  0  0
  -21.6639   -6.8881   21.4239 O   0  0  0  0  0  0
  -22.3565  -14.5538   20.6672 O   0  0  0  0  0  0
  -24.6282  -31.8576   23.2002 C   0  0  0  0  0  0
  -25.9112  -32.4772   23.8349 C   0  0  1  0  0  0
  -27.2255  -27.3042   20.1292 C   0  0  0  0  0  0
  -25.5916  -33.8573   24.2269 N   0  0  0  0  0  0
  -23.4239  -30.4769   21.5451 C   0  0  2  0  0  0
  -24.8712  -28.9236   20.1163 C   0  0  0  0  0  0
  -22.7492  -29.4593   22.4952 C   0  0  0  0  0  0
  -18.0291  -28.1389   22.8488 C   0  0  0  0  0  0
  -24.1486  -36.7289   23.2634 C   0  0  0  0  0  0
  -25.9652  -30.7836   21.3726 C   0  0  0  0  0  0
  -26.0406  -29.4079   20.7175 C   0  0  0  0  0  0
  -27.2252  -28.6114   20.7079 C   0  0  0  0  0  0
  -26.0365  -26.8661   19.5132 C   0  0  0  0  0  0
  -24.8704  -27.6581   19.5055 C   0  0  0  0  0  0
  -23.6403  -29.8060   20.1625 C   0  0  0  0  0  0
  -25.4114  -36.3078   24.0326 C   0  0  1  0  0  0
  -20.5883  -28.3683   23.1297 C   0  0  2  0  0  0
  -20.6781  -26.9405   22.5422 C   0  0  0  0  0  0
  -19.5753  -26.6381   21.5227 C   0  0  0  0  0  0
  -18.1928  -26.7929   22.1632 C   0  0  0  0  0  0
  -19.1543  -28.8854   23.2884 C   0  0  0  0  0  0
  -18.9458  -30.1457   23.8898 C   0  0  0  0  0  0
  -17.6458  -30.6586   24.0562 C   0  0  0  0  0  0
  -25.9051  -34.9449   23.5102 C   0  0  0  0  0  0
  -16.5351  -29.9085   23.6326 C   0  0  0  0  0  0
  -16.7272  -28.6508   23.0343 C   0  0  0  0  0  0
  -26.4467  -31.6586   25.0723 C   0  0  0  0  0  0
  -25.3689  -31.3736   26.1440 C   0  0  0  0  0  0
  -27.0308  -30.3009   24.6182 C   0  0  0  0  0  0
  -27.6020  -32.4315   25.7509 C   0  0  0  0  0  0
  -27.5583  -37.1788   24.8452 C   0  0  0  0  0  0
  -21.4202  -29.3029   22.3693 N   0  0  0  0  0  0
  -26.4291  -37.3777   23.9408 N   0  0  0  0  0  0
  -24.6917  -31.0568   22.0965 N   0  0  0  0  0  0
  -23.4209  -28.8142   23.3043 O   0  0  0  0  0  0
  -28.3356  -26.4462   20.1251 O   0  0  0  0  0  0
  -26.5623  -34.8914   22.4673 O   0  0  0  0  0  0
  -23.5433  -32.1373   23.7321 O   0  0  0  0  0  0
  -29.8283  -17.2026   20.6290 C   0  0  0  0  0  0
  -29.4408  -19.6970   20.4561 C   0  0  0  0  0  0
  -30.2210  -22.5520   22.7582 C   0  0  0  0  0  0
  -30.6188  -22.7078   21.2829 C   0  0  0  0  0  0
  -28.4274  -23.6926   20.1212 C   0  0  0  0  0  0
  -28.2196  -25.1405   20.8318 C   0  0  0  0  0  0
  -29.4777  -22.4509   20.2674 C   0  0  2  0  0  0
  -30.9405  -17.9084   20.3367 N   0  0  0  0  0  0
  -30.7195  -19.3180   20.2465 N   0  0  0  0  0  0
  -29.7586  -15.7417   20.8022 N   0  0  0  0  0  0
  -28.9380  -21.0503   20.4232 N   0  0  0  0  0  0
  -28.4016  -18.2801   20.8097 S   0  0  0  0  0  0
  -31.4823  -12.5649   19.1564 H   0  0  0  0  0  0
  -30.3982  -11.4338   19.9149 H   0  0  0  0  0  0
  -29.7863  -11.7479   17.5001 H   0  0  0  0  0  0
  -29.6478  -13.4733   17.7389 H   0  0  0  0  0  0
  -27.8799  -11.2882   18.8830 H   0  0  0  0  0  0
  -27.3825  -12.5619   17.7977 H   0  0  0  0  0  0
  -27.6606  -14.2500   19.5083 H   0  0  0  0  0  0
  -28.7222  -12.0734   21.3801 H   0  0  0  0  0  0
  -28.4352  -13.7267   21.8437 H   0  0  0  0  0  0
  -25.2776   -9.5668   22.4781 H   0  0  0  0  0  0
  -23.9999   -7.4626   22.7481 H   0  0  0  0  0  0
  -21.0841   -8.8783   19.8971 H   0  0  0  0  0  0
  -22.3715  -10.9674   19.6177 H   0  0  0  0  0  0
  -21.2022   -7.6153   23.9713 H   0  0  0  0  0  0
  -21.1488   -6.0526   25.9074 H   0  0  0  0  0  0
  -22.0601   -2.7611   23.2837 H   0  0  0  0  0  0
  -22.4116  -11.9911   22.4802 H   0  0  0  0  0  0
  -21.1131  -13.1288   22.2598 H   0  0  0  0  0  0
  -24.6450  -15.8307   20.4945 H   0  0  0  0  0  0
  -26.2517  -15.6257   20.0201 H   0  0  0  0  0  0
  -26.7193  -32.5435   23.1108 H   0  0  0  0  0  0
  -25.0061  -33.9721   25.0411 H   0  0  0  0  0  0
  -22.7182  -31.2977   21.3993 H   0  0  0  0  0  0
  -23.3755  -35.9609   23.3292 H   0  0  0  0  0  0
  -24.3567  -36.8919   22.2048 H   0  0  0  0  0  0
  -23.7230  -37.6485   23.6662 H   0  0  0  0  0  0
  -26.0978  -31.5454   20.6033 H   0  0  0  0  0  0
  -26.8453  -30.8347   22.0018 H   0  0  0  0  0  0
  -28.1272  -28.9790   21.1760 H   0  0  0  0  0  0
  -26.0068  -25.8915   19.0455 H   0  0  0  0  0  0
  -23.9724  -27.2799   19.0366 H   0  0  0  0  0  0
  -23.7636  -30.5789   19.4031 H   0  0  0  0  0  0
  -22.7590  -29.2354   19.8615 H   0  0  0  0  0  0
  -25.1299  -36.1936   25.0818 H   0  0  0  0  0  0
  -20.9973  -28.3246   24.1420 H   0  0  0  0  0  0
  -20.5693  -26.2281   23.3617 H   0  0  0  0  0  0
  -21.6649  -26.7438   22.1207 H   0  0  0  0  0  0
  -19.6912  -25.6293   21.1251 H   0  0  0  0  0  0
  -19.6704  -27.3198   20.6761 H   0  0  0  0  0  0
  -17.4212  -26.6677   21.4025 H   0  0  0  0  0  0
  -18.0318  -26.0078   22.9033 H   0  0  0  0  0  0
  -19.7929  -30.7272   24.2269 H   0  0  0  0  0  0
  -17.5008  -31.6263   24.5164 H   0  0  0  0  0  0
  -15.5347  -30.2989   23.7647 H   0  0  0  0  0  0
  -15.8670  -28.0827   22.7053 H   0  0  0  0  0  0
  -24.5857  -30.7097   25.7759 H   0  0  0  0  0  0
  -24.8884  -32.2915   26.4849 H   0  0  0  0  0  0
  -25.7987  -30.8920   27.0236 H   0  0  0  0  0  0
  -26.2886  -29.6776   24.1182 H   0  0  0  0  0  0
  -27.3978  -29.7249   25.4687 H   0  0  0  0  0  0
  -27.8761  -30.4293   23.9422 H   0  0  0  0  0  0
  -27.2620  -33.3589   26.2133 H   0  0  0  0  0  0
  -28.3816  -32.6932   25.0342 H   0  0  0  0  0  0
  -28.0704  -31.8423   26.5403 H   0  0  0  0  0  0
  -28.2595  -38.0091   24.7523 H   0  0  0  0  0  0
  -28.1094  -36.2631   24.6261 H   0  0  0  0  0  0
  -27.2302  -37.1411   25.8852 H   0  0  0  0  0  0
  -20.9394  -29.8739   21.6881 H   0  0  0  0  0  0
  -26.0176  -38.2843   24.1444 H   0  0  0  0  0  0
  -31.0797  -22.7292   23.4080 H   0  0  0  0  0  0
  -29.8550  -21.5475   22.9715 H   0  0  0  0  0  0
  -29.4416  -23.2561   23.0455 H   0  0  0  0  0  0
  -31.4405  -22.0216   21.0731 H   0  0  0  0  0  0
  -31.0388  -23.7031   21.1292 H   0  0  0  0  0  0
  -28.1192  -23.3456   21.1074 H   0  0  0  0  0  0
  -29.3082  -24.2252   19.7588 H   0  0  0  0  0  0
  -28.9229  -25.2184   21.6642 H   0  0  0  0  0  0
  -27.2413  -25.1346   21.3231 H   0  0  0  0  0  0
  -29.9753  -22.3965   19.2952 H   0  0  0  0  0  0
  -28.8529  -15.4230   21.1041 H   0  0  0  0  0  0
  -27.9328  -21.0507   20.5642 H   0  0  0  0  0  0
  1 25  1  0  0  0
  1 30  2  0  0  0
  1 80  1  0  0  0
  2  3  1  0  0  0
  2 25  1  0  0  0
  2 83  1  0  0  0
  2 84  1  0  0  0
  3  4  1  0  0  0
  3 85  1  0  0  0
  3 86  1  0  0  0
  4  5  1  0  0  0
  4 87  1  0  0  0
  4 88  1  0  0  0
  5  6  1  0  0  0
  5 26  1  0  0  0
  5 89  1  0  0  0
  6 25  1  0  0  0
  6 90  1  0  0  0
  6 91  1  0  0  0
  7  8  2  0  0  0
  7 26  1  0  0  0
  7 29  1  0  0  0
  8  9  1  0  0  0
  8 22  1  0  0  0
  9 10  1  0  0  0
  9 27  2  0  0  0
 10 11  2  0  0  0
 10 15  1  0  0  0
 11 12  1  0  0  0
 11 92  1  0  0  0
 12 13  2  0  0  0
 12 93  1  0  0  0
 13 14  1  0  0  0
 13 31  1  0  0  0
 14 15  2  0  0  0
 14 94  1  0  0  0
 15 95  1  0  0  0
 16 17  2  0  0  0
 16 21  1  0  0  0
 16 31  1  0  0  0
 17 18  1  0  0  0
 17 96  1  0  0  0
 18 19  2  0  0  0
 18 97  1  0  0  0
 19 20  1  0  0  0
 19 24  1  0  0  0
 20 21  2  0  0  0
 20 98  1  0  0  0
 21 23  1  0  0  0
 22 28  1  0  0  0
 22 32  2  0  0  0
 26 27  1  0  0  0
 28 99  1  0  0  0
 28100  1  0  0  0
 29101  1  0  0  0
 29102  1  0  0  0
 33 34  1  0  0  0
 33 66  1  0  0  0
 33 70  2  0  0  0
 34 36  1  0  0  0
 34 59  1  0  0  0
 34103  1  0  0  0
 35 44  2  0  0  0
 35 45  1  0  0  0
 35 68  1  0  0  0
 36 56  1  0  0  0
 36104  1  0  0  0
 37 39  1  0  0  0
 37 47  1  0  0  0
 37 66  1  0  0  0
 37105  1  0  0  0
 38 43  2  0  0  0
 38 46  1  0  0  0
 38 47  1  0  0  0
 39 64  1  0  0  0
 39 67  2  0  0  0
 40 52  1  0  0  0
 40 53  2  0  0  0
 40 58  1  0  0  0
 41106  1  0  0  0
 41107  1  0  0  0
 41108  1  0  0  0
 41 48  1  0  0  0
 42 43  1  0  0  0
 42 66  1  0  0  0
 42109  1  0  0  0
 42110  1  0  0  0
 43 44  1  0  0  0
 44111  1  0  0  0
 45 46  2  0  0  0
 45112  1  0  0  0
 46113  1  0  0  0
 47114  1  0  0  0
 47115  1  0  0  0
 48 56  1  0  0  0
 48 65  1  0  0  0
 48116  1  0  0  0
 49 50  1  0  0  0
 49 53  1  0  0  0
 49 64  1  0  0  0
 49117  1  0  0  0
 50 51  1  0  0  0
 50118  1  0  0  0
 50119  1  0  0  0
 51 52  1  0  0  0
 51120  1  0  0  0
 51121  1  0  0  0
 52122  1  0  0  0
 52123  1  0  0  0
 53 54  1  0  0  0
 54 55  2  0  0  0
 54124  1  0  0  0
 55 57  1  0  0  0
 55125  1  0  0  0
 56 69  2  0  0  0
 57 58  2  0  0  0
 57126  1  0  0  0
 58127  1  0  0  0
 59 60  1  0  0  0
 59 61  1  0  0  0
 59 62  1  0  0  0
 60128  1  0  0  0
 60129  1  0  0  0
 60130  1  0  0  0
 61131  1  0  0  0
 61132  1  0  0  0
 61133  1  0  0  0
 62134  1  0  0  0
 62135  1  0  0  0
 62136  1  0  0  0
 63 65  1  0  0  0
 63137  1  0  0  0
 63138  1  0  0  0
 63139  1  0  0  0
 64140  1  0  0  0
 65141  1  0  0  0
 68 76  1  0  0  0
 71 78  2  0  0  0
 71 80  1  0  0  0
 71 82  1  0  0  0
 72 79  2  0  0  0
 72 81  1  0  0  0
 72 82  1  0  0  0
 73 74  1  0  0  0
 73142  1  0  0  0
 73143  1  0  0  0
 73144  1  0  0  0
 74145  1  0  0  0
 74146  1  0  0  0
 74 77  1  0  0  0
 75 76  1  0  0  0
 75 77  1  0  0  0
 75147  1  0  0  0
 75148  1  0  0  0
 76149  1  0  0  0
 76150  1  0  0  0
 77 81  1  0  0  0
 77151  1  0  0  0
 78 79  1  0  0  0
 80152  1  0  0  0
 81153  1  0  0  0
M  ISO  4   1 100  68 101  76 101  80 100
M  END
> <chiral flag>
0

> <version>
0

> <s_m_source_file>
/data/baiqing/PycharmProjects/Reinvent-master-3.2/result/LINK_invent/BTK/process_docking_weight1_custom_product_contain_oxygen_bond_distance_aromatic_linkinvent_7_9_3/rearranged_h_0199.sdf

> <i_m_source_file_index>
65

> <r_mmod_Potential_Energy-OPLS-2005>
252.782104492188

> <r_mmod_Stretch_Energy-OPLS-2005>
98.6478042602539

> <r_mmod_Bend_Energy-OPLS-2005>
385.066772460938

> <r_mmod_Torsional_Energy-OPLS-2005>
238.298675537109

> <r_mmod_Improper_Torsional_Energy-OPLS-2005>
4.3726110458374

> <r_mmod_Van_der_Waal_Energy-OPLS-2005>
122.807716369629

> <r_mmod_Electrostatic_Energy-OPLS-2005>
-411.824981689453

> <r_mmod_Solvation_Energy-OPLS-2005>
-245.497482299805

> <b_mmod_Minimization_Converged-OPLS-2005>
0

> <r_mmod_RMS_Derivative-OPLS-2005>
1.69459056854248

$$$$
65
                    3D
 Structure written by MMmdl.
156164  0  0  1  0            999 V2000
  -30.6932  -14.5127   20.5698 C   0  0  0  0  0  0
  -30.4258  -12.3324   19.4339 C   0  0  0  0  0  0
  -29.5002  -12.5088   18.2125 C   0  0  0  0  0  0
  -28.0216  -12.3618   18.6226 C   0  0  0  0  0  0
  -27.6585  -13.2106   19.8711 C   0  0  2  0  0  0
  -28.7007  -13.0166   20.9967 C   0  0  0  0  0  0
  -25.2573  -13.8161   20.5674 C   0  0  0  0  0  0
  -24.1830  -13.0437   20.9172 C   0  0  0  0  0  0
  -24.6387  -11.6906   20.8722 C   0  0  0  0  0  0
  -23.9048  -10.4293   21.0380 C   0  0  0  0  0  0
  -24.3606   -9.4217   21.9160 C   0  0  0  0  0  0
  -23.6292   -8.2250   22.0745 C   0  0  0  0  0  0
  -22.4278   -8.0273   21.3544 C   0  0  0  0  0  0
  -21.9897   -9.0238   20.4644 C   0  0  0  0  0  0
  -22.7217  -10.2123   20.3040 C   0  0  0  0  0  0
  -21.6860   -6.0725   22.5276 C   0  0  0  0  0  0
  -21.4017   -6.5630   23.8208 C   0  0  0  0  0  0
  -21.3660   -5.6788   24.9174 C   0  0  0  0  0  0
  -21.6043   -4.3049   24.7227 C   0  0  0  0  0  0
  -21.8821   -3.8136   23.4351 C   0  0  0  0  0  0
  -21.9194   -4.6951   22.3404 C   0  0  0  0  0  0
  -22.7852  -13.5234   21.1830 C   0  0  0  0  0  0
  -22.1662   -4.2131   21.0982 F   0  0  0  0  0  0
  -21.5631   -3.4538   25.7741 F   0  0  0  0  0  0
  -30.0268  -13.3296   20.4409 N   0  0  0  0  0  0
  -26.3007  -12.9334   20.3343 N   0  0  0  0  0  0
  -25.9315  -11.6495   20.5743 N   0  0  0  0  0  0
  -22.0492  -12.8245   22.0398 N   0  0  0  0  0  0
  -25.4289  -15.1886   20.4093 N   0  0  0  0  0  0
  -31.8292  -14.6718   20.1143 O   0  0  0  0  0  0
  -21.6649   -6.8866   21.4237 O   0  0  0  0  0  0
  -22.3533  -14.5528   20.6668 O   0  0  0  0  0  0
  -24.6180  -31.8661   23.2060 C   0  0  0  0  0  0
  -25.9062  -32.4810   23.8369 C   0  0  1  0  0  0
  -27.2333  -27.4057   20.1107 C   0  0  0  0  0  0
  -25.5906  -33.8609   24.2300 N   0  0  0  0  0  0
  -23.4076  -30.4875   21.5478 C   0  0  2  0  0  0
  -24.8553  -28.9499   20.1132 C   0  0  0  0  0  0
  -22.7435  -29.4649   22.4984 C   0  0  0  0  0  0
  -18.0283  -28.1384   22.8502 C   0  0  0  0  0  0
  -24.1490  -36.7314   23.2639 C   0  0  0  0  0  0
  -25.9387  -30.8245   21.3611 C   0  0  0  0  0  0
  -26.0177  -29.4562   20.7094 C   0  0  0  0  0  0
  -27.2132  -28.6948   20.6994 C   0  0  0  0  0  0
  -26.0557  -26.9228   19.5015 C   0  0  0  0  0  0
  -24.8713  -27.6843   19.5018 C   0  0  0  0  0  0
  -23.6167  -29.8179   20.1635 C   0  0  0  0  0  0
  -25.4112  -36.3103   24.0333 C   0  0  1  0  0  0
  -20.5874  -28.3676   23.1324 C   0  0  2  0  0  0
  -20.6775  -26.9411   22.5426 C   0  0  0  0  0  0
  -19.5747  -26.6387   21.5231 C   0  0  0  0  0  0
  -18.1928  -26.7929   22.1638 C   0  0  0  0  0  0
  -19.1531  -28.8848   23.2906 C   0  0  0  0  0  0
  -18.9452  -30.1458   23.8909 C   0  0  0  0  0  0
  -17.6451  -30.6586   24.0568 C   0  0  0  0  0  0
  -25.9041  -34.9472   23.5112 C   0  0  0  0  0  0
  -16.5345  -29.9085   23.6326 C   0  0  0  0  0  0
  -16.7272  -28.6504   23.0344 C   0  0  0  0  0  0
  -26.4472  -31.6592   25.0708 C   0  0  0  0  0  0
  -25.3729  -31.3710   26.1450 C   0  0  0  0  0  0
  -27.0285  -30.3026   24.6086 C   0  0  0  0  0  0
  -27.6043  -32.4315   25.7477 C   0  0  0  0  0  0
  -27.5580  -37.1816   24.8467 C   0  0  0  0  0  0
  -21.4158  -29.3031   22.3723 N   0  0  0  0  0  0
  -26.4297  -37.3789   23.9402 N   0  0  0  0  0  0
  -24.6731  -31.0745   22.0965 N   0  0  0  0  0  0
  -23.4196  -28.8206   23.3044 O   0  0  0  0  0  0
  -28.3713  -26.6183   20.1258 O   0  0  0  0  0  0
  -26.5610  -34.8929   22.4678 O   0  0  0  0  0  0
  -23.5365  -32.1427   23.7437 O   0  0  0  0  0  0
  -31.7059  -17.2155   21.6218 C   0  0  0  0  0  0
  -30.3713  -16.9185   21.2274 C   0  0  0  0  0  0
  -31.2502  -19.4672   21.6855 C   0  0  0  0  0  0
  -29.9101  -19.2249   21.2775 C   0  0  0  0  0  0
  -28.7332  -22.7951   20.9894 C   0  0  0  0  0  0
  -29.1984  -21.4524   20.3328 C   0  0  0  0  0  0
  -28.2370  -25.3606   20.8382 C   0  0  0  0  0  0
  -28.7109  -24.0745   20.0793 C   0  0  2  0  0  0
  -32.1459  -18.4755   21.8536 N   0  0  0  0  0  0
  -29.4760  -17.9479   21.0754 N   0  0  0  0  0  0
  -31.6814  -20.7389   22.0309 N   0  0  0  0  0  0
  -29.9709  -15.5476   21.0671 N   0  0  0  0  0  0
  -28.9523  -20.2613   21.1751 N   0  0  0  0  0  0
  -27.8001  -23.8254   19.0198 O   0  0  0  0  0  0
  -31.4704  -12.4332   19.1346 H   0  0  0  0  0  0
  -30.3322  -11.3255   19.8445 H   0  0  0  0  0  0
  -29.7510  -11.7776   17.4424 H   0  0  0  0  0  0
  -29.6620  -13.4902   17.7646 H   0  0  0  0  0  0
  -27.8422  -11.3059   18.8306 H   0  0  0  0  0  0
  -27.3709  -12.6231   17.7865 H   0  0  0  0  0  0
  -27.6934  -14.2548   19.5588 H   0  0  0  0  0  0
  -28.6878  -11.9859   21.3547 H   0  0  0  0  0  0
  -28.4579  -13.6322   21.8638 H   0  0  0  0  0  0
  -25.2749   -9.5710   22.4734 H   0  0  0  0  0  0
  -24.0007   -7.4647   22.7475 H   0  0  0  0  0  0
  -21.0820   -8.8745   19.8962 H   0  0  0  0  0  0
  -22.3649  -10.9654   19.6151 H   0  0  0  0  0  0
  -21.2013   -7.6140   23.9706 H   0  0  0  0  0  0
  -21.1480   -6.0519   25.9073 H   0  0  0  0  0  0
  -22.0598   -2.7598   23.2859 H   0  0  0  0  0  0
  -22.4113  -11.9931   22.4825 H   0  0  0  0  0  0
  -21.1093  -13.1260   22.2563 H   0  0  0  0  0  0
  -24.6630  -15.8442   20.5190 H   0  0  0  0  0  0
  -26.2803  -15.6298   20.0847 H   0  0  0  0  0  0
  -26.7140  -32.5512   23.1138 H   0  0  0  0  0  0
  -25.0035  -33.9763   25.0431 H   0  0  0  0  0  0
  -22.6967  -31.3041   21.4070 H   0  0  0  0  0  0
  -23.3737  -35.9664   23.3323 H   0  0  0  0  0  0
  -24.3583  -36.8907   22.2048 H   0  0  0  0  0  0
  -23.7264  -37.6535   23.6641 H   0  0  0  0  0  0
  -26.0519  -31.5875   20.5893 H   0  0  0  0  0  0
  -26.8264  -30.8802   21.9798 H   0  0  0  0  0  0
  -28.1107  -29.0811   21.1625 H   0  0  0  0  0  0
  -26.0508  -25.9512   19.0291 H   0  0  0  0  0  0
  -23.9802  -27.2907   19.0329 H   0  0  0  0  0  0
  -23.7224  -30.5901   19.4006 H   0  0  0  0  0  0
  -22.7408  -29.2359   19.8716 H   0  0  0  0  0  0
  -25.1290  -36.1962   25.0826 H   0  0  0  0  0  0
  -20.9971  -28.3240   24.1443 H   0  0  0  0  0  0
  -20.5705  -26.2279   23.3612 H   0  0  0  0  0  0
  -21.6640  -26.7466   22.1202 H   0  0  0  0  0  0
  -19.6906  -25.6302   21.1248 H   0  0  0  0  0  0
  -19.6679  -27.3207   20.6768 H   0  0  0  0  0  0
  -17.4204  -26.6698   21.4029 H   0  0  0  0  0  0
  -18.0310  -26.0065   22.9025 H   0  0  0  0  0  0
  -19.7926  -30.7279   24.2271 H   0  0  0  0  0  0
  -17.5002  -31.6266   24.5170 H   0  0  0  0  0  0
  -15.5344  -30.2986   23.7635 H   0  0  0  0  0  0
  -15.8678  -28.0829   22.7035 H   0  0  0  0  0  0
  -24.5892  -30.7072   25.7782 H   0  0  0  0  0  0
  -24.8933  -32.2870   26.4909 H   0  0  0  0  0  0
  -25.8071  -30.8864   27.0202 H   0  0  0  0  0  0
  -26.2818  -29.6813   24.1123 H   0  0  0  0  0  0
  -27.4022  -29.7238   25.4542 H   0  0  0  0  0  0
  -27.8673  -30.4325   23.9244 H   0  0  0  0  0  0
  -27.2648  -33.3596   26.2086 H   0  0  0  0  0  0
  -28.3834  -32.6911   25.0298 H   0  0  0  0  0  0
  -28.0732  -31.8426   26.5368 H   0  0  0  0  0  0
  -28.2614  -38.0097   24.7489 H   0  0  0  0  0  0
  -28.1058  -36.2628   24.6317 H   0  0  0  0  0  0
  -27.2302  -37.1498   25.8874 H   0  0  0  0  0  0
  -20.9332  -29.8729   21.6920 H   0  0  0  0  0  0
  -26.0182  -38.2871   24.1379 H   0  0  0  0  0  0
  -32.4329  -16.4375   21.7993 H   0  0  0  0  0  0
  -29.3810  -22.9970   21.8440 H   0  0  0  0  0  0
  -27.7362  -22.6557   21.4102 H   0  0  0  0  0  0
  -30.2429  -21.5240   20.0281 H   0  0  0  0  0  0
  -28.6381  -21.3038   19.4084 H   0  0  0  0  0  0
  -28.8592  -25.4672   21.7283 H   0  0  0  0  0  0
  -27.2277  -25.2106   21.2258 H   0  0  0  0  0  0
  -29.7075  -24.2406   19.6683 H   0  0  0  0  0  0
  -30.9009  -21.3709   22.1704 H   0  0  0  0  0  0
  -32.3764  -20.7890   22.7648 H   0  0  0  0  0  0
  -29.0070  -15.3410   21.2714 H   0  0  0  0  0  0
  -28.0192  -19.8843   21.0539 H   0  0  0  0  0  0
  -26.9379  -23.6982   19.4016 H   0  0  0  0  0  0
  1 25  1  0  0  0
  1 30  2  0  0  0
  1 82  1  0  0  0
  2  3  1  0  0  0
  2 25  1  0  0  0
  2 85  1  0  0  0
  2 86  1  0  0  0
  3  4  1  0  0  0
  3 87  1  0  0  0
  3 88  1  0  0  0
  4  5  1  0  0  0
  4 89  1  0  0  0
  4 90  1  0  0  0
  5  6  1  0  0  0
  5 26  1  0  0  0
  5 91  1  0  0  0
  6 25  1  0  0  0
  6 92  1  0  0  0
  6 93  1  0  0  0
  7  8  2  0  0  0
  7 26  1  0  0  0
  7 29  1  0  0  0
  8  9  1  0  0  0
  8 22  1  0  0  0
  9 10  1  0  0  0
  9 27  2  0  0  0
 10 11  2  0  0  0
 10 15  1  0  0  0
 11 12  1  0  0  0
 11 94  1  0  0  0
 12 13  2  0  0  0
 12 95  1  0  0  0
 13 14  1  0  0  0
 13 31  1  0  0  0
 14 15  2  0  0  0
 14 96  1  0  0  0
 15 97  1  0  0  0
 16 17  2  0  0  0
 16 21  1  0  0  0
 16 31  1  0  0  0
 17 18  1  0  0  0
 17 98  1  0  0  0
 18 19  2  0  0  0
 18 99  1  0  0  0
 19 20  1  0  0  0
 19 24  1  0  0  0
 20 21  2  0  0  0
 20100  1  0  0  0
 21 23  1  0  0  0
 22 28  1  0  0  0
 22 32  2  0  0  0
 26 27  1  0  0  0
 28101  1  0  0  0
 28102  1  0  0  0
 29103  1  0  0  0
 29104  1  0  0  0
 33 34  1  0  0  0
 33 66  1  0  0  0
 33 70  2  0  0  0
 34 36  1  0  0  0
 34 59  1  0  0  0
 34105  1  0  0  0
 35 44  2  0  0  0
 35 45  1  0  0  0
 35 68  1  0  0  0
 36 56  1  0  0  0
 36106  1  0  0  0
 37 39  1  0  0  0
 37 47  1  0  0  0
 37 66  1  0  0  0
 37107  1  0  0  0
 38 43  2  0  0  0
 38 46  1  0  0  0
 38 47  1  0  0  0
 39 64  1  0  0  0
 39 67  2  0  0  0
 40 52  1  0  0  0
 40 53  2  0  0  0
 40 58  1  0  0  0
 41108  1  0  0  0
 41109  1  0  0  0
 41110  1  0  0  0
 41 48  1  0  0  0
 42 43  1  0  0  0
 42 66  1  0  0  0
 42111  1  0  0  0
 42112  1  0  0  0
 43 44  1  0  0  0
 44113  1  0  0  0
 45 46  2  0  0  0
 45114  1  0  0  0
 46115  1  0  0  0
 47116  1  0  0  0
 47117  1  0  0  0
 48 56  1  0  0  0
 48 65  1  0  0  0
 48118  1  0  0  0
 49 50  1  0  0  0
 49 53  1  0  0  0
 49 64  1  0  0  0
 49119  1  0  0  0
 50 51  1  0  0  0
 50120  1  0  0  0
 50121  1  0  0  0
 51 52  1  0  0  0
 51122  1  0  0  0
 51123  1  0  0  0
 52124  1  0  0  0
 52125  1  0  0  0
 53 54  1  0  0  0
 54 55  2  0  0  0
 54126  1  0  0  0
 55 57  1  0  0  0
 55127  1  0  0  0
 56 69  2  0  0  0
 57 58  2  0  0  0
 57128  1  0  0  0
 58129  1  0  0  0
 59 60  1  0  0  0
 59 61  1  0  0  0
 59 62  1  0  0  0
 60130  1  0  0  0
 60131  1  0  0  0
 60132  1  0  0  0
 61133  1  0  0  0
 61134  1  0  0  0
 61135  1  0  0  0
 62136  1  0  0  0
 62137  1  0  0  0
 62138  1  0  0  0
 63 65  1  0  0  0
 63139  1  0  0  0
 63140  1  0  0  0
 63141  1  0  0  0
 64142  1  0  0  0
 65143  1  0  0  0
 68 77  1  0  0  0
 71 72  2  0  0  0
 71 79  1  0  0  0
 71144  1  0  0  0
 72 80  1  0  0  0
 72 82  1  0  0  0
 73 74  1  0  0  0
 73 79  2  0  0  0
 73 81  1  0  0  0
 74 80  2  0  0  0
 74 83  1  0  0  0
 75 76  1  0  0  0
 75 78  1  0  0  0
 75145  1  0  0  0
 75146  1  0  0  0
 76 83  1  0  0  0
 76147  1  0  0  0
 76148  1  0  0  0
 77 78  1  0  0  0
 77149  1  0  0  0
 77150  1  0  0  0
 78 84  1  0  0  0
 78151  1  0  0  0
 81152  1  0  0  0
 81153  1  0  0  0
 82154  1  0  0  0
 83155  1  0  0  0
 84156  1  0  0  0
M  ISO  4   1 100  68 101  77 101  82 100
M  END
> <chiral flag>
0

> <version>
0

> <s_m_source_file>
/data/baiqing/PycharmProjects/Reinvent-master-3.2/result/LINK_invent/BTK/process_docking_weight1_custom_product_contain_oxygen_bond_distance_aromatic_linkinvent_7_9_3/rearranged_h_0199.sdf

> <i_m_source_file_index>
66

> <r_mmod_Potential_Energy-OPLS-2005>
-119.546226501465

> <r_mmod_Stretch_Energy-OPLS-2005>
49.8938789367676

> <r_mmod_Bend_Energy-OPLS-2005>
108.03002166748

> <r_mmod_Torsional_Energy-OPLS-2005>
255.72981262207

> <r_mmod_Improper_Torsional_Energy-OPLS-2005>
13.1217231750488

> <r_mmod_Van_der_Waal_Energy-OPLS-2005>
159.376205444336

> <r_mmod_Electrostatic_Energy-OPLS-2005>
-475.046783447266

> <r_mmod_Solvation_Energy-OPLS-2005>
-249.112884521484

> <b_mmod_Minimization_Converged-OPLS-2005>
0

> <r_mmod_RMS_Derivative-OPLS-2005>
1.33093082904816

$$$$
66
                    3D
 Structure written by MMmdl.
147155  0  0  1  0            999 V2000
  -30.6419  -14.7118   20.4845 C   0  0  0  0  0  0
  -30.4302  -12.4437   19.4586 C   0  0  0  0  0  0
  -29.5038  -12.5024   18.2257 C   0  0  0  0  0  0
  -28.0310  -12.3302   18.6449 C   0  0  0  0  0  0
  -27.6417  -13.2302   19.8483 C   0  0  2  0  0  0
  -28.6897  -13.1591   20.9794 C   0  0  0  0  0  0
  -25.2515  -13.8197   20.5697 C   0  0  0  0  0  0
  -24.1805  -13.0443   20.9211 C   0  0  0  0  0  0
  -24.6395  -11.6920   20.8754 C   0  0  0  0  0  0
  -23.9072  -10.4295   21.0412 C   0  0  0  0  0  0
  -24.3623   -9.4208   21.9187 C   0  0  0  0  0  0
  -23.6297   -8.2243   22.0755 C   0  0  0  0  0  0
  -22.4278   -8.0282   21.3546 C   0  0  0  0  0  0
  -21.9916   -9.0257   20.4647 C   0  0  0  0  0  0
  -22.7246  -10.2135   20.3058 C   0  0  0  0  0  0
  -21.6853   -6.0738   22.5281 C   0  0  0  0  0  0
  -21.4014   -6.5642   23.8214 C   0  0  0  0  0  0
  -21.3658   -5.6794   24.9176 C   0  0  0  0  0  0
  -21.6044   -4.3056   24.7226 C   0  0  0  0  0  0
  -21.8819   -3.8148   23.4347 C   0  0  0  0  0  0
  -21.9193   -4.6965   22.3404 C   0  0  0  0  0  0
  -22.7826  -13.5223   21.1869 C   0  0  0  0  0  0
  -22.1662   -4.2151   21.0981 F   0  0  0  0  0  0
  -21.5627   -3.4539   25.7738 F   0  0  0  0  0  0
  -29.9894  -13.5049   20.3907 N   0  0  0  0  0  0
  -26.2940  -12.9402   20.3284 N   0  0  0  0  0  0
  -25.9325  -11.6545   20.5758 N   0  0  0  0  0  0
  -22.0472  -12.8211   22.0423 N   0  0  0  0  0  0
  -25.4202  -15.1922   20.4109 N   0  0  0  0  0  0
  -31.8351  -14.7915   20.1833 O   0  0  0  0  0  0
  -21.6641   -6.8881   21.4242 O   0  0  0  0  0  0
  -22.3510  -14.5527   20.6715 O   0  0  0  0  0  0
  -24.6326  -31.8570   23.2014 C   0  0  0  0  0  0
  -25.9154  -32.4764   23.8350 C   0  0  1  0  0  0
  -27.2100  -27.2627   20.1171 C   0  0  0  0  0  0
  -25.5951  -33.8566   24.2271 N   0  0  0  0  0  0
  -23.4277  -30.4843   21.5460 C   0  0  2  0  0  0
  -24.8716  -28.9401   20.1103 C   0  0  0  0  0  0
  -22.7508  -29.4621   22.4916 C   0  0  0  0  0  0
  -18.0295  -28.1387   22.8486 C   0  0  0  0  0  0
  -24.1490  -36.7283   23.2638 C   0  0  0  0  0  0
  -25.9770  -30.7702   21.3826 C   0  0  0  0  0  0
  -26.0479  -29.3958   20.7194 C   0  0  0  0  0  0
  -27.2212  -28.5710   20.7119 C   0  0  0  0  0  0
  -26.0048  -26.8864   19.4747 C   0  0  0  0  0  0
  -24.8558  -27.6929   19.4775 C   0  0  0  0  0  0
  -23.6447  -29.8274   20.1599 C   0  0  0  0  0  0
  -25.4117  -36.3074   24.0327 C   0  0  1  0  0  0
  -20.5901  -28.3702   23.1263 C   0  0  2  0  0  0
  -20.6784  -26.9419   22.5402 C   0  0  0  0  0  0
  -19.5756  -26.6384   21.5211 C   0  0  0  0  0  0
  -18.1938  -26.7930   22.1626 C   0  0  0  0  0  0
  -19.1549  -28.8861   23.2869 C   0  0  0  0  0  0
  -18.9468  -30.1462   23.8888 C   0  0  0  0  0  0
  -17.6467  -30.6587   24.0563 C   0  0  0  0  0  0
  -25.9059  -34.9445   23.5098 C   0  0  0  0  0  0
  -16.5358  -29.9085   23.6333 C   0  0  0  0  0  0
  -16.7281  -28.6502   23.0355 C   0  0  0  0  0  0
  -26.4512  -31.6585   25.0738 C   0  0  0  0  0  0
  -25.3728  -31.3737   26.1452 C   0  0  0  0  0  0
  -27.0361  -30.2999   24.6233 C   0  0  0  0  0  0
  -27.6061  -32.4327   25.7513 C   0  0  0  0  0  0
  -27.5579  -37.1799   24.8466 C   0  0  0  0  0  0
  -21.4215  -29.3053   22.3655 N   0  0  0  0  0  0
  -26.4290  -37.3773   23.9410 N   0  0  0  0  0  0
  -24.6985  -31.0543   22.0992 N   0  0  0  0  0  0
  -23.4210  -28.8147   23.3002 O   0  0  0  0  0  0
  -28.2862  -26.3394   20.1728 O   0  0  0  0  0  0
  -26.5624  -34.8916   22.4662 O   0  0  0  0  0  0
  -23.5476  -32.1391   23.7310 O   0  0  0  0  0  0
  -30.6115  -19.3986   19.6711 C   0  0  0  0  0  0
  -29.9715  -18.6165   20.6203 C   0  0  0  0  0  0
  -29.2326  -21.1088   20.4358 C   0  0  0  0  0  0
  -29.0150  -23.7274   20.2255 C   0  0  0  0  0  0
  -30.4458  -17.2165   21.1731 C   0  0  0  0  0  0
  -27.9187  -24.8800   20.0809 C   0  0  0  0  0  0
  -30.2078  -20.7630   19.5799 N   0  0  0  0  0  0
  -28.5857  -22.4347   20.4779 N   0  0  0  0  0  0
  -29.9102  -15.8564   20.7491 N   0  0  0  0  0  0
  -30.2099  -24.0129   20.1007 O   0  0  0  0  0  0
  -28.7351  -19.6556   21.3857 S   0  0  0  0  0  0
  -31.4700  -12.5662   19.1509 H   0  0  0  0  0  0
  -30.3740  -11.4663   19.9406 H   0  0  0  0  0  0
  -29.7808  -11.7295   17.5074 H   0  0  0  0  0  0
  -29.6311  -13.4572   17.7130 H   0  0  0  0  0  0
  -27.8864  -11.2816   18.9076 H   0  0  0  0  0  0
  -27.3710  -12.5240   17.7985 H   0  0  0  0  0  0
  -27.6377  -14.2526   19.4700 H   0  0  0  0  0  0
  -28.7230  -12.1604   21.4175 H   0  0  0  0  0  0
  -28.4304  -13.8405   21.7912 H   0  0  0  0  0  0
  -25.2766   -9.5683   22.4764 H   0  0  0  0  0  0
  -24.0006   -7.4632   22.7471 H   0  0  0  0  0  0
  -21.0848   -8.8776   19.8951 H   0  0  0  0  0  0
  -22.3706  -10.9675   19.6168 H   0  0  0  0  0  0
  -21.2005   -7.6150   23.9718 H   0  0  0  0  0  0
  -21.1480   -6.0524   25.9078 H   0  0  0  0  0  0
  -22.0598   -2.7610   23.2847 H   0  0  0  0  0  0
  -22.4092  -11.9873   22.4810 H   0  0  0  0  0  0
  -21.1088  -13.1231   22.2627 H   0  0  0  0  0  0
  -24.6510  -15.8444   20.5195 H   0  0  0  0  0  0
  -26.2642  -15.6325   20.0677 H   0  0  0  0  0  0
  -26.7221  -32.5411   23.1091 H   0  0  0  0  0  0
  -25.0106  -33.9705   25.0422 H   0  0  0  0  0  0
  -22.7242  -31.3074   21.4047 H   0  0  0  0  0  0
  -23.3755  -35.9613   23.3301 H   0  0  0  0  0  0
  -24.3580  -36.8902   22.2052 H   0  0  0  0  0  0
  -23.7240  -37.6484   23.6659 H   0  0  0  0  0  0
  -26.1198  -31.5339   20.6169 H   0  0  0  0  0  0
  -26.8533  -30.8135   22.0178 H   0  0  0  0  0  0
  -28.1191  -28.9144   21.2064 H   0  0  0  0  0  0
  -25.8947  -25.9440   18.9643 H   0  0  0  0  0  0
  -23.9569  -27.3396   18.9909 H   0  0  0  0  0  0
  -23.7713  -30.6078   19.4086 H   0  0  0  0  0  0
  -22.7617  -29.2648   19.8512 H   0  0  0  0  0  0
  -25.1297  -36.1922   25.0820 H   0  0  0  0  0  0
  -20.9994  -28.3279   24.1383 H   0  0  0  0  0  0
  -20.5688  -26.2313   23.3608 H   0  0  0  0  0  0
  -21.6651  -26.7445   22.1192 H   0  0  0  0  0  0
  -19.6917  -25.6293   21.1244 H   0  0  0  0  0  0
  -19.6689  -27.3192   20.6738 H   0  0  0  0  0  0
  -17.4205  -26.6675   21.4031 H   0  0  0  0  0  0
  -18.0340  -26.0072   22.9024 H   0  0  0  0  0  0
  -19.7944  -30.7282   24.2250 H   0  0  0  0  0  0
  -17.5022  -31.6266   24.5167 H   0  0  0  0  0  0
  -15.5358  -30.2984   23.7661 H   0  0  0  0  0  0
  -15.8681  -28.0818   22.7075 H   0  0  0  0  0  0
  -24.5914  -30.7074   25.7782 H   0  0  0  0  0  0
  -24.8908  -32.2906   26.4854 H   0  0  0  0  0  0
  -25.8041  -30.8934   27.0244 H   0  0  0  0  0  0
  -26.2952  -29.6746   24.1239 H   0  0  0  0  0  0
  -27.4016  -29.7265   25.4762 H   0  0  0  0  0  0
  -27.8843  -30.4268   23.9502 H   0  0  0  0  0  0
  -27.2666  -33.3634   26.2072 H   0  0  0  0  0  0
  -28.3883  -32.6875   25.0350 H   0  0  0  0  0  0
  -28.0717  -31.8464   26.5446 H   0  0  0  0  0  0
  -28.2593  -38.0100   24.7517 H   0  0  0  0  0  0
  -28.1077  -36.2631   24.6285 H   0  0  0  0  0  0
  -27.2297  -37.1440   25.8868 H   0  0  0  0  0  0
  -20.9398  -29.8789   21.6873 H   0  0  0  0  0  0
  -26.0167  -38.2846   24.1414 H   0  0  0  0  0  0
  -31.4504  -19.0853   19.0648 H   0  0  0  0  0  0
  -30.3105  -17.2420   22.2550 H   0  0  0  0  0  0
  -31.5303  -17.1860   21.0555 H   0  0  0  0  0  0
  -27.1233  -24.6728   20.7985 H   0  0  0  0  0  0
  -27.5158  -24.6894   19.0873 H   0  0  0  0  0  0
  -27.6085  -22.3880   20.7285 H   0  0  0  0  0  0
  -28.9195  -15.7163   20.8759 H   0  0  0  0  0  0
  1 25  1  0  0  0
  1 30  2  0  0  0
  1 79  1  0  0  0
  2  3  1  0  0  0
  2 25  1  0  0  0
  2 82  1  0  0  0
  2 83  1  0  0  0
  3  4  1  0  0  0
  3 84  1  0  0  0
  3 85  1  0  0  0
  4  5  1  0  0  0
  4 86  1  0  0  0
  4 87  1  0  0  0
  5  6  1  0  0  0
  5 26  1  0  0  0
  5 88  1  0  0  0
  6 25  1  0  0  0
  6 89  1  0  0  0
  6 90  1  0  0  0
  7  8  2  0  0  0
  7 26  1  0  0  0
  7 29  1  0  0  0
  8  9  1  0  0  0
  8 22  1  0  0  0
  9 10  1  0  0  0
  9 27  2  0  0  0
 10 11  2  0  0  0
 10 15  1  0  0  0
 11 12  1  0  0  0
 11 91  1  0  0  0
 12 13  2  0  0  0
 12 92  1  0  0  0
 13 14  1  0  0  0
 13 31  1  0  0  0
 14 15  2  0  0  0
 14 93  1  0  0  0
 15 94  1  0  0  0
 16 17  2  0  0  0
 16 21  1  0  0  0
 16 31  1  0  0  0
 17 18  1  0  0  0
 17 95  1  0  0  0
 18 19  2  0  0  0
 18 96  1  0  0  0
 19 20  1  0  0  0
 19 24  1  0  0  0
 20 21  2  0  0  0
 20 97  1  0  0  0
 21 23  1  0  0  0
 22 28  1  0  0  0
 22 32  2  0  0  0
 26 27  1  0  0  0
 28 98  1  0  0  0
 28 99  1  0  0  0
 29100  1  0  0  0
 29101  1  0  0  0
 33 34  1  0  0  0
 33 66  1  0  0  0
 33 70  2  0  0  0
 34 36  1  0  0  0
 34 59  1  0  0  0
 34102  1  0  0  0
 35 44  2  0  0  0
 35 45  1  0  0  0
 35 68  1  0  0  0
 36 56  1  0  0  0
 36103  1  0  0  0
 37 39  1  0  0  0
 37 47  1  0  0  0
 37 66  1  0  0  0
 37104  1  0  0  0
 38 43  2  0  0  0
 38 46  1  0  0  0
 38 47  1  0  0  0
 39 64  1  0  0  0
 39 67  2  0  0  0
 40 52  1  0  0  0
 40 53  2  0  0  0
 40 58  1  0  0  0
 41105  1  0  0  0
 41106  1  0  0  0
 41107  1  0  0  0
 41 48  1  0  0  0
 42 43  1  0  0  0
 42 66  1  0  0  0
 42108  1  0  0  0
 42109  1  0  0  0
 43 44  1  0  0  0
 44110  1  0  0  0
 45 46  2  0  0  0
 45111  1  0  0  0
 46112  1  0  0  0
 47113  1  0  0  0
 47114  1  0  0  0
 48 56  1  0  0  0
 48 65  1  0  0  0
 48115  1  0  0  0
 49 50  1  0  0  0
 49 53  1  0  0  0
 49 64  1  0  0  0
 49116  1  0  0  0
 50 51  1  0  0  0
 50117  1  0  0  0
 50118  1  0  0  0
 51 52  1  0  0  0
 51119  1  0  0  0
 51120  1  0  0  0
 52121  1  0  0  0
 52122  1  0  0  0
 53 54  1  0  0  0
 54 55  2  0  0  0
 54123  1  0  0  0
 55 57  1  0  0  0
 55124  1  0  0  0
 56 69  2  0  0  0
 57 58  2  0  0  0
 57125  1  0  0  0
 58126  1  0  0  0
 59 60  1  0  0  0
 59 61  1  0  0  0
 59 62  1  0  0  0
 60127  1  0  0  0
 60128  1  0  0  0
 60129  1  0  0  0
 61130  1  0  0  0
 61131  1  0  0  0
 61132  1  0  0  0
 62133  1  0  0  0
 62134  1  0  0  0
 62135  1  0  0  0
 63 65  1  0  0  0
 63136  1  0  0  0
 63137  1  0  0  0
 63138  1  0  0  0
 64139  1  0  0  0
 65140  1  0  0  0
 68 76  1  0  0  0
 71 72  2  0  0  0
 71 77  1  0  0  0
 71141  1  0  0  0
 72 75  1  0  0  0
 72 81  1  0  0  0
 73 77  2  0  0  0
 73 78  1  0  0  0
 73 81  1  0  0  0
 74 76  1  0  0  0
 74 78  1  0  0  0
 74 80  2  0  0  0
 75 79  1  0  0  0
 75142  1  0  0  0
 75143  1  0  0  0
 76144  1  0  0  0
 76145  1  0  0  0
 78146  1  0  0  0
 79147  1  0  0  0
M  ISO  4   1 100  68 101  76 101  79 100
M  END
> <chiral flag>
0

> <version>
0

> <s_m_source_file>
/data/baiqing/PycharmProjects/Reinvent-master-3.2/result/LINK_invent/BTK/process_docking_weight1_custom_product_contain_oxygen_bond_distance_aromatic_linkinvent_7_9_3/rearranged_h_0199.sdf

> <i_m_source_file_index>
67

> <r_mmod_Potential_Energy-OPLS-2005>
36.1170501708984

> <r_mmod_Stretch_Energy-OPLS-2005>
105.026649475098

> <r_mmod_Bend_Energy-OPLS-2005>
175.581573486328

> <r_mmod_Torsional_Energy-OPLS-2005>
222.084274291992

> <r_mmod_Improper_Torsional_Energy-OPLS-2005>
6.25258874893188

> <r_mmod_Van_der_Waal_Energy-OPLS-2005>
125.006011962891

> <r_mmod_Electrostatic_Energy-OPLS-2005>
-410.799499511719

> <r_mmod_Solvation_Energy-OPLS-2005>
-268.329437255859

> <b_mmod_Minimization_Converged-OPLS-2005>
0

> <r_mmod_RMS_Derivative-OPLS-2005>
0.22306090593338

$$$$
67
                    3D
 Structure written by MMmdl.
148156  0  0  1  0            999 V2000
  -30.5949  -14.8068   20.4396 C   0  0  0  0  0  0
  -30.4383  -12.4952   19.4740 C   0  0  0  0  0  0
  -29.5120  -12.5068   18.2370 C   0  0  0  0  0  0
  -28.0416  -12.3169   18.6569 C   0  0  0  0  0  0
  -27.6370  -13.2331   19.8418 C   0  0  2  0  0  0
  -28.6847  -13.2023   20.9765 C   0  0  0  0  0  0
  -25.2498  -13.8185   20.5694 C   0  0  0  0  0  0
  -24.1793  -13.0432   20.9215 C   0  0  0  0  0  0
  -24.6387  -11.6913   20.8746 C   0  0  0  0  0  0
  -23.9062  -10.4289   21.0413 C   0  0  0  0  0  0
  -24.3619   -9.4198   21.9184 C   0  0  0  0  0  0
  -23.6283   -8.2239   22.0757 C   0  0  0  0  0  0
  -22.4268   -8.0274   21.3547 C   0  0  0  0  0  0
  -21.9899   -9.0253   20.4657 C   0  0  0  0  0  0
  -22.7237  -10.2126   20.3064 C   0  0  0  0  0  0
  -21.6846   -6.0729   22.5278 C   0  0  0  0  0  0
  -21.4019   -6.5636   23.8211 C   0  0  0  0  0  0
  -21.3661   -5.6791   24.9172 C   0  0  0  0  0  0
  -21.6043   -4.3055   24.7223 C   0  0  0  0  0  0
  -21.8817   -3.8144   23.4347 C   0  0  0  0  0  0
  -21.9194   -4.6959   22.3402 C   0  0  0  0  0  0
  -22.7819  -13.5220   21.1864 C   0  0  0  0  0  0
  -22.1662   -4.2148   21.0978 F   0  0  0  0  0  0
  -21.5624   -3.4538   25.7737 F   0  0  0  0  0  0
  -29.9772  -13.5705   20.3850 N   0  0  0  0  0  0
  -26.2920  -12.9399   20.3254 N   0  0  0  0  0  0
  -25.9317  -11.6543   20.5734 N   0  0  0  0  0  0
  -22.0465  -12.8222   22.0422 N   0  0  0  0  0  0
  -25.4140  -15.1911   20.4111 N   0  0  0  0  0  0
  -31.7982  -14.8760   20.1677 O   0  0  0  0  0  0
  -21.6635   -6.8869   21.4237 O   0  0  0  0  0  0
  -22.3508  -14.5529   20.6702 O   0  0  0  0  0  0
  -24.6355  -31.8530   23.1958 C   0  0  0  0  0  0
  -25.9163  -32.4744   23.8318 C   0  0  1  0  0  0
  -27.2183  -27.2263   20.1250 C   0  0  0  0  0  0
  -25.5942  -33.8550   24.2242 N   0  0  0  0  0  0
  -23.4334  -30.4766   21.5399 C   0  0  2  0  0  0
  -24.8795  -28.9185   20.1111 C   0  0  0  0  0  0
  -22.7525  -29.4595   22.4887 C   0  0  0  0  0  0
  -18.0303  -28.1385   22.8483 C   0  0  0  0  0  0
  -24.1490  -36.7279   23.2639 C   0  0  0  0  0  0
  -25.9833  -30.7548   21.3800 C   0  0  0  0  0  0
  -26.0557  -29.3745   20.7198 C   0  0  0  0  0  0
  -27.2282  -28.5437   20.7120 C   0  0  0  0  0  0
  -26.0137  -26.8490   19.4888 C   0  0  0  0  0  0
  -24.8658  -27.6648   19.4850 C   0  0  0  0  0  0
  -23.6539  -29.8123   20.1564 C   0  0  0  0  0  0
  -25.4120  -36.3064   24.0322 C   0  0  1  0  0  0
  -20.5908  -28.3709   23.1245 C   0  0  2  0  0  0
  -20.6785  -26.9420   22.5400 C   0  0  0  0  0  0
  -19.5758  -26.6379   21.5210 C   0  0  0  0  0  0
  -18.1943  -26.7927   22.1626 C   0  0  0  0  0  0
  -19.1556  -28.8863   23.2860 C   0  0  0  0  0  0
  -18.9477  -30.1459   23.8890 C   0  0  0  0  0  0
  -17.6473  -30.6584   24.0562 C   0  0  0  0  0  0
  -25.9063  -34.9436   23.5084 C   0  0  0  0  0  0
  -16.5366  -29.9085   23.6321 C   0  0  0  0  0  0
  -16.7288  -28.6497   23.0354 C   0  0  0  0  0  0
  -26.4511  -31.6583   25.0722 C   0  0  0  0  0  0
  -25.3721  -31.3756   26.1434 C   0  0  0  0  0  0
  -27.0362  -30.2994   24.6237 C   0  0  0  0  0  0
  -27.6054  -32.4335   25.7503 C   0  0  0  0  0  0
  -27.5577  -37.1795   24.8465 C   0  0  0  0  0  0
  -21.4224  -29.3058   22.3634 N   0  0  0  0  0  0
  -26.4289  -37.3765   23.9406 N   0  0  0  0  0  0
  -24.7034  -31.0472   22.0946 N   0  0  0  0  0  0
  -23.4215  -28.8130   23.2990 O   0  0  0  0  0  0
  -28.2999  -26.2998   20.1762 O   0  0  0  0  0  0
  -26.5642  -34.8914   22.4658 O   0  0  0  0  0  0
  -23.5493  -32.1363   23.7230 O   0  0  0  0  0  0
  -30.1437  -19.6024   20.5550 C   0  0  0  0  0  0
  -30.1347  -17.3990   20.5458 C   0  0  0  0  0  0
  -28.7753  -22.0201   20.1985 C   0  0  0  0  0  0
  -28.0141  -24.8071   20.0754 C   0  0  0  0  0  0
  -29.1157  -23.6252   20.3613 C   0  0  1  0  0  0
  -29.2934  -18.4954   20.4328 N   0  0  0  0  0  0
  -31.4088  -19.2289   20.7304 N   0  0  0  0  0  0
  -29.8912  -21.0579   20.5691 N   0  0  0  0  0  0
  -29.7984  -15.9482   20.5538 N   0  0  0  0  0  0
  -31.4156  -17.8149   20.7132 O   0  0  0  0  0  0
  -29.4939  -23.7509   21.7195 O   0  0  0  0  0  0
  -31.4760  -12.6320   19.1654 H   0  0  0  0  0  0
  -30.4017  -11.5282   19.9774 H   0  0  0  0  0  0
  -29.8044  -11.7231   17.5371 H   0  0  0  0  0  0
  -29.6237  -13.4502   17.7002 H   0  0  0  0  0  0
  -27.9168  -11.2711   18.9416 H   0  0  0  0  0  0
  -27.3805  -12.4819   17.8050 H   0  0  0  0  0  0
  -27.6167  -14.2451   19.4370 H   0  0  0  0  0  0
  -28.7369  -12.2125   21.4347 H   0  0  0  0  0  0
  -28.4098  -13.8937   21.7741 H   0  0  0  0  0  0
  -25.2763   -9.5673   22.4756 H   0  0  0  0  0  0
  -23.9998   -7.4626   22.7471 H   0  0  0  0  0  0
  -21.0831   -8.8773   19.8961 H   0  0  0  0  0  0
  -22.3691  -10.9666   19.6182 H   0  0  0  0  0  0
  -21.2015   -7.6146   23.9712 H   0  0  0  0  0  0
  -21.1486   -6.0523   25.9071 H   0  0  0  0  0  0
  -22.0595   -2.7608   23.2847 H   0  0  0  0  0  0
  -22.4091  -11.9908   22.4851 H   0  0  0  0  0  0
  -21.1088  -13.1254   22.2628 H   0  0  0  0  0  0
  -24.6353  -15.8327   20.5142 H   0  0  0  0  0  0
  -26.2411  -15.6361   20.0354 H   0  0  0  0  0  0
  -26.7228  -32.5383   23.1054 H   0  0  0  0  0  0
  -25.0078  -33.9690   25.0381 H   0  0  0  0  0  0
  -22.7313  -31.2997   21.3932 H   0  0  0  0  0  0
  -23.3747  -35.9614   23.3302 H   0  0  0  0  0  0
  -24.3569  -36.8906   22.2051 H   0  0  0  0  0  0
  -23.7251  -37.6481   23.6670 H   0  0  0  0  0  0
  -26.1286  -31.5140   20.6100 H   0  0  0  0  0  0
  -26.8583  -30.8030   22.0165 H   0  0  0  0  0  0
  -28.1275  -28.8904   21.2019 H   0  0  0  0  0  0
  -25.9222  -25.8935   18.9963 H   0  0  0  0  0  0
  -23.9655  -27.3109   19.0013 H   0  0  0  0  0  0
  -23.7866  -30.5902   19.4035 H   0  0  0  0  0  0
  -22.7697  -29.2532   19.8454 H   0  0  0  0  0  0
  -25.1300  -36.1901   25.0812 H   0  0  0  0  0  0
  -21.0010  -28.3298   24.1363 H   0  0  0  0  0  0
  -20.5670  -26.2332   23.3620 H   0  0  0  0  0  0
  -21.6654  -26.7428   22.1206 H   0  0  0  0  0  0
  -19.6917  -25.6286   21.1256 H   0  0  0  0  0  0
  -19.6682  -27.3171   20.6727 H   0  0  0  0  0  0
  -17.4206  -26.6665   21.4037 H   0  0  0  0  0  0
  -18.0347  -26.0073   22.9027 H   0  0  0  0  0  0
  -19.7951  -30.7275   24.2262 H   0  0  0  0  0  0
  -17.5028  -31.6265   24.5164 H   0  0  0  0  0  0
  -15.5363  -30.2987   23.7642 H   0  0  0  0  0  0
  -15.8691  -28.0811   22.7077 H   0  0  0  0  0  0
  -24.5880  -30.7127   25.7754 H   0  0  0  0  0  0
  -24.8934  -32.2942   26.4842 H   0  0  0  0  0  0
  -25.8016  -30.8932   27.0224 H   0  0  0  0  0  0
  -26.2957  -29.6736   24.1244 H   0  0  0  0  0  0
  -27.4010  -29.7263   25.4770 H   0  0  0  0  0  0
  -27.8849  -30.4251   23.9510 H   0  0  0  0  0  0
  -27.2648  -33.3638   26.2061 H   0  0  0  0  0  0
  -28.3876  -32.6898   25.0344 H   0  0  0  0  0  0
  -28.0712  -31.8482   26.5441 H   0  0  0  0  0  0
  -28.2595  -38.0091   24.7503 H   0  0  0  0  0  0
  -28.1074  -36.2622   24.6299 H   0  0  0  0  0  0
  -27.2297  -37.1452   25.8869 H   0  0  0  0  0  0
  -20.9413  -29.8804   21.6855 H   0  0  0  0  0  0
  -26.0163  -38.2835   24.1405 H   0  0  0  0  0  0
  -28.4975  -21.8228   19.1616 H   0  0  0  0  0  0
  -27.8956  -21.7726   20.7947 H   0  0  0  0  0  0
  -27.1447  -24.5978   20.7004 H   0  0  0  0  0  0
  -27.6839  -24.6360   19.0502 H   0  0  0  0  0  0
  -29.9875  -23.8438   19.7417 H   0  0  0  0  0  0
  -30.7216  -21.5754   20.8374 H   0  0  0  0  0  0
  -28.8154  -15.7605   20.6360 H   0  0  0  0  0  0
  -29.7706  -24.6542   21.8461 H   0  0  0  0  0  0
  1 25  1  0  0  0
  1 30  2  0  0  0
  1 79  1  0  0  0
  2  3  1  0  0  0
  2 25  1  0  0  0
  2 82  1  0  0  0
  2 83  1  0  0  0
  3  4  1  0  0  0
  3 84  1  0  0  0
  3 85  1  0  0  0
  4  5  1  0  0  0
  4 86  1  0  0  0
  4 87  1  0  0  0
  5  6  1  0  0  0
  5 26  1  0  0  0
  5 88  1  0  0  0
  6 25  1  0  0  0
  6 89  1  0  0  0
  6 90  1  0  0  0
  7  8  2  0  0  0
  7 26  1  0  0  0
  7 29  1  0  0  0
  8  9  1  0  0  0
  8 22  1  0  0  0
  9 10  1  0  0  0
  9 27  2  0  0  0
 10 11  2  0  0  0
 10 15  1  0  0  0
 11 12  1  0  0  0
 11 91  1  0  0  0
 12 13  2  0  0  0
 12 92  1  0  0  0
 13 14  1  0  0  0
 13 31  1  0  0  0
 14 15  2  0  0  0
 14 93  1  0  0  0
 15 94  1  0  0  0
 16 17  2  0  0  0
 16 21  1  0  0  0
 16 31  1  0  0  0
 17 18  1  0  0  0
 17 95  1  0  0  0
 18 19  2  0  0  0
 18 96  1  0  0  0
 19 20  1  0  0  0
 19 24  1  0  0  0
 20 21  2  0  0  0
 20 97  1  0  0  0
 21 23  1  0  0  0
 22 28  1  0  0  0
 22 32  2  0  0  0
 26 27  1  0  0  0
 28 98  1  0  0  0
 28 99  1  0  0  0
 29100  1  0  0  0
 29101  1  0  0  0
 33 34  1  0  0  0
 33 66  1  0  0  0
 33 70  2  0  0  0
 34 36  1  0  0  0
 34 59  1  0  0  0
 34102  1  0  0  0
 35 44  2  0  0  0
 35 45  1  0  0  0
 35 68  1  0  0  0
 36 56  1  0  0  0
 36103  1  0  0  0
 37 39  1  0  0  0
 37 47  1  0  0  0
 37 66  1  0  0  0
 37104  1  0  0  0
 38 43  2  0  0  0
 38 46  1  0  0  0
 38 47  1  0  0  0
 39 64  1  0  0  0
 39 67  2  0  0  0
 40 52  1  0  0  0
 40 53  2  0  0  0
 40 58  1  0  0  0
 41105  1  0  0  0
 41106  1  0  0  0
 41107  1  0  0  0
 41 48  1  0  0  0
 42 43  1  0  0  0
 42 66  1  0  0  0
 42108  1  0  0  0
 42109  1  0  0  0
 43 44  1  0  0  0
 44110  1  0  0  0
 45 46  2  0  0  0
 45111  1  0  0  0
 46112  1  0  0  0
 47113  1  0  0  0
 47114  1  0  0  0
 48 56  1  0  0  0
 48 65  1  0  0  0
 48115  1  0  0  0
 49 50  1  0  0  0
 49 53  1  0  0  0
 49 64  1  0  0  0
 49116  1  0  0  0
 50 51  1  0  0  0
 50117  1  0  0  0
 50118  1  0  0  0
 51 52  1  0  0  0
 51119  1  0  0  0
 51120  1  0  0  0
 52121  1  0  0  0
 52122  1  0  0  0
 53 54  1  0  0  0
 54 55  2  0  0  0
 54123  1  0  0  0
 55 57  1  0  0  0
 55124  1  0  0  0
 56 69  2  0  0  0
 57 58  2  0  0  0
 57125  1  0  0  0
 58126  1  0  0  0
 59 60  1  0  0  0
 59 61  1  0  0  0
 59 62  1  0  0  0
 60127  1  0  0  0
 60128  1  0  0  0
 60129  1  0  0  0
 61130  1  0  0  0
 61131  1  0  0  0
 61132  1  0  0  0
 62133  1  0  0  0
 62134  1  0  0  0
 62135  1  0  0  0
 63 65  1  0  0  0
 63136  1  0  0  0
 63137  1  0  0  0
 63138  1  0  0  0
 64139  1  0  0  0
 65140  1  0  0  0
 68 74  1  0  0  0
 71 76  1  0  0  0
 71 77  2  0  0  0
 71 78  1  0  0  0
 72 76  2  0  0  0
 72 79  1  0  0  0
 72 80  1  0  0  0
 73 75  1  0  0  0
 73 78  1  0  0  0
 73141  1  0  0  0
 73142  1  0  0  0
 74 75  1  0  0  0
 74143  1  0  0  0
 74144  1  0  0  0
 75 81  1  0  0  0
 75145  1  0  0  0
 77 80  1  0  0  0
 78146  1  0  0  0
 79147  1  0  0  0
 81148  1  0  0  0
M  ISO  4   1 100  68 101  74 101  79 100
M  END
> <chiral flag>
0

> <version>
0

> <s_m_source_file>
/data/baiqing/PycharmProjects/Reinvent-master-3.2/result/LINK_invent/BTK/process_docking_weight1_custom_product_contain_oxygen_bond_distance_aromatic_linkinvent_7_9_3/rearranged_h_0199.sdf

> <i_m_source_file_index>
68

> <r_mmod_Potential_Energy-OPLS-2005>
0.885597288608551

> <r_mmod_Stretch_Energy-OPLS-2005>
140.446548461914

> <r_mmod_Bend_Energy-OPLS-2005>
224.98796081543

> <r_mmod_Torsional_Energy-OPLS-2005>
228.940032958984

> <r_mmod_Improper_Torsional_Energy-OPLS-2005>
5.89852476119995

> <r_mmod_Van_der_Waal_Energy-OPLS-2005>
118.421852111816

> <r_mmod_Electrostatic_Energy-OPLS-2005>
-571.491271972656

> <r_mmod_Solvation_Energy-OPLS-2005>
-258.530944824219

> <b_mmod_Minimization_Converged-OPLS-2005>
0

> <r_mmod_RMS_Derivative-OPLS-2005>
1.368243932724

$$$$
68
                    3D
 Structure written by MMmdl.
151159  0  0  1  0            999 V2000
  -30.5808  -14.7022   20.4796 C   0  0  0  0  0  0
  -30.4456  -12.4296   19.4563 C   0  0  0  0  0  0
  -29.5129  -12.5144   18.2261 C   0  0  0  0  0  0
  -28.0348  -12.3459   18.6362 C   0  0  0  0  0  0
  -27.6490  -13.2188   19.8593 C   0  0  2  0  0  0
  -28.6950  -13.0942   20.9891 C   0  0  0  0  0  0
  -25.2536  -13.8169   20.5668 C   0  0  0  0  0  0
  -24.1815  -13.0434   20.9195 C   0  0  0  0  0  0
  -24.6394  -11.6909   20.8746 C   0  0  0  0  0  0
  -23.9067  -10.4289   21.0413 C   0  0  0  0  0  0
  -24.3620   -9.4201   21.9188 C   0  0  0  0  0  0
  -23.6286   -8.2241   22.0757 C   0  0  0  0  0  0
  -22.4262   -8.0285   21.3550 C   0  0  0  0  0  0
  -21.9902   -9.0264   20.4656 C   0  0  0  0  0  0
  -22.7240  -10.2139   20.3067 C   0  0  0  0  0  0
  -21.6851   -6.0731   22.5279 C   0  0  0  0  0  0
  -21.4016   -6.5633   23.8213 C   0  0  0  0  0  0
  -21.3660   -5.6787   24.9174 C   0  0  0  0  0  0
  -21.6044   -4.3049   24.7226 C   0  0  0  0  0  0
  -21.8819   -3.8143   23.4345 C   0  0  0  0  0  0
  -21.9190   -4.6957   22.3401 C   0  0  0  0  0  0
  -22.7841  -13.5229   21.1849 C   0  0  0  0  0  0
  -22.1661   -4.2148   21.0977 F   0  0  0  0  0  0
  -21.5625   -3.4534   25.7736 F   0  0  0  0  0  0
  -30.0012  -13.4581   20.4195 N   0  0  0  0  0  0
  -26.2961  -12.9354   20.3292 N   0  0  0  0  0  0
  -25.9319  -11.6508   20.5748 N   0  0  0  0  0  0
  -22.0478  -12.8244   22.0418 N   0  0  0  0  0  0
  -25.4209  -15.1899   20.4049 N   0  0  0  0  0  0
  -31.7612  -14.8690   20.1564 O   0  0  0  0  0  0
  -21.6635   -6.8878   21.4243 O   0  0  0  0  0  0
  -22.3532  -14.5530   20.6675 O   0  0  0  0  0  0
  -24.6288  -31.8566   23.1990 C   0  0  0  0  0  0
  -25.9123  -32.4765   23.8332 C   0  0  1  0  0  0
  -27.2248  -27.2909   20.1302 C   0  0  0  0  0  0
  -25.5927  -33.8566   24.2267 N   0  0  0  0  0  0
  -23.4245  -30.4771   21.5417 C   0  0  2  0  0  0
  -24.8717  -28.9181   20.1184 C   0  0  0  0  0  0
  -22.7492  -29.4601   22.4927 C   0  0  0  0  0  0
  -18.0292  -28.1386   22.8484 C   0  0  0  0  0  0
  -24.1484  -36.7275   23.2642 C   0  0  0  0  0  0
  -25.9668  -30.7777   21.3740 C   0  0  0  0  0  0
  -26.0416  -29.4005   20.7198 C   0  0  0  0  0  0
  -27.2250  -28.6002   20.7090 C   0  0  0  0  0  0
  -26.0327  -26.8537   19.5199 C   0  0  0  0  0  0
  -24.8692  -27.6507   19.5102 C   0  0  0  0  0  0
  -23.6435  -29.8069   20.1593 C   0  0  0  0  0  0
  -25.4111  -36.3073   24.0335 C   0  0  1  0  0  0
  -20.5893  -28.3690   23.1284 C   0  0  2  0  0  0
  -20.6779  -26.9411   22.5413 C   0  0  0  0  0  0
  -19.5755  -26.6382   21.5215 C   0  0  0  0  0  0
  -18.1935  -26.7928   22.1623 C   0  0  0  0  0  0
  -19.1545  -28.8854   23.2880 C   0  0  0  0  0  0
  -18.9466  -30.1453   23.8901 C   0  0  0  0  0  0
  -17.6467  -30.6586   24.0559 C   0  0  0  0  0  0
  -25.9054  -34.9446   23.5105 C   0  0  0  0  0  0
  -16.5357  -29.9085   23.6323 C   0  0  0  0  0  0
  -16.7279  -28.6501   23.0346 C   0  0  0  0  0  0
  -26.4506  -31.6592   25.0715 C   0  0  0  0  0  0
  -25.3739  -31.3732   26.1444 C   0  0  0  0  0  0
  -27.0367  -30.3019   24.6180 C   0  0  0  0  0  0
  -27.6055  -32.4342   25.7484 C   0  0  0  0  0  0
  -27.5580  -37.1792   24.8466 C   0  0  0  0  0  0
  -21.4201  -29.3042   22.3675 N   0  0  0  0  0  0
  -26.4284  -37.3773   23.9422 N   0  0  0  0  0  0
  -24.6921  -31.0551   22.0950 N   0  0  0  0  0  0
  -23.4201  -28.8150   23.3025 O   0  0  0  0  0  0
  -28.3451  -26.4469   20.0960 O   0  0  0  0  0  0
  -26.5615  -34.8921   22.4668 O   0  0  0  0  0  0
  -23.5445  -32.1374   23.7302 O   0  0  0  0  0  0
  -30.9352  -17.9798   20.7069 C   0  0  0  0  0  0
  -29.8333  -17.1464   20.6012 C   0  0  0  0  0  0
  -29.3947  -19.7158   20.4293 C   0  0  0  0  0  0
  -30.7069  -22.7036   20.5675 C   0  0  0  0  0  0
  -28.4145  -23.7007   19.9699 C   0  0  0  0  0  0
  -28.2911  -25.1096   20.7536 C   0  0  0  0  0  0
  -29.1931  -22.4716   20.6837 C   0  0  1  0  0  0
  -30.6776  -19.3822   20.6395 N   0  0  0  0  0  0
  -29.7129  -15.7532   20.6955 N   0  0  0  0  0  0
  -28.8550  -21.0506   20.2868 N   0  0  0  0  0  0
  -28.4157  -18.2112   20.3604 S   0  0  0  0  0  0
  -31.4848  -12.5742   19.1555 H   0  0  0  0  0  0
  -30.4005  -11.4383   19.9096 H   0  0  0  0  0  0
  -29.7853  -11.7569   17.4895 H   0  0  0  0  0  0
  -29.6470  -13.4785   17.7334 H   0  0  0  0  0  0
  -27.8749  -11.2927   18.8692 H   0  0  0  0  0  0
  -27.3821  -12.5745   17.7935 H   0  0  0  0  0  0
  -27.6572  -14.2498   19.5074 H   0  0  0  0  0  0
  -28.7229  -12.0757   21.3790 H   0  0  0  0  0  0
  -28.4379  -13.7318   21.8364 H   0  0  0  0  0  0
  -25.2774   -9.5662   22.4753 H   0  0  0  0  0  0
  -23.9995   -7.4627   22.7470 H   0  0  0  0  0  0
  -21.0831   -8.8792   19.8961 H   0  0  0  0  0  0
  -22.3710  -10.9678   19.6174 H   0  0  0  0  0  0
  -21.2020   -7.6143   23.9717 H   0  0  0  0  0  0
  -21.1477   -6.0514   25.9075 H   0  0  0  0  0  0
  -22.0597   -2.7605   23.2846 H   0  0  0  0  0  0
  -22.4089  -11.9930   22.4843 H   0  0  0  0  0  0
  -21.1099  -13.1292   22.2605 H   0  0  0  0  0  0
  -24.6391  -15.8305   20.4914 H   0  0  0  0  0  0
  -26.2498  -15.6324   20.0308 H   0  0  0  0  0  0
  -26.7185  -32.5427   23.1071 H   0  0  0  0  0  0
  -25.0098  -33.9703   25.0429 H   0  0  0  0  0  0
  -22.7199  -31.2981   21.3945 H   0  0  0  0  0  0
  -23.3761  -35.9592   23.3298 H   0  0  0  0  0  0
  -24.3573  -36.8898   22.2057 H   0  0  0  0  0  0
  -23.7219  -37.6466   23.6670 H   0  0  0  0  0  0
  -26.1040  -31.5391   20.6050 H   0  0  0  0  0  0
  -26.8443  -30.8262   22.0074 H   0  0  0  0  0  0
  -28.1290  -28.9700   21.1721 H   0  0  0  0  0  0
  -26.0025  -25.8801   19.0508 H   0  0  0  0  0  0
  -23.9715  -27.2761   19.0381 H   0  0  0  0  0  0
  -23.7757  -30.5817   19.4029 H   0  0  0  0  0  0
  -22.7612  -29.2437   19.8504 H   0  0  0  0  0  0
  -25.1293  -36.1914   25.0826 H   0  0  0  0  0  0
  -20.9982  -28.3261   24.1407 H   0  0  0  0  0  0
  -20.5680  -26.2296   23.3613 H   0  0  0  0  0  0
  -21.6647  -26.7437   22.1209 H   0  0  0  0  0  0
  -19.6916  -25.6293   21.1244 H   0  0  0  0  0  0
  -19.6693  -27.3188   20.6743 H   0  0  0  0  0  0
  -17.4205  -26.6674   21.4024 H   0  0  0  0  0  0
  -18.0335  -26.0073   22.9024 H   0  0  0  0  0  0
  -19.7942  -30.7264   24.2277 H   0  0  0  0  0  0
  -17.5022  -31.6269   24.5155 H   0  0  0  0  0  0
  -15.5358  -30.2986   23.7649 H   0  0  0  0  0  0
  -15.8679  -28.0818   22.7064 H   0  0  0  0  0  0
  -24.5880  -30.7128   25.7765 H   0  0  0  0  0  0
  -24.8980  -32.2907   26.4917 H   0  0  0  0  0  0
  -25.8058  -30.8856   27.0193 H   0  0  0  0  0  0
  -26.2948  -29.6752   24.1214 H   0  0  0  0  0  0
  -27.4086  -29.7293   25.4687 H   0  0  0  0  0  0
  -27.8806  -30.4328   23.9401 H   0  0  0  0  0  0
  -27.2650  -33.3634   26.2070 H   0  0  0  0  0  0
  -28.3850  -32.6922   25.0303 H   0  0  0  0  0  0
  -28.0743  -31.8471   26.5391 H   0  0  0  0  0  0
  -28.2588  -38.0099   24.7527 H   0  0  0  0  0  0
  -28.1084  -36.2631   24.6269 H   0  0  0  0  0  0
  -27.2304  -37.1410   25.8869 H   0  0  0  0  0  0
  -20.9390  -29.8756   21.6872 H   0  0  0  0  0  0
  -26.0162  -38.2845   24.1432 H   0  0  0  0  0  0
  -31.9564  -17.6642   20.8697 H   0  0  0  0  0  0
  -30.9757  -23.7243   20.8405 H   0  0  0  0  0  0
  -31.0602  -22.5344   19.5493 H   0  0  0  0  0  0
  -31.2637  -22.0418   21.2307 H   0  0  0  0  0  0
  -28.8826  -23.8857   19.0028 H   0  0  0  0  0  0
  -27.3990  -23.3827   19.7301 H   0  0  0  0  0  0
  -29.1146  -25.1390   21.4662 H   0  0  0  0  0  0
  -27.4037  -25.0640   21.3868 H   0  0  0  0  0  0
  -28.9366  -22.5300   21.7427 H   0  0  0  0  0  0
  -28.7728  -15.4308   20.8614 H   0  0  0  0  0  0
  -27.8764  -20.9826   20.0198 H   0  0  0  0  0  0
  1 25  1  0  0  0
  1 30  2  0  0  0
  1 79  1  0  0  0
  2  3  1  0  0  0
  2 25  1  0  0  0
  2 82  1  0  0  0
  2 83  1  0  0  0
  3  4  1  0  0  0
  3 84  1  0  0  0
  3 85  1  0  0  0
  4  5  1  0  0  0
  4 86  1  0  0  0
  4 87  1  0  0  0
  5  6  1  0  0  0
  5 26  1  0  0  0
  5 88  1  0  0  0
  6 25  1  0  0  0
  6 89  1  0  0  0
  6 90  1  0  0  0
  7  8  2  0  0  0
  7 26  1  0  0  0
  7 29  1  0  0  0
  8  9  1  0  0  0
  8 22  1  0  0  0
  9 10  1  0  0  0
  9 27  2  0  0  0
 10 11  2  0  0  0
 10 15  1  0  0  0
 11 12  1  0  0  0
 11 91  1  0  0  0
 12 13  2  0  0  0
 12 92  1  0  0  0
 13 14  1  0  0  0
 13 31  1  0  0  0
 14 15  2  0  0  0
 14 93  1  0  0  0
 15 94  1  0  0  0
 16 17  2  0  0  0
 16 21  1  0  0  0
 16 31  1  0  0  0
 17 18  1  0  0  0
 17 95  1  0  0  0
 18 19  2  0  0  0
 18 96  1  0  0  0
 19 20  1  0  0  0
 19 24  1  0  0  0
 20 21  2  0  0  0
 20 97  1  0  0  0
 21 23  1  0  0  0
 22 28  1  0  0  0
 22 32  2  0  0  0
 26 27  1  0  0  0
 28 98  1  0  0  0
 28 99  1  0  0  0
 29100  1  0  0  0
 29101  1  0  0  0
 33 34  1  0  0  0
 33 66  1  0  0  0
 33 70  2  0  0  0
 34 36  1  0  0  0
 34 59  1  0  0  0
 34102  1  0  0  0
 35 44  2  0  0  0
 35 45  1  0  0  0
 35 68  1  0  0  0
 36 56  1  0  0  0
 36103  1  0  0  0
 37 39  1  0  0  0
 37 47  1  0  0  0
 37 66  1  0  0  0
 37104  1  0  0  0
 38 43  2  0  0  0
 38 46  1  0  0  0
 38 47  1  0  0  0
 39 64  1  0  0  0
 39 67  2  0  0  0
 40 52  1  0  0  0
 40 53  2  0  0  0
 40 58  1  0  0  0
 41105  1  0  0  0
 41106  1  0  0  0
 41107  1  0  0  0
 41 48  1  0  0  0
 42 43  1  0  0  0
 42 66  1  0  0  0
 42108  1  0  0  0
 42109  1  0  0  0
 43 44  1  0  0  0
 44110  1  0  0  0
 45 46  2  0  0  0
 45111  1  0  0  0
 46112  1  0  0  0
 47113  1  0  0  0
 47114  1  0  0  0
 48 56  1  0  0  0
 48 65  1  0  0  0
 48115  1  0  0  0
 49 50  1  0  0  0
 49 53  1  0  0  0
 49 64  1  0  0  0
 49116  1  0  0  0
 50 51  1  0  0  0
 50117  1  0  0  0
 50118  1  0  0  0
 51 52  1  0  0  0
 51119  1  0  0  0
 51120  1  0  0  0
 52121  1  0  0  0
 52122  1  0  0  0
 53 54  1  0  0  0
 54 55  2  0  0  0
 54123  1  0  0  0
 55 57  1  0  0  0
 55124  1  0  0  0
 56 69  2  0  0  0
 57 58  2  0  0  0
 57125  1  0  0  0
 58126  1  0  0  0
 59 60  1  0  0  0
 59 61  1  0  0  0
 59 62  1  0  0  0
 60127  1  0  0  0
 60128  1  0  0  0
 60129  1  0  0  0
 61130  1  0  0  0
 61131  1  0  0  0
 61132  1  0  0  0
 62133  1  0  0  0
 62134  1  0  0  0
 62135  1  0  0  0
 63 65  1  0  0  0
 63136  1  0  0  0
 63137  1  0  0  0
 63138  1  0  0  0
 64139  1  0  0  0
 65140  1  0  0  0
 68 76  1  0  0  0
 71 72  2  0  0  0
 71 78  1  0  0  0
 71141  1  0  0  0
 72 79  1  0  0  0
 72 81  1  0  0  0
 73 78  2  0  0  0
 73 80  1  0  0  0
 73 81  1  0  0  0
 74142  1  0  0  0
 74143  1  0  0  0
 74144  1  0  0  0
 74 77  1  0  0  0
 75 76  1  0  0  0
 75 77  1  0  0  0
 75145  1  0  0  0
 75146  1  0  0  0
 76147  1  0  0  0
 76148  1  0  0  0
 77 80  1  0  0  0
 77149  1  0  0  0
 79150  1  0  0  0
 80151  1  0  0  0
M  ISO  4   1 100  68 101  76 101  79 100
M  END
> <chiral flag>
0

> <version>
0

> <s_m_source_file>
/data/baiqing/PycharmProjects/Reinvent-master-3.2/result/LINK_invent/BTK/process_docking_weight1_custom_product_contain_oxygen_bond_distance_aromatic_linkinvent_7_9_3/rearranged_h_0199.sdf

> <i_m_source_file_index>
69

> <r_mmod_Potential_Energy-OPLS-2005>
67.3727645874023

> <r_mmod_Stretch_Energy-OPLS-2005>
95.5428009033203

> <r_mmod_Bend_Energy-OPLS-2005>
157.832336425781

> <r_mmod_Torsional_Energy-OPLS-2005>
239.556213378906

> <r_mmod_Improper_Torsional_Energy-OPLS-2005>
6.24683523178101

> <r_mmod_Van_der_Waal_Energy-OPLS-2005>
111.349418640137

> <r_mmod_Electrostatic_Energy-OPLS-2005>
-381.492645263672

> <r_mmod_Solvation_Energy-OPLS-2005>
-226.60595703125

> <b_mmod_Minimization_Converged-OPLS-2005>
0

> <r_mmod_RMS_Derivative-OPLS-2005>
1.28166043758392

$$$$
69
                    3D
 Structure written by MMmdl.
151159  0  0  1  0            999 V2000
  -30.6862  -14.4659   20.6037 C   0  0  0  0  0  0
  -30.4329  -12.3101   19.4179 C   0  0  0  0  0  0
  -29.5004  -12.5207   18.2069 C   0  0  0  0  0  0
  -28.0198  -12.3754   18.6142 C   0  0  0  0  0  0
  -27.6689  -13.1991   19.8813 C   0  0  2  0  0  0
  -28.7073  -12.9503   20.9981 C   0  0  0  0  0  0
  -25.2627  -13.8135   20.5651 C   0  0  0  0  0  0
  -24.1863  -13.0420   20.9154 C   0  0  0  0  0  0
  -24.6409  -11.6894   20.8726 C   0  0  0  0  0  0
  -23.9055  -10.4292   21.0407 C   0  0  0  0  0  0
  -24.3613   -9.4210   21.9181 C   0  0  0  0  0  0
  -23.6291   -8.2249   22.0771 C   0  0  0  0  0  0
  -22.4275   -8.0293   21.3559 C   0  0  0  0  0  0
  -21.9906   -9.0258   20.4654 C   0  0  0  0  0  0
  -22.7232  -10.2133   20.3052 C   0  0  0  0  0  0
  -21.6853   -6.0744   22.5289 C   0  0  0  0  0  0
  -21.4008   -6.5651   23.8221 C   0  0  0  0  0  0
  -21.3660   -5.6808   24.9187 C   0  0  0  0  0  0
  -21.6039   -4.3069   24.7227 C   0  0  0  0  0  0
  -21.8825   -3.8154   23.4354 C   0  0  0  0  0  0
  -21.9190   -4.6969   22.3411 C   0  0  0  0  0  0
  -22.7888  -13.5239   21.1829 C   0  0  0  0  0  0
  -22.1664   -4.2158   21.0986 F   0  0  0  0  0  0
  -21.5625   -3.4555   25.7734 F   0  0  0  0  0  0
  -30.0421  -13.2734   20.4602 N   0  0  0  0  0  0
  -26.3068  -12.9291   20.3370 N   0  0  0  0  0  0
  -25.9334  -11.6460   20.5743 N   0  0  0  0  0  0
  -22.0530  -12.8223   22.0383 N   0  0  0  0  0  0
  -25.4352  -15.1850   20.4051 N   0  0  0  0  0  0
  -31.7757  -14.7083   20.0743 O   0  0  0  0  0  0
  -21.6645   -6.8888   21.4255 O   0  0  0  0  0  0
  -22.3581  -14.5553   20.6702 O   0  0  0  0  0  0
  -24.6121  -31.8662   23.2082 C   0  0  0  0  0  0
  -25.9006  -32.4813   23.8393 C   0  0  1  0  0  0
  -27.2395  -27.4122   20.0926 C   0  0  0  0  0  0
  -25.5864  -33.8621   24.2309 N   0  0  0  0  0  0
  -23.4034  -30.4860   21.5508 C   0  0  2  0  0  0
  -24.8480  -28.9473   20.1190 C   0  0  0  0  0  0
  -22.7419  -29.4619   22.5008 C   0  0  0  0  0  0
  -18.0272  -28.1353   22.8507 C   0  0  0  0  0  0
  -24.1488  -36.7333   23.2638 C   0  0  0  0  0  0
  -25.9336  -30.8226   21.3664 C   0  0  0  0  0  0
  -26.0089  -29.4553   20.7127 C   0  0  0  0  0  0
  -27.2017  -28.6941   20.6974 C   0  0  0  0  0  0
  -26.0475  -26.9163   19.5120 C   0  0  0  0  0  0
  -24.8629  -27.6777   19.5190 C   0  0  0  0  0  0
  -23.6104  -29.8152   20.1667 C   0  0  0  0  0  0
  -25.4114  -36.3115   24.0322 C   0  0  1  0  0  0
  -20.5860  -28.3634   23.1340 C   0  0  2  0  0  0
  -20.6747  -26.9374   22.5421 C   0  0  0  0  0  0
  -19.5724  -26.6364   21.5218 C   0  0  0  0  0  0
  -18.1907  -26.7900   22.1639 C   0  0  0  0  0  0
  -19.1519  -28.8819   23.2911 C   0  0  0  0  0  0
  -18.9440  -30.1433   23.8900 C   0  0  0  0  0  0
  -17.6436  -30.6559   24.0568 C   0  0  0  0  0  0
  -25.9040  -34.9474   23.5127 C   0  0  0  0  0  0
  -16.5331  -29.9058   23.6318 C   0  0  0  0  0  0
  -16.7260  -28.6474   23.0348 C   0  0  0  0  0  0
  -26.4417  -31.6613   25.0741 C   0  0  0  0  0  0
  -25.3683  -31.3725   26.1495 C   0  0  0  0  0  0
  -27.0235  -30.3041   24.6136 C   0  0  0  0  0  0
  -27.5998  -32.4332   25.7503 C   0  0  0  0  0  0
  -27.5583  -37.1817   24.8454 C   0  0  0  0  0  0
  -21.4142  -29.3000   22.3754 N   0  0  0  0  0  0
  -26.4302  -37.3795   23.9393 N   0  0  0  0  0  0
  -24.6683  -31.0736   22.0997 N   0  0  0  0  0  0
  -23.4191  -28.8161   23.3048 O   0  0  0  0  0  0
  -28.4406  -26.7179   20.1007 O   0  0  0  0  0  0
  -26.5625  -34.8927   22.4699 O   0  0  0  0  0  0
  -23.5307  -32.1448   23.7445 O   0  0  0  0  0  0
  -30.0593  -16.7853   21.1596 C   0  0  0  0  0  0
  -29.6443  -19.1329   20.7519 C   0  0  0  0  0  0
  -28.6067  -24.2513   20.5530 C   0  0  0  0  0  0
  -29.2275  -21.7318   20.9405 C   0  0  0  0  0  0
  -28.5762  -25.4061   19.5121 C   0  0  0  0  0  0
  -28.7805  -22.8300   19.9353 C   0  0  1  0  0  0
  -30.6831  -17.5739   22.0498 N   0  0  0  0  0  0
  -30.4497  -18.9309   21.8059 N   0  0  0  0  0  0
  -30.0251  -15.3772   21.3382 N   0  0  0  0  0  0
  -29.1994  -20.3934   20.3447 N   0  0  0  0  0  0
  -27.5479  -22.3993   19.3776 O   0  0  0  0  0  0
  -29.1328  -17.6529   19.9296 S   0  0  0  0  0  0
  -31.4779  -12.4212   19.1214 H   0  0  0  0  0  0
  -30.3398  -11.2914   19.7982 H   0  0  0  0  0  0
  -29.7424  -11.8107   17.4153 H   0  0  0  0  0  0
  -29.6661  -13.5134   17.7874 H   0  0  0  0  0  0
  -27.8242  -11.3180   18.7920 H   0  0  0  0  0  0
  -27.3731  -12.6673   17.7858 H   0  0  0  0  0  0
  -27.7211  -14.2512   19.6018 H   0  0  0  0  0  0
  -28.6843  -11.9046   21.3067 H   0  0  0  0  0  0
  -28.4565  -13.5108   21.8988 H   0  0  0  0  0  0
  -25.2765   -9.5678   22.4739 H   0  0  0  0  0  0
  -24.0003   -7.4643   22.7491 H   0  0  0  0  0  0
  -21.0852   -8.8784   19.8953 H   0  0  0  0  0  0
  -22.3716  -10.9676   19.6159 H   0  0  0  0  0  0
  -21.2014   -7.6164   23.9724 H   0  0  0  0  0  0
  -21.1467   -6.0543   25.9092 H   0  0  0  0  0  0
  -22.0595   -2.7617   23.2854 H   0  0  0  0  0  0
  -22.4147  -11.9861   22.4723 H   0  0  0  0  0  0
  -21.1157  -13.1254   22.2616 H   0  0  0  0  0  0
  -24.6621  -15.8333   20.5055 H   0  0  0  0  0  0
  -26.2772  -15.6243   20.0554 H   0  0  0  0  0  0
  -26.7085  -32.5492   23.1161 H   0  0  0  0  0  0
  -24.9947  -33.9809   25.0403 H   0  0  0  0  0  0
  -22.6915  -31.3015   21.4102 H   0  0  0  0  0  0
  -23.3738  -35.9677   23.3305 H   0  0  0  0  0  0
  -24.3584  -36.8956   22.2054 H   0  0  0  0  0  0
  -23.7260  -37.6542   23.6665 H   0  0  0  0  0  0
  -26.0552  -31.5882   20.5991 H   0  0  0  0  0  0
  -26.8175  -30.8700   21.9915 H   0  0  0  0  0  0
  -28.0989  -29.0879   21.1545 H   0  0  0  0  0  0
  -25.9903  -25.9415   19.0543 H   0  0  0  0  0  0
  -23.9668  -27.2762   19.0666 H   0  0  0  0  0  0
  -23.7173  -30.5862   19.4033 H   0  0  0  0  0  0
  -22.7339  -29.2338   19.8750 H   0  0  0  0  0  0
  -25.1288  -36.1984   25.0815 H   0  0  0  0  0  0
  -20.9966  -28.3178   24.1458 H   0  0  0  0  0  0
  -20.5648  -26.2243   23.3601 H   0  0  0  0  0  0
  -21.6614  -26.7387   22.1219 H   0  0  0  0  0  0
  -19.6881  -25.6283   21.1223 H   0  0  0  0  0  0
  -19.6652  -27.3193   20.6765 H   0  0  0  0  0  0
  -17.4173  -26.6655   21.4034 H   0  0  0  0  0  0
  -18.0299  -26.0027   22.9027 H   0  0  0  0  0  0
  -19.7911  -30.7254   24.2265 H   0  0  0  0  0  0
  -17.4979  -31.6243   24.5159 H   0  0  0  0  0  0
  -15.5325  -30.2953   23.7632 H   0  0  0  0  0  0
  -15.8665  -28.0793   22.7051 H   0  0  0  0  0  0
  -24.5830  -30.7102   25.7827 H   0  0  0  0  0  0
  -24.8903  -32.2887   26.4973 H   0  0  0  0  0  0
  -25.8031  -30.8862   27.0241 H   0  0  0  0  0  0
  -26.2792  -29.6854   24.1103 H   0  0  0  0  0  0
  -27.3889  -29.7218   25.4608 H   0  0  0  0  0  0
  -27.8684  -30.4338   23.9364 H   0  0  0  0  0  0
  -27.2604  -33.3613   26.2118 H   0  0  0  0  0  0
  -28.3781  -32.6932   25.0316 H   0  0  0  0  0  0
  -28.0695  -31.8443   26.5393 H   0  0  0  0  0  0
  -28.2584  -38.0125   24.7500 H   0  0  0  0  0  0
  -28.1090  -36.2654   24.6269 H   0  0  0  0  0  0
  -27.2306  -37.1459   25.8858 H   0  0  0  0  0  0
  -20.9306  -29.8774   21.7021 H   0  0  0  0  0  0
  -26.0187  -38.2873   24.1385 H   0  0  0  0  0  0
  -27.7152  -24.2854   21.1794 H   0  0  0  0  0  0
  -29.4435  -24.4390   21.2271 H   0  0  0  0  0  0
  -28.5827  -21.7360   21.8204 H   0  0  0  0  0  0
  -30.2368  -21.9456   21.2971 H   0  0  0  0  0  0
  -27.8620  -25.1996   18.7196 H   0  0  0  0  0  0
  -29.5373  -25.4103   18.9984 H   0  0  0  0  0  0
  -29.5192  -22.8846   19.1337 H   0  0  0  0  0  0
  -29.1841  -15.0248   21.7640 H   0  0  0  0  0  0
  -28.6167  -20.3735   19.5114 H   0  0  0  0  0  0
  -26.9598  -22.1976   20.0992 H   0  0  0  0  0  0
  1 25  1  0  0  0
  1 30  2  0  0  0
  1 79  1  0  0  0
  2  3  1  0  0  0
  2 25  1  0  0  0
  2 83  1  0  0  0
  2 84  1  0  0  0
  3  4  1  0  0  0
  3 85  1  0  0  0
  3 86  1  0  0  0
  4  5  1  0  0  0
  4 87  1  0  0  0
  4 88  1  0  0  0
  5  6  1  0  0  0
  5 26  1  0  0  0
  5 89  1  0  0  0
  6 25  1  0  0  0
  6 90  1  0  0  0
  6 91  1  0  0  0
  7  8  2  0  0  0
  7 26  1  0  0  0
  7 29  1  0  0  0
  8  9  1  0  0  0
  8 22  1  0  0  0
  9 10  1  0  0  0
  9 27  2  0  0  0
 10 11  2  0  0  0
 10 15  1  0  0  0
 11 12  1  0  0  0
 11 92  1  0  0  0
 12 13  2  0  0  0
 12 93  1  0  0  0
 13 14  1  0  0  0
 13 31  1  0  0  0
 14 15  2  0  0  0
 14 94  1  0  0  0
 15 95  1  0  0  0
 16 17  2  0  0  0
 16 21  1  0  0  0
 16 31  1  0  0  0
 17 18  1  0  0  0
 17 96  1  0  0  0
 18 19  2  0  0  0
 18 97  1  0  0  0
 19 20  1  0  0  0
 19 24  1  0  0  0
 20 21  2  0  0  0
 20 98  1  0  0  0
 21 23  1  0  0  0
 22 28  1  0  0  0
 22 32  2  0  0  0
 26 27  1  0  0  0
 28 99  1  0  0  0
 28100  1  0  0  0
 29101  1  0  0  0
 29102  1  0  0  0
 33 34  1  0  0  0
 33 66  1  0  0  0
 33 70  2  0  0  0
 34 36  1  0  0  0
 34 59  1  0  0  0
 34103  1  0  0  0
 35 44  2  0  0  0
 35 45  1  0  0  0
 35 68  1  0  0  0
 36 56  1  0  0  0
 36104  1  0  0  0
 37 39  1  0  0  0
 37 47  1  0  0  0
 37 66  1  0  0  0
 37105  1  0  0  0
 38 43  2  0  0  0
 38 46  1  0  0  0
 38 47  1  0  0  0
 39 64  1  0  0  0
 39 67  2  0  0  0
 40 52  1  0  0  0
 40 53  2  0  0  0
 40 58  1  0  0  0
 41106  1  0  0  0
 41107  1  0  0  0
 41108  1  0  0  0
 41 48  1  0  0  0
 42 43  1  0  0  0
 42 66  1  0  0  0
 42109  1  0  0  0
 42110  1  0  0  0
 43 44  1  0  0  0
 44111  1  0  0  0
 45 46  2  0  0  0
 45112  1  0  0  0
 46113  1  0  0  0
 47114  1  0  0  0
 47115  1  0  0  0
 48 56  1  0  0  0
 48 65  1  0  0  0
 48116  1  0  0  0
 49 50  1  0  0  0
 49 53  1  0  0  0
 49 64  1  0  0  0
 49117  1  0  0  0
 50 51  1  0  0  0
 50118  1  0  0  0
 50119  1  0  0  0
 51 52  1  0  0  0
 51120  1  0  0  0
 51121  1  0  0  0
 52122  1  0  0  0
 52123  1  0  0  0
 53 54  1  0  0  0
 54 55  2  0  0  0
 54124  1  0  0  0
 55 57  1  0  0  0
 55125  1  0  0  0
 56 69  2  0  0  0
 57 58  2  0  0  0
 57126  1  0  0  0
 58127  1  0  0  0
 59 60  1  0  0  0
 59 61  1  0  0  0
 59 62  1  0  0  0
 60128  1  0  0  0
 60129  1  0  0  0
 60130  1  0  0  0
 61131  1  0  0  0
 61132  1  0  0  0
 61133  1  0  0  0
 62134  1  0  0  0
 62135  1  0  0  0
 62136  1  0  0  0
 63 65  1  0  0  0
 63137  1  0  0  0
 63138  1  0  0  0
 63139  1  0  0  0
 64140  1  0  0  0
 65141  1  0  0  0
 68 75  1  0  0  0
 71 77  2  0  0  0
 71 79  1  0  0  0
 71 82  1  0  0  0
 72 78  2  0  0  0
 72 80  1  0  0  0
 72 82  1  0  0  0
 73 75  1  0  0  0
 73 76  1  0  0  0
 73142  1  0  0  0
 73143  1  0  0  0
 74 76  1  0  0  0
 74 80  1  0  0  0
 74144  1  0  0  0
 74145  1  0  0  0
 75146  1  0  0  0
 75147  1  0  0  0
 76 81  1  0  0  0
 76148  1  0  0  0
 77 78  1  0  0  0
 79149  1  0  0  0
 80150  1  0  0  0
 81151  1  0  0  0
M  ISO  4   1 100  68 101  75 101  79 100
M  END
> <chiral flag>
0

> <version>
0

> <s_m_source_file>
/data/baiqing/PycharmProjects/Reinvent-master-3.2/result/LINK_invent/BTK/process_docking_weight1_custom_product_contain_oxygen_bond_distance_aromatic_linkinvent_7_9_3/rearranged_h_0199.sdf

> <i_m_source_file_index>
70

> <r_mmod_Potential_Energy-OPLS-2005>
-218.747467041016

> <r_mmod_Stretch_Energy-OPLS-2005>
37.7205085754395

> <r_mmod_Bend_Energy-OPLS-2005>
106.759223937988

> <r_mmod_Torsional_Energy-OPLS-2005>
241.497711181641

> <r_mmod_Improper_Torsional_Energy-OPLS-2005>
4.87657165527344

> <r_mmod_Van_der_Waal_Energy-OPLS-2005>
127.205780029297

> <r_mmod_Electrostatic_Energy-OPLS-2005>
-495.472595214844

> <r_mmod_Solvation_Energy-OPLS-2005>
-253.879241943359

> <b_mmod_Minimization_Converged-OPLS-2005>
0

> <r_mmod_RMS_Derivative-OPLS-2005>
2.03624844551086

$$$$
70
                    3D
 Structure written by MMmdl.
159167  0  0  1  0            999 V2000
  -30.6614  -14.5402   20.5702 C   0  0  0  0  0  0
  -30.4440  -12.3520   19.4188 C   0  0  0  0  0  0
  -29.4996  -12.5120   18.2075 C   0  0  0  0  0  0
  -28.0206  -12.3664   18.6214 C   0  0  0  0  0  0
  -27.6671  -13.2060   19.8767 C   0  0  2  0  0  0
  -28.7143  -12.9868   20.9933 C   0  0  0  0  0  0
  -25.2623  -13.8163   20.5679 C   0  0  0  0  0  0
  -24.1849  -13.0451   20.9134 C   0  0  0  0  0  0
  -24.6401  -11.6911   20.8691 C   0  0  0  0  0  0
  -23.9054  -10.4309   21.0387 C   0  0  0  0  0  0
  -24.3602   -9.4227   21.9179 C   0  0  0  0  0  0
  -23.6257   -8.2269   22.0765 C   0  0  0  0  0  0
  -22.4241   -8.0317   21.3562 C   0  0  0  0  0  0
  -21.9866   -9.0289   20.4664 C   0  0  0  0  0  0
  -22.7214  -10.2151   20.3062 C   0  0  0  0  0  0
  -21.6870   -6.0722   22.5260 C   0  0  0  0  0  0
  -21.4035   -6.5618   23.8198 C   0  0  0  0  0  0
  -21.3644   -5.6768   24.9161 C   0  0  0  0  0  0
  -21.6032   -4.3034   24.7221 C   0  0  0  0  0  0
  -21.8818   -3.8128   23.4344 C   0  0  0  0  0  0
  -21.9196   -4.6941   22.3390 C   0  0  0  0  0  0
  -22.7875  -13.5288   21.1780 C   0  0  0  0  0  0
  -22.1660   -4.2116   21.0967 F   0  0  0  0  0  0
  -21.5606   -3.4523   25.7736 F   0  0  0  0  0  0
  -30.0436  -13.3260   20.4484 N   0  0  0  0  0  0
  -26.3059  -12.9318   20.3387 N   0  0  0  0  0  0
  -25.9330  -11.6493   20.5753 N   0  0  0  0  0  0
  -22.0499  -12.8342   22.0362 N   0  0  0  0  0  0
  -25.4413  -15.1890   20.4144 N   0  0  0  0  0  0
  -31.7499  -14.7921   20.0454 O   0  0  0  0  0  0
  -21.6645   -6.8887   21.4240 O   0  0  0  0  0  0
  -22.3598  -14.5582   20.6595 O   0  0  0  0  0  0
  -24.6202  -31.8660   23.2094 C   0  0  0  0  0  0
  -25.9074  -32.4810   23.8393 C   0  0  1  0  0  0
  -27.2228  -27.3723   20.0996 C   0  0  0  0  0  0
  -25.5915  -33.8616   24.2314 N   0  0  0  0  0  0
  -23.4103  -30.4928   21.5521 C   0  0  2  0  0  0
  -24.8539  -28.9570   20.1187 C   0  0  0  0  0  0
  -22.7435  -29.4661   22.4966 C   0  0  0  0  0  0
  -18.0280  -28.1382   22.8485 C   0  0  0  0  0  0
  -24.1473  -36.7289   23.2628 C   0  0  0  0  0  0
  -25.9492  -30.8110   21.3750 C   0  0  0  0  0  0
  -26.0243  -29.4440   20.7143 C   0  0  0  0  0  0
  -27.2124  -28.6625   20.6978 C   0  0  0  0  0  0
  -26.0313  -26.9332   19.4726 C   0  0  0  0  0  0
  -24.8546  -27.7017   19.4962 C   0  0  0  0  0  0
  -23.6223  -29.8339   20.1659 C   0  0  0  0  0  0
  -25.4096  -36.3100   24.0326 C   0  0  1  0  0  0
  -20.5876  -28.3675   23.1289 C   0  0  2  0  0  0
  -20.6765  -26.9407   22.5407 C   0  0  0  0  0  0
  -19.5740  -26.6388   21.5203 C   0  0  0  0  0  0
  -18.1919  -26.7936   22.1618 C   0  0  0  0  0  0
  -19.1531  -28.8847   23.2883 C   0  0  0  0  0  0
  -18.9471  -30.1442   23.8897 C   0  0  0  0  0  0
  -17.6471  -30.6580   24.0580 C   0  0  0  0  0  0
  -25.9040  -34.9466   23.5117 C   0  0  0  0  0  0
  -16.5361  -29.9084   23.6338 C   0  0  0  0  0  0
  -16.7263  -28.6509   23.0351 C   0  0  0  0  0  0
  -26.4469  -31.6616   25.0746 C   0  0  0  0  0  0
  -25.3720  -31.3804   26.1502 C   0  0  0  0  0  0
  -27.0272  -30.3022   24.6195 C   0  0  0  0  0  0
  -27.6057  -32.4343   25.7483 C   0  0  0  0  0  0
  -27.5582  -37.1773   24.8447 C   0  0  0  0  0  0
  -21.4159  -29.3039   22.3686 N   0  0  0  0  0  0
  -26.4271  -37.3797   23.9426 N   0  0  0  0  0  0
  -24.6784  -31.0716   22.1019 N   0  0  0  0  0  0
  -23.4192  -28.8202   23.3021 O   0  0  0  0  0  0
  -28.3568  -26.5579   20.1236 O   0  0  0  0  0  0
  -26.5617  -34.8932   22.4683 O   0  0  0  0  0  0
  -23.5390  -32.1448   23.7458 O   0  0  0  0  0  0
  -30.2139  -17.8381   20.2465 C   0  0  0  0  0  0
  -29.0076  -17.5073   22.1424 C   0  0  0  0  0  0
  -29.8003  -16.8694   21.2281 C   0  0  0  0  0  0
  -29.6067  -19.0311   20.5980 C   0  0  0  0  0  0
  -31.0848  -21.5158   21.3130 C   0  0  0  0  0  0
  -27.9815  -19.7764   22.4219 C   0  0  0  0  0  0
  -29.3366  -24.1529   20.2602 C   0  0  0  0  0  0
  -28.9319  -22.6306   20.3295 C   0  0  0  0  0  0
  -28.1234  -25.1372   20.3835 C   0  0  0  0  0  0
  -30.0602  -21.5441   20.1664 C   0  0  2  0  0  0
  -28.8527  -18.8281   21.7487 N   0  0  0  0  0  0
  -29.9733  -15.4410   21.3091 N   0  0  0  0  0  0
  -29.5486  -20.1989   19.7949 N   0  0  0  0  0  0
  -31.4824  -12.4764   19.1096 H   0  0  0  0  0  0
  -30.3799  -11.3435   19.8277 H   0  0  0  0  0  0
  -29.7414  -11.7727   17.4423 H   0  0  0  0  0  0
  -29.6579  -13.4899   17.7484 H   0  0  0  0  0  0
  -27.8268  -11.3088   18.8163 H   0  0  0  0  0  0
  -27.3759  -12.6499   17.7888 H   0  0  0  0  0  0
  -27.7138  -14.2535   19.5766 H   0  0  0  0  0  0
  -28.7068  -11.9428   21.3105 H   0  0  0  0  0  0
  -28.4561  -13.5595   21.8825 H   0  0  0  0  0  0
  -25.2747   -9.5667   22.4755 H   0  0  0  0  0  0
  -23.9935   -7.4668   22.7500 H   0  0  0  0  0  0
  -21.0771   -8.8832   19.8994 H   0  0  0  0  0  0
  -22.3684  -10.9692   19.6165 H   0  0  0  0  0  0
  -21.2055   -7.6126   23.9688 H   0  0  0  0  0  0
  -21.1449   -6.0507   25.9052 H   0  0  0  0  0  0
  -22.0605   -2.7592   23.2875 H   0  0  0  0  0  0
  -22.4087  -12.0034   22.4805 H   0  0  0  0  0  0
  -21.1134  -13.1457   22.2574 H   0  0  0  0  0  0
  -24.6926  -15.8589   20.5441 H   0  0  0  0  0  0
  -26.3100  -15.6178   20.1173 H   0  0  0  0  0  0
  -26.7149  -32.5504   23.1161 H   0  0  0  0  0  0
  -25.0052  -33.9773   25.0456 H   0  0  0  0  0  0
  -22.7025  -31.3120   21.4144 H   0  0  0  0  0  0
  -23.3755  -35.9599   23.3274 H   0  0  0  0  0  0
  -24.3581  -36.8929   22.2052 H   0  0  0  0  0  0
  -23.7201  -37.6471   23.6670 H   0  0  0  0  0  0
  -26.0802  -31.5797   20.6127 H   0  0  0  0  0  0
  -26.8303  -30.8544   22.0033 H   0  0  0  0  0  0
  -28.1118  -29.0323   21.1722 H   0  0  0  0  0  0
  -25.9721  -25.9958   18.9434 H   0  0  0  0  0  0
  -23.9559  -27.3246   19.0282 H   0  0  0  0  0  0
  -23.7478  -30.6142   19.4138 H   0  0  0  0  0  0
  -22.7401  -29.2688   19.8591 H   0  0  0  0  0  0
  -25.1260  -36.1949   25.0812 H   0  0  0  0  0  0
  -20.9959  -28.3256   24.1415 H   0  0  0  0  0  0
  -20.5652  -26.2288   23.3594 H   0  0  0  0  0  0
  -21.6641  -26.7431   22.1218 H   0  0  0  0  0  0
  -19.6899  -25.6298   21.1228 H   0  0  0  0  0  0
  -19.6665  -27.3202   20.6735 H   0  0  0  0  0  0
  -17.4177  -26.6669   21.4035 H   0  0  0  0  0  0
  -18.0324  -26.0071   22.9004 H   0  0  0  0  0  0
  -19.7937  -30.7267   24.2270 H   0  0  0  0  0  0
  -17.5020  -31.6258   24.5173 H   0  0  0  0  0  0
  -15.5362  -30.2992   23.7652 H   0  0  0  0  0  0
  -15.8661  -28.0821   22.7075 H   0  0  0  0  0  0
  -24.5821  -30.7227   25.7861 H   0  0  0  0  0  0
  -24.9004  -32.3007   26.4963 H   0  0  0  0  0  0
  -25.8037  -30.8947   27.0259 H   0  0  0  0  0  0
  -26.2823  -29.6814   24.1204 H   0  0  0  0  0  0
  -27.3926  -29.7255   25.4702 H   0  0  0  0  0  0
  -27.8725  -30.4277   23.9426 H   0  0  0  0  0  0
  -27.2675  -33.3642   26.2073 H   0  0  0  0  0  0
  -28.3836  -32.6916   25.0279 H   0  0  0  0  0  0
  -28.0752  -31.8468   26.5385 H   0  0  0  0  0  0
  -28.2573  -38.0103   24.7575 H   0  0  0  0  0  0
  -28.1111  -36.2649   24.6154 H   0  0  0  0  0  0
  -27.2327  -37.1281   25.8854 H   0  0  0  0  0  0
  -20.9326  -29.8751   21.6891 H   0  0  0  0  0  0
  -26.0152  -38.2857   24.1507 H   0  0  0  0  0  0
  -30.8092  -17.6721   19.3578 H   0  0  0  0  0  0
  -28.4780  -17.1257   23.0051 H   0  0  0  0  0  0
  -31.5953  -22.4746   21.4002 H   0  0  0  0  0  0
  -31.8543  -20.7656   21.1281 H   0  0  0  0  0  0
  -30.6396  -21.3024   22.2824 H   0  0  0  0  0  0
  -27.6786  -19.3877   23.3946 H   0  0  0  0  0  0
  -27.0870  -19.9453   21.8206 H   0  0  0  0  0  0
  -28.4940  -20.7200   22.5893 H   0  0  0  0  0  0
  -29.8405  -24.3403   19.3125 H   0  0  0  0  0  0
  -30.0649  -24.3817   21.0388 H   0  0  0  0  0  0
  -28.2050  -22.4657   19.5325 H   0  0  0  0  0  0
  -28.3793  -22.4611   21.2520 H   0  0  0  0  0  0
  -27.7085  -25.0547   21.3903 H   0  0  0  0  0  0
  -27.3641  -24.7350   19.7172 H   0  0  0  0  0  0
  -30.6287  -21.8503   19.2877 H   0  0  0  0  0  0
  -29.2639  -14.9840   21.8592 H   0  0  0  0  0  0
  -28.6497  -20.2646   19.3219 H   0  0  0  0  0  0
  1 25  1  0  0  0
  1 30  2  0  0  0
  1 82  1  0  0  0
  2  3  1  0  0  0
  2 25  1  0  0  0
  2 84  1  0  0  0
  2 85  1  0  0  0
  3  4  1  0  0  0
  3 86  1  0  0  0
  3 87  1  0  0  0
  4  5  1  0  0  0
  4 88  1  0  0  0
  4 89  1  0  0  0
  5  6  1  0  0  0
  5 26  1  0  0  0
  5 90  1  0  0  0
  6 25  1  0  0  0
  6 91  1  0  0  0
  6 92  1  0  0  0
  7  8  2  0  0  0
  7 26  1  0  0  0
  7 29  1  0  0  0
  8  9  1  0  0  0
  8 22  1  0  0  0
  9 10  1  0  0  0
  9 27  2  0  0  0
 10 11  2  0  0  0
 10 15  1  0  0  0
 11 12  1  0  0  0
 11 93  1  0  0  0
 12 13  2  0  0  0
 12 94  1  0  0  0
 13 14  1  0  0  0
 13 31  1  0  0  0
 14 15  2  0  0  0
 14 95  1  0  0  0
 15 96  1  0  0  0
 16 17  2  0  0  0
 16 21  1  0  0  0
 16 31  1  0  0  0
 17 18  1  0  0  0
 17 97  1  0  0  0
 18 19  2  0  0  0
 18 98  1  0  0  0
 19 20  1  0  0  0
 19 24  1  0  0  0
 20 21  2  0  0  0
 20 99  1  0  0  0
 21 23  1  0  0  0
 22 28  1  0  0  0
 22 32  2  0  0  0
 26 27  1  0  0  0
 28100  1  0  0  0
 28101  1  0  0  0
 29102  1  0  0  0
 29103  1  0  0  0
 33 34  1  0  0  0
 33 66  1  0  0  0
 33 70  2  0  0  0
 34 36  1  0  0  0
 34 59  1  0  0  0
 34104  1  0  0  0
 35 44  2  0  0  0
 35 45  1  0  0  0
 35 68  1  0  0  0
 36 56  1  0  0  0
 36105  1  0  0  0
 37 39  1  0  0  0
 37 47  1  0  0  0
 37 66  1  0  0  0
 37106  1  0  0  0
 38 43  2  0  0  0
 38 46  1  0  0  0
 38 47  1  0  0  0
 39 64  1  0  0  0
 39 67  2  0  0  0
 40 52  1  0  0  0
 40 53  2  0  0  0
 40 58  1  0  0  0
 41107  1  0  0  0
 41108  1  0  0  0
 41109  1  0  0  0
 41 48  1  0  0  0
 42 43  1  0  0  0
 42 66  1  0  0  0
 42110  1  0  0  0
 42111  1  0  0  0
 43 44  1  0  0  0
 44112  1  0  0  0
 45 46  2  0  0  0
 45113  1  0  0  0
 46114  1  0  0  0
 47115  1  0  0  0
 47116  1  0  0  0
 48 56  1  0  0  0
 48 65  1  0  0  0
 48117  1  0  0  0
 49 50  1  0  0  0
 49 53  1  0  0  0
 49 64  1  0  0  0
 49118  1  0  0  0
 50 51  1  0  0  0
 50119  1  0  0  0
 50120  1  0  0  0
 51 52  1  0  0  0
 51121  1  0  0  0
 51122  1  0  0  0
 52123  1  0  0  0
 52124  1  0  0  0
 53 54  1  0  0  0
 54 55  2  0  0  0
 54125  1  0  0  0
 55 57  1  0  0  0
 55126  1  0  0  0
 56 69  2  0  0  0
 57 58  2  0  0  0
 57127  1  0  0  0
 58128  1  0  0  0
 59 60  1  0  0  0
 59 61  1  0  0  0
 59 62  1  0  0  0
 60129  1  0  0  0
 60130  1  0  0  0
 60131  1  0  0  0
 61132  1  0  0  0
 61133  1  0  0  0
 61134  1  0  0  0
 62135  1  0  0  0
 62136  1  0  0  0
 62137  1  0  0  0
 63 65  1  0  0  0
 63138  1  0  0  0
 63139  1  0  0  0
 63140  1  0  0  0
 64141  1  0  0  0
 65142  1  0  0  0
 68 79  1  0  0  0
 71 73  1  0  0  0
 71 74  2  0  0  0
 71143  1  0  0  0
 72 73  2  0  0  0
 72 81  1  0  0  0
 72144  1  0  0  0
 73 82  1  0  0  0
 74 81  1  0  0  0
 74 83  1  0  0  0
 75145  1  0  0  0
 75146  1  0  0  0
 75147  1  0  0  0
 75 80  1  0  0  0
 76 81  1  0  0  0
 76148  1  0  0  0
 76149  1  0  0  0
 76150  1  0  0  0
 77 78  1  0  0  0
 77 79  1  0  0  0
 77151  1  0  0  0
 77152  1  0  0  0
 78 80  1  0  0  0
 78153  1  0  0  0
 78154  1  0  0  0
 79155  1  0  0  0
 79156  1  0  0  0
 80 83  1  0  0  0
 80157  1  0  0  0
 82158  1  0  0  0
 83159  1  0  0  0
M  ISO  4   1 100  68 101  79 101  82 100
M  END
> <chiral flag>
0

> <version>
0

> <s_m_source_file>
/data/baiqing/PycharmProjects/Reinvent-master-3.2/result/LINK_invent/BTK/process_docking_weight1_custom_product_contain_oxygen_bond_distance_aromatic_linkinvent_7_9_3/rearranged_h_0199.sdf

> <i_m_source_file_index>
71

> <r_mmod_Potential_Energy-OPLS-2005>
-2.48404765129089

> <r_mmod_Stretch_Energy-OPLS-2005>
53.2030639648438

> <r_mmod_Bend_Energy-OPLS-2005>
148.420501708984

> <r_mmod_Torsional_Energy-OPLS-2005>
266.511779785156

> <r_mmod_Improper_Torsional_Energy-OPLS-2005>
8.91332912445068

> <r_mmod_Van_der_Waal_Energy-OPLS-2005>
124.938667297363

> <r_mmod_Electrostatic_Energy-OPLS-2005>
-404.853363037109

> <r_mmod_Solvation_Energy-OPLS-2005>
-225.195404052734

> <b_mmod_Minimization_Converged-OPLS-2005>
0

> <r_mmod_RMS_Derivative-OPLS-2005>
4.14127540588379

$$$$
71
                    3D
 Structure written by MMmdl.
151159  0  0  1  0            999 V2000
  -30.6083  -14.7221   20.4678 C   0  0  0  0  0  0
  -30.4350  -12.4360   19.4782 C   0  0  0  0  0  0
  -29.5132  -12.5105   18.2400 C   0  0  0  0  0  0
  -28.0376  -12.3385   18.6494 C   0  0  0  0  0  0
  -27.6480  -13.2282   19.8598 C   0  0  2  0  0  0
  -28.6906  -13.1347   20.9967 C   0  0  0  0  0  0
  -25.2533  -13.8191   20.5696 C   0  0  0  0  0  0
  -24.1814  -13.0441   20.9198 C   0  0  0  0  0  0
  -24.6398  -11.6916   20.8742 C   0  0  0  0  0  0
  -23.9071  -10.4294   21.0404 C   0  0  0  0  0  0
  -24.3621   -9.4209   21.9182 C   0  0  0  0  0  0
  -23.6296   -8.2244   22.0754 C   0  0  0  0  0  0
  -22.4277   -8.0282   21.3544 C   0  0  0  0  0  0
  -21.9914   -9.0255   20.4646 C   0  0  0  0  0  0
  -22.7243  -10.2135   20.3054 C   0  0  0  0  0  0
  -21.6854   -6.0736   22.5279 C   0  0  0  0  0  0
  -21.4014   -6.5640   23.8212 C   0  0  0  0  0  0
  -21.3660   -5.6792   24.9174 C   0  0  0  0  0  0
  -21.6044   -4.3055   24.7224 C   0  0  0  0  0  0
  -21.8819   -3.8148   23.4345 C   0  0  0  0  0  0
  -21.9193   -4.6964   22.3402 C   0  0  0  0  0  0
  -22.7835  -13.5225   21.1860 C   0  0  0  0  0  0
  -22.1662   -4.2150   21.0979 F   0  0  0  0  0  0
  -21.5628   -3.4538   25.7736 F   0  0  0  0  0  0
  -29.9999  -13.4861   20.4288 N   0  0  0  0  0  0
  -26.2965  -12.9393   20.3312 N   0  0  0  0  0  0
  -25.9331  -11.6536   20.5760 N   0  0  0  0  0  0
  -22.0481  -12.8215   22.0416 N   0  0  0  0  0  0
  -25.4233  -15.1915   20.4121 N   0  0  0  0  0  0
  -31.7771  -14.8388   20.0835 O   0  0  0  0  0  0
  -21.6641   -6.8880   21.4241 O   0  0  0  0  0  0
  -22.3519  -14.5532   20.6709 O   0  0  0  0  0  0
  -24.6305  -31.8560   23.2000 C   0  0  0  0  0  0
  -25.9136  -32.4758   23.8338 C   0  0  1  0  0  0
  -27.2169  -27.2636   20.1241 C   0  0  0  0  0  0
  -25.5933  -33.8561   24.2257 N   0  0  0  0  0  0
  -23.4270  -30.4799   21.5431 C   0  0  2  0  0  0
  -24.8738  -28.9318   20.1067 C   0  0  0  0  0  0
  -22.7500  -29.4604   22.4911 C   0  0  0  0  0  0
  -18.0291  -28.1388   22.8488 C   0  0  0  0  0  0
  -24.1488  -36.7282   23.2640 C   0  0  0  0  0  0
  -25.9735  -30.7675   21.3827 C   0  0  0  0  0  0
  -26.0441  -29.3914   20.7231 C   0  0  0  0  0  0
  -27.2155  -28.5677   20.7260 C   0  0  0  0  0  0
  -26.0289  -26.8868   19.4545 C   0  0  0  0  0  0
  -24.8717  -27.6875   19.4615 C   0  0  0  0  0  0
  -23.6444  -29.8175   20.1577 C   0  0  0  0  0  0
  -25.4117  -36.3071   24.0326 C   0  0  1  0  0  0
  -20.5897  -28.3698   23.1269 C   0  0  2  0  0  0
  -20.6779  -26.9414   22.5409 C   0  0  0  0  0  0
  -19.5754  -26.6384   21.5214 C   0  0  0  0  0  0
  -18.1934  -26.7931   22.1626 C   0  0  0  0  0  0
  -19.1546  -28.8860   23.2873 C   0  0  0  0  0  0
  -18.9467  -30.1462   23.8890 C   0  0  0  0  0  0
  -17.6466  -30.6590   24.0563 C   0  0  0  0  0  0
  -25.9058  -34.9442   23.5094 C   0  0  0  0  0  0
  -16.5357  -29.9087   23.6334 C   0  0  0  0  0  0
  -16.7278  -28.6505   23.0355 C   0  0  0  0  0  0
  -26.4503  -31.6587   25.0731 C   0  0  0  0  0  0
  -25.3720  -31.3742   26.1447 C   0  0  0  0  0  0
  -27.0354  -30.3001   24.6228 C   0  0  0  0  0  0
  -27.6053  -32.4332   25.7503 C   0  0  0  0  0  0
  -27.5578  -37.1798   24.8466 C   0  0  0  0  0  0
  -21.4208  -29.3043   22.3655 N   0  0  0  0  0  0
  -26.4290  -37.3770   23.9407 N   0  0  0  0  0  0
  -24.6959  -31.0525   22.0978 N   0  0  0  0  0  0
  -23.4202  -28.8142   23.3006 O   0  0  0  0  0  0
  -28.3089  -26.3648   20.2130 O   0  0  0  0  0  0
  -26.5630  -34.8916   22.4663 O   0  0  0  0  0  0
  -23.5456  -32.1383   23.7296 O   0  0  0  0  0  0
  -29.3758  -18.3306   21.2113 C   0  0  0  0  0  0
  -30.3978  -19.1491   19.4981 C   0  0  0  0  0  0
  -29.9513  -17.2579   20.5096 C   0  0  0  0  0  0
  -28.9487  -23.7229   20.6314 C   0  0  0  0  0  0
  -29.4797  -21.0046   21.0450 C   0  0  0  0  0  0
  -28.1301  -24.9039   19.8873 C   0  0  0  0  0  0
  -28.9010  -22.1834   20.0986 C   0  0  1  0  0  0
  -30.5943  -17.8200   19.4017 N   0  0  0  0  0  0
  -29.6910  -19.5680   20.5661 N   0  0  0  0  0  0
  -29.8425  -15.8176   20.8339 N   0  0  0  0  0  0
  -27.5612  -21.8437   19.7852 O   0  0  0  0  0  0
  -31.4774  -12.5547   19.1780 H   0  0  0  0  0  0
  -30.3725  -11.4522   19.9462 H   0  0  0  0  0  0
  -29.7918  -11.7443   17.5152 H   0  0  0  0  0  0
  -29.6462  -13.4701   17.7378 H   0  0  0  0  0  0
  -27.8885  -11.2879   18.9017 H   0  0  0  0  0  0
  -27.3824  -12.5430   17.8019 H   0  0  0  0  0  0
  -27.6520  -14.2554   19.4943 H   0  0  0  0  0  0
  -28.7168  -12.1276   21.4155 H   0  0  0  0  0  0
  -28.4240  -13.7965   21.8219 H   0  0  0  0  0  0
  -25.2766   -9.5685   22.4756 H   0  0  0  0  0  0
  -24.0005   -7.4637   22.7473 H   0  0  0  0  0  0
  -21.0845   -8.8774   19.8952 H   0  0  0  0  0  0
  -22.3701  -10.9672   19.6163 H   0  0  0  0  0  0
  -21.2007   -7.6149   23.9716 H   0  0  0  0  0  0
  -21.1481   -6.0522   25.9077 H   0  0  0  0  0  0
  -22.0598   -2.7610   23.2844 H   0  0  0  0  0  0
  -22.4100  -11.9875   22.4798 H   0  0  0  0  0  0
  -21.1098  -13.1239   22.2626 H   0  0  0  0  0  0
  -24.6550  -15.8448   20.5197 H   0  0  0  0  0  0
  -26.2712  -15.6314   20.0773 H   0  0  0  0  0  0
  -26.7199  -32.5406   23.1076 H   0  0  0  0  0  0
  -25.0076  -33.9699   25.0400 H   0  0  0  0  0  0
  -22.7234  -31.3025   21.3996 H   0  0  0  0  0  0
  -23.3754  -35.9611   23.3304 H   0  0  0  0  0  0
  -24.3577  -36.8904   22.2054 H   0  0  0  0  0  0
  -23.7239  -37.6482   23.6665 H   0  0  0  0  0  0
  -26.1157  -31.5290   20.6147 H   0  0  0  0  0  0
  -26.8499  -30.8130   22.0173 H   0  0  0  0  0  0
  -28.1066  -28.9105   21.2330 H   0  0  0  0  0  0
  -25.9558  -25.9516   18.9210 H   0  0  0  0  0  0
  -23.9799  -27.3366   18.9606 H   0  0  0  0  0  0
  -23.7673  -30.5958   19.4036 H   0  0  0  0  0  0
  -22.7629  -29.2507   19.8525 H   0  0  0  0  0  0
  -25.1300  -36.1916   25.0818 H   0  0  0  0  0  0
  -20.9992  -28.3275   24.1388 H   0  0  0  0  0  0
  -20.5681  -26.2306   23.3614 H   0  0  0  0  0  0
  -21.6647  -26.7438   22.1200 H   0  0  0  0  0  0
  -19.6913  -25.6293   21.1246 H   0  0  0  0  0  0
  -19.6691  -27.3193   20.6743 H   0  0  0  0  0  0
  -17.4204  -26.6681   21.4028 H   0  0  0  0  0  0
  -18.0331  -26.0074   22.9024 H   0  0  0  0  0  0
  -19.7942  -30.7283   24.2253 H   0  0  0  0  0  0
  -17.5020  -31.6269   24.5166 H   0  0  0  0  0  0
  -15.5357  -30.2986   23.7664 H   0  0  0  0  0  0
  -15.8678  -28.0823   22.7071 H   0  0  0  0  0  0
  -24.5899  -30.7086   25.7776 H   0  0  0  0  0  0
  -24.8907  -32.2915   26.4849 H   0  0  0  0  0  0
  -25.8032  -30.8937   27.0239 H   0  0  0  0  0  0
  -26.2945  -29.6744   24.1238 H   0  0  0  0  0  0
  -27.4015  -29.7268   25.4755 H   0  0  0  0  0  0
  -27.8831  -30.4272   23.9492 H   0  0  0  0  0  0
  -27.2656  -33.3639   26.2060 H   0  0  0  0  0  0
  -28.3872  -32.6882   25.0338 H   0  0  0  0  0  0
  -28.0710  -31.8472   26.5437 H   0  0  0  0  0  0
  -28.2598  -38.0092   24.7510 H   0  0  0  0  0  0
  -28.1071  -36.2624   24.6298 H   0  0  0  0  0  0
  -27.2295  -37.1452   25.8869 H   0  0  0  0  0  0
  -20.9390  -29.8765   21.6863 H   0  0  0  0  0  0
  -26.0169  -38.2843   24.1409 H   0  0  0  0  0  0
  -28.8061  -18.3227   22.1315 H   0  0  0  0  0  0
  -30.8280  -19.8444   18.7908 H   0  0  0  0  0  0
  -28.6321  -23.7258   21.6748 H   0  0  0  0  0  0
  -29.9978  -24.0185   20.6604 H   0  0  0  0  0  0
  -28.8705  -20.9547   21.9481 H   0  0  0  0  0  0
  -30.4570  -21.3384   21.3957 H   0  0  0  0  0  0
  -27.0922  -24.6255   20.0596 H   0  0  0  0  0  0
  -28.2924  -24.8040   18.8136 H   0  0  0  0  0  0
  -29.4598  -22.1588   19.1616 H   0  0  0  0  0  0
  -28.9932  -15.5625   21.3139 H   0  0  0  0  0  0
  -27.0734  -21.7702   20.6004 H   0  0  0  0  0  0
  1 25  1  0  0  0
  1 30  2  0  0  0
  1 80  1  0  0  0
  2  3  1  0  0  0
  2 25  1  0  0  0
  2 82  1  0  0  0
  2 83  1  0  0  0
  3  4  1  0  0  0
  3 84  1  0  0  0
  3 85  1  0  0  0
  4  5  1  0  0  0
  4 86  1  0  0  0
  4 87  1  0  0  0
  5  6  1  0  0  0
  5 26  1  0  0  0
  5 88  1  0  0  0
  6 25  1  0  0  0
  6 89  1  0  0  0
  6 90  1  0  0  0
  7  8  2  0  0  0
  7 26  1  0  0  0
  7 29  1  0  0  0
  8  9  1  0  0  0
  8 22  1  0  0  0
  9 10  1  0  0  0
  9 27  2  0  0  0
 10 11  2  0  0  0
 10 15  1  0  0  0
 11 12  1  0  0  0
 11 91  1  0  0  0
 12 13  2  0  0  0
 12 92  1  0  0  0
 13 14  1  0  0  0
 13 31  1  0  0  0
 14 15  2  0  0  0
 14 93  1  0  0  0
 15 94  1  0  0  0
 16 17  2  0  0  0
 16 21  1  0  0  0
 16 31  1  0  0  0
 17 18  1  0  0  0
 17 95  1  0  0  0
 18 19  2  0  0  0
 18 96  1  0  0  0
 19 20  1  0  0  0
 19 24  1  0  0  0
 20 21  2  0  0  0
 20 97  1  0  0  0
 21 23  1  0  0  0
 22 28  1  0  0  0
 22 32  2  0  0  0
 26 27  1  0  0  0
 28 98  1  0  0  0
 28 99  1  0  0  0
 29100  1  0  0  0
 29101  1  0  0  0
 33 34  1  0  0  0
 33 66  1  0  0  0
 33 70  2  0  0  0
 34 36  1  0  0  0
 34 59  1  0  0  0
 34102  1  0  0  0
 35 44  2  0  0  0
 35 45  1  0  0  0
 35 68  1  0  0  0
 36 56  1  0  0  0
 36103  1  0  0  0
 37 39  1  0  0  0
 37 47  1  0  0  0
 37 66  1  0  0  0
 37104  1  0  0  0
 38 43  2  0  0  0
 38 46  1  0  0  0
 38 47  1  0  0  0
 39 64  1  0  0  0
 39 67  2  0  0  0
 40 52  1  0  0  0
 40 53  2  0  0  0
 40 58  1  0  0  0
 41105  1  0  0  0
 41106  1  0  0  0
 41107  1  0  0  0
 41 48  1  0  0  0
 42 43  1  0  0  0
 42 66  1  0  0  0
 42108  1  0  0  0
 42109  1  0  0  0
 43 44  1  0  0  0
 44110  1  0  0  0
 45 46  2  0  0  0
 45111  1  0  0  0
 46112  1  0  0  0
 47113  1  0  0  0
 47114  1  0  0  0
 48 56  1  0  0  0
 48 65  1  0  0  0
 48115  1  0  0  0
 49 50  1  0  0  0
 49 53  1  0  0  0
 49 64  1  0  0  0
 49116  1  0  0  0
 50 51  1  0  0  0
 50117  1  0  0  0
 50118  1  0  0  0
 51 52  1  0  0  0
 51119  1  0  0  0
 51120  1  0  0  0
 52121  1  0  0  0
 52122  1  0  0  0
 53 54  1  0  0  0
 54 55  2  0  0  0
 54123  1  0  0  0
 55 57  1  0  0  0
 55124  1  0  0  0
 56 69  2  0  0  0
 57 58  2  0  0  0
 57125  1  0  0  0
 58126  1  0  0  0
 59 60  1  0  0  0
 59 61  1  0  0  0
 59 62  1  0  0  0
 60127  1  0  0  0
 60128  1  0  0  0
 60129  1  0  0  0
 61130  1  0  0  0
 61131  1  0  0  0
 61132  1  0  0  0
 62133  1  0  0  0
 62134  1  0  0  0
 62135  1  0  0  0
 63 65  1  0  0  0
 63136  1  0  0  0
 63137  1  0  0  0
 63138  1  0  0  0
 64139  1  0  0  0
 65140  1  0  0  0
 68 76  1  0  0  0
 71 73  2  0  0  0
 71 79  1  0  0  0
 71141  1  0  0  0
 72 78  2  0  0  0
 72 79  1  0  0  0
 72142  1  0  0  0
 73 78  1  0  0  0
 73 80  1  0  0  0
 74 76  1  0  0  0
 74 77  1  0  0  0
 74143  1  0  0  0
 74144  1  0  0  0
 75 77  1  0  0  0
 75 79  1  0  0  0
 75145  1  0  0  0
 75146  1  0  0  0
 76147  1  0  0  0
 76148  1  0  0  0
 77 81  1  0  0  0
 77149  1  0  0  0
 80150  1  0  0  0
 81151  1  0  0  0
M  ISO  4   1 100  68 101  76 101  80 100
M  END
> <chiral flag>
0

> <version>
0

> <s_m_source_file>
/data/baiqing/PycharmProjects/Reinvent-master-3.2/result/LINK_invent/BTK/process_docking_weight1_custom_product_contain_oxygen_bond_distance_aromatic_linkinvent_7_9_3/rearranged_h_0199.sdf

> <i_m_source_file_index>
72

> <r_mmod_Potential_Energy-OPLS-2005>
121.911430358887

> <r_mmod_Stretch_Energy-OPLS-2005>
117.115966796875

> <r_mmod_Bend_Energy-OPLS-2005>
174.774291992188

> <r_mmod_Torsional_Energy-OPLS-2005>
222.445297241211

> <r_mmod_Improper_Torsional_Energy-OPLS-2005>
4.26253938674927

> <r_mmod_Van_der_Waal_Energy-OPLS-2005>
118.555953979492

> <r_mmod_Electrostatic_Energy-OPLS-2005>
-331.368316650391

> <r_mmod_Solvation_Energy-OPLS-2005>
-263.485076904297

> <b_mmod_Minimization_Converged-OPLS-2005>
0

> <r_mmod_RMS_Derivative-OPLS-2005>
0.282456487417221

$$$$
72
                    3D
 Structure written by MMmdl.
151159  0  0  1  0            999 V2000
  -30.6356  -14.7645   20.4441 C   0  0  0  0  0  0
  -30.4237  -12.4711   19.4598 C   0  0  0  0  0  0
  -29.4974  -12.5068   18.2252 C   0  0  0  0  0  0
  -28.0262  -12.3354   18.6495 C   0  0  0  0  0  0
  -27.6370  -13.2419   19.8474 C   0  0  2  0  0  0
  -28.6922  -13.2018   20.9747 C   0  0  0  0  0  0
  -25.2482  -13.8221   20.5723 C   0  0  0  0  0  0
  -24.1799  -13.0452   20.9247 C   0  0  0  0  0  0
  -24.6412  -11.6935   20.8775 C   0  0  0  0  0  0
  -23.9089  -10.4306   21.0415 C   0  0  0  0  0  0
  -24.3635   -9.4213   21.9184 C   0  0  0  0  0  0
  -23.6318   -8.2242   22.0752 C   0  0  0  0  0  0
  -22.4287   -8.0282   21.3550 C   0  0  0  0  0  0
  -21.9931   -9.0254   20.4640 C   0  0  0  0  0  0
  -22.7262  -10.2138   20.3058 C   0  0  0  0  0  0
  -21.6851   -6.0740   22.5278 C   0  0  0  0  0  0
  -21.4018   -6.5643   23.8215 C   0  0  0  0  0  0
  -21.3661   -5.6798   24.9173 C   0  0  0  0  0  0
  -21.6037   -4.3059   24.7226 C   0  0  0  0  0  0
  -21.8819   -3.8150   23.4348 C   0  0  0  0  0  0
  -21.9200   -4.6969   22.3402 C   0  0  0  0  0  0
  -22.7808  -13.5207   21.1888 C   0  0  0  0  0  0
  -22.1664   -4.2161   21.0982 F   0  0  0  0  0  0
  -21.5625   -3.4539   25.7733 F   0  0  0  0  0  0
  -29.9846  -13.5522   20.3723 N   0  0  0  0  0  0
  -26.2938  -12.9457   20.3333 N   0  0  0  0  0  0
  -25.9349  -11.6587   20.5802 N   0  0  0  0  0  0
  -22.0477  -12.8184   22.0442 N   0  0  0  0  0  0
  -25.4164  -15.1955   20.4110 N   0  0  0  0  0  0
  -31.8368  -14.8220   20.1734 O   0  0  0  0  0  0
  -21.6643   -6.8882   21.4239 O   0  0  0  0  0  0
  -22.3486  -14.5526   20.6749 O   0  0  0  0  0  0
  -24.6296  -31.8518   23.1926 C   0  0  0  0  0  0
  -25.9099  -32.4738   23.8295 C   0  0  1  0  0  0
  -27.2441  -27.2569   20.1470 C   0  0  0  0  0  0
  -25.5895  -33.8547   24.2228 N   0  0  0  0  0  0
  -23.4323  -30.4666   21.5334 C   0  0  2  0  0  0
  -24.8857  -28.8967   20.1221 C   0  0  0  0  0  0
  -22.7513  -29.4558   22.4897 C   0  0  0  0  0  0
  -18.0310  -28.1386   22.8500 C   0  0  0  0  0  0
  -24.1489  -36.7277   23.2640 C   0  0  0  0  0  0
  -25.9769  -30.7637   21.3737 C   0  0  0  0  0  0
  -26.0539  -29.3812   20.7226 C   0  0  0  0  0  0
  -27.2383  -28.5778   20.7117 C   0  0  0  0  0  0
  -26.0487  -26.8186   19.5481 C   0  0  0  0  0  0
  -24.8864  -27.6216   19.5268 C   0  0  0  0  0  0
  -23.6559  -29.7856   20.1570 C   0  0  0  0  0  0
  -25.4121  -36.3068   24.0321 C   0  0  1  0  0  0
  -20.5913  -28.3681   23.1290 C   0  0  2  0  0  0
  -20.6798  -26.9391   22.5433 C   0  0  0  0  0  0
  -19.5762  -26.6383   21.5242 C   0  0  0  0  0  0
  -18.1935  -26.7941   22.1636 C   0  0  0  0  0  0
  -19.1564  -28.8855   23.2880 C   0  0  0  0  0  0
  -18.9478  -30.1463   23.8876 C   0  0  0  0  0  0
  -17.6473  -30.6577   24.0568 C   0  0  0  0  0  0
  -25.9051  -34.9437   23.5094 C   0  0  0  0  0  0
  -16.5365  -29.9062   23.6343 C   0  0  0  0  0  0
  -16.7300  -28.6490   23.0354 C   0  0  0  0  0  0
  -26.4461  -31.6570   25.0695 C   0  0  0  0  0  0
  -25.3677  -31.3732   26.1412 C   0  0  0  0  0  0
  -27.0281  -30.2982   24.6205 C   0  0  0  0  0  0
  -27.6037  -32.4312   25.7440 C   0  0  0  0  0  0
  -27.5583  -37.1782   24.8466 C   0  0  0  0  0  0
  -21.4220  -29.3009   22.3646 N   0  0  0  0  0  0
  -26.4307  -37.3761   23.9412 N   0  0  0  0  0  0
  -24.6978  -31.0463   22.0895 N   0  0  0  0  0  0
  -23.4192  -28.8113   23.3014 O   0  0  0  0  0  0
  -28.3856  -26.4292   20.0832 O   0  0  0  0  0  0
  -26.5641  -34.8901   22.4672 O   0  0  0  0  0  0
  -23.5432  -32.1362   23.7190 O   0  0  0  0  0  0
  -28.1623  -20.3933   19.2186 C   0  0  0  0  0  0
  -28.9901  -20.9761   20.1480 C   0  0  0  0  0  0
  -29.6119  -18.6371   20.3193 C   0  0  0  0  0  0
  -27.8172  -25.0258   22.0583 C   0  0  0  0  0  0
  -30.4411  -17.3638   20.7809 C   0  0  0  0  0  0
  -28.3414  -23.6266   19.9128 C   0  0  0  0  0  0
  -28.5079  -25.0529   20.6902 C   0  0  1  0  0  0
  -29.7965  -19.9377   20.7466 N   0  0  0  0  0  0
  -29.0590  -22.4028   20.4901 N   0  0  0  0  0  0
  -29.9050  -15.9344   20.6245 N   0  0  0  0  0  0
  -28.3674  -18.6388   19.0703 S   0  0  0  0  0  0
  -31.4645  -12.5820   19.1532 H   0  0  0  0  0  0
  -30.3585  -11.5047   19.9609 H   0  0  0  0  0  0
  -29.7703  -11.7220   17.5194 H   0  0  0  0  0  0
  -29.6158  -13.4515   17.6923 H   0  0  0  0  0  0
  -27.8815  -11.2880   18.9187 H   0  0  0  0  0  0
  -27.3605  -12.5231   17.8049 H   0  0  0  0  0  0
  -27.6213  -14.2582   19.4542 H   0  0  0  0  0  0
  -28.7418  -12.2136   21.4322 H   0  0  0  0  0  0
  -28.4386  -13.8998   21.7735 H   0  0  0  0  0  0
  -25.2777   -9.5677   22.4767 H   0  0  0  0  0  0
  -24.0021   -7.4622   22.7469 H   0  0  0  0  0  0
  -21.0866   -8.8770   19.8944 H   0  0  0  0  0  0
  -22.3720  -10.9673   19.6171 H   0  0  0  0  0  0
  -21.2008   -7.6152   23.9724 H   0  0  0  0  0  0
  -21.1477   -6.0522   25.9080 H   0  0  0  0  0  0
  -22.0597   -2.7616   23.2839 H   0  0  0  0  0  0
  -22.4122  -11.9828   22.4787 H   0  0  0  0  0  0
  -21.1101  -13.1176   22.2691 H   0  0  0  0  0  0
  -24.6425  -15.8455   20.5042 H   0  0  0  0  0  0
  -26.2563  -15.6304   20.0541 H   0  0  0  0  0  0
  -26.7154  -32.5408   23.1020 H   0  0  0  0  0  0
  -25.0055  -33.9697   25.0381 H   0  0  0  0  0  0
  -22.7296  -31.2869   21.3754 H   0  0  0  0  0  0
  -23.3756  -35.9603   23.3307 H   0  0  0  0  0  0
  -24.3590  -36.8908   22.2057 H   0  0  0  0  0  0
  -23.7230  -37.6472   23.6673 H   0  0  0  0  0  0
  -26.1266  -31.5230   20.6038 H   0  0  0  0  0  0
  -26.8488  -30.8105   22.0151 H   0  0  0  0  0  0
  -28.1445  -28.9571   21.1629 H   0  0  0  0  0  0
  -26.0230  -25.8377   19.0970 H   0  0  0  0  0  0
  -23.9898  -27.2354   19.0593 H   0  0  0  0  0  0
  -23.7830  -30.5553   19.3942 H   0  0  0  0  0  0
  -22.7778  -29.2133   19.8530 H   0  0  0  0  0  0
  -25.1291  -36.1919   25.0813 H   0  0  0  0  0  0
  -21.0039  -28.3262   24.1399 H   0  0  0  0  0  0
  -20.5745  -26.2252   23.3620 H   0  0  0  0  0  0
  -21.6650  -26.7440   22.1172 H   0  0  0  0  0  0
  -19.6921  -25.6300   21.1242 H   0  0  0  0  0  0
  -19.6723  -27.3215   20.6787 H   0  0  0  0  0  0
  -17.4226  -26.6739   21.4006 H   0  0  0  0  0  0
  -18.0281  -26.0081   22.9018 H   0  0  0  0  0  0
  -19.7952  -30.7309   24.2202 H   0  0  0  0  0  0
  -17.5018  -31.6266   24.5161 H   0  0  0  0  0  0
  -15.5352  -30.2938   23.7697 H   0  0  0  0  0  0
  -15.8718  -28.0811   22.7049 H   0  0  0  0  0  0
  -24.5880  -30.7047   25.7732 H   0  0  0  0  0  0
  -24.8806  -32.2880   26.4808 H   0  0  0  0  0  0
  -25.7970  -30.8937   27.0214 H   0  0  0  0  0  0
  -26.2844  -29.6735   24.1253 H   0  0  0  0  0  0
  -27.3948  -29.7263   25.4730 H   0  0  0  0  0  0
  -27.8724  -30.4224   23.9431 H   0  0  0  0  0  0
  -27.2733  -33.3737   26.1826 H   0  0  0  0  0  0
  -28.3912  -32.6669   25.0263 H   0  0  0  0  0  0
  -28.0595  -31.8529   26.5486 H   0  0  0  0  0  0
  -28.2563  -38.0108   24.7549 H   0  0  0  0  0  0
  -28.1101  -36.2638   24.6248 H   0  0  0  0  0  0
  -27.2298  -37.1381   25.8864 H   0  0  0  0  0  0
  -20.9391  -29.8712   21.6848 H   0  0  0  0  0  0
  -26.0173  -38.2825   24.1443 H   0  0  0  0  0  0
  -27.4343  -20.8881   18.5910 H   0  0  0  0  0  0
  -28.0383  -24.1006   22.5922 H   0  0  0  0  0  0
  -26.7345  -25.1025   21.9610 H   0  0  0  0  0  0
  -28.1604  -25.8515   22.6814 H   0  0  0  0  0  0
  -30.6573  -17.4945   21.8410 H   0  0  0  0  0  0
  -31.4147  -17.4206   20.2936 H   0  0  0  0  0  0
  -28.6837  -23.7578   18.8840 H   0  0  0  0  0  0
  -27.2782  -23.3975   19.8271 H   0  0  0  0  0  0
  -29.5749  -25.0594   20.9167 H   0  0  0  0  0  0
  -29.7549  -22.6278   21.1976 H   0  0  0  0  0  0
  -28.9124  -15.8299   20.7441 H   0  0  0  0  0  0
  1 25  1  0  0  0
  1 30  2  0  0  0
  1 80  1  0  0  0
  2  3  1  0  0  0
  2 25  1  0  0  0
  2 82  1  0  0  0
  2 83  1  0  0  0
  3  4  1  0  0  0
  3 84  1  0  0  0
  3 85  1  0  0  0
  4  5  1  0  0  0
  4 86  1  0  0  0
  4 87  1  0  0  0
  5  6  1  0  0  0
  5 26  1  0  0  0
  5 88  1  0  0  0
  6 25  1  0  0  0
  6 89  1  0  0  0
  6 90  1  0  0  0
  7  8  2  0  0  0
  7 26  1  0  0  0
  7 29  1  0  0  0
  8  9  1  0  0  0
  8 22  1  0  0  0
  9 10  1  0  0  0
  9 27  2  0  0  0
 10 11  2  0  0  0
 10 15  1  0  0  0
 11 12  1  0  0  0
 11 91  1  0  0  0
 12 13  2  0  0  0
 12 92  1  0  0  0
 13 14  1  0  0  0
 13 31  1  0  0  0
 14 15  2  0  0  0
 14 93  1  0  0  0
 15 94  1  0  0  0
 16 17  2  0  0  0
 16 21  1  0  0  0
 16 31  1  0  0  0
 17 18  1  0  0  0
 17 95  1  0  0  0
 18 19  2  0  0  0
 18 96  1  0  0  0
 19 20  1  0  0  0
 19 24  1  0  0  0
 20 21  2  0  0  0
 20 97  1  0  0  0
 21 23  1  0  0  0
 22 28  1  0  0  0
 22 32  2  0  0  0
 26 27  1  0  0  0
 28 98  1  0  0  0
 28 99  1  0  0  0
 29100  1  0  0  0
 29101  1  0  0  0
 33 34  1  0  0  0
 33 66  1  0  0  0
 33 70  2  0  0  0
 34 36  1  0  0  0
 34 59  1  0  0  0
 34102  1  0  0  0
 35 44  2  0  0  0
 35 45  1  0  0  0
 35 68  1  0  0  0
 36 56  1  0  0  0
 36103  1  0  0  0
 37 39  1  0  0  0
 37 47  1  0  0  0
 37 66  1  0  0  0
 37104  1  0  0  0
 38 43  2  0  0  0
 38 46  1  0  0  0
 38 47  1  0  0  0
 39 64  1  0  0  0
 39 67  2  0  0  0
 40 52  1  0  0  0
 40 53  2  0  0  0
 40 58  1  0  0  0
 41105  1  0  0  0
 41106  1  0  0  0
 41107  1  0  0  0
 41 48  1  0  0  0
 42 43  1  0  0  0
 42 66  1  0  0  0
 42108  1  0  0  0
 42109  1  0  0  0
 43 44  1  0  0  0
 44110  1  0  0  0
 45 46  2  0  0  0
 45111  1  0  0  0
 46112  1  0  0  0
 47113  1  0  0  0
 47114  1  0  0  0
 48 56  1  0  0  0
 48 65  1  0  0  0
 48115  1  0  0  0
 49 50  1  0  0  0
 49 53  1  0  0  0
 49 64  1  0  0  0
 49116  1  0  0  0
 50 51  1  0  0  0
 50117  1  0  0  0
 50118  1  0  0  0
 51 52  1  0  0  0
 51119  1  0  0  0
 51120  1  0  0  0
 52121  1  0  0  0
 52122  1  0  0  0
 53 54  1  0  0  0
 54 55  2  0  0  0
 54123  1  0  0  0
 55 57  1  0  0  0
 55124  1  0  0  0
 56 69  2  0  0  0
 57 58  2  0  0  0
 57125  1  0  0  0
 58126  1  0  0  0
 59 60  1  0  0  0
 59 61  1  0  0  0
 59 62  1  0  0  0
 60127  1  0  0  0
 60128  1  0  0  0
 60129  1  0  0  0
 61130  1  0  0  0
 61131  1  0  0  0
 61132  1  0  0  0
 62133  1  0  0  0
 62134  1  0  0  0
 62135  1  0  0  0
 63 65  1  0  0  0
 63136  1  0  0  0
 63137  1  0  0  0
 63138  1  0  0  0
 64139  1  0  0  0
 65140  1  0  0  0
 68 77  1  0  0  0
 71 72  2  0  0  0
 71 81  1  0  0  0
 71141  1  0  0  0
 72 78  1  0  0  0
 72 79  1  0  0  0
 73 75  1  0  0  0
 73 78  2  0  0  0
 73 81  1  0  0  0
 74142  1  0  0  0
 74143  1  0  0  0
 74144  1  0  0  0
 74 77  1  0  0  0
 75 80  1  0  0  0
 75145  1  0  0  0
 75146  1  0  0  0
 76 77  1  0  0  0
 76 79  1  0  0  0
 76147  1  0  0  0
 76148  1  0  0  0
 77149  1  0  0  0
 79150  1  0  0  0
 80151  1  0  0  0
M  ISO  4   1 100  68 101  77 101  80 100
M  END
> <chiral flag>
0

> <version>
0

> <s_m_source_file>
/data/baiqing/PycharmProjects/Reinvent-master-3.2/result/LINK_invent/BTK/process_docking_weight1_custom_product_contain_oxygen_bond_distance_aromatic_linkinvent_7_9_3/rearranged_h_0199.sdf

> <i_m_source_file_index>
73

> <r_mmod_Potential_Energy-OPLS-2005>
-20.8090877532959

> <r_mmod_Stretch_Energy-OPLS-2005>
126.13956451416

> <r_mmod_Bend_Energy-OPLS-2005>
201.860992431641

> <r_mmod_Torsional_Energy-OPLS-2005>
223.975662231445

> <r_mmod_Improper_Torsional_Energy-OPLS-2005>
4.63070011138916

> <r_mmod_Van_der_Waal_Energy-OPLS-2005>
108.288009643555

> <r_mmod_Electrostatic_Energy-OPLS-2005>
-544.006896972656

> <r_mmod_Solvation_Energy-OPLS-2005>
-228.888214111328

> <b_mmod_Minimization_Converged-OPLS-2005>
0

> <r_mmod_RMS_Derivative-OPLS-2005>
3.95924878120422

$$$$
73
                    3D
 Structure written by MMmdl.
151159  0  0  1  0            999 V2000
  -30.6979  -14.5159   20.5790 C   0  0  0  0  0  0
  -30.4197  -12.3431   19.4214 C   0  0  0  0  0  0
  -29.4900  -12.5048   18.2026 C   0  0  0  0  0  0
  -28.0137  -12.3554   18.6201 C   0  0  0  0  0  0
  -27.6529  -13.2115   19.8638 C   0  0  2  0  0  0
  -28.6960  -13.0269   20.9863 C   0  0  0  0  0  0
  -25.2557  -13.8168   20.5676 C   0  0  0  0  0  0
  -24.1818  -13.0438   20.9179 C   0  0  0  0  0  0
  -24.6378  -11.6907   20.8731 C   0  0  0  0  0  0
  -23.9051  -10.4292   21.0403 C   0  0  0  0  0  0
  -24.3608   -9.4210   21.9182 C   0  0  0  0  0  0
  -23.6287   -8.2244   22.0754 C   0  0  0  0  0  0
  -22.4270   -8.0278   21.3544 C   0  0  0  0  0  0
  -21.9901   -9.0249   20.4646 C   0  0  0  0  0  0
  -22.7225  -10.2130   20.3054 C   0  0  0  0  0  0
  -21.6851   -6.0731   22.5278 C   0  0  0  0  0  0
  -21.4014   -6.5636   23.8211 C   0  0  0  0  0  0
  -21.3660   -5.6791   24.9172 C   0  0  0  0  0  0
  -21.6046   -4.3054   24.7226 C   0  0  0  0  0  0
  -21.8819   -3.8144   23.4347 C   0  0  0  0  0  0
  -21.9193   -4.6959   22.3402 C   0  0  0  0  0  0
  -22.7845  -13.5235   21.1848 C   0  0  0  0  0  0
  -22.1661   -4.2144   21.0980 F   0  0  0  0  0  0
  -21.5630   -3.4539   25.7740 F   0  0  0  0  0  0
  -30.0160  -13.3461   20.4212 N   0  0  0  0  0  0
  -26.2979  -12.9341   20.3319 N   0  0  0  0  0  0
  -25.9302  -11.6497   20.5749 N   0  0  0  0  0  0
  -22.0490  -12.8227   22.0406 N   0  0  0  0  0  0
  -25.4291  -15.1887   20.4091 N   0  0  0  0  0  0
  -31.8376  -14.6744   20.1335 O   0  0  0  0  0  0
  -21.6638   -6.8873   21.4240 O   0  0  0  0  0  0
  -22.3532  -14.5542   20.6696 O   0  0  0  0  0  0
  -24.6179  -31.8650   23.2063 C   0  0  0  0  0  0
  -25.9058  -32.4805   23.8372 C   0  0  1  0  0  0
  -27.2304  -27.4002   20.1097 C   0  0  0  0  0  0
  -25.5905  -33.8604   24.2306 N   0  0  0  0  0  0
  -23.4078  -30.4868   21.5473 C   0  0  2  0  0  0
  -24.8550  -28.9443   20.1166 C   0  0  0  0  0  0
  -22.7429  -29.4643   22.4976 C   0  0  0  0  0  0
  -18.0275  -28.1380   22.8483 C   0  0  0  0  0  0
  -24.1488  -36.7304   23.2641 C   0  0  0  0  0  0
  -25.9392  -30.8214   21.3624 C   0  0  0  0  0  0
  -26.0175  -29.4522   20.7113 C   0  0  0  0  0  0
  -27.2122  -28.6899   20.6984 C   0  0  0  0  0  0
  -26.0528  -26.9107   19.5109 C   0  0  0  0  0  0
  -24.8692  -27.6748   19.5114 C   0  0  0  0  0  0
  -23.6185  -29.8158   20.1635 C   0  0  0  0  0  0
  -25.4108  -36.3101   24.0340 C   0  0  1  0  0  0
  -20.5867  -28.3669   23.1311 C   0  0  2  0  0  0
  -20.6763  -26.9403   22.5417 C   0  0  0  0  0  0
  -19.5745  -26.6385   21.5212 C   0  0  0  0  0  0
  -18.1922  -26.7924   22.1622 C   0  0  0  0  0  0
  -19.1525  -28.8840   23.2892 C   0  0  0  0  0  0
  -18.9455  -30.1442   23.8905 C   0  0  0  0  0  0
  -17.6459  -30.6584   24.0563 C   0  0  0  0  0  0
  -25.9040  -34.9466   23.5122 C   0  0  0  0  0  0
  -16.5347  -29.9086   23.6331 C   0  0  0  0  0  0
  -16.7263  -28.6506   23.0346 C   0  0  0  0  0  0
  -26.4476  -31.6589   25.0709 C   0  0  0  0  0  0
  -25.3740  -31.3702   26.1457 C   0  0  0  0  0  0
  -27.0307  -30.3034   24.6087 C   0  0  0  0  0  0
  -27.6047  -32.4310   25.7475 C   0  0  0  0  0  0
  -27.5575  -37.1807   24.8469 C   0  0  0  0  0  0
  -21.4153  -29.3033   22.3717 N   0  0  0  0  0  0
  -26.4291  -37.3786   23.9409 N   0  0  0  0  0  0
  -24.6735  -31.0725   22.0972 N   0  0  0  0  0  0
  -23.4186  -28.8191   23.3036 O   0  0  0  0  0  0
  -28.3753  -26.6261   20.0873 O   0  0  0  0  0  0
  -26.5605  -34.8922   22.4686 O   0  0  0  0  0  0
  -23.5364  -32.1411   23.7444 O   0  0  0  0  0  0
  -31.1319  -19.1058   22.2157 C   0  0  0  0  0  0
  -30.7163  -20.4225   21.8623 C   0  0  0  0  0  0
  -30.4241  -18.0977   21.6144 C   0  0  0  0  0  0
  -29.6639  -20.4772   20.9772 C   0  0  0  0  0  0
  -29.0767  -22.8636   20.9639 C   0  0  0  0  0  0
  -30.7048  -16.6269   21.9211 C   0  0  0  0  0  0
  -28.5920  -24.0626   20.0914 C   0  0  0  0  0  0
  -28.3383  -25.4044   20.8696 C   0  0  0  0  0  0
  -29.0745  -21.6029   20.4446 N   0  0  0  0  0  0
  -30.0400  -15.5299   21.1892 N   0  0  0  0  0  0
  -29.4402  -23.0848   22.1224 O   0  0  0  0  0  0
  -29.2058  -18.8107   20.5534 S   0  0  0  0  0  0
  -31.4625  -12.4494   19.1168 H   0  0  0  0  0  0
  -30.3335  -11.3394   19.8409 H   0  0  0  0  0  0
  -29.7386  -11.7666   17.4387 H   0  0  0  0  0  0
  -29.6459  -13.4836   17.7461 H   0  0  0  0  0  0
  -27.8371  -11.3005   18.8336 H   0  0  0  0  0  0
  -27.3584  -12.6089   17.7860 H   0  0  0  0  0  0
  -27.6866  -14.2541   19.5468 H   0  0  0  0  0  0
  -28.6894  -11.9973   21.3471 H   0  0  0  0  0  0
  -28.4494  -13.6424   21.8525 H   0  0  0  0  0  0
  -25.2754   -9.5687   22.4751 H   0  0  0  0  0  0
  -23.9997   -7.4637   22.7472 H   0  0  0  0  0  0
  -21.0834   -8.8764   19.8951 H   0  0  0  0  0  0
  -22.3683  -10.9667   19.6160 H   0  0  0  0  0  0
  -21.2005   -7.6144   23.9711 H   0  0  0  0  0  0
  -21.1482   -6.0522   25.9075 H   0  0  0  0  0  0
  -22.0598   -2.7606   23.2850 H   0  0  0  0  0  0
  -22.4106  -11.9884   22.4784 H   0  0  0  0  0  0
  -21.1109  -13.1254   22.2620 H   0  0  0  0  0  0
  -24.6646  -15.8463   20.5179 H   0  0  0  0  0  0
  -26.2831  -15.6259   20.0859 H   0  0  0  0  0  0
  -26.7125  -32.5508   23.1129 H   0  0  0  0  0  0
  -25.0069  -33.9762   25.0461 H   0  0  0  0  0  0
  -22.6979  -31.3043   21.4049 H   0  0  0  0  0  0
  -23.3747  -35.9643   23.3324 H   0  0  0  0  0  0
  -24.3578  -36.8899   22.2051 H   0  0  0  0  0  0
  -23.7248  -37.6518   23.6642 H   0  0  0  0  0  0
  -26.0542  -31.5851   20.5919 H   0  0  0  0  0  0
  -26.8263  -30.8770   21.9817 H   0  0  0  0  0  0
  -28.1123  -29.0789   21.1542 H   0  0  0  0  0  0
  -26.0525  -25.9361   19.0436 H   0  0  0  0  0  0
  -23.9760  -27.2788   19.0482 H   0  0  0  0  0  0
  -23.7306  -30.5891   19.4026 H   0  0  0  0  0  0
  -22.7417  -29.2373   19.8667 H   0  0  0  0  0  0
  -25.1288  -36.1965   25.0834 H   0  0  0  0  0  0
  -20.9952  -28.3231   24.1435 H   0  0  0  0  0  0
  -20.5672  -26.2273   23.3601 H   0  0  0  0  0  0
  -21.6632  -26.7442   22.1206 H   0  0  0  0  0  0
  -19.6911  -25.6304   21.1228 H   0  0  0  0  0  0
  -19.6690  -27.3206   20.6751 H   0  0  0  0  0  0
  -17.4194  -26.6672   21.4023 H   0  0  0  0  0  0
  -18.0321  -26.0065   22.9017 H   0  0  0  0  0  0
  -19.7934  -30.7250   24.2280 H   0  0  0  0  0  0
  -17.5020  -31.6267   24.5159 H   0  0  0  0  0  0
  -15.5351  -30.2994   23.7650 H   0  0  0  0  0  0
  -15.8662  -28.0830   22.7056 H   0  0  0  0  0  0
  -24.5912  -30.7048   25.7795 H   0  0  0  0  0  0
  -24.8932  -32.2860   26.4905 H   0  0  0  0  0  0
  -25.8093  -30.8870   27.0214 H   0  0  0  0  0  0
  -26.2849  -29.6797   24.1141 H   0  0  0  0  0  0
  -27.4087  -29.7264   25.4535 H   0  0  0  0  0  0
  -27.8679  -30.4361   23.9230 H   0  0  0  0  0  0
  -27.2664  -33.3599   26.2077 H   0  0  0  0  0  0
  -28.3844  -32.6887   25.0296 H   0  0  0  0  0  0
  -28.0730  -31.8422   26.5372 H   0  0  0  0  0  0
  -28.2609  -38.0087   24.7493 H   0  0  0  0  0  0
  -28.1055  -36.2619   24.6326 H   0  0  0  0  0  0
  -27.2292  -37.1493   25.8873 H   0  0  0  0  0  0
  -20.9320  -29.8757   21.6935 H   0  0  0  0  0  0
  -26.0184  -38.2870   24.1395 H   0  0  0  0  0  0
  -31.9426  -18.9452   22.9133 H   0  0  0  0  0  0
  -31.2201  -21.2839   22.2776 H   0  0  0  0  0  0
  -30.4528  -16.4607   22.9694 H   0  0  0  0  0  0
  -31.7866  -16.4824   21.8877 H   0  0  0  0  0  0
  -27.6926  -23.7772   19.5460 H   0  0  0  0  0  0
  -29.3649  -24.2356   19.3424 H   0  0  0  0  0  0
  -29.1113  -25.5384   21.6268 H   0  0  0  0  0  0
  -27.4040  -25.3213   21.4287 H   0  0  0  0  0  0
  -28.6185  -21.4875   19.5486 H   0  0  0  0  0  0
  -29.0778  -15.3483   21.4315 H   0  0  0  0  0  0
  1 25  1  0  0  0
  1 30  2  0  0  0
  1 80  1  0  0  0
  2  3  1  0  0  0
  2 25  1  0  0  0
  2 83  1  0  0  0
  2 84  1  0  0  0
  3  4  1  0  0  0
  3 85  1  0  0  0
  3 86  1  0  0  0
  4  5  1  0  0  0
  4 87  1  0  0  0
  4 88  1  0  0  0
  5  6  1  0  0  0
  5 26  1  0  0  0
  5 89  1  0  0  0
  6 25  1  0  0  0
  6 90  1  0  0  0
  6 91  1  0  0  0
  7  8  2  0  0  0
  7 26  1  0  0  0
  7 29  1  0  0  0
  8  9  1  0  0  0
  8 22  1  0  0  0
  9 10  1  0  0  0
  9 27  2  0  0  0
 10 11  2  0  0  0
 10 15  1  0  0  0
 11 12  1  0  0  0
 11 92  1  0  0  0
 12 13  2  0  0  0
 12 93  1  0  0  0
 13 14  1  0  0  0
 13 31  1  0  0  0
 14 15  2  0  0  0
 14 94  1  0  0  0
 15 95  1  0  0  0
 16 17  2  0  0  0
 16 21  1  0  0  0
 16 31  1  0  0  0
 17 18  1  0  0  0
 17 96  1  0  0  0
 18 19  2  0  0  0
 18 97  1  0  0  0
 19 20  1  0  0  0
 19 24  1  0  0  0
 20 21  2  0  0  0
 20 98  1  0  0  0
 21 23  1  0  0  0
 22 28  1  0  0  0
 22 32  2  0  0  0
 26 27  1  0  0  0
 28 99  1  0  0  0
 28100  1  0  0  0
 29101  1  0  0  0
 29102  1  0  0  0
 33 34  1  0  0  0
 33 66  1  0  0  0
 33 70  2  0  0  0
 34 36  1  0  0  0
 34 59  1  0  0  0
 34103  1  0  0  0
 35 44  2  0  0  0
 35 45  1  0  0  0
 35 68  1  0  0  0
 36 56  1  0  0  0
 36104  1  0  0  0
 37 39  1  0  0  0
 37 47  1  0  0  0
 37 66  1  0  0  0
 37105  1  0  0  0
 38 43  2  0  0  0
 38 46  1  0  0  0
 38 47  1  0  0  0
 39 64  1  0  0  0
 39 67  2  0  0  0
 40 52  1  0  0  0
 40 53  2  0  0  0
 40 58  1  0  0  0
 41106  1  0  0  0
 41107  1  0  0  0
 41108  1  0  0  0
 41 48  1  0  0  0
 42 43  1  0  0  0
 42 66  1  0  0  0
 42109  1  0  0  0
 42110  1  0  0  0
 43 44  1  0  0  0
 44111  1  0  0  0
 45 46  2  0  0  0
 45112  1  0  0  0
 46113  1  0  0  0
 47114  1  0  0  0
 47115  1  0  0  0
 48 56  1  0  0  0
 48 65  1  0  0  0
 48116  1  0  0  0
 49 50  1  0  0  0
 49 53  1  0  0  0
 49 64  1  0  0  0
 49117  1  0  0  0
 50 51  1  0  0  0
 50118  1  0  0  0
 50119  1  0  0  0
 51 52  1  0  0  0
 51120  1  0  0  0
 51121  1  0  0  0
 52122  1  0  0  0
 52123  1  0  0  0
 53 54  1  0  0  0
 54 55  2  0  0  0
 54124  1  0  0  0
 55 57  1  0  0  0
 55125  1  0  0  0
 56 69  2  0  0  0
 57 58  2  0  0  0
 57126  1  0  0  0
 58127  1  0  0  0
 59 60  1  0  0  0
 59 61  1  0  0  0
 59 62  1  0  0  0
 60128  1  0  0  0
 60129  1  0  0  0
 60130  1  0  0  0
 61131  1  0  0  0
 61132  1  0  0  0
 61133  1  0  0  0
 62134  1  0  0  0
 62135  1  0  0  0
 62136  1  0  0  0
 63 65  1  0  0  0
 63137  1  0  0  0
 63138  1  0  0  0
 63139  1  0  0  0
 64140  1  0  0  0
 65141  1  0  0  0
 68 78  1  0  0  0
 71 72  1  0  0  0
 71 73  2  0  0  0
 71142  1  0  0  0
 72 74  2  0  0  0
 72143  1  0  0  0
 73 76  1  0  0  0
 73 82  1  0  0  0
 74 79  1  0  0  0
 74 82  1  0  0  0
 75 77  1  0  0  0
 75 79  1  0  0  0
 75 81  2  0  0  0
 76 80  1  0  0  0
 76144  1  0  0  0
 76145  1  0  0  0
 77 78  1  0  0  0
 77146  1  0  0  0
 77147  1  0  0  0
 78148  1  0  0  0
 78149  1  0  0  0
 79150  1  0  0  0
 80151  1  0  0  0
M  ISO  4   1 100  68 101  78 101  80 100
M  END
> <chiral flag>
0

> <version>
0

> <s_m_source_file>
/data/baiqing/PycharmProjects/Reinvent-master-3.2/result/LINK_invent/BTK/process_docking_weight1_custom_product_contain_oxygen_bond_distance_aromatic_linkinvent_7_9_3/rearranged_h_0199.sdf

> <i_m_source_file_index>
74

> <r_mmod_Potential_Energy-OPLS-2005>
-111.20645904541

> <r_mmod_Stretch_Energy-OPLS-2005>
46.2802772521973

> <r_mmod_Bend_Energy-OPLS-2005>
123.58797454834

> <r_mmod_Torsional_Energy-OPLS-2005>
235.953674316406

> <r_mmod_Improper_Torsional_Energy-OPLS-2005>
3.22165012359619

> <r_mmod_Van_der_Waal_Energy-OPLS-2005>
132.321517944336

> <r_mmod_Electrostatic_Energy-OPLS-2005>
-439.862548828125

> <r_mmod_Solvation_Energy-OPLS-2005>
-231.70344543457

> <b_mmod_Minimization_Converged-OPLS-2005>
0

> <r_mmod_RMS_Derivative-OPLS-2005>
0.57671731710434

$$$$
74
                    3D
 Structure written by MMmdl.
153161  0  0  1  0            999 V2000
  -30.5659  -14.7328   20.4672 C   0  0  0  0  0  0
  -30.4480  -12.4459   19.4657 C   0  0  0  0  0  0
  -29.5126  -12.4992   18.2353 C   0  0  0  0  0  0
  -28.0432  -12.2976   18.6559 C   0  0  0  0  0  0
  -27.6452  -13.2046   19.8485 C   0  0  2  0  0  0
  -28.6882  -13.1103   20.9848 C   0  0  0  0  0  0
  -25.2550  -13.8128   20.5656 C   0  0  0  0  0  0
  -24.1824  -13.0420   20.9217 C   0  0  0  0  0  0
  -24.6372  -11.6885   20.8741 C   0  0  0  0  0  0
  -23.9053  -10.4271   21.0401 C   0  0  0  0  0  0
  -24.3604   -9.4186   21.9191 C   0  0  0  0  0  0
  -23.6272   -8.2231   22.0756 C   0  0  0  0  0  0
  -22.4255   -8.0279   21.3537 C   0  0  0  0  0  0
  -21.9904   -9.0255   20.4641 C   0  0  0  0  0  0
  -22.7239  -10.2123   20.3040 C   0  0  0  0  0  0
  -21.6846   -6.0738   22.5274 C   0  0  0  0  0  0
  -21.4028   -6.5634   23.8210 C   0  0  0  0  0  0
  -21.3653   -5.6780   24.9173 C   0  0  0  0  0  0
  -21.6026   -4.3054   24.7218 C   0  0  0  0  0  0
  -21.8826   -3.8148   23.4333 C   0  0  0  0  0  0
  -21.9201   -4.6961   22.3395 C   0  0  0  0  0  0
  -22.7852  -13.5221   21.1881 C   0  0  0  0  0  0
  -22.1662   -4.2154   21.0977 F   0  0  0  0  0  0
  -21.5619   -3.4542   25.7732 F   0  0  0  0  0  0
  -29.9951  -13.4820   20.4183 N   0  0  0  0  0  0
  -26.2939  -12.9270   20.3216 N   0  0  0  0  0  0
  -25.9287  -11.6448   20.5724 N   0  0  0  0  0  0
  -22.0484  -12.8206   22.0405 N   0  0  0  0  0  0
  -25.4300  -15.1839   20.4025 N   0  0  0  0  0  0
  -31.7463  -14.8971   20.1387 O   0  0  0  0  0  0
  -21.6620   -6.8880   21.4230 O   0  0  0  0  0  0
  -22.3545  -14.5528   20.6731 O   0  0  0  0  0  0
  -24.6269  -31.8564   23.1985 C   0  0  0  0  0  0
  -25.9121  -32.4741   23.8297 C   0  0  1  0  0  0
  -27.2305  -27.2976   20.1172 C   0  0  0  0  0  0
  -25.5952  -33.8540   24.2265 N   0  0  0  0  0  0
  -23.4194  -30.4720   21.5430 C   0  0  2  0  0  0
  -24.8679  -28.9129   20.1185 C   0  0  0  0  0  0
  -22.7473  -29.4555   22.4966 C   0  0  0  0  0  0
  -18.0286  -28.1334   22.8443 C   0  0  0  0  0  0
  -24.1490  -36.7263   23.2653 C   0  0  0  0  0  0
  -25.9591  -30.7810   21.3648 C   0  0  0  0  0  0
  -26.0349  -29.3993   20.7184 C   0  0  0  0  0  0
  -27.2217  -28.6053   20.6992 C   0  0  0  0  0  0
  -26.0412  -26.8529   19.5093 C   0  0  0  0  0  0
  -24.8741  -27.6474   19.5029 C   0  0  0  0  0  0
  -23.6337  -29.7947   20.1618 C   0  0  0  0  0  0
  -25.4107  -36.3068   24.0360 C   0  0  1  0  0  0
  -20.5883  -28.3618   23.1307 C   0  0  2  0  0  0
  -20.6764  -26.9334   22.5415 C   0  0  0  0  0  0
  -19.5741  -26.6336   21.5198 C   0  0  0  0  0  0
  -18.1913  -26.7870   22.1604 C   0  0  0  0  0  0
  -19.1539  -28.8797   23.2850 C   0  0  0  0  0  0
  -18.9477  -30.1402   23.8868 C   0  0  0  0  0  0
  -17.6480  -30.6549   24.0523 C   0  0  0  0  0  0
  -25.9042  -34.9428   23.5108 C   0  0  0  0  0  0
  -16.5367  -29.9022   23.6332 C   0  0  0  0  0  0
  -16.7278  -28.6452   23.0325 C   0  0  0  0  0  0
  -26.4528  -31.6541   25.0650 C   0  0  0  0  0  0
  -25.3764  -31.3667   26.1378 C   0  0  0  0  0  0
  -27.0397  -30.3007   24.6011 C   0  0  0  0  0  0
  -27.6091  -32.4269   25.7435 C   0  0  0  0  0  0
  -27.5576  -37.1778   24.8478 C   0  0  0  0  0  0
  -21.4187  -29.2989   22.3734 N   0  0  0  0  0  0
  -26.4290  -37.3746   23.9424 N   0  0  0  0  0  0
  -24.6883  -31.0527   22.0945 N   0  0  0  0  0  0
  -23.4211  -28.8077   23.3012 O   0  0  0  0  0  0
  -28.3868  -26.5067   20.0400 O   0  0  0  0  0  0
  -26.5571  -34.8923   22.4646 O   0  0  0  0  0  0
  -23.5437  -32.1404   23.7304 O   0  0  0  0  0  0
  -28.4156  -17.8767   20.4937 C   0  0  0  0  0  0
  -30.5677  -19.4559   20.4901 C   0  0  0  0  0  0
  -29.6973  -17.2434   20.5609 C   0  0  0  0  0  0
  -29.2710  -20.0671   20.4425 C   0  0  0  0  0  0
  -28.3866  -21.7578   18.1704 C   0  0  0  0  0  0
  -28.0083  -23.8329   19.6506 C   0  0  0  0  0  0
  -28.4592  -25.0981   20.5229 C   0  0  0  0  0  0
  -28.8836  -22.4746   19.4453 C   0  0  1  0  0  0
  -30.7773  -18.0874   20.5358 N   0  0  0  0  0  0
  -28.1988  -19.2313   20.4220 N   0  0  0  0  0  0
  -29.6885  -15.7721   20.7040 N   0  0  0  0  0  0
  -29.0137  -21.4875   20.5787 N   0  0  0  0  0  0
  -31.4842  -12.5998   19.1626 H   0  0  0  0  0  0
  -30.4160  -11.4611   19.9357 H   0  0  0  0  0  0
  -29.8043  -11.7404   17.5077 H   0  0  0  0  0  0
  -29.6165  -13.4632   17.7349 H   0  0  0  0  0  0
  -27.9314  -11.2500   18.9397 H   0  0  0  0  0  0
  -27.3748  -12.4553   17.8077 H   0  0  0  0  0  0
  -27.6470  -14.2220   19.4594 H   0  0  0  0  0  0
  -28.7226  -12.0969   21.3873 H   0  0  0  0  0  0
  -28.4096  -13.7527   21.8231 H   0  0  0  0  0  0
  -25.2750   -9.5668   22.4750 H   0  0  0  0  0  0
  -23.9995   -7.4616   22.7468 H   0  0  0  0  0  0
  -21.0851   -8.8751   19.8932 H   0  0  0  0  0  0
  -22.3709  -10.9651   19.6122 H   0  0  0  0  0  0
  -21.2023   -7.6135   23.9721 H   0  0  0  0  0  0
  -21.1458   -6.0511   25.9077 H   0  0  0  0  0  0
  -22.0607   -2.7610   23.2833 H   0  0  0  0  0  0
  -22.4102  -11.9852   22.4775 H   0  0  0  0  0  0
  -21.1066  -13.1195   22.2559 H   0  0  0  0  0  0
  -24.6585  -15.8342   20.5029 H   0  0  0  0  0  0
  -26.2367  -15.6018   19.9607 H   0  0  0  0  0  0
  -26.7156  -32.5446   23.1016 H   0  0  0  0  0  0
  -25.0227  -33.9647   25.0508 H   0  0  0  0  0  0
  -22.7130  -31.2911   21.3907 H   0  0  0  0  0  0
  -23.3769  -35.9574   23.3309 H   0  0  0  0  0  0
  -24.3632  -36.8911   22.2074 H   0  0  0  0  0  0
  -23.7206  -37.6455   23.6672 H   0  0  0  0  0  0
  -26.0743  -31.5350   20.5848 H   0  0  0  0  0  0
  -26.8502  -30.8473   21.9773 H   0  0  0  0  0  0
  -28.1304  -28.9799   21.1478 H   0  0  0  0  0  0
  -26.0207  -25.8932   19.0150 H   0  0  0  0  0  0
  -23.9817  -27.2741   19.0202 H   0  0  0  0  0  0
  -23.7417  -30.5661   19.4005 H   0  0  0  0  0  0
  -22.7562  -29.2175   19.8645 H   0  0  0  0  0  0
  -25.1267  -36.1943   25.0861 H   0  0  0  0  0  0
  -20.9953  -28.3160   24.1437 H   0  0  0  0  0  0
  -20.5678  -26.2181   23.3593 H   0  0  0  0  0  0
  -21.6612  -26.7334   22.1196 H   0  0  0  0  0  0
  -19.6902  -25.6251   21.1207 H   0  0  0  0  0  0
  -19.6721  -27.3149   20.6737 H   0  0  0  0  0  0
  -17.4182  -26.6662   21.3995 H   0  0  0  0  0  0
  -18.0269  -25.9986   22.8986 H   0  0  0  0  0  0
  -19.7964  -30.7190   24.2237 H   0  0  0  0  0  0
  -17.5041  -31.6243   24.5077 H   0  0  0  0  0  0
  -15.5353  -30.2895   23.7692 H   0  0  0  0  0  0
  -15.8683  -28.0773   22.7025 H   0  0  0  0  0  0
  -24.5986  -30.6944   25.7740 H   0  0  0  0  0  0
  -24.8868  -32.2801   26.4756 H   0  0  0  0  0  0
  -25.8095  -30.8922   27.0185 H   0  0  0  0  0  0
  -26.2934  -29.6711   24.1135 H   0  0  0  0  0  0
  -27.4322  -29.7275   25.4428 H   0  0  0  0  0  0
  -27.8691  -30.4414   23.9067 H   0  0  0  0  0  0
  -27.2742  -33.3635   26.1902 H   0  0  0  0  0  0
  -28.3946  -32.6723   25.0269 H   0  0  0  0  0  0
  -28.0662  -31.8425   26.5438 H   0  0  0  0  0  0
  -28.2543  -38.0106   24.7517 H   0  0  0  0  0  0
  -28.1114  -36.2632   24.6301 H   0  0  0  0  0  0
  -27.2304  -37.1426   25.8883 H   0  0  0  0  0  0
  -20.9365  -29.8806   21.7031 H   0  0  0  0  0  0
  -26.0196  -38.2844   24.1405 H   0  0  0  0  0  0
  -27.5206  -17.2738   20.5266 H   0  0  0  0  0  0
  -31.4570  -20.0681   20.5306 H   0  0  0  0  0  0
  -28.2514  -22.4501   17.3393 H   0  0  0  0  0  0
  -27.4299  -21.2585   18.3345 H   0  0  0  0  0  0
  -29.1011  -21.0078   17.8285 H   0  0  0  0  0  0
  -27.8737  -24.2556   18.6522 H   0  0  0  0  0  0
  -26.9992  -23.5554   19.9538 H   0  0  0  0  0  0
  -29.5151  -24.9502   20.7456 H   0  0  0  0  0  0
  -27.9695  -25.0466   21.4969 H   0  0  0  0  0  0
  -29.8994  -22.8069   19.2205 H   0  0  0  0  0  0
  -28.7718  -15.4136   20.9222 H   0  0  0  0  0  0
  -29.7046  -21.8622   21.2245 H   0  0  0  0  0  0
  1 25  1  0  0  0
  1 30  2  0  0  0
  1 81  1  0  0  0
  2  3  1  0  0  0
  2 25  1  0  0  0
  2 83  1  0  0  0
  2 84  1  0  0  0
  3  4  1  0  0  0
  3 85  1  0  0  0
  3 86  1  0  0  0
  4  5  1  0  0  0
  4 87  1  0  0  0
  4 88  1  0  0  0
  5  6  1  0  0  0
  5 26  1  0  0  0
  5 89  1  0  0  0
  6 25  1  0  0  0
  6 90  1  0  0  0
  6 91  1  0  0  0
  7  8  2  0  0  0
  7 26  1  0  0  0
  7 29  1  0  0  0
  8  9  1  0  0  0
  8 22  1  0  0  0
  9 10  1  0  0  0
  9 27  2  0  0  0
 10 11  2  0  0  0
 10 15  1  0  0  0
 11 12  1  0  0  0
 11 92  1  0  0  0
 12 13  2  0  0  0
 12 93  1  0  0  0
 13 14  1  0  0  0
 13 31  1  0  0  0
 14 15  2  0  0  0
 14 94  1  0  0  0
 15 95  1  0  0  0
 16 17  2  0  0  0
 16 21  1  0  0  0
 16 31  1  0  0  0
 17 18  1  0  0  0
 17 96  1  0  0  0
 18 19  2  0  0  0
 18 97  1  0  0  0
 19 20  1  0  0  0
 19 24  1  0  0  0
 20 21  2  0  0  0
 20 98  1  0  0  0
 21 23  1  0  0  0
 22 28  1  0  0  0
 22 32  2  0  0  0
 26 27  1  0  0  0
 28 99  1  0  0  0
 28100  1  0  0  0
 29101  1  0  0  0
 29102  1  0  0  0
 33 34  1  0  0  0
 33 66  1  0  0  0
 33 70  2  0  0  0
 34 36  1  0  0  0
 34 59  1  0  0  0
 34103  1  0  0  0
 35 44  2  0  0  0
 35 45  1  0  0  0
 35 68  1  0  0  0
 36 56  1  0  0  0
 36104  1  0  0  0
 37 39  1  0  0  0
 37 47  1  0  0  0
 37 66  1  0  0  0
 37105  1  0  0  0
 38 43  2  0  0  0
 38 46  1  0  0  0
 38 47  1  0  0  0
 39 64  1  0  0  0
 39 67  2  0  0  0
 40 52  1  0  0  0
 40 53  2  0  0  0
 40 58  1  0  0  0
 41106  1  0  0  0
 41107  1  0  0  0
 41108  1  0  0  0
 41 48  1  0  0  0
 42 43  1  0  0  0
 42 66  1  0  0  0
 42109  1  0  0  0
 42110  1  0  0  0
 43 44  1  0  0  0
 44111  1  0  0  0
 45 46  2  0  0  0
 45112  1  0  0  0
 46113  1  0  0  0
 47114  1  0  0  0
 47115  1  0  0  0
 48 56  1  0  0  0
 48 65  1  0  0  0
 48116  1  0  0  0
 49 50  1  0  0  0
 49 53  1  0  0  0
 49 64  1  0  0  0
 49117  1  0  0  0
 50 51  1  0  0  0
 50118  1  0  0  0
 50119  1  0  0  0
 51 52  1  0  0  0
 51120  1  0  0  0
 51121  1  0  0  0
 52122  1  0  0  0
 52123  1  0  0  0
 53 54  1  0  0  0
 54 55  2  0  0  0
 54124  1  0  0  0
 55 57  1  0  0  0
 55125  1  0  0  0
 56 69  2  0  0  0
 57 58  2  0  0  0
 57126  1  0  0  0
 58127  1  0  0  0
 59 60  1  0  0  0
 59 61  1  0  0  0
 59 62  1  0  0  0
 60128  1  0  0  0
 60129  1  0  0  0
 60130  1  0  0  0
 61131  1  0  0  0
 61132  1  0  0  0
 61133  1  0  0  0
 62134  1  0  0  0
 62135  1  0  0  0
 62136  1  0  0  0
 63 65  1  0  0  0
 63137  1  0  0  0
 63138  1  0  0  0
 63139  1  0  0  0
 64140  1  0  0  0
 65141  1  0  0  0
 68 77  1  0  0  0
 71 73  2  0  0  0
 71 80  1  0  0  0
 71142  1  0  0  0
 72 74  1  0  0  0
 72 79  2  0  0  0
 72143  1  0  0  0
 73 79  1  0  0  0
 73 81  1  0  0  0
 74 80  2  0  0  0
 74 82  1  0  0  0
 75144  1  0  0  0
 75145  1  0  0  0
 75146  1  0  0  0
 75 78  1  0  0  0
 76 77  1  0  0  0
 76 78  1  0  0  0
 76147  1  0  0  0
 76148  1  0  0  0
 77149  1  0  0  0
 77150  1  0  0  0
 78 82  1  0  0  0
 78151  1  0  0  0
 81152  1  0  0  0
 82153  1  0  0  0
M  ISO  4   1 100  68 101  77 101  81 100
M  END
> <chiral flag>
0

> <version>
0

> <s_m_source_file>
/data/baiqing/PycharmProjects/Reinvent-master-3.2/result/LINK_invent/BTK/process_docking_weight1_custom_product_contain_oxygen_bond_distance_aromatic_linkinvent_7_9_3/rearranged_h_0199.sdf

> <i_m_source_file_index>
75

> <r_mmod_Potential_Energy-OPLS-2005>
180.517074584961

> <r_mmod_Stretch_Energy-OPLS-2005>
104.536865234375

> <r_mmod_Bend_Energy-OPLS-2005>
199.353866577148

> <r_mmod_Torsional_Energy-OPLS-2005>
259.644714355469

> <r_mmod_Improper_Torsional_Energy-OPLS-2005>
11.4671144485474

> <r_mmod_Van_der_Waal_Energy-OPLS-2005>
134.266510009766

> <r_mmod_Electrostatic_Energy-OPLS-2005>
-349.09521484375

> <r_mmod_Solvation_Energy-OPLS-2005>
-247.646713256836

> <b_mmod_Minimization_Converged-OPLS-2005>
0

> <r_mmod_RMS_Derivative-OPLS-2005>
3.93250918388367

$$$$
75
                    3D
 Structure written by MMmdl.
153161  0  0  1  0            999 V2000
  -30.6144  -14.7721   20.4260 C   0  0  0  0  0  0
  -30.4277  -12.4632   19.4928 C   0  0  0  0  0  0
  -29.5153  -12.5102   18.2472 C   0  0  0  0  0  0
  -28.0403  -12.3357   18.6547 C   0  0  0  0  0  0
  -27.6400  -13.2396   19.8509 C   0  0  2  0  0  0
  -28.6821  -13.1961   20.9905 C   0  0  0  0  0  0
  -25.2492  -13.8208   20.5702 C   0  0  0  0  0  0
  -24.1791  -13.0442   20.9209 C   0  0  0  0  0  0
  -24.6394  -11.6922   20.8746 C   0  0  0  0  0  0
  -23.9071  -10.4296   21.0410 C   0  0  0  0  0  0
  -24.3623   -9.4213   21.9188 C   0  0  0  0  0  0
  -23.6299   -8.2247   22.0755 C   0  0  0  0  0  0
  -22.4284   -8.0282   21.3543 C   0  0  0  0  0  0
  -21.9917   -9.0256   20.4649 C   0  0  0  0  0  0
  -22.7243  -10.2139   20.3059 C   0  0  0  0  0  0
  -21.6855   -6.0741   22.5278 C   0  0  0  0  0  0
  -21.4018   -6.5644   23.8211 C   0  0  0  0  0  0
  -21.3659   -5.6794   24.9172 C   0  0  0  0  0  0
  -21.6043   -4.3059   24.7221 C   0  0  0  0  0  0
  -21.8817   -3.8150   23.4339 C   0  0  0  0  0  0
  -21.9191   -4.6968   22.3399 C   0  0  0  0  0  0
  -22.7812  -13.5222   21.1858 C   0  0  0  0  0  0
  -22.1662   -4.2154   21.0977 F   0  0  0  0  0  0
  -21.5626   -3.4540   25.7734 F   0  0  0  0  0  0
  -29.9850  -13.5421   20.4110 N   0  0  0  0  0  0
  -26.2927  -12.9434   20.3286 N   0  0  0  0  0  0
  -25.9330  -11.6569   20.5755 N   0  0  0  0  0  0
  -22.0451  -12.8226   22.0418 N   0  0  0  0  0  0
  -25.4164  -15.1934   20.4123 N   0  0  0  0  0  0
  -31.8142  -14.8153   20.1265 O   0  0  0  0  0  0
  -21.6641   -6.8886   21.4243 O   0  0  0  0  0  0
  -22.3500  -14.5527   20.6698 O   0  0  0  0  0  0
  -24.6330  -31.8546   23.1990 C   0  0  0  0  0  0
  -25.9149  -32.4751   23.8340 C   0  0  1  0  0  0
  -27.2092  -27.2432   20.1276 C   0  0  0  0  0  0
  -25.5941  -33.8556   24.2257 N   0  0  0  0  0  0
  -23.4299  -30.4796   21.5429 C   0  0  2  0  0  0
  -24.8758  -28.9302   20.1067 C   0  0  0  0  0  0
  -22.7515  -29.4601   22.4903 C   0  0  0  0  0  0
  -18.0295  -28.1386   22.8478 C   0  0  0  0  0  0
  -24.1489  -36.7283   23.2639 C   0  0  0  0  0  0
  -25.9785  -30.7622   21.3826 C   0  0  0  0  0  0
  -26.0496  -29.3850   20.7209 C   0  0  0  0  0  0
  -27.2198  -28.5546   20.7203 C   0  0  0  0  0  0
  -26.0141  -26.8733   19.4676 C   0  0  0  0  0  0
  -24.8647  -27.6837   19.4678 C   0  0  0  0  0  0
  -23.6481  -29.8186   20.1577 C   0  0  0  0  0  0
  -25.4117  -36.3067   24.0321 C   0  0  1  0  0  0
  -20.5900  -28.3703   23.1257 C   0  0  2  0  0  0
  -20.6782  -26.9419   22.5401 C   0  0  0  0  0  0
  -19.5758  -26.6380   21.5205 C   0  0  0  0  0  0
  -18.1939  -26.7928   22.1619 C   0  0  0  0  0  0
  -19.1549  -28.8862   23.2862 C   0  0  0  0  0  0
  -18.9469  -30.1462   23.8882 C   0  0  0  0  0  0
  -17.6467  -30.6585   24.0560 C   0  0  0  0  0  0
  -25.9061  -34.9437   23.5090 C   0  0  0  0  0  0
  -16.5360  -29.9080   23.6330 C   0  0  0  0  0  0
  -16.7282  -28.6500   23.0350 C   0  0  0  0  0  0
  -26.4509  -31.6581   25.0737 C   0  0  0  0  0  0
  -25.3725  -31.3733   26.1450 C   0  0  0  0  0  0
  -27.0360  -30.2994   24.6238 C   0  0  0  0  0  0
  -27.6061  -32.4326   25.7515 C   0  0  0  0  0  0
  -27.5578  -37.1798   24.8463 C   0  0  0  0  0  0
  -21.4221  -29.3048   22.3646 N   0  0  0  0  0  0
  -26.4291  -37.3768   23.9405 N   0  0  0  0  0  0
  -24.6997  -31.0502   22.0975 N   0  0  0  0  0  0
  -23.4207  -28.8135   23.3003 O   0  0  0  0  0  0
  -28.2784  -26.3104   20.2077 O   0  0  0  0  0  0
  -26.5634  -34.8912   22.4661 O   0  0  0  0  0  0
  -23.5476  -32.1376   23.7274 O   0  0  0  0  0  0
  -30.6407  -18.4512   18.1920 C   0  0  0  0  0  0
  -30.2360  -19.6793   18.7474 C   0  0  0  0  0  0
  -29.6304  -19.6397   20.0222 C   0  0  0  0  0  0
  -29.9934  -17.2533   20.0497 C   0  0  0  0  0  0
  -28.5341  -22.0839   20.0597 C   0  0  0  0  0  0
  -27.9674  -24.8376   20.0336 C   0  0  0  0  0  0
  -28.9181  -23.6012   20.5164 C   0  0  1  0  0  0
  -30.5147  -17.2760   18.8291 N   0  0  0  0  0  0
  -29.5260  -18.4039   20.6550 N   0  0  0  0  0  0
  -30.5232  -20.8789   18.0843 N   0  0  0  0  0  0
  -29.2568  -20.8850   20.6723 N   0  0  0  0  0  0
  -29.8710  -15.9391   20.6281 N   0  0  0  0  0  0
  -28.8557  -23.5615   21.9321 O   0  0  0  0  0  0
  -31.4719  -12.5702   19.1951 H   0  0  0  0  0  0
  -30.3596  -11.4924   19.9860 H   0  0  0  0  0  0
  -29.8033  -11.7341   17.5368 H   0  0  0  0  0  0
  -29.6446  -13.4622   17.7297 H   0  0  0  0  0  0
  -27.8971  -11.2882   18.9210 H   0  0  0  0  0  0
  -27.3860  -12.5254   17.8029 H   0  0  0  0  0  0
  -27.6284  -14.2578   19.4614 H   0  0  0  0  0  0
  -28.7173  -12.2076   21.4514 H   0  0  0  0  0  0
  -28.4132  -13.8945   21.7845 H   0  0  0  0  0  0
  -25.2765   -9.5696   22.4765 H   0  0  0  0  0  0
  -24.0007   -7.4643   22.7476 H   0  0  0  0  0  0
  -21.0845   -8.8773   19.8961 H   0  0  0  0  0  0
  -22.3692  -10.9677   19.6171 H   0  0  0  0  0  0
  -21.2017   -7.6152   23.9718 H   0  0  0  0  0  0
  -21.1485   -6.0524   25.9076 H   0  0  0  0  0  0
  -22.0597   -2.7611   23.2834 H   0  0  0  0  0  0
  -22.4067  -11.9896   22.4827 H   0  0  0  0  0  0
  -21.1070  -13.1264   22.2615 H   0  0  0  0  0  0
  -24.6433  -15.8417   20.5181 H   0  0  0  0  0  0
  -26.2561  -15.6355   20.0623 H   0  0  0  0  0  0
  -26.7216  -32.5391   23.1080 H   0  0  0  0  0  0
  -25.0080  -33.9697   25.0396 H   0  0  0  0  0  0
  -22.7264  -31.3022   21.3986 H   0  0  0  0  0  0
  -23.3752  -35.9614   23.3298 H   0  0  0  0  0  0
  -24.3578  -36.8913   22.2054 H   0  0  0  0  0  0
  -23.7241  -37.6480   23.6671 H   0  0  0  0  0  0
  -26.1213  -31.5242   20.6150 H   0  0  0  0  0  0
  -26.8548  -30.8089   22.0178 H   0  0  0  0  0  0
  -28.1150  -28.8947   21.2218 H   0  0  0  0  0  0
  -25.9276  -25.9270   18.9559 H   0  0  0  0  0  0
  -23.9685  -27.3339   18.9737 H   0  0  0  0  0  0
  -23.7743  -30.5965   19.4041 H   0  0  0  0  0  0
  -22.7655  -29.2543   19.8508 H   0  0  0  0  0  0
  -25.1299  -36.1916   25.0815 H   0  0  0  0  0  0
  -20.9992  -28.3282   24.1377 H   0  0  0  0  0  0
  -20.5673  -26.2318   23.3610 H   0  0  0  0  0  0
  -21.6650  -26.7434   22.1202 H   0  0  0  0  0  0
  -19.6920  -25.6287   21.1246 H   0  0  0  0  0  0
  -19.6692  -27.3180   20.6724 H   0  0  0  0  0  0
  -17.4207  -26.6668   21.4023 H   0  0  0  0  0  0
  -18.0346  -26.0073   22.9020 H   0  0  0  0  0  0
  -19.7945  -30.7280   24.2245 H   0  0  0  0  0  0
  -17.5021  -31.6264   24.5165 H   0  0  0  0  0  0
  -15.5358  -30.2977   23.7661 H   0  0  0  0  0  0
  -15.8683  -28.0814   22.7069 H   0  0  0  0  0  0
  -24.5909  -30.7072   25.7774 H   0  0  0  0  0  0
  -24.8905  -32.2899   26.4858 H   0  0  0  0  0  0
  -25.8035  -30.8922   27.0239 H   0  0  0  0  0  0
  -26.2949  -29.6737   24.1250 H   0  0  0  0  0  0
  -27.4016  -29.7265   25.4770 H   0  0  0  0  0  0
  -27.8842  -30.4259   23.9506 H   0  0  0  0  0  0
  -27.2669  -33.3634   26.2073 H   0  0  0  0  0  0
  -28.3885  -32.6871   25.0354 H   0  0  0  0  0  0
  -28.0714  -31.8463   26.5448 H   0  0  0  0  0  0
  -28.2592  -38.0098   24.7510 H   0  0  0  0  0  0
  -28.1076  -36.2627   24.6291 H   0  0  0  0  0  0
  -27.2294  -37.1448   25.8867 H   0  0  0  0  0  0
  -20.9408  -29.8784   21.6860 H   0  0  0  0  0  0
  -26.0166  -38.2841   24.1405 H   0  0  0  0  0  0
  -31.1159  -18.4143   17.2224 H   0  0  0  0  0  0
  -28.5505  -22.0320   18.9728 H   0  0  0  0  0  0
  -27.4806  -21.9374   20.3029 H   0  0  0  0  0  0
  -26.9899  -24.6447   20.4784 H   0  0  0  0  0  0
  -27.8299  -24.6994   18.9599 H   0  0  0  0  0  0
  -29.9436  -23.8122   20.2101 H   0  0  0  0  0  0
  -31.2844  -20.8757   17.4105 H   0  0  0  0  0  0
  -30.5405  -21.6940   18.6906 H   0  0  0  0  0  0
  -29.0456  -20.7787   21.6567 H   0  0  0  0  0  0
  -29.0004  -15.7940   21.1110 H   0  0  0  0  0  0
  -29.1213  -24.4204   22.2480 H   0  0  0  0  0  0
  1 25  1  0  0  0
  1 30  2  0  0  0
  1 82  1  0  0  0
  2  3  1  0  0  0
  2 25  1  0  0  0
  2 84  1  0  0  0
  2 85  1  0  0  0
  3  4  1  0  0  0
  3 86  1  0  0  0
  3 87  1  0  0  0
  4  5  1  0  0  0
  4 88  1  0  0  0
  4 89  1  0  0  0
  5  6  1  0  0  0
  5 26  1  0  0  0
  5 90  1  0  0  0
  6 25  1  0  0  0
  6 91  1  0  0  0
  6 92  1  0  0  0
  7  8  2  0  0  0
  7 26  1  0  0  0
  7 29  1  0  0  0
  8  9  1  0  0  0
  8 22  1  0  0  0
  9 10  1  0  0  0
  9 27  2  0  0  0
 10 11  2  0  0  0
 10 15  1  0  0  0
 11 12  1  0  0  0
 11 93  1  0  0  0
 12 13  2  0  0  0
 12 94  1  0  0  0
 13 14  1  0  0  0
 13 31  1  0  0  0
 14 15  2  0  0  0
 14 95  1  0  0  0
 15 96  1  0  0  0
 16 17  2  0  0  0
 16 21  1  0  0  0
 16 31  1  0  0  0
 17 18  1  0  0  0
 17 97  1  0  0  0
 18 19  2  0  0  0
 18 98  1  0  0  0
 19 20  1  0  0  0
 19 24  1  0  0  0
 20 21  2  0  0  0
 20 99  1  0  0  0
 21 23  1  0  0  0
 22 28  1  0  0  0
 22 32  2  0  0  0
 26 27  1  0  0  0
 28100  1  0  0  0
 28101  1  0  0  0
 29102  1  0  0  0
 29103  1  0  0  0
 33 34  1  0  0  0
 33 66  1  0  0  0
 33 70  2  0  0  0
 34 36  1  0  0  0
 34 59  1  0  0  0
 34104  1  0  0  0
 35 44  2  0  0  0
 35 45  1  0  0  0
 35 68  1  0  0  0
 36 56  1  0  0  0
 36105  1  0  0  0
 37 39  1  0  0  0
 37 47  1  0  0  0
 37 66  1  0  0  0
 37106  1  0  0  0
 38 43  2  0  0  0
 38 46  1  0  0  0
 38 47  1  0  0  0
 39 64  1  0  0  0
 39 67  2  0  0  0
 40 52  1  0  0  0
 40 53  2  0  0  0
 40 58  1  0  0  0
 41107  1  0  0  0
 41108  1  0  0  0
 41109  1  0  0  0
 41 48  1  0  0  0
 42 43  1  0  0  0
 42 66  1  0  0  0
 42110  1  0  0  0
 42111  1  0  0  0
 43 44  1  0  0  0
 44112  1  0  0  0
 45 46  2  0  0  0
 45113  1  0  0  0
 46114  1  0  0  0
 47115  1  0  0  0
 47116  1  0  0  0
 48 56  1  0  0  0
 48 65  1  0  0  0
 48117  1  0  0  0
 49 50  1  0  0  0
 49 53  1  0  0  0
 49 64  1  0  0  0
 49118  1  0  0  0
 50 51  1  0  0  0
 50119  1  0  0  0
 50120  1  0  0  0
 51 52  1  0  0  0
 51121  1  0  0  0
 51122  1  0  0  0
 52123  1  0  0  0
 52124  1  0  0  0
 53 54  1  0  0  0
 54 55  2  0  0  0
 54125  1  0  0  0
 55 57  1  0  0  0
 55126  1  0  0  0
 56 69  2  0  0  0
 57 58  2  0  0  0
 57127  1  0  0  0
 58128  1  0  0  0
 59 60  1  0  0  0
 59 61  1  0  0  0
 59 62  1  0  0  0
 60129  1  0  0  0
 60130  1  0  0  0
 60131  1  0  0  0
 61132  1  0  0  0
 61133  1  0  0  0
 61134  1  0  0  0
 62135  1  0  0  0
 62136  1  0  0  0
 62137  1  0  0  0
 63 65  1  0  0  0
 63138  1  0  0  0
 63139  1  0  0  0
 63140  1  0  0  0
 64141  1  0  0  0
 65142  1  0  0  0
 68 76  1  0  0  0
 71 72  2  0  0  0
 71 78  1  0  0  0
 71143  1  0  0  0
 72 73  1  0  0  0
 72 80  1  0  0  0
 73 79  2  0  0  0
 73 81  1  0  0  0
 74 78  2  0  0  0
 74 79  1  0  0  0
 74 82  1  0  0  0
 75 77  1  0  0  0
 75 81  1  0  0  0
 75144  1  0  0  0
 75145  1  0  0  0
 76 77  1  0  0  0
 76146  1  0  0  0
 76147  1  0  0  0
 77 83  1  0  0  0
 77148  1  0  0  0
 80149  1  0  0  0
 80150  1  0  0  0
 81151  1  0  0  0
 82152  1  0  0  0
 83153  1  0  0  0
M  ISO  4   1 100  68 101  76 101  82 100
M  END
> <chiral flag>
0

> <version>
0

> <s_m_source_file>
/data/baiqing/PycharmProjects/Reinvent-master-3.2/result/LINK_invent/BTK/process_docking_weight1_custom_product_contain_oxygen_bond_distance_aromatic_linkinvent_7_9_3/rearranged_h_0199.sdf

> <i_m_source_file_index>
76

> <r_mmod_Potential_Energy-OPLS-2005>
-259.849182128906

> <r_mmod_Stretch_Energy-OPLS-2005>
134.428924560547

> <r_mmod_Bend_Energy-OPLS-2005>
183.47346496582

> <r_mmod_Torsional_Energy-OPLS-2005>
262.751770019531

> <r_mmod_Improper_Torsional_Energy-OPLS-2005>
11.0494756698608

> <r_mmod_Van_der_Waal_Energy-OPLS-2005>
158.325820922852

> <r_mmod_Electrostatic_Energy-OPLS-2005>
-843.386413574219

> <r_mmod_Solvation_Energy-OPLS-2005>
-266.823181152344

> <b_mmod_Minimization_Converged-OPLS-2005>
0

> <r_mmod_RMS_Derivative-OPLS-2005>
0.850923776626587

$$$$
76
                    3D
 Structure written by MMmdl.
157165  0  0  1  0            999 V2000
  -30.5654  -14.6688   20.5131 C   0  0  0  0  0  0
  -30.4571  -12.4157   19.4431 C   0  0  0  0  0  0
  -29.5177  -12.5230   18.2188 C   0  0  0  0  0  0
  -28.0362  -12.3585   18.6221 C   0  0  0  0  0  0
  -27.6553  -13.2076   19.8642 C   0  0  2  0  0  0
  -28.7016  -13.0261   20.9872 C   0  0  0  0  0  0
  -25.2533  -13.8116   20.5622 C   0  0  0  0  0  0
  -24.1801  -13.0408   20.9195 C   0  0  0  0  0  0
  -24.6362  -11.6881   20.8742 C   0  0  0  0  0  0
  -23.9028  -10.4270   21.0407 C   0  0  0  0  0  0
  -24.3580   -9.4195   21.9192 C   0  0  0  0  0  0
  -23.6252   -8.2235   22.0755 C   0  0  0  0  0  0
  -22.4241   -8.0270   21.3543 C   0  0  0  0  0  0
  -21.9861   -9.0249   20.4650 C   0  0  0  0  0  0
  -22.7199  -10.2121   20.3059 C   0  0  0  0  0  0
  -21.6854   -6.0710   22.5261 C   0  0  0  0  0  0
  -21.4029   -6.5605   23.8194 C   0  0  0  0  0  0
  -21.3651   -5.6772   24.9163 C   0  0  0  0  0  0
  -21.6035   -4.3042   24.7213 C   0  0  0  0  0  0
  -21.8828   -3.8137   23.4330 C   0  0  0  0  0  0
  -21.9193   -4.6944   22.3381 C   0  0  0  0  0  0
  -22.7829  -13.5241   21.1853 C   0  0  0  0  0  0
  -22.1667   -4.2131   21.0955 F   0  0  0  0  0  0
  -21.5615   -3.4529   25.7730 F   0  0  0  0  0  0
  -30.0119  -13.4141   20.4369 N   0  0  0  0  0  0
  -26.2975  -12.9288   20.3270 N   0  0  0  0  0  0
  -25.9293  -11.6465   20.5715 N   0  0  0  0  0  0
  -22.0431  -12.8274   22.0396 N   0  0  0  0  0  0
  -25.4191  -15.1808   20.3896 N   0  0  0  0  0  0
  -31.7123  -14.8978   20.1184 O   0  0  0  0  0  0
  -21.6627   -6.8860   21.4225 O   0  0  0  0  0  0
  -22.3543  -14.5555   20.6676 O   0  0  0  0  0  0
  -24.6234  -31.8597   23.2010 C   0  0  0  0  0  0
  -25.9100  -32.4770   23.8334 C   0  0  1  0  0  0
  -27.2305  -27.3303   20.1348 C   0  0  0  0  0  0
  -25.5918  -33.8567   24.2263 N   0  0  0  0  0  0
  -23.4157  -30.4816   21.5425 C   0  0  2  0  0  0
  -24.8660  -28.9287   20.1169 C   0  0  0  0  0  0
  -22.7447  -29.4636   22.4938 C   0  0  0  0  0  0
  -18.0287  -28.1383   22.8482 C   0  0  0  0  0  0
  -24.1490  -36.7285   23.2634 C   0  0  0  0  0  0
  -25.9541  -30.7986   21.3664 C   0  0  0  0  0  0
  -26.0329  -29.4240   20.7139 C   0  0  0  0  0  0
  -27.2213  -28.6383   20.7070 C   0  0  0  0  0  0
  -26.0461  -26.8766   19.5200 C   0  0  0  0  0  0
  -24.8729  -27.6597   19.5119 C   0  0  0  0  0  0
  -23.6300  -29.8063   20.1614 C   0  0  0  0  0  0
  -25.4106  -36.3065   24.0323 C   0  0  1  0  0  0
  -20.5881  -28.3683   23.1284 C   0  0  2  0  0  0
  -20.6776  -26.9403   22.5414 C   0  0  0  0  0  0
  -19.5753  -26.6381   21.5209 C   0  0  0  0  0  0
  -18.1930  -26.7928   22.1618 C   0  0  0  0  0  0
  -19.1538  -28.8851   23.2876 C   0  0  0  0  0  0
  -18.9465  -30.1458   23.8885 C   0  0  0  0  0  0
  -17.6463  -30.6585   24.0561 C   0  0  0  0  0  0
  -25.9050  -34.9444   23.5095 C   0  0  0  0  0  0
  -16.5352  -29.9079   23.6335 C   0  0  0  0  0  0
  -16.7273  -28.6500   23.0345 C   0  0  0  0  0  0
  -26.4490  -31.6578   25.0705 C   0  0  0  0  0  0
  -25.3732  -31.3724   26.1436 C   0  0  0  0  0  0
  -27.0339  -30.3004   24.6165 C   0  0  0  0  0  0
  -27.6041  -32.4321   25.7483 C   0  0  0  0  0  0
  -27.5584  -37.1767   24.8438 C   0  0  0  0  0  0
  -21.4164  -29.3039   22.3673 N   0  0  0  0  0  0
  -26.4264  -37.3776   23.9429 N   0  0  0  0  0  0
  -24.6828  -31.0636   22.0938 N   0  0  0  0  0  0
  -23.4182  -28.8181   23.3011 O   0  0  0  0  0  0
  -28.3613  -26.5101   20.1221 O   0  0  0  0  0  0
  -26.5619  -34.8915   22.4661 O   0  0  0  0  0  0
  -23.5409  -32.1380   23.7361 O   0  0  0  0  0  0
  -28.3093  -17.6034   20.2729 C   0  0  0  0  0  0
  -30.5724  -18.0979   20.8249 C   0  0  0  0  0  0
  -29.5776  -17.0954   20.6453 C   0  0  0  0  0  0
  -28.0939  -18.9928   20.0492 C   0  0  0  0  0  0
  -29.1439  -19.9159   20.2648 C   0  0  0  0  0  0
  -30.7004  -22.8095   20.6920 C   0  0  0  0  0  0
  -28.3120  -25.2048   20.8173 C   0  0  0  0  0  0
  -29.1833  -22.5577   20.6502 C   0  0  1  0  0  0
  -28.4262  -23.8264   20.0006 C   0  0  1  0  0  0
  -30.3638  -19.4555   20.6572 N   0  0  0  0  0  0
  -26.8548  -19.4477   19.5798 N   0  0  0  0  0  0
  -29.6951  -15.6520   20.9159 N   0  0  0  0  0  0
  -28.8818  -21.2865   19.9246 N   0  0  0  0  0  0
  -27.1043  -23.3880   19.7049 O   0  0  0  0  0  0
  -31.4932  -12.5748   19.1403 H   0  0  0  0  0  0
  -30.4201  -11.4101   19.8651 H   0  0  0  0  0  0
  -29.7875  -11.7785   17.4694 H   0  0  0  0  0  0
  -29.6584  -13.4925   17.7384 H   0  0  0  0  0  0
  -27.8583  -11.3019   18.8256 H   0  0  0  0  0  0
  -27.3920  -12.6169   17.7811 H   0  0  0  0  0  0
  -27.6808  -14.2476   19.5433 H   0  0  0  0  0  0
  -28.7248  -11.9849   21.3124 H   0  0  0  0  0  0
  -28.4398  -13.6018   21.8771 H   0  0  0  0  0  0
  -25.2716   -9.5692   22.4761 H   0  0  0  0  0  0
  -23.9961   -7.4635   22.7475 H   0  0  0  0  0  0
  -21.0786   -8.8770   19.8960 H   0  0  0  0  0  0
  -22.3654  -10.9655   19.6158 H   0  0  0  0  0  0
  -21.2047   -7.6113   23.9693 H   0  0  0  0  0  0
  -21.1456   -6.0503   25.9067 H   0  0  0  0  0  0
  -22.0621   -2.7604   23.2836 H   0  0  0  0  0  0
  -22.3986  -11.9936   22.4832 H   0  0  0  0  0  0
  -21.1059  -13.1352   22.2581 H   0  0  0  0  0  0
  -24.6264  -15.8112   20.4489 H   0  0  0  0  0  0
  -26.2019  -15.5742   19.8891 H   0  0  0  0  0  0
  -26.7166  -32.5441   23.1079 H   0  0  0  0  0  0
  -25.0048  -33.9708   25.0397 H   0  0  0  0  0  0
  -22.7081  -31.3006   21.3964 H   0  0  0  0  0  0
  -23.3768  -35.9595   23.3236 H   0  0  0  0  0  0
  -24.3615  -36.8978   22.2067 H   0  0  0  0  0  0
  -23.7222  -37.6453   23.6709 H   0  0  0  0  0  0
  -26.0845  -31.5657   20.6014 H   0  0  0  0  0  0
  -26.8337  -30.8475   21.9967 H   0  0  0  0  0  0
  -28.1220  -29.0229   21.1638 H   0  0  0  0  0  0
  -26.0306  -25.9058   19.0455 H   0  0  0  0  0  0
  -23.9766  -27.2721   19.0478 H   0  0  0  0  0  0
  -23.7437  -30.5772   19.3984 H   0  0  0  0  0  0
  -22.7502  -29.2307   19.8659 H   0  0  0  0  0  0
  -25.1284  -36.1890   25.0808 H   0  0  0  0  0  0
  -20.9981  -28.3270   24.1402 H   0  0  0  0  0  0
  -20.5673  -26.2285   23.3612 H   0  0  0  0  0  0
  -21.6645  -26.7435   22.1207 H   0  0  0  0  0  0
  -19.6906  -25.6290   21.1242 H   0  0  0  0  0  0
  -19.6689  -27.3184   20.6733 H   0  0  0  0  0  0
  -17.4197  -26.6680   21.4021 H   0  0  0  0  0  0
  -18.0319  -26.0070   22.9011 H   0  0  0  0  0  0
  -19.7940  -30.7281   24.2233 H   0  0  0  0  0  0
  -17.5020  -31.6266   24.5156 H   0  0  0  0  0  0
  -15.5353  -30.2973   23.7668 H   0  0  0  0  0  0
  -15.8675  -28.0820   22.7056 H   0  0  0  0  0  0
  -24.5863  -30.7126   25.7763 H   0  0  0  0  0  0
  -24.8971  -32.2897   26.4901 H   0  0  0  0  0  0
  -25.8045  -30.8853   27.0188 H   0  0  0  0  0  0
  -26.2917  -29.6738   24.1202 H   0  0  0  0  0  0
  -27.4052  -29.7278   25.4674 H   0  0  0  0  0  0
  -27.8775  -30.4294   23.9384 H   0  0  0  0  0  0
  -27.2638  -33.3612   26.2067 H   0  0  0  0  0  0
  -28.3842  -32.6894   25.0311 H   0  0  0  0  0  0
  -28.0713  -31.8444   26.5394 H   0  0  0  0  0  0
  -28.2511  -38.0152   24.7605 H   0  0  0  0  0  0
  -28.1172  -36.2689   24.6103 H   0  0  0  0  0  0
  -27.2332  -37.1226   25.8842 H   0  0  0  0  0  0
  -20.9331  -29.8741   21.6873 H   0  0  0  0  0  0
  -26.0135  -38.2829   24.1502 H   0  0  0  0  0  0
  -27.4887  -16.9203   20.1244 H   0  0  0  0  0  0
  -31.5631  -17.8166   21.1506 H   0  0  0  0  0  0
  -30.9438  -23.7065   21.2611 H   0  0  0  0  0  0
  -31.1019  -22.9378   19.6861 H   0  0  0  0  0  0
  -31.2397  -21.9867   21.1582 H   0  0  0  0  0  0
  -29.1712  -25.2419   21.4866 H   0  0  0  0  0  0
  -27.4603  -25.1722   21.5012 H   0  0  0  0  0  0
  -28.8223  -22.4233   21.6714 H   0  0  0  0  0  0
  -28.9116  -24.0517   19.0504 H   0  0  0  0  0  0
  -26.1722  -18.7324   19.3500 H   0  0  0  0  0  0
  -26.8984  -20.1299   18.8295 H   0  0  0  0  0  0
  -28.8239  -15.2296   21.1994 H   0  0  0  0  0  0
  -27.9215  -21.3552   19.5984 H   0  0  0  0  0  0
  -26.6214  -23.3332   20.5231 H   0  0  0  0  0  0
  1 25  1  0  0  0
  1 30  2  0  0  0
  1 82  1  0  0  0
  2  3  1  0  0  0
  2 25  1  0  0  0
  2 85  1  0  0  0
  2 86  1  0  0  0
  3  4  1  0  0  0
  3 87  1  0  0  0
  3 88  1  0  0  0
  4  5  1  0  0  0
  4 89  1  0  0  0
  4 90  1  0  0  0
  5  6  1  0  0  0
  5 26  1  0  0  0
  5 91  1  0  0  0
  6 25  1  0  0  0
  6 92  1  0  0  0
  6 93  1  0  0  0
  7  8  2  0  0  0
  7 26  1  0  0  0
  7 29  1  0  0  0
  8  9  1  0  0  0
  8 22  1  0  0  0
  9 10  1  0  0  0
  9 27  2  0  0  0
 10 11  2  0  0  0
 10 15  1  0  0  0
 11 12  1  0  0  0
 11 94  1  0  0  0
 12 13  2  0  0  0
 12 95  1  0  0  0
 13 14  1  0  0  0
 13 31  1  0  0  0
 14 15  2  0  0  0
 14 96  1  0  0  0
 15 97  1  0  0  0
 16 17  2  0  0  0
 16 21  1  0  0  0
 16 31  1  0  0  0
 17 18  1  0  0  0
 17 98  1  0  0  0
 18 19  2  0  0  0
 18 99  1  0  0  0
 19 20  1  0  0  0
 19 24  1  0  0  0
 20 21  2  0  0  0
 20100  1  0  0  0
 21 23  1  0  0  0
 22 28  1  0  0  0
 22 32  2  0  0  0
 26 27  1  0  0  0
 28101  1  0  0  0
 28102  1  0  0  0
 29103  1  0  0  0
 29104  1  0  0  0
 33 34  1  0  0  0
 33 66  1  0  0  0
 33 70  2  0  0  0
 34 36  1  0  0  0
 34 59  1  0  0  0
 34105  1  0  0  0
 35 44  2  0  0  0
 35 45  1  0  0  0
 35 68  1  0  0  0
 36 56  1  0  0  0
 36106  1  0  0  0
 37 39  1  0  0  0
 37 47  1  0  0  0
 37 66  1  0  0  0
 37107  1  0  0  0
 38 43  2  0  0  0
 38 46  1  0  0  0
 38 47  1  0  0  0
 39 64  1  0  0  0
 39 67  2  0  0  0
 40 52  1  0  0  0
 40 53  2  0  0  0
 40 58  1  0  0  0
 41108  1  0  0  0
 41109  1  0  0  0
 41110  1  0  0  0
 41 48  1  0  0  0
 42 43  1  0  0  0
 42 66  1  0  0  0
 42111  1  0  0  0
 42112  1  0  0  0
 43 44  1  0  0  0
 44113  1  0  0  0
 45 46  2  0  0  0
 45114  1  0  0  0
 46115  1  0  0  0
 47116  1  0  0  0
 47117  1  0  0  0
 48 56  1  0  0  0
 48 65  1  0  0  0
 48118  1  0  0  0
 49 50  1  0  0  0
 49 53  1  0  0  0
 49 64  1  0  0  0
 49119  1  0  0  0
 50 51  1  0  0  0
 50120  1  0  0  0
 50121  1  0  0  0
 51 52  1  0  0  0
 51122  1  0  0  0
 51123  1  0  0  0
 52124  1  0  0  0
 52125  1  0  0  0
 53 54  1  0  0  0
 54 55  2  0  0  0
 54126  1  0  0  0
 55 57  1  0  0  0
 55127  1  0  0  0
 56 69  2  0  0  0
 57 58  2  0  0  0
 57128  1  0  0  0
 58129  1  0  0  0
 59 60  1  0  0  0
 59 61  1  0  0  0
 59 62  1  0  0  0
 60130  1  0  0  0
 60131  1  0  0  0
 60132  1  0  0  0
 61133  1  0  0  0
 61134  1  0  0  0
 61135  1  0  0  0
 62136  1  0  0  0
 62137  1  0  0  0
 62138  1  0  0  0
 63 65  1  0  0  0
 63139  1  0  0  0
 63140  1  0  0  0
 63141  1  0  0  0
 64142  1  0  0  0
 65143  1  0  0  0
 68 77  1  0  0  0
 71 73  2  0  0  0
 71 74  1  0  0  0
 71144  1  0  0  0
 72 73  1  0  0  0
 72 80  2  0  0  0
 72145  1  0  0  0
 73 82  1  0  0  0
 74 75  2  0  0  0
 74 81  1  0  0  0
 75 80  1  0  0  0
 75 83  1  0  0  0
 76146  1  0  0  0
 76147  1  0  0  0
 76148  1  0  0  0
 76 78  1  0  0  0
 77 79  1  0  0  0
 77149  1  0  0  0
 77150  1  0  0  0
 78 79  1  0  0  0
 78 83  1  0  0  0
 78151  1  0  0  0
 79 84  1  0  0  0
 79152  1  0  0  0
 81153  1  0  0  0
 81154  1  0  0  0
 82155  1  0  0  0
 83156  1  0  0  0
 84157  1  0  0  0
M  ISO  4   1 100  68 101  77 101  82 100
M  END
> <chiral flag>
0

> <version>
0

> <s_m_source_file>
/data/baiqing/PycharmProjects/Reinvent-master-3.2/result/LINK_invent/BTK/process_docking_weight1_custom_product_contain_oxygen_bond_distance_aromatic_linkinvent_7_9_3/rearranged_h_0199.sdf

> <i_m_source_file_index>
77

> <r_mmod_Potential_Energy-OPLS-2005>
-142.227111816406

> <r_mmod_Stretch_Energy-OPLS-2005>
84.4028854370117

> <r_mmod_Bend_Energy-OPLS-2005>
171.846115112305

> <r_mmod_Torsional_Energy-OPLS-2005>
288.976501464844

> <r_mmod_Improper_Torsional_Energy-OPLS-2005>
16.0058612823486

> <r_mmod_Van_der_Waal_Energy-OPLS-2005>
140.636367797852

> <r_mmod_Electrostatic_Energy-OPLS-2005>
-645.662719726562

> <r_mmod_Solvation_Energy-OPLS-2005>
-249.570709228516

> <b_mmod_Minimization_Converged-OPLS-2005>
0

> <r_mmod_RMS_Derivative-OPLS-2005>
2.85380411148071

$$$$
77
                    3D
 Structure written by MMmdl.
154162  0  0  1  0            999 V2000
  -30.6151  -14.7554   20.4568 C   0  0  0  0  0  0
  -30.4337  -12.4540   19.5001 C   0  0  0  0  0  0
  -29.5144  -12.4961   18.2570 C   0  0  0  0  0  0
  -28.0481  -12.2952   18.6696 C   0  0  0  0  0  0
  -27.6410  -13.2232   19.8460 C   0  0  2  0  0  0
  -28.6773  -13.1917   20.9920 C   0  0  0  0  0  0
  -25.2532  -13.8191   20.5688 C   0  0  0  0  0  0
  -24.1812  -13.0472   20.9208 C   0  0  0  0  0  0
  -24.6372  -11.6910   20.8750 C   0  0  0  0  0  0
  -23.9066  -10.4294   21.0447 C   0  0  0  0  0  0
  -24.3629   -9.4199   21.9205 C   0  0  0  0  0  0
  -23.6312   -8.2238   22.0761 C   0  0  0  0  0  0
  -22.4316   -8.0288   21.3524 C   0  0  0  0  0  0
  -21.9932   -9.0264   20.4649 C   0  0  0  0  0  0
  -22.7242  -10.2139   20.3084 C   0  0  0  0  0  0
  -21.6835   -6.0775   22.5295 C   0  0  0  0  0  0
  -21.3991   -6.5682   23.8233 C   0  0  0  0  0  0
  -21.3665   -5.6821   24.9185 C   0  0  0  0  0  0
  -21.6041   -4.3093   24.7220 C   0  0  0  0  0  0
  -21.8824   -3.8195   23.4348 C   0  0  0  0  0  0
  -21.9181   -4.7011   22.3401 C   0  0  0  0  0  0
  -22.7840  -13.5247   21.1892 C   0  0  0  0  0  0
  -22.1659   -4.2226   21.0974 F   0  0  0  0  0  0
  -21.5638   -3.4547   25.7716 F   0  0  0  0  0  0
  -29.9867  -13.5273   20.4240 N   0  0  0  0  0  0
  -26.2939  -12.9362   20.3226 N   0  0  0  0  0  0
  -25.9291  -11.6532   20.5706 N   0  0  0  0  0  0
  -22.0484  -12.8208   22.0445 N   0  0  0  0  0  0
  -25.4241  -15.1906   20.4185 N   0  0  0  0  0  0
  -31.8075  -14.8312   20.1403 O   0  0  0  0  0  0
  -21.6643   -6.8906   21.4259 O   0  0  0  0  0  0
  -22.3522  -14.5545   20.6752 O   0  0  0  0  0  0
  -24.6304  -31.8491   23.1947 C   0  0  0  0  0  0
  -25.9143  -32.4689   23.8279 C   0  0  1  0  0  0
  -27.1999  -27.2369   20.0949 C   0  0  0  0  0  0
  -25.5923  -33.8484   24.2175 N   0  0  0  0  0  0
  -23.4235  -30.4890   21.5318 C   0  0  2  0  0  0
  -24.8651  -28.9287   20.1079 C   0  0  0  0  0  0
  -22.7436  -29.4690   22.4775 C   0  0  0  0  0  0
  -18.0283  -28.1363   22.8463 C   0  0  0  0  0  0
  -24.1522  -36.7279   23.2628 C   0  0  0  0  0  0
  -25.9798  -30.7557   21.3852 C   0  0  0  0  0  0
  -26.0442  -29.3803   20.7079 C   0  0  0  0  0  0
  -27.2135  -28.5508   20.6868 C   0  0  0  0  0  0
  -25.9799  -26.8466   19.5081 C   0  0  0  0  0  0
  -24.8381  -27.6643   19.5039 C   0  0  0  0  0  0
  -23.6419  -29.8237   20.1494 C   0  0  0  0  0  0
  -25.4128  -36.2977   24.0282 C   0  0  1  0  0  0
  -20.5877  -28.3779   23.1177 C   0  0  2  0  0  0
  -20.6752  -26.9461   22.5376 C   0  0  0  0  0  0
  -19.5765  -26.6355   21.5163 C   0  0  0  0  0  0
  -18.1978  -26.7895   22.1638 C   0  0  0  0  0  0
  -19.1522  -28.8883   23.2819 C   0  0  0  0  0  0
  -18.9456  -30.1481   23.8899 C   0  0  0  0  0  0
  -17.6462  -30.6641   24.0495 C   0  0  0  0  0  0
  -25.9087  -34.9359   23.5032 C   0  0  0  0  0  0
  -16.5369  -29.9110   23.6294 C   0  0  0  0  0  0
  -16.7288  -28.6475   23.0409 C   0  0  0  0  0  0
  -26.4508  -31.6561   25.0713 C   0  0  0  0  0  0
  -25.3761  -31.3773   26.1476 C   0  0  0  0  0  0
  -27.0367  -30.2931   24.6317 C   0  0  0  0  0  0
  -27.6021  -32.4342   25.7518 C   0  0  0  0  0  0
  -27.5562  -37.1784   24.8447 C   0  0  0  0  0  0
  -21.4149  -29.3137   22.3543 N   0  0  0  0  0  0
  -26.4281  -37.3689   23.9373 N   0  0  0  0  0  0
  -24.6971  -31.0490   22.0907 N   0  0  0  0  0  0
  -23.4123  -28.8171   23.2825 O   0  0  0  0  0  0
  -28.3153  -26.3611   20.1312 O   0  0  0  0  0  0
  -26.5673  -34.8843   22.4614 O   0  0  0  0  0  0
  -23.5458  -32.1321   23.7243 O   0  0  0  0  0  0
  -29.8009  -19.9787   20.1084 C   0  0  0  0  0  0
  -27.6077  -20.4715   20.7313 C   0  0  0  0  0  0
  -28.7898  -21.0310   20.3097 C   0  0  0  0  0  0
  -29.4279  -18.6608   20.4472 C   0  0  0  0  0  0
  -28.3324  -23.6375   20.3800 C   0  0  0  0  0  0
  -26.6947  -23.7569   17.9231 C   0  0  0  0  0  0
  -30.3391  -17.3511   20.4345 C   0  0  0  0  0  0
  -27.8587  -24.7800   18.0599 C   0  0  0  0  0  0
  -28.4562  -24.9789   19.4937 C   0  0  1  0  0  0
  -28.9557  -22.4675   19.9556 N   0  0  0  0  0  0
  -29.8552  -15.9101   20.6391 N   0  0  0  0  0  0
  -27.6784  -23.6700   21.4273 O   0  0  0  0  0  0
  -27.7497  -18.7145   20.9600 S   0  0  0  0  0  0
  -31.4736  -12.5819   19.1957 H   0  0  0  0  0  0
  -30.3756  -11.4854   20.0020 H   0  0  0  0  0  0
  -29.8219  -11.7402   17.5373 H   0  0  0  0  0  0
  -29.6144  -13.4572   17.7571 H   0  0  0  0  0  0
  -27.9362  -11.2498   18.9665 H   0  0  0  0  0  0
  -27.3892  -12.4390   17.8180 H   0  0  0  0  0  0
  -27.6266  -14.2324   19.4354 H   0  0  0  0  0  0
  -28.7040  -12.2072   21.4611 H   0  0  0  0  0  0
  -28.3836  -13.8909   21.7753 H   0  0  0  0  0  0
  -25.2787   -9.5716   22.4735 H   0  0  0  0  0  0
  -24.0067   -7.4648   22.7453 H   0  0  0  0  0  0
  -21.0891   -8.8805   19.8918 H   0  0  0  0  0  0
  -22.3747  -10.9707   19.6216 H   0  0  0  0  0  0
  -21.1963   -7.6191   23.9763 H   0  0  0  0  0  0
  -21.1477   -6.0535   25.9084 H   0  0  0  0  0  0
  -22.0579   -2.7665   23.2809 H   0  0  0  0  0  0
  -22.4143  -11.9871   22.4815 H   0  0  0  0  0  0
  -21.1105  -13.1226   22.2644 H   0  0  0  0  0  0
  -24.6650  -15.8460   20.5648 H   0  0  0  0  0  0
  -26.2727  -15.6368   20.1017 H   0  0  0  0  0  0
  -26.7215  -32.5303   23.1008 H   0  0  0  0  0  0
  -24.9970  -33.9610   25.0236 H   0  0  0  0  0  0
  -22.7238  -31.3167   21.3823 H   0  0  0  0  0  0
  -23.3719  -35.9694   23.3277 H   0  0  0  0  0  0
  -24.3647  -36.8939   22.2069 H   0  0  0  0  0  0
  -23.7404  -37.6501   23.6707 H   0  0  0  0  0  0
  -26.1514  -31.5264   20.6339 H   0  0  0  0  0  0
  -26.8409  -30.7706   22.0432 H   0  0  0  0  0  0
  -28.1233  -28.8987   21.1598 H   0  0  0  0  0  0
  -25.8439  -25.8807   19.0688 H   0  0  0  0  0  0
  -23.9236  -27.2941   19.0562 H   0  0  0  0  0  0
  -23.7803  -30.6001   19.3948 H   0  0  0  0  0  0
  -22.7560  -29.2690   19.8349 H   0  0  0  0  0  0
  -25.1343  -36.1771   25.0781 H   0  0  0  0  0  0
  -21.0039  -28.3432   24.1273 H   0  0  0  0  0  0
  -20.5454  -26.2457   23.3628 H   0  0  0  0  0  0
  -21.6670  -26.7387   22.1315 H   0  0  0  0  0  0
  -19.6713  -27.3025   20.6583 H   0  0  0  0  0  0
  -19.6976  -25.6221   21.1292 H   0  0  0  0  0  0
  -17.4177  -26.6518   21.4148 H   0  0  0  0  0  0
  -18.0597  -26.0103   22.9133 H   0  0  0  0  0  0
  -19.7930  -30.7282   24.2327 H   0  0  0  0  0  0
  -17.5037  -31.6347   24.5029 H   0  0  0  0  0  0
  -15.5373  -30.3051   23.7592 H   0  0  0  0  0  0
  -15.8676  -28.0746   22.7291 H   0  0  0  0  0  0
  -24.5899  -30.7140   25.7834 H   0  0  0  0  0  0
  -24.9030  -32.3009   26.4837 H   0  0  0  0  0  0
  -25.8103  -30.8998   27.0289 H   0  0  0  0  0  0
  -26.3001  -29.6683   24.1262 H   0  0  0  0  0  0
  -27.3884  -29.7173   25.4896 H   0  0  0  0  0  0
  -27.8946  -30.4085   23.9693 H   0  0  0  0  0  0
  -27.2536  -33.3607   26.2092 H   0  0  0  0  0  0
  -28.3857  -32.6986   25.0404 H   0  0  0  0  0  0
  -28.0710  -31.8536   26.5487 H   0  0  0  0  0  0
  -28.2531  -38.0106   24.7402 H   0  0  0  0  0  0
  -28.1081  -36.2605   24.6343 H   0  0  0  0  0  0
  -27.2272  -37.1535   25.8848 H   0  0  0  0  0  0
  -20.9270  -29.8997   21.6881 H   0  0  0  0  0  0
  -26.0112  -38.2738   24.1350 H   0  0  0  0  0  0
  -30.7744  -20.2231   19.7100 H   0  0  0  0  0  0
  -26.6472  -20.9530   20.8984 H   0  0  0  0  0  0
  -27.0697  -22.7350   17.8342 H   0  0  0  0  0  0
  -26.0852  -23.9695   17.0442 H   0  0  0  0  0  0
  -26.0201  -23.7718   18.7769 H   0  0  0  0  0  0
  -31.1187  -17.5082   21.1800 H   0  0  0  0  0  0
  -30.8763  -17.3465   19.4865 H   0  0  0  0  0  0
  -27.5640  -25.7403   17.6327 H   0  0  0  0  0  0
  -28.6535  -24.4324   17.3960 H   0  0  0  0  0  0
  -29.5298  -24.9915   19.2908 H   0  0  0  0  0  0
  -29.6047  -22.6227   19.1946 H   0  0  0  0  0  0
  -28.8950  -15.7689   20.9063 H   0  0  0  0  0  0
  1 25  1  0  0  0
  1 30  2  0  0  0
  1 81  1  0  0  0
  2  3  1  0  0  0
  2 25  1  0  0  0
  2 84  1  0  0  0
  2 85  1  0  0  0
  3  4  1  0  0  0
  3 86  1  0  0  0
  3 87  1  0  0  0
  4  5  1  0  0  0
  4 88  1  0  0  0
  4 89  1  0  0  0
  5  6  1  0  0  0
  5 26  1  0  0  0
  5 90  1  0  0  0
  6 25  1  0  0  0
  6 91  1  0  0  0
  6 92  1  0  0  0
  7  8  2  0  0  0
  7 26  1  0  0  0
  7 29  1  0  0  0
  8  9  1  0  0  0
  8 22  1  0  0  0
  9 10  1  0  0  0
  9 27  2  0  0  0
 10 11  2  0  0  0
 10 15  1  0  0  0
 11 12  1  0  0  0
 11 93  1  0  0  0
 12 13  2  0  0  0
 12 94  1  0  0  0
 13 14  1  0  0  0
 13 31  1  0  0  0
 14 15  2  0  0  0
 14 95  1  0  0  0
 15 96  1  0  0  0
 16 17  2  0  0  0
 16 21  1  0  0  0
 16 31  1  0  0  0
 17 18  1  0  0  0
 17 97  1  0  0  0
 18 19  2  0  0  0
 18 98  1  0  0  0
 19 20  1  0  0  0
 19 24  1  0  0  0
 20 21  2  0  0  0
 20 99  1  0  0  0
 21 23  1  0  0  0
 22 28  1  0  0  0
 22 32  2  0  0  0
 26 27  1  0  0  0
 28100  1  0  0  0
 28101  1  0  0  0
 29102  1  0  0  0
 29103  1  0  0  0
 33 34  1  0  0  0
 33 66  1  0  0  0
 33 70  2  0  0  0
 34 36  1  0  0  0
 34 59  1  0  0  0
 34104  1  0  0  0
 35 44  2  0  0  0
 35 45  1  0  0  0
 35 68  1  0  0  0
 36 56  1  0  0  0
 36105  1  0  0  0
 37 39  1  0  0  0
 37 47  1  0  0  0
 37 66  1  0  0  0
 37106  1  0  0  0
 38 43  2  0  0  0
 38 46  1  0  0  0
 38 47  1  0  0  0
 39 64  1  0  0  0
 39 67  2  0  0  0
 40 52  1  0  0  0
 40 53  2  0  0  0
 40 58  1  0  0  0
 41107  1  0  0  0
 41108  1  0  0  0
 41109  1  0  0  0
 41 48  1  0  0  0
 42 43  1  0  0  0
 42 66  1  0  0  0
 42110  1  0  0  0
 42111  1  0  0  0
 43 44  1  0  0  0
 44112  1  0  0  0
 45 46  2  0  0  0
 45113  1  0  0  0
 46114  1  0  0  0
 47115  1  0  0  0
 47116  1  0  0  0
 48 56  1  0  0  0
 48 65  1  0  0  0
 48117  1  0  0  0
 49 50  1  0  0  0
 49 53  1  0  0  0
 49 64  1  0  0  0
 49118  1  0  0  0
 50 51  1  0  0  0
 50119  1  0  0  0
 50120  1  0  0  0
 51 52  1  0  0  0
 51121  1  0  0  0
 51122  1  0  0  0
 52123  1  0  0  0
 52124  1  0  0  0
 53 54  1  0  0  0
 54 55  2  0  0  0
 54125  1  0  0  0
 55 57  1  0  0  0
 55126  1  0  0  0
 56 69  2  0  0  0
 57 58  2  0  0  0
 57127  1  0  0  0
 58128  1  0  0  0
 59 60  1  0  0  0
 59 61  1  0  0  0
 59 62  1  0  0  0
 60129  1  0  0  0
 60130  1  0  0  0
 60131  1  0  0  0
 61132  1  0  0  0
 61133  1  0  0  0
 61134  1  0  0  0
 62135  1  0  0  0
 62136  1  0  0  0
 62137  1  0  0  0
 63 65  1  0  0  0
 63138  1  0  0  0
 63139  1  0  0  0
 63140  1  0  0  0
 64141  1  0  0  0
 65142  1  0  0  0
 68 79  1  0  0  0
 71 73  1  0  0  0
 71 74  2  0  0  0
 71143  1  0  0  0
 72 73  2  0  0  0
 72 83  1  0  0  0
 72144  1  0  0  0
 73 80  1  0  0  0
 74 77  1  0  0  0
 74 83  1  0  0  0
 75 79  1  0  0  0
 75 80  1  0  0  0
 75 82  2  0  0  0
 76 78  1  0  0  0
 76145  1  0  0  0
 76146  1  0  0  0
 76147  1  0  0  0
 77 81  1  0  0  0
 77148  1  0  0  0
 77149  1  0  0  0
 78150  1  0  0  0
 78151  1  0  0  0
 78 79  1  0  0  0
 79152  1  0  0  0
 80153  1  0  0  0
 81154  1  0  0  0
M  ISO  4   1 100  68 101  79 101  81 100
M  END
> <chiral flag>
0

> <version>
0

> <s_m_source_file>
/data/baiqing/PycharmProjects/Reinvent-master-3.2/result/LINK_invent/BTK/process_docking_weight1_custom_product_contain_oxygen_bond_distance_aromatic_linkinvent_7_9_3/rearranged_h_0199.sdf

> <i_m_source_file_index>
78

> <r_mmod_Potential_Energy-OPLS-2005>
172.705780029297

> <r_mmod_Stretch_Energy-OPLS-2005>
135.321716308594

> <r_mmod_Bend_Energy-OPLS-2005>
214.744720458984

> <r_mmod_Torsional_Energy-OPLS-2005>
225.200576782227

> <r_mmod_Improper_Torsional_Energy-OPLS-2005>
5.29964303970337

> <r_mmod_Van_der_Waal_Energy-OPLS-2005>
120.793975830078

> <r_mmod_Electrostatic_Energy-OPLS-2005>
-381.249053955078

> <r_mmod_Solvation_Energy-OPLS-2005>
-240.31657409668

> <b_mmod_Minimization_Converged-OPLS-2005>
0

> <r_mmod_RMS_Derivative-OPLS-2005>
9.4821310043335

$$$$
78
                    3D
 Structure written by MMmdl.
151159  0  0  1  0            999 V2000
  -30.5350  -14.8018   20.4600 C   0  0  0  0  0  0
  -30.4513  -12.4938   19.4689 C   0  0  0  0  0  0
  -29.5164  -12.5166   18.2362 C   0  0  0  0  0  0
  -28.0429  -12.3243   18.6518 C   0  0  0  0  0  0
  -27.6418  -13.2216   19.8491 C   0  0  2  0  0  0
  -28.6859  -13.1454   20.9840 C   0  0  0  0  0  0
  -25.2507  -13.8142   20.5640 C   0  0  0  0  0  0
  -24.1818  -13.0426   20.9257 C   0  0  0  0  0  0
  -24.6401  -11.6893   20.8788 C   0  0  0  0  0  0
  -23.9080  -10.4280   21.0438 C   0  0  0  0  0  0
  -24.3613   -9.4181   21.9206 C   0  0  0  0  0  0
  -23.6276   -8.2224   22.0765 C   0  0  0  0  0  0
  -22.4259   -8.0267   21.3549 C   0  0  0  0  0  0
  -21.9911   -9.0253   20.4654 C   0  0  0  0  0  0
  -22.7255  -10.2133   20.3075 C   0  0  0  0  0  0
  -21.6847   -6.0719   22.5276 C   0  0  0  0  0  0
  -21.4014   -6.5628   23.8203 C   0  0  0  0  0  0
  -21.3651   -5.6788   24.9163 C   0  0  0  0  0  0
  -21.6045   -4.3050   24.7218 C   0  0  0  0  0  0
  -21.8816   -3.8134   23.4340 C   0  0  0  0  0  0
  -21.9187   -4.6951   22.3397 C   0  0  0  0  0  0
  -22.7833  -13.5216   21.1879 C   0  0  0  0  0  0
  -22.1652   -4.2135   21.0975 F   0  0  0  0  0  0
  -21.5634   -3.4533   25.7733 F   0  0  0  0  0  0
  -29.9795  -13.5390   20.4071 N   0  0  0  0  0  0
  -26.2920  -12.9330   20.3220 N   0  0  0  0  0  0
  -25.9320  -11.6489   20.5748 N   0  0  0  0  0  0
  -22.0457  -12.8222   22.0414 N   0  0  0  0  0  0
  -25.4178  -15.1822   20.3751 N   0  0  0  0  0  0
  -31.7277  -14.9550   20.1733 O   0  0  0  0  0  0
  -21.6623   -6.8860   21.4236 O   0  0  0  0  0  0
  -22.3566  -14.5534   20.6707 O   0  0  0  0  0  0
  -24.6350  -31.8502   23.1925 C   0  0  0  0  0  0
  -25.9158  -32.4729   23.8273 C   0  0  1  0  0  0
  -27.2473  -27.2422   20.1197 C   0  0  0  0  0  0
  -25.5945  -33.8534   24.2216 N   0  0  0  0  0  0
  -23.4343  -30.4659   21.5387 C   0  0  2  0  0  0
  -24.8828  -28.8914   20.1234 C   0  0  0  0  0  0
  -22.7524  -29.4574   22.4935 C   0  0  0  0  0  0
  -18.0304  -28.1383   22.8445 C   0  0  0  0  0  0
  -24.1501  -36.7265   23.2642 C   0  0  0  0  0  0
  -25.9806  -30.7537   21.3710 C   0  0  0  0  0  0
  -26.0553  -29.3688   20.7194 C   0  0  0  0  0  0
  -27.2410  -28.5618   20.6963 C   0  0  0  0  0  0
  -26.0456  -26.8199   19.5202 C   0  0  0  0  0  0
  -24.8820  -27.6221   19.5179 C   0  0  0  0  0  0
  -23.6554  -29.7814   20.1620 C   0  0  0  0  0  0
  -25.4104  -36.3037   24.0329 C   0  0  1  0  0  0
  -20.5909  -28.3681   23.1269 C   0  0  2  0  0  0
  -20.6804  -26.9396   22.5411 C   0  0  0  0  0  0
  -19.5787  -26.6367   21.5200 C   0  0  0  0  0  0
  -18.1951  -26.7909   22.1597 C   0  0  0  0  0  0
  -19.1569  -28.8845   23.2838 C   0  0  0  0  0  0
  -18.9475  -30.1431   23.8875 C   0  0  0  0  0  0
  -17.6492  -30.6577   24.0537 C   0  0  0  0  0  0
  -25.9058  -34.9429   23.5077 C   0  0  0  0  0  0
  -16.5379  -29.9053   23.6358 C   0  0  0  0  0  0
  -16.7295  -28.6498   23.0311 C   0  0  0  0  0  0
  -26.4510  -31.6558   25.0683 C   0  0  0  0  0  0
  -25.3725  -31.3737   26.1391 C   0  0  0  0  0  0
  -27.0359  -30.2978   24.6160 C   0  0  0  0  0  0
  -27.6051  -32.4291   25.7468 C   0  0  0  0  0  0
  -27.5567  -37.1769   24.8469 C   0  0  0  0  0  0
  -21.4232  -29.3037   22.3670 N   0  0  0  0  0  0
  -26.4272  -37.3733   23.9418 N   0  0  0  0  0  0
  -24.7040  -31.0401   22.0931 N   0  0  0  0  0  0
  -23.4211  -28.8128   23.3070 O   0  0  0  0  0  0
  -28.3895  -26.4093   20.0107 O   0  0  0  0  0  0
  -26.5613  -34.8917   22.4645 O   0  0  0  0  0  0
  -23.5502  -32.1342   23.7208 O   0  0  0  0  0  0
  -29.4397  -19.5377   20.3493 C   0  0  0  0  0  0
  -28.8572  -18.2655   20.3029 C   0  0  0  0  0  0
  -29.1294  -22.2498   20.6435 C   0  0  0  0  0  0
  -28.5224  -25.0355   20.6350 C   0  0  0  0  0  0
  -28.5879  -23.5887   19.8562 C   0  0  1  0  0  0
  -30.7955  -19.2842   20.6318 N   0  0  0  0  0  0
  -31.0491  -17.9809   20.7103 N   0  0  0  0  0  0
  -29.8799  -17.3112   20.5271 N   0  0  0  0  0  0
  -27.5317  -17.8951   20.0918 N   0  0  0  0  0  0
  -28.8139  -20.8518   20.1208 N   0  0  0  0  0  0
  -29.6369  -15.8546   20.6219 N   0  0  0  0  0  0
  -29.5046  -23.7267   18.7845 O   0  0  0  0  0  0
  -31.4848  -12.6613   19.1583 H   0  0  0  0  0  0
  -30.4358  -11.5149   19.9509 H   0  0  0  0  0  0
  -29.8077  -11.7401   17.5260 H   0  0  0  0  0  0
  -29.6266  -13.4672   17.7083 H   0  0  0  0  0  0
  -27.9114  -11.2758   18.9213 H   0  0  0  0  0  0
  -27.3819  -12.5070   17.8035 H   0  0  0  0  0  0
  -27.6357  -14.2423   19.4652 H   0  0  0  0  0  0
  -28.7440  -12.1367   21.3931 H   0  0  0  0  0  0
  -28.4090  -13.7957   21.8158 H   0  0  0  0  0  0
  -25.2752   -9.5631   22.4790 H   0  0  0  0  0  0
  -23.9969   -7.4596   22.7484 H   0  0  0  0  0  0
  -21.0839   -8.8771   19.8946 H   0  0  0  0  0  0
  -22.3716  -10.9672   19.6180 H   0  0  0  0  0  0
  -21.2017   -7.6136   23.9705 H   0  0  0  0  0  0
  -21.1475   -6.0512   25.9067 H   0  0  0  0  0  0
  -22.0609   -2.7597   23.2845 H   0  0  0  0  0  0
  -22.4035  -11.9864   22.4796 H   0  0  0  0  0  0
  -21.1074  -13.1262   22.2610 H   0  0  0  0  0  0
  -24.5606  -15.7257   20.3720 H   0  0  0  0  0  0
  -26.0147  -15.4429   19.6025 H   0  0  0  0  0  0
  -26.7221  -32.5337   23.1005 H   0  0  0  0  0  0
  -25.0162  -33.9686   25.0391 H   0  0  0  0  0  0
  -22.7345  -31.2884   21.3791 H   0  0  0  0  0  0
  -23.3767  -35.9604   23.3323 H   0  0  0  0  0  0
  -24.3616  -36.8873   22.2067 H   0  0  0  0  0  0
  -23.7283  -37.6483   23.6660 H   0  0  0  0  0  0
  -26.1143  -31.5117   20.5960 H   0  0  0  0  0  0
  -26.8610  -30.8099   22.0014 H   0  0  0  0  0  0
  -28.1496  -28.9430   21.1380 H   0  0  0  0  0  0
  -26.0116  -25.8558   19.0325 H   0  0  0  0  0  0
  -23.9846  -27.2507   19.0465 H   0  0  0  0  0  0
  -23.7900  -30.5499   19.4007 H   0  0  0  0  0  0
  -22.7742  -29.2161   19.8545 H   0  0  0  0  0  0
  -25.1308  -36.1882   25.0825 H   0  0  0  0  0  0
  -20.9964  -28.3249   24.1402 H   0  0  0  0  0  0
  -20.5717  -26.2280   23.3610 H   0  0  0  0  0  0
  -21.6646  -26.7434   22.1175 H   0  0  0  0  0  0
  -19.6974  -25.6276   21.1221 H   0  0  0  0  0  0
  -19.6735  -27.3174   20.6727 H   0  0  0  0  0  0
  -17.4220  -26.6661   21.4002 H   0  0  0  0  0  0
  -18.0355  -26.0065   22.9008 H   0  0  0  0  0  0
  -19.7967  -30.7236   24.2229 H   0  0  0  0  0  0
  -17.5052  -31.6254   24.5113 H   0  0  0  0  0  0
  -15.5363  -30.2937   23.7693 H   0  0  0  0  0  0
  -15.8696  -28.0809   22.7009 H   0  0  0  0  0  0
  -24.5904  -30.7090   25.7708 H   0  0  0  0  0  0
  -24.8909  -32.2934   26.4744 H   0  0  0  0  0  0
  -25.8007  -30.8958   27.0208 H   0  0  0  0  0  0
  -26.2947  -29.6716   24.1189 H   0  0  0  0  0  0
  -27.4091  -29.7251   25.4661 H   0  0  0  0  0  0
  -27.8798  -30.4294   23.9373 H   0  0  0  0  0  0
  -27.2673  -33.3609   26.1986 H   0  0  0  0  0  0
  -28.3878  -32.6791   25.0305 H   0  0  0  0  0  0
  -28.0682  -31.8455   26.5423 H   0  0  0  0  0  0
  -28.2542  -38.0094   24.7463 H   0  0  0  0  0  0
  -28.1098  -36.2616   24.6330 H   0  0  0  0  0  0
  -27.2302  -37.1446   25.8875 H   0  0  0  0  0  0
  -20.9452  -29.8731   21.6814 H   0  0  0  0  0  0
  -26.0177  -38.2822   24.1381 H   0  0  0  0  0  0
  -28.6927  -22.2768   21.6424 H   0  0  0  0  0  0
  -30.2038  -22.3214   20.8108 H   0  0  0  0  0  0
  -29.4661  -25.1079   21.1774 H   0  0  0  0  0  0
  -27.7704  -24.9611   21.4213 H   0  0  0  0  0  0
  -27.5991  -23.3847   19.4427 H   0  0  0  0  0  0
  -26.8071  -18.5974   19.9917 H   0  0  0  0  0  0
  -27.1440  -16.9725   20.2356 H   0  0  0  0  0  0
  -27.8497  -20.7596   19.8222 H   0  0  0  0  0  0
  -28.6540  -15.6728   20.7186 H   0  0  0  0  0  0
  -29.1407  -24.3685   18.1786 H   0  0  0  0  0  0
  1 25  1  0  0  0
  1 30  2  0  0  0
  1 81  1  0  0  0
  2  3  1  0  0  0
  2 25  1  0  0  0
  2 83  1  0  0  0
  2 84  1  0  0  0
  3  4  1  0  0  0
  3 85  1  0  0  0
  3 86  1  0  0  0
  4  5  1  0  0  0
  4 87  1  0  0  0
  4 88  1  0  0  0
  5  6  1  0  0  0
  5 26  1  0  0  0
  5 89  1  0  0  0
  6 25  1  0  0  0
  6 90  1  0  0  0
  6 91  1  0  0  0
  7  8  2  0  0  0
  7 26  1  0  0  0
  7 29  1  0  0  0
  8  9  1  0  0  0
  8 22  1  0  0  0
  9 10  1  0  0  0
  9 27  2  0  0  0
 10 11  2  0  0  0
 10 15  1  0  0  0
 11 12  1  0  0  0
 11 92  1  0  0  0
 12 13  2  0  0  0
 12 93  1  0  0  0
 13 14  1  0  0  0
 13 31  1  0  0  0
 14 15  2  0  0  0
 14 94  1  0  0  0
 15 95  1  0  0  0
 16 17  2  0  0  0
 16 21  1  0  0  0
 16 31  1  0  0  0
 17 18  1  0  0  0
 17 96  1  0  0  0
 18 19  2  0  0  0
 18 97  1  0  0  0
 19 20  1  0  0  0
 19 24  1  0  0  0
 20 21  2  0  0  0
 20 98  1  0  0  0
 21 23  1  0  0  0
 22 28  1  0  0  0
 22 32  2  0  0  0
 26 27  1  0  0  0
 28 99  1  0  0  0
 28100  1  0  0  0
 29101  1  0  0  0
 29102  1  0  0  0
 33 34  1  0  0  0
 33 66  1  0  0  0
 33 70  2  0  0  0
 34 36  1  0  0  0
 34 59  1  0  0  0
 34103  1  0  0  0
 35 44  2  0  0  0
 35 45  1  0  0  0
 35 68  1  0  0  0
 36 56  1  0  0  0
 36104  1  0  0  0
 37 39  1  0  0  0
 37 47  1  0  0  0
 37 66  1  0  0  0
 37105  1  0  0  0
 38 43  2  0  0  0
 38 46  1  0  0  0
 38 47  1  0  0  0
 39 64  1  0  0  0
 39 67  2  0  0  0
 40 52  1  0  0  0
 40 53  2  0  0  0
 40 58  1  0  0  0
 41106  1  0  0  0
 41107  1  0  0  0
 41108  1  0  0  0
 41 48  1  0  0  0
 42 43  1  0  0  0
 42 66  1  0  0  0
 42109  1  0  0  0
 42110  1  0  0  0
 43 44  1  0  0  0
 44111  1  0  0  0
 45 46  2  0  0  0
 45112  1  0  0  0
 46113  1  0  0  0
 47114  1  0  0  0
 47115  1  0  0  0
 48 56  1  0  0  0
 48 65  1  0  0  0
 48116  1  0  0  0
 49 50  1  0  0  0
 49 53  1  0  0  0
 49 64  1  0  0  0
 49117  1  0  0  0
 50 51  1  0  0  0
 50118  1  0  0  0
 50119  1  0  0  0
 51 52  1  0  0  0
 51120  1  0  0  0
 51121  1  0  0  0
 52122  1  0  0  0
 52123  1  0  0  0
 53 54  1  0  0  0
 54 55  2  0  0  0
 54124  1  0  0  0
 55 57  1  0  0  0
 55125  1  0  0  0
 56 69  2  0  0  0
 57 58  2  0  0  0
 57126  1  0  0  0
 58127  1  0  0  0
 59 60  1  0  0  0
 59 61  1  0  0  0
 59 62  1  0  0  0
 60128  1  0  0  0
 60129  1  0  0  0
 60130  1  0  0  0
 61131  1  0  0  0
 61132  1  0  0  0
 61133  1  0  0  0
 62134  1  0  0  0
 62135  1  0  0  0
 62136  1  0  0  0
 63 65  1  0  0  0
 63137  1  0  0  0
 63138  1  0  0  0
 63139  1  0  0  0
 64140  1  0  0  0
 65141  1  0  0  0
 68 74  1  0  0  0
 71 72  2  0  0  0
 71 76  1  0  0  0
 71 80  1  0  0  0
 72 78  1  0  0  0
 72 79  1  0  0  0
 73 75  1  0  0  0
 73 80  1  0  0  0
 73142  1  0  0  0
 73143  1  0  0  0
 74 75  1  0  0  0
 74144  1  0  0  0
 74145  1  0  0  0
 75 82  1  0  0  0
 75146  1  0  0  0
 76 77  2  0  0  0
 77 78  1  0  0  0
 78 81  1  0  0  0
 79147  1  0  0  0
 79148  1  0  0  0
 80149  1  0  0  0
 81150  1  0  0  0
 82151  1  0  0  0
M  ISO  4   1 100  68 101  74 101  81 100
M  END
> <chiral flag>
0

> <version>
0

> <s_m_source_file>
/data/baiqing/PycharmProjects/Reinvent-master-3.2/result/LINK_invent/BTK/process_docking_weight1_custom_product_contain_oxygen_bond_distance_aromatic_linkinvent_7_9_3/rearranged_h_0199.sdf

> <i_m_source_file_index>
79

> <r_mmod_Potential_Energy-OPLS-2005>
45.2071952819824

> <r_mmod_Stretch_Energy-OPLS-2005>
138.160705566406

> <r_mmod_Bend_Energy-OPLS-2005>
220.985061645508

> <r_mmod_Torsional_Energy-OPLS-2005>
271.184600830078

> <r_mmod_Improper_Torsional_Energy-OPLS-2005>
12.3591079711914

> <r_mmod_Van_der_Waal_Energy-OPLS-2005>
107.904647827148

> <r_mmod_Electrostatic_Energy-OPLS-2005>
-534.638977050781

> <r_mmod_Solvation_Energy-OPLS-2005>
-270.452606201172

> <b_mmod_Minimization_Converged-OPLS-2005>
0

> <r_mmod_RMS_Derivative-OPLS-2005>
4.16753578186035

$$$$
79
                    3D
 Structure written by MMmdl.
157165  0  0  1  0            999 V2000
  -30.7022  -14.4330   20.6223 C   0  0  0  0  0  0
  -30.4306  -12.2998   19.4090 C   0  0  0  0  0  0
  -29.4958  -12.5246   18.2022 C   0  0  0  0  0  0
  -28.0171  -12.3804   18.6135 C   0  0  0  0  0  0
  -27.6692  -13.2011   19.8830 C   0  0  2  0  0  0
  -28.7079  -12.9365   20.9967 C   0  0  0  0  0  0
  -25.2622  -13.8155   20.5679 C   0  0  0  0  0  0
  -24.1858  -13.0443   20.9161 C   0  0  0  0  0  0
  -24.6402  -11.6908   20.8730 C   0  0  0  0  0  0
  -23.9067  -10.4298   21.0408 C   0  0  0  0  0  0
  -24.3615   -9.4208   21.9183 C   0  0  0  0  0  0
  -23.6285   -8.2246   22.0753 C   0  0  0  0  0  0
  -22.4267   -8.0291   21.3547 C   0  0  0  0  0  0
  -21.9907   -9.0269   20.4647 C   0  0  0  0  0  0
  -22.7243  -10.2142   20.3054 C   0  0  0  0  0  0
  -21.6849   -6.0742   22.5282 C   0  0  0  0  0  0
  -21.4018   -6.5641   23.8222 C   0  0  0  0  0  0
  -21.3657   -5.6791   24.9178 C   0  0  0  0  0  0
  -21.6038   -4.3052   24.7224 C   0  0  0  0  0  0
  -21.8820   -3.8150   23.4346 C   0  0  0  0  0  0
  -21.9190   -4.6971   22.3404 C   0  0  0  0  0  0
  -22.7880  -13.5249   21.1827 C   0  0  0  0  0  0
  -22.1658   -4.2159   21.0980 F   0  0  0  0  0  0
  -21.5623   -3.4535   25.7734 F   0  0  0  0  0  0
  -30.0507  -13.2487   20.4666 N   0  0  0  0  0  0
  -26.3060  -12.9314   20.3385 N   0  0  0  0  0  0
  -25.9323  -11.6480   20.5756 N   0  0  0  0  0  0
  -22.0506  -12.8254   22.0379 N   0  0  0  0  0  0
  -25.4365  -15.1879   20.4123 N   0  0  0  0  0  0
  -31.7505  -14.7140   20.0309 O   0  0  0  0  0  0
  -21.6629   -6.8889   21.4248 O   0  0  0  0  0  0
  -22.3568  -14.5556   20.6675 O   0  0  0  0  0  0
  -24.6150  -31.8683   23.2094 C   0  0  0  0  0  0
  -25.9046  -32.4823   23.8387 C   0  0  1  0  0  0
  -27.2363  -27.4456   20.0930 C   0  0  0  0  0  0
  -25.5903  -33.8618   24.2327 N   0  0  0  0  0  0
  -23.4030  -30.4918   21.5489 C   0  0  2  0  0  0
  -24.8506  -28.9575   20.1127 C   0  0  0  0  0  0
  -22.7416  -29.4673   22.4988 C   0  0  0  0  0  0
  -18.0292  -28.1363   22.8481 C   0  0  0  0  0  0
  -24.1485  -36.7317   23.2637 C   0  0  0  0  0  0
  -25.9305  -30.8373   21.3606 C   0  0  0  0  0  0
  -26.0104  -29.4724   20.7072 C   0  0  0  0  0  0
  -27.2099  -28.7250   20.6912 C   0  0  0  0  0  0
  -26.0641  -26.9427   19.4914 C   0  0  0  0  0  0
  -24.8718  -27.6915   19.5002 C   0  0  0  0  0  0
  -23.6110  -29.8215   20.1643 C   0  0  0  0  0  0
  -25.4104  -36.3111   24.0338 C   0  0  1  0  0  0
  -20.5877  -28.3673   23.1323 C   0  0  2  0  0  0
  -20.6791  -26.9409   22.5416 C   0  0  0  0  0  0
  -19.5783  -26.6398   21.5198 C   0  0  0  0  0  0
  -18.1952  -26.7920   22.1589 C   0  0  0  0  0  0
  -19.1530  -28.8831   23.2902 C   0  0  0  0  0  0
  -18.9450  -30.1433   23.8916 C   0  0  0  0  0  0
  -17.6453  -30.6569   24.0556 C   0  0  0  0  0  0
  -25.9034  -34.9475   23.5130 C   0  0  0  0  0  0
  -16.5350  -29.9070   23.6312 C   0  0  0  0  0  0
  -16.7279  -28.6484   23.0332 C   0  0  0  0  0  0
  -26.4473  -31.6602   25.0716 C   0  0  0  0  0  0
  -25.3741  -31.3713   26.1470 C   0  0  0  0  0  0
  -27.0302  -30.3043   24.6088 C   0  0  0  0  0  0
  -27.6053  -32.4317   25.7479 C   0  0  0  0  0  0
  -27.5577  -37.1812   24.8464 C   0  0  0  0  0  0
  -21.4143  -29.3052   22.3736 N   0  0  0  0  0  0
  -26.4294  -37.3793   23.9407 N   0  0  0  0  0  0
  -24.6675  -31.0795   22.0984 N   0  0  0  0  0  0
  -23.4187  -28.8214   23.3026 O   0  0  0  0  0  0
  -28.3826  -26.6823   20.1095 O   0  0  0  0  0  0
  -26.5592  -34.8930   22.4690 O   0  0  0  0  0  0
  -23.5349  -32.1429   23.7502 O   0  0  0  0  0  0
  -30.1101  -17.3819   20.1669 C   0  0  0  0  0  0
  -30.0058  -16.6915   21.4075 C   0  0  0  0  0  0
  -29.4773  -19.3875   21.1630 C   0  0  0  0  0  0
  -29.4099  -18.6990   22.4055 C   0  0  0  0  0  0
  -28.6584  -21.5760   20.2454 C   0  0  0  0  0  0
  -28.5243  -24.1780   20.0238 C   0  0  0  0  0  0
  -28.2591  -25.4590   20.8562 C   0  0  0  0  0  0
  -27.9777  -22.8834   20.7065 C   0  0  1  0  0  0
  -29.8443  -18.7102   20.0432 N   0  0  0  0  0  0
  -29.6647  -17.3796   22.5253 N   0  0  0  0  0  0
  -29.0388  -19.3339   23.5880 N   0  0  0  0  0  0
  -29.1227  -20.7649   21.2150 N   0  0  0  0  0  0
  -30.1257  -15.2770   21.4910 N   0  0  0  0  0  0
  -26.5297  -22.7307   20.4675 N   0  3  0  0  0  0
  -28.6988  -21.3093   19.0410 O   0  0  0  0  0  0
  -31.4745  -12.4110   19.1082 H   0  0  0  0  0  0
  -30.3366  -11.2770   19.7766 H   0  0  0  0  0  0
  -29.7315  -11.8180   17.4049 H   0  0  0  0  0  0
  -29.6657  -13.5196   17.7875 H   0  0  0  0  0  0
  -27.8235  -11.3223   18.7942 H   0  0  0  0  0  0
  -27.3665  -12.6724   17.7881 H   0  0  0  0  0  0
  -27.7282  -14.2559   19.6125 H   0  0  0  0  0  0
  -28.6763  -11.8876   21.2949 H   0  0  0  0  0  0
  -28.4507  -13.4921   21.8991 H   0  0  0  0  0  0
  -25.2763   -9.5677   22.4755 H   0  0  0  0  0  0
  -23.9993   -7.4638   22.7471 H   0  0  0  0  0  0
  -21.0835   -8.8801   19.8955 H   0  0  0  0  0  0
  -22.3716  -10.9684   19.6162 H   0  0  0  0  0  0
  -21.2017   -7.6149   23.9732 H   0  0  0  0  0  0
  -21.1469   -6.0513   25.9083 H   0  0  0  0  0  0
  -22.0596   -2.7613   23.2840 H   0  0  0  0  0  0
  -22.4095  -11.9908   22.4778 H   0  0  0  0  0  0
  -21.1137  -13.1322   22.2574 H   0  0  0  0  0  0
  -24.6753  -15.8484   20.5263 H   0  0  0  0  0  0
  -26.2970  -15.6264   20.1105 H   0  0  0  0  0  0
  -26.7123  -32.5537   23.1159 H   0  0  0  0  0  0
  -25.0077  -33.9777   25.0486 H   0  0  0  0  0  0
  -22.6918  -31.3084   21.4086 H   0  0  0  0  0  0
  -23.3739  -35.9657   23.3313 H   0  0  0  0  0  0
  -24.3590  -36.8918   22.2051 H   0  0  0  0  0  0
  -23.7242  -37.6529   23.6642 H   0  0  0  0  0  0
  -26.0421  -31.6037   20.5925 H   0  0  0  0  0  0
  -26.8188  -30.8906   21.9784 H   0  0  0  0  0  0
  -28.1064  -29.1162   21.1527 H   0  0  0  0  0  0
  -26.0742  -25.9721   19.0166 H   0  0  0  0  0  0
  -23.9821  -27.2901   19.0340 H   0  0  0  0  0  0
  -23.7159  -30.5940   19.4021 H   0  0  0  0  0  0
  -22.7362  -29.2383   19.8707 H   0  0  0  0  0  0
  -25.1277  -36.1984   25.0830 H   0  0  0  0  0  0
  -20.9968  -28.3244   24.1439 H   0  0  0  0  0  0
  -20.5692  -26.2272   23.3602 H   0  0  0  0  0  0
  -21.6672  -26.7471   22.1220 H   0  0  0  0  0  0
  -19.6962  -25.6321   21.1198 H   0  0  0  0  0  0
  -19.6729  -27.3240   20.6746 H   0  0  0  0  0  0
  -17.4233  -26.6682   21.3977 H   0  0  0  0  0  0
  -18.0346  -26.0039   22.8966 H   0  0  0  0  0  0
  -19.7924  -30.7249   24.2300 H   0  0  0  0  0  0
  -17.5001  -31.6252   24.5148 H   0  0  0  0  0  0
  -15.5345  -30.2966   23.7614 H   0  0  0  0  0  0
  -15.8686  -28.0801   22.7029 H   0  0  0  0  0  0
  -24.5908  -30.7066   25.7810 H   0  0  0  0  0  0
  -24.8938  -32.2872   26.4923 H   0  0  0  0  0  0
  -25.8097  -30.8881   27.0223 H   0  0  0  0  0  0
  -26.2842  -29.6813   24.1141 H   0  0  0  0  0  0
  -27.4072  -29.7280   25.4547 H   0  0  0  0  0  0
  -27.8679  -30.4367   23.9237 H   0  0  0  0  0  0
  -27.2671  -33.3602   26.2093 H   0  0  0  0  0  0
  -28.3843  -32.6901   25.0293 H   0  0  0  0  0  0
  -28.0740  -31.8417   26.5367 H   0  0  0  0  0  0
  -28.2604  -38.0099   24.7503 H   0  0  0  0  0  0
  -28.1065  -36.2633   24.6296 H   0  0  0  0  0  0
  -27.2306  -37.1473   25.8872 H   0  0  0  0  0  0
  -20.9305  -29.8801   21.6979 H   0  0  0  0  0  0
  -26.0189  -38.2878   24.1390 H   0  0  0  0  0  0
  -30.3507  -16.8660   19.2487 H   0  0  0  0  0  0
  -29.6007  -24.0925   19.8660 H   0  0  0  0  0  0
  -28.0889  -24.2838   19.0295 H   0  0  0  0  0  0
  -28.9741  -25.4999   21.6789 H   0  0  0  0  0  0
  -27.2821  -25.3897   21.3395 H   0  0  0  0  0  0
  -28.1327  -22.9778   21.7827 H   0  0  0  0  0  0
  -28.4277  -20.1374   23.5396 H   0  0  0  0  0  0
  -28.8209  -18.7322   24.3734 H   0  0  0  0  0  0
  -29.0745  -21.1165   22.1599 H   0  0  0  0  0  0
  -29.4805  -14.8378   22.1285 H   0  0  0  0  0  0
  -26.3634  -22.6036   19.4840 H   0  0  0  0  0  0
  -25.9984  -23.5127   20.8023 H   0  0  0  0  0  0
  -26.2003  -21.9032   20.9322 H   0  0  0  0  0  0
  1 25  1  0  0  0
  1 30  2  0  0  0
  1 83  1  0  0  0
  2  3  1  0  0  0
  2 25  1  0  0  0
  2 86  1  0  0  0
  2 87  1  0  0  0
  3  4  1  0  0  0
  3 88  1  0  0  0
  3 89  1  0  0  0
  4  5  1  0  0  0
  4 90  1  0  0  0
  4 91  1  0  0  0
  5  6  1  0  0  0
  5 26  1  0  0  0
  5 92  1  0  0  0
  6 25  1  0  0  0
  6 93  1  0  0  0
  6 94  1  0  0  0
  7  8  2  0  0  0
  7 26  1  0  0  0
  7 29  1  0  0  0
  8  9  1  0  0  0
  8 22  1  0  0  0
  9 10  1  0  0  0
  9 27  2  0  0  0
 10 11  2  0  0  0
 10 15  1  0  0  0
 11 12  1  0  0  0
 11 95  1  0  0  0
 12 13  2  0  0  0
 12 96  1  0  0  0
 13 14  1  0  0  0
 13 31  1  0  0  0
 14 15  2  0  0  0
 14 97  1  0  0  0
 15 98  1  0  0  0
 16 17  2  0  0  0
 16 21  1  0  0  0
 16 31  1  0  0  0
 17 18  1  0  0  0
 17 99  1  0  0  0
 18 19  2  0  0  0
 18100  1  0  0  0
 19 20  1  0  0  0
 19 24  1  0  0  0
 20 21  2  0  0  0
 20101  1  0  0  0
 21 23  1  0  0  0
 22 28  1  0  0  0
 22 32  2  0  0  0
 26 27  1  0  0  0
 28102  1  0  0  0
 28103  1  0  0  0
 29104  1  0  0  0
 29105  1  0  0  0
 33 34  1  0  0  0
 33 66  1  0  0  0
 33 70  2  0  0  0
 34 36  1  0  0  0
 34 59  1  0  0  0
 34106  1  0  0  0
 35 44  2  0  0  0
 35 45  1  0  0  0
 35 68  1  0  0  0
 36 56  1  0  0  0
 36107  1  0  0  0
 37 39  1  0  0  0
 37 47  1  0  0  0
 37 66  1  0  0  0
 37108  1  0  0  0
 38 43  2  0  0  0
 38 46  1  0  0  0
 38 47  1  0  0  0
 39 64  1  0  0  0
 39 67  2  0  0  0
 40 52  1  0  0  0
 40 53  2  0  0  0
 40 58  1  0  0  0
 41109  1  0  0  0
 41110  1  0  0  0
 41111  1  0  0  0
 41 48  1  0  0  0
 42 43  1  0  0  0
 42 66  1  0  0  0
 42112  1  0  0  0
 42113  1  0  0  0
 43 44  1  0  0  0
 44114  1  0  0  0
 45 46  2  0  0  0
 45115  1  0  0  0
 46116  1  0  0  0
 47117  1  0  0  0
 47118  1  0  0  0
 48 56  1  0  0  0
 48 65  1  0  0  0
 48119  1  0  0  0
 49 50  1  0  0  0
 49 53  1  0  0  0
 49 64  1  0  0  0
 49120  1  0  0  0
 50 51  1  0  0  0
 50121  1  0  0  0
 50122  1  0  0  0
 51 52  1  0  0  0
 51123  1  0  0  0
 51124  1  0  0  0
 52125  1  0  0  0
 52126  1  0  0  0
 53 54  1  0  0  0
 54 55  2  0  0  0
 54127  1  0  0  0
 55 57  1  0  0  0
 55128  1  0  0  0
 56 69  2  0  0  0
 57 58  2  0  0  0
 57129  1  0  0  0
 58130  1  0  0  0
 59 60  1  0  0  0
 59 61  1  0  0  0
 59 62  1  0  0  0
 60131  1  0  0  0
 60132  1  0  0  0
 60133  1  0  0  0
 61134  1  0  0  0
 61135  1  0  0  0
 61136  1  0  0  0
 62137  1  0  0  0
 62138  1  0  0  0
 62139  1  0  0  0
 63 65  1  0  0  0
 63140  1  0  0  0
 63141  1  0  0  0
 63142  1  0  0  0
 64143  1  0  0  0
 65144  1  0  0  0
 68 77  1  0  0  0
 71 72  2  0  0  0
 71 79  1  0  0  0
 71145  1  0  0  0
 72 80  1  0  0  0
 72 83  1  0  0  0
 73 74  1  0  0  0
 73 79  2  0  0  0
 73 82  1  0  0  0
 74 80  2  0  0  0
 74 81  1  0  0  0
 75 78  1  0  0  0
 75 82  1  0  0  0
 75 85  2  0  0  0
 76 77  1  0  0  0
 76 78  1  0  0  0
 76146  1  0  0  0
 76147  1  0  0  0
 77148  1  0  0  0
 77149  1  0  0  0
 78 84  1  0  0  0
 78150  1  0  0  0
 81151  1  0  0  0
 81152  1  0  0  0
 82153  1  0  0  0
 83154  1  0  0  0
 84155  1  0  0  0
 84156  1  0  0  0
 84157  1  0  0  0
M  CHG  1  84   1
M  ISO  4   1 100  68 101  77 101  83 100
M  END
> <chiral flag>
0

> <version>
0

> <s_m_source_file>
/data/baiqing/PycharmProjects/Reinvent-master-3.2/result/LINK_invent/BTK/process_docking_weight1_custom_product_contain_oxygen_bond_distance_aromatic_linkinvent_7_9_3/rearranged_h_0199.sdf

> <i_m_source_file_index>
80

> <r_mmod_Potential_Energy-OPLS-2005>
-534.452941894531

> <r_mmod_Stretch_Energy-OPLS-2005>
39.4465484619141

> <r_mmod_Bend_Energy-OPLS-2005>
108.344177246094

> <r_mmod_Torsional_Energy-OPLS-2005>
265.693359375

> <r_mmod_Improper_Torsional_Energy-OPLS-2005>
7.55211400985718

> <r_mmod_Van_der_Waal_Energy-OPLS-2005>
161.65998840332

> <r_mmod_Electrostatic_Energy-OPLS-2005>
-556.414428710938

> <r_mmod_Solvation_Energy-OPLS-2005>
-570.774230957031

> <b_mmod_Minimization_Converged-OPLS-2005>
0

> <r_mmod_RMS_Derivative-OPLS-2005>
1.16018748283386

$$$$
80
                    3D
 Structure written by MMmdl.
158166  0  0  1  0            999 V2000
  -30.6849  -14.4804   20.5984 C   0  0  0  0  0  0
  -30.4323  -12.3202   19.4178 C   0  0  0  0  0  0
  -29.4995  -12.5196   18.2042 C   0  0  0  0  0  0
  -28.0198  -12.3718   18.6129 C   0  0  0  0  0  0
  -27.6646  -13.2041   19.8729 C   0  0  2  0  0  0
  -28.7029  -12.9653   20.9928 C   0  0  0  0  0  0
  -25.2584  -13.8141   20.5605 C   0  0  0  0  0  0
  -24.1852  -13.0427   20.9149 C   0  0  0  0  0  0
  -24.6399  -11.6893   20.8698 C   0  0  0  0  0  0
  -23.9057  -10.4288   21.0360 C   0  0  0  0  0  0
  -24.3613   -9.4217   21.9150 C   0  0  0  0  0  0
  -23.6296   -8.2251   22.0744 C   0  0  0  0  0  0
  -22.4281   -8.0276   21.3535 C   0  0  0  0  0  0
  -21.9895   -9.0237   20.4632 C   0  0  0  0  0  0
  -22.7213  -10.2124   20.3024 C   0  0  0  0  0  0
  -21.6861   -6.0724   22.5274 C   0  0  0  0  0  0
  -21.4013   -6.5631   23.8205 C   0  0  0  0  0  0
  -21.3662   -5.6788   24.9164 C   0  0  0  0  0  0
  -21.6037   -4.3051   24.7216 C   0  0  0  0  0  0
  -21.8829   -3.8139   23.4346 C   0  0  0  0  0  0
  -21.9200   -4.6949   22.3398 C   0  0  0  0  0  0
  -22.7879  -13.5229   21.1827 C   0  0  0  0  0  0
  -22.1678   -4.2141   21.0975 F   0  0  0  0  0  0
  -21.5631   -3.4536   25.7729 F   0  0  0  0  0  0
  -30.0404  -13.2870   20.4577 N   0  0  0  0  0  0
  -26.3033  -12.9312   20.3301 N   0  0  0  0  0  0
  -25.9324  -11.6486   20.5724 N   0  0  0  0  0  0
  -22.0517  -12.8220   22.0388 N   0  0  0  0  0  0
  -25.4257  -15.1841   20.3895 N   0  0  0  0  0  0
  -31.7854  -14.7080   20.0851 O   0  0  0  0  0  0
  -21.6652   -6.8870   21.4243 O   0  0  0  0  0  0
  -22.3557  -14.5527   20.6673 O   0  0  0  0  0  0
  -24.6149  -31.8677   23.2101 C   0  0  0  0  0  0
  -25.9044  -32.4814   23.8400 C   0  0  1  0  0  0
  -27.2366  -27.4214   20.1044 C   0  0  0  0  0  0
  -25.5897  -33.8612   24.2329 N   0  0  0  0  0  0
  -23.4019  -30.4911   21.5516 C   0  0  2  0  0  0
  -24.8504  -28.9539   20.1158 C   0  0  0  0  0  0
  -22.7401  -29.4676   22.5009 C   0  0  0  0  0  0
  -18.0265  -28.1382   22.8515 C   0  0  0  0  0  0
  -24.1491  -36.7312   23.2646 C   0  0  0  0  0  0
  -25.9317  -30.8280   21.3658 C   0  0  0  0  0  0
  -26.0100  -29.4619   20.7131 C   0  0  0  0  0  0
  -27.2053  -28.7052   20.7004 C   0  0  0  0  0  0
  -26.0613  -26.9396   19.4832 C   0  0  0  0  0  0
  -24.8719  -27.6932   19.4952 C   0  0  0  0  0  0
  -23.6102  -29.8197   20.1674 C   0  0  0  0  0  0
  -25.4109  -36.3113   24.0350 C   0  0  1  0  0  0
  -20.5851  -28.3676   23.1338 C   0  0  2  0  0  0
  -20.6766  -26.9414   22.5428 C   0  0  0  0  0  0
  -19.5733  -26.6397   21.5231 C   0  0  0  0  0  0
  -18.1910  -26.7930   22.1639 C   0  0  0  0  0  0
  -19.1514  -28.8845   23.2925 C   0  0  0  0  0  0
  -18.9444  -30.1455   23.8928 C   0  0  0  0  0  0
  -17.6442  -30.6595   24.0568 C   0  0  0  0  0  0
  -25.9033  -34.9470   23.5137 C   0  0  0  0  0  0
  -16.5334  -29.9092   23.6324 C   0  0  0  0  0  0
  -16.7254  -28.6498   23.0373 C   0  0  0  0  0  0
  -26.4452  -31.6595   25.0733 C   0  0  0  0  0  0
  -25.3719  -31.3691   26.1482 C   0  0  0  0  0  0
  -27.0300  -30.3052   24.6107 C   0  0  0  0  0  0
  -27.6044  -32.4301   25.7468 C   0  0  0  0  0  0
  -27.5581  -37.1806   24.8461 C   0  0  0  0  0  0
  -21.4129  -29.3036   22.3741 N   0  0  0  0  0  0
  -26.4297  -37.3793   23.9405 N   0  0  0  0  0  0
  -24.6675  -31.0780   22.1001 N   0  0  0  0  0  0
  -23.4168  -28.8239   23.3071 O   0  0  0  0  0  0
  -28.4077  -26.6847   20.1118 O   0  0  0  0  0  0
  -26.5594  -34.8921   22.4698 O   0  0  0  0  0  0
  -23.5346  -32.1415   23.7512 O   0  0  0  0  0  0
  -28.4997  -17.2572   20.9950 C   0  0  0  0  0  0
  -29.1317  -19.3716   20.2505 C   0  0  0  0  0  0
  -29.8344  -16.7891   20.9719 C   0  0  0  0  0  0
  -30.4981  -18.9329   20.3155 C   0  0  0  0  0  0
  -28.6265  -20.6943   19.6685 C   0  0  0  0  0  0
  -28.6044  -23.0020   19.1505 C   0  0  0  0  0  0
  -28.3138  -25.2799   20.4453 C   0  0  0  0  0  0
  -29.1867  -24.4089   19.4927 C   0  0  1  0  0  0
  -28.1485  -18.5099   20.6245 N   0  0  0  0  0  0
  -30.8365  -17.6584   20.6605 N   0  0  0  0  0  0
  -29.1874  -21.8555   19.8809 N   0  0  0  0  0  0
  -31.5858  -19.7399   19.9955 N   0  0  0  0  0  0
  -27.5174  -20.5033   18.8608 N   0  0  0  0  0  0
  -29.9966  -15.4080   21.2934 N   0  0  0  0  0  0
  -30.5844  -24.3119   19.9581 N   0  3  0  0  0  0
  -31.4740  -12.4352   19.1137 H   0  0  0  0  0  0
  -30.3476  -11.3026   19.8016 H   0  0  0  0  0  0
  -29.7457  -11.8026   17.4198 H   0  0  0  0  0  0
  -29.6628  -13.5091   17.7729 H   0  0  0  0  0  0
  -27.8283  -11.3150   18.8044 H   0  0  0  0  0  0
  -27.3707  -12.6495   17.7819 H   0  0  0  0  0  0
  -27.7141  -14.2547   19.5856 H   0  0  0  0  0  0
  -28.6824  -11.9200   21.3073 H   0  0  0  0  0  0
  -28.4471  -13.5359   21.8860 H   0  0  0  0  0  0
  -25.2752   -9.5721   22.4725 H   0  0  0  0  0  0
  -24.0009   -7.4658   22.7477 H   0  0  0  0  0  0
  -21.0817   -8.8726   19.8959 H   0  0  0  0  0  0
  -22.3630  -10.9648   19.6141 H   0  0  0  0  0  0
  -21.2015   -7.6139   23.9709 H   0  0  0  0  0  0
  -21.1470   -6.0507   25.9065 H   0  0  0  0  0  0
  -22.0609   -2.7604   23.2836 H   0  0  0  0  0  0
  -22.4120  -11.9883   22.4798 H   0  0  0  0  0  0
  -21.1140  -13.1263   22.2587 H   0  0  0  0  0  0
  -24.6376  -15.8203   20.4489 H   0  0  0  0  0  0
  -26.2326  -15.6033   19.9475 H   0  0  0  0  0  0
  -26.7113  -32.5508   23.1171 H   0  0  0  0  0  0
  -25.0045  -33.9748   25.0476 H   0  0  0  0  0  0
  -22.6894  -31.3071   21.4117 H   0  0  0  0  0  0
  -23.3756  -35.9640   23.3305 H   0  0  0  0  0  0
  -24.3600  -36.8926   22.2063 H   0  0  0  0  0  0
  -23.7225  -37.6518   23.6641 H   0  0  0  0  0  0
  -26.0454  -31.5954   20.5989 H   0  0  0  0  0  0
  -26.8184  -30.8809   21.9863 H   0  0  0  0  0  0
  -28.1002  -29.0938   21.1654 H   0  0  0  0  0  0
  -26.0536  -25.9874   18.9741 H   0  0  0  0  0  0
  -23.9827  -27.3011   19.0198 H   0  0  0  0  0  0
  -23.7147  -30.5900   19.4028 H   0  0  0  0  0  0
  -22.7334  -29.2375   19.8774 H   0  0  0  0  0  0
  -25.1291  -36.1984   25.0848 H   0  0  0  0  0  0
  -20.9946  -28.3258   24.1460 H   0  0  0  0  0  0
  -20.5701  -26.2279   23.3618 H   0  0  0  0  0  0
  -21.6631  -26.7479   22.1191 H   0  0  0  0  0  0
  -19.6895  -25.6316   21.1246 H   0  0  0  0  0  0
  -19.6686  -27.3230   20.6776 H   0  0  0  0  0  0
  -17.4189  -26.6718   21.4034 H   0  0  0  0  0  0
  -18.0302  -26.0060   22.9018 H   0  0  0  0  0  0
  -19.7920  -30.7278   24.2309 H   0  0  0  0  0  0
  -17.4990  -31.6275   24.5183 H   0  0  0  0  0  0
  -15.5334  -30.3010   23.7628 H   0  0  0  0  0  0
  -15.8649  -28.0816   22.7101 H   0  0  0  0  0  0
  -24.5886  -30.7055   25.7798 H   0  0  0  0  0  0
  -24.8923  -32.2853   26.4939 H   0  0  0  0  0  0
  -25.8081  -30.8838   27.0225 H   0  0  0  0  0  0
  -26.2861  -29.6800   24.1165 H   0  0  0  0  0  0
  -27.4100  -29.7294   25.4552 H   0  0  0  0  0  0
  -27.8664  -30.4403   23.9247 H   0  0  0  0  0  0
  -27.2684  -33.3592   26.2068 H   0  0  0  0  0  0
  -28.3810  -32.6864   25.0256 H   0  0  0  0  0  0
  -28.0737  -31.8406   26.5354 H   0  0  0  0  0  0
  -28.2591  -38.0107   24.7519 H   0  0  0  0  0  0
  -28.1092  -36.2647   24.6282 H   0  0  0  0  0  0
  -27.2306  -37.1425   25.8865 H   0  0  0  0  0  0
  -20.9298  -29.8727   21.6930 H   0  0  0  0  0  0
  -26.0208  -38.2880   24.1411 H   0  0  0  0  0  0
  -27.6877  -16.6003   21.2672 H   0  0  0  0  0  0
  -28.7787  -22.8451   18.0828 H   0  0  0  0  0  0
  -27.5189  -23.0386   19.2620 H   0  0  0  0  0  0
  -28.6390  -25.1491   21.4781 H   0  0  0  0  0  0
  -27.2852  -24.9228   20.4414 H   0  0  0  0  0  0
  -29.2161  -24.9551   18.5479 H   0  0  0  0  0  0
  -31.4028  -20.7375   19.9760 H   0  0  0  0  0  0
  -32.4873  -19.4896   20.3804 H   0  0  0  0  0  0
  -27.0572  -19.6013   18.8081 H   0  0  0  0  0  0
  -26.9839  -21.2198   18.3911 H   0  0  0  0  0  0
  -29.1924  -15.0051   21.7485 H   0  0  0  0  0  0
  -30.6259  -23.7420   20.7860 H   0  0  0  0  0  0
  -30.9661  -25.2211   20.1575 H   0  0  0  0  0  0
  -31.1475  -23.8706   19.2533 H   0  0  0  0  0  0
  1 25  1  0  0  0
  1 30  2  0  0  0
  1 84  1  0  0  0
  2  3  1  0  0  0
  2 25  1  0  0  0
  2 86  1  0  0  0
  2 87  1  0  0  0
  3  4  1  0  0  0
  3 88  1  0  0  0
  3 89  1  0  0  0
  4  5  1  0  0  0
  4 90  1  0  0  0
  4 91  1  0  0  0
  5  6  1  0  0  0
  5 26  1  0  0  0
  5 92  1  0  0  0
  6 25  1  0  0  0
  6 93  1  0  0  0
  6 94  1  0  0  0
  7  8  2  0  0  0
  7 26  1  0  0  0
  7 29  1  0  0  0
  8  9  1  0  0  0
  8 22  1  0  0  0
  9 10  1  0  0  0
  9 27  2  0  0  0
 10 11  2  0  0  0
 10 15  1  0  0  0
 11 12  1  0  0  0
 11 95  1  0  0  0
 12 13  2  0  0  0
 12 96  1  0  0  0
 13 14  1  0  0  0
 13 31  1  0  0  0
 14 15  2  0  0  0
 14 97  1  0  0  0
 15 98  1  0  0  0
 16 17  2  0  0  0
 16 21  1  0  0  0
 16 31  1  0  0  0
 17 18  1  0  0  0
 17 99  1  0  0  0
 18 19  2  0  0  0
 18100  1  0  0  0
 19 20  1  0  0  0
 19 24  1  0  0  0
 20 21  2  0  0  0
 20101  1  0  0  0
 21 23  1  0  0  0
 22 28  1  0  0  0
 22 32  2  0  0  0
 26 27  1  0  0  0
 28102  1  0  0  0
 28103  1  0  0  0
 29104  1  0  0  0
 29105  1  0  0  0
 33 34  1  0  0  0
 33 66  1  0  0  0
 33 70  2  0  0  0
 34 36  1  0  0  0
 34 59  1  0  0  0
 34106  1  0  0  0
 35 44  2  0  0  0
 35 45  1  0  0  0
 35 68  1  0  0  0
 36 56  1  0  0  0
 36107  1  0  0  0
 37 39  1  0  0  0
 37 47  1  0  0  0
 37 66  1  0  0  0
 37108  1  0  0  0
 38 43  2  0  0  0
 38 46  1  0  0  0
 38 47  1  0  0  0
 39 64  1  0  0  0
 39 67  2  0  0  0
 40 52  1  0  0  0
 40 53  2  0  0  0
 40 58  1  0  0  0
 41109  1  0  0  0
 41110  1  0  0  0
 41111  1  0  0  0
 41 48  1  0  0  0
 42 43  1  0  0  0
 42 66  1  0  0  0
 42112  1  0  0  0
 42113  1  0  0  0
 43 44  1  0  0  0
 44114  1  0  0  0
 45 46  2  0  0  0
 45115  1  0  0  0
 46116  1  0  0  0
 47117  1  0  0  0
 47118  1  0  0  0
 48 56  1  0  0  0
 48 65  1  0  0  0
 48119  1  0  0  0
 49 50  1  0  0  0
 49 53  1  0  0  0
 49 64  1  0  0  0
 49120  1  0  0  0
 50 51  1  0  0  0
 50121  1  0  0  0
 50122  1  0  0  0
 51 52  1  0  0  0
 51123  1  0  0  0
 51124  1  0  0  0
 52125  1  0  0  0
 52126  1  0  0  0
 53 54  1  0  0  0
 54 55  2  0  0  0
 54127  1  0  0  0
 55 57  1  0  0  0
 55128  1  0  0  0
 56 69  2  0  0  0
 57 58  2  0  0  0
 57129  1  0  0  0
 58130  1  0  0  0
 59 60  1  0  0  0
 59 61  1  0  0  0
 59 62  1  0  0  0
 60131  1  0  0  0
 60132  1  0  0  0
 60133  1  0  0  0
 61134  1  0  0  0
 61135  1  0  0  0
 61136  1  0  0  0
 62137  1  0  0  0
 62138  1  0  0  0
 62139  1  0  0  0
 63 65  1  0  0  0
 63140  1  0  0  0
 63141  1  0  0  0
 63142  1  0  0  0
 64143  1  0  0  0
 65144  1  0  0  0
 68 77  1  0  0  0
 71 73  2  0  0  0
 71 79  1  0  0  0
 71145  1  0  0  0
 72 74  1  0  0  0
 72 75  1  0  0  0
 72 79  2  0  0  0
 73 80  1  0  0  0
 73 84  1  0  0  0
 74 80  2  0  0  0
 74 82  1  0  0  0
 75 81  2  0  0  0
 75 83  1  0  0  0
 76 78  1  0  0  0
 76 81  1  0  0  0
 76146  1  0  0  0
 76147  1  0  0  0
 77 78  1  0  0  0
 77148  1  0  0  0
 77149  1  0  0  0
 78 85  1  0  0  0
 78150  1  0  0  0
 82151  1  0  0  0
 82152  1  0  0  0
 83153  1  0  0  0
 83154  1  0  0  0
 84155  1  0  0  0
 85156  1  0  0  0
 85157  1  0  0  0
 85158  1  0  0  0
M  CHG  1  85   1
M  ISO  4   1 100  68 101  77 101  84 100
M  END
> <chiral flag>
0

> <version>
0

> <s_m_source_file>
/data/baiqing/PycharmProjects/Reinvent-master-3.2/result/LINK_invent/BTK/process_docking_weight1_custom_product_contain_oxygen_bond_distance_aromatic_linkinvent_7_9_3/rearranged_h_0199.sdf

> <i_m_source_file_index>
81

> <r_mmod_Potential_Energy-OPLS-2005>
-181.203247070312

> <r_mmod_Stretch_Energy-OPLS-2005>
50.2702903747559

> <r_mmod_Bend_Energy-OPLS-2005>
122.42204284668

> <r_mmod_Torsional_Energy-OPLS-2005>
274.237274169922

> <r_mmod_Improper_Torsional_Energy-OPLS-2005>
9.62784671783447

> <r_mmod_Van_der_Waal_Energy-OPLS-2005>
172.339828491211

> <r_mmod_Electrostatic_Energy-OPLS-2005>
-328.148406982422

> <r_mmod_Solvation_Energy-OPLS-2005>
-494.837127685547

> <b_mmod_Minimization_Converged-OPLS-2005>
0

> <r_mmod_RMS_Derivative-OPLS-2005>
2.09977340698242

$$$$
81
                    3D
 Structure written by MMmdl.
159167  0  0  1  0            999 V2000
  -30.6626  -14.5543   20.5297 C   0  0  0  0  0  0
  -30.4330  -12.3410   19.4444 C   0  0  0  0  0  0
  -29.5035  -12.4823   18.2177 C   0  0  0  0  0  0
  -28.0258  -12.3320   18.6293 C   0  0  0  0  0  0
  -27.6551  -13.2053   19.8562 C   0  0  2  0  0  0
  -28.6944  -13.0363   20.9880 C   0  0  0  0  0  0
  -25.2575  -13.8159   20.5642 C   0  0  0  0  0  0
  -24.1831  -13.0452   20.9189 C   0  0  0  0  0  0
  -24.6374  -11.6917   20.8740 C   0  0  0  0  0  0
  -23.9041  -10.4293   21.0411 C   0  0  0  0  0  0
  -24.3612   -9.4208   21.9183 C   0  0  0  0  0  0
  -23.6278   -8.2246   22.0767 C   0  0  0  0  0  0
  -22.4240   -8.0297   21.3572 C   0  0  0  0  0  0
  -21.9876   -9.0261   20.4661 C   0  0  0  0  0  0
  -22.7219  -10.2138   20.3056 C   0  0  0  0  0  0
  -21.6850   -6.0740   22.5279 C   0  0  0  0  0  0
  -21.4012   -6.5644   23.8221 C   0  0  0  0  0  0
  -21.3649   -5.6801   24.9179 C   0  0  0  0  0  0
  -21.6045   -4.3056   24.7224 C   0  0  0  0  0  0
  -21.8824   -3.8155   23.4331 C   0  0  0  0  0  0
  -21.9184   -4.6964   22.3400 C   0  0  0  0  0  0
  -22.7852  -13.5264   21.1837 C   0  0  0  0  0  0
  -22.1662   -4.2161   21.0971 F   0  0  0  0  0  0
  -21.5610   -3.4537   25.7727 F   0  0  0  0  0  0
  -30.0235  -13.3514   20.4375 N   0  0  0  0  0  0
  -26.2975  -12.9314   20.3252 N   0  0  0  0  0  0
  -25.9284  -11.6472   20.5730 N   0  0  0  0  0  0
  -22.0490  -12.8284   22.0412 N   0  0  0  0  0  0
  -25.4297  -15.1887   20.4002 N   0  0  0  0  0  0
  -31.8190  -14.7104   20.1230 O   0  0  0  0  0  0
  -21.6629   -6.8878   21.4246 O   0  0  0  0  0  0
  -22.3526  -14.5549   20.6645 O   0  0  0  0  0  0
  -24.6252  -31.8625   23.1992 C   0  0  0  0  0  0
  -25.9119  -32.4790   23.8326 C   0  0  1  0  0  0
  -27.2439  -27.3655   20.1002 C   0  0  0  0  0  0
  -25.5932  -33.8578   24.2266 N   0  0  0  0  0  0
  -23.4181  -30.4848   21.5401 C   0  0  2  0  0  0
  -24.8647  -28.9359   20.1101 C   0  0  0  0  0  0
  -22.7469  -29.4664   22.4921 C   0  0  0  0  0  0
  -18.0312  -28.1411   22.8493 C   0  0  0  0  0  0
  -24.1491  -36.7313   23.2640 C   0  0  0  0  0  0
  -25.9541  -30.8015   21.3659 C   0  0  0  0  0  0
  -26.0267  -29.4299   20.7148 C   0  0  0  0  0  0
  -27.2139  -28.6524   20.7053 C   0  0  0  0  0  0
  -26.0542  -26.8966   19.4959 C   0  0  0  0  0  0
  -24.8780  -27.6726   19.4953 C   0  0  0  0  0  0
  -23.6299  -29.8109   20.1569 C   0  0  0  0  0  0
  -25.4108  -36.3091   24.0335 C   0  0  1  0  0  0
  -20.5903  -28.3715   23.1277 C   0  0  2  0  0  0
  -20.6792  -26.9437   22.5409 C   0  0  0  0  0  0
  -19.5761  -26.6408   21.5214 C   0  0  0  0  0  0
  -18.1944  -26.7957   22.1632 C   0  0  0  0  0  0
  -19.1564  -28.8879   23.2892 C   0  0  0  0  0  0
  -18.9487  -30.1474   23.8918 C   0  0  0  0  0  0
  -17.6479  -30.6605   24.0586 C   0  0  0  0  0  0
  -25.9051  -34.9464   23.5106 C   0  0  0  0  0  0
  -16.5371  -29.9108   23.6345 C   0  0  0  0  0  0
  -16.7295  -28.6533   23.0349 C   0  0  0  0  0  0
  -26.4477  -31.6608   25.0711 C   0  0  0  0  0  0
  -25.3682  -31.3821   26.1432 C   0  0  0  0  0  0
  -27.0348  -30.3036   24.6202 C   0  0  0  0  0  0
  -27.6067  -32.4329   25.7451 C   0  0  0  0  0  0
  -27.5593  -37.1800   24.8460 C   0  0  0  0  0  0
  -21.4189  -29.3068   22.3660 N   0  0  0  0  0  0
  -26.4294  -37.3781   23.9414 N   0  0  0  0  0  0
  -24.6846  -31.0656   22.0928 N   0  0  0  0  0  0
  -23.4202  -28.8216   23.3010 O   0  0  0  0  0  0
  -28.4160  -26.6099   20.1377 O   0  0  0  0  0  0
  -26.5621  -34.8936   22.4677 O   0  0  0  0  0  0
  -23.5422  -32.1410   23.7351 O   0  0  0  0  0  0
  -29.1516  -17.9145   21.0309 C   0  0  0  0  0  0
  -29.7435  -19.1938   20.7385 C   0  0  0  0  0  0
  -31.0323  -18.8776   20.3574 C   0  0  0  0  0  0
  -30.0923  -16.9434   20.7947 C   0  0  0  0  0  0
  -32.2223  -19.6839   19.9470 C   0  0  0  0  0  0
  -29.0183  -20.5600   20.8798 C   0  0  0  0  0  0
  -29.7689  -21.8988   20.5410 C   0  0  0  0  0  0
  -28.0961  -24.0244   20.2073 C   0  0  0  0  0  0
  -28.5361  -25.3308   19.4432 C   0  0  0  0  0  0
  -29.1234  -23.2340   21.1115 C   0  0  2  0  0  0
  -29.8915  -15.5927   20.9439 N   0  0  0  0  0  0
  -30.1492  -24.1317   21.6846 N   0  3  0  0  0  0
  -31.2516  -17.5199   20.3840 O   0  0  0  0  0  0
  -31.4759  -12.4570   19.1420 H   0  0  0  0  0  0
  -30.3602  -11.3423   19.8758 H   0  0  0  0  0  0
  -29.7534  -11.7318   17.4654 H   0  0  0  0  0  0
  -29.6600  -13.4513   17.7437 H   0  0  0  0  0  0
  -27.8613  -11.2792   18.8665 H   0  0  0  0  0  0
  -27.3732  -12.5614   17.7854 H   0  0  0  0  0  0
  -27.6816  -14.2408   19.5161 H   0  0  0  0  0  0
  -28.6824  -12.0090   21.3575 H   0  0  0  0  0  0
  -28.4385  -13.6631   21.8436 H   0  0  0  0  0  0
  -25.2770   -9.5657   22.4749 H   0  0  0  0  0  0
  -23.9981   -7.4630   22.7469 H   0  0  0  0  0  0
  -21.0813   -8.8774   19.8972 H   0  0  0  0  0  0
  -22.3680  -10.9671   19.6160 H   0  0  0  0  0  0
  -21.2029   -7.6158   23.9722 H   0  0  0  0  0  0
  -21.1464   -6.0530   25.9084 H   0  0  0  0  0  0
  -22.0603   -2.7607   23.2835 H   0  0  0  0  0  0
  -22.4067  -11.9959   22.4838 H   0  0  0  0  0  0
  -21.1117  -13.1323   22.2615 H   0  0  0  0  0  0
  -24.6557  -15.8401   20.4901 H   0  0  0  0  0  0
  -26.2657  -15.6190   20.0258 H   0  0  0  0  0  0
  -26.7204  -32.5469   23.1094 H   0  0  0  0  0  0
  -25.0059  -33.9688   25.0396 H   0  0  0  0  0  0
  -22.7142  -31.3054   21.3923 H   0  0  0  0  0  0
  -23.3747  -35.9655   23.3300 H   0  0  0  0  0  0
  -24.3581  -36.8932   22.2057 H   0  0  0  0  0  0
  -23.7247  -37.6519   23.6653 H   0  0  0  0  0  0
  -26.0826  -31.5622   20.5946 H   0  0  0  0  0  0
  -26.8359  -30.8511   21.9936 H   0  0  0  0  0  0
  -28.1094  -29.0302   21.1792 H   0  0  0  0  0  0
  -26.0062  -25.9230   19.0325 H   0  0  0  0  0  0
  -23.9859  -27.2861   19.0208 H   0  0  0  0  0  0
  -23.7392  -30.5806   19.3917 H   0  0  0  0  0  0
  -22.7532  -29.2300   19.8647 H   0  0  0  0  0  0
  -25.1284  -36.1949   25.0826 H   0  0  0  0  0  0
  -21.0018  -28.3305   24.1388 H   0  0  0  0  0  0
  -20.5686  -26.2337   23.3617 H   0  0  0  0  0  0
  -21.6660  -26.7461   22.1198 H   0  0  0  0  0  0
  -19.6911  -25.6317   21.1252 H   0  0  0  0  0  0
  -19.6692  -27.3218   20.6739 H   0  0  0  0  0  0
  -17.4207  -26.6730   21.4036 H   0  0  0  0  0  0
  -18.0339  -26.0090   22.9025 H   0  0  0  0  0  0
  -19.7958  -30.7298   24.2287 H   0  0  0  0  0  0
  -17.5036  -31.6271   24.5210 H   0  0  0  0  0  0
  -15.5374  -30.3016   23.7647 H   0  0  0  0  0  0
  -15.8702  -28.0855   22.7035 H   0  0  0  0  0  0
  -24.5792  -30.7251   25.7742 H   0  0  0  0  0  0
  -24.8947  -32.3045   26.4821 H   0  0  0  0  0  0
  -25.7933  -30.8978   27.0234 H   0  0  0  0  0  0
  -26.2965  -29.6751   24.1213 H   0  0  0  0  0  0
  -27.4043  -29.7320   25.4729 H   0  0  0  0  0  0
  -27.8810  -30.4332   23.9451 H   0  0  0  0  0  0
  -27.2712  -33.3618   26.2065 H   0  0  0  0  0  0
  -28.3834  -32.6905   25.0241 H   0  0  0  0  0  0
  -28.0790  -31.8437   26.5320 H   0  0  0  0  0  0
  -28.2609  -38.0098   24.7516 H   0  0  0  0  0  0
  -28.1089  -36.2639   24.6259 H   0  0  0  0  0  0
  -27.2330  -37.1424   25.8865 H   0  0  0  0  0  0
  -20.9376  -29.8762   21.6840 H   0  0  0  0  0  0
  -26.0196  -38.2873   24.1377 H   0  0  0  0  0  0
  -28.1411  -17.7359   21.3757 H   0  0  0  0  0  0
  -31.9667  -20.3945   19.1621 H   0  0  0  0  0  0
  -33.0219  -19.0479   19.5625 H   0  0  0  0  0  0
  -32.6256  -20.2383   20.7957 H   0  0  0  0  0  0
  -28.6812  -20.6049   21.9154 H   0  0  0  0  0  0
  -28.1073  -20.5105   20.2814 H   0  0  0  0  0  0
  -29.9265  -21.9798   19.4644 H   0  0  0  0  0  0
  -30.7632  -21.8051   20.9735 H   0  0  0  0  0  0
  -27.7183  -23.3133   19.4713 H   0  0  0  0  0  0
  -27.2213  -24.2752   20.8085 H   0  0  0  0  0  0
  -28.0172  -25.3853   18.4862 H   0  0  0  0  0  0
  -29.5795  -25.2204   19.1487 H   0  0  0  0  0  0
  -28.5494  -22.9204   21.9850 H   0  0  0  0  0  0
  -28.9798  -15.3253   21.2789 H   0  0  0  0  0  0
  -30.7687  -24.4930   20.9807 H   0  0  0  0  0  0
  -30.7029  -23.6399   22.3636 H   0  0  0  0  0  0
  -29.7170  -24.9073   22.1570 H   0  0  0  0  0  0
  1 25  1  0  0  0
  1 30  2  0  0  0
  1 81  1  0  0  0
  2  3  1  0  0  0
  2 25  1  0  0  0
  2 84  1  0  0  0
  2 85  1  0  0  0
  3  4  1  0  0  0
  3 86  1  0  0  0
  3 87  1  0  0  0
  4  5  1  0  0  0
  4 88  1  0  0  0
  4 89  1  0  0  0
  5  6  1  0  0  0
  5 26  1  0  0  0
  5 90  1  0  0  0
  6 25  1  0  0  0
  6 91  1  0  0  0
  6 92  1  0  0  0
  7  8  2  0  0  0
  7 26  1  0  0  0
  7 29  1  0  0  0
  8  9  1  0  0  0
  8 22  1  0  0  0
  9 10  1  0  0  0
  9 27  2  0  0  0
 10 11  2  0  0  0
 10 15  1  0  0  0
 11 12  1  0  0  0
 11 93  1  0  0  0
 12 13  2  0  0  0
 12 94  1  0  0  0
 13 14  1  0  0  0
 13 31  1  0  0  0
 14 15  2  0  0  0
 14 95  1  0  0  0
 15 96  1  0  0  0
 16 17  2  0  0  0
 16 21  1  0  0  0
 16 31  1  0  0  0
 17 18  1  0  0  0
 17 97  1  0  0  0
 18 19  2  0  0  0
 18 98  1  0  0  0
 19 20  1  0  0  0
 19 24  1  0  0  0
 20 21  2  0  0  0
 20 99  1  0  0  0
 21 23  1  0  0  0
 22 28  1  0  0  0
 22 32  2  0  0  0
 26 27  1  0  0  0
 28100  1  0  0  0
 28101  1  0  0  0
 29102  1  0  0  0
 29103  1  0  0  0
 33 34  1  0  0  0
 33 66  1  0  0  0
 33 70  2  0  0  0
 34 36  1  0  0  0
 34 59  1  0  0  0
 34104  1  0  0  0
 35 44  2  0  0  0
 35 45  1  0  0  0
 35 68  1  0  0  0
 36 56  1  0  0  0
 36105  1  0  0  0
 37 39  1  0  0  0
 37 47  1  0  0  0
 37 66  1  0  0  0
 37106  1  0  0  0
 38 43  2  0  0  0
 38 46  1  0  0  0
 38 47  1  0  0  0
 39 64  1  0  0  0
 39 67  2  0  0  0
 40 52  1  0  0  0
 40 53  2  0  0  0
 40 58  1  0  0  0
 41107  1  0  0  0
 41108  1  0  0  0
 41109  1  0  0  0
 41 48  1  0  0  0
 42 43  1  0  0  0
 42 66  1  0  0  0
 42110  1  0  0  0
 42111  1  0  0  0
 43 44  1  0  0  0
 44112  1  0  0  0
 45 46  2  0  0  0
 45113  1  0  0  0
 46114  1  0  0  0
 47115  1  0  0  0
 47116  1  0  0  0
 48 56  1  0  0  0
 48 65  1  0  0  0
 48117  1  0  0  0
 49 50  1  0  0  0
 49 53  1  0  0  0
 49 64  1  0  0  0
 49118  1  0  0  0
 50 51  1  0  0  0
 50119  1  0  0  0
 50120  1  0  0  0
 51 52  1  0  0  0
 51121  1  0  0  0
 51122  1  0  0  0
 52123  1  0  0  0
 52124  1  0  0  0
 53 54  1  0  0  0
 54 55  2  0  0  0
 54125  1  0  0  0
 55 57  1  0  0  0
 55126  1  0  0  0
 56 69  2  0  0  0
 57 58  2  0  0  0
 57127  1  0  0  0
 58128  1  0  0  0
 59 60  1  0  0  0
 59 61  1  0  0  0
 59 62  1  0  0  0
 60129  1  0  0  0
 60130  1  0  0  0
 60131  1  0  0  0
 61132  1  0  0  0
 61133  1  0  0  0
 61134  1  0  0  0
 62135  1  0  0  0
 62136  1  0  0  0
 62137  1  0  0  0
 63 65  1  0  0  0
 63138  1  0  0  0
 63139  1  0  0  0
 63140  1  0  0  0
 64141  1  0  0  0
 65142  1  0  0  0
 68 79  1  0  0  0
 71 72  1  0  0  0
 71 74  2  0  0  0
 71143  1  0  0  0
 72 73  2  0  0  0
 72 76  1  0  0  0
 73 75  1  0  0  0
 73 83  1  0  0  0
 74 81  1  0  0  0
 74 83  1  0  0  0
 75144  1  0  0  0
 75145  1  0  0  0
 75146  1  0  0  0
 76 77  1  0  0  0
 76147  1  0  0  0
 76148  1  0  0  0
 77 80  1  0  0  0
 77149  1  0  0  0
 77150  1  0  0  0
 78 79  1  0  0  0
 78 80  1  0  0  0
 78151  1  0  0  0
 78152  1  0  0  0
 79153  1  0  0  0
 79154  1  0  0  0
 80 82  1  0  0  0
 80155  1  0  0  0
 81156  1  0  0  0
 82157  1  0  0  0
 82158  1  0  0  0
 82159  1  0  0  0
M  CHG  1  82   1
M  ISO  4   1 100  68 101  79 101  81 100
M  END
> <chiral flag>
0

> <version>
0

> <s_m_source_file>
/data/baiqing/PycharmProjects/Reinvent-master-3.2/result/LINK_invent/BTK/process_docking_weight1_custom_product_contain_oxygen_bond_distance_aromatic_linkinvent_7_9_3/rearranged_h_0199.sdf

> <i_m_source_file_index>
82

> <r_mmod_Potential_Energy-OPLS-2005>
-248.677459716797

> <r_mmod_Stretch_Energy-OPLS-2005>
56.5053863525391

> <r_mmod_Bend_Energy-OPLS-2005>
140.117919921875

> <r_mmod_Torsional_Energy-OPLS-2005>
228.281600952148

> <r_mmod_Improper_Torsional_Energy-OPLS-2005>
4.12556743621826

> <r_mmod_Van_der_Waal_Energy-OPLS-2005>
122.335838317871

> <r_mmod_Electrostatic_Energy-OPLS-2005>
-328.521331787109

> <r_mmod_Solvation_Energy-OPLS-2005>
-499.1689453125

> <b_mmod_Minimization_Converged-OPLS-2005>
0

> <r_mmod_RMS_Derivative-OPLS-2005>
3.81452417373657

$$$$
82
                    3D
 Structure written by MMmdl.
155163  0  0  1  0            999 V2000
  -30.6511  -14.5361   20.6015 C   0  0  0  0  0  0
  -30.4475  -12.3532   19.4344 C   0  0  0  0  0  0
  -29.5072  -12.5102   18.2185 C   0  0  0  0  0  0
  -28.0294  -12.3533   18.6317 C   0  0  0  0  0  0
  -27.6653  -13.1995   19.8799 C   0  0  2  0  0  0
  -28.7056  -12.9735   21.0003 C   0  0  0  0  0  0
  -25.2603  -13.8141   20.5676 C   0  0  0  0  0  0
  -24.1838  -13.0431   20.9173 C   0  0  0  0  0  0
  -24.6375  -11.6891   20.8721 C   0  0  0  0  0  0
  -23.9032  -10.4281   21.0387 C   0  0  0  0  0  0
  -24.3583   -9.4201   21.9166 C   0  0  0  0  0  0
  -23.6262   -8.2241   22.0748 C   0  0  0  0  0  0
  -22.4254   -8.0268   21.3537 C   0  0  0  0  0  0
  -21.9880   -9.0238   20.4645 C   0  0  0  0  0  0
  -22.7201  -10.2120   20.3045 C   0  0  0  0  0  0
  -21.6854   -6.0717   22.5273 C   0  0  0  0  0  0
  -21.4017   -6.5623   23.8203 C   0  0  0  0  0  0
  -21.3661   -5.6782   24.9171 C   0  0  0  0  0  0
  -21.6045   -4.3042   24.7224 C   0  0  0  0  0  0
  -21.8815   -3.8132   23.4345 C   0  0  0  0  0  0
  -21.9194   -4.6947   22.3402 C   0  0  0  0  0  0
  -22.7860  -13.5235   21.1834 C   0  0  0  0  0  0
  -22.1656   -4.2126   21.0981 F   0  0  0  0  0  0
  -21.5629   -3.4529   25.7742 F   0  0  0  0  0  0
  -30.0348  -13.3236   20.4623 N   0  0  0  0  0  0
  -26.3030  -12.9290   20.3366 N   0  0  0  0  0  0
  -25.9306  -11.6457   20.5752 N   0  0  0  0  0  0
  -22.0506  -12.8243   22.0406 N   0  0  0  0  0  0
  -25.4369  -15.1856   20.4088 N   0  0  0  0  0  0
  -31.7351  -14.7956   20.0693 O   0  0  0  0  0  0
  -21.6635   -6.8859   21.4233 O   0  0  0  0  0  0
  -22.3550  -14.5547   20.6692 O   0  0  0  0  0  0
  -24.6224  -31.8628   23.2091 C   0  0  0  0  0  0
  -25.9094  -32.4799   23.8398 C   0  0  1  0  0  0
  -27.2193  -27.3668   20.0942 C   0  0  0  0  0  0
  -25.5929  -33.8595   24.2319 N   0  0  0  0  0  0
  -23.4121  -30.4914   21.5519 C   0  0  2  0  0  0
  -24.8550  -28.9595   20.1116 C   0  0  0  0  0  0
  -22.7445  -29.4632   22.4955 C   0  0  0  0  0  0
  -18.0283  -28.1384   22.8483 C   0  0  0  0  0  0
  -24.1490  -36.7302   23.2634 C   0  0  0  0  0  0
  -25.9513  -30.8090   21.3724 C   0  0  0  0  0  0
  -26.0240  -29.4414   20.7133 C   0  0  0  0  0  0
  -27.2093  -28.6550   20.6977 C   0  0  0  0  0  0
  -26.0226  -26.9290   19.4751 C   0  0  0  0  0  0
  -24.8537  -27.7073   19.4854 C   0  0  0  0  0  0
  -23.6217  -29.8341   20.1647 C   0  0  0  0  0  0
  -25.4114  -36.3101   24.0332 C   0  0  1  0  0  0
  -20.5882  -28.3677   23.1292 C   0  0  2  0  0  0
  -20.6764  -26.9401   22.5409 C   0  0  0  0  0  0
  -19.5744  -26.6385   21.5202 C   0  0  0  0  0  0
  -18.1930  -26.7935   22.1614 C   0  0  0  0  0  0
  -19.1535  -28.8852   23.2893 C   0  0  0  0  0  0
  -18.9450  -30.1452   23.8908 C   0  0  0  0  0  0
  -17.6450  -30.6592   24.0562 C   0  0  0  0  0  0
  -25.9031  -34.9459   23.5115 C   0  0  0  0  0  0
  -16.5346  -29.9080   23.6333 C   0  0  0  0  0  0
  -16.7267  -28.6505   23.0342 C   0  0  0  0  0  0
  -26.4513  -31.6592   25.0738 C   0  0  0  0  0  0
  -25.3775  -31.3685   26.1481 C   0  0  0  0  0  0
  -27.0337  -30.3032   24.6126 C   0  0  0  0  0  0
  -27.6090  -32.4307   25.7505 C   0  0  0  0  0  0
  -27.5585  -37.1801   24.8467 C   0  0  0  0  0  0
  -21.4165  -29.3030   22.3688 N   0  0  0  0  0  0
  -26.4298  -37.3790   23.9411 N   0  0  0  0  0  0
  -24.6815  -31.0688   22.1028 N   0  0  0  0  0  0
  -23.4193  -28.8122   23.2984 O   0  0  0  0  0  0
  -28.3541  -26.5506   20.1294 O   0  0  0  0  0  0
  -26.5585  -34.8911   22.4665 O   0  0  0  0  0  0
  -23.5394  -32.1395   23.7445 O   0  0  0  0  0  0
  -29.6349  -18.7494   22.7145 C   0  0  0  0  0  0
  -29.9331  -19.3594   21.5118 C   0  0  0  0  0  0
  -30.0396  -16.8430   21.5062 C   0  0  0  0  0  0
  -29.2501  -19.4247   23.9975 C   0  0  0  0  0  0
  -29.2722  -24.0954   20.2358 C   0  0  0  0  0  0
  -29.9652  -21.4707   20.0183 C   0  0  0  0  0  0
  -28.1355  -25.1217   19.9050 C   0  0  0  0  0  0
  -28.8833  -22.6065   19.8988 C   0  0  1  0  0  0
  -29.6711  -17.3472   22.6865 N   0  0  0  0  0  0
  -29.9283  -20.7677   21.3169 N   0  0  0  0  0  0
  -29.9636  -15.4211   21.3563 N   0  0  0  0  0  0
  -27.8381  -22.1583   20.7356 O   0  0  0  0  0  0
  -30.3455  -18.1238   20.3017 S   0  0  0  0  0  0
  -31.4864  -12.4947   19.1302 H   0  0  0  0  0  0
  -30.3962  -11.3408   19.8358 H   0  0  0  0  0  0
  -29.7603  -11.7758   17.4518 H   0  0  0  0  0  0
  -29.6551  -13.4910   17.7641 H   0  0  0  0  0  0
  -27.8550  -11.2965   18.8405 H   0  0  0  0  0  0
  -27.3743  -12.6058   17.7985 H   0  0  0  0  0  0
  -27.7119  -14.2466   19.5808 H   0  0  0  0  0  0
  -28.7018  -11.9271   21.3070 H   0  0  0  0  0  0
  -28.4371  -13.5283   21.9009 H   0  0  0  0  0  0
  -25.2725   -9.5682   22.4736 H   0  0  0  0  0  0
  -23.9972   -7.4634   22.7469 H   0  0  0  0  0  0
  -21.0808   -8.8746   19.8957 H   0  0  0  0  0  0
  -22.3643  -10.9648   19.6151 H   0  0  0  0  0  0
  -21.2019   -7.6131   23.9697 H   0  0  0  0  0  0
  -21.1486   -6.0516   25.9066 H   0  0  0  0  0  0
  -22.0602   -2.7595   23.2859 H   0  0  0  0  0  0
  -22.4125  -11.9890   22.4768 H   0  0  0  0  0  0
  -21.1132  -13.1287   22.2649 H   0  0  0  0  0  0
  -24.6789  -15.8485   20.5257 H   0  0  0  0  0  0
  -26.2952  -15.6173   20.0886 H   0  0  0  0  0  0
  -26.7151  -32.5497   23.1138 H   0  0  0  0  0  0
  -25.0139  -33.9744   25.0513 H   0  0  0  0  0  0
  -22.7071  -31.3140   21.4168 H   0  0  0  0  0  0
  -23.3746  -35.9641   23.3313 H   0  0  0  0  0  0
  -24.3583  -36.8890   22.2043 H   0  0  0  0  0  0
  -23.7238  -37.6506   23.6641 H   0  0  0  0  0  0
  -26.0739  -31.5747   20.6042 H   0  0  0  0  0  0
  -26.8369  -30.8585   21.9943 H   0  0  0  0  0  0
  -28.1092  -29.0173   21.1732 H   0  0  0  0  0  0
  -25.9507  -25.9741   18.9777 H   0  0  0  0  0  0
  -23.9567  -27.3371   19.0086 H   0  0  0  0  0  0
  -23.7368  -30.6151   19.4123 H   0  0  0  0  0  0
  -22.7420  -29.2633   19.8608 H   0  0  0  0  0  0
  -25.1285  -36.1965   25.0827 H   0  0  0  0  0  0
  -20.9998  -28.3250   24.1401 H   0  0  0  0  0  0
  -20.5657  -26.2268   23.3592 H   0  0  0  0  0  0
  -21.6630  -26.7418   22.1198 H   0  0  0  0  0  0
  -19.6895  -25.6296   21.1217 H   0  0  0  0  0  0
  -19.6703  -27.3201   20.6743 H   0  0  0  0  0  0
  -17.4188  -26.6683   21.4026 H   0  0  0  0  0  0
  -18.0344  -26.0087   22.9021 H   0  0  0  0  0  0
  -19.7920  -30.7274   24.2282 H   0  0  0  0  0  0
  -17.4994  -31.6270   24.5151 H   0  0  0  0  0  0
  -15.5340  -30.2968   23.7668 H   0  0  0  0  0  0
  -15.8668  -28.0825   22.7039 H   0  0  0  0  0  0
  -24.5965  -30.7015   25.7818 H   0  0  0  0  0  0
  -24.8949  -32.2822   26.4959 H   0  0  0  0  0  0
  -25.8134  -30.8839   27.0225 H   0  0  0  0  0  0
  -26.2873  -29.6791   24.1193 H   0  0  0  0  0  0
  -27.4110  -29.7283   25.4595 H   0  0  0  0  0  0
  -27.8730  -30.4351   23.9291 H   0  0  0  0  0  0
  -27.2727  -33.3595   26.2135 H   0  0  0  0  0  0
  -28.3894  -32.6871   25.0326 H   0  0  0  0  0  0
  -28.0786  -31.8391   26.5374 H   0  0  0  0  0  0
  -28.2601  -38.0099   24.7502 H   0  0  0  0  0  0
  -28.1073  -36.2612   24.6318 H   0  0  0  0  0  0
  -27.2288  -37.1492   25.8867 H   0  0  0  0  0  0
  -20.9319  -29.8791   21.6947 H   0  0  0  0  0  0
  -26.0178  -38.2860   24.1423 H   0  0  0  0  0  0
  -29.1441  -20.5019   23.8776 H   0  0  0  0  0  0
  -29.9990  -19.2568   24.7703 H   0  0  0  0  0  0
  -28.2942  -19.0519   24.3668 H   0  0  0  0  0  0
  -29.5561  -24.1856   21.2844 H   0  0  0  0  0  0
  -30.1559  -24.3646   19.6554 H   0  0  0  0  0  0
  -29.8008  -20.7448   19.2205 H   0  0  0  0  0  0
  -30.9607  -21.8822   19.8405 H   0  0  0  0  0  0
  -27.2657  -24.8137   20.4891 H   0  0  0  0  0  0
  -27.8774  -24.9762   18.8548 H   0  0  0  0  0  0
  -28.5209  -22.5884   18.8687 H   0  0  0  0  0  0
  -30.0549  -21.3657   22.1322 H   0  0  0  0  0  0
  -29.2034  -14.9980   21.8625 H   0  0  0  0  0  0
  -28.2430  -21.4064   21.1791 H   0  0  0  0  0  0
  1 25  1  0  0  0
  1 30  2  0  0  0
  1 81  1  0  0  0
  2  3  1  0  0  0
  2 25  1  0  0  0
  2 84  1  0  0  0
  2 85  1  0  0  0
  3  4  1  0  0  0
  3 86  1  0  0  0
  3 87  1  0  0  0
  4  5  1  0  0  0
  4 88  1  0  0  0
  4 89  1  0  0  0
  5  6  1  0  0  0
  5 26  1  0  0  0
  5 90  1  0  0  0
  6 25  1  0  0  0
  6 91  1  0  0  0
  6 92  1  0  0  0
  7  8  2  0  0  0
  7 26  1  0  0  0
  7 29  1  0  0  0
  8  9  1  0  0  0
  8 22  1  0  0  0
  9 10  1  0  0  0
  9 27  2  0  0  0
 10 11  2  0  0  0
 10 15  1  0  0  0
 11 12  1  0  0  0
 11 93  1  0  0  0
 12 13  2  0  0  0
 12 94  1  0  0  0
 13 14  1  0  0  0
 13 31  1  0  0  0
 14 15  2  0  0  0
 14 95  1  0  0  0
 15 96  1  0  0  0
 16 17  2  0  0  0
 16 21  1  0  0  0
 16 31  1  0  0  0
 17 18  1  0  0  0
 17 97  1  0  0  0
 18 19  2  0  0  0
 18 98  1  0  0  0
 19 20  1  0  0  0
 19 24  1  0  0  0
 20 21  2  0  0  0
 20 99  1  0  0  0
 21 23  1  0  0  0
 22 28  1  0  0  0
 22 32  2  0  0  0
 26 27  1  0  0  0
 28100  1  0  0  0
 28101  1  0  0  0
 29102  1  0  0  0
 29103  1  0  0  0
 33 34  1  0  0  0
 33 66  1  0  0  0
 33 70  2  0  0  0
 34 36  1  0  0  0
 34 59  1  0  0  0
 34104  1  0  0  0
 35 44  2  0  0  0
 35 45  1  0  0  0
 35 68  1  0  0  0
 36 56  1  0  0  0
 36105  1  0  0  0
 37 39  1  0  0  0
 37 47  1  0  0  0
 37 66  1  0  0  0
 37106  1  0  0  0
 38 43  2  0  0  0
 38 46  1  0  0  0
 38 47  1  0  0  0
 39 64  1  0  0  0
 39 67  2  0  0  0
 40 52  1  0  0  0
 40 53  2  0  0  0
 40 58  1  0  0  0
 41107  1  0  0  0
 41108  1  0  0  0
 41109  1  0  0  0
 41 48  1  0  0  0
 42 43  1  0  0  0
 42 66  1  0  0  0
 42110  1  0  0  0
 42111  1  0  0  0
 43 44  1  0  0  0
 44112  1  0  0  0
 45 46  2  0  0  0
 45113  1  0  0  0
 46114  1  0  0  0
 47115  1  0  0  0
 47116  1  0  0  0
 48 56  1  0  0  0
 48 65  1  0  0  0
 48117  1  0  0  0
 49 50  1  0  0  0
 49 53  1  0  0  0
 49 64  1  0  0  0
 49118  1  0  0  0
 50 51  1  0  0  0
 50119  1  0  0  0
 50120  1  0  0  0
 51 52  1  0  0  0
 51121  1  0  0  0
 51122  1  0  0  0
 52123  1  0  0  0
 52124  1  0  0  0
 53 54  1  0  0  0
 54 55  2  0  0  0
 54125  1  0  0  0
 55 57  1  0  0  0
 55126  1  0  0  0
 56 69  2  0  0  0
 57 58  2  0  0  0
 57127  1  0  0  0
 58128  1  0  0  0
 59 60  1  0  0  0
 59 61  1  0  0  0
 59 62  1  0  0  0
 60129  1  0  0  0
 60130  1  0  0  0
 60131  1  0  0  0
 61132  1  0  0  0
 61133  1  0  0  0
 61134  1  0  0  0
 62135  1  0  0  0
 62136  1  0  0  0
 62137  1  0  0  0
 63 65  1  0  0  0
 63138  1  0  0  0
 63139  1  0  0  0
 63140  1  0  0  0
 64141  1  0  0  0
 65142  1  0  0  0
 68 77  1  0  0  0
 71 72  2  0  0  0
 71 74  1  0  0  0
 71 79  1  0  0  0
 72 80  1  0  0  0
 72 83  1  0  0  0
 73 79  2  0  0  0
 73 81  1  0  0  0
 73 83  1  0  0  0
 74143  1  0  0  0
 74144  1  0  0  0
 74145  1  0  0  0
 75 77  1  0  0  0
 75 78  1  0  0  0
 75146  1  0  0  0
 75147  1  0  0  0
 76 78  1  0  0  0
 76 80  1  0  0  0
 76148  1  0  0  0
 76149  1  0  0  0
 77150  1  0  0  0
 77151  1  0  0  0
 78 82  1  0  0  0
 78152  1  0  0  0
 80153  1  0  0  0
 81154  1  0  0  0
 82155  1  0  0  0
M  ISO  4   1 100  68 101  77 101  81 100
M  END
> <chiral flag>
0

> <version>
0

> <s_m_source_file>
/data/baiqing/PycharmProjects/Reinvent-master-3.2/result/LINK_invent/BTK/process_docking_weight1_custom_product_contain_oxygen_bond_distance_aromatic_linkinvent_7_9_3/rearranged_h_0199.sdf

> <i_m_source_file_index>
83

> <r_mmod_Potential_Energy-OPLS-2005>
-89.9350128173828

> <r_mmod_Stretch_Energy-OPLS-2005>
52.6915969848633

> <r_mmod_Bend_Energy-OPLS-2005>
140.771331787109

> <r_mmod_Torsional_Energy-OPLS-2005>
249.259750366211

> <r_mmod_Improper_Torsional_Energy-OPLS-2005>
3.1975564956665

> <r_mmod_Van_der_Waal_Energy-OPLS-2005>
142.421279907227

> <r_mmod_Electrostatic_Energy-OPLS-2005>
-473.127685546875

> <r_mmod_Solvation_Energy-OPLS-2005>
-231.539733886719

> <b_mmod_Minimization_Converged-OPLS-2005>
0

> <r_mmod_RMS_Derivative-OPLS-2005>
2.44037127494812

$$$$
83
                    3D
 Structure written by MMmdl.
148156  0  0  1  0            999 V2000
  -30.5289  -14.7992   20.4838 C   0  0  0  0  0  0
  -30.4616  -12.4933   19.4693 C   0  0  0  0  0  0
  -29.5241  -12.5329   18.2375 C   0  0  0  0  0  0
  -28.0487  -12.3393   18.6468 C   0  0  0  0  0  0
  -27.6511  -13.2210   19.8589 C   0  0  2  0  0  0
  -28.6974  -13.1117   20.9917 C   0  0  0  0  0  0
  -25.2551  -13.8154   20.5650 C   0  0  0  0  0  0
  -24.1837  -13.0428   20.9215 C   0  0  0  0  0  0
  -24.6408  -11.6901   20.8755 C   0  0  0  0  0  0
  -23.9068  -10.4291   21.0418 C   0  0  0  0  0  0
  -24.3618   -9.4203   21.9193 C   0  0  0  0  0  0
  -23.6293   -8.2238   22.0756 C   0  0  0  0  0  0
  -22.4277   -8.0281   21.3542 C   0  0  0  0  0  0
  -21.9913   -9.0258   20.4648 C   0  0  0  0  0  0
  -22.7241  -10.2138   20.3062 C   0  0  0  0  0  0
  -21.6851   -6.0739   22.5281 C   0  0  0  0  0  0
  -21.4011   -6.5639   23.8216 C   0  0  0  0  0  0
  -21.3658   -5.6789   24.9177 C   0  0  0  0  0  0
  -21.6046   -4.3052   24.7222 C   0  0  0  0  0  0
  -21.8820   -3.8145   23.4342 C   0  0  0  0  0  0
  -21.9189   -4.6965   22.3401 C   0  0  0  0  0  0
  -22.7859  -13.5233   21.1859 C   0  0  0  0  0  0
  -22.1662   -4.2152   21.0980 F   0  0  0  0  0  0
  -21.5630   -3.4535   25.7735 F   0  0  0  0  0  0
  -29.9976  -13.5220   20.4312 N   0  0  0  0  0  0
  -26.2981  -12.9342   20.3273 N   0  0  0  0  0  0
  -25.9337  -11.6498   20.5744 N   0  0  0  0  0  0
  -22.0480  -12.8243   22.0412 N   0  0  0  0  0  0
  -25.4216  -15.1866   20.3958 N   0  0  0  0  0  0
  -31.6866  -15.0005   20.0968 O   0  0  0  0  0  0
  -21.6635   -6.8883   21.4244 O   0  0  0  0  0  0
  -22.3562  -14.5538   20.6691 O   0  0  0  0  0  0
  -24.6357  -31.8513   23.1946 C   0  0  0  0  0  0
  -25.9163  -32.4735   23.8307 C   0  0  1  0  0  0
  -27.2267  -27.2243   20.1332 C   0  0  0  0  0  0
  -25.5940  -33.8537   24.2230 N   0  0  0  0  0  0
  -23.4351  -30.4731   21.5387 C   0  0  2  0  0  0
  -24.8844  -28.9139   20.1108 C   0  0  0  0  0  0
  -22.7530  -29.4582   22.4891 C   0  0  0  0  0  0
  -18.0298  -28.1388   22.8483 C   0  0  0  0  0  0
  -24.1493  -36.7274   23.2640 C   0  0  0  0  0  0
  -25.9849  -30.7531   21.3804 C   0  0  0  0  0  0
  -26.0588  -29.3727   20.7210 C   0  0  0  0  0  0
  -27.2319  -28.5433   20.7161 C   0  0  0  0  0  0
  -26.0235  -26.8426   19.4970 C   0  0  0  0  0  0
  -24.8747  -27.6586   19.4861 C   0  0  0  0  0  0
  -23.6568  -29.8052   20.1562 C   0  0  0  0  0  0
  -25.4121  -36.3058   24.0324 C   0  0  1  0  0  0
  -20.5906  -28.3704   23.1258 C   0  0  2  0  0  0
  -20.6781  -26.9416   22.5405 C   0  0  0  0  0  0
  -19.5755  -26.6380   21.5212 C   0  0  0  0  0  0
  -18.1938  -26.7929   22.1625 C   0  0  0  0  0  0
  -19.1553  -28.8863   23.2863 C   0  0  0  0  0  0
  -18.9469  -30.1463   23.8883 C   0  0  0  0  0  0
  -17.6465  -30.6586   24.0560 C   0  0  0  0  0  0
  -25.9063  -34.9429   23.5082 C   0  0  0  0  0  0
  -16.5358  -29.9079   23.6333 C   0  0  0  0  0  0
  -16.7284  -28.6499   23.0355 C   0  0  0  0  0  0
  -26.4508  -31.6574   25.0717 C   0  0  0  0  0  0
  -25.3714  -31.3734   26.1425 C   0  0  0  0  0  0
  -27.0361  -30.2983   24.6236 C   0  0  0  0  0  0
  -27.6051  -32.4326   25.7493 C   0  0  0  0  0  0
  -27.5585  -37.1790   24.8461 C   0  0  0  0  0  0
  -21.4230  -29.3047   22.3641 N   0  0  0  0  0  0
  -26.4289  -37.3765   23.9414 N   0  0  0  0  0  0
  -24.7046  -31.0446   22.0939 N   0  0  0  0  0  0
  -23.4211  -28.8123   23.3007 O   0  0  0  0  0  0
  -28.3170  -26.3073   20.1857 O   0  0  0  0  0  0
  -26.5642  -34.8916   22.4655 O   0  0  0  0  0  0
  -23.5497  -32.1349   23.7221 O   0  0  0  0  0  0
  -28.0407  -17.5588   21.1880 C   0  0  0  0  0  0
  -29.3239  -17.2500   20.8009 C   0  0  0  0  0  0
  -29.2687  -19.6587   20.5523 C   0  0  0  0  0  0
  -29.6657  -21.1620   20.3336 C   0  0  0  0  0  0
  -29.2117  -23.6579   20.3167 C   0  0  0  0  0  0
  -28.0598  -24.8075   20.1145 C   0  0  0  0  0  0
  -30.0164  -18.4803   20.4416 N   0  0  0  0  0  0
  -28.7960  -22.1736   20.4107 N   0  0  0  0  0  0
  -31.0143  -21.3024   20.1006 N   0  0  0  0  0  0
  -29.6372  -15.7863   20.8953 N   0  0  0  0  0  0
  -27.6388  -19.2630   21.0921 S   0  0  0  0  0  0
  -31.4941  -12.6664   19.1614 H   0  0  0  0  0  0
  -30.4503  -11.5058   19.9333 H   0  0  0  0  0  0
  -29.8171  -11.7691   17.5156 H   0  0  0  0  0  0
  -29.6356  -13.4911   17.7278 H   0  0  0  0  0  0
  -27.9085  -11.2871   18.8958 H   0  0  0  0  0  0
  -27.3916  -12.5413   17.7999 H   0  0  0  0  0  0
  -27.6543  -14.2499   19.4990 H   0  0  0  0  0  0
  -28.7511  -12.0883   21.3663 H   0  0  0  0  0  0
  -28.4117  -13.7212   21.8502 H   0  0  0  0  0  0
  -25.2763   -9.5680   22.4767 H   0  0  0  0  0  0
  -24.0002   -7.4628   22.7473 H   0  0  0  0  0  0
  -21.0843   -8.8780   19.8953 H   0  0  0  0  0  0
  -22.3703  -10.9680   19.6173 H   0  0  0  0  0  0
  -21.2003   -7.6148   23.9724 H   0  0  0  0  0  0
  -21.1482   -6.0516   25.9083 H   0  0  0  0  0  0
  -22.0598   -2.7607   23.2837 H   0  0  0  0  0  0
  -22.4071  -11.9910   22.4826 H   0  0  0  0  0  0
  -21.1095  -13.1291   22.2587 H   0  0  0  0  0  0
  -24.6221  -15.8094   20.4412 H   0  0  0  0  0  0
  -26.2046  -15.5895   19.8980 H   0  0  0  0  0  0
  -26.7230  -32.5374   23.1046 H   0  0  0  0  0  0
  -25.0075  -33.9657   25.0370 H   0  0  0  0  0  0
  -22.7334  -31.2965   21.3899 H   0  0  0  0  0  0
  -23.3763  -35.9597   23.3282 H   0  0  0  0  0  0
  -24.3589  -36.8919   22.2058 H   0  0  0  0  0  0
  -23.7234  -37.6464   23.6680 H   0  0  0  0  0  0
  -26.1306  -31.5125   20.6110 H   0  0  0  0  0  0
  -26.8591  -30.8011   22.0181 H   0  0  0  0  0  0
  -28.1301  -28.8924   21.2061 H   0  0  0  0  0  0
  -25.9350  -25.8845   19.0091 H   0  0  0  0  0  0
  -23.9776  -27.3006   18.9996 H   0  0  0  0  0  0
  -23.7856  -30.5808   19.4003 H   0  0  0  0  0  0
  -22.7743  -29.2410   19.8494 H   0  0  0  0  0  0
  -25.1305  -36.1893   25.0817 H   0  0  0  0  0  0
  -21.0001  -28.3285   24.1379 H   0  0  0  0  0  0
  -20.5678  -26.2318   23.3616 H   0  0  0  0  0  0
  -21.6647  -26.7431   22.1202 H   0  0  0  0  0  0
  -19.6912  -25.6287   21.1252 H   0  0  0  0  0  0
  -19.6691  -27.3183   20.6737 H   0  0  0  0  0  0
  -17.4208  -26.6679   21.4027 H   0  0  0  0  0  0
  -18.0335  -26.0072   22.9024 H   0  0  0  0  0  0
  -19.7941  -30.7283   24.2250 H   0  0  0  0  0  0
  -17.5016  -31.6267   24.5157 H   0  0  0  0  0  0
  -15.5356  -30.2973   23.7660 H   0  0  0  0  0  0
  -15.8688  -28.0810   22.7075 H   0  0  0  0  0  0
  -24.5893  -30.7084   25.7743 H   0  0  0  0  0  0
  -24.8901  -32.2905   26.4830 H   0  0  0  0  0  0
  -25.8014  -30.8915   27.0215 H   0  0  0  0  0  0
  -26.2954  -29.6721   24.1249 H   0  0  0  0  0  0
  -27.4010  -29.7262   25.4776 H   0  0  0  0  0  0
  -27.8849  -30.4242   23.9511 H   0  0  0  0  0  0
  -27.2650  -33.3635   26.2044 H   0  0  0  0  0  0
  -28.3871  -32.6874   25.0327 H   0  0  0  0  0  0
  -28.0710  -31.8469   26.5429 H   0  0  0  0  0  0
  -28.2579  -38.0110   24.7540 H   0  0  0  0  0  0
  -28.1103  -36.2643   24.6246 H   0  0  0  0  0  0
  -27.2310  -37.1390   25.8864 H   0  0  0  0  0  0
  -20.9424  -29.8778   21.6847 H   0  0  0  0  0  0
  -26.0162  -38.2834   24.1425 H   0  0  0  0  0  0
  -27.2711  -16.8830   21.5371 H   0  0  0  0  0  0
  -29.7534  -23.9108   21.2295 H   0  0  0  0  0  0
  -29.9397  -23.7816   19.5137 H   0  0  0  0  0  0
  -27.2701  -24.5976   20.8371 H   0  0  0  0  0  0
  -27.6283  -24.6021   19.1354 H   0  0  0  0  0  0
  -31.6367  -20.5033   20.0548 H   0  0  0  0  0  0
  -31.5095  -22.1690   19.9463 H   0  0  0  0  0  0
  -28.8408  -15.2911   21.2623 H   0  0  0  0  0  0
  1 25  1  0  0  0
  1 30  2  0  0  0
  1 80  1  0  0  0
  2  3  1  0  0  0
  2 25  1  0  0  0
  2 82  1  0  0  0
  2 83  1  0  0  0
  3  4  1  0  0  0
  3 84  1  0  0  0
  3 85  1  0  0  0
  4  5  1  0  0  0
  4 86  1  0  0  0
  4 87  1  0  0  0
  5  6  1  0  0  0
  5 26  1  0  0  0
  5 88  1  0  0  0
  6 25  1  0  0  0
  6 89  1  0  0  0
  6 90  1  0  0  0
  7  8  2  0  0  0
  7 26  1  0  0  0
  7 29  1  0  0  0
  8  9  1  0  0  0
  8 22  1  0  0  0
  9 10  1  0  0  0
  9 27  2  0  0  0
 10 11  2  0  0  0
 10 15  1  0  0  0
 11 12  1  0  0  0
 11 91  1  0  0  0
 12 13  2  0  0  0
 12 92  1  0  0  0
 13 14  1  0  0  0
 13 31  1  0  0  0
 14 15  2  0  0  0
 14 93  1  0  0  0
 15 94  1  0  0  0
 16 17  2  0  0  0
 16 21  1  0  0  0
 16 31  1  0  0  0
 17 18  1  0  0  0
 17 95  1  0  0  0
 18 19  2  0  0  0
 18 96  1  0  0  0
 19 20  1  0  0  0
 19 24  1  0  0  0
 20 21  2  0  0  0
 20 97  1  0  0  0
 21 23  1  0  0  0
 22 28  1  0  0  0
 22 32  2  0  0  0
 26 27  1  0  0  0
 28 98  1  0  0  0
 28 99  1  0  0  0
 29100  1  0  0  0
 29101  1  0  0  0
 33 34  1  0  0  0
 33 66  1  0  0  0
 33 70  2  0  0  0
 34 36  1  0  0  0
 34 59  1  0  0  0
 34102  1  0  0  0
 35 44  2  0  0  0
 35 45  1  0  0  0
 35 68  1  0  0  0
 36 56  1  0  0  0
 36103  1  0  0  0
 37 39  1  0  0  0
 37 47  1  0  0  0
 37 66  1  0  0  0
 37104  1  0  0  0
 38 43  2  0  0  0
 38 46  1  0  0  0
 38 47  1  0  0  0
 39 64  1  0  0  0
 39 67  2  0  0  0
 40 52  1  0  0  0
 40 53  2  0  0  0
 40 58  1  0  0  0
 41105  1  0  0  0
 41106  1  0  0  0
 41107  1  0  0  0
 41 48  1  0  0  0
 42 43  1  0  0  0
 42 66  1  0  0  0
 42108  1  0  0  0
 42109  1  0  0  0
 43 44  1  0  0  0
 44110  1  0  0  0
 45 46  2  0  0  0
 45111  1  0  0  0
 46112  1  0  0  0
 47113  1  0  0  0
 47114  1  0  0  0
 48 56  1  0  0  0
 48 65  1  0  0  0
 48115  1  0  0  0
 49 50  1  0  0  0
 49 53  1  0  0  0
 49 64  1  0  0  0
 49116  1  0  0  0
 50 51  1  0  0  0
 50117  1  0  0  0
 50118  1  0  0  0
 51 52  1  0  0  0
 51119  1  0  0  0
 51120  1  0  0  0
 52121  1  0  0  0
 52122  1  0  0  0
 53 54  1  0  0  0
 54 55  2  0  0  0
 54123  1  0  0  0
 55 57  1  0  0  0
 55124  1  0  0  0
 56 69  2  0  0  0
 57 58  2  0  0  0
 57125  1  0  0  0
 58126  1  0  0  0
 59 60  1  0  0  0
 59 61  1  0  0  0
 59 62  1  0  0  0
 60127  1  0  0  0
 60128  1  0  0  0
 60129  1  0  0  0
 61130  1  0  0  0
 61131  1  0  0  0
 61132  1  0  0  0
 62133  1  0  0  0
 62134  1  0  0  0
 62135  1  0  0  0
 63 65  1  0  0  0
 63136  1  0  0  0
 63137  1  0  0  0
 63138  1  0  0  0
 64139  1  0  0  0
 65140  1  0  0  0
 68 76  1  0  0  0
 71 72  2  0  0  0
 71 81  1  0  0  0
 71141  1  0  0  0
 72 77  1  0  0  0
 72 80  1  0  0  0
 73 74  1  0  0  0
 73 77  2  0  0  0
 73 81  1  0  0  0
 74 78  2  0  0  0
 74 79  1  0  0  0
 75 76  1  0  0  0
 75 78  1  0  0  0
 75142  1  0  0  0
 75143  1  0  0  0
 76144  1  0  0  0
 76145  1  0  0  0
 79146  1  0  0  0
 79147  1  0  0  0
 80148  1  0  0  0
M  ISO  4   1 100  68 101  76 101  80 100
M  END
> <chiral flag>
0

> <version>
0

> <s_m_source_file>
/data/baiqing/PycharmProjects/Reinvent-master-3.2/result/LINK_invent/BTK/process_docking_weight1_custom_product_contain_oxygen_bond_distance_aromatic_linkinvent_7_9_3/rearranged_h_0199.sdf

> <i_m_source_file_index>
84

> <r_mmod_Potential_Energy-OPLS-2005>
173.905746459961

> <r_mmod_Stretch_Energy-OPLS-2005>
155.031387329102

> <r_mmod_Bend_Energy-OPLS-2005>
242.421157836914

> <r_mmod_Torsional_Energy-OPLS-2005>
218.690856933594

> <r_mmod_Improper_Torsional_Energy-OPLS-2005>
4.72931718826294

> <r_mmod_Van_der_Waal_Energy-OPLS-2005>
119.290809631348

> <r_mmod_Electrostatic_Energy-OPLS-2005>
-427.789886474609

> <r_mmod_Solvation_Energy-OPLS-2005>
-248.827850341797

> <b_mmod_Minimization_Converged-OPLS-2005>
0

> <r_mmod_RMS_Derivative-OPLS-2005>
0.638473272323608

$$$$
84
                    3D
 Structure written by MMmdl.
156164  0  0  1  0            999 V2000
  -30.6655  -14.6539   20.4752 C   0  0  0  0  0  0
  -30.4201  -12.4021   19.4600 C   0  0  0  0  0  0
  -29.5004  -12.4948   18.2249 C   0  0  0  0  0  0
  -28.0254  -12.3357   18.6404 C   0  0  0  0  0  0
  -27.6428  -13.2286   19.8517 C   0  0  2  0  0  0
  -28.6887  -13.1428   20.9849 C   0  0  0  0  0  0
  -25.2520  -13.8202   20.5709 C   0  0  0  0  0  0
  -24.1808  -13.0449   20.9221 C   0  0  0  0  0  0
  -24.6392  -11.6924   20.8758 C   0  0  0  0  0  0
  -23.9070  -10.4298   21.0411 C   0  0  0  0  0  0
  -24.3621   -9.4211   21.9186 C   0  0  0  0  0  0
  -23.6295   -8.2246   22.0754 C   0  0  0  0  0  0
  -22.4278   -8.0283   21.3544 C   0  0  0  0  0  0
  -21.9915   -9.0259   20.4648 C   0  0  0  0  0  0
  -22.7244  -10.2138   20.3060 C   0  0  0  0  0  0
  -21.6855   -6.0737   22.5278 C   0  0  0  0  0  0
  -21.4015   -6.5640   23.8212 C   0  0  0  0  0  0
  -21.3660   -5.6792   24.9174 C   0  0  0  0  0  0
  -21.6044   -4.3055   24.7224 C   0  0  0  0  0  0
  -21.8819   -3.8148   23.4345 C   0  0  0  0  0  0
  -21.9193   -4.6965   22.3401 C   0  0  0  0  0  0
  -22.7829  -13.5232   21.1872 C   0  0  0  0  0  0
  -22.1661   -4.2151   21.0979 F   0  0  0  0  0  0
  -21.5628   -3.4539   25.7736 F   0  0  0  0  0  0
  -29.9960  -13.4607   20.3998 N   0  0  0  0  0  0
  -26.2942  -12.9404   20.3296 N   0  0  0  0  0  0
  -25.9321  -11.6548   20.5764 N   0  0  0  0  0  0
  -22.0471  -12.8218   22.0422 N   0  0  0  0  0  0
  -25.4212  -15.1926   20.4113 N   0  0  0  0  0  0
  -31.8568  -14.7216   20.1660 O   0  0  0  0  0  0
  -21.6642   -6.8880   21.4240 O   0  0  0  0  0  0
  -22.3514  -14.5535   20.6713 O   0  0  0  0  0  0
  -24.6263  -31.8594   23.2025 C   0  0  0  0  0  0
  -25.9110  -32.4778   23.8355 C   0  0  1  0  0  0
  -27.2178  -27.3167   20.1260 C   0  0  0  0  0  0
  -25.5924  -33.8578   24.2283 N   0  0  0  0  0  0
  -23.4205  -30.4829   21.5446 C   0  0  2  0  0  0
  -24.8682  -28.9381   20.1099 C   0  0  0  0  0  0
  -22.7475  -29.4623   22.4931 C   0  0  0  0  0  0
  -18.0285  -28.1386   22.8486 C   0  0  0  0  0  0
  -24.1489  -36.7294   23.2639 C   0  0  0  0  0  0
  -25.9617  -30.7904   21.3738 C   0  0  0  0  0  0
  -26.0372  -29.4175   20.7166 C   0  0  0  0  0  0
  -27.2197  -28.6186   20.7140 C   0  0  0  0  0  0
  -26.0346  -26.8941   19.4852 C   0  0  0  0  0  0
  -24.8688  -27.6820   19.4833 C   0  0  0  0  0  0
  -23.6358  -29.8180   20.1597 C   0  0  0  0  0  0
  -25.4113  -36.3083   24.0330 C   0  0  1  0  0  0
  -20.5886  -28.3691   23.1281 C   0  0  2  0  0  0
  -20.6775  -26.9414   22.5410 C   0  0  0  0  0  0
  -19.5751  -26.6385   21.5212 C   0  0  0  0  0  0
  -18.1930  -26.7929   22.1623 C   0  0  0  0  0  0
  -19.1538  -28.8855   23.2879 C   0  0  0  0  0  0
  -18.9460  -30.1456   23.8898 C   0  0  0  0  0  0
  -17.6461  -30.6589   24.0564 C   0  0  0  0  0  0
  -25.9049  -34.9452   23.5107 C   0  0  0  0  0  0
  -16.5352  -29.9087   23.6332 C   0  0  0  0  0  0
  -16.7272  -28.6504   23.0354 C   0  0  0  0  0  0
  -26.4496  -31.6587   25.0724 C   0  0  0  0  0  0
  -25.3731  -31.3721   26.1453 C   0  0  0  0  0  0
  -27.0340  -30.3011   24.6179 C   0  0  0  0  0  0
  -27.6054  -32.4323   25.7495 C   0  0  0  0  0  0
  -27.5580  -37.1802   24.8464 C   0  0  0  0  0  0
  -21.4188  -29.3045   22.3674 N   0  0  0  0  0  0
  -26.4291  -37.3778   23.9409 N   0  0  0  0  0  0
  -24.6883  -31.0606   22.0974 N   0  0  0  0  0  0
  -23.4195  -28.8161   23.3013 O   0  0  0  0  0  0
  -28.3019  -26.4308   20.1640 O   0  0  0  0  0  0
  -26.5617  -34.8919   22.4673 O   0  0  0  0  0  0
  -23.5426  -32.1391   23.7352 O   0  0  0  0  0  0
  -29.7754  -20.7838   19.7284 C   0  0  0  0  0  0
  -29.8011  -18.5693   20.5772 C   0  0  0  0  0  0
  -28.8925  -21.2464   20.7444 C   0  0  0  0  0  0
  -28.8876  -18.9990   21.5873 C   0  0  0  0  0  0
  -27.4993  -18.0404   23.4259 C   0  0  0  0  0  0
  -28.7410  -23.8232   20.2682 C   0  0  0  0  0  0
  -27.3597  -16.8116   24.3171 C   0  0  0  0  0  0
  -30.5756  -17.1868   20.5564 C   0  0  0  0  0  0
  -28.0282  -25.1271   20.8244 C   0  0  0  0  0  0
  -30.2136  -19.4855   19.6501 N   0  0  0  0  0  0
  -28.4552  -20.3069   21.6373 N   0  0  0  0  0  0
  -28.4444  -22.6339   20.8899 N   0  0  0  0  0  0
  -28.5169  -18.0246   22.5499 N   0  0  0  0  0  0
  -29.9525  -15.8128   20.6754 N   0  0  0  0  0  0
  -26.6873  -18.9606   23.5461 O   0  0  0  0  0  0
  -29.5220  -23.9051   19.3163 O   0  0  0  0  0  0
  -31.4643  -12.5014   19.1583 H   0  0  0  0  0  0
  -30.3386  -11.4212   19.9310 H   0  0  0  0  0  0
  -29.7680  -11.7291   17.4956 H   0  0  0  0  0  0
  -29.6427  -13.4557   17.7277 H   0  0  0  0  0  0
  -27.8686  -11.2860   18.8914 H   0  0  0  0  0  0
  -27.3696  -12.5455   17.7947 H   0  0  0  0  0  0
  -27.6445  -14.2541   19.4817 H   0  0  0  0  0  0
  -28.7036  -12.1451   21.4259 H   0  0  0  0  0  0
  -28.4410  -13.8315   21.7943 H   0  0  0  0  0  0
  -25.2766   -9.5686   22.4762 H   0  0  0  0  0  0
  -24.0005   -7.4637   22.7473 H   0  0  0  0  0  0
  -21.0846   -8.8778   19.8952 H   0  0  0  0  0  0
  -22.3702  -10.9678   19.6169 H   0  0  0  0  0  0
  -21.2009   -7.6148   23.9716 H   0  0  0  0  0  0
  -21.1481   -6.0523   25.9076 H   0  0  0  0  0  0
  -22.0598   -2.7611   23.2844 H   0  0  0  0  0  0
  -22.4086  -11.9880   22.4811 H   0  0  0  0  0  0
  -21.1087  -13.1239   22.2623 H   0  0  0  0  0  0
  -24.6453  -15.8388   20.5054 H   0  0  0  0  0  0
  -26.2512  -15.6269   20.0301 H   0  0  0  0  0  0
  -26.7178  -32.5449   23.1106 H   0  0  0  0  0  0
  -25.0076  -33.9724   25.0430 H   0  0  0  0  0  0
  -22.7146  -31.3036   21.4013 H   0  0  0  0  0  0
  -23.3751  -35.9626   23.3301 H   0  0  0  0  0  0
  -24.3582  -36.8914   22.2054 H   0  0  0  0  0  0
  -23.7241  -37.6495   23.6661 H   0  0  0  0  0  0
  -26.0925  -31.5537   20.6055 H   0  0  0  0  0  0
  -26.8422  -30.8399   22.0028 H   0  0  0  0  0  0
  -28.1161  -28.9780   21.1997 H   0  0  0  0  0  0
  -26.0024  -25.9291   18.9992 H   0  0  0  0  0  0
  -23.9745  -27.3110   19.0014 H   0  0  0  0  0  0
  -23.7545  -30.5946   19.4033 H   0  0  0  0  0  0
  -22.7560  -29.2471   19.8574 H   0  0  0  0  0  0
  -25.1294  -36.1936   25.0822 H   0  0  0  0  0  0
  -20.9978  -28.3268   24.1401 H   0  0  0  0  0  0
  -20.5677  -26.2302   23.3611 H   0  0  0  0  0  0
  -21.6644  -26.7445   22.1202 H   0  0  0  0  0  0
  -19.6914  -25.6295   21.1243 H   0  0  0  0  0  0
  -19.6689  -27.3194   20.6742 H   0  0  0  0  0  0
  -17.4200  -26.6676   21.4025 H   0  0  0  0  0  0
  -18.0331  -26.0070   22.9019 H   0  0  0  0  0  0
  -19.7937  -30.7272   24.2268 H   0  0  0  0  0  0
  -17.5016  -31.6270   24.5163 H   0  0  0  0  0  0
  -15.5353  -30.2990   23.7656 H   0  0  0  0  0  0
  -15.8670  -28.0823   22.7073 H   0  0  0  0  0  0
  -24.5911  -30.7064   25.7783 H   0  0  0  0  0  0
  -24.8918  -32.2885   26.4879 H   0  0  0  0  0  0
  -25.8060  -30.8901   27.0227 H   0  0  0  0  0  0
  -26.2916  -29.6758   24.1206 H   0  0  0  0  0  0
  -27.4041  -29.7269   25.4684 H   0  0  0  0  0  0
  -27.8783  -30.4297   23.9402 H   0  0  0  0  0  0
  -27.2665  -33.3624   26.2070 H   0  0  0  0  0  0
  -28.3867  -32.6881   25.0325 H   0  0  0  0  0  0
  -28.0720  -31.8450   26.5414 H   0  0  0  0  0  0
  -28.2594  -38.0102   24.7516 H   0  0  0  0  0  0
  -28.1079  -36.2634   24.6285 H   0  0  0  0  0  0
  -27.2299  -37.1442   25.8867 H   0  0  0  0  0  0
  -20.9365  -29.8768   21.6885 H   0  0  0  0  0  0
  -26.0172  -38.2852   24.1413 H   0  0  0  0  0  0
  -30.1596  -21.4539   18.9741 H   0  0  0  0  0  0
  -28.0045  -15.9953   23.9908 H   0  0  0  0  0  0
  -26.3307  -16.4518   24.3031 H   0  0  0  0  0  0
  -27.6203  -17.0630   25.3452 H   0  0  0  0  0  0
  -31.3223  -17.2580   21.3488 H   0  0  0  0  0  0
  -31.1566  -17.1812   19.6322 H   0  0  0  0  0  0
  -28.3334  -25.2366   21.8654 H   0  0  0  0  0  0
  -26.9606  -24.9098   20.8643 H   0  0  0  0  0  0
  -27.7869  -22.7534   21.6461 H   0  0  0  0  0  0
  -29.0818  -17.1889   22.5561 H   0  0  0  0  0  0
  -28.9544  -15.7387   20.7923 H   0  0  0  0  0  0
  1 25  1  0  0  0
  1 30  2  0  0  0
  1 84  1  0  0  0
  2  3  1  0  0  0
  2 25  1  0  0  0
  2 87  1  0  0  0
  2 88  1  0  0  0
  3  4  1  0  0  0
  3 89  1  0  0  0
  3 90  1  0  0  0
  4  5  1  0  0  0
  4 91  1  0  0  0
  4 92  1  0  0  0
  5  6  1  0  0  0
  5 26  1  0  0  0
  5 93  1  0  0  0
  6 25  1  0  0  0
  6 94  1  0  0  0
  6 95  1  0  0  0
  7  8  2  0  0  0
  7 26  1  0  0  0
  7 29  1  0  0  0
  8  9  1  0  0  0
  8 22  1  0  0  0
  9 10  1  0  0  0
  9 27  2  0  0  0
 10 11  2  0  0  0
 10 15  1  0  0  0
 11 12  1  0  0  0
 11 96  1  0  0  0
 12 13  2  0  0  0
 12 97  1  0  0  0
 13 14  1  0  0  0
 13 31  1  0  0  0
 14 15  2  0  0  0
 14 98  1  0  0  0
 15 99  1  0  0  0
 16 17  2  0  0  0
 16 21  1  0  0  0
 16 31  1  0  0  0
 17 18  1  0  0  0
 17100  1  0  0  0
 18 19  2  0  0  0
 18101  1  0  0  0
 19 20  1  0  0  0
 19 24  1  0  0  0
 20 21  2  0  0  0
 20102  1  0  0  0
 21 23  1  0  0  0
 22 28  1  0  0  0
 22 32  2  0  0  0
 26 27  1  0  0  0
 28103  1  0  0  0
 28104  1  0  0  0
 29105  1  0  0  0
 29106  1  0  0  0
 33 34  1  0  0  0
 33 66  1  0  0  0
 33 70  2  0  0  0
 34 36  1  0  0  0
 34 59  1  0  0  0
 34107  1  0  0  0
 35 44  2  0  0  0
 35 45  1  0  0  0
 35 68  1  0  0  0
 36 56  1  0  0  0
 36108  1  0  0  0
 37 39  1  0  0  0
 37 47  1  0  0  0
 37 66  1  0  0  0
 37109  1  0  0  0
 38 43  2  0  0  0
 38 46  1  0  0  0
 38 47  1  0  0  0
 39 64  1  0  0  0
 39 67  2  0  0  0
 40 52  1  0  0  0
 40 53  2  0  0  0
 40 58  1  0  0  0
 41110  1  0  0  0
 41111  1  0  0  0
 41112  1  0  0  0
 41 48  1  0  0  0
 42 43  1  0  0  0
 42 66  1  0  0  0
 42113  1  0  0  0
 42114  1  0  0  0
 43 44  1  0  0  0
 44115  1  0  0  0
 45 46  2  0  0  0
 45116  1  0  0  0
 46117  1  0  0  0
 47118  1  0  0  0
 47119  1  0  0  0
 48 56  1  0  0  0
 48 65  1  0  0  0
 48120  1  0  0  0
 49 50  1  0  0  0
 49 53  1  0  0  0
 49 64  1  0  0  0
 49121  1  0  0  0
 50 51  1  0  0  0
 50122  1  0  0  0
 50123  1  0  0  0
 51 52  1  0  0  0
 51124  1  0  0  0
 51125  1  0  0  0
 52126  1  0  0  0
 52127  1  0  0  0
 53 54  1  0  0  0
 54 55  2  0  0  0
 54128  1  0  0  0
 55 57  1  0  0  0
 55129  1  0  0  0
 56 69  2  0  0  0
 57 58  2  0  0  0
 57130  1  0  0  0
 58131  1  0  0  0
 59 60  1  0  0  0
 59 61  1  0  0  0
 59 62  1  0  0  0
 60132  1  0  0  0
 60133  1  0  0  0
 60134  1  0  0  0
 61135  1  0  0  0
 61136  1  0  0  0
 61137  1  0  0  0
 62138  1  0  0  0
 62139  1  0  0  0
 62140  1  0  0  0
 63 65  1  0  0  0
 63141  1  0  0  0
 63142  1  0  0  0
 63143  1  0  0  0
 64144  1  0  0  0
 65145  1  0  0  0
 68 79  1  0  0  0
 71 73  2  0  0  0
 71 80  1  0  0  0
 71146  1  0  0  0
 72 74  1  0  0  0
 72 78  1  0  0  0
 72 80  2  0  0  0
 73 81  1  0  0  0
 73 82  1  0  0  0
 74 81  2  0  0  0
 74 83  1  0  0  0
 75 77  1  0  0  0
 75 83  1  0  0  0
 75 85  2  0  0  0
 76 79  1  0  0  0
 76 82  1  0  0  0
 76 86  2  0  0  0
 77147  1  0  0  0
 77148  1  0  0  0
 77149  1  0  0  0
 78 84  1  0  0  0
 78150  1  0  0  0
 78151  1  0  0  0
 79152  1  0  0  0
 79153  1  0  0  0
 82154  1  0  0  0
 83155  1  0  0  0
 84156  1  0  0  0
M  ISO  4   1 100  68 101  79 101  84 100
M  END
> <chiral flag>
0

> <version>
0

> <s_m_source_file>
/data/baiqing/PycharmProjects/Reinvent-master-3.2/result/LINK_invent/BTK/process_docking_weight1_custom_product_contain_oxygen_bond_distance_aromatic_linkinvent_7_9_3/rearranged_h_0199.sdf

> <i_m_source_file_index>
85

> <r_mmod_Potential_Energy-OPLS-2005>
-36.3891792297363

> <r_mmod_Stretch_Energy-OPLS-2005>
87.0662155151367

> <r_mmod_Bend_Energy-OPLS-2005>
169.426849365234

> <r_mmod_Torsional_Energy-OPLS-2005>
233.539123535156

> <r_mmod_Improper_Torsional_Energy-OPLS-2005>
6.26086282730103

> <r_mmod_Van_der_Waal_Energy-OPLS-2005>
143.362854003906

> <r_mmod_Electrostatic_Energy-OPLS-2005>
-447.527130126953

> <r_mmod_Solvation_Energy-OPLS-2005>
-286.139892578125

> <b_mmod_Minimization_Converged-OPLS-2005>
0

> <r_mmod_RMS_Derivative-OPLS-2005>
0.220528945326805

$$$$
85
                    3D
 Structure written by MMmdl.
156164  0  0  1  0            999 V2000
  -30.5773  -14.6635   20.4861 C   0  0  0  0  0  0
  -30.4323  -12.4040   19.4543 C   0  0  0  0  0  0
  -29.5143  -12.5496   18.2186 C   0  0  0  0  0  0
  -28.0260  -12.4026   18.6042 C   0  0  0  0  0  0
  -27.6479  -13.2301   19.8625 C   0  0  2  0  0  0
  -28.6883  -13.0510   20.9905 C   0  0  0  0  0  0
  -25.2506  -13.8188   20.5679 C   0  0  0  0  0  0
  -24.1801  -13.0432   20.9200 C   0  0  0  0  0  0
  -24.6395  -11.6907   20.8711 C   0  0  0  0  0  0
  -23.9070  -10.4283   21.0388 C   0  0  0  0  0  0
  -24.3633   -9.4215   21.9167 C   0  0  0  0  0  0
  -23.6324   -8.2243   22.0726 C   0  0  0  0  0  0
  -22.4312   -8.0285   21.3531 C   0  0  0  0  0  0
  -21.9944   -9.0249   20.4639 C   0  0  0  0  0  0
  -22.7254  -10.2134   20.3035 C   0  0  0  0  0  0
  -21.6859   -6.0759   22.5293 C   0  0  0  0  0  0
  -21.4013   -6.5651   23.8231 C   0  0  0  0  0  0
  -21.3651   -5.6796   24.9182 C   0  0  0  0  0  0
  -21.6048   -4.3064   24.7221 C   0  0  0  0  0  0
  -21.8808   -3.8163   23.4336 C   0  0  0  0  0  0
  -21.9181   -4.6985   22.3406 C   0  0  0  0  0  0
  -22.7831  -13.5218   21.1869 C   0  0  0  0  0  0
  -22.1659   -4.2179   21.0978 F   0  0  0  0  0  0
  -21.5624   -3.4537   25.7720 F   0  0  0  0  0  0
  -30.0019  -13.4148   20.4414 N   0  0  0  0  0  0
  -26.2932  -12.9390   20.3259 N   0  0  0  0  0  0
  -25.9315  -11.6526   20.5673 N   0  0  0  0  0  0
  -22.0466  -12.8212   22.0416 N   0  0  0  0  0  0
  -25.4175  -15.1926   20.4114 N   0  0  0  0  0  0
  -31.7412  -14.8282   20.0993 O   0  0  0  0  0  0
  -21.6644   -6.8904   21.4264 O   0  0  0  0  0  0
  -22.3497  -14.5516   20.6692 O   0  0  0  0  0  0
  -24.6252  -31.8623   23.2004 C   0  0  0  0  0  0
  -25.9102  -32.4798   23.8329 C   0  0  1  0  0  0
  -27.2218  -27.3255   20.1255 C   0  0  0  0  0  0
  -25.5929  -33.8591   24.2254 N   0  0  0  0  0  0
  -23.4179  -30.4857   21.5434 C   0  0  2  0  0  0
  -24.8630  -28.9325   20.1150 C   0  0  0  0  0  0
  -22.7459  -29.4657   22.4933 C   0  0  0  0  0  0
  -18.0290  -28.1381   22.8497 C   0  0  0  0  0  0
  -24.1488  -36.7296   23.2635 C   0  0  0  0  0  0
  -25.9545  -30.7969   21.3647 C   0  0  0  0  0  0
  -26.0321  -29.4214   20.7128 C   0  0  0  0  0  0
  -27.2182  -28.6316   20.7040 C   0  0  0  0  0  0
  -26.0353  -26.8827   19.5068 C   0  0  0  0  0  0
  -24.8653  -27.6663   19.5064 C   0  0  0  0  0  0
  -23.6318  -29.8151   20.1608 C   0  0  0  0  0  0
  -25.4118  -36.3086   24.0327 C   0  0  1  0  0  0
  -20.5888  -28.3692   23.1284 C   0  0  2  0  0  0
  -20.6787  -26.9414   22.5419 C   0  0  0  0  0  0
  -19.5763  -26.6371   21.5222 C   0  0  0  0  0  0
  -18.1941  -26.7937   22.1619 C   0  0  0  0  0  0
  -19.1543  -28.8858   23.2888 C   0  0  0  0  0  0
  -18.9462  -30.1456   23.8903 C   0  0  0  0  0  0
  -17.6462  -30.6592   24.0562 C   0  0  0  0  0  0
  -25.9060  -34.9469   23.5083 C   0  0  0  0  0  0
  -16.5353  -29.9094   23.6316 C   0  0  0  0  0  0
  -16.7274  -28.6506   23.0353 C   0  0  0  0  0  0
  -26.4465  -31.6607   25.0707 C   0  0  0  0  0  0
  -25.3677  -31.3759   26.1420 C   0  0  0  0  0  0
  -27.0327  -30.3049   24.6151 C   0  0  0  0  0  0
  -27.6010  -32.4343   25.7511 C   0  0  0  0  0  0
  -27.5578  -37.1815   24.8448 C   0  0  0  0  0  0
  -21.4174  -29.3056   22.3676 N   0  0  0  0  0  0
  -26.4280  -37.3786   23.9414 N   0  0  0  0  0  0
  -24.6854  -31.0647   22.0937 N   0  0  0  0  0  0
  -23.4192  -28.8217   23.3021 O   0  0  0  0  0  0
  -28.3359  -26.4802   20.1220 O   0  0  0  0  0  0
  -26.5603  -34.8940   22.4633 O   0  0  0  0  0  0
  -23.5422  -32.1412   23.7332 O   0  0  0  0  0  0
  -29.3239  -19.2464   21.4440 C   0  0  0  0  0  0
  -29.2723  -19.8409   20.1530 C   0  0  0  0  0  0
  -29.4415  -18.8662   19.1284 C   0  0  0  0  0  0
  -29.7363  -17.0922   20.6192 C   0  0  0  0  0  0
  -29.3425  -19.2661   17.6667 C   0  0  0  0  0  0
  -30.0425  -22.5907   21.6820 C   0  0  0  0  0  0
  -28.6406  -23.8213   19.9075 C   0  0  0  0  0  0
  -28.1876  -25.1284   20.7134 C   0  0  0  0  0  0
  -28.8610  -22.4348   20.7051 C   0  0  1  0  0  0
  -29.5295  -17.9096   21.6580 N   0  0  0  0  0  0
  -29.6682  -17.5402   19.3615 N   0  0  0  0  0  0
  -29.0679  -21.2369   19.8236 N   0  0  0  0  0  0
  -29.7583  -15.7010   20.8719 N   0  0  0  0  0  0
  -31.4791  -12.5299   19.1691 H   0  0  0  0  0  0
  -30.3542  -11.3976   19.8686 H   0  0  0  0  0  0
  -29.7844  -11.8230   17.4519 H   0  0  0  0  0  0
  -29.6741  -13.5318   17.7712 H   0  0  0  0  0  0
  -27.8243  -11.3467   18.7808 H   0  0  0  0  0  0
  -27.3947  -12.6989   17.7635 H   0  0  0  0  0  0
  -27.6705  -14.2752   19.5567 H   0  0  0  0  0  0
  -28.6964  -12.0134   21.3259 H   0  0  0  0  0  0
  -28.4357  -13.6464   21.8676 H   0  0  0  0  0  0
  -25.2775   -9.5701   22.4721 H   0  0  0  0  0  0
  -24.0049   -7.4626   22.7437 H   0  0  0  0  0  0
  -21.0864   -8.8760   19.8952 H   0  0  0  0  0  0
  -22.3705  -10.9658   19.6137 H   0  0  0  0  0  0
  -21.2012   -7.6162   23.9759 H   0  0  0  0  0  0
  -21.1492   -6.0510   25.9088 H   0  0  0  0  0  0
  -22.0593   -2.7631   23.2815 H   0  0  0  0  0  0
  -22.4069  -11.9898   22.4872 H   0  0  0  0  0  0
  -21.1058  -13.1208   22.2539 H   0  0  0  0  0  0
  -24.6449  -15.8408   20.5157 H   0  0  0  0  0  0
  -26.2470  -15.6321   20.0348 H   0  0  0  0  0  0
  -26.7181  -32.5481   23.1091 H   0  0  0  0  0  0
  -25.0094  -33.9707   25.0419 H   0  0  0  0  0  0
  -22.7124  -31.3071   21.3998 H   0  0  0  0  0  0
  -23.3756  -35.9616   23.3276 H   0  0  0  0  0  0
  -24.3584  -36.8945   22.2057 H   0  0  0  0  0  0
  -23.7236  -37.6494   23.6673 H   0  0  0  0  0  0
  -26.0740  -31.5602   20.5950 H   0  0  0  0  0  0
  -26.8401  -30.8553   21.9866 H   0  0  0  0  0  0
  -28.1195  -29.0076   21.1679 H   0  0  0  0  0  0
  -26.0104  -25.9127   19.0323 H   0  0  0  0  0  0
  -23.9663  -27.2834   19.0430 H   0  0  0  0  0  0
  -23.7542  -30.5908   19.4043 H   0  0  0  0  0  0
  -22.7519  -29.2481   19.8555 H   0  0  0  0  0  0
  -25.1302  -36.1928   25.0812 H   0  0  0  0  0  0
  -20.9976  -28.3282   24.1409 H   0  0  0  0  0  0
  -20.5707  -26.2303   23.3625 H   0  0  0  0  0  0
  -21.6659  -26.7482   22.1214 H   0  0  0  0  0  0
  -19.6936  -25.6274   21.1280 H   0  0  0  0  0  0
  -19.6724  -27.3160   20.6742 H   0  0  0  0  0  0
  -17.4229  -26.6691   21.3995 H   0  0  0  0  0  0
  -18.0329  -26.0072   22.9008 H   0  0  0  0  0  0
  -19.7935  -30.7265   24.2286 H   0  0  0  0  0  0
  -17.5023  -31.6283   24.5154 H   0  0  0  0  0  0
  -15.5353  -30.3001   23.7652 H   0  0  0  0  0  0
  -15.8671  -28.0832   22.7053 H   0  0  0  0  0  0
  -24.5817  -30.7159   25.7721 H   0  0  0  0  0  0
  -24.8896  -32.2941   26.4848 H   0  0  0  0  0  0
  -25.7959  -30.8904   27.0199 H   0  0  0  0  0  0
  -26.2918  -29.6820   24.1122 H   0  0  0  0  0  0
  -27.3999  -29.7284   25.4653 H   0  0  0  0  0  0
  -27.8786  -30.4366   23.9395 H   0  0  0  0  0  0
  -27.2593  -33.3627   26.2096 H   0  0  0  0  0  0
  -28.3832  -32.6937   25.0366 H   0  0  0  0  0  0
  -28.0663  -31.8468   26.5437 H   0  0  0  0  0  0
  -28.2567  -38.0134   24.7536 H   0  0  0  0  0  0
  -28.1102  -36.2680   24.6224 H   0  0  0  0  0  0
  -27.2303  -37.1408   25.8843 H   0  0  0  0  0  0
  -20.9334  -29.8757   21.6882 H   0  0  0  0  0  0
  -26.0159  -38.2859   24.1421 H   0  0  0  0  0  0
  -29.1820  -19.8405   22.3338 H   0  0  0  0  0  0
  -30.0977  -20.0120   17.4211 H   0  0  0  0  0  0
  -28.3625  -19.6970   17.4626 H   0  0  0  0  0  0
  -29.4785  -18.4152   17.0019 H   0  0  0  0  0  0
  -29.7741  -23.2464   22.5120 H   0  0  0  0  0  0
  -30.9123  -23.0267   21.1864 H   0  0  0  0  0  0
  -30.3675  -21.6526   22.1284 H   0  0  0  0  0  0
  -29.5614  -24.0661   19.3755 H   0  0  0  0  0  0
  -27.8984  -23.6693   19.1230 H   0  0  0  0  0  0
  -28.7777  -25.1742   21.6277 H   0  0  0  0  0  0
  -27.1627  -24.9723   21.0520 H   0  0  0  0  0  0
  -27.9537  -22.2392   21.2839 H   0  0  0  0  0  0
  -28.9648  -21.4347   18.8296 H   0  0  0  0  0  0
  -28.9208  -15.3794   21.3262 H   0  0  0  0  0  0
  1 25  1  0  0  0
  1 30  2  0  0  0
  1 83  1  0  0  0
  2  3  1  0  0  0
  2 25  1  0  0  0
  2 84  1  0  0  0
  2 85  1  0  0  0
  3  4  1  0  0  0
  3 86  1  0  0  0
  3 87  1  0  0  0
  4  5  1  0  0  0
  4 88  1  0  0  0
  4 89  1  0  0  0
  5  6  1  0  0  0
  5 26  1  0  0  0
  5 90  1  0  0  0
  6 25  1  0  0  0
  6 91  1  0  0  0
  6 92  1  0  0  0
  7  8  2  0  0  0
  7 26  1  0  0  0
  7 29  1  0  0  0
  8  9  1  0  0  0
  8 22  1  0  0  0
  9 10  1  0  0  0
  9 27  2  0  0  0
 10 11  2  0  0  0
 10 15  1  0  0  0
 11 12  1  0  0  0
 11 93  1  0  0  0
 12 13  2  0  0  0
 12 94  1  0  0  0
 13 14  1  0  0  0
 13 31  1  0  0  0
 14 15  2  0  0  0
 14 95  1  0  0  0
 15 96  1  0  0  0
 16 17  2  0  0  0
 16 21  1  0  0  0
 16 31  1  0  0  0
 17 18  1  0  0  0
 17 97  1  0  0  0
 18 19  2  0  0  0
 18 98  1  0  0  0
 19 20  1  0  0  0
 19 24  1  0  0  0
 20 21  2  0  0  0
 20 99  1  0  0  0
 21 23  1  0  0  0
 22 28  1  0  0  0
 22 32  2  0  0  0
 26 27  1  0  0  0
 28100  1  0  0  0
 28101  1  0  0  0
 29102  1  0  0  0
 29103  1  0  0  0
 33 34  1  0  0  0
 33 66  1  0  0  0
 33 70  2  0  0  0
 34 36  1  0  0  0
 34 59  1  0  0  0
 34104  1  0  0  0
 35 44  2  0  0  0
 35 45  1  0  0  0
 35 68  1  0  0  0
 36 56  1  0  0  0
 36105  1  0  0  0
 37 39  1  0  0  0
 37 47  1  0  0  0
 37 66  1  0  0  0
 37106  1  0  0  0
 38 43  2  0  0  0
 38 46  1  0  0  0
 38 47  1  0  0  0
 39 64  1  0  0  0
 39 67  2  0  0  0
 40 52  1  0  0  0
 40 53  2  0  0  0
 40 58  1  0  0  0
 41107  1  0  0  0
 41108  1  0  0  0
 41109  1  0  0  0
 41 48  1  0  0  0
 42 43  1  0  0  0
 42 66  1  0  0  0
 42110  1  0  0  0
 42111  1  0  0  0
 43 44  1  0  0  0
 44112  1  0  0  0
 45 46  2  0  0  0
 45113  1  0  0  0
 46114  1  0  0  0
 47115  1  0  0  0
 47116  1  0  0  0
 48 56  1  0  0  0
 48 65  1  0  0  0
 48117  1  0  0  0
 49 50  1  0  0  0
 49 53  1  0  0  0
 49 64  1  0  0  0
 49118  1  0  0  0
 50 51  1  0  0  0
 50119  1  0  0  0
 50120  1  0  0  0
 51 52  1  0  0  0
 51121  1  0  0  0
 51122  1  0  0  0
 52123  1  0  0  0
 52124  1  0  0  0
 53 54  1  0  0  0
 54 55  2  0  0  0
 54125  1  0  0  0
 55 57  1  0  0  0
 55126  1  0  0  0
 56 69  2  0  0  0
 57 58  2  0  0  0
 57127  1  0  0  0
 58128  1  0  0  0
 59 60  1  0  0  0
 59 61  1  0  0  0
 59 62  1  0  0  0
 60129  1  0  0  0
 60130  1  0  0  0
 60131  1  0  0  0
 61132  1  0  0  0
 61133  1  0  0  0
 61134  1  0  0  0
 62135  1  0  0  0
 62136  1  0  0  0
 62137  1  0  0  0
 63 65  1  0  0  0
 63138  1  0  0  0
 63139  1  0  0  0
 63140  1  0  0  0
 64141  1  0  0  0
 65142  1  0  0  0
 68 78  1  0  0  0
 71 72  2  0  0  0
 71 80  1  0  0  0
 71143  1  0  0  0
 72 73  1  0  0  0
 72 82  1  0  0  0
 73 75  1  0  0  0
 73 81  2  0  0  0
 74 80  2  0  0  0
 74 81  1  0  0  0
 74 83  1  0  0  0
 75144  1  0  0  0
 75145  1  0  0  0
 75146  1  0  0  0
 76147  1  0  0  0
 76148  1  0  0  0
 76149  1  0  0  0
 76 79  1  0  0  0
 77 78  1  0  0  0
 77 79  1  0  0  0
 77150  1  0  0  0
 77151  1  0  0  0
 78152  1  0  0  0
 78153  1  0  0  0
 79 82  1  0  0  0
 79154  1  0  0  0
 82155  1  0  0  0
 83156  1  0  0  0
M  ISO  4   1 100  68 101  78 101  83 100
M  END
> <chiral flag>
0

> <version>
0

> <s_m_source_file>
/data/baiqing/PycharmProjects/Reinvent-master-3.2/result/LINK_invent/BTK/process_docking_weight1_custom_product_contain_oxygen_bond_distance_aromatic_linkinvent_7_9_3/rearranged_h_0199.sdf

> <i_m_source_file_index>
86

> <r_mmod_Potential_Energy-OPLS-2005>
-270.218872070312

> <r_mmod_Stretch_Energy-OPLS-2005>
83.5459671020508

> <r_mmod_Bend_Energy-OPLS-2005>
166.98583984375

> <r_mmod_Torsional_Energy-OPLS-2005>
241.716506958008

> <r_mmod_Improper_Torsional_Energy-OPLS-2005>
5.13309812545776

> <r_mmod_Van_der_Waal_Energy-OPLS-2005>
144.796310424805

> <r_mmod_Electrostatic_Energy-OPLS-2005>
-728.582702636719

> <r_mmod_Solvation_Energy-OPLS-2005>
-233.866958618164

> <b_mmod_Minimization_Converged-OPLS-2005>
0

> <r_mmod_RMS_Derivative-OPLS-2005>
4.12897872924805

$$$$
86
                    3D
 Structure written by MMmdl.
156164  0  0  1  0            999 V2000
  -30.6264  -14.6524   20.4933 C   0  0  0  0  0  0
  -30.4373  -12.3978   19.4550 C   0  0  0  0  0  0
  -29.5073  -12.5038   18.2257 C   0  0  0  0  0  0
  -28.0313  -12.3387   18.6392 C   0  0  0  0  0  0
  -27.6515  -13.2161   19.8612 C   0  0  2  0  0  0
  -28.6976  -13.0858   20.9924 C   0  0  0  0  0  0
  -25.2553  -13.8162   20.5680 C   0  0  0  0  0  0
  -24.1828  -13.0431   20.9210 C   0  0  0  0  0  0
  -24.6393  -11.6901   20.8749 C   0  0  0  0  0  0
  -23.9057  -10.4287   21.0409 C   0  0  0  0  0  0
  -24.3610   -9.4204   21.9185 C   0  0  0  0  0  0
  -23.6289   -8.2236   22.0751 C   0  0  0  0  0  0
  -22.4271   -8.0274   21.3543 C   0  0  0  0  0  0
  -21.9907   -9.0247   20.4645 C   0  0  0  0  0  0
  -22.7230  -10.2129   20.3057 C   0  0  0  0  0  0
  -21.6853   -6.0729   22.5277 C   0  0  0  0  0  0
  -21.4012   -6.5635   23.8209 C   0  0  0  0  0  0
  -21.3662   -5.6789   24.9173 C   0  0  0  0  0  0
  -21.6046   -4.3049   24.7225 C   0  0  0  0  0  0
  -21.8821   -3.8139   23.4345 C   0  0  0  0  0  0
  -21.9192   -4.6957   22.3401 C   0  0  0  0  0  0
  -22.7851  -13.5225   21.1868 C   0  0  0  0  0  0
  -22.1662   -4.2140   21.0981 F   0  0  0  0  0  0
  -21.5631   -3.4535   25.7739 F   0  0  0  0  0  0
  -30.0118  -13.4272   20.4253 N   0  0  0  0  0  0
  -26.2977  -12.9341   20.3308 N   0  0  0  0  0  0
  -25.9320  -11.6499   20.5761 N   0  0  0  0  0  0
  -22.0488  -12.8214   22.0416 N   0  0  0  0  0  0
  -25.4246  -15.1882   20.4050 N   0  0  0  0  0  0
  -31.7986  -14.7913   20.1308 O   0  0  0  0  0  0
  -21.6636   -6.8870   21.4238 O   0  0  0  0  0  0
  -22.3545  -14.5534   20.6713 O   0  0  0  0  0  0
  -24.6259  -31.8602   23.2042 C   0  0  0  0  0  0
  -25.9104  -32.4785   23.8366 C   0  0  1  0  0  0
  -27.2187  -27.3135   20.1191 C   0  0  0  0  0  0
  -25.5924  -33.8586   24.2291 N   0  0  0  0  0  0
  -23.4195  -30.4850   21.5476 C   0  0  2  0  0  0
  -24.8646  -28.9406   20.1146 C   0  0  0  0  0  0
  -22.7473  -29.4618   22.4940 C   0  0  0  0  0  0
  -18.0287  -28.1377   22.8493 C   0  0  0  0  0  0
  -24.1488  -36.7288   23.2640 C   0  0  0  0  0  0
  -25.9620  -30.7881   21.3780 C   0  0  0  0  0  0
  -26.0346  -29.4157   20.7202 C   0  0  0  0  0  0
  -27.2160  -28.6144   20.7124 C   0  0  0  0  0  0
  -26.0287  -26.9018   19.4760 C   0  0  0  0  0  0
  -24.8636  -27.6890   19.4839 C   0  0  0  0  0  0
  -23.6342  -29.8223   20.1624 C   0  0  0  0  0  0
  -25.4115  -36.3087   24.0334 C   0  0  1  0  0  0
  -20.5889  -28.3670   23.1289 C   0  0  2  0  0  0
  -20.6775  -26.9395   22.5412 C   0  0  0  0  0  0
  -19.5754  -26.6381   21.5209 C   0  0  0  0  0  0
  -18.1934  -26.7925   22.1621 C   0  0  0  0  0  0
  -19.1541  -28.8841   23.2887 C   0  0  0  0  0  0
  -18.9464  -30.1447   23.8896 C   0  0  0  0  0  0
  -17.6466  -30.6582   24.0562 C   0  0  0  0  0  0
  -25.9049  -34.9456   23.5112 C   0  0  0  0  0  0
  -16.5357  -29.9079   23.6337 C   0  0  0  0  0  0
  -16.7276  -28.6496   23.0360 C   0  0  0  0  0  0
  -26.4493  -31.6599   25.0736 C   0  0  0  0  0  0
  -25.3729  -31.3738   26.1465 C   0  0  0  0  0  0
  -27.0337  -30.3027   24.6184 C   0  0  0  0  0  0
  -27.6054  -32.4331   25.7502 C   0  0  0  0  0  0
  -27.5582  -37.1801   24.8465 C   0  0  0  0  0  0
  -21.4187  -29.3029   22.3685 N   0  0  0  0  0  0
  -26.4294  -37.3781   23.9411 N   0  0  0  0  0  0
  -24.6880  -31.0613   22.0996 N   0  0  0  0  0  0
  -23.4199  -28.8149   23.3010 O   0  0  0  0  0  0
  -28.3349  -26.4611   20.1448 O   0  0  0  0  0  0
  -26.5611  -34.8919   22.4672 O   0  0  0  0  0  0
  -23.5422  -32.1396   23.7371 O   0  0  0  0  0  0
  -28.7791  -17.9604   20.5811 C   0  0  0  0  0  0
  -29.9487  -19.9695   20.2455 C   0  0  0  0  0  0
  -29.9652  -17.1621   20.6304 C   0  0  0  0  0  0
  -31.1489  -19.1845   20.3458 C   0  0  0  0  0  0
  -29.8052  -21.4575   18.2133 C   0  0  0  0  0  0
  -29.2659  -23.9762   20.0969 C   0  0  0  0  0  0
  -28.1071  -25.0161   20.4241 C   0  0  0  0  0  0
  -29.9497  -21.4770   19.7498 C   0  0  1  0  0  0
  -28.7588  -19.3203   20.3813 N   0  0  0  0  0  0
  -31.1509  -17.8292   20.5299 N   0  0  0  0  0  0
  -32.4242  -19.7235   20.2097 N   0  0  0  0  0  0
  -29.8113  -15.7142   20.7933 N   0  0  0  0  0  0
  -28.9905  -22.4877   20.3602 N   0  3  0  0  0  0
  -31.4788  -12.5192   19.1518 H   0  0  0  0  0  0
  -30.3712  -11.4049   19.9025 H   0  0  0  0  0  0
  -29.7737  -11.7480   17.4857 H   0  0  0  0  0  0
  -29.6468  -13.4702   17.7384 H   0  0  0  0  0  0
  -27.8737  -11.2866   18.8797 H   0  0  0  0  0  0
  -27.3741  -12.5584   17.7971 H   0  0  0  0  0  0
  -27.6649  -14.2476   19.5102 H   0  0  0  0  0  0
  -28.7130  -12.0685   21.3869 H   0  0  0  0  0  0
  -28.4434  -13.7280   21.8372 H   0  0  0  0  0  0
  -25.2759   -9.5679   22.4755 H   0  0  0  0  0  0
  -24.0001   -7.4627   22.7469 H   0  0  0  0  0  0
  -21.0838   -8.8761   19.8950 H   0  0  0  0  0  0
  -22.3687  -10.9665   19.6162 H   0  0  0  0  0  0
  -21.2002   -7.6144   23.9710 H   0  0  0  0  0  0
  -21.1485   -6.0520   25.9077 H   0  0  0  0  0  0
  -22.0597   -2.7601   23.2846 H   0  0  0  0  0  0
  -22.4101  -11.9873   22.4797 H   0  0  0  0  0  0
  -21.1102  -13.1233   22.2617 H   0  0  0  0  0  0
  -24.6434  -15.8298   20.4913 H   0  0  0  0  0  0
  -26.2413  -15.6156   19.9893 H   0  0  0  0  0  0
  -26.7166  -32.5450   23.1108 H   0  0  0  0  0  0
  -25.0096  -33.9738   25.0451 H   0  0  0  0  0  0
  -22.7138  -31.3061   21.4068 H   0  0  0  0  0  0
  -23.3761  -35.9607   23.3304 H   0  0  0  0  0  0
  -24.3585  -36.8903   22.2054 H   0  0  0  0  0  0
  -23.7227  -37.6487   23.6655 H   0  0  0  0  0  0
  -26.0990  -31.5522   20.6114 H   0  0  0  0  0  0
  -26.8404  -30.8329   22.0099 H   0  0  0  0  0  0
  -28.1139  -28.9758   21.1942 H   0  0  0  0  0  0
  -25.9697  -25.9651   18.9440 H   0  0  0  0  0  0
  -23.9698  -27.3254   18.9951 H   0  0  0  0  0  0
  -23.7552  -30.5998   19.4073 H   0  0  0  0  0  0
  -22.7533  -29.2538   19.8593 H   0  0  0  0  0  0
  -25.1299  -36.1943   25.0829 H   0  0  0  0  0  0
  -20.9989  -28.3234   24.1405 H   0  0  0  0  0  0
  -20.5673  -26.2274   23.3605 H   0  0  0  0  0  0
  -21.6645  -26.7423   22.1207 H   0  0  0  0  0  0
  -19.6910  -25.6291   21.1238 H   0  0  0  0  0  0
  -19.6701  -27.3192   20.6742 H   0  0  0  0  0  0
  -17.4209  -26.6682   21.4018 H   0  0  0  0  0  0
  -18.0327  -26.0060   22.9011 H   0  0  0  0  0  0
  -19.7939  -30.7267   24.2259 H   0  0  0  0  0  0
  -17.5021  -31.6264   24.5157 H   0  0  0  0  0  0
  -15.5356  -30.2979   23.7661 H   0  0  0  0  0  0
  -15.8680  -28.0815   22.7071 H   0  0  0  0  0  0
  -24.5900  -30.7086   25.7808 H   0  0  0  0  0  0
  -24.8920  -32.2904   26.4892 H   0  0  0  0  0  0
  -25.8058  -30.8926   27.0244 H   0  0  0  0  0  0
  -26.2911  -29.6780   24.1208 H   0  0  0  0  0  0
  -27.4049  -29.7282   25.4681 H   0  0  0  0  0  0
  -27.8778  -30.4338   23.9407 H   0  0  0  0  0  0
  -27.2672  -33.3640   26.2068 H   0  0  0  0  0  0
  -28.3867  -32.6875   25.0328 H   0  0  0  0  0  0
  -28.0713  -31.8460   26.5426 H   0  0  0  0  0  0
  -28.2602  -38.0097   24.7523 H   0  0  0  0  0  0
  -28.1077  -36.2631   24.6285 H   0  0  0  0  0  0
  -27.2303  -37.1441   25.8868 H   0  0  0  0  0  0
  -20.9348  -29.8767   21.6920 H   0  0  0  0  0  0
  -26.0179  -38.2858   24.1413 H   0  0  0  0  0  0
  -27.8101  -17.4910   20.6716 H   0  0  0  0  0  0
  -30.5622  -20.8110   17.7680 H   0  0  0  0  0  0
  -29.9292  -22.4366   17.7558 H   0  0  0  0  0  0
  -28.8319  -21.0677   17.9145 H   0  0  0  0  0  0
  -30.1592  -24.2599   20.6540 H   0  0  0  0  0  0
  -29.5172  -24.1182   19.0480 H   0  0  0  0  0  0
  -27.8587  -24.9372   21.4826 H   0  0  0  0  0  0
  -27.2310  -24.6464   19.8985 H   0  0  0  0  0  0
  -30.9402  -21.8677   19.9814 H   0  0  0  0  0  0
  -32.6035  -20.7178   20.1363 H   0  0  0  0  0  0
  -33.2494  -19.1426   20.3076 H   0  0  0  0  0  0
  -28.8783  -15.4259   21.0397 H   0  0  0  0  0  0
  -28.0672  -22.2437   20.0378 H   0  0  0  0  0  0
  -28.9931  -22.3361   21.3570 H   0  0  0  0  0  0
  1 25  1  0  0  0
  1 30  2  0  0  0
  1 82  1  0  0  0
  2  3  1  0  0  0
  2 25  1  0  0  0
  2 84  1  0  0  0
  2 85  1  0  0  0
  3  4  1  0  0  0
  3 86  1  0  0  0
  3 87  1  0  0  0
  4  5  1  0  0  0
  4 88  1  0  0  0
  4 89  1  0  0  0
  5  6  1  0  0  0
  5 26  1  0  0  0
  5 90  1  0  0  0
  6 25  1  0  0  0
  6 91  1  0  0  0
  6 92  1  0  0  0
  7  8  2  0  0  0
  7 26  1  0  0  0
  7 29  1  0  0  0
  8  9  1  0  0  0
  8 22  1  0  0  0
  9 10  1  0  0  0
  9 27  2  0  0  0
 10 11  2  0  0  0
 10 15  1  0  0  0
 11 12  1  0  0  0
 11 93  1  0  0  0
 12 13  2  0  0  0
 12 94  1  0  0  0
 13 14  1  0  0  0
 13 31  1  0  0  0
 14 15  2  0  0  0
 14 95  1  0  0  0
 15 96  1  0  0  0
 16 17  2  0  0  0
 16 21  1  0  0  0
 16 31  1  0  0  0
 17 18  1  0  0  0
 17 97  1  0  0  0
 18 19  2  0  0  0
 18 98  1  0  0  0
 19 20  1  0  0  0
 19 24  1  0  0  0
 20 21  2  0  0  0
 20 99  1  0  0  0
 21 23  1  0  0  0
 22 28  1  0  0  0
 22 32  2  0  0  0
 26 27  1  0  0  0
 28100  1  0  0  0
 28101  1  0  0  0
 29102  1  0  0  0
 29103  1  0  0  0
 33 34  1  0  0  0
 33 66  1  0  0  0
 33 70  2  0  0  0
 34 36  1  0  0  0
 34 59  1  0  0  0
 34104  1  0  0  0
 35 44  2  0  0  0
 35 45  1  0  0  0
 35 68  1  0  0  0
 36 56  1  0  0  0
 36105  1  0  0  0
 37 39  1  0  0  0
 37 47  1  0  0  0
 37 66  1  0  0  0
 37106  1  0  0  0
 38 43  2  0  0  0
 38 46  1  0  0  0
 38 47  1  0  0  0
 39 64  1  0  0  0
 39 67  2  0  0  0
 40 52  1  0  0  0
 40 53  2  0  0  0
 40 58  1  0  0  0
 41107  1  0  0  0
 41108  1  0  0  0
 41109  1  0  0  0
 41 48  1  0  0  0
 42 43  1  0  0  0
 42 66  1  0  0  0
 42110  1  0  0  0
 42111  1  0  0  0
 43 44  1  0  0  0
 44112  1  0  0  0
 45 46  2  0  0  0
 45113  1  0  0  0
 46114  1  0  0  0
 47115  1  0  0  0
 47116  1  0  0  0
 48 56  1  0  0  0
 48 65  1  0  0  0
 48117  1  0  0  0
 49 50  1  0  0  0
 49 53  1  0  0  0
 49 64  1  0  0  0
 49118  1  0  0  0
 50 51  1  0  0  0
 50119  1  0  0  0
 50120  1  0  0  0
 51 52  1  0  0  0
 51121  1  0  0  0
 51122  1  0  0  0
 52123  1  0  0  0
 52124  1  0  0  0
 53 54  1  0  0  0
 54 55  2  0  0  0
 54125  1  0  0  0
 55 57  1  0  0  0
 55126  1  0  0  0
 56 69  2  0  0  0
 57 58  2  0  0  0
 57127  1  0  0  0
 58128  1  0  0  0
 59 60  1  0  0  0
 59 61  1  0  0  0
 59 62  1  0  0  0
 60129  1  0  0  0
 60130  1  0  0  0
 60131  1  0  0  0
 61132  1  0  0  0
 61133  1  0  0  0
 61134  1  0  0  0
 62135  1  0  0  0
 62136  1  0  0  0
 62137  1  0  0  0
 63 65  1  0  0  0
 63138  1  0  0  0
 63139  1  0  0  0
 63140  1  0  0  0
 64141  1  0  0  0
 65142  1  0  0  0
 68 77  1  0  0  0
 71 73  2  0  0  0
 71 79  1  0  0  0
 71143  1  0  0  0
 72 74  1  0  0  0
 72 78  1  0  0  0
 72 79  2  0  0  0
 73 80  1  0  0  0
 73 82  1  0  0  0
 74 80  2  0  0  0
 74 81  1  0  0  0
 75144  1  0  0  0
 75145  1  0  0  0
 75146  1  0  0  0
 75 78  1  0  0  0
 76 77  1  0  0  0
 76 83  1  0  0  0
 76147  1  0  0  0
 76148  1  0  0  0
 77149  1  0  0  0
 77150  1  0  0  0
 78 83  1  0  0  0
 78151  1  0  0  0
 81152  1  0  0  0
 81153  1  0  0  0
 82154  1  0  0  0
 83155  1  0  0  0
 83156  1  0  0  0
M  CHG  1  83   1
M  ISO  4   1 100  68 101  77 101  82 100
M  END
> <chiral flag>
0

> <version>
0

> <s_m_source_file>
/data/baiqing/PycharmProjects/Reinvent-master-3.2/result/LINK_invent/BTK/process_docking_weight1_custom_product_contain_oxygen_bond_distance_aromatic_linkinvent_7_9_3/rearranged_h_0199.sdf

> <i_m_source_file_index>
87

> <r_mmod_Potential_Energy-OPLS-2005>
-110.639724731445

> <r_mmod_Stretch_Energy-OPLS-2005>
88.7010879516602

> <r_mmod_Bend_Energy-OPLS-2005>
150.40168762207

> <r_mmod_Torsional_Energy-OPLS-2005>
212.774337768555

> <r_mmod_Improper_Torsional_Energy-OPLS-2005>
6.28724336624146

> <r_mmod_Van_der_Waal_Energy-OPLS-2005>
147.976104736328

> <r_mmod_Electrostatic_Energy-OPLS-2005>
-278.412567138672

> <r_mmod_Solvation_Energy-OPLS-2005>
-489.549591064453

> <b_mmod_Minimization_Converged-OPLS-2005>
0

> <r_mmod_RMS_Derivative-OPLS-2005>
0.799772322177887

$$$$
87
                    3D
 Structure written by MMmdl.
153161  0  0  1  0            999 V2000
  -30.6263  -14.7378   20.4705 C   0  0  0  0  0  0
  -30.4267  -12.4571   19.4657 C   0  0  0  0  0  0
  -29.5021  -12.5001   18.2307 C   0  0  0  0  0  0
  -28.0309  -12.3208   18.6518 C   0  0  0  0  0  0
  -27.6369  -13.2319   19.8450 C   0  0  2  0  0  0
  -28.6831  -13.1761   20.9784 C   0  0  0  0  0  0
  -25.2495  -13.8195   20.5705 C   0  0  0  0  0  0
  -24.1787  -13.0432   20.9202 C   0  0  0  0  0  0
  -24.6380  -11.6911   20.8744 C   0  0  0  0  0  0
  -23.9059  -10.4283   21.0400 C   0  0  0  0  0  0
  -24.3604   -9.4201   21.9185 C   0  0  0  0  0  0
  -23.6277   -8.2240   22.0761 C   0  0  0  0  0  0
  -22.4269   -8.0268   21.3542 C   0  0  0  0  0  0
  -21.9897   -9.0247   20.4646 C   0  0  0  0  0  0
  -22.7226  -10.2124   20.3056 C   0  0  0  0  0  0
  -21.6851   -6.0726   22.5273 C   0  0  0  0  0  0
  -21.4013   -6.5633   23.8206 C   0  0  0  0  0  0
  -21.3664   -5.6792   24.9170 C   0  0  0  0  0  0
  -21.6041   -4.3051   24.7222 C   0  0  0  0  0  0
  -21.8819   -3.8137   23.4344 C   0  0  0  0  0  0
  -21.9189   -4.6952   22.3398 C   0  0  0  0  0  0
  -22.7805  -13.5213   21.1854 C   0  0  0  0  0  0
  -22.1656   -4.2133   21.0977 F   0  0  0  0  0  0
  -21.5631   -3.4543   25.7738 F   0  0  0  0  0  0
  -29.9793  -13.5260   20.3873 N   0  0  0  0  0  0
  -26.2912  -12.9396   20.3271 N   0  0  0  0  0  0
  -25.9309  -11.6536   20.5752 N   0  0  0  0  0  0
  -22.0458  -12.8207   22.0425 N   0  0  0  0  0  0
  -25.4176  -15.1930   20.4119 N   0  0  0  0  0  0
  -31.8229  -14.8085   20.1793 O   0  0  0  0  0  0
  -21.6636   -6.8863   21.4232 O   0  0  0  0  0  0
  -22.3476  -14.5512   20.6702 O   0  0  0  0  0  0
  -24.6304  -31.8559   23.1999 C   0  0  0  0  0  0
  -25.9129  -32.4768   23.8338 C   0  0  1  0  0  0
  -27.2149  -27.2710   20.1337 C   0  0  0  0  0  0
  -25.5929  -33.8572   24.2267 N   0  0  0  0  0  0
  -23.4276  -30.4789   21.5424 C   0  0  2  0  0  0
  -24.8758  -28.9276   20.1102 C   0  0  0  0  0  0
  -22.7507  -29.4604   22.4915 C   0  0  0  0  0  0
  -18.0293  -28.1389   22.8491 C   0  0  0  0  0  0
  -24.1494  -36.7284   23.2646 C   0  0  0  0  0  0
  -25.9731  -30.7706   21.3796 C   0  0  0  0  0  0
  -26.0464  -29.3939   20.7230 C   0  0  0  0  0  0
  -27.2228  -28.5775   20.7236 C   0  0  0  0  0  0
  -26.0302  -26.8745   19.4832 C   0  0  0  0  0  0
  -24.8720  -27.6753   19.4773 C   0  0  0  0  0  0
  -23.6461  -29.8132   20.1588 C   0  0  0  0  0  0
  -25.4115  -36.3074   24.0333 C   0  0  1  0  0  0
  -20.5903  -28.3696   23.1279 C   0  0  2  0  0  0
  -20.6790  -26.9413   22.5413 C   0  0  0  0  0  0
  -19.5755  -26.6377   21.5232 C   0  0  0  0  0  0
  -18.1928  -26.7933   22.1625 C   0  0  0  0  0  0
  -19.1552  -28.8856   23.2879 C   0  0  0  0  0  0
  -18.9472  -30.1460   23.8901 C   0  0  0  0  0  0
  -17.6470  -30.6592   24.0568 C   0  0  0  0  0  0
  -25.9044  -34.9453   23.5095 C   0  0  0  0  0  0
  -16.5355  -29.9094   23.6338 C   0  0  0  0  0  0
  -16.7275  -28.6509   23.0354 C   0  0  0  0  0  0
  -26.4485  -31.6597   25.0731 C   0  0  0  0  0  0
  -25.3700  -31.3749   26.1448 C   0  0  0  0  0  0
  -27.0353  -30.3031   24.6205 C   0  0  0  0  0  0
  -27.6045  -32.4336   25.7493 C   0  0  0  0  0  0
  -27.5573  -37.1792   24.8462 C   0  0  0  0  0  0
  -21.4212  -29.3057   22.3673 N   0  0  0  0  0  0
  -26.4289  -37.3781   23.9411 N   0  0  0  0  0  0
  -24.6963  -31.0523   22.0981 N   0  0  0  0  0  0
  -23.4219  -28.8138   23.2999 O   0  0  0  0  0  0
  -28.2879  -26.3551   20.1635 O   0  0  0  0  0  0
  -26.5620  -34.8931   22.4670 O   0  0  0  0  0  0
  -23.5447  -32.1364   23.7297 O   0  0  0  0  0  0
  -29.1958  -20.5280   19.3177 C   0  0  0  0  0  0
  -29.0424  -21.1741   20.5345 C   0  0  0  0  0  0
  -29.7348  -18.6308   20.5997 C   0  0  0  0  0  0
  -28.6940  -23.6930   20.1569 C   0  0  0  0  0  0
  -29.7492  -25.4719   22.6714 C   0  0  0  0  0  0
  -30.4771  -17.2831   20.9591 C   0  0  0  0  0  0
  -28.2862  -25.1748   22.3055 C   0  0  0  0  0  0
  -28.0178  -25.0135   20.7917 C   0  0  1  0  0  0
  -29.5738  -19.1489   19.3668 N   0  0  0  0  0  0
  -28.6648  -22.4919   20.8512 N   0  0  0  0  0  0
  -29.8977  -15.8958   20.7001 N   0  0  0  0  0  0
  -29.2084  -23.7645   19.0376 O   0  0  0  0  0  0
  -29.3418  -19.9308   21.7878 S   0  0  0  0  0  0
  -31.4674  -12.5801   19.1611 H   0  0  0  0  0  0
  -30.3710  -11.4850   19.9572 H   0  0  0  0  0  0
  -29.7846  -11.7240   17.5179 H   0  0  0  0  0  0
  -29.6248  -13.4514   17.7108 H   0  0  0  0  0  0
  -27.8967  -11.2750   18.9291 H   0  0  0  0  0  0
  -27.3676  -12.4988   17.8043 H   0  0  0  0  0  0
  -27.6272  -14.2508   19.4546 H   0  0  0  0  0  0
  -28.7209  -12.1817   21.4249 H   0  0  0  0  0  0
  -28.4200  -13.8642   21.7833 H   0  0  0  0  0  0
  -25.2751   -9.5677   22.4759 H   0  0  0  0  0  0
  -23.9976   -7.4633   22.7495 H   0  0  0  0  0  0
  -21.0826   -8.8762   19.8956 H   0  0  0  0  0  0
  -22.3685  -10.9657   19.6162 H   0  0  0  0  0  0
  -21.2013   -7.6137   23.9700 H   0  0  0  0  0  0
  -21.1483   -6.0527   25.9072 H   0  0  0  0  0  0
  -22.0595   -2.7598   23.2855 H   0  0  0  0  0  0
  -22.4070  -11.9857   22.4791 H   0  0  0  0  0  0
  -21.1083  -13.1227   22.2646 H   0  0  0  0  0  0
  -24.6499  -15.8458   20.5225 H   0  0  0  0  0  0
  -26.2616  -15.6330   20.0668 H   0  0  0  0  0  0
  -26.7189  -32.5426   23.1067 H   0  0  0  0  0  0
  -25.0111  -33.9715   25.0434 H   0  0  0  0  0  0
  -22.7241  -31.3004   21.3949 H   0  0  0  0  0  0
  -23.3777  -35.9598   23.3306 H   0  0  0  0  0  0
  -24.3587  -36.8906   22.2060 H   0  0  0  0  0  0
  -23.7225  -37.6476   23.6664 H   0  0  0  0  0  0
  -26.1106  -31.5297   20.6082 H   0  0  0  0  0  0
  -26.8527  -30.8214   22.0095 H   0  0  0  0  0  0
  -28.1194  -28.9258   21.2167 H   0  0  0  0  0  0
  -25.9856  -25.9145   18.9882 H   0  0  0  0  0  0
  -23.9800  -27.3135   18.9862 H   0  0  0  0  0  0
  -23.7691  -30.5910   19.4036 H   0  0  0  0  0  0
  -22.7645  -29.2454   19.8539 H   0  0  0  0  0  0
  -25.1298  -36.1918   25.0824 H   0  0  0  0  0  0
  -20.9980  -28.3257   24.1403 H   0  0  0  0  0  0
  -20.5719  -26.2293   23.3612 H   0  0  0  0  0  0
  -21.6641  -26.7445   22.1169 H   0  0  0  0  0  0
  -19.6930  -25.6295   21.1243 H   0  0  0  0  0  0
  -19.6702  -27.3200   20.6786 H   0  0  0  0  0  0
  -17.4201  -26.6708   21.4013 H   0  0  0  0  0  0
  -18.0297  -26.0063   22.9008 H   0  0  0  0  0  0
  -19.7958  -30.7279   24.2251 H   0  0  0  0  0  0
  -17.5031  -31.6282   24.5165 H   0  0  0  0  0  0
  -15.5362  -30.3004   23.7681 H   0  0  0  0  0  0
  -15.8662  -28.0842   22.7069 H   0  0  0  0  0  0
  -24.5895  -30.7063   25.7770 H   0  0  0  0  0  0
  -24.8863  -32.2926   26.4812 H   0  0  0  0  0  0
  -25.8002  -30.8965   27.0259 H   0  0  0  0  0  0
  -26.2953  -29.6762   24.1210 H   0  0  0  0  0  0
  -27.4058  -29.7280   25.4698 H   0  0  0  0  0  0
  -27.8804  -30.4347   23.9452 H   0  0  0  0  0  0
  -27.2667  -33.3673   26.2006 H   0  0  0  0  0  0
  -28.3880  -32.6834   25.0320 H   0  0  0  0  0  0
  -28.0681  -31.8495   26.5449 H   0  0  0  0  0  0
  -28.2572  -38.0106   24.7522 H   0  0  0  0  0  0
  -28.1086  -36.2635   24.6269 H   0  0  0  0  0  0
  -27.2294  -37.1408   25.8867 H   0  0  0  0  0  0
  -20.9379  -29.8794   21.6899 H   0  0  0  0  0  0
  -26.0173  -38.2852   24.1428 H   0  0  0  0  0  0
  -29.0542  -20.9781   18.3444 H   0  0  0  0  0  0
  -29.8382  -25.6730   23.7404 H   0  0  0  0  0  0
  -30.1268  -26.3461   22.1404 H   0  0  0  0  0  0
  -30.4028  -24.6309   22.4369 H   0  0  0  0  0  0
  -30.6879  -17.3217   22.0281 H   0  0  0  0  0  0
  -31.4568  -17.3399   20.4822 H   0  0  0  0  0  0
  -27.6558  -25.9798   22.6844 H   0  0  0  0  0  0
  -27.9559  -24.2836   22.8408 H   0  0  0  0  0  0
  -26.9537  -24.7975   20.7033 H   0  0  0  0  0  0
  -28.3046  -22.5966   21.7896 H   0  0  0  0  0  0
  -28.9031  -15.7958   20.8304 H   0  0  0  0  0  0
  1 25  1  0  0  0
  1 30  2  0  0  0
  1 81  1  0  0  0
  2  3  1  0  0  0
  2 25  1  0  0  0
  2 84  1  0  0  0
  2 85  1  0  0  0
  3  4  1  0  0  0
  3 86  1  0  0  0
  3 87  1  0  0  0
  4  5  1  0  0  0
  4 88  1  0  0  0
  4 89  1  0  0  0
  5  6  1  0  0  0
  5 26  1  0  0  0
  5 90  1  0  0  0
  6 25  1  0  0  0
  6 91  1  0  0  0
  6 92  1  0  0  0
  7  8  2  0  0  0
  7 26  1  0  0  0
  7 29  1  0  0  0
  8  9  1  0  0  0
  8 22  1  0  0  0
  9 10  1  0  0  0
  9 27  2  0  0  0
 10 11  2  0  0  0
 10 15  1  0  0  0
 11 12  1  0  0  0
 11 93  1  0  0  0
 12 13  2  0  0  0
 12 94  1  0  0  0
 13 14  1  0  0  0
 13 31  1  0  0  0
 14 15  2  0  0  0
 14 95  1  0  0  0
 15 96  1  0  0  0
 16 17  2  0  0  0
 16 21  1  0  0  0
 16 31  1  0  0  0
 17 18  1  0  0  0
 17 97  1  0  0  0
 18 19  2  0  0  0
 18 98  1  0  0  0
 19 20  1  0  0  0
 19 24  1  0  0  0
 20 21  2  0  0  0
 20 99  1  0  0  0
 21 23  1  0  0  0
 22 28  1  0  0  0
 22 32  2  0  0  0
 26 27  1  0  0  0
 28100  1  0  0  0
 28101  1  0  0  0
 29102  1  0  0  0
 29103  1  0  0  0
 33 34  1  0  0  0
 33 66  1  0  0  0
 33 70  2  0  0  0
 34 36  1  0  0  0
 34 59  1  0  0  0
 34104  1  0  0  0
 35 44  2  0  0  0
 35 45  1  0  0  0
 35 68  1  0  0  0
 36 56  1  0  0  0
 36105  1  0  0  0
 37 39  1  0  0  0
 37 47  1  0  0  0
 37 66  1  0  0  0
 37106  1  0  0  0
 38 43  2  0  0  0
 38 46  1  0  0  0
 38 47  1  0  0  0
 39 64  1  0  0  0
 39 67  2  0  0  0
 40 52  1  0  0  0
 40 53  2  0  0  0
 40 58  1  0  0  0
 41107  1  0  0  0
 41108  1  0  0  0
 41109  1  0  0  0
 41 48  1  0  0  0
 42 43  1  0  0  0
 42 66  1  0  0  0
 42110  1  0  0  0
 42111  1  0  0  0
 43 44  1  0  0  0
 44112  1  0  0  0
 45 46  2  0  0  0
 45113  1  0  0  0
 46114  1  0  0  0
 47115  1  0  0  0
 47116  1  0  0  0
 48 56  1  0  0  0
 48 65  1  0  0  0
 48117  1  0  0  0
 49 50  1  0  0  0
 49 53  1  0  0  0
 49 64  1  0  0  0
 49118  1  0  0  0
 50 51  1  0  0  0
 50119  1  0  0  0
 50120  1  0  0  0
 51 52  1  0  0  0
 51121  1  0  0  0
 51122  1  0  0  0
 52123  1  0  0  0
 52124  1  0  0  0
 53 54  1  0  0  0
 54 55  2  0  0  0
 54125  1  0  0  0
 55 57  1  0  0  0
 55126  1  0  0  0
 56 69  2  0  0  0
 57 58  2  0  0  0
 57127  1  0  0  0
 58128  1  0  0  0
 59 60  1  0  0  0
 59 61  1  0  0  0
 59 62  1  0  0  0
 60129  1  0  0  0
 60130  1  0  0  0
 60131  1  0  0  0
 61132  1  0  0  0
 61133  1  0  0  0
 61134  1  0  0  0
 62135  1  0  0  0
 62136  1  0  0  0
 62137  1  0  0  0
 63 65  1  0  0  0
 63138  1  0  0  0
 63139  1  0  0  0
 63140  1  0  0  0
 64141  1  0  0  0
 65142  1  0  0  0
 68 78  1  0  0  0
 71 72  2  0  0  0
 71 79  1  0  0  0
 71143  1  0  0  0
 72 80  1  0  0  0
 72 83  1  0  0  0
 73 76  1  0  0  0
 73 79  2  0  0  0
 73 83  1  0  0  0
 74 78  1  0  0  0
 74 80  1  0  0  0
 74 82  2  0  0  0
 75 77  1  0  0  0
 75144  1  0  0  0
 75145  1  0  0  0
 75146  1  0  0  0
 76 81  1  0  0  0
 76147  1  0  0  0
 76148  1  0  0  0
 77149  1  0  0  0
 77150  1  0  0  0
 77 78  1  0  0  0
 78151  1  0  0  0
 80152  1  0  0  0
 81153  1  0  0  0
M  ISO  4   1 100  68 101  78 101  81 100
M  END
> <chiral flag>
0

> <version>
0

> <s_m_source_file>
/data/baiqing/PycharmProjects/Reinvent-master-3.2/result/LINK_invent/BTK/process_docking_weight1_custom_product_contain_oxygen_bond_distance_aromatic_linkinvent_7_9_3/rearranged_h_0199.sdf

> <i_m_source_file_index>
88

> <r_mmod_Potential_Energy-OPLS-2005>
58.7468338012695

> <r_mmod_Stretch_Energy-OPLS-2005>
109.540809631348

> <r_mmod_Bend_Energy-OPLS-2005>
177.942199707031

> <r_mmod_Torsional_Energy-OPLS-2005>
238.337341308594

> <r_mmod_Improper_Torsional_Energy-OPLS-2005>
5.9947657585144

> <r_mmod_Van_der_Waal_Energy-OPLS-2005>
114.191024780273

> <r_mmod_Electrostatic_Energy-OPLS-2005>
-423.215179443359

> <r_mmod_Solvation_Energy-OPLS-2005>
-249.044235229492

> <b_mmod_Minimization_Converged-OPLS-2005>
0

> <r_mmod_RMS_Derivative-OPLS-2005>
2.24710941314697

$$$$
88
                    3D
 Structure written by MMmdl.
151159  0  0  1  0            999 V2000
  -30.6418  -14.6957   20.5711 C   0  0  0  0  0  0
  -30.4365  -12.4402   19.4877 C   0  0  0  0  0  0
  -29.5129  -12.5156   18.2511 C   0  0  0  0  0  0
  -28.0404  -12.3304   18.6611 C   0  0  0  0  0  0
  -27.6481  -13.2255   19.8627 C   0  0  2  0  0  0
  -28.6807  -13.1201   21.0032 C   0  0  0  0  0  0
  -25.2542  -13.8192   20.5711 C   0  0  0  0  0  0
  -24.1815  -13.0463   20.9180 C   0  0  0  0  0  0
  -24.6402  -11.6923   20.8751 C   0  0  0  0  0  0
  -23.9097  -10.4308   21.0417 C   0  0  0  0  0  0
  -24.3655   -9.4214   21.9189 C   0  0  0  0  0  0
  -23.6322   -8.2260   22.0765 C   0  0  0  0  0  0
  -22.4297   -8.0304   21.3556 C   0  0  0  0  0  0
  -21.9939   -9.0282   20.4661 C   0  0  0  0  0  0
  -22.7279  -10.2151   20.3063 C   0  0  0  0  0  0
  -21.6863   -6.0761   22.5294 C   0  0  0  0  0  0
  -21.4016   -6.5659   23.8225 C   0  0  0  0  0  0
  -21.3654   -5.6804   24.9188 C   0  0  0  0  0  0
  -21.6035   -4.3076   24.7232 C   0  0  0  0  0  0
  -21.8816   -3.8171   23.4351 C   0  0  0  0  0  0
  -21.9193   -4.6982   22.3411 C   0  0  0  0  0  0
  -22.7830  -13.5230   21.1868 C   0  0  0  0  0  0
  -22.1661   -4.2163   21.0988 F   0  0  0  0  0  0
  -21.5627   -3.4554   25.7743 F   0  0  0  0  0  0
  -30.0005  -13.4782   20.4542 N   0  0  0  0  0  0
  -26.2972  -12.9392   20.3327 N   0  0  0  0  0  0
  -25.9336  -11.6535   20.5778 N   0  0  0  0  0  0
  -22.0498  -12.8226   22.0424 N   0  0  0  0  0  0
  -25.4265  -15.1931   20.4216 N   0  0  0  0  0  0
  -31.7584  -14.8517   20.0619 O   0  0  0  0  0  0
  -21.6657   -6.8898   21.4253 O   0  0  0  0  0  0
  -22.3508  -14.5536   20.6712 O   0  0  0  0  0  0
  -24.6335  -31.8548   23.2000 C   0  0  0  0  0  0
  -25.9144  -32.4754   23.8343 C   0  0  1  0  0  0
  -27.2189  -27.2686   20.1283 C   0  0  0  0  0  0
  -25.5922  -33.8551   24.2270 N   0  0  0  0  0  0
  -23.4304  -30.4815   21.5445 C   0  0  2  0  0  0
  -24.8757  -28.9330   20.1158 C   0  0  0  0  0  0
  -22.7511  -29.4609   22.4906 C   0  0  0  0  0  0
  -18.0338  -28.1381   22.8466 C   0  0  0  0  0  0
  -24.1494  -36.7269   23.2639 C   0  0  0  0  0  0
  -25.9788  -30.7783   21.3742 C   0  0  0  0  0  0
  -26.0520  -29.4027   20.7104 C   0  0  0  0  0  0
  -27.2282  -28.5859   20.7006 C   0  0  0  0  0  0
  -26.0114  -26.8637   19.5117 C   0  0  0  0  0  0
  -24.8584  -27.6694   19.5104 C   0  0  0  0  0  0
  -23.6493  -29.8214   20.1595 C   0  0  0  0  0  0
  -25.4125  -36.3065   24.0321 C   0  0  1  0  0  0
  -20.5961  -28.3710   23.1313 C   0  0  2  0  0  0
  -20.6867  -26.9488   22.5371 C   0  0  0  0  0  0
  -19.5878  -26.6608   21.5113 C   0  0  0  0  0  0
  -18.2047  -26.7942   22.1558 C   0  0  0  0  0  0
  -19.1586  -28.8828   23.2896 C   0  0  0  0  0  0
  -18.9511  -30.1417   23.8935 C   0  0  0  0  0  0
  -17.6513  -30.6543   24.0610 C   0  0  0  0  0  0
  -25.9063  -34.9431   23.5112 C   0  0  0  0  0  0
  -16.5413  -29.9075   23.6308 C   0  0  0  0  0  0
  -16.7323  -28.6505   23.0301 C   0  0  0  0  0  0
  -26.4535  -31.6563   25.0707 C   0  0  0  0  0  0
  -25.3756  -31.3702   26.1421 C   0  0  0  0  0  0
  -27.0372  -30.2978   24.6176 C   0  0  0  0  0  0
  -27.6100  -32.4300   25.7472 C   0  0  0  0  0  0
  -27.5586  -37.1796   24.8468 C   0  0  0  0  0  0
  -21.4204  -29.3095   22.3690 N   0  0  0  0  0  0
  -26.4293  -37.3762   23.9411 N   0  0  0  0  0  0
  -24.7012  -31.0549   22.0962 N   0  0  0  0  0  0
  -23.4199  -28.8093   23.2971 O   0  0  0  0  0  0
  -28.3107  -26.3681   20.1917 O   0  0  0  0  0  0
  -26.5625  -34.8901   22.4680 O   0  0  0  0  0  0
  -23.5466  -32.1362   23.7261 O   0  0  0  0  0  0
  -29.4382  -19.6144   20.5473 C   0  0  0  0  0  0
  -29.7654  -17.1036   20.7499 C   0  0  0  0  0  0
  -29.9677  -15.6302   22.7011 C   0  0  0  0  0  0
  -28.5155  -22.2040   20.4072 C   0  0  0  0  0  0
  -28.0513  -24.9030   19.9544 C   0  0  0  0  0  0
  -29.0844  -23.7111   20.3276 C   0  0  1  0  0  0
  -28.3659  -18.8820   20.1835 N   0  0  0  0  0  0
  -28.5432  -17.4712   20.3090 N   0  0  0  0  0  0
  -29.4950  -21.0607   20.5487 N   0  0  0  0  0  0
  -30.0113  -15.7335   21.2395 N   0  0  0  0  0  0
  -30.0451  -23.6029   19.2925 O   0  0  0  0  0  0
  -30.7989  -18.5485   21.0550 S   0  0  0  0  0  0
  -31.4764  -12.5705   19.1841 H   0  0  0  0  0  0
  -30.3877  -11.4515   19.9475 H   0  0  0  0  0  0
  -29.7990  -11.7572   17.5219 H   0  0  0  0  0  0
  -29.6363  -13.4819   17.7612 H   0  0  0  0  0  0
  -27.9015  -11.2810   18.9267 H   0  0  0  0  0  0
  -27.3778  -12.5214   17.8155 H   0  0  0  0  0  0
  -27.6594  -14.2529   19.4999 H   0  0  0  0  0  0
  -28.7008  -12.1131   21.4205 H   0  0  0  0  0  0
  -28.3770  -13.7670   21.8247 H   0  0  0  0  0  0
  -25.2790   -9.5691   22.4777 H   0  0  0  0  0  0
  -24.0027   -7.4647   22.7490 H   0  0  0  0  0  0
  -21.0860   -8.8818   19.8979 H   0  0  0  0  0  0
  -22.3738  -10.9707   19.6192 H   0  0  0  0  0  0
  -21.2007   -7.6165   23.9732 H   0  0  0  0  0  0
  -21.1476   -6.0540   25.9084 H   0  0  0  0  0  0
  -22.0591   -2.7633   23.2849 H   0  0  0  0  0  0
  -22.4120  -11.9870   22.4770 H   0  0  0  0  0  0
  -21.1138  -13.1259   22.2688 H   0  0  0  0  0  0
  -24.6678  -15.8488   20.5722 H   0  0  0  0  0  0
  -26.2971  -15.6495   20.1768 H   0  0  0  0  0  0
  -26.7206  -32.5419   23.1073 H   0  0  0  0  0  0
  -24.9998  -33.9696   25.0368 H   0  0  0  0  0  0
  -22.7265  -31.3035   21.3966 H   0  0  0  0  0  0
  -23.3756  -35.9603   23.3308 H   0  0  0  0  0  0
  -24.3584  -36.8881   22.2053 H   0  0  0  0  0  0
  -23.7244  -37.6474   23.6656 H   0  0  0  0  0  0
  -26.1188  -31.5489   20.6131 H   0  0  0  0  0  0
  -26.8560  -30.8241   22.0070 H   0  0  0  0  0  0
  -28.1304  -28.9502   21.1701 H   0  0  0  0  0  0
  -25.9145  -25.8962   19.0420 H   0  0  0  0  0  0
  -23.9490  -27.2959   19.0609 H   0  0  0  0  0  0
  -23.7845  -30.6071   19.4149 H   0  0  0  0  0  0
  -22.7678  -29.2622   19.8407 H   0  0  0  0  0  0
  -25.1313  -36.1914   25.0808 H   0  0  0  0  0  0
  -21.0090  -28.3247   24.1413 H   0  0  0  0  0  0
  -20.5691  -26.2361   23.3539 H   0  0  0  0  0  0
  -21.6754  -26.7448   22.1242 H   0  0  0  0  0  0
  -19.7156  -25.6610   21.0978 H   0  0  0  0  0  0
  -19.6799  -27.3657   20.6832 H   0  0  0  0  0  0
  -17.4305  -26.6671   21.3953 H   0  0  0  0  0  0
  -18.0594  -26.0003   22.8915 H   0  0  0  0  0  0
  -19.7985  -30.7185   24.2399 H   0  0  0  0  0  0
  -17.5029  -31.6192   24.5271 H   0  0  0  0  0  0
  -15.5416  -30.2959   23.7645 H   0  0  0  0  0  0
  -15.8710  -28.0828   22.7026 H   0  0  0  0  0  0
  -24.5931  -30.7056   25.7748 H   0  0  0  0  0  0
  -24.8933  -32.2850   26.4867 H   0  0  0  0  0  0
  -25.8063  -30.8862   27.0193 H   0  0  0  0  0  0
  -26.2950  -29.6712   24.1209 H   0  0  0  0  0  0
  -27.4080  -29.7248   25.4697 H   0  0  0  0  0  0
  -27.8829  -30.4270   23.9405 H   0  0  0  0  0  0
  -27.2736  -33.3602   26.2069 H   0  0  0  0  0  0
  -28.3896  -32.6861   25.0280 H   0  0  0  0  0  0
  -28.0789  -31.8399   26.5360 H   0  0  0  0  0  0
  -28.2617  -38.0079   24.7502 H   0  0  0  0  0  0
  -28.1063  -36.2616   24.6322 H   0  0  0  0  0  0
  -27.2279  -37.1467   25.8856 H   0  0  0  0  0  0
  -20.9326  -29.8896   21.7001 H   0  0  0  0  0  0
  -26.0167  -38.2828   24.1436 H   0  0  0  0  0  0
  -28.9481  -15.8032   23.0485 H   0  0  0  0  0  0
  -30.6145  -16.3810   23.1572 H   0  0  0  0  0  0
  -30.2859  -14.6582   23.0805 H   0  0  0  0  0  0
  -27.8845  -22.0066   19.5376 H   0  0  0  0  0  0
  -27.8489  -22.1504   21.2714 H   0  0  0  0  0  0
  -27.1427  -24.6594   20.5049 H   0  0  0  0  0  0
  -27.7971  -24.7878   18.8983 H   0  0  0  0  0  0
  -29.5807  -23.9422   21.2716 H   0  0  0  0  0  0
  -30.3895  -21.3780   20.9138 H   0  0  0  0  0  0
  -30.2271  -22.6690   19.2075 H   0  0  0  0  0  0
  1 25  1  0  0  0
  1 30  2  0  0  0
  1 80  1  0  0  0
  2  3  1  0  0  0
  2 25  1  0  0  0
  2 83  1  0  0  0
  2 84  1  0  0  0
  3  4  1  0  0  0
  3 85  1  0  0  0
  3 86  1  0  0  0
  4  5  1  0  0  0
  4 87  1  0  0  0
  4 88  1  0  0  0
  5  6  1  0  0  0
  5 26  1  0  0  0
  5 89  1  0  0  0
  6 25  1  0  0  0
  6 90  1  0  0  0
  6 91  1  0  0  0
  7  8  2  0  0  0
  7 26  1  0  0  0
  7 29  1  0  0  0
  8  9  1  0  0  0
  8 22  1  0  0  0
  9 10  1  0  0  0
  9 27  2  0  0  0
 10 11  2  0  0  0
 10 15  1  0  0  0
 11 12  1  0  0  0
 11 92  1  0  0  0
 12 13  2  0  0  0
 12 93  1  0  0  0
 13 14  1  0  0  0
 13 31  1  0  0  0
 14 15  2  0  0  0
 14 94  1  0  0  0
 15 95  1  0  0  0
 16 17  2  0  0  0
 16 21  1  0  0  0
 16 31  1  0  0  0
 17 18  1  0  0  0
 17 96  1  0  0  0
 18 19  2  0  0  0
 18 97  1  0  0  0
 19 20  1  0  0  0
 19 24  1  0  0  0
 20 21  2  0  0  0
 20 98  1  0  0  0
 21 23  1  0  0  0
 22 28  1  0  0  0
 22 32  2  0  0  0
 26 27  1  0  0  0
 28 99  1  0  0  0
 28100  1  0  0  0
 29101  1  0  0  0
 29102  1  0  0  0
 33 34  1  0  0  0
 33 66  1  0  0  0
 33 70  2  0  0  0
 34 36  1  0  0  0
 34 59  1  0  0  0
 34103  1  0  0  0
 35 44  2  0  0  0
 35 45  1  0  0  0
 35 68  1  0  0  0
 36 56  1  0  0  0
 36104  1  0  0  0
 37 39  1  0  0  0
 37 47  1  0  0  0
 37 66  1  0  0  0
 37105  1  0  0  0
 38 43  2  0  0  0
 38 46  1  0  0  0
 38 47  1  0  0  0
 39 64  1  0  0  0
 39 67  2  0  0  0
 40 52  1  0  0  0
 40 53  2  0  0  0
 40 58  1  0  0  0
 41106  1  0  0  0
 41107  1  0  0  0
 41108  1  0  0  0
 41 48  1  0  0  0
 42 43  1  0  0  0
 42 66  1  0  0  0
 42109  1  0  0  0
 42110  1  0  0  0
 43 44  1  0  0  0
 44111  1  0  0  0
 45 46  2  0  0  0
 45112  1  0  0  0
 46113  1  0  0  0
 47114  1  0  0  0
 47115  1  0  0  0
 48 56  1  0  0  0
 48 65  1  0  0  0
 48116  1  0  0  0
 49 50  1  0  0  0
 49 53  1  0  0  0
 49 64  1  0  0  0
 49117  1  0  0  0
 50 51  1  0  0  0
 50118  1  0  0  0
 50119  1  0  0  0
 51 52  1  0  0  0
 51120  1  0  0  0
 51121  1  0  0  0
 52122  1  0  0  0
 52123  1  0  0  0
 53 54  1  0  0  0
 54 55  2  0  0  0
 54124  1  0  0  0
 55 57  1  0  0  0
 55125  1  0  0  0
 56 69  2  0  0  0
 57 58  2  0  0  0
 57126  1  0  0  0
 58127  1  0  0  0
 59 60  1  0  0  0
 59 61  1  0  0  0
 59 62  1  0  0  0
 60128  1  0  0  0
 60129  1  0  0  0
 60130  1  0  0  0
 61131  1  0  0  0
 61132  1  0  0  0
 61133  1  0  0  0
 62134  1  0  0  0
 62135  1  0  0  0
 62136  1  0  0  0
 63 65  1  0  0  0
 63137  1  0  0  0
 63138  1  0  0  0
 63139  1  0  0  0
 64140  1  0  0  0
 65141  1  0  0  0
 68 75  1  0  0  0
 71 77  2  0  0  0
 71 79  1  0  0  0
 71 82  1  0  0  0
 72 78  2  0  0  0
 72 80  1  0  0  0
 72 82  1  0  0  0
 73 80  1  0  0  0
 73142  1  0  0  0
 73143  1  0  0  0
 73144  1  0  0  0
 74 76  1  0  0  0
 74 79  1  0  0  0
 74145  1  0  0  0
 74146  1  0  0  0
 75 76  1  0  0  0
 75147  1  0  0  0
 75148  1  0  0  0
 76 81  1  0  0  0
 76149  1  0  0  0
 77 78  1  0  0  0
 79150  1  0  0  0
 81151  1  0  0  0
M  ISO  4   1 100  68 101  75 101  80 100
M  END
> <chiral flag>
0

> <version>
0

> <s_m_source_file>
/data/baiqing/PycharmProjects/Reinvent-master-3.2/result/LINK_invent/BTK/process_docking_weight1_custom_product_contain_oxygen_bond_distance_aromatic_linkinvent_7_9_3/rearranged_h_0199.sdf

> <i_m_source_file_index>
89

> <r_mmod_Potential_Energy-OPLS-2005>
154.553314208984

> <r_mmod_Stretch_Energy-OPLS-2005>
107.767333984375

> <r_mmod_Bend_Energy-OPLS-2005>
156.687911987305

> <r_mmod_Torsional_Energy-OPLS-2005>
308.892364501953

> <r_mmod_Improper_Torsional_Energy-OPLS-2005>
5.92763710021973

> <r_mmod_Van_der_Waal_Energy-OPLS-2005>
123.052055358887

> <r_mmod_Electrostatic_Energy-OPLS-2005>
-385.41552734375

> <r_mmod_Solvation_Energy-OPLS-2005>
-234.561050415039

> <b_mmod_Minimization_Converged-OPLS-2005>
0

> <r_mmod_RMS_Derivative-OPLS-2005>
4.16571807861328

$$$$
89
                    3D
 Structure written by MMmdl.
150158  0  0  1  0            999 V2000
  -30.5081  -14.9537   20.4169 C   0  0  0  0  0  0
  -30.4503  -12.5907   19.4871 C   0  0  0  0  0  0
  -29.5238  -12.5298   18.2492 C   0  0  0  0  0  0
  -28.0565  -12.3105   18.6690 C   0  0  0  0  0  0
  -27.6303  -13.2393   19.8352 C   0  0  2  0  0  0
  -28.6755  -13.2557   20.9704 C   0  0  0  0  0  0
  -25.2466  -13.8188   20.5690 C   0  0  0  0  0  0
  -24.1784  -13.0423   20.9234 C   0  0  0  0  0  0
  -24.6391  -11.6908   20.8756 C   0  0  0  0  0  0
  -23.9071  -10.4286   21.0414 C   0  0  0  0  0  0
  -24.3622   -9.4200   21.9187 C   0  0  0  0  0  0
  -23.6296   -8.2237   22.0752 C   0  0  0  0  0  0
  -22.4278   -8.0280   21.3544 C   0  0  0  0  0  0
  -21.9915   -9.0253   20.4645 C   0  0  0  0  0  0
  -22.7246  -10.2130   20.3057 C   0  0  0  0  0  0
  -21.6852   -6.0735   22.5279 C   0  0  0  0  0  0
  -21.4015   -6.5639   23.8213 C   0  0  0  0  0  0
  -21.3659   -5.6791   24.9174 C   0  0  0  0  0  0
  -21.6043   -4.3054   24.7225 C   0  0  0  0  0  0
  -21.8819   -3.8146   23.4346 C   0  0  0  0  0  0
  -21.9191   -4.6963   22.3402 C   0  0  0  0  0  0
  -22.7805  -13.5202   21.1887 C   0  0  0  0  0  0
  -22.1662   -4.2149   21.0978 F   0  0  0  0  0  0
  -21.5627   -3.4536   25.7738 F   0  0  0  0  0  0
  -29.9492  -13.6778   20.3714 N   0  0  0  0  0  0
  -26.2884  -12.9403   20.3216 N   0  0  0  0  0  0
  -25.9315  -11.6544   20.5721 N   0  0  0  0  0  0
  -22.0450  -12.8196   22.0443 N   0  0  0  0  0  0
  -25.4098  -15.1918   20.4077 N   0  0  0  0  0  0
  -31.7208  -15.0527   20.1929 O   0  0  0  0  0  0
  -21.6640   -6.8879   21.4242 O   0  0  0  0  0  0
  -22.3496  -14.5510   20.6729 O   0  0  0  0  0  0
  -24.6432  -31.8433   23.1866 C   0  0  0  0  0  0
  -25.9203  -32.4691   23.8258 C   0  0  1  0  0  0
  -27.2226  -27.1378   20.1621 C   0  0  0  0  0  0
  -25.5948  -33.8497   24.2180 N   0  0  0  0  0  0
  -23.4469  -30.4607   21.5322 C   0  0  2  0  0  0
  -24.8973  -28.8801   20.1162 C   0  0  0  0  0  0
  -22.7563  -29.4544   22.4864 C   0  0  0  0  0  0
  -18.0303  -28.1396   22.8477 C   0  0  0  0  0  0
  -24.1494  -36.7260   23.2642 C   0  0  0  0  0  0
  -26.0012  -30.7192   21.3826 C   0  0  0  0  0  0
  -26.0745  -29.3273   20.7305 C   0  0  0  0  0  0
  -27.2408  -28.4745   20.7298 C   0  0  0  0  0  0
  -26.0195  -26.7831   19.5184 C   0  0  0  0  0  0
  -24.8822  -27.6212   19.4937 C   0  0  0  0  0  0
  -23.6740  -29.7835   20.1540 C   0  0  0  0  0  0
  -25.4124  -36.3031   24.0316 C   0  0  1  0  0  0
  -20.5915  -28.3723   23.1239 C   0  0  2  0  0  0
  -20.6790  -26.9428   22.5405 C   0  0  0  0  0  0
  -19.5764  -26.6384   21.5213 C   0  0  0  0  0  0
  -18.1946  -26.7935   22.1625 C   0  0  0  0  0  0
  -19.1560  -28.8878   23.2851 C   0  0  0  0  0  0
  -18.9474  -30.1472   23.8876 C   0  0  0  0  0  0
  -17.6472  -30.6593   24.0560 C   0  0  0  0  0  0
  -25.9072  -34.9405   23.5059 C   0  0  0  0  0  0
  -16.5363  -29.9085   23.6335 C   0  0  0  0  0  0
  -16.7288  -28.6505   23.0354 C   0  0  0  0  0  0
  -26.4523  -31.6557   25.0699 C   0  0  0  0  0  0
  -25.3711  -31.3744   26.1395 C   0  0  0  0  0  0
  -27.0386  -30.2955   24.6272 C   0  0  0  0  0  0
  -27.6050  -32.4323   25.7488 C   0  0  0  0  0  0
  -27.5577  -37.1786   24.8463 C   0  0  0  0  0  0
  -21.4255  -29.3049   22.3613 N   0  0  0  0  0  0
  -26.4286  -37.3745   23.9408 N   0  0  0  0  0  0
  -24.7170  -31.0291   22.0895 N   0  0  0  0  0  0
  -23.4204  -28.8100   23.3023 O   0  0  0  0  0  0
  -28.2953  -26.1774   20.1584 O   0  0  0  0  0  0
  -26.5660  -34.8906   22.4640 O   0  0  0  0  0  0
  -23.5554  -32.1302   23.7093 O   0  0  0  0  0  0
  -28.6936  -18.3726   19.7051 C   0  0  0  0  0  0
  -30.2783  -19.8060   21.2665 C   0  0  0  0  0  0
  -29.6818  -17.6079   20.4428 C   0  0  0  0  0  0
  -29.2717  -20.5561   20.5468 C   0  0  0  0  0  0
  -30.0662  -23.6258   19.2313 C   0  0  0  0  0  0
  -28.1208  -24.6971   20.6123 C   0  0  0  0  0  0
  -28.7509  -23.2744   19.9358 C   0  0  2  0  0  0
  -30.4853  -18.4226   21.2105 N   0  0  0  0  0  0
  -28.5030  -19.7629   19.7313 N   0  0  0  0  0  0
  -29.6324  -16.0731   20.4428 N   0  0  0  0  0  0
  -28.9880  -21.9974   20.8029 N   0  0  0  0  0  0
  -31.4800  -12.7687   19.1736 H   0  0  0  0  0  0
  -30.4578  -11.6362   20.0156 H   0  0  0  0  0  0
  -29.8449  -11.7352   17.5745 H   0  0  0  0  0  0
  -29.6061  -13.4604   17.6853 H   0  0  0  0  0  0
  -27.9549  -11.2689   18.9754 H   0  0  0  0  0  0
  -27.3920  -12.4419   17.8141 H   0  0  0  0  0  0
  -27.5931  -14.2413   19.4081 H   0  0  0  0  0  0
  -28.7650  -12.2732   21.4369 H   0  0  0  0  0  0
  -28.3749  -13.9449   21.7613 H   0  0  0  0  0  0
  -25.2766   -9.5677   22.4762 H   0  0  0  0  0  0
  -24.0003   -7.4627   22.7469 H   0  0  0  0  0  0
  -21.0847   -8.8775   19.8950 H   0  0  0  0  0  0
  -22.3708  -10.9670   19.6167 H   0  0  0  0  0  0
  -21.2013   -7.6148   23.9718 H   0  0  0  0  0  0
  -21.1480   -6.0520   25.9077 H   0  0  0  0  0  0
  -22.0599   -2.7609   23.2843 H   0  0  0  0  0  0
  -22.4068  -11.9865   22.4843 H   0  0  0  0  0  0
  -21.1062  -13.1215   22.2633 H   0  0  0  0  0  0
  -24.6270  -15.8297   20.5057 H   0  0  0  0  0  0
  -26.2233  -15.6310   20.0007 H   0  0  0  0  0  0
  -26.7268  -32.5301   23.0987 H   0  0  0  0  0  0
  -25.0067  -33.9605   25.0308 H   0  0  0  0  0  0
  -22.7498  -31.2863   21.3749 H   0  0  0  0  0  0
  -23.3758  -35.9589   23.3284 H   0  0  0  0  0  0
  -24.3580  -36.8912   22.2061 H   0  0  0  0  0  0
  -23.7248  -37.6450   23.6692 H   0  0  0  0  0  0
  -26.1521  -31.4708   20.6065 H   0  0  0  0  0  0
  -26.8734  -30.7742   22.0224 H   0  0  0  0  0  0
  -28.1439  -28.8190   21.2141 H   0  0  0  0  0  0
  -25.9491  -25.8181   19.0366 H   0  0  0  0  0  0
  -23.9847  -27.2745   19.0003 H   0  0  0  0  0  0
  -23.8110  -30.5541   19.3945 H   0  0  0  0  0  0
  -22.7888  -29.2244   19.8457 H   0  0  0  0  0  0
  -25.1314  -36.1855   25.0808 H   0  0  0  0  0  0
  -21.0006  -28.3314   24.1361 H   0  0  0  0  0  0
  -20.5689  -26.2336   23.3623 H   0  0  0  0  0  0
  -21.6655  -26.7440   22.1201 H   0  0  0  0  0  0
  -19.6927  -25.6289   21.1257 H   0  0  0  0  0  0
  -19.6701  -27.3181   20.6733 H   0  0  0  0  0  0
  -17.4215  -26.6676   21.4029 H   0  0  0  0  0  0
  -18.0347  -26.0082   22.9028 H   0  0  0  0  0  0
  -19.7949  -30.7295   24.2238 H   0  0  0  0  0  0
  -17.5023  -31.6270   24.5167 H   0  0  0  0  0  0
  -15.5362  -30.2980   23.7670 H   0  0  0  0  0  0
  -15.8689  -28.0817   22.7079 H   0  0  0  0  0  0
  -24.5897  -30.7083   25.7717 H   0  0  0  0  0  0
  -24.8890  -32.2924   26.4765 H   0  0  0  0  0  0
  -25.7996  -30.8954   27.0208 H   0  0  0  0  0  0
  -26.2996  -29.6674   24.1283 H   0  0  0  0  0  0
  -27.4006  -29.7256   25.4840 H   0  0  0  0  0  0
  -27.8900  -30.4188   23.9575 H   0  0  0  0  0  0
  -27.2639  -33.3643   26.2006 H   0  0  0  0  0  0
  -28.3894  -32.6852   25.0342 H   0  0  0  0  0  0
  -28.0679  -31.8487   26.5455 H   0  0  0  0  0  0
  -28.2582  -38.0095   24.7514 H   0  0  0  0  0  0
  -28.1087  -36.2623   24.6283 H   0  0  0  0  0  0
  -27.2294  -37.1423   25.8866 H   0  0  0  0  0  0
  -20.9469  -29.8751   21.6780 H   0  0  0  0  0  0
  -26.0152  -38.2814   24.1407 H   0  0  0  0  0  0
  -27.9906  -17.8412   19.0804 H   0  0  0  0  0  0
  -30.9280  -20.3304   21.9521 H   0  0  0  0  0  0
  -29.9176  -24.4395   18.5204 H   0  0  0  0  0  0
  -30.4638  -22.7771   18.6740 H   0  0  0  0  0  0
  -30.8260  -23.9490   19.9437 H   0  0  0  0  0  0
  -28.5134  -24.7213   21.6288 H   0  0  0  0  0  0
  -27.0542  -24.5246   20.7584 H   0  0  0  0  0  0
  -28.0537  -22.9757   19.1513 H   0  0  0  0  0  0
  -28.6823  -15.7429   20.4028 H   0  0  0  0  0  0
  -29.4236  -22.2686   21.6808 H   0  0  0  0  0  0
  1 25  1  0  0  0
  1 30  2  0  0  0
  1 80  1  0  0  0
  2  3  1  0  0  0
  2 25  1  0  0  0
  2 82  1  0  0  0
  2 83  1  0  0  0
  3  4  1  0  0  0
  3 84  1  0  0  0
  3 85  1  0  0  0
  4  5  1  0  0  0
  4 86  1  0  0  0
  4 87  1  0  0  0
  5  6  1  0  0  0
  5 26  1  0  0  0
  5 88  1  0  0  0
  6 25  1  0  0  0
  6 89  1  0  0  0
  6 90  1  0  0  0
  7  8  2  0  0  0
  7 26  1  0  0  0
  7 29  1  0  0  0
  8  9  1  0  0  0
  8 22  1  0  0  0
  9 10  1  0  0  0
  9 27  2  0  0  0
 10 11  2  0  0  0
 10 15  1  0  0  0
 11 12  1  0  0  0
 11 91  1  0  0  0
 12 13  2  0  0  0
 12 92  1  0  0  0
 13 14  1  0  0  0
 13 31  1  0  0  0
 14 15  2  0  0  0
 14 93  1  0  0  0
 15 94  1  0  0  0
 16 17  2  0  0  0
 16 21  1  0  0  0
 16 31  1  0  0  0
 17 18  1  0  0  0
 17 95  1  0  0  0
 18 19  2  0  0  0
 18 96  1  0  0  0
 19 20  1  0  0  0
 19 24  1  0  0  0
 20 21  2  0  0  0
 20 97  1  0  0  0
 21 23  1  0  0  0
 22 28  1  0  0  0
 22 32  2  0  0  0
 26 27  1  0  0  0
 28 98  1  0  0  0
 28 99  1  0  0  0
 29100  1  0  0  0
 29101  1  0  0  0
 33 34  1  0  0  0
 33 66  1  0  0  0
 33 70  2  0  0  0
 34 36  1  0  0  0
 34 59  1  0  0  0
 34102  1  0  0  0
 35 44  2  0  0  0
 35 45  1  0  0  0
 35 68  1  0  0  0
 36 56  1  0  0  0
 36103  1  0  0  0
 37 39  1  0  0  0
 37 47  1  0  0  0
 37 66  1  0  0  0
 37104  1  0  0  0
 38 43  2  0  0  0
 38 46  1  0  0  0
 38 47  1  0  0  0
 39 64  1  0  0  0
 39 67  2  0  0  0
 40 52  1  0  0  0
 40 53  2  0  0  0
 40 58  1  0  0  0
 41105  1  0  0  0
 41106  1  0  0  0
 41107  1  0  0  0
 41 48  1  0  0  0
 42 43  1  0  0  0
 42 66  1  0  0  0
 42108  1  0  0  0
 42109  1  0  0  0
 43 44  1  0  0  0
 44110  1  0  0  0
 45 46  2  0  0  0
 45111  1  0  0  0
 46112  1  0  0  0
 47113  1  0  0  0
 47114  1  0  0  0
 48 56  1  0  0  0
 48 65  1  0  0  0
 48115  1  0  0  0
 49 50  1  0  0  0
 49 53  1  0  0  0
 49 64  1  0  0  0
 49116  1  0  0  0
 50 51  1  0  0  0
 50117  1  0  0  0
 50118  1  0  0  0
 51 52  1  0  0  0
 51119  1  0  0  0
 51120  1  0  0  0
 52121  1  0  0  0
 52122  1  0  0  0
 53 54  1  0  0  0
 54 55  2  0  0  0
 54123  1  0  0  0
 55 57  1  0  0  0
 55124  1  0  0  0
 56 69  2  0  0  0
 57 58  2  0  0  0
 57125  1  0  0  0
 58126  1  0  0  0
 59 60  1  0  0  0
 59 61  1  0  0  0
 59 62  1  0  0  0
 60127  1  0  0  0
 60128  1  0  0  0
 60129  1  0  0  0
 61130  1  0  0  0
 61131  1  0  0  0
 61132  1  0  0  0
 62133  1  0  0  0
 62134  1  0  0  0
 62135  1  0  0  0
 63 65  1  0  0  0
 63136  1  0  0  0
 63137  1  0  0  0
 63138  1  0  0  0
 64139  1  0  0  0
 65140  1  0  0  0
 68 76  1  0  0  0
 71 73  2  0  0  0
 71 79  1  0  0  0
 71141  1  0  0  0
 72 74  1  0  0  0
 72 78  2  0  0  0
 72142  1  0  0  0
 73 78  1  0  0  0
 73 80  1  0  0  0
 74 79  2  0  0  0
 74 81  1  0  0  0
 75143  1  0  0  0
 75144  1  0  0  0
 75145  1  0  0  0
 75 77  1  0  0  0
 76 77  1  0  0  0
 76146  1  0  0  0
 76147  1  0  0  0
 77 81  1  0  0  0
 77148  1  0  0  0
 80149  1  0  0  0
 81150  1  0  0  0
M  ISO  4   1 100  68 101  76 101  80 100
M  END
> <chiral flag>
0

> <version>
0

> <s_m_source_file>
/data/baiqing/PycharmProjects/Reinvent-master-3.2/result/LINK_invent/BTK/process_docking_weight1_custom_product_contain_oxygen_bond_distance_aromatic_linkinvent_7_9_3/rearranged_h_0199.sdf

> <i_m_source_file_index>
90

> <r_mmod_Potential_Energy-OPLS-2005>
479.724029541016

> <r_mmod_Stretch_Energy-OPLS-2005>
233.127670288086

> <r_mmod_Bend_Energy-OPLS-2005>
276.176177978516

> <r_mmod_Torsional_Energy-OPLS-2005>
250.392578125

> <r_mmod_Improper_Torsional_Energy-OPLS-2005>
10.3770942687988

> <r_mmod_Van_der_Waal_Energy-OPLS-2005>
128.467727661133

> <r_mmod_Electrostatic_Energy-OPLS-2005>
-364.612884521484

> <r_mmod_Solvation_Energy-OPLS-2005>
-245.630508422852

> <b_mmod_Minimization_Converged-OPLS-2005>
0

> <r_mmod_RMS_Derivative-OPLS-2005>
0.507483124732971

$$$$
90
                    3D
 Structure written by MMmdl.
145153  0  0  1  0            999 V2000
  -30.4034  -15.3696   20.3628 C   0  0  0  0  0  0
  -30.4381  -12.8910   19.5123 C   0  0  0  0  0  0
  -29.5362  -12.5922   18.2870 C   0  0  0  0  0  0
  -28.0918  -12.2944   18.7259 C   0  0  0  0  0  0
  -27.6055  -13.2813   19.8148 C   0  0  2  0  0  0
  -28.6403  -13.5054   20.9378 C   0  0  0  0  0  0
  -25.2374  -13.8254   20.5768 C   0  0  0  0  0  0
  -24.1733  -13.0434   20.9266 C   0  0  0  0  0  0
  -24.6397  -11.6933   20.8762 C   0  0  0  0  0  0
  -23.9091  -10.4290   21.0403 C   0  0  0  0  0  0
  -24.3635   -9.4205   21.9187 C   0  0  0  0  0  0
  -23.6301   -8.2245   22.0753 C   0  0  0  0  0  0
  -22.4285   -8.0282   21.3542 C   0  0  0  0  0  0
  -21.9924   -9.0258   20.4645 C   0  0  0  0  0  0
  -22.7257  -10.2134   20.3054 C   0  0  0  0  0  0
  -21.6856   -6.0732   22.5277 C   0  0  0  0  0  0
  -21.4019   -6.5635   23.8212 C   0  0  0  0  0  0
  -21.3663   -5.6785   24.9173 C   0  0  0  0  0  0
  -21.6047   -4.3049   24.7224 C   0  0  0  0  0  0
  -21.8821   -3.8143   23.4344 C   0  0  0  0  0  0
  -21.9193   -4.6959   22.3399 C   0  0  0  0  0  0
  -22.7751  -13.5184   21.1907 C   0  0  0  0  0  0
  -22.1659   -4.2144   21.0976 F   0  0  0  0  0  0
  -21.5628   -3.4533   25.7739 F   0  0  0  0  0  0
  -29.8478  -14.0496   20.2884 N   0  0  0  0  0  0
  -26.2800  -12.9537   20.3219 N   0  0  0  0  0  0
  -25.9335  -11.6634   20.5712 N   0  0  0  0  0  0
  -22.0407  -12.8172   22.0464 N   0  0  0  0  0  0
  -25.3992  -15.1992   20.4214 N   0  0  0  0  0  0
  -31.6379  -15.3455   20.2368 O   0  0  0  0  0  0
  -21.6644   -6.8882   21.4242 O   0  0  0  0  0  0
  -22.3431  -14.5482   20.6742 O   0  0  0  0  0  0
  -24.6700  -31.8170   23.1644 C   0  0  0  0  0  0
  -25.9350  -32.4556   23.8139 C   0  0  1  0  0  0
  -27.2196  -26.8582   20.1998 C   0  0  0  0  0  0
  -25.5991  -33.8371   24.2045 N   0  0  0  0  0  0
  -23.4885  -30.4257   21.5161 C   0  0  2  0  0  0
  -24.9424  -28.7963   20.1215 C   0  0  0  0  0  0
  -22.7703  -29.4412   22.4771 C   0  0  0  0  0  0
  -18.0326  -28.1415   22.8460 C   0  0  0  0  0  0
  -24.1495  -36.7191   23.2647 C   0  0  0  0  0  0
  -26.0623  -30.6013   21.4050 C   0  0  0  0  0  0
  -26.1307  -29.1819   20.7552 C   0  0  0  0  0  0
  -27.2655  -28.2384   20.7625 C   0  0  0  0  0  0
  -25.9996  -26.6428   19.5187 C   0  0  0  0  0  0
  -24.9061  -27.5481   19.4814 C   0  0  0  0  0  0
  -23.7333  -29.7338   20.1472 C   0  0  0  0  0  0
  -25.4138  -36.2947   24.0293 C   0  0  1  0  0  0
  -20.5955  -28.3770   23.1176 C   0  0  2  0  0  0
  -20.6799  -26.9444   22.5406 C   0  0  0  0  0  0
  -19.5775  -26.6377   21.5219 C   0  0  0  0  0  0
  -18.1956  -26.7944   22.1625 C   0  0  0  0  0  0
  -19.1587  -28.8916   23.2799 C   0  0  0  0  0  0
  -18.9496  -30.1502   23.8837 C   0  0  0  0  0  0
  -17.6486  -30.6602   24.0549 C   0  0  0  0  0  0
  -25.9109  -34.9330   23.4994 C   0  0  0  0  0  0
  -16.5378  -29.9084   23.6342 C   0  0  0  0  0  0
  -16.7305  -28.6505   23.0361 C   0  0  0  0  0  0
  -26.4574  -31.6521   25.0691 C   0  0  0  0  0  0
  -25.3680  -31.3789   26.1333 C   0  0  0  0  0  0
  -27.0484  -30.2878   24.6477 C   0  0  0  0  0  0
  -27.6052  -32.4344   25.7501 C   0  0  0  0  0  0
  -27.5568  -37.1754   24.8466 C   0  0  0  0  0  0
  -21.4366  -29.3047   22.3518 N   0  0  0  0  0  0
  -26.4277  -37.3690   23.9407 N   0  0  0  0  0  0
  -24.7623  -30.9771   22.0816 N   0  0  0  0  0  0
  -23.4218  -28.7986   23.3044 O   0  0  0  0  0  0
  -28.2066  -25.7133   20.1991 O   0  0  0  0  0  0
  -26.5727  -34.8877   22.4596 O   0  0  0  0  0  0
  -23.5754  -32.1171   23.6698 O   0  0  0  0  0  0
  -29.2484  -19.9141   20.1063 C   0  0  0  0  0  0
  -29.1248  -20.2861   18.7735 C   0  0  0  0  0  0
  -28.6166  -22.5460   20.1184 C   0  0  0  0  0  0
  -29.8637  -18.3298   20.6786 C   0  0  0  0  0  0
  -27.8928  -24.1098   20.5816 C   0  0  0  0  0  0
  -28.9266  -21.2753   20.7942 N   0  0  0  0  0  0
  -29.3263  -19.4586   17.6777 N   0  0  0  0  0  0
  -29.6381  -16.6659   20.3839 N   0  0  0  0  0  0
  -28.7138  -22.0202   18.4255 S   0  0  0  0  0  0
  -31.4449  -13.1232   19.1625 H   0  0  0  0  0  0
  -30.5455  -12.0078   20.1440 H   0  0  0  0  0  0
  -29.9364  -11.7546   17.7140 H   0  0  0  0  0  0
  -29.5423  -13.4532   17.6165 H   0  0  0  0  0  0
  -28.0685  -11.2776   19.1195 H   0  0  0  0  0  0
  -27.4198  -12.3067   17.8669 H   0  0  0  0  0  0
  -27.5018  -14.2338   19.2937 H   0  0  0  0  0  0
  -28.8450  -12.5865   21.4892 H   0  0  0  0  0  0
  -28.2610  -14.2264   21.6639 H   0  0  0  0  0  0
  -25.2779   -9.5677   22.4767 H   0  0  0  0  0  0
  -24.0003   -7.4635   22.7477 H   0  0  0  0  0  0
  -21.0856   -8.8784   19.8951 H   0  0  0  0  0  0
  -22.3719  -10.9677   19.6163 H   0  0  0  0  0  0
  -21.2013   -7.6144   23.9714 H   0  0  0  0  0  0
  -21.1486   -6.0515   25.9075 H   0  0  0  0  0  0
  -22.0599   -2.7604   23.2845 H   0  0  0  0  0  0
  -22.4027  -11.9846   22.4872 H   0  0  0  0  0  0
  -21.1021  -13.1188   22.2659 H   0  0  0  0  0  0
  -24.6279  -15.8476   20.5376 H   0  0  0  0  0  0
  -26.2392  -15.6426   20.0751 H   0  0  0  0  0  0
  -26.7420  -32.5074   23.0853 H   0  0  0  0  0  0
  -25.0080  -33.9441   25.0157 H   0  0  0  0  0  0
  -22.8047  -31.2581   21.3378 H   0  0  0  0  0  0
  -23.3769  -35.9509   23.3274 H   0  0  0  0  0  0
  -24.3567  -36.8878   22.2068 H   0  0  0  0  0  0
  -23.7240  -37.6362   23.6732 H   0  0  0  0  0  0
  -26.2492  -31.3356   20.6199 H   0  0  0  0  0  0
  -26.9192  -30.6645   22.0631 H   0  0  0  0  0  0
  -28.1687  -28.5407   21.2733 H   0  0  0  0  0  0
  -25.8636  -25.6957   19.0165 H   0  0  0  0  0  0
  -24.0069  -27.2468   18.9621 H   0  0  0  0  0  0
  -23.8976  -30.4971   19.3860 H   0  0  0  0  0  0
  -22.8414  -29.1926   19.8271 H   0  0  0  0  0  0
  -25.1340  -36.1730   25.0783 H   0  0  0  0  0  0
  -21.0038  -28.3373   24.1303 H   0  0  0  0  0  0
  -20.5673  -26.2393   23.3657 H   0  0  0  0  0  0
  -21.6663  -26.7408   22.1220 H   0  0  0  0  0  0
  -19.6939  -25.6274   21.1291 H   0  0  0  0  0  0
  -19.6709  -27.3149   20.6719 H   0  0  0  0  0  0
  -17.4226  -26.6680   21.4027 H   0  0  0  0  0  0
  -18.0348  -26.0103   22.9041 H   0  0  0  0  0  0
  -19.7969  -30.7335   24.2180 H   0  0  0  0  0  0
  -17.5036  -31.6276   24.5162 H   0  0  0  0  0  0
  -15.5374  -30.2965   23.7703 H   0  0  0  0  0  0
  -15.8707  -28.0801   22.7111 H   0  0  0  0  0  0
  -24.5888  -30.7115   25.7635 H   0  0  0  0  0  0
  -24.8844  -32.2994   26.4608 H   0  0  0  0  0  0
  -25.7895  -30.9053   27.0209 H   0  0  0  0  0  0
  -26.3171  -29.6533   24.1463 H   0  0  0  0  0  0
  -27.3964  -29.7264   25.5158 H   0  0  0  0  0  0
  -27.9128  -30.4038   23.9940 H   0  0  0  0  0  0
  -27.2616  -33.3698   26.1930 H   0  0  0  0  0  0
  -28.3943  -32.6825   25.0389 H   0  0  0  0  0  0
  -28.0637  -31.8572   26.5541 H   0  0  0  0  0  0
  -28.2565  -38.0070   24.7516 H   0  0  0  0  0  0
  -28.1087  -36.2597   24.6295 H   0  0  0  0  0  0
  -27.2285  -37.1393   25.8869 H   0  0  0  0  0  0
  -20.9645  -29.8727   21.6619 H   0  0  0  0  0  0
  -26.0118  -38.2745   24.1414 H   0  0  0  0  0  0
  -29.7433  -18.3710   21.7607 H   0  0  0  0  0  0
  -30.9440  -18.4127   20.5577 H   0  0  0  0  0  0
  -26.8367  -23.9848   20.3453 H   0  0  0  0  0  0
  -27.9098  -24.1038   21.6711 H   0  0  0  0  0  0
  -29.5226  -18.4642   17.7526 H   0  0  0  0  0  0
  -29.1866  -19.7583   16.7167 H   0  0  0  0  0  0
  -28.6510  -16.4668   20.3243 H   0  0  0  0  0  0
  1 25  1  0  0  0
  1 30  2  0  0  0
  1 78  1  0  0  0
  2  3  1  0  0  0
  2 25  1  0  0  0
  2 80  1  0  0  0
  2 81  1  0  0  0
  3  4  1  0  0  0
  3 82  1  0  0  0
  3 83  1  0  0  0
  4  5  1  0  0  0
  4 84  1  0  0  0
  4 85  1  0  0  0
  5  6  1  0  0  0
  5 26  1  0  0  0
  5 86  1  0  0  0
  6 25  1  0  0  0
  6 87  1  0  0  0
  6 88  1  0  0  0
  7  8  2  0  0  0
  7 26  1  0  0  0
  7 29  1  0  0  0
  8  9  1  0  0  0
  8 22  1  0  0  0
  9 10  1  0  0  0
  9 27  2  0  0  0
 10 11  2  0  0  0
 10 15  1  0  0  0
 11 12  1  0  0  0
 11 89  1  0  0  0
 12 13  2  0  0  0
 12 90  1  0  0  0
 13 14  1  0  0  0
 13 31  1  0  0  0
 14 15  2  0  0  0
 14 91  1  0  0  0
 15 92  1  0  0  0
 16 17  2  0  0  0
 16 21  1  0  0  0
 16 31  1  0  0  0
 17 18  1  0  0  0
 17 93  1  0  0  0
 18 19  2  0  0  0
 18 94  1  0  0  0
 19 20  1  0  0  0
 19 24  1  0  0  0
 20 21  2  0  0  0
 20 95  1  0  0  0
 21 23  1  0  0  0
 22 28  1  0  0  0
 22 32  2  0  0  0
 26 27  1  0  0  0
 28 96  1  0  0  0
 28 97  1  0  0  0
 29 98  1  0  0  0
 29 99  1  0  0  0
 33 34  1  0  0  0
 33 66  1  0  0  0
 33 70  2  0  0  0
 34 36  1  0  0  0
 34 59  1  0  0  0
 34100  1  0  0  0
 35 44  2  0  0  0
 35 45  1  0  0  0
 35 68  1  0  0  0
 36 56  1  0  0  0
 36101  1  0  0  0
 37 39  1  0  0  0
 37 47  1  0  0  0
 37 66  1  0  0  0
 37102  1  0  0  0
 38 43  2  0  0  0
 38 46  1  0  0  0
 38 47  1  0  0  0
 39 64  1  0  0  0
 39 67  2  0  0  0
 40 52  1  0  0  0
 40 53  2  0  0  0
 40 58  1  0  0  0
 41103  1  0  0  0
 41104  1  0  0  0
 41105  1  0  0  0
 41 48  1  0  0  0
 42 43  1  0  0  0
 42 66  1  0  0  0
 42106  1  0  0  0
 42107  1  0  0  0
 43 44  1  0  0  0
 44108  1  0  0  0
 45 46  2  0  0  0
 45109  1  0  0  0
 46110  1  0  0  0
 47111  1  0  0  0
 47112  1  0  0  0
 48 56  1  0  0  0
 48 65  1  0  0  0
 48113  1  0  0  0
 49 50  1  0  0  0
 49 53  1  0  0  0
 49 64  1  0  0  0
 49114  1  0  0  0
 50 51  1  0  0  0
 50115  1  0  0  0
 50116  1  0  0  0
 51 52  1  0  0  0
 51117  1  0  0  0
 51118  1  0  0  0
 52119  1  0  0  0
 52120  1  0  0  0
 53 54  1  0  0  0
 54 55  2  0  0  0
 54121  1  0  0  0
 55 57  1  0  0  0
 55122  1  0  0  0
 56 69  2  0  0  0
 57 58  2  0  0  0
 57123  1  0  0  0
 58124  1  0  0  0
 59 60  1  0  0  0
 59 61  1  0  0  0
 59 62  1  0  0  0
 60125  1  0  0  0
 60126  1  0  0  0
 60127  1  0  0  0
 61128  1  0  0  0
 61129  1  0  0  0
 61130  1  0  0  0
 62131  1  0  0  0
 62132  1  0  0  0
 62133  1  0  0  0
 63 65  1  0  0  0
 63134  1  0  0  0
 63135  1  0  0  0
 63136  1  0  0  0
 64137  1  0  0  0
 65138  1  0  0  0
 68 75  1  0  0  0
 71 72  2  0  0  0
 71 74  1  0  0  0
 71 76  1  0  0  0
 72 77  1  0  0  0
 72 79  1  0  0  0
 73 75  1  0  0  0
 73 76  2  0  0  0
 73 79  1  0  0  0
 74 78  1  0  0  0
 74139  1  0  0  0
 74140  1  0  0  0
 75141  1  0  0  0
 75142  1  0  0  0
 77143  1  0  0  0
 77144  1  0  0  0
 78145  1  0  0  0
M  ISO  4   1 100  68 101  75 101  78 100
M  END
> <chiral flag>
0

> <version>
0

> <s_m_source_file>
/data/baiqing/PycharmProjects/Reinvent-master-3.2/result/LINK_invent/BTK/process_docking_weight1_custom_product_contain_oxygen_bond_distance_aromatic_linkinvent_7_9_3/rearranged_h_0199.sdf

> <i_m_source_file_index>
91

> <r_mmod_Potential_Energy-OPLS-2005>
1513.99401855469

> <r_mmod_Stretch_Energy-OPLS-2005>
692.228210449219

> <r_mmod_Bend_Energy-OPLS-2005>
513.440246582031

> <r_mmod_Torsional_Energy-OPLS-2005>
229.075973510742

> <r_mmod_Improper_Torsional_Energy-OPLS-2005>
6.89322662353516

> <r_mmod_Van_der_Waal_Energy-OPLS-2005>
105.634338378906

> <r_mmod_Electrostatic_Energy-OPLS-2005>
-365.675567626953

> <r_mmod_Solvation_Energy-OPLS-2005>
-239.714416503906

> <b_mmod_Minimization_Converged-OPLS-2005>
0

> <r_mmod_RMS_Derivative-OPLS-2005>
0.800418853759766

$$$$
91
                    3D
 Structure written by MMmdl.
153161  0  0  1  0            999 V2000
  -30.6162  -14.6331   20.5033 C   0  0  0  0  0  0
  -30.4485  -12.3904   19.4411 C   0  0  0  0  0  0
  -29.5132  -12.5080   18.2152 C   0  0  0  0  0  0
  -28.0327  -12.3492   18.6236 C   0  0  0  0  0  0
  -27.6541  -13.2125   19.8569 C   0  0  2  0  0  0
  -28.7018  -13.0563   20.9836 C   0  0  0  0  0  0
  -25.2566  -13.8155   20.5665 C   0  0  0  0  0  0
  -24.1833  -13.0430   20.9187 C   0  0  0  0  0  0
  -24.6383  -11.6894   20.8723 C   0  0  0  0  0  0
  -23.9050  -10.4282   21.0396 C   0  0  0  0  0  0
  -24.3605   -9.4206   21.9176 C   0  0  0  0  0  0
  -23.6292   -8.2240   22.0742 C   0  0  0  0  0  0
  -22.4265   -8.0279   21.3553 C   0  0  0  0  0  0
  -21.9897   -9.0251   20.4662 C   0  0  0  0  0  0
  -22.7214  -10.2135   20.3071 C   0  0  0  0  0  0
  -21.6846   -6.0737   22.5286 C   0  0  0  0  0  0
  -21.4007   -6.5636   23.8214 C   0  0  0  0  0  0
  -21.3657   -5.6790   24.9182 C   0  0  0  0  0  0
  -21.6042   -4.3057   24.7230 C   0  0  0  0  0  0
  -21.8816   -3.8149   23.4348 C   0  0  0  0  0  0
  -21.9183   -4.6965   22.3407 C   0  0  0  0  0  0
  -22.7853  -13.5241   21.1845 C   0  0  0  0  0  0
  -22.1658   -4.2150   21.0985 F   0  0  0  0  0  0
  -21.5631   -3.4537   25.7742 F   0  0  0  0  0  0
  -30.0174  -13.4029   20.4225 N   0  0  0  0  0  0
  -26.2989  -12.9328   20.3269 N   0  0  0  0  0  0
  -25.9311  -11.6489   20.5716 N   0  0  0  0  0  0
  -22.0468  -12.8276   22.0416 N   0  0  0  0  0  0
  -25.4230  -15.1877   20.4062 N   0  0  0  0  0  0
  -31.7929  -14.7986   20.1617 O   0  0  0  0  0  0
  -21.6635   -6.8877   21.4242 O   0  0  0  0  0  0
  -22.3539  -14.5537   20.6659 O   0  0  0  0  0  0
  -24.6257  -31.8605   23.2041 C   0  0  0  0  0  0
  -25.9110  -32.4787   23.8370 C   0  0  1  0  0  0
  -27.2246  -27.3167   20.1178 C   0  0  0  0  0  0
  -25.5933  -33.8585   24.2298 N   0  0  0  0  0  0
  -23.4208  -30.4844   21.5458 C   0  0  2  0  0  0
  -24.8695  -28.9428   20.1112 C   0  0  0  0  0  0
  -22.7485  -29.4617   22.4924 C   0  0  0  0  0  0
  -18.0290  -28.1363   22.8483 C   0  0  0  0  0  0
  -24.1489  -36.7288   23.2637 C   0  0  0  0  0  0
  -25.9638  -30.7890   21.3809 C   0  0  0  0  0  0
  -26.0380  -29.4175   20.7202 C   0  0  0  0  0  0
  -27.2178  -28.6149   20.7173 C   0  0  0  0  0  0
  -26.0324  -26.9010   19.4790 C   0  0  0  0  0  0
  -24.8684  -27.6896   19.4825 C   0  0  0  0  0  0
  -23.6381  -29.8231   20.1598 C   0  0  0  0  0  0
  -25.4111  -36.3087   24.0334 C   0  0  1  0  0  0
  -20.5894  -28.3671   23.1278 C   0  0  2  0  0  0
  -20.6776  -26.9389   22.5406 C   0  0  0  0  0  0
  -19.5752  -26.6358   21.5209 C   0  0  0  0  0  0
  -18.1936  -26.7904   22.1622 C   0  0  0  0  0  0
  -19.1542  -28.8837   23.2872 C   0  0  0  0  0  0
  -18.9468  -30.1441   23.8884 C   0  0  0  0  0  0
  -17.6467  -30.6578   24.0546 C   0  0  0  0  0  0
  -25.9052  -34.9456   23.5117 C   0  0  0  0  0  0
  -16.5358  -29.9073   23.6321 C   0  0  0  0  0  0
  -16.7274  -28.6482   23.0354 C   0  0  0  0  0  0
  -26.4503  -31.6600   25.0741 C   0  0  0  0  0  0
  -25.3747  -31.3752   26.1482 C   0  0  0  0  0  0
  -27.0357  -30.3030   24.6198 C   0  0  0  0  0  0
  -27.6080  -32.4329   25.7490 C   0  0  0  0  0  0
  -27.5581  -37.1792   24.8458 C   0  0  0  0  0  0
  -21.4202  -29.3030   22.3683 N   0  0  0  0  0  0
  -26.4287  -37.3784   23.9416 N   0  0  0  0  0  0
  -24.6882  -31.0613   22.1004 N   0  0  0  0  0  0
  -23.4215  -28.8152   23.2997 O   0  0  0  0  0  0
  -28.3359  -26.4574   20.1783 O   0  0  0  0  0  0
  -26.5610  -34.8920   22.4677 O   0  0  0  0  0  0
  -23.5413  -32.1415   23.7356 O   0  0  0  0  0  0
  -28.8929  -17.7417   19.8049 C   0  0  0  0  0  0
  -30.6422  -19.2580   21.2236 C   0  0  0  0  0  0
  -28.8238  -19.1592   19.6741 C   0  0  0  0  0  0
  -29.6990  -19.9788   20.4402 C   0  0  0  0  0  0
  -29.8609  -17.1063   20.6219 C   0  0  0  0  0  0
  -28.7958  -22.4083   20.4568 C   0  0  0  0  0  0
  -27.8437  -19.7363   18.6701 C   0  0  0  0  0  0
  -29.1993  -23.9389   20.4344 C   0  0  0  0  0  0
  -28.0956  -25.0016   20.0011 C   0  0  0  0  0  0
  -30.7238  -17.8946   21.3145 N   0  0  0  0  0  0
  -29.7697  -21.4459   20.3887 N   0  0  0  0  0  0
  -29.7579  -15.6643   20.7683 N   0  0  0  0  0  0
  -27.6072  -22.1062   20.5748 O   0  0  0  0  0  0
  -31.4875  -12.5299   19.1360 H   0  0  0  0  0  0
  -30.3945  -11.3910   19.8760 H   0  0  0  0  0  0
  -29.7802  -11.7576   17.4692 H   0  0  0  0  0  0
  -29.6572  -13.4769   17.7341 H   0  0  0  0  0  0
  -27.8604  -11.2955   18.8440 H   0  0  0  0  0  0
  -27.3825  -12.5922   17.7814 H   0  0  0  0  0  0
  -27.6720  -14.2478   19.5165 H   0  0  0  0  0  0
  -28.7111  -12.0303   21.3555 H   0  0  0  0  0  0
  -28.4508  -13.6803   21.8413 H   0  0  0  0  0  0
  -25.2761   -9.5680   22.4743 H   0  0  0  0  0  0
  -24.0007   -7.4619   22.7457 H   0  0  0  0  0  0
  -21.0817   -8.8766   19.8984 H   0  0  0  0  0  0
  -22.3658  -10.9670   19.6184 H   0  0  0  0  0  0
  -21.2000   -7.6144   23.9722 H   0  0  0  0  0  0
  -21.1481   -6.0523   25.9083 H   0  0  0  0  0  0
  -22.0595   -2.7608   23.2846 H   0  0  0  0  0  0
  -22.4071  -11.9979   22.4917 H   0  0  0  0  0  0
  -21.1086  -13.1348   22.2576 H   0  0  0  0  0  0
  -24.6427  -15.8291   20.5015 H   0  0  0  0  0  0
  -26.2542  -15.6343   20.0441 H   0  0  0  0  0  0
  -26.7174  -32.5465   23.1112 H   0  0  0  0  0  0
  -25.0099  -33.9733   25.0456 H   0  0  0  0  0  0
  -22.7129  -31.3035   21.4028 H   0  0  0  0  0  0
  -23.3764  -35.9607   23.3290 H   0  0  0  0  0  0
  -24.3585  -36.8916   22.2055 H   0  0  0  0  0  0
  -23.7227  -37.6480   23.6663 H   0  0  0  0  0  0
  -26.1016  -31.5541   20.6155 H   0  0  0  0  0  0
  -26.8425  -30.8329   22.0136 H   0  0  0  0  0  0
  -28.1112  -28.9697   21.2122 H   0  0  0  0  0  0
  -25.9665  -25.9473   18.9779 H   0  0  0  0  0  0
  -23.9740  -27.3211   18.9997 H   0  0  0  0  0  0
  -23.7621  -30.6024   19.4064 H   0  0  0  0  0  0
  -22.7594  -29.2533   19.8526 H   0  0  0  0  0  0
  -25.1287  -36.1939   25.0825 H   0  0  0  0  0  0
  -20.9976  -28.3234   24.1402 H   0  0  0  0  0  0
  -20.5675  -26.2271   23.3603 H   0  0  0  0  0  0
  -21.6646  -26.7414   22.1204 H   0  0  0  0  0  0
  -19.6914  -25.6267   21.1244 H   0  0  0  0  0  0
  -19.6697  -27.3165   20.6739 H   0  0  0  0  0  0
  -17.4203  -26.6644   21.4026 H   0  0  0  0  0  0
  -18.0340  -26.0047   22.9021 H   0  0  0  0  0  0
  -19.7949  -30.7250   24.2250 H   0  0  0  0  0  0
  -17.5030  -31.6261   24.5138 H   0  0  0  0  0  0
  -15.5359  -30.2974   23.7648 H   0  0  0  0  0  0
  -15.8673  -28.0797   22.7081 H   0  0  0  0  0  0
  -24.5840  -30.7205   25.7801 H   0  0  0  0  0  0
  -24.9041  -32.2937   26.4997 H   0  0  0  0  0  0
  -25.8058  -30.8828   27.0207 H   0  0  0  0  0  0
  -26.2945  -29.6765   24.1224 H   0  0  0  0  0  0
  -27.4073  -29.7295   25.4700 H   0  0  0  0  0  0
  -27.8805  -30.4333   23.9432 H   0  0  0  0  0  0
  -27.2707  -33.3606   26.2119 H   0  0  0  0  0  0
  -28.3853  -32.6928   25.0294 H   0  0  0  0  0  0
  -28.0802  -31.8431   26.5352 H   0  0  0  0  0  0
  -28.2592  -38.0096   24.7526 H   0  0  0  0  0  0
  -28.1083  -36.2631   24.6256 H   0  0  0  0  0  0
  -27.2301  -37.1410   25.8859 H   0  0  0  0  0  0
  -20.9372  -29.8775   21.6922 H   0  0  0  0  0  0
  -26.0170  -38.2853   24.1443 H   0  0  0  0  0  0
  -28.2009  -17.1315   19.2411 H   0  0  0  0  0  0
  -31.3687  -19.7987   21.8144 H   0  0  0  0  0  0
  -27.6993  -19.0535   17.8321 H   0  0  0  0  0  0
  -28.2065  -20.6755   18.2552 H   0  0  0  0  0  0
  -26.8778  -19.9117   19.1420 H   0  0  0  0  0  0
  -30.0746  -24.0550   19.7952 H   0  0  0  0  0  0
  -29.5274  -24.1810   21.4450 H   0  0  0  0  0  0
  -27.1810  -24.7392   20.5346 H   0  0  0  0  0  0
  -27.8940  -24.8314   18.9425 H   0  0  0  0  0  0
  -30.7076  -21.8243   20.4135 H   0  0  0  0  0  0
  -28.8161  -15.3350   20.9022 H   0  0  0  0  0  0
  1 25  1  0  0  0
  1 30  2  0  0  0
  1 82  1  0  0  0
  2  3  1  0  0  0
  2 25  1  0  0  0
  2 84  1  0  0  0
  2 85  1  0  0  0
  3  4  1  0  0  0
  3 86  1  0  0  0
  3 87  1  0  0  0
  4  5  1  0  0  0
  4 88  1  0  0  0
  4 89  1  0  0  0
  5  6  1  0  0  0
  5 26  1  0  0  0
  5 90  1  0  0  0
  6 25  1  0  0  0
  6 91  1  0  0  0
  6 92  1  0  0  0
  7  8  2  0  0  0
  7 26  1  0  0  0
  7 29  1  0  0  0
  8  9  1  0  0  0
  8 22  1  0  0  0
  9 10  1  0  0  0
  9 27  2  0  0  0
 10 11  2  0  0  0
 10 15  1  0  0  0
 11 12  1  0  0  0
 11 93  1  0  0  0
 12 13  2  0  0  0
 12 94  1  0  0  0
 13 14  1  0  0  0
 13 31  1  0  0  0
 14 15  2  0  0  0
 14 95  1  0  0  0
 15 96  1  0  0  0
 16 17  2  0  0  0
 16 21  1  0  0  0
 16 31  1  0  0  0
 17 18  1  0  0  0
 17 97  1  0  0  0
 18 19  2  0  0  0
 18 98  1  0  0  0
 19 20  1  0  0  0
 19 24  1  0  0  0
 20 21  2  0  0  0
 20 99  1  0  0  0
 21 23  1  0  0  0
 22 28  1  0  0  0
 22 32  2  0  0  0
 26 27  1  0  0  0
 28100  1  0  0  0
 28101  1  0  0  0
 29102  1  0  0  0
 29103  1  0  0  0
 33 34  1  0  0  0
 33 66  1  0  0  0
 33 70  2  0  0  0
 34 36  1  0  0  0
 34 59  1  0  0  0
 34104  1  0  0  0
 35 44  2  0  0  0
 35 45  1  0  0  0
 35 68  1  0  0  0
 36 56  1  0  0  0
 36105  1  0  0  0
 37 39  1  0  0  0
 37 47  1  0  0  0
 37 66  1  0  0  0
 37106  1  0  0  0
 38 43  2  0  0  0
 38 46  1  0  0  0
 38 47  1  0  0  0
 39 64  1  0  0  0
 39 67  2  0  0  0
 40 52  1  0  0  0
 40 53  2  0  0  0
 40 58  1  0  0  0
 41107  1  0  0  0
 41108  1  0  0  0
 41109  1  0  0  0
 41 48  1  0  0  0
 42 43  1  0  0  0
 42 66  1  0  0  0
 42110  1  0  0  0
 42111  1  0  0  0
 43 44  1  0  0  0
 44112  1  0  0  0
 45 46  2  0  0  0
 45113  1  0  0  0
 46114  1  0  0  0
 47115  1  0  0  0
 47116  1  0  0  0
 48 56  1  0  0  0
 48 65  1  0  0  0
 48117  1  0  0  0
 49 50  1  0  0  0
 49 53  1  0  0  0
 49 64  1  0  0  0
 49118  1  0  0  0
 50 51  1  0  0  0
 50119  1  0  0  0
 50120  1  0  0  0
 51 52  1  0  0  0
 51121  1  0  0  0
 51122  1  0  0  0
 52123  1  0  0  0
 52124  1  0  0  0
 53 54  1  0  0  0
 54 55  2  0  0  0
 54125  1  0  0  0
 55 57  1  0  0  0
 55126  1  0  0  0
 56 69  2  0  0  0
 57 58  2  0  0  0
 57127  1  0  0  0
 58128  1  0  0  0
 59 60  1  0  0  0
 59 61  1  0  0  0
 59 62  1  0  0  0
 60129  1  0  0  0
 60130  1  0  0  0
 60131  1  0  0  0
 61132  1  0  0  0
 61133  1  0  0  0
 61134  1  0  0  0
 62135  1  0  0  0
 62136  1  0  0  0
 62137  1  0  0  0
 63 65  1  0  0  0
 63138  1  0  0  0
 63139  1  0  0  0
 63140  1  0  0  0
 64141  1  0  0  0
 65142  1  0  0  0
 68 79  1  0  0  0
 71 73  2  0  0  0
 71 75  1  0  0  0
 71143  1  0  0  0
 72 74  2  0  0  0
 72 80  1  0  0  0
 72144  1  0  0  0
 73 74  1  0  0  0
 73 77  1  0  0  0
 74 81  1  0  0  0
 75 80  2  0  0  0
 75 82  1  0  0  0
 76 78  1  0  0  0
 76 81  1  0  0  0
 76 83  2  0  0  0
 77145  1  0  0  0
 77146  1  0  0  0
 77147  1  0  0  0
 78 79  1  0  0  0
 78148  1  0  0  0
 78149  1  0  0  0
 79150  1  0  0  0
 79151  1  0  0  0
 81152  1  0  0  0
 82153  1  0  0  0
M  ISO  4   1 100  68 101  79 101  82 100
M  END
> <chiral flag>
0

> <version>
0

> <s_m_source_file>
/data/baiqing/PycharmProjects/Reinvent-master-3.2/result/LINK_invent/BTK/process_docking_weight1_custom_product_contain_oxygen_bond_distance_aromatic_linkinvent_7_9_3/rearranged_h_0199.sdf

> <i_m_source_file_index>
92

> <r_mmod_Potential_Energy-OPLS-2005>
-142.766418457031

> <r_mmod_Stretch_Energy-OPLS-2005>
76.5159378051758

> <r_mmod_Bend_Energy-OPLS-2005>
137.503875732422

> <r_mmod_Torsional_Energy-OPLS-2005>
245.628784179688

> <r_mmod_Improper_Torsional_Energy-OPLS-2005>
6.94428968429565

> <r_mmod_Van_der_Waal_Energy-OPLS-2005>
147.824493408203

> <r_mmod_Electrostatic_Energy-OPLS-2005>
-554.495483398438

> <r_mmod_Solvation_Energy-OPLS-2005>
-252.376388549805

> <b_mmod_Minimization_Converged-OPLS-2005>
0

> <r_mmod_RMS_Derivative-OPLS-2005>
2.33235955238342

$$$$
92
                    3D
 Structure written by MMmdl.
156164  0  0  1  0            999 V2000
  -27.6685  -17.2475   21.2913 C   0  0  0  0  0  0
  -29.4660  -14.7816   19.9966 C   0  0  0  0  0  0
  -29.3606  -13.5435   18.8677 C   0  0  0  0  0  0
  -28.2497  -12.5363   19.1384 C   0  0  0  0  0  0
  -27.3408  -13.4137   19.9747 C   0  0  2  0  0  0
  -27.8866  -14.1618   21.2469 C   0  0  0  0  0  0
  -25.0495  -13.8098   20.5431 C   0  0  0  0  0  0
  -24.0434  -13.0067   20.9292 C   0  0  0  0  0  0
  -24.5526  -11.6702   20.8824 C   0  0  0  0  0  0
  -23.8616  -10.4043   21.0476 C   0  0  0  0  0  0
  -24.3388   -9.4060   21.9224 C   0  0  0  0  0  0
  -23.6170   -8.2058   22.0746 C   0  0  0  0  0  0
  -22.4164   -8.0077   21.3523 C   0  0  0  0  0  0
  -21.9691   -8.9964   20.4608 C   0  0  0  0  0  0
  -22.6887  -10.1867   20.3035 C   0  0  0  0  0  0
  -21.6795   -6.0627   22.5299 C   0  0  0  0  0  0
  -21.3969   -6.5577   23.8216 C   0  0  0  0  0  0
  -21.3642   -5.6752   24.9192 C   0  0  0  0  0  0
  -21.6053   -4.3019   24.7258 C   0  0  0  0  0  0
  -21.8830   -3.8083   23.4392 C   0  0  0  0  0  0
  -21.9171   -4.6873   22.3431 C   0  0  0  0  0  0
  -22.6632  -13.4799   21.2100 C   0  0  0  0  0  0
  -22.1660   -4.2069   21.1007 F   0  0  0  0  0  0
  -21.5627   -3.4516   25.7777 F   0  0  0  0  0  0
  -28.1592  -15.6118   20.8223 N   0  0  0  0  0  0
  -26.0840  -12.9452   20.3074 N   0  0  0  0  0  0
  -25.8374  -11.6516   20.5672 N   0  0  0  0  0  0
  -21.9526  -12.7805   22.0809 N   0  0  0  0  0  0
  -25.1688  -15.1930   20.3675 N   0  0  0  0  0  0
  -29.0109  -17.2799   21.0760 O   0  0  0  0  0  0
  -21.6559   -6.8691   21.4238 O   0  0  0  0  0  0
  -22.2395  -14.5170   20.7005 O   0  0  0  0  0  0
  -24.6676  -31.9354   23.2113 C   0  0  0  0  0  0
  -25.9508  -32.5098   23.8640 C   0  0  1  0  0  0
  -27.1789  -27.4510   20.0472 C   0  0  0  0  0  0
  -25.6319  -33.8828   24.2611 N   0  0  0  0  0  0
  -23.4909  -30.6683   21.4892 C   0  0  2  0  0  0
  -24.8791  -29.0700   20.0874 C   0  0  0  0  0  0
  -22.8971  -29.6208   22.3927 C   0  0  0  0  0  0
  -18.9441  -26.5688   22.0280 C   0  0  0  0  0  0
  -24.1520  -36.7356   23.2601 C   0  0  0  0  0  0
  -26.0177  -30.8492   21.4045 C   0  0  0  0  0  0
  -26.0359  -29.4853   20.7541 C   0  0  0  0  0  0
  -27.1772  -28.6546   20.7877 C   0  0  0  0  0  0
  -26.0817  -27.2046   19.2087 C   0  0  0  0  0  0
  -24.8807  -27.9035   19.3270 C   0  0  0  0  0  0
  -23.7084  -30.0084   20.0976 C   0  0  0  0  0  0
  -25.4120  -36.3168   24.0332 C   0  0  1  0  0  0
  -21.5878  -27.8224   22.0385 C   0  0  2  0  0  0
  -21.2359  -26.8913   20.9426 C   0  0  0  0  0  0
  -19.8719  -27.0440   20.1883 C   0  0  0  0  0  0
  -18.6103  -26.4397   20.7327 C   0  0  0  0  0  0
  -20.5056  -27.6828   22.6439 C   0  0  0  0  0  0
  -20.6375  -28.1532   24.4475 C   0  0  0  0  0  0
  -19.3433  -27.5913   25.6200 C   0  0  0  0  0  0
  -25.9105  -34.9589   23.5158 C   0  0  0  0  0  0
  -17.9039  -26.5544   25.0666 C   0  0  0  0  0  0
  -17.6883  -26.0333   23.3070 C   0  0  0  0  0  0
  -26.4599  -31.6621   25.0904 C   0  0  0  0  0  0
  -25.3758  -31.3733   26.1526 C   0  0  0  0  0  0
  -27.0361  -30.3022   24.6280 C   0  0  0  0  0  0
  -27.6129  -32.4207   25.7839 C   0  0  0  0  0  0
  -27.5592  -37.1876   24.8470 C   0  0  0  0  0  0
  -21.7278  -29.2180   21.9508 N   0  0  0  0  0  0
  -26.4297  -37.3851   23.9421 N   0  0  0  0  0  0
  -24.7449  -31.1831   22.0792 N   0  0  0  0  0  0
  -23.5344  -29.0716   23.3070 O   0  0  0  0  0  0
  -28.2015  -26.5355   20.1257 O   0  0  0  0  0  0
  -26.5478  -34.8989   22.4605 O   0  0  0  0  0  0
  -23.5775  -32.2031   23.7388 O   0  0  0  0  0  0
  -22.8447  -23.8231   21.8385 C   0  0  0  0  0  0
  -24.5422  -21.6530   21.2189 C   0  0  0  0  0  0
  -23.8582  -22.9753   21.0524 C   0  0  0  0  0  0
  -22.0106  -23.7045   23.0966 C   0  0  0  0  0  0
  -24.5784  -20.6711   22.2720 C   0  0  0  0  0  0
  -20.1181  -25.7357   23.9124 C   0  0  0  0  0  0
  -25.2748  -24.5384   19.7027 C   0  0  0  0  0  0
  -27.9106  -25.1860   19.6605 C   0  0  0  0  0  0
  -26.7246  -24.3269   20.2769 C   0  0  1  0  0  0
  -18.6046  -28.0167   23.5900 N   0  0  0  0  0  0
  -23.1575  -21.9623   23.1051 N   0  3  0  0  0  0
  -24.2991  -23.4635   19.8171 N   0  0  0  0  0  0
  -26.1535  -18.6951   21.8810 N   0  0  0  0  0  0
  -27.0199  -22.9883   19.9547 O   0  0  0  0  0  0
  -29.9452  -15.5907   19.4400 H   0  0  0  0  0  0
  -30.2509  -14.5380   20.7206 H   0  0  0  0  0  0
  -30.3205  -13.0434   18.7443 H   0  0  0  0  0  0
  -29.1596  -14.0083   17.9029 H   0  0  0  0  0  0
  -28.6079  -11.6933   19.7270 H   0  0  0  0  0  0
  -27.7797  -12.1626   18.2272 H   0  0  0  0  0  0
  -27.0915  -14.1700   19.2255 H   0  0  0  0  0  0
  -28.6702  -13.6191   21.7848 H   0  0  0  0  0  0
  -27.1317  -14.2541   22.0301 H   0  0  0  0  0  0
  -25.2489   -9.5679   22.4836 H   0  0  0  0  0  0
  -23.9913   -7.4454   22.7449 H   0  0  0  0  0  0
  -21.0639   -8.8387   19.8920 H   0  0  0  0  0  0
  -22.3272  -10.9411   19.6182 H   0  0  0  0  0  0
  -21.1961   -7.6089   23.9692 H   0  0  0  0  0  0
  -21.1461   -6.0497   25.9089 H   0  0  0  0  0  0
  -22.0637   -2.7546   23.2907 H   0  0  0  0  0  0
  -22.3260  -11.9458   22.5090 H   0  0  0  0  0  0
  -21.0199  -13.0823   22.3267 H   0  0  0  0  0  0
  -24.3018  -15.7183   20.3133 H   0  0  0  0  0  0
  -25.8490  -15.5121   19.6931 H   0  0  0  0  0  0
  -26.7739  -32.5838   23.1563 H   0  0  0  0  0  0
  -25.0698  -34.0011   25.0912 H   0  0  0  0  0  0
  -22.7814  -31.4909   21.3762 H   0  0  0  0  0  0
  -23.3759  -35.9716   23.3246 H   0  0  0  0  0  0
  -24.3635  -36.8962   22.2022 H   0  0  0  0  0  0
  -23.7322  -37.6583   23.6606 H   0  0  0  0  0  0
  -26.2053  -31.5935   20.6303 H   0  0  0  0  0  0
  -26.8830  -30.8681   22.0536 H   0  0  0  0  0  0
  -28.0391  -28.9240   21.3763 H   0  0  0  0  0  0
  -26.1327  -26.4647   18.4313 H   0  0  0  0  0  0
  -24.0171  -27.6334   18.7324 H   0  0  0  0  0  0
  -23.9381  -30.7872   19.3709 H   0  0  0  0  0  0
  -22.8287  -29.4989   19.7059 H   0  0  0  0  0  0
  -25.1284  -36.1991   25.0823 H   0  0  0  0  0  0
  -22.3309  -27.2725   22.6224 H   0  0  0  0  0  0
  -21.2167  -25.8709   21.3006 H   0  0  0  0  0  0
  -22.0440  -26.9081   20.2111 H   0  0  0  0  0  0
  -19.9907  -26.6729   19.1675 H   0  0  0  0  0  0
  -19.7170  -28.1154   20.0529 H   0  0  0  0  0  0
  -17.7109  -26.9880   20.4607 H   0  0  0  0  0  0
  -18.4869  -25.3852   20.4920 H   0  0  0  0  0  0
  -21.4911  -28.7135   24.8003 H   0  0  0  0  0  0
  -19.4392  -27.8502   26.6673 H   0  0  0  0  0  0
  -17.1679  -26.2421   25.7944 H   0  0  0  0  0  0
  -16.8016  -25.4959   23.0033 H   0  0  0  0  0  0
  -24.5864  -30.7235   25.7732 H   0  0  0  0  0  0
  -24.9088  -32.2923   26.5084 H   0  0  0  0  0  0
  -25.8012  -30.8730   27.0240 H   0  0  0  0  0  0
  -26.2958  -29.6941   24.1080 H   0  0  0  0  0  0
  -27.3805  -29.7091   25.4762 H   0  0  0  0  0  0
  -27.8977  -30.4248   23.9715 H   0  0  0  0  0  0
  -27.2719  -33.3467   26.2477 H   0  0  0  0  0  0
  -28.4045  -32.6802   25.0805 H   0  0  0  0  0  0
  -28.0658  -31.8245   26.5769 H   0  0  0  0  0  0
  -28.2562  -38.0207   24.7515 H   0  0  0  0  0  0
  -28.1124  -36.2741   24.6262 H   0  0  0  0  0  0
  -27.2325  -37.1487   25.8874 H   0  0  0  0  0  0
  -21.2463  -29.7011   21.2089 H   0  0  0  0  0  0
  -26.0143  -38.2913   24.1410 H   0  0  0  0  0  0
  -22.7409  -24.7511   21.3345 H   0  0  0  0  0  0
  -25.1559  -21.3068   20.4016 H   0  0  0  0  0  0
  -19.9178  -25.2965   24.8924 H   0  0  0  0  0  0
  -24.8063  -25.4074   20.1678 H   0  0  0  0  0  0
  -25.3178  -24.6826   18.6191 H   0  0  0  0  0  0
  -27.8425  -25.1684   18.5694 H   0  0  0  0  0  0
  -28.8383  -24.6566   19.8777 H   0  0  0  0  0  0
  -26.6846  -24.4021   21.3683 H   0  0  0  0  0  0
  -18.0487  -28.1390   24.4310 H   0  0  0  0  0  0
  -22.8847  -21.4886   23.9753 H   0  0  0  0  0  0
  -24.0536  -22.9502   18.9722 H   0  0  0  0  0  0
  -26.9538  -19.2106   22.2096 H   0  0  0  0  0  0
  -26.1725  -22.6110   19.7481 H   0  0  0  0  0  0
  1 25  1  0  0  0
  1 30  2  0  0  0
  1 83  1  0  0  0
  2  3  1  0  0  0
  2 25  1  0  0  0
  2 85  1  0  0  0
  2 86  1  0  0  0
  3  4  1  0  0  0
  3 87  1  0  0  0
  3 88  1  0  0  0
  4  5  1  0  0  0
  4 89  1  0  0  0
  4 90  1  0  0  0
  5  6  1  0  0  0
  5 26  1  0  0  0
  5 91  1  0  0  0
  6 25  1  0  0  0
  6 92  1  0  0  0
  6 93  1  0  0  0
  7  8  2  0  0  0
  7 26  1  0  0  0
  7 29  1  0  0  0
  8  9  1  0  0  0
  8 22  1  0  0  0
  9 10  1  0  0  0
  9 27  2  0  0  0
 10 11  2  0  0  0
 10 15  1  0  0  0
 11 12  1  0  0  0
 11 94  1  0  0  0
 12 13  2  0  0  0
 12 95  1  0  0  0
 13 14  1  0  0  0
 13 31  1  0  0  0
 14 15  2  0  0  0
 14 96  1  0  0  0
 15 97  1  0  0  0
 16 17  2  0  0  0
 16 21  1  0  0  0
 16 31  1  0  0  0
 17 18  1  0  0  0
 17 98  1  0  0  0
 18 19  2  0  0  0
 18 99  1  0  0  0
 19 20  1  0  0  0
 19 24  1  0  0  0
 20 21  2  0  0  0
 20100  1  0  0  0
 21 23  1  0  0  0
 22 28  1  0  0  0
 22 32  2  0  0  0
 26 27  1  0  0  0
 28101  1  0  0  0
 28102  1  0  0  0
 29103  1  0  0  0
 29104  1  0  0  0
 33 34  1  0  0  0
 33 66  1  0  0  0
 33 70  2  0  0  0
 34 36  1  0  0  0
 34 59  1  0  0  0
 34105  1  0  0  0
 35 44  2  0  0  0
 35 45  1  0  0  0
 35 68  1  0  0  0
 36 56  1  0  0  0
 36106  1  0  0  0
 37 39  1  0  0  0
 37 47  1  0  0  0
 37 66  1  0  0  0
 37107  1  0  0  0
 38 43  2  0  0  0
 38 46  1  0  0  0
 38 47  1  0  0  0
 39 64  1  0  0  0
 39 67  2  0  0  0
 40 52  1  0  0  0
 40 53  2  0  0  0
 40 58  1  0  0  0
 41108  1  0  0  0
 41109  1  0  0  0
 41110  1  0  0  0
 41 48  1  0  0  0
 42 43  1  0  0  0
 42 66  1  0  0  0
 42111  1  0  0  0
 42112  1  0  0  0
 43 44  1  0  0  0
 44113  1  0  0  0
 45 46  2  0  0  0
 45114  1  0  0  0
 46115  1  0  0  0
 47116  1  0  0  0
 47117  1  0  0  0
 48 56  1  0  0  0
 48 65  1  0  0  0
 48118  1  0  0  0
 49 50  1  0  0  0
 49 53  1  0  0  0
 49 64  1  0  0  0
 49119  1  0  0  0
 50 51  1  0  0  0
 50120  1  0  0  0
 50121  1  0  0  0
 51 52  1  0  0  0
 51122  1  0  0  0
 51123  1  0  0  0
 52124  1  0  0  0
 52125  1  0  0  0
 53 54  1  0  0  0
 54 55  2  0  0  0
 54126  1  0  0  0
 55 57  1  0  0  0
 55127  1  0  0  0
 56 69  2  0  0  0
 57 58  2  0  0  0
 57128  1  0  0  0
 58129  1  0  0  0
 59 60  1  0  0  0
 59 61  1  0  0  0
 59 62  1  0  0  0
 60130  1  0  0  0
 60131  1  0  0  0
 60132  1  0  0  0
 61133  1  0  0  0
 61134  1  0  0  0
 61135  1  0  0  0
 62136  1  0  0  0
 62137  1  0  0  0
 62138  1  0  0  0
 63 65  1  0  0  0
 63139  1  0  0  0
 63140  1  0  0  0
 63141  1  0  0  0
 64142  1  0  0  0
 65143  1  0  0  0
 68 78  1  0  0  0
 71 73  2  0  0  0
 71 74  1  0  0  0
 71144  1  0  0  0
 72 73  1  0  0  0
 72 75  2  0  0  0
 72145  1  0  0  0
 73 82  1  0  0  0
 74 76  1  0  0  0
 74 81  2  0  0  0
 75 81  1  0  0  0
 75 83  1  0  0  0
 76 80  2  0  0  0
 76146  1  0  0  0
 77 79  1  0  0  0
 77 82  1  0  0  0
 77147  1  0  0  0
 77148  1  0  0  0
 78 79  1  0  0  0
 78149  1  0  0  0
 78150  1  0  0  0
 79 84  1  0  0  0
 79151  1  0  0  0
 80152  1  0  0  0
 81153  1  0  0  0
 82154  1  0  0  0
 83155  1  0  0  0
 84156  1  0  0  0
M  CHG  1  81   1
M  ISO  4   1 100  68 101  78 101  83 100
M  END
> <chiral flag>
0

> <version>
0

> <s_m_source_file>
/data/baiqing/PycharmProjects/Reinvent-master-3.2/result/LINK_invent/BTK/process_docking_weight1_custom_product_contain_oxygen_bond_distance_aromatic_linkinvent_7_9_3/rearranged_h_0199.sdf

> <i_m_source_file_index>
93

> <r_mmod_Potential_Energy-OPLS-2005>
33621.87109375

> <r_mmod_Stretch_Energy-OPLS-2005>
16638.791015625

> <r_mmod_Bend_Energy-OPLS-2005>
2144.30932617188

> <r_mmod_Torsional_Energy-OPLS-2005>
395.524444580078

> <r_mmod_Improper_Torsional_Energy-OPLS-2005>
25.0991687774658

> <r_mmod_Van_der_Waal_Energy-OPLS-2005>
3325.85498046875

> <r_mmod_Electrostatic_Energy-OPLS-2005>
-295.648223876953

> <r_mmod_Solvation_Energy-OPLS-2005>
-499.760131835938

> <b_mmod_Minimization_Converged-OPLS-2005>
0

> <r_mmod_RMS_Derivative-OPLS-2005>
11.1559171676636

$$$$
93
                    3D
 Structure written by MMmdl.
170178  0  0  1  0            999 V2000
  -30.6778  -14.5182   20.5928 C   0  0  0  0  0  0
  -30.4368  -12.3409   19.4230 C   0  0  0  0  0  0
  -29.5017  -12.5119   18.2069 C   0  0  0  0  0  0
  -28.0222  -12.3627   18.6182 C   0  0  0  0  0  0
  -27.6618  -13.2042   19.8716 C   0  0  2  0  0  0
  -28.7058  -12.9896   20.9914 C   0  0  0  0  0  0
  -25.2602  -13.8153   20.5670 C   0  0  0  0  0  0
  -24.1842  -13.0443   20.9164 C   0  0  0  0  0  0
  -24.6388  -11.6908   20.8722 C   0  0  0  0  0  0
  -23.9049  -10.4303   21.0402 C   0  0  0  0  0  0
  -24.3601   -9.4222   21.9182 C   0  0  0  0  0  0
  -23.6273   -8.2263   22.0756 C   0  0  0  0  0  0
  -22.4258   -8.0290   21.3551 C   0  0  0  0  0  0
  -21.9877   -9.0264   20.4653 C   0  0  0  0  0  0
  -22.7216  -10.2144   20.3063 C   0  0  0  0  0  0
  -21.6854   -6.0726   22.5271 C   0  0  0  0  0  0
  -21.4018   -6.5631   23.8201 C   0  0  0  0  0  0
  -21.3663   -5.6792   24.9167 C   0  0  0  0  0  0
  -21.6038   -4.3055   24.7222 C   0  0  0  0  0  0
  -21.8817   -3.8143   23.4341 C   0  0  0  0  0  0
  -21.9196   -4.6954   22.3395 C   0  0  0  0  0  0
  -22.7872  -13.5257   21.1827 C   0  0  0  0  0  0
  -22.1662   -4.2142   21.0967 F   0  0  0  0  0  0
  -21.5627   -3.4535   25.7735 F   0  0  0  0  0  0
  -30.0327  -13.3238   20.4414 N   0  0  0  0  0  0
  -26.3023  -12.9306   20.3334 N   0  0  0  0  0  0
  -25.9307  -11.6475   20.5739 N   0  0  0  0  0  0
  -22.0490  -12.8281   22.0389 N   0  0  0  0  0  0
  -25.4355  -15.1871   20.4080 N   0  0  0  0  0  0
  -31.8045  -14.7250   20.1266 O   0  0  0  0  0  0
  -21.6641   -6.8870   21.4234 O   0  0  0  0  0  0
  -22.3570  -14.5571   20.6677 O   0  0  0  0  0  0
  -24.6200  -31.8662   23.2094 C   0  0  0  0  0  0
  -25.9079  -32.4811   23.8392 C   0  0  1  0  0  0
  -27.2297  -27.3924   20.0860 C   0  0  0  0  0  0
  -25.5929  -33.8612   24.2327 N   0  0  0  0  0  0
  -23.4084  -30.4932   21.5528 C   0  0  2  0  0  0
  -24.8513  -28.9606   20.1177 C   0  0  0  0  0  0
  -22.7438  -29.4656   22.4983 C   0  0  0  0  0  0
  -18.0280  -28.1373   22.8487 C   0  0  0  0  0  0
  -24.1494  -36.7313   23.2633 C   0  0  0  0  0  0
  -25.9447  -30.8180   21.3707 C   0  0  0  0  0  0
  -26.0192  -29.4508   20.7142 C   0  0  0  0  0  0
  -27.2085  -28.6755   20.6968 C   0  0  0  0  0  0
  -26.0263  -26.9330   19.4904 C   0  0  0  0  0  0
  -24.8514  -27.7010   19.5056 C   0  0  0  0  0  0
  -23.6179  -29.8332   20.1666 C   0  0  0  0  0  0
  -25.4109  -36.3104   24.0334 C   0  0  1  0  0  0
  -20.5875  -28.3665   23.1305 C   0  0  2  0  0  0
  -20.6772  -26.9395   22.5414 C   0  0  0  0  0  0
  -19.5750  -26.6377   21.5214 C   0  0  0  0  0  0
  -18.1927  -26.7919   22.1622 C   0  0  0  0  0  0
  -19.1526  -28.8831   23.2895 C   0  0  0  0  0  0
  -18.9456  -30.1438   23.8905 C   0  0  0  0  0  0
  -17.6455  -30.6578   24.0558 C   0  0  0  0  0  0
  -25.9041  -34.9468   23.5128 C   0  0  0  0  0  0
  -16.5349  -29.9078   23.6323 C   0  0  0  0  0  0
  -16.7265  -28.6496   23.0345 C   0  0  0  0  0  0
  -26.4488  -31.6584   25.0725 C   0  0  0  0  0  0
  -25.3748  -31.3723   26.1478 C   0  0  0  0  0  0
  -27.0290  -30.3001   24.6124 C   0  0  0  0  0  0
  -27.6082  -32.4286   25.7476 C   0  0  0  0  0  0
  -27.5582  -37.1809   24.8458 C   0  0  0  0  0  0
  -21.4160  -29.3034   22.3717 N   0  0  0  0  0  0
  -26.4295  -37.3786   23.9402 N   0  0  0  0  0  0
  -24.6763  -31.0734   22.1021 N   0  0  0  0  0  0
  -23.4195  -28.8179   23.3024 O   0  0  0  0  0  0
  -28.3906  -26.6193   20.0918 O   0  0  0  0  0  0
  -26.5598  -34.8921   22.4686 O   0  0  0  0  0  0
  -23.5383  -32.1438   23.7468 O   0  0  0  0  0  0
  -30.3568  -16.8528   23.0661 C   0  0  0  0  0  0
  -30.5174  -18.1119   23.6499 C   0  0  0  0  0  0
  -30.2686  -16.7693   21.6712 C   0  0  0  0  0  0
  -30.4861  -19.0925   21.5842 C   0  0  0  0  0  0
  -28.2554  -22.9691   25.1372 C   0  0  0  0  0  0
  -28.4963  -24.8529   23.4934 C   0  0  0  0  0  0
  -30.6042  -20.4099   20.7956 C   0  0  0  0  0  0
  -29.2010  -22.4275   22.8526 C   0  0  0  0  0  0
  -30.0424  -23.6527   20.7363 C   0  0  0  0  0  0
  -28.3045  -25.3043   19.4852 C   0  0  0  0  0  0
  -28.2303  -23.3450   23.6461 C   0  0  0  0  0  0
  -29.1265  -22.4996   21.2998 C   0  0  1  0  0  0
  -29.5918  -24.4283   19.4599 C   0  0  1  0  0  0
  -30.5685  -19.2253   22.9015 N   0  0  0  0  0  0
  -30.3174  -17.9215   20.9402 N   0  0  0  0  0  0
  -29.9178  -15.4871   21.1543 N   0  0  0  0  0  0
  -29.3116  -21.1362   20.6784 N   0  3  0  0  0  0
  -30.6391  -25.2658   19.0011 O   0  0  0  0  0  0
  -31.4794  -12.4590   19.1216 H   0  0  0  0  0  0
  -30.3562  -11.3310   19.8273 H   0  0  0  0  0  0
  -29.7478  -11.7822   17.4347 H   0  0  0  0  0  0
  -29.6610  -13.4931   17.7570 H   0  0  0  0  0  0
  -27.8366  -11.3070   18.8179 H   0  0  0  0  0  0
  -27.3735  -12.6326   17.7836 H   0  0  0  0  0  0
  -27.7024  -14.2502   19.5675 H   0  0  0  0  0  0
  -28.6976  -11.9502   21.3234 H   0  0  0  0  0  0
  -28.4528  -13.5728   21.8780 H   0  0  0  0  0  0
  -25.2742   -9.5701   22.4755 H   0  0  0  0  0  0
  -23.9984   -7.4653   22.7476 H   0  0  0  0  0  0
  -21.0802   -8.8775   19.8964 H   0  0  0  0  0  0
  -22.3655  -10.9675   19.6180 H   0  0  0  0  0  0
  -21.2011   -7.6137   23.9695 H   0  0  0  0  0  0
  -21.1487   -6.0527   25.9069 H   0  0  0  0  0  0
  -22.0592   -2.7604   23.2845 H   0  0  0  0  0  0
  -22.4083  -11.9948   22.4808 H   0  0  0  0  0  0
  -21.1126  -13.1356   22.2598 H   0  0  0  0  0  0
  -24.6691  -15.8430   20.5071 H   0  0  0  0  0  0
  -26.2816  -15.6185   20.0567 H   0  0  0  0  0  0
  -26.7147  -32.5508   23.1151 H   0  0  0  0  0  0
  -25.0095  -33.9768   25.0484 H   0  0  0  0  0  0
  -22.6991  -31.3119   21.4161 H   0  0  0  0  0  0
  -23.3756  -35.9647   23.3300 H   0  0  0  0  0  0
  -24.3593  -36.8926   22.2046 H   0  0  0  0  0  0
  -23.7256  -37.6521   23.6652 H   0  0  0  0  0  0
  -26.0654  -31.5839   20.6037 H   0  0  0  0  0  0
  -26.8300  -30.8673   21.9926 H   0  0  0  0  0  0
  -28.1091  -29.0530   21.1609 H   0  0  0  0  0  0
  -25.9480  -25.9738   19.0034 H   0  0  0  0  0  0
  -23.9526  -27.3143   19.0455 H   0  0  0  0  0  0
  -23.7333  -30.6107   19.4106 H   0  0  0  0  0  0
  -22.7393  -29.2594   19.8664 H   0  0  0  0  0  0
  -25.1294  -36.1966   25.0828 H   0  0  0  0  0  0
  -20.9959  -28.3228   24.1427 H   0  0  0  0  0  0
  -20.5667  -26.2269   23.3603 H   0  0  0  0  0  0
  -21.6646  -26.7433   22.1209 H   0  0  0  0  0  0
  -19.6909  -25.6290   21.1238 H   0  0  0  0  0  0
  -19.6686  -27.3186   20.6744 H   0  0  0  0  0  0
  -17.4196  -26.6656   21.4031 H   0  0  0  0  0  0
  -18.0330  -26.0061   22.9016 H   0  0  0  0  0  0
  -19.7928  -30.7254   24.2280 H   0  0  0  0  0  0
  -17.5009  -31.6261   24.5154 H   0  0  0  0  0  0
  -15.5347  -30.2980   23.7642 H   0  0  0  0  0  0
  -15.8668  -28.0815   22.7058 H   0  0  0  0  0  0
  -24.5871  -30.7134   25.7809 H   0  0  0  0  0  0
  -24.9005  -32.2902   26.4963 H   0  0  0  0  0  0
  -25.8080  -30.8837   27.0216 H   0  0  0  0  0  0
  -26.2820  -29.6784   24.1172 H   0  0  0  0  0  0
  -27.4021  -29.7229   25.4595 H   0  0  0  0  0  0
  -27.8691  -30.4287   23.9296 H   0  0  0  0  0  0
  -27.2732  -33.3590   26.2073 H   0  0  0  0  0  0
  -28.3880  -32.6831   25.0285 H   0  0  0  0  0  0
  -28.0761  -31.8387   26.5371 H   0  0  0  0  0  0
  -28.2612  -38.0094   24.7506 H   0  0  0  0  0  0
  -28.1078  -36.2639   24.6294 H   0  0  0  0  0  0
  -27.2312  -37.1466   25.8863 H   0  0  0  0  0  0
  -20.9318  -29.8776   21.6957 H   0  0  0  0  0  0
  -26.0195  -38.2869   24.1396 H   0  0  0  0  0  0
  -30.2868  -15.9764   23.6971 H   0  0  0  0  0  0
  -30.5808  -18.2333   24.7211 H   0  0  0  0  0  0
  -27.5295  -23.5487   25.7087 H   0  0  0  0  0  0
  -29.2388  -23.1477   25.5741 H   0  0  0  0  0  0
  -28.0148  -21.9163   25.2863 H   0  0  0  0  0  0
  -27.8469  -25.4344   24.1499 H   0  0  0  0  0  0
  -28.2959  -25.1993   22.4802 H   0  0  0  0  0  0
  -29.5253  -25.1103   23.7474 H   0  0  0  0  0  0
  -30.9760  -20.1946   19.7938 H   0  0  0  0  0  0
  -31.3558  -21.0380   21.2722 H   0  0  0  0  0  0
  -28.9637  -21.4100   23.1615 H   0  0  0  0  0  0
  -30.2270  -22.5905   23.1857 H   0  0  0  0  0  0
  -31.0354  -23.2423   20.5548 H   0  0  0  0  0  0
  -30.2102  -24.3963   21.5126 H   0  0  0  0  0  0
  -27.5113  -24.7286   19.9630 H   0  0  0  0  0  0
  -28.0102  -25.4458   18.4432 H   0  0  0  0  0  0
  -27.2159  -23.1570   23.2894 H   0  0  0  0  0  0
  -28.0943  -22.7599   21.0628 H   0  0  0  0  0  0
  -29.4455  -23.6765   18.6827 H   0  0  0  0  0  0
  -29.0214  -15.1466   21.4585 H   0  0  0  0  0  0
  -28.6459  -20.5032   21.0941 H   0  0  0  0  0  0
  -29.0873  -21.1642   19.6990 H   0  0  0  0  0  0
  -30.5659  -26.0860   19.4846 H   0  0  0  0  0  0
  1 25  1  0  0  0
  1 30  2  0  0  0
  1 86  1  0  0  0
  2  3  1  0  0  0
  2 25  1  0  0  0
  2 89  1  0  0  0
  2 90  1  0  0  0
  3  4  1  0  0  0
  3 91  1  0  0  0
  3 92  1  0  0  0
  4  5  1  0  0  0
  4 93  1  0  0  0
  4 94  1  0  0  0
  5  6  1  0  0  0
  5 26  1  0  0  0
  5 95  1  0  0  0
  6 25  1  0  0  0
  6 96  1  0  0  0
  6 97  1  0  0  0
  7  8  2  0  0  0
  7 26  1  0  0  0
  7 29  1  0  0  0
  8  9  1  0  0  0
  8 22  1  0  0  0
  9 10  1  0  0  0
  9 27  2  0  0  0
 10 11  2  0  0  0
 10 15  1  0  0  0
 11 12  1  0  0  0
 11 98  1  0  0  0
 12 13  2  0  0  0
 12 99  1  0  0  0
 13 14  1  0  0  0
 13 31  1  0  0  0
 14 15  2  0  0  0
 14100  1  0  0  0
 15101  1  0  0  0
 16 17  2  0  0  0
 16 21  1  0  0  0
 16 31  1  0  0  0
 17 18  1  0  0  0
 17102  1  0  0  0
 18 19  2  0  0  0
 18103  1  0  0  0
 19 20  1  0  0  0
 19 24  1  0  0  0
 20 21  2  0  0  0
 20104  1  0  0  0
 21 23  1  0  0  0
 22 28  1  0  0  0
 22 32  2  0  0  0
 26 27  1  0  0  0
 28105  1  0  0  0
 28106  1  0  0  0
 29107  1  0  0  0
 29108  1  0  0  0
 33 34  1  0  0  0
 33 66  1  0  0  0
 33 70  2  0  0  0
 34 36  1  0  0  0
 34 59  1  0  0  0
 34109  1  0  0  0
 35 44  2  0  0  0
 35 45  1  0  0  0
 35 68  1  0  0  0
 36 56  1  0  0  0
 36110  1  0  0  0
 37 39  1  0  0  0
 37 47  1  0  0  0
 37 66  1  0  0  0
 37111  1  0  0  0
 38 43  2  0  0  0
 38 46  1  0  0  0
 38 47  1  0  0  0
 39 64  1  0  0  0
 39 67  2  0  0  0
 40 52  1  0  0  0
 40 53  2  0  0  0
 40 58  1  0  0  0
 41112  1  0  0  0
 41113  1  0  0  0
 41114  1  0  0  0
 41 48  1  0  0  0
 42 43  1  0  0  0
 42 66  1  0  0  0
 42115  1  0  0  0
 42116  1  0  0  0
 43 44  1  0  0  0
 44117  1  0  0  0
 45 46  2  0  0  0
 45118  1  0  0  0
 46119  1  0  0  0
 47120  1  0  0  0
 47121  1  0  0  0
 48 56  1  0  0  0
 48 65  1  0  0  0
 48122  1  0  0  0
 49 50  1  0  0  0
 49 53  1  0  0  0
 49 64  1  0  0  0
 49123  1  0  0  0
 50 51  1  0  0  0
 50124  1  0  0  0
 50125  1  0  0  0
 51 52  1  0  0  0
 51126  1  0  0  0
 51127  1  0  0  0
 52128  1  0  0  0
 52129  1  0  0  0
 53 54  1  0  0  0
 54 55  2  0  0  0
 54130  1  0  0  0
 55 57  1  0  0  0
 55131  1  0  0  0
 56 69  2  0  0  0
 57 58  2  0  0  0
 57132  1  0  0  0
 58133  1  0  0  0
 59 60  1  0  0  0
 59 61  1  0  0  0
 59 62  1  0  0  0
 60134  1  0  0  0
 60135  1  0  0  0
 60136  1  0  0  0
 61137  1  0  0  0
 61138  1  0  0  0
 61139  1  0  0  0
 62140  1  0  0  0
 62141  1  0  0  0
 62142  1  0  0  0
 63 65  1  0  0  0
 63143  1  0  0  0
 63144  1  0  0  0
 63145  1  0  0  0
 64146  1  0  0  0
 65147  1  0  0  0
 68 80  1  0  0  0
 71 72  2  0  0  0
 71 73  1  0  0  0
 71148  1  0  0  0
 72 84  1  0  0  0
 72149  1  0  0  0
 73 85  2  0  0  0
 73 86  1  0  0  0
 74 77  1  0  0  0
 74 84  2  0  0  0
 74 85  1  0  0  0
 75150  1  0  0  0
 75151  1  0  0  0
 75152  1  0  0  0
 75 81  1  0  0  0
 76 81  1  0  0  0
 76153  1  0  0  0
 76154  1  0  0  0
 76155  1  0  0  0
 77 87  1  0  0  0
 77156  1  0  0  0
 77157  1  0  0  0
 78 81  1  0  0  0
 78158  1  0  0  0
 78159  1  0  0  0
 78 82  1  0  0  0
 79 82  1  0  0  0
 79 83  1  0  0  0
 79160  1  0  0  0
 79161  1  0  0  0
 80 83  1  0  0  0
 80162  1  0  0  0
 80163  1  0  0  0
 81164  1  0  0  0
 82 87  1  0  0  0
 82165  1  0  0  0
 83 88  1  0  0  0
 83166  1  0  0  0
 86167  1  0  0  0
 87168  1  0  0  0
 87169  1  0  0  0
 88170  1  0  0  0
M  CHG  1  87   1
M  ISO  4   1 100  68 101  80 101  86 100
M  END
> <chiral flag>
0

> <version>
0

> <s_m_source_file>
/data/baiqing/PycharmProjects/Reinvent-master-3.2/result/LINK_invent/BTK/process_docking_weight1_custom_product_contain_oxygen_bond_distance_aromatic_linkinvent_7_9_3/rearranged_h_0199.sdf

> <i_m_source_file_index>
94

> <r_mmod_Potential_Energy-OPLS-2005>
-656.406188964844

> <r_mmod_Stretch_Energy-OPLS-2005>
49.9546089172363

> <r_mmod_Bend_Energy-OPLS-2005>
140.218200683594

> <r_mmod_Torsional_Energy-OPLS-2005>
283.055938720703

> <r_mmod_Improper_Torsional_Energy-OPLS-2005>
5.21463298797607

> <r_mmod_Van_der_Waal_Energy-OPLS-2005>
153.76139831543

> <r_mmod_Electrostatic_Energy-OPLS-2005>
-814.495849609375

> <r_mmod_Solvation_Energy-OPLS-2005>
-493.267181396484

> <b_mmod_Minimization_Converged-OPLS-2005>
0

> <r_mmod_RMS_Derivative-OPLS-2005>
1.83027946949005

$$$$
94
                    3D
 Structure written by MMmdl.
152160  0  0  1  0            999 V2000
  -30.5918  -14.7667   20.4480 C   0  0  0  0  0  0
  -30.4290  -12.4634   19.4871 C   0  0  0  0  0  0
  -29.5132  -12.5103   18.2435 C   0  0  0  0  0  0
  -28.0380  -12.3346   18.6504 C   0  0  0  0  0  0
  -27.6390  -13.2361   19.8494 C   0  0  2  0  0  0
  -28.6782  -13.1783   20.9902 C   0  0  0  0  0  0
  -25.2494  -13.8220   20.5674 C   0  0  0  0  0  0
  -24.1798  -13.0467   20.9237 C   0  0  0  0  0  0
  -24.6383  -11.6939   20.8765 C   0  0  0  0  0  0
  -23.9062  -10.4307   21.0419 C   0  0  0  0  0  0
  -24.3617   -9.4219   21.9193 C   0  0  0  0  0  0
  -23.6292   -8.2254   22.0764 C   0  0  0  0  0  0
  -22.4276   -8.0285   21.3550 C   0  0  0  0  0  0
  -21.9909   -9.0262   20.4657 C   0  0  0  0  0  0
  -22.7237  -10.2145   20.3064 C   0  0  0  0  0  0
  -21.6857   -6.0739   22.5279 C   0  0  0  0  0  0
  -21.4017   -6.5640   23.8212 C   0  0  0  0  0  0
  -21.3656   -5.6789   24.9174 C   0  0  0  0  0  0
  -21.6044   -4.3053   24.7226 C   0  0  0  0  0  0
  -21.8818   -3.8145   23.4344 C   0  0  0  0  0  0
  -21.9194   -4.6963   22.3401 C   0  0  0  0  0  0
  -22.7815  -13.5247   21.1872 C   0  0  0  0  0  0
  -22.1661   -4.2149   21.0980 F   0  0  0  0  0  0
  -21.5622   -3.4532   25.7738 F   0  0  0  0  0  0
  -29.9812  -13.5305   20.4152 N   0  0  0  0  0  0
  -26.2910  -12.9422   20.3248 N   0  0  0  0  0  0
  -25.9307  -11.6567   20.5745 N   0  0  0  0  0  0
  -22.0442  -12.8249   22.0422 N   0  0  0  0  0  0
  -25.4195  -15.1937   20.3971 N   0  0  0  0  0  0
  -31.7713  -14.8687   20.0983 O   0  0  0  0  0  0
  -21.6641   -6.8881   21.4241 O   0  0  0  0  0  0
  -22.3508  -14.5550   20.6701 O   0  0  0  0  0  0
  -24.6328  -31.8522   23.1938 C   0  0  0  0  0  0
  -25.9146  -32.4737   23.8296 C   0  0  1  0  0  0
  -27.2247  -27.2387   20.1301 C   0  0  0  0  0  0
  -25.5933  -33.8541   24.2231 N   0  0  0  0  0  0
  -23.4305  -30.4726   21.5379 C   0  0  2  0  0  0
  -24.8775  -28.9113   20.1088 C   0  0  0  0  0  0
  -22.7504  -29.4594   22.4902 C   0  0  0  0  0  0
  -18.0291  -28.1395   22.8487 C   0  0  0  0  0  0
  -24.1492  -36.7269   23.2642 C   0  0  0  0  0  0
  -25.9764  -30.7583   21.3750 C   0  0  0  0  0  0
  -26.0479  -29.3780   20.7178 C   0  0  0  0  0  0
  -27.2201  -28.5541   20.7153 C   0  0  0  0  0  0
  -26.0254  -26.8367   19.5010 C   0  0  0  0  0  0
  -24.8729  -27.6504   19.4906 C   0  0  0  0  0  0
  -23.6483  -29.7997   20.1560 C   0  0  0  0  0  0
  -25.4121  -36.3059   24.0325 C   0  0  1  0  0  0
  -20.5895  -28.3709   23.1268 C   0  0  2  0  0  0
  -20.6777  -26.9424   22.5411 C   0  0  0  0  0  0
  -19.5751  -26.6394   21.5217 C   0  0  0  0  0  0
  -18.1933  -26.7940   22.1627 C   0  0  0  0  0  0
  -19.1544  -28.8870   23.2872 C   0  0  0  0  0  0
  -18.9463  -30.1473   23.8889 C   0  0  0  0  0  0
  -17.6460  -30.6595   24.0566 C   0  0  0  0  0  0
  -25.9063  -34.9433   23.5087 C   0  0  0  0  0  0
  -16.5353  -29.9092   23.6334 C   0  0  0  0  0  0
  -16.7277  -28.6509   23.0357 C   0  0  0  0  0  0
  -26.4507  -31.6568   25.0692 C   0  0  0  0  0  0
  -25.3720  -31.3720   26.1402 C   0  0  0  0  0  0
  -27.0362  -30.2984   24.6188 C   0  0  0  0  0  0
  -27.6059  -32.4311   25.7466 C   0  0  0  0  0  0
  -27.5578  -37.1791   24.8469 C   0  0  0  0  0  0
  -21.4208  -29.3046   22.3647 N   0  0  0  0  0  0
  -26.4293  -37.3759   23.9411 N   0  0  0  0  0  0
  -24.6994  -31.0471   22.0920 N   0  0  0  0  0  0
  -23.4192  -28.8150   23.3024 O   0  0  0  0  0  0
  -28.3454  -26.3731   20.2153 O   0  0  0  0  0  0
  -26.5639  -34.8915   22.4658 O   0  0  0  0  0  0
  -23.5479  -32.1360   23.7224 O   0  0  0  0  0  0
  -27.3937  -19.6396   21.9222 C   0  0  0  0  0  0
  -28.0910  -18.4576   21.5779 C   0  0  0  0  0  0
  -29.2038  -18.6039   20.7111 C   0  0  0  0  0  0
  -28.7210  -20.9627   20.6213 C   0  0  0  0  0  0
  -30.1540  -17.3659   20.3278 C   0  0  0  0  0  0
  -28.4350  -23.6283   20.6513 C   0  0  0  0  0  0
  -28.4202  -24.9523   19.6971 C   0  0  0  0  0  0
  -27.7068  -20.8640   21.4567 N   0  0  0  0  0  0
  -29.4772  -19.8897   20.2376 N   0  0  0  0  0  0
  -27.6536  -17.2309   22.1009 N   0  0  0  0  0  0
  -28.9564  -22.2889   20.1206 N   0  0  0  0  0  0
  -29.8232  -15.9026   20.6528 N   0  0  0  0  0  0
  -31.4728  -12.5807   19.1911 H   0  0  0  0  0  0
  -30.3664  -11.4886   19.9729 H   0  0  0  0  0  0
  -29.7998  -11.7336   17.5329 H   0  0  0  0  0  0
  -29.6409  -13.4623   17.7260 H   0  0  0  0  0  0
  -27.8928  -11.2863   18.9129 H   0  0  0  0  0  0
  -27.3848  -12.5273   17.7985 H   0  0  0  0  0  0
  -27.6330  -14.2571   19.4665 H   0  0  0  0  0  0
  -28.7120  -12.1836   21.4361 H   0  0  0  0  0  0
  -28.4079  -13.8668   21.7925 H   0  0  0  0  0  0
  -25.2768   -9.5691   22.4767 H   0  0  0  0  0  0
  -24.0002   -7.4643   22.7484 H   0  0  0  0  0  0
  -21.0837   -8.8781   19.8963 H   0  0  0  0  0  0
  -22.3696  -10.9683   19.6168 H   0  0  0  0  0  0
  -21.2014   -7.6149   23.9716 H   0  0  0  0  0  0
  -21.1477   -6.0522   25.9079 H   0  0  0  0  0  0
  -22.0602   -2.7606   23.2847 H   0  0  0  0  0  0
  -22.4054  -11.9931   22.4842 H   0  0  0  0  0  0
  -21.1059  -13.1286   22.2617 H   0  0  0  0  0  0
  -24.6109  -15.8064   20.4075 H   0  0  0  0  0  0
  -26.1864  -15.5628   19.8506 H   0  0  0  0  0  0
  -26.7202  -32.5378   23.1026 H   0  0  0  0  0  0
  -25.0076  -33.9668   25.0373 H   0  0  0  0  0  0
  -22.7287  -31.2958   21.3880 H   0  0  0  0  0  0
  -23.3762  -35.9594   23.3304 H   0  0  0  0  0  0
  -24.3580  -36.8891   22.2056 H   0  0  0  0  0  0
  -23.7238  -37.6466   23.6666 H   0  0  0  0  0  0
  -26.1170  -31.5174   20.6046 H   0  0  0  0  0  0
  -26.8543  -30.8088   22.0077 H   0  0  0  0  0  0
  -28.1171  -28.9082   21.2041 H   0  0  0  0  0  0
  -25.9361  -25.8669   19.0385 H   0  0  0  0  0  0
  -23.9729  -27.2845   19.0157 H   0  0  0  0  0  0
  -23.7702  -30.5724   19.3965 H   0  0  0  0  0  0
  -22.7668  -29.2306   19.8546 H   0  0  0  0  0  0
  -25.1307  -36.1905   25.0817 H   0  0  0  0  0  0
  -20.9993  -28.3294   24.1387 H   0  0  0  0  0  0
  -20.5686  -26.2318   23.3618 H   0  0  0  0  0  0
  -21.6644  -26.7449   22.1199 H   0  0  0  0  0  0
  -19.6913  -25.6305   21.1248 H   0  0  0  0  0  0
  -19.6691  -27.3204   20.6749 H   0  0  0  0  0  0
  -17.4204  -26.6695   21.4027 H   0  0  0  0  0  0
  -18.0328  -26.0082   22.9022 H   0  0  0  0  0  0
  -19.7939  -30.7297   24.2249 H   0  0  0  0  0  0
  -17.5013  -31.6273   24.5169 H   0  0  0  0  0  0
  -15.5353  -30.2990   23.7662 H   0  0  0  0  0  0
  -15.8678  -28.0826   22.7072 H   0  0  0  0  0  0
  -24.5910  -30.7056   25.7718 H   0  0  0  0  0  0
  -24.8893  -32.2890   26.4793 H   0  0  0  0  0  0
  -25.8028  -30.8914   27.0196 H   0  0  0  0  0  0
  -26.2946  -29.6714   24.1221 H   0  0  0  0  0  0
  -27.4055  -29.7261   25.4709 H   0  0  0  0  0  0
  -27.8819  -30.4258   23.9426 H   0  0  0  0  0  0
  -27.2670  -33.3627   26.2012 H   0  0  0  0  0  0
  -28.3883  -32.6844   25.0297 H   0  0  0  0  0  0
  -28.0710  -31.8451   26.5404 H   0  0  0  0  0  0
  -28.2599  -38.0084   24.7511 H   0  0  0  0  0  0
  -28.1071  -36.2615   24.6309 H   0  0  0  0  0  0
  -27.2292  -37.1452   25.8870 H   0  0  0  0  0  0
  -20.9403  -29.8743   21.6820 H   0  0  0  0  0  0
  -26.0173  -38.2835   24.1405 H   0  0  0  0  0  0
  -26.5437  -19.5996   22.5884 H   0  0  0  0  0  0
  -30.3158  -17.4193   19.2516 H   0  0  0  0  0  0
  -31.1253  -17.5771   20.7749 H   0  0  0  0  0  0
  -27.4295  -23.4798   21.0457 H   0  0  0  0  0  0
  -29.0512  -23.8600   21.5202 H   0  0  0  0  0  0
  -27.7166  -24.7934   18.8835 H   0  0  0  0  0  0
  -29.3839  -24.9422   19.1880 H   0  0  0  0  0  0
  -27.1216  -17.3364   22.9622 H   0  0  0  0  0  0
  -27.0224  -16.7295   21.4782 H   0  0  0  0  0  0
  -29.7324  -22.3526   19.4729 H   0  0  0  0  0  0
  -28.8946  -15.7879   21.0389 H   0  0  0  0  0  0
  1 25  1  0  0  0
  1 30  2  0  0  0
  1 82  1  0  0  0
  2  3  1  0  0  0
  2 25  1  0  0  0
  2 83  1  0  0  0
  2 84  1  0  0  0
  3  4  1  0  0  0
  3 85  1  0  0  0
  3 86  1  0  0  0
  4  5  1  0  0  0
  4 87  1  0  0  0
  4 88  1  0  0  0
  5  6  1  0  0  0
  5 26  1  0  0  0
  5 89  1  0  0  0
  6 25  1  0  0  0
  6 90  1  0  0  0
  6 91  1  0  0  0
  7  8  2  0  0  0
  7 26  1  0  0  0
  7 29  1  0  0  0
  8  9  1  0  0  0
  8 22  1  0  0  0
  9 10  1  0  0  0
  9 27  2  0  0  0
 10 11  2  0  0  0
 10 15  1  0  0  0
 11 12  1  0  0  0
 11 92  1  0  0  0
 12 13  2  0  0  0
 12 93  1  0  0  0
 13 14  1  0  0  0
 13 31  1  0  0  0
 14 15  2  0  0  0
 14 94  1  0  0  0
 15 95  1  0  0  0
 16 17  2  0  0  0
 16 21  1  0  0  0
 16 31  1  0  0  0
 17 18  1  0  0  0
 17 96  1  0  0  0
 18 19  2  0  0  0
 18 97  1  0  0  0
 19 20  1  0  0  0
 19 24  1  0  0  0
 20 21  2  0  0  0
 20 98  1  0  0  0
 21 23  1  0  0  0
 22 28  1  0  0  0
 22 32  2  0  0  0
 26 27  1  0  0  0
 28 99  1  0  0  0
 28100  1  0  0  0
 29101  1  0  0  0
 29102  1  0  0  0
 33 34  1  0  0  0
 33 66  1  0  0  0
 33 70  2  0  0  0
 34 36  1  0  0  0
 34 59  1  0  0  0
 34103  1  0  0  0
 35 44  2  0  0  0
 35 45  1  0  0  0
 35 68  1  0  0  0
 36 56  1  0  0  0
 36104  1  0  0  0
 37 39  1  0  0  0
 37 47  1  0  0  0
 37 66  1  0  0  0
 37105  1  0  0  0
 38 43  2  0  0  0
 38 46  1  0  0  0
 38 47  1  0  0  0
 39 64  1  0  0  0
 39 67  2  0  0  0
 40 52  1  0  0  0
 40 53  2  0  0  0
 40 58  1  0  0  0
 41106  1  0  0  0
 41107  1  0  0  0
 41108  1  0  0  0
 41 48  1  0  0  0
 42 43  1  0  0  0
 42 66  1  0  0  0
 42109  1  0  0  0
 42110  1  0  0  0
 43 44  1  0  0  0
 44111  1  0  0  0
 45 46  2  0  0  0
 45112  1  0  0  0
 46113  1  0  0  0
 47114  1  0  0  0
 47115  1  0  0  0
 48 56  1  0  0  0
 48 65  1  0  0  0
 48116  1  0  0  0
 49 50  1  0  0  0
 49 53  1  0  0  0
 49 64  1  0  0  0
 49117  1  0  0  0
 50 51  1  0  0  0
 50118  1  0  0  0
 50119  1  0  0  0
 51 52  1  0  0  0
 51120  1  0  0  0
 51121  1  0  0  0
 52122  1  0  0  0
 52123  1  0  0  0
 53 54  1  0  0  0
 54 55  2  0  0  0
 54124  1  0  0  0
 55 57  1  0  0  0
 55125  1  0  0  0
 56 69  2  0  0  0
 57 58  2  0  0  0
 57126  1  0  0  0
 58127  1  0  0  0
 59 60  1  0  0  0
 59 61  1  0  0  0
 59 62  1  0  0  0
 60128  1  0  0  0
 60129  1  0  0  0
 60130  1  0  0  0
 61131  1  0  0  0
 61132  1  0  0  0
 61133  1  0  0  0
 62134  1  0  0  0
 62135  1  0  0  0
 62136  1  0  0  0
 63 65  1  0  0  0
 63137  1  0  0  0
 63138  1  0  0  0
 63139  1  0  0  0
 64140  1  0  0  0
 65141  1  0  0  0
 68 77  1  0  0  0
 71 72  2  0  0  0
 71 78  1  0  0  0
 71142  1  0  0  0
 72 73  1  0  0  0
 72 80  1  0  0  0
 73 75  1  0  0  0
 73 79  2  0  0  0
 74 78  2  0  0  0
 74 79  1  0  0  0
 74 81  1  0  0  0
 75 82  1  0  0  0
 75143  1  0  0  0
 75144  1  0  0  0
 76 77  1  0  0  0
 76 81  1  0  0  0
 76145  1  0  0  0
 76146  1  0  0  0
 77147  1  0  0  0
 77148  1  0  0  0
 80149  1  0  0  0
 80150  1  0  0  0
 81151  1  0  0  0
 82152  1  0  0  0
M  ISO  4   1 100  68 101  77 101  82 100
M  END
> <chiral flag>
0

> <version>
0

> <s_m_source_file>
/data/baiqing/PycharmProjects/Reinvent-master-3.2/result/LINK_invent/BTK/process_docking_weight1_custom_product_contain_oxygen_bond_distance_aromatic_linkinvent_7_9_3/rearranged_h_0199.sdf

> <i_m_source_file_index>
95

> <r_mmod_Potential_Energy-OPLS-2005>
-421.136749267578

> <r_mmod_Stretch_Energy-OPLS-2005>
130.467483520508

> <r_mmod_Bend_Energy-OPLS-2005>
189.622711181641

> <r_mmod_Torsional_Energy-OPLS-2005>
210.812515258789

> <r_mmod_Improper_Torsional_Energy-OPLS-2005>
14.2299947738647

> <r_mmod_Van_der_Waal_Energy-OPLS-2005>
145.3212890625

> <r_mmod_Electrostatic_Energy-OPLS-2005>
-955.867736816406

> <r_mmod_Solvation_Energy-OPLS-2005>
-250.252258300781

> <b_mmod_Minimization_Converged-OPLS-2005>
0

> <r_mmod_RMS_Derivative-OPLS-2005>
1.21152472496033

$$$$
