0
                    3D
 Structure written by MMmdl.
159167  0  0  1  0            999 V2000
  -30.7281  -14.4050   20.5869 C   0  0  0  0  0  0
  -30.4087  -12.2663   19.4225 C   0  0  0  0  0  0
  -29.4930  -12.5007   18.2052 C   0  0  0  0  0  0
  -28.0106  -12.3803   18.6103 C   0  0  0  0  0  0
  -27.6623  -13.2064   19.8780 C   0  0  2  0  0  0
  -28.6984  -12.9683   21.0009 C   0  0  0  0  0  0
  -25.2575  -13.8161   20.5657 C   0  0  0  0  0  0
  -24.1833  -13.0433   20.9163 C   0  0  0  0  0  0
  -24.6382  -11.6905   20.8736 C   0  0  0  0  0  0
  -23.9055  -10.4292   21.0414 C   0  0  0  0  0  0
  -24.3612   -9.4213   21.9195 C   0  0  0  0  0  0
  -23.6290   -8.2247   22.0762 C   0  0  0  0  0  0
  -22.4273   -8.0285   21.3550 C   0  0  0  0  0  0
  -21.9915   -9.0248   20.4641 C   0  0  0  0  0  0
  -22.7240  -10.2129   20.3050 C   0  0  0  0  0  0
  -21.6843   -6.0747   22.5282 C   0  0  0  0  0  0
  -21.4012   -6.5645   23.8219 C   0  0  0  0  0  0
  -21.3655   -5.6798   24.9178 C   0  0  0  0  0  0
  -21.6033   -4.3059   24.7225 C   0  0  0  0  0  0
  -21.8823   -3.8159   23.4343 C   0  0  0  0  0  0
  -21.9193   -4.6977   22.3405 C   0  0  0  0  0  0
  -22.7865  -13.5229   21.1847 C   0  0  0  0  0  0
  -22.1656   -4.2166   21.0979 F   0  0  0  0  0  0
  -21.5627   -3.4547   25.7735 F   0  0  0  0  0  0
  -30.0386  -13.2441   20.4546 N   0  0  0  0  0  0
  -26.3016  -12.9336   20.3355 N   0  0  0  0  0  0
  -25.9308  -11.6498   20.5759 N   0  0  0  0  0  0
  -22.0505  -12.8212   22.0396 N   0  0  0  0  0  0
  -25.4288  -15.1878   20.4063 N   0  0  0  0  0  0
  -31.8546  -14.5774   20.1100 O   0  0  0  0  0  0
  -21.6627   -6.8890   21.4245 O   0  0  0  0  0  0
  -22.3564  -14.5557   20.6726 O   0  0  0  0  0  0
  -24.6085  -31.8716   23.2143 C   0  0  0  0  0  0
  -25.8989  -32.4846   23.8437 C   0  0  1  0  0  0
  -27.2364  -27.4833   20.0726 C   0  0  0  0  0  0
  -25.5842  -33.8646   24.2355 N   0  0  0  0  0  0
  -23.3958  -30.4966   21.5528 C   0  0  2  0  0  0
  -24.8417  -28.9632   20.1210 C   0  0  0  0  0  0
  -22.7370  -29.4685   22.4991 C   0  0  0  0  0  0
  -18.0265  -28.1396   22.8510 C   0  0  0  0  0  0
  -24.1483  -36.7323   23.2646 C   0  0  0  0  0  0
  -25.9197  -30.8483   21.3625 C   0  0  0  0  0  0
  -25.9982  -29.4814   20.7188 C   0  0  0  0  0  0
  -27.1982  -28.7413   20.7062 C   0  0  0  0  0  0
  -26.0610  -26.9557   19.4962 C   0  0  0  0  0  0
  -24.8628  -27.6942   19.5154 C   0  0  0  0  0  0
  -23.6027  -29.8272   20.1679 C   0  0  0  0  0  0
  -25.4106  -36.3132   24.0343 C   0  0  1  0  0  0
  -20.5852  -28.3682   23.1337 C   0  0  2  0  0  0
  -20.6747  -26.9424   22.5432 C   0  0  0  0  0  0
  -19.5727  -26.6401   21.5226 C   0  0  0  0  0  0
  -18.1904  -26.7943   22.1634 C   0  0  0  0  0  0
  -19.1513  -28.8848   23.2930 C   0  0  0  0  0  0
  -18.9435  -30.1447   23.8951 C   0  0  0  0  0  0
  -17.6444  -30.6605   24.0586 C   0  0  0  0  0  0
  -25.9015  -34.9490   23.5152 C   0  0  0  0  0  0
  -16.5337  -29.9121   23.6321 C   0  0  0  0  0  0
  -16.7262  -28.6529   23.0364 C   0  0  0  0  0  0
  -26.4432  -31.6600   25.0741 C   0  0  0  0  0  0
  -25.3686  -31.3629   26.1457 C   0  0  0  0  0  0
  -27.0281  -30.3071   24.6056 C   0  0  0  0  0  0
  -27.6008  -32.4306   25.7511 C   0  0  0  0  0  0
  -27.5582  -37.1814   24.8471 C   0  0  0  0  0  0
  -21.4101  -29.3058   22.3737 N   0  0  0  0  0  0
  -26.4299  -37.3803   23.9406 N   0  0  0  0  0  0
  -24.6599  -31.0847   22.1026 N   0  0  0  0  0  0
  -23.4158  -28.8208   23.3010 O   0  0  0  0  0  0
  -28.4156  -26.7874   20.0149 O   0  0  0  0  0  0
  -26.5610  -34.8932   22.4731 O   0  0  0  0  0  0
  -23.5279  -32.1452   23.7550 O   0  0  0  0  0  0
  -31.6230  -18.7309   20.4641 C   0  0  0  0  0  0
  -29.4251  -18.6380   19.4084 C   0  0  0  0  0  0
  -31.4118  -17.4544   21.0193 C   0  0  0  0  0  0
  -29.2071  -17.3667   19.9738 C   0  0  0  0  0  0
  -30.6477  -19.3111   19.6255 C   0  0  0  0  0  0
  -30.2208  -16.7510   20.7359 C   0  0  0  0  0  0
  -30.9407  -20.6239   18.9169 C   0  0  0  0  0  0
  -29.5436  -24.1600   19.2427 C   0  0  0  0  0  0
  -30.0085  -25.5255   18.7109 C   0  0  0  0  0  0
  -30.5464  -23.0476   18.9055 C   0  0  0  0  0  0
  -28.8850  -26.5631   18.6896 C   0  0  0  0  0  0
  -30.0460  -15.4109   21.1528 N   0  0  0  0  0  0
  -30.1503  -21.7394   19.4625 N   0  3  0  0  0  0
  -31.4578  -12.3375   19.1308 H   0  0  0  0  0  0
  -30.2777  -11.2547   19.8085 H   0  0  0  0  0  0
  -29.7235  -11.7815   17.4180 H   0  0  0  0  0  0
  -29.6823  -13.4889   17.7831 H   0  0  0  0  0  0
  -27.7999  -11.3251   18.7872 H   0  0  0  0  0  0
  -27.3698  -12.6821   17.7807 H   0  0  0  0  0  0
  -27.7119  -14.2572   19.5939 H   0  0  0  0  0  0
  -28.6533  -11.9341   21.3446 H   0  0  0  0  0  0
  -28.4654  -13.5728   21.8789 H   0  0  0  0  0  0
  -25.2756   -9.5686   22.4777 H   0  0  0  0  0  0
  -23.9996   -7.4637   22.7484 H   0  0  0  0  0  0
  -21.0860   -8.8762   19.8935 H   0  0  0  0  0  0
  -22.3712  -10.9665   19.6153 H   0  0  0  0  0  0
  -21.2005   -7.6150   23.9726 H   0  0  0  0  0  0
  -21.1464   -6.0525   25.9079 H   0  0  0  0  0  0
  -22.0609   -2.7623   23.2837 H   0  0  0  0  0  0
  -22.4115  -11.9839   22.4727 H   0  0  0  0  0  0
  -21.1129  -13.1254   22.2617 H   0  0  0  0  0  0
  -24.6597  -15.8424   20.5007 H   0  0  0  0  0  0
  -26.2822  -15.6253   20.0846 H   0  0  0  0  0  0
  -26.7063  -32.5592   23.1211 H   0  0  0  0  0  0
  -24.9923  -33.9835   25.0451 H   0  0  0  0  0  0
  -22.6841  -31.3133   21.4138 H   0  0  0  0  0  0
  -23.3750  -35.9646   23.3309 H   0  0  0  0  0  0
  -24.3565  -36.8950   22.2060 H   0  0  0  0  0  0
  -23.7223  -37.6522   23.6664 H   0  0  0  0  0  0
  -26.0194  -31.6115   20.5898 H   0  0  0  0  0  0
  -26.8119  -30.9098   21.9735 H   0  0  0  0  0  0
  -28.0971  -29.1399   21.1565 H   0  0  0  0  0  0
  -26.0703  -25.9797   19.0312 H   0  0  0  0  0  0
  -23.9707  -27.2868   19.0613 H   0  0  0  0  0  0
  -23.7097  -30.6021   19.4069 H   0  0  0  0  0  0
  -22.7269  -29.2473   19.8742 H   0  0  0  0  0  0
  -25.1280  -36.2008   25.0836 H   0  0  0  0  0  0
  -20.9970  -28.3260   24.1452 H   0  0  0  0  0  0
  -20.5645  -26.2303   23.3619 H   0  0  0  0  0  0
  -21.6619  -26.7459   22.1249 H   0  0  0  0  0  0
  -19.6892  -25.6318   21.1236 H   0  0  0  0  0  0
  -19.6656  -27.3222   20.6766 H   0  0  0  0  0  0
  -17.4181  -26.6737   21.4032 H   0  0  0  0  0  0
  -18.0285  -26.0070   22.9014 H   0  0  0  0  0  0
  -19.7909  -30.7245   24.2362 H   0  0  0  0  0  0
  -17.4996  -31.6286   24.5192 H   0  0  0  0  0  0
  -15.5333  -30.3045   23.7580 H   0  0  0  0  0  0
  -15.8671  -28.0837   22.7071 H   0  0  0  0  0  0
  -24.5936  -30.6890   25.7760 H   0  0  0  0  0  0
  -24.8750  -32.2731   26.4889 H   0  0  0  0  0  0
  -25.8042  -30.8826   27.0225 H   0  0  0  0  0  0
  -26.2833  -29.6832   24.1084 H   0  0  0  0  0  0
  -27.4079  -29.7286   25.4485 H   0  0  0  0  0  0
  -27.8640  -30.4451   23.9186 H   0  0  0  0  0  0
  -27.2657  -33.3600   26.2139 H   0  0  0  0  0  0
  -28.3814  -32.6873   25.0329 H   0  0  0  0  0  0
  -28.0679  -31.8377   26.5393 H   0  0  0  0  0  0
  -28.2602  -38.0116   24.7544 H   0  0  0  0  0  0
  -28.1090  -36.2644   24.6288 H   0  0  0  0  0  0
  -27.2289  -37.1473   25.8875 H   0  0  0  0  0  0
  -20.9231  -29.8811   21.7002 H   0  0  0  0  0  0
  -26.0196  -38.2878   24.1415 H   0  0  0  0  0  0
  -32.5603  -19.2385   20.6508 H   0  0  0  0  0  0
  -28.6632  -19.0690   18.7750 H   0  0  0  0  0  0
  -32.1905  -16.9977   21.6143 H   0  0  0  0  0  0
  -28.2839  -16.8453   19.7623 H   0  0  0  0  0  0
  -30.7357  -20.5092   17.8512 H   0  0  0  0  0  0
  -32.0040  -20.8554   19.0033 H   0  0  0  0  0  0
  -28.5716  -23.9105   18.8142 H   0  0  0  0  0  0
  -29.3987  -24.2253   20.3215 H   0  0  0  0  0  0
  -30.3848  -25.4145   17.6929 H   0  0  0  0  0  0
  -30.8464  -25.8907   19.3065 H   0  0  0  0  0  0
  -31.5381  -23.3082   19.2795 H   0  0  0  0  0  0
  -30.6330  -22.9658   17.8203 H   0  0  0  0  0  0
  -28.0978  -26.2195   18.0160 H   0  0  0  0  0  0
  -29.2601  -27.5015   18.2807 H   0  0  0  0  0  0
  -29.1251  -15.1533   21.4752 H   0  0  0  0  0  0
  -30.2616  -21.7511   20.4631 H   0  0  0  0  0  0
  -29.1801  -21.5653   19.2586 H   0  0  0  0  0  0
  1 25  1  0  0  0
  1 30  2  0  0  0
  1 82  1  0  0  0
  2  3  1  0  0  0
  2 25  1  0  0  0
  2 84  1  0  0  0
  2 85  1  0  0  0
  3  4  1  0  0  0
  3 86  1  0  0  0
  3 87  1  0  0  0
  4  5  1  0  0  0
  4 88  1  0  0  0
  4 89  1  0  0  0
  5  6  1  0  0  0
  5 26  1  0  0  0
  5 90  1  0  0  0
  6 25  1  0  0  0
  6 91  1  0  0  0
  6 92  1  0  0  0
  7  8  2  0  0  0
  7 26  1  0  0  0
  7 29  1  0  0  0
  8  9  1  0  0  0
  8 22  1  0  0  0
  9 10  1  0  0  0
  9 27  2  0  0  0
 10 11  2  0  0  0
 10 15  1  0  0  0
 11 12  1  0  0  0
 11 93  1  0  0  0
 12 13  2  0  0  0
 12 94  1  0  0  0
 13 14  1  0  0  0
 13 31  1  0  0  0
 14 15  2  0  0  0
 14 95  1  0  0  0
 15 96  1  0  0  0
 16 17  2  0  0  0
 16 21  1  0  0  0
 16 31  1  0  0  0
 17 18  1  0  0  0
 17 97  1  0  0  0
 18 19  2  0  0  0
 18 98  1  0  0  0
 19 20  1  0  0  0
 19 24  1  0  0  0
 20 21  2  0  0  0
 20 99  1  0  0  0
 21 23  1  0  0  0
 22 28  1  0  0  0
 22 32  2  0  0  0
 26 27  1  0  0  0
 28100  1  0  0  0
 28101  1  0  0  0
 29102  1  0  0  0
 29103  1  0  0  0
 33 34  1  0  0  0
 33 66  1  0  0  0
 33 70  2  0  0  0
 34 36  1  0  0  0
 34 59  1  0  0  0
 34104  1  0  0  0
 35 44  2  0  0  0
 35 45  1  0  0  0
 35 68  1  0  0  0
 36 56  1  0  0  0
 36105  1  0  0  0
 37 39  1  0  0  0
 37 47  1  0  0  0
 37 66  1  0  0  0
 37106  1  0  0  0
 38 43  2  0  0  0
 38 46  1  0  0  0
 38 47  1  0  0  0
 39 64  1  0  0  0
 39 67  2  0  0  0
 40 52  1  0  0  0
 40 53  2  0  0  0
 40 58  1  0  0  0
 41107  1  0  0  0
 41108  1  0  0  0
 41109  1  0  0  0
 41 48  1  0  0  0
 42 43  1  0  0  0
 42 66  1  0  0  0
 42110  1  0  0  0
 42111  1  0  0  0
 43 44  1  0  0  0
 44112  1  0  0  0
 45 46  2  0  0  0
 45113  1  0  0  0
 46114  1  0  0  0
 47115  1  0  0  0
 47116  1  0  0  0
 48 56  1  0  0  0
 48 65  1  0  0  0
 48117  1  0  0  0
 49 50  1  0  0  0
 49 53  1  0  0  0
 49 64  1  0  0  0
 49118  1  0  0  0
 50 51  1  0  0  0
 50119  1  0  0  0
 50120  1  0  0  0
 51 52  1  0  0  0
 51121  1  0  0  0
 51122  1  0  0  0
 52123  1  0  0  0
 52124  1  0  0  0
 53 54  1  0  0  0
 54 55  2  0  0  0
 54125  1  0  0  0
 55 57  1  0  0  0
 55126  1  0  0  0
 56 69  2  0  0  0
 57 58  2  0  0  0
 57127  1  0  0  0
 58128  1  0  0  0
 59 60  1  0  0  0
 59 61  1  0  0  0
 59 62  1  0  0  0
 60129  1  0  0  0
 60130  1  0  0  0
 60131  1  0  0  0
 61132  1  0  0  0
 61133  1  0  0  0
 61134  1  0  0  0
 62135  1  0  0  0
 62136  1  0  0  0
 62137  1  0  0  0
 63 65  1  0  0  0
 63138  1  0  0  0
 63139  1  0  0  0
 63140  1  0  0  0
 64141  1  0  0  0
 65142  1  0  0  0
 68 81  1  0  0  0
 71 73  2  0  0  0
 71 75  1  0  0  0
 71143  1  0  0  0
 72 74  1  0  0  0
 72 75  2  0  0  0
 72144  1  0  0  0
 73 76  1  0  0  0
 73145  1  0  0  0
 74 76  2  0  0  0
 74146  1  0  0  0
 75 77  1  0  0  0
 76 82  1  0  0  0
 77 83  1  0  0  0
 77147  1  0  0  0
 77148  1  0  0  0
 78 79  1  0  0  0
 78 80  1  0  0  0
 78149  1  0  0  0
 78150  1  0  0  0
 79 81  1  0  0  0
 79151  1  0  0  0
 79152  1  0  0  0
 80 83  1  0  0  0
 80153  1  0  0  0
 80154  1  0  0  0
 81155  1  0  0  0
 81156  1  0  0  0
 82157  1  0  0  0
 83158  1  0  0  0
 83159  1  0  0  0
M  CHG  1  83   1
M  ISO  4   1 100  68 101  81 101  82 100
M  END
> <chiral flag>
0

> <version>
0

> <s_m_source_file>
/data/baiqing/PycharmProjects/Reinvent-master-3.2/result/LINK_invent/BTK/process_docking_weight1_custom_product_contain_oxygen_bond_distance_aromatic_linkinvent_7_9_3/rearranged_h_0004.sdf

> <i_m_source_file_index>
1

> <r_mmod_Potential_Energy-OPLS-2005>
-246.105285644531

> <r_mmod_Stretch_Energy-OPLS-2005>
29.8059921264648

> <r_mmod_Bend_Energy-OPLS-2005>
80.8831253051758

> <r_mmod_Torsional_Energy-OPLS-2005>
246.131927490234

> <r_mmod_Improper_Torsional_Energy-OPLS-2005>
5.75335454940796

> <r_mmod_Van_der_Waal_Energy-OPLS-2005>
151.840667724609

> <r_mmod_Electrostatic_Energy-OPLS-2005>
-299.892944335938

> <r_mmod_Solvation_Energy-OPLS-2005>
-469.631408691406

> <b_mmod_Minimization_Converged-OPLS-2005>
0

> <r_mmod_RMS_Derivative-OPLS-2005>
1.9610892534256

$$$$
1
                    3D
 Structure written by MMmdl.
160169  0  0  1  0            999 V2000
  -30.6870  -14.4331   20.4722 C   0  0  0  0  0  0
  -30.4161  -12.2477   19.4280 C   0  0  0  0  0  0
  -29.4937  -12.4581   18.2070 C   0  0  0  0  0  0
  -28.0088  -12.3454   18.6124 C   0  0  0  0  0  0
  -27.6535  -13.1949   19.8631 C   0  0  2  0  0  0
  -28.6989  -12.9962   20.9887 C   0  0  0  0  0  0
  -25.2584  -13.8141   20.5688 C   0  0  0  0  0  0
  -24.1806  -13.0442   20.9162 C   0  0  0  0  0  0
  -24.6341  -11.6904   20.8730 C   0  0  0  0  0  0
  -23.9014  -10.4298   21.0401 C   0  0  0  0  0  0
  -24.3577   -9.4216   21.9177 C   0  0  0  0  0  0
  -23.6276   -8.2234   22.0740 C   0  0  0  0  0  0
  -22.4259   -8.0266   21.3532 C   0  0  0  0  0  0
  -21.9881   -9.0233   20.4634 C   0  0  0  0  0  0
  -22.7189  -10.2131   20.3053 C   0  0  0  0  0  0
  -21.6858   -6.0721   22.5266 C   0  0  0  0  0  0
  -21.4012   -6.5626   23.8198 C   0  0  0  0  0  0
  -21.3663   -5.6778   24.9160 C   0  0  0  0  0  0
  -21.6053   -4.3038   24.7213 C   0  0  0  0  0  0
  -21.8821   -3.8134   23.4331 C   0  0  0  0  0  0
  -21.9190   -4.6950   22.3394 C   0  0  0  0  0  0
  -22.7836  -13.5270   21.1833 C   0  0  0  0  0  0
  -22.1662   -4.2136   21.0970 F   0  0  0  0  0  0
  -21.5633   -3.4525   25.7726 F   0  0  0  0  0  0
  -30.0349  -13.2483   20.4289 N   0  0  0  0  0  0
  -26.2979  -12.9271   20.3332 N   0  0  0  0  0  0
  -25.9258  -11.6446   20.5745 N   0  0  0  0  0  0
  -22.0472  -12.8264   22.0392 N   0  0  0  0  0  0
  -25.4356  -15.1853   20.4155 N   0  0  0  0  0  0
  -31.8887  -14.5744   20.2452 O   0  0  0  0  0  0
  -21.6633   -6.8858   21.4229 O   0  0  0  0  0  0
  -22.3514  -14.5569   20.6679 O   0  0  0  0  0  0
  -24.6090  -31.8730   23.2138 C   0  0  0  0  0  0
  -25.9026  -32.4848   23.8400 C   0  0  1  0  0  0
  -27.2324  -27.4792   20.1002 C   0  0  0  0  0  0
  -25.5903  -33.8636   24.2360 N   0  0  0  0  0  0
  -23.3942  -30.4953   21.5544 C   0  0  2  0  0  0
  -24.8427  -28.9671   20.1116 C   0  0  0  0  0  0
  -22.7376  -29.4667   22.5032 C   0  0  0  0  0  0
  -18.0257  -28.1346   22.8458 C   0  0  0  0  0  0
  -24.1487  -36.7329   23.2631 C   0  0  0  0  0  0
  -25.9166  -30.8509   21.3622 C   0  0  0  0  0  0
  -25.9949  -29.4869   20.7152 C   0  0  0  0  0  0
  -27.1931  -28.7481   20.7135 C   0  0  0  0  0  0
  -26.0800  -26.9743   19.4675 C   0  0  0  0  0  0
  -24.8780  -27.7077   19.4846 C   0  0  0  0  0  0
  -23.5995  -29.8255   20.1675 C   0  0  0  0  0  0
  -25.4108  -36.3142   24.0344 C   0  0  1  0  0  0
  -20.5836  -28.3648   23.1345 C   0  0  2  0  0  0
  -20.6779  -26.9393   22.5430 C   0  0  0  0  0  0
  -19.5784  -26.6383   21.5208 C   0  0  0  0  0  0
  -18.1940  -26.7902   22.1581 C   0  0  0  0  0  0
  -19.1491  -28.8816   23.2886 C   0  0  0  0  0  0
  -18.9409  -30.1423   23.8884 C   0  0  0  0  0  0
  -17.6413  -30.6570   24.0518 C   0  0  0  0  0  0
  -25.9027  -34.9492   23.5154 C   0  0  0  0  0  0
  -16.5317  -29.9058   23.6276 C   0  0  0  0  0  0
  -16.7238  -28.6467   23.0304 C   0  0  0  0  0  0
  -26.4470  -31.6615   25.0710 C   0  0  0  0  0  0
  -25.3743  -31.3718   26.1477 C   0  0  0  0  0  0
  -27.0292  -30.3060   24.6047 C   0  0  0  0  0  0
  -27.6049  -32.4328   25.7468 C   0  0  0  0  0  0
  -27.5593  -37.1818   24.8459 C   0  0  0  0  0  0
  -21.4107  -29.3040   22.3797 N   0  0  0  0  0  0
  -26.4299  -37.3818   23.9412 N   0  0  0  0  0  0
  -24.6576  -31.0857   22.1028 N   0  0  0  0  0  0
  -23.4186  -28.8198   23.3036 O   0  0  0  0  0  0
  -28.3744  -26.7232   20.1049 O   0  0  0  0  0  0
  -26.5556  -34.8931   22.4696 O   0  0  0  0  0  0
  -23.5294  -32.1444   23.7570 O   0  0  0  0  0  0
  -27.1507  -19.3517   19.9597 C   0  0  0  0  0  0
  -28.5660  -17.5403   22.9008 C   0  0  0  0  0  0
  -26.6806  -20.5284   20.5622 C   0  0  0  0  0  0
  -29.1909  -16.4483   22.2591 C   0  0  0  0  0  0
  -27.4370  -19.7222   22.7421 C   0  0  0  0  0  0
  -28.4267  -17.2974   20.1016 C   0  0  0  0  0  0
  -27.9207  -18.5402   22.1393 C   0  0  0  0  0  0
  -27.8150  -18.3872   20.7368 C   0  0  0  0  0  0
  -26.8860  -20.7530   21.9439 C   0  0  0  0  0  0
  -29.1627  -16.3617   20.8481 C   0  0  0  0  0  0
  -26.6159  -22.1068   22.5321 C   0  0  0  0  0  0
  -28.5613  -24.8660   21.6599 C   0  0  0  0  0  0
  -27.0894  -24.5113   21.9554 C   0  0  0  0  0  0
  -28.8373  -26.3562   21.4087 C   0  0  0  0  0  0
  -29.8940  -15.4317   20.0818 N   0  0  0  0  0  0
  -26.8840  -23.0999   21.6801 N   0  0  0  0  0  0
  -26.3147  -22.2698   23.7155 O   0  0  0  0  0  0
  -31.4647  -12.3293   19.1333 H   0  0  0  0  0  0
  -30.2930  -11.2452   19.8401 H   0  0  0  0  0  0
  -29.7220  -11.7215   17.4355 H   0  0  0  0  0  0
  -29.6785  -13.4352   17.7612 H   0  0  0  0  0  0
  -27.8007  -11.2940   18.8085 H   0  0  0  0  0  0
  -27.3697  -12.6263   17.7741 H   0  0  0  0  0  0
  -27.6749  -14.2348   19.5409 H   0  0  0  0  0  0
  -28.6488  -11.9798   21.3817 H   0  0  0  0  0  0
  -28.4922  -13.6575   21.8304 H   0  0  0  0  0  0
  -25.2714   -9.5713   22.4754 H   0  0  0  0  0  0
  -23.9996   -7.4634   22.7459 H   0  0  0  0  0  0
  -21.0809   -8.8742   19.8945 H   0  0  0  0  0  0
  -22.3628  -10.9665   19.6166 H   0  0  0  0  0  0
  -21.2001   -7.6132   23.9701 H   0  0  0  0  0  0
  -21.1493   -6.0500   25.9063 H   0  0  0  0  0  0
  -22.0603   -2.7595   23.2825 H   0  0  0  0  0  0
  -22.4072  -11.9942   22.4814 H   0  0  0  0  0  0
  -21.1089  -13.1286   22.2601 H   0  0  0  0  0  0
  -24.6838  -15.8512   20.5534 H   0  0  0  0  0  0
  -26.3177  -15.6231   20.1808 H   0  0  0  0  0  0
  -26.7118  -32.5598   23.1184 H   0  0  0  0  0  0
  -25.0132  -33.9786   25.0567 H   0  0  0  0  0  0
  -22.6796  -31.3102   21.4173 H   0  0  0  0  0  0
  -23.3747  -35.9664   23.3307 H   0  0  0  0  0  0
  -24.3573  -36.8910   22.2037 H   0  0  0  0  0  0
  -23.7225  -37.6538   23.6616 H   0  0  0  0  0  0
  -26.0157  -31.6143   20.5902 H   0  0  0  0  0  0
  -26.8108  -30.9095   21.9710 H   0  0  0  0  0  0
  -28.0839  -29.1453   21.1786 H   0  0  0  0  0  0
  -26.1085  -26.0090   18.9825 H   0  0  0  0  0  0
  -23.9954  -27.3056   19.0065 H   0  0  0  0  0  0
  -23.6961  -30.5976   19.4033 H   0  0  0  0  0  0
  -22.7255  -29.2366   19.8827 H   0  0  0  0  0  0
  -25.1279  -36.2023   25.0830 H   0  0  0  0  0  0
  -20.9877  -28.3216   24.1486 H   0  0  0  0  0  0
  -20.5697  -26.2242   23.3600 H   0  0  0  0  0  0
  -21.6662  -26.7476   22.1231 H   0  0  0  0  0  0
  -19.6982  -25.6301   21.1246 H   0  0  0  0  0  0
  -19.6755  -27.3203   20.6754 H   0  0  0  0  0  0
  -17.4249  -26.6646   21.3951 H   0  0  0  0  0  0
  -18.0322  -26.0019   22.8951 H   0  0  0  0  0  0
  -19.7879  -30.7219   24.2319 H   0  0  0  0  0  0
  -17.4959  -31.6246   24.5111 H   0  0  0  0  0  0
  -15.5312  -30.2952   23.7609 H   0  0  0  0  0  0
  -15.8646  -28.0787   22.7017 H   0  0  0  0  0  0
  -24.5909  -30.7077   25.7831 H   0  0  0  0  0  0
  -24.8942  -32.2865   26.4950 H   0  0  0  0  0  0
  -25.8092  -30.8876   27.0230 H   0  0  0  0  0  0
  -26.2824  -29.6829   24.1107 H   0  0  0  0  0  0
  -27.4093  -29.7289   25.4491 H   0  0  0  0  0  0
  -27.8646  -30.4402   23.9166 H   0  0  0  0  0  0
  -27.2687  -33.3612   26.2095 H   0  0  0  0  0  0
  -28.3827  -32.6915   25.0279 H   0  0  0  0  0  0
  -28.0765  -31.8425   26.5338 H   0  0  0  0  0  0
  -28.2628  -38.0103   24.7519 H   0  0  0  0  0  0
  -28.1074  -36.2633   24.6287 H   0  0  0  0  0  0
  -27.2291  -37.1469   25.8854 H   0  0  0  0  0  0
  -20.9244  -29.8828   21.7090 H   0  0  0  0  0  0
  -26.0207  -38.2904   24.1405 H   0  0  0  0  0  0
  -27.0520  -19.2222   18.8911 H   0  0  0  0  0  0
  -28.6309  -17.6355   23.9760 H   0  0  0  0  0  0
  -26.2259  -21.2835   19.9346 H   0  0  0  0  0  0
  -29.7287  -15.7265   22.8564 H   0  0  0  0  0  0
  -27.5687  -19.8820   23.8036 H   0  0  0  0  0  0
  -28.3863  -17.2169   19.0241 H   0  0  0  0  0  0
  -28.9171  -24.3080   20.7939 H   0  0  0  0  0  0
  -29.1724  -24.5257   22.4984 H   0  0  0  0  0  0
  -26.4125  -25.0596   21.3039 H   0  0  0  0  0  0
  -26.8191  -24.7752   22.9791 H   0  0  0  0  0  0
  -29.9121  -26.5347   21.4411 H   0  0  0  0  0  0
  -28.4060  -26.9524   22.2149 H   0  0  0  0  0  0
  -30.2207  -15.8289   19.2141 H   0  0  0  0  0  0
  -27.1145  -22.7953   20.7449 H   0  0  0  0  0  0
  1 25  1  0  0  0
  1 30  2  0  0  0
  1 85  1  0  0  0
  2  3  1  0  0  0
  2 25  1  0  0  0
  2 88  1  0  0  0
  2 89  1  0  0  0
  3  4  1  0  0  0
  3 90  1  0  0  0
  3 91  1  0  0  0
  4  5  1  0  0  0
  4 92  1  0  0  0
  4 93  1  0  0  0
  5  6  1  0  0  0
  5 26  1  0  0  0
  5 94  1  0  0  0
  6 25  1  0  0  0
  6 95  1  0  0  0
  6 96  1  0  0  0
  7  8  2  0  0  0
  7 26  1  0  0  0
  7 29  1  0  0  0
  8  9  1  0  0  0
  8 22  1  0  0  0
  9 10  1  0  0  0
  9 27  2  0  0  0
 10 11  2  0  0  0
 10 15  1  0  0  0
 11 12  1  0  0  0
 11 97  1  0  0  0
 12 13  2  0  0  0
 12 98  1  0  0  0
 13 14  1  0  0  0
 13 31  1  0  0  0
 14 15  2  0  0  0
 14 99  1  0  0  0
 15100  1  0  0  0
 16 17  2  0  0  0
 16 21  1  0  0  0
 16 31  1  0  0  0
 17 18  1  0  0  0
 17101  1  0  0  0
 18 19  2  0  0  0
 18102  1  0  0  0
 19 20  1  0  0  0
 19 24  1  0  0  0
 20 21  2  0  0  0
 20103  1  0  0  0
 21 23  1  0  0  0
 22 28  1  0  0  0
 22 32  2  0  0  0
 26 27  1  0  0  0
 28104  1  0  0  0
 28105  1  0  0  0
 29106  1  0  0  0
 29107  1  0  0  0
 33 34  1  0  0  0
 33 66  1  0  0  0
 33 70  2  0  0  0
 34 36  1  0  0  0
 34 59  1  0  0  0
 34108  1  0  0  0
 35 44  2  0  0  0
 35 45  1  0  0  0
 35 68  1  0  0  0
 36 56  1  0  0  0
 36109  1  0  0  0
 37 39  1  0  0  0
 37 47  1  0  0  0
 37 66  1  0  0  0
 37110  1  0  0  0
 38 43  2  0  0  0
 38 46  1  0  0  0
 38 47  1  0  0  0
 39 64  1  0  0  0
 39 67  2  0  0  0
 40 52  1  0  0  0
 40 53  2  0  0  0
 40 58  1  0  0  0
 41111  1  0  0  0
 41112  1  0  0  0
 41113  1  0  0  0
 41 48  1  0  0  0
 42 43  1  0  0  0
 42 66  1  0  0  0
 42114  1  0  0  0
 42115  1  0  0  0
 43 44  1  0  0  0
 44116  1  0  0  0
 45 46  2  0  0  0
 45117  1  0  0  0
 46118  1  0  0  0
 47119  1  0  0  0
 47120  1  0  0  0
 48 56  1  0  0  0
 48 65  1  0  0  0
 48121  1  0  0  0
 49 50  1  0  0  0
 49 53  1  0  0  0
 49 64  1  0  0  0
 49122  1  0  0  0
 50 51  1  0  0  0
 50123  1  0  0  0
 50124  1  0  0  0
 51 52  1  0  0  0
 51125  1  0  0  0
 51126  1  0  0  0
 52127  1  0  0  0
 52128  1  0  0  0
 53 54  1  0  0  0
 54 55  2  0  0  0
 54129  1  0  0  0
 55 57  1  0  0  0
 55130  1  0  0  0
 56 69  2  0  0  0
 57 58  2  0  0  0
 57131  1  0  0  0
 58132  1  0  0  0
 59 60  1  0  0  0
 59 61  1  0  0  0
 59 62  1  0  0  0
 60133  1  0  0  0
 60134  1  0  0  0
 60135  1  0  0  0
 61136  1  0  0  0
 61137  1  0  0  0
 61138  1  0  0  0
 62139  1  0  0  0
 62140  1  0  0  0
 62141  1  0  0  0
 63 65  1  0  0  0
 63142  1  0  0  0
 63143  1  0  0  0
 63144  1  0  0  0
 64145  1  0  0  0
 65146  1  0  0  0
 68 84  1  0  0  0
 71 73  2  0  0  0
 71 78  1  0  0  0
 71147  1  0  0  0
 72 74  1  0  0  0
 72 77  2  0  0  0
 72148  1  0  0  0
 73 79  1  0  0  0
 73149  1  0  0  0
 74 80  2  0  0  0
 74150  1  0  0  0
 75 77  1  0  0  0
 75 79  2  0  0  0
 75151  1  0  0  0
 76 78  2  0  0  0
 76 80  1  0  0  0
 76152  1  0  0  0
 77 78  1  0  0  0
 79 81  1  0  0  0
 80 85  1  0  0  0
 81 86  1  0  0  0
 81 87  2  0  0  0
 82 83  1  0  0  0
 82 84  1  0  0  0
 82153  1  0  0  0
 82154  1  0  0  0
 83 86  1  0  0  0
 83155  1  0  0  0
 83156  1  0  0  0
 84157  1  0  0  0
 84158  1  0  0  0
 85159  1  0  0  0
 86160  1  0  0  0
M  ISO  4   1 100  68 101  84 101  85 100
M  END
> <chiral flag>
0

> <version>
0

> <s_m_source_file>
/data/baiqing/PycharmProjects/Reinvent-master-3.2/result/LINK_invent/BTK/process_docking_weight1_custom_product_contain_oxygen_bond_distance_aromatic_linkinvent_7_9_3/rearranged_h_0004.sdf

> <i_m_source_file_index>
2

> <r_mmod_Potential_Energy-OPLS-2005>
9.23452949523926

> <r_mmod_Stretch_Energy-OPLS-2005>
31.0869598388672

> <r_mmod_Bend_Energy-OPLS-2005>
105.692596435547

> <r_mmod_Torsional_Energy-OPLS-2005>
311.752563476562

> <r_mmod_Improper_Torsional_Energy-OPLS-2005>
29.3076610565186

> <r_mmod_Van_der_Waal_Energy-OPLS-2005>
163.068084716797

> <r_mmod_Electrostatic_Energy-OPLS-2005>
-427.172882080078

> <r_mmod_Solvation_Energy-OPLS-2005>
-223.350372314453

> <b_mmod_Minimization_Converged-OPLS-2005>
0

> <r_mmod_RMS_Derivative-OPLS-2005>
2.33092021942139

$$$$
2
                    3D
 Structure written by MMmdl.
170179  0  0  1  0            999 V2000
  -30.6081  -13.9404   21.2228 C   0  0  0  0  0  0
  -30.4568  -12.4439   19.1921 C   0  0  0  0  0  0
  -29.3915  -12.4233   18.0373 C   0  0  0  0  0  0
  -27.9158  -11.9657   18.4025 C   0  0  0  0  0  0
  -27.4740  -12.7558   19.6439 C   0  0  2  0  0  0
  -28.6557  -12.4876   20.6378 C   0  0  0  0  0  0
  -24.8212  -14.3728   21.2458 C   0  0  0  0  0  0
  -24.2029  -13.9235   21.3866 C   0  0  0  0  0  0
  -25.2309  -12.0726   20.6693 C   0  0  0  0  0  0
  -24.6193  -10.3852   20.6170 C   0  0  0  0  0  0
  -24.7064   -9.4806   21.7586 C   0  0  0  0  0  0
  -23.8358   -8.3586   22.0310 C   0  0  0  0  0  0
  -22.6682   -8.0923   21.2622 C   0  0  0  0  0  0
  -22.4802   -8.9648   20.1788 C   0  0  0  0  0  0
  -23.4772   -9.9377   19.8086 C   0  0  0  0  0  0
  -21.7610   -6.1668   22.5152 C   0  0  0  0  0  0
  -21.4598   -6.6193   23.8198 C   0  0  0  0  0  0
  -21.3814   -5.7155   24.9001 C   0  0  0  0  0  0
  -21.6094   -4.3418   24.6970 C   0  0  0  0  0  0
  -21.8843   -3.8695   23.4015 C   0  0  0  0  0  0
  -21.9528   -4.7714   22.3173 C   0  0  0  0  0  0
  -22.6631  -14.5010   21.5567 C   0  0  0  0  0  0
  -22.1853   -4.2877   21.0745 F   0  0  0  0  0  0
  -21.5435   -3.4706   25.7360 F   0  0  0  0  0  0
  -29.9316  -13.1061   20.3847 N   0  0  0  0  0  0
  -25.9686  -12.7875   20.4391 N   0  0  0  0  0  0
  -26.2768  -11.6371   20.8899 N   0  0  0  0  0  0
  -21.8668  -13.9421   22.4624 N   0  0  0  0  0  0
  -24.8359  -15.8524   21.3716 N   0  0  0  0  0  0
  -31.4724  -14.7043   20.7522 O   0  0  0  0  0  0
  -21.7546   -7.0482   21.4450 O   0  0  0  0  0  0
  -22.1368  -15.0615   20.5996 O   0  0  0  0  0  0
  -24.6794  -31.8182   23.1700 C   0  0  0  0  0  0
  -25.9473  -32.4473   23.8242 C   0  0  1  0  0  0
  -26.9892  -26.8177   20.0409 C   0  0  0  0  0  0
  -25.6058  -33.8333   24.2069 N   0  0  0  0  0  0
  -23.4731  -30.4596   21.5245 C   0  0  2  0  0  0
  -24.8601  -28.8635   20.0510 C   0  0  0  0  0  0
  -22.7638  -29.4541   22.4720 C   0  0  0  0  0  0
  -18.0334  -28.1360   22.8493 C   0  0  0  0  0  0
  -24.1424  -36.7087   23.2673 C   0  0  0  0  0  0
  -26.0539  -30.5573   21.4215 C   0  0  0  0  0  0
  -26.0603  -29.1703   20.7015 C   0  0  0  0  0  0
  -27.1330  -28.1594   20.6781 C   0  0  0  0  0  0
  -25.7663  -26.6882   19.3722 C   0  0  0  0  0  0
  -24.7474  -27.6529   19.3664 C   0  0  0  0  0  0
  -23.6902  -29.8335   20.1220 C   0  0  0  0  0  0
  -25.4109  -36.2961   24.0332 C   0  0  1  0  0  0
  -20.5964  -28.3781   23.1060 C   0  0  2  0  0  0
  -20.6807  -26.9458   22.5345 C   0  0  0  0  0  0
  -19.5805  -26.6351   21.5151 C   0  0  0  0  0  0
  -18.1987  -26.7902   22.1599 C   0  0  0  0  0  0
  -19.1606  -28.8890   23.2749 C   0  0  0  0  0  0
  -18.9562  -30.1458   23.8822 C   0  0  0  0  0  0
  -17.6583  -30.6593   24.0553 C   0  0  0  0  0  0
  -25.9134  -34.9341   23.5030 C   0  0  0  0  0  0
  -16.5449  -29.9112   23.6338 C   0  0  0  0  0  0
  -16.7326  -28.6488   23.0410 C   0  0  0  0  0  0
  -26.4654  -31.6590   25.0933 C   0  0  0  0  0  0
  -25.3749  -31.3916   26.1553 C   0  0  0  0  0  0
  -27.0727  -30.2958   24.6991 C   0  0  0  0  0  0
  -27.6038  -32.4577   25.7717 C   0  0  0  0  0  0
  -27.5564  -37.1678   24.8453 C   0  0  0  0  0  0
  -21.4323  -29.3087   22.3440 N   0  0  0  0  0  0
  -26.4222  -37.3749   23.9490 N   0  0  0  0  0  0
  -24.7619  -30.9769   22.0864 N   0  0  0  0  0  0
  -23.4131  -28.8113   23.3011 O   0  0  0  0  0  0
  -27.8279  -25.5819   20.0622 O   0  0  0  0  0  0
  -26.5799  -34.8902   22.4636 O   0  0  0  0  0  0
  -23.5835  -32.1329   23.6667 O   0  0  0  0  0  0
  -23.0625  -12.1279   21.0216 C   0  0  0  0  0  0
  -23.9045  -13.3643   19.2332 C   0  0  0  0  0  0
  -24.5434  -12.2890   22.8015 C   0  0  0  0  0  0
  -26.9770  -14.7137   21.0195 C   0  0  0  0  0  0
  -25.6931  -14.7084   19.2503 C   0  0  0  0  0  0
  -26.3459  -13.4980   22.6678 C   0  0  0  0  0  0
  -25.6779  -16.2766   18.6311 C   0  0  0  0  0  0
  -28.4526  -14.9363   24.1367 C   0  0  0  0  0  0
  -28.4723  -12.4615   24.0277 C   0  0  0  0  0  0
  -30.0117  -14.7862   23.6680 C   0  0  0  0  0  0
  -29.9103  -12.4891   23.3042 C   0  0  0  0  0  0
  -27.5456  -13.6600   23.7671 C   0  0  0  0  0  0
  -27.1289  -20.7070   19.0432 C   0  0  0  0  0  0
  -27.1065  -22.3557   19.8549 C   0  0  0  0  0  0
  -26.2374  -19.1389   19.3312 C   0  0  0  0  0  0
  -27.5737  -24.0631   19.3687 C   0  0  0  0  0  0
  -30.2242  -13.7839   22.5884 N   0  0  0  0  0  0
  -26.4527  -17.4832   19.0716 N   0  0  0  0  0  0
  -24.8184  -16.4550   17.7832 O   0  0  0  0  0  0
  -31.3788  -12.9273   18.8781 H   0  0  0  0  0  0
  -30.7476  -11.4236   19.4634 H   0  0  0  0  0  0
  -29.7885  -11.7683   17.2554 H   0  0  0  0  0  0
  -29.3401  -13.4424   17.6452 H   0  0  0  0  0  0
  -27.8972  -10.8952   18.5975 H   0  0  0  0  0  0
  -27.2580  -12.1281   17.5373 H   0  0  0  0  0  0
  -27.6387  -13.6630   19.0693 H   0  0  0  0  0  0
  -28.8476  -11.4095   20.6026 H   0  0  0  0  0  0
  -28.3305  -12.5291   21.6213 H   0  0  0  0  0  0
  -25.4742   -9.6857   22.4851 H   0  0  0  0  0  0
  -24.0590   -7.7493   22.8893 H   0  0  0  0  0  0
  -21.6143   -8.8667   19.5524 H   0  0  0  0  0  0
  -23.2205  -10.5874   18.9770 H   0  0  0  0  0  0
  -21.2707   -7.6694   23.9876 H   0  0  0  0  0  0
  -21.1498   -6.0797   25.8921 H   0  0  0  0  0  0
  -22.0365   -2.8138   23.2274 H   0  0  0  0  0  0
  -22.2077  -13.3599   23.2046 H   0  0  0  0  0  0
  -20.8757  -14.1485   22.3850 H   0  0  0  0  0  0
  -24.1120  -16.2984   21.9104 H   0  0  0  0  0  0
  -25.6450  -16.4414   21.2213 H   0  0  0  0  0  0
  -26.7575  -32.4838   23.0952 H   0  0  0  0  0  0
  -25.0224  -33.9393   25.0250 H   0  0  0  0  0  0
  -22.8080  -31.3175   21.3829 H   0  0  0  0  0  0
  -23.3821  -35.9245   23.3201 H   0  0  0  0  0  0
  -24.3542  -36.8874   22.2113 H   0  0  0  0  0  0
  -23.6943  -37.6136   23.6798 H   0  0  0  0  0  0
  -26.3369  -31.3116   20.6869 H   0  0  0  0  0  0
  -26.8685  -30.4906   22.1294 H   0  0  0  0  0  0
  -28.0540  -28.3645   21.1947 H   0  0  0  0  0  0
  -25.5030  -25.7724   18.8631 H   0  0  0  0  0  0
  -23.8328  -27.4334   18.8305 H   0  0  0  0  0  0
  -23.8698  -30.6332   19.4002 H   0  0  0  0  0  0
  -22.7740  -29.3522   19.7791 H   0  0  0  0  0  0
  -25.1240  -36.1751   25.0816 H   0  0  0  0  0  0
  -21.0100  -28.3349   24.1157 H   0  0  0  0  0  0
  -20.5509  -26.2480   23.3619 H   0  0  0  0  0  0
  -21.6668  -26.7322   22.1238 H   0  0  0  0  0  0
  -19.6893  -25.6205   21.1293 H   0  0  0  0  0  0
  -19.6616  -27.3078   20.6593 H   0  0  0  0  0  0
  -17.4196  -26.6663   21.4059 H   0  0  0  0  0  0
  -18.0381  -26.0032   22.8982 H   0  0  0  0  0  0
  -19.8022  -30.7273   24.2186 H   0  0  0  0  0  0
  -17.5129  -31.6266   24.5139 H   0  0  0  0  0  0
  -15.5440  -30.2993   23.7669 H   0  0  0  0  0  0
  -15.8726  -28.0736   22.7218 H   0  0  0  0  0  0
  -24.5814  -30.7390   25.7861 H   0  0  0  0  0  0
  -24.9126  -32.3178   26.4977 H   0  0  0  0  0  0
  -25.7950  -30.9081   27.0375 H   0  0  0  0  0  0
  -26.3513  -29.6330   24.2191 H   0  0  0  0  0  0
  -27.4287  -29.7651   25.5831 H   0  0  0  0  0  0
  -27.9421  -30.4112   24.0517 H   0  0  0  0  0  0
  -27.2455  -33.3828   26.2207 H   0  0  0  0  0  0
  -28.3865  -32.7231   25.0626 H   0  0  0  0  0  0
  -28.0733  -31.8915   26.5738 H   0  0  0  0  0  0
  -28.2420  -38.0150   24.7850 H   0  0  0  0  0  0
  -28.1233  -36.2720   24.5829 H   0  0  0  0  0  0
  -27.2389  -37.0785   25.8874 H   0  0  0  0  0  0
  -20.9539  -29.8865   21.6663 H   0  0  0  0  0  0
  -26.0039  -38.2726   24.1744 H   0  0  0  0  0  0
  -22.1316  -11.5889   21.1193 H   0  0  0  0  0  0
  -23.2105  -13.4477   18.4114 H   0  0  0  0  0  0
  -24.3752  -11.7907   23.7609 H   0  0  0  0  0  0
  -27.8313  -15.3861   21.1294 H   0  0  0  0  0  0
  -28.0159  -15.8902   23.8374 H   0  0  0  0  0  0
  -28.4879  -15.0686   25.2310 H   0  0  0  0  0  0
  -28.5972  -12.4451   25.1164 H   0  0  0  0  0  0
  -27.8855  -11.6096   23.7348 H   0  0  0  0  0  0
  -30.4892  -14.3277   24.5476 H   0  0  0  0  0  0
  -30.6154  -15.6943   23.5165 H   0  0  0  0  0  0
  -30.0004  -11.6519   22.6067 H   0  0  0  0  0  0
  -30.6902  -12.2583   24.0303 H   0  0  0  0  0  0
  -27.9368  -13.9291   22.8370 H   0  0  0  0  0  0
  -28.1850  -20.4276   19.0808 H   0  0  0  0  0  0
  -26.9632  -20.9438   17.9859 H   0  0  0  0  0  0
  -27.6637  -22.1714   20.7726 H   0  0  0  0  0  0
  -26.0882  -22.4830   20.2173 H   0  0  0  0  0  0
  -25.1963  -19.3757   19.0823 H   0  0  0  0  0  0
  -26.2240  -19.1377   20.4202 H   0  0  0  0  0  0
  -26.9372  -24.2754   18.5039 H   0  0  0  0  0  0
  -28.5416  -23.9058   18.8839 H   0  0  0  0  0  0
  -27.2558  -17.1497   19.5850 H   0  0  0  0  0  0
  1 25  1  0  0  0
  1 30  2  0  0  0
  1 87  1  0  0  0
  2  3  1  0  0  0
  2 25  1  0  0  0
  2 90  1  0  0  0
  2 91  1  0  0  0
  3  4  1  0  0  0
  3 92  1  0  0  0
  3 93  1  0  0  0
  4  5  1  0  0  0
  4 94  1  0  0  0
  4 95  1  0  0  0
  5  6  1  0  0  0
  5 26  1  0  0  0
  5 96  1  0  0  0
  6 25  1  0  0  0
  6 97  1  0  0  0
  6 98  1  0  0  0
  7  8  2  0  0  0
  7 26  1  0  0  0
  7 29  1  0  0  0
  8  9  1  0  0  0
  8 22  1  0  0  0
  9 10  1  0  0  0
  9 27  2  0  0  0
 10 11  2  0  0  0
 10 15  1  0  0  0
 11 12  1  0  0  0
 11 99  1  0  0  0
 12 13  2  0  0  0
 12100  1  0  0  0
 13 14  1  0  0  0
 13 31  1  0  0  0
 14 15  2  0  0  0
 14101  1  0  0  0
 15102  1  0  0  0
 16 17  2  0  0  0
 16 21  1  0  0  0
 16 31  1  0  0  0
 17 18  1  0  0  0
 17103  1  0  0  0
 18 19  2  0  0  0
 18104  1  0  0  0
 19 20  1  0  0  0
 19 24  1  0  0  0
 20 21  2  0  0  0
 20105  1  0  0  0
 21 23  1  0  0  0
 22 28  1  0  0  0
 22 32  2  0  0  0
 26 27  1  0  0  0
 28106  1  0  0  0
 28107  1  0  0  0
 29108  1  0  0  0
 29109  1  0  0  0
 33 34  1  0  0  0
 33 66  1  0  0  0
 33 70  2  0  0  0
 34 36  1  0  0  0
 34 59  1  0  0  0
 34110  1  0  0  0
 35 44  2  0  0  0
 35 45  1  0  0  0
 35 68  1  0  0  0
 36 56  1  0  0  0
 36111  1  0  0  0
 37 39  1  0  0  0
 37 47  1  0  0  0
 37 66  1  0  0  0
 37112  1  0  0  0
 38 43  2  0  0  0
 38 46  1  0  0  0
 38 47  1  0  0  0
 39 64  1  0  0  0
 39 67  2  0  0  0
 40 52  1  0  0  0
 40 53  2  0  0  0
 40 58  1  0  0  0
 41113  1  0  0  0
 41114  1  0  0  0
 41115  1  0  0  0
 41 48  1  0  0  0
 42 43  1  0  0  0
 42 66  1  0  0  0
 42116  1  0  0  0
 42117  1  0  0  0
 43 44  1  0  0  0
 44118  1  0  0  0
 45 46  2  0  0  0
 45119  1  0  0  0
 46120  1  0  0  0
 47121  1  0  0  0
 47122  1  0  0  0
 48 56  1  0  0  0
 48 65  1  0  0  0
 48123  1  0  0  0
 49 50  1  0  0  0
 49 53  1  0  0  0
 49 64  1  0  0  0
 49124  1  0  0  0
 50 51  1  0  0  0
 50125  1  0  0  0
 50126  1  0  0  0
 51 52  1  0  0  0
 51127  1  0  0  0
 51128  1  0  0  0
 52129  1  0  0  0
 52130  1  0  0  0
 53 54  1  0  0  0
 54 55  2  0  0  0
 54131  1  0  0  0
 55 57  1  0  0  0
 55132  1  0  0  0
 56 69  2  0  0  0
 57 58  2  0  0  0
 57133  1  0  0  0
 58134  1  0  0  0
 59 60  1  0  0  0
 59 61  1  0  0  0
 59 62  1  0  0  0
 60135  1  0  0  0
 60136  1  0  0  0
 60137  1  0  0  0
 61138  1  0  0  0
 61139  1  0  0  0
 61140  1  0  0  0
 62141  1  0  0  0
 62142  1  0  0  0
 62143  1  0  0  0
 63 65  1  0  0  0
 63144  1  0  0  0
 63145  1  0  0  0
 63146  1  0  0  0
 64147  1  0  0  0
 65148  1  0  0  0
 68 86  1  0  0  0
 71 72  2  0  0  0
 71 73  1  0  0  0
 71149  1  0  0  0
 72 75  1  0  0  0
 72150  1  0  0  0
 73 76  2  0  0  0
 73151  1  0  0  0
 74 75  2  0  0  0
 74 76  1  0  0  0
 74152  1  0  0  0
 75 77  1  0  0  0
 76 82  1  0  0  0
 77 88  1  0  0  0
 77 89  2  0  0  0
 78 80  1  0  0  0
 78 82  1  0  0  0
 78153  1  0  0  0
 78154  1  0  0  0
 79 81  1  0  0  0
 79 82  1  0  0  0
 79155  1  0  0  0
 79156  1  0  0  0
 80 87  1  0  0  0
 80157  1  0  0  0
 80158  1  0  0  0
 81 87  1  0  0  0
 81159  1  0  0  0
 81160  1  0  0  0
 82161  1  0  0  0
 83 84  1  0  0  0
 83 85  1  0  0  0
 83162  1  0  0  0
 83163  1  0  0  0
 84 86  1  0  0  0
 84164  1  0  0  0
 84165  1  0  0  0
 85 88  1  0  0  0
 85166  1  0  0  0
 85167  1  0  0  0
 86168  1  0  0  0
 86169  1  0  0  0
 88170  1  0  0  0
M  ISO  4   1 100  68 101  86 101  87 100
M  END
> <chiral flag>
0

> <version>
0

> <s_m_source_file>
/data/baiqing/PycharmProjects/Reinvent-master-3.2/result/LINK_invent/BTK/process_docking_weight1_custom_product_contain_oxygen_bond_distance_aromatic_linkinvent_7_9_3/rearranged_h_0004.sdf

> <i_m_source_file_index>
3

> <r_mmod_Potential_Energy-OPLS-2005>
20412.623046875

> <r_mmod_Stretch_Energy-OPLS-2005>
12481.01953125

> <r_mmod_Bend_Energy-OPLS-2005>
1498.49633789062

> <r_mmod_Torsional_Energy-OPLS-2005>
613.043762207031

> <r_mmod_Improper_Torsional_Energy-OPLS-2005>
72.1030426025391

> <r_mmod_Van_der_Waal_Energy-OPLS-2005>
4777.7412109375

> <r_mmod_Electrostatic_Energy-OPLS-2005>
-315.702514648438

> <r_mmod_Solvation_Energy-OPLS-2005>
-229.432723999023

> <b_mmod_Minimization_Converged-OPLS-2005>
0

> <r_mmod_RMS_Derivative-OPLS-2005>
47.6183395385742

$$$$
3
                    3D
 Structure written by MMmdl.
169178  0  0  1  0            999 V2000
  -30.8726  -14.2178   20.8156 C   0  0  0  0  0  0
  -30.4185  -12.2942   19.3349 C   0  0  0  0  0  0
  -29.4727  -12.5955   18.1645 C   0  0  0  0  0  0
  -28.0049  -12.4270   18.5919 C   0  0  0  0  0  0
  -27.6785  -13.2138   19.8869 C   0  0  2  0  0  0
  -28.7293  -12.9452   20.9890 C   0  0  0  0  0  0
  -25.2661  -13.8157   20.5709 C   0  0  0  0  0  0
  -24.1908  -13.0444   20.9170 C   0  0  0  0  0  0
  -24.6459  -11.6900   20.8743 C   0  0  0  0  0  0
  -23.9084  -10.4311   21.0409 C   0  0  0  0  0  0
  -24.3629   -9.4219   21.9187 C   0  0  0  0  0  0
  -23.6315   -8.2246   22.0741 C   0  0  0  0  0  0
  -22.4294   -8.0286   21.3530 C   0  0  0  0  0  0
  -21.9924   -9.0256   20.4631 C   0  0  0  0  0  0
  -22.7250  -10.2142   20.3053 C   0  0  0  0  0  0
  -21.6863   -6.0742   22.5274 C   0  0  0  0  0  0
  -21.4022   -6.5633   23.8206 C   0  0  0  0  0  0
  -21.3669   -5.6781   24.9163 C   0  0  0  0  0  0
  -21.6044   -4.3042   24.7211 C   0  0  0  0  0  0
  -21.8819   -3.8139   23.4334 C   0  0  0  0  0  0
  -21.9198   -4.6968   22.3399 C   0  0  0  0  0  0
  -22.7914  -13.5241   21.1802 C   0  0  0  0  0  0
  -22.1669   -4.2164   21.0974 F   0  0  0  0  0  0
  -21.5636   -3.4513   25.7718 F   0  0  0  0  0  0
  -30.0867  -13.1778   20.4550 N   0  0  0  0  0  0
  -26.3162  -12.9370   20.3474 N   0  0  0  0  0  0
  -25.9419  -11.6515   20.5803 N   0  0  0  0  0  0
  -22.0515  -12.8283   22.0355 N   0  0  0  0  0  0
  -25.4338  -15.1889   20.4127 N   0  0  0  0  0  0
  -31.7083  -14.7552   20.0791 O   0  0  0  0  0  0
  -21.6655   -6.8886   21.4233 O   0  0  0  0  0  0
  -22.3613  -14.5547   20.6622 O   0  0  0  0  0  0
  -24.6114  -31.8701   23.2120 C   0  0  0  0  0  0
  -25.9009  -32.4830   23.8412 C   0  0  1  0  0  0
  -27.2254  -27.4670   20.0918 C   0  0  0  0  0  0
  -25.5883  -33.8629   24.2344 N   0  0  0  0  0  0
  -23.3950  -30.4926   21.5544 C   0  0  2  0  0  0
  -24.8389  -28.9605   20.1183 C   0  0  0  0  0  0
  -22.7365  -29.4666   22.5025 C   0  0  0  0  0  0
  -18.0263  -28.1374   22.8495 C   0  0  0  0  0  0
  -24.1505  -36.7288   23.2626 C   0  0  0  0  0  0
  -25.9186  -30.8469   21.3558 C   0  0  0  0  0  0
  -25.9962  -29.4836   20.7060 C   0  0  0  0  0  0
  -27.1978  -28.7453   20.6859 C   0  0  0  0  0  0
  -26.0528  -26.9450   19.5048 C   0  0  0  0  0  0
  -24.8581  -27.6885   19.5163 C   0  0  0  0  0  0
  -23.5982  -29.8226   20.1687 C   0  0  0  0  0  0
  -25.4133  -36.3120   24.0346 C   0  0  1  0  0  0
  -20.5846  -28.3637   23.1346 C   0  0  2  0  0  0
  -20.6760  -26.9377   22.5429 C   0  0  0  0  0  0
  -19.5744  -26.6396   21.5210 C   0  0  0  0  0  0
  -18.1924  -26.7937   22.1617 C   0  0  0  0  0  0
  -19.1514  -28.8830   23.2929 C   0  0  0  0  0  0
  -18.9448  -30.1449   23.8921 C   0  0  0  0  0  0
  -17.6451  -30.6583   24.0574 C   0  0  0  0  0  0
  -25.9046  -34.9466   23.5142 C   0  0  0  0  0  0
  -16.5336  -29.9085   23.6328 C   0  0  0  0  0  0
  -16.7259  -28.6508   23.0331 C   0  0  0  0  0  0
  -26.4433  -31.6564   25.0714 C   0  0  0  0  0  0
  -25.3705  -31.3635   26.1458 C   0  0  0  0  0  0
  -27.0264  -30.3029   24.5990 C   0  0  0  0  0  0
  -27.6041  -32.4247   25.7479 C   0  0  0  0  0  0
  -27.5612  -37.1823   24.8453 C   0  0  0  0  0  0
  -21.4098  -29.3026   22.3770 N   0  0  0  0  0  0
  -26.4336  -37.3802   23.9380 N   0  0  0  0  0  0
  -24.6602  -31.0842   22.1000 N   0  0  0  0  0  0
  -23.4169  -28.8216   23.3048 O   0  0  0  0  0  0
  -28.3987  -26.7587   20.0654 O   0  0  0  0  0  0
  -26.5612  -34.8882   22.4702 O   0  0  0  0  0  0
  -23.5321  -32.1423   23.7545 O   0  0  0  0  0  0
  -29.6156  -17.0538   24.3176 C   0  0  0  0  0  0
  -32.0052  -17.4130   23.9891 C   0  0  0  0  0  0
  -29.6722  -15.9293   23.4746 C   0  0  0  0  0  0
  -32.0600  -16.2947   23.1276 C   0  0  0  0  0  0
  -30.7851  -17.7929   24.5895 C   0  0  0  0  0  0
  -30.8872  -15.5519   22.8727 C   0  0  0  0  0  0
  -30.9692  -24.0909   23.2103 C   0  0  0  0  0  0
  -28.7672  -22.5703   24.2784 C   0  0  0  0  0  0
  -30.1533  -22.5930   24.9615 C   0  0  1  0  0  0
  -29.5816  -24.0974   22.5203 C   0  0  2  0  0  0
  -30.7308  -18.9670   25.5506 C   0  0  0  0  0  0
  -30.4714  -21.3068   25.7470 C   0  0  0  0  0  0
  -29.3888  -25.4473   21.7873 C   0  0  0  0  0  0
  -28.3510  -25.4596   20.6557 C   0  0  0  0  0  0
  -31.2032  -22.8544   23.9664 N   0  0  0  0  0  0
  -30.9092  -14.3429   22.1472 N   0  0  0  0  0  0
  -28.5306  -23.8342   23.5383 N   0  3  0  0  0  0
  -30.4360  -20.1814   24.8777 O   0  0  0  0  0  0
  -31.4583  -12.4054   19.0195 H   0  0  0  0  0  0
  -30.3095  -11.2570   19.6537 H   0  0  0  0  0  0
  -29.6956  -11.9427   17.3194 H   0  0  0  0  0  0
  -29.6432  -13.6174   17.8169 H   0  0  0  0  0  0
  -27.8040  -11.3649   18.7328 H   0  0  0  0  0  0
  -27.3448  -12.7514   17.7860 H   0  0  0  0  0  0
  -27.7367  -14.2748   19.6399 H   0  0  0  0  0  0
  -28.6623  -11.9191   21.3513 H   0  0  0  0  0  0
  -28.5050  -13.5794   21.8471 H   0  0  0  0  0  0
  -25.2766   -9.5706   22.4765 H   0  0  0  0  0  0
  -24.0016   -7.4647   22.7472 H   0  0  0  0  0  0
  -21.0837   -8.8783   19.8962 H   0  0  0  0  0  0
  -22.3693  -10.9686   19.6174 H   0  0  0  0  0  0
  -21.2005   -7.6140   23.9714 H   0  0  0  0  0  0
  -21.1501   -6.0510   25.9074 H   0  0  0  0  0  0
  -22.0594   -2.7606   23.2822 H   0  0  0  0  0  0
  -22.4085  -11.9973   22.4843 H   0  0  0  0  0  0
  -21.1114  -13.1327   22.2445 H   0  0  0  0  0  0
  -24.6629  -15.8383   20.5229 H   0  0  0  0  0  0
  -26.2891  -15.6391   20.1131 H   0  0  0  0  0  0
  -26.7086  -32.5543   23.1188 H   0  0  0  0  0  0
  -25.0046  -33.9804   25.0495 H   0  0  0  0  0  0
  -22.6846  -31.3110   21.4223 H   0  0  0  0  0  0
  -23.3782  -35.9619   23.3302 H   0  0  0  0  0  0
  -24.3587  -36.8876   22.2031 H   0  0  0  0  0  0
  -23.7217  -37.6490   23.6603 H   0  0  0  0  0  0
  -26.0220  -31.6107   20.5843 H   0  0  0  0  0  0
  -26.8095  -30.9048   21.9678 H   0  0  0  0  0  0
  -28.0960  -29.1501   21.1311 H   0  0  0  0  0  0
  -26.0574  -25.9738   19.0258 H   0  0  0  0  0  0
  -23.9650  -27.2791   19.0634 H   0  0  0  0  0  0
  -23.6993  -30.5953   19.4061 H   0  0  0  0  0  0
  -22.7229  -29.2398   19.8788 H   0  0  0  0  0  0
  -25.1309  -36.2039   25.0857 H   0  0  0  0  0  0
  -20.9963  -28.3163   24.1449 H   0  0  0  0  0  0
  -20.5665  -26.2205   23.3578 H   0  0  0  0  0  0
  -21.6632  -26.7448   22.1208 H   0  0  0  0  0  0
  -19.6886  -25.6321   21.1204 H   0  0  0  0  0  0
  -19.6691  -27.3235   20.6766 H   0  0  0  0  0  0
  -17.4201  -26.6679   21.4015 H   0  0  0  0  0  0
  -18.0329  -26.0085   22.9023 H   0  0  0  0  0  0
  -19.7931  -30.7260   24.2289 H   0  0  0  0  0  0
  -17.5006  -31.6269   24.5160 H   0  0  0  0  0  0
  -15.5339  -30.2991   23.7655 H   0  0  0  0  0  0
  -15.8651  -28.0840   22.7018 H   0  0  0  0  0  0
  -24.5904  -30.6929   25.7807 H   0  0  0  0  0  0
  -24.8830  -32.2795   26.4821 H   0  0  0  0  0  0
  -25.8100  -30.8867   27.0240 H   0  0  0  0  0  0
  -26.2745  -29.6748   24.1172 H   0  0  0  0  0  0
  -27.4254  -29.7271   25.4349 H   0  0  0  0  0  0
  -27.8465  -30.4417   23.8950 H   0  0  0  0  0  0
  -27.2681  -33.3496   26.2189 H   0  0  0  0  0  0
  -28.3807  -32.6876   25.0307 H   0  0  0  0  0  0
  -28.0767  -31.8250   26.5277 H   0  0  0  0  0  0
  -28.2642  -38.0115   24.7526 H   0  0  0  0  0  0
  -28.1113  -36.2654   24.6294 H   0  0  0  0  0  0
  -27.2309  -37.1467   25.8848 H   0  0  0  0  0  0
  -20.9232  -29.8713   21.6971 H   0  0  0  0  0  0
  -26.0228  -38.2895   24.1348 H   0  0  0  0  0  0
  -28.6769  -17.3274   24.7769 H   0  0  0  0  0  0
  -32.9080  -17.9635   24.2188 H   0  0  0  0  0  0
  -28.7723  -15.3541   23.3071 H   0  0  0  0  0  0
  -33.0070  -15.9908   22.7040 H   0  0  0  0  0  0
  -31.0586  -24.9594   23.8666 H   0  0  0  0  0  0
  -31.7514  -24.2070   22.4579 H   0  0  0  0  0  0
  -27.9808  -22.4206   25.0212 H   0  0  0  0  0  0
  -28.6976  -21.7273   23.5900 H   0  0  0  0  0  0
  -30.1493  -23.4066   25.6916 H   0  0  0  0  0  0
  -29.5592  -23.2916   21.7825 H   0  0  0  0  0  0
  -31.6861  -19.0429   26.0748 H   0  0  0  0  0  0
  -29.9700  -18.7730   26.3082 H   0  0  0  0  0  0
  -29.7525  -21.1750   26.5583 H   0  0  0  0  0  0
  -31.4593  -21.3921   26.2039 H   0  0  0  0  0  0
  -30.3414  -25.7205   21.3313 H   0  0  0  0  0  0
  -29.1721  -26.2421   22.4988 H   0  0  0  0  0  0
  -27.3620  -25.2005   21.0394 H   0  0  0  0  0  0
  -28.6098  -24.7242   19.8947 H   0  0  0  0  0  0
  -32.1079  -22.9010   24.4380 H   0  0  0  0  0  0
  -30.3937  -13.5944   22.5857 H   0  0  0  0  0  0
  -28.5138  -24.5897   24.2058 H   0  0  0  0  0  0
  -27.6224  -23.7790   23.1077 H   0  0  0  0  0  0
  1 25  1  0  0  0
  1 30  2  0  0  0
  1 86  1  0  0  0
  2  3  1  0  0  0
  2 25  1  0  0  0
  2 89  1  0  0  0
  2 90  1  0  0  0
  3  4  1  0  0  0
  3 91  1  0  0  0
  3 92  1  0  0  0
  4  5  1  0  0  0
  4 93  1  0  0  0
  4 94  1  0  0  0
  5  6  1  0  0  0
  5 26  1  0  0  0
  5 95  1  0  0  0
  6 25  1  0  0  0
  6 96  1  0  0  0
  6 97  1  0  0  0
  7  8  2  0  0  0
  7 26  1  0  0  0
  7 29  1  0  0  0
  8  9  1  0  0  0
  8 22  1  0  0  0
  9 10  1  0  0  0
  9 27  2  0  0  0
 10 11  2  0  0  0
 10 15  1  0  0  0
 11 12  1  0  0  0
 11 98  1  0  0  0
 12 13  2  0  0  0
 12 99  1  0  0  0
 13 14  1  0  0  0
 13 31  1  0  0  0
 14 15  2  0  0  0
 14100  1  0  0  0
 15101  1  0  0  0
 16 17  2  0  0  0
 16 21  1  0  0  0
 16 31  1  0  0  0
 17 18  1  0  0  0
 17102  1  0  0  0
 18 19  2  0  0  0
 18103  1  0  0  0
 19 20  1  0  0  0
 19 24  1  0  0  0
 20 21  2  0  0  0
 20104  1  0  0  0
 21 23  1  0  0  0
 22 28  1  0  0  0
 22 32  2  0  0  0
 26 27  1  0  0  0
 28105  1  0  0  0
 28106  1  0  0  0
 29107  1  0  0  0
 29108  1  0  0  0
 33 34  1  0  0  0
 33 66  1  0  0  0
 33 70  2  0  0  0
 34 36  1  0  0  0
 34 59  1  0  0  0
 34109  1  0  0  0
 35 44  2  0  0  0
 35 45  1  0  0  0
 35 68  1  0  0  0
 36 56  1  0  0  0
 36110  1  0  0  0
 37 39  1  0  0  0
 37 47  1  0  0  0
 37 66  1  0  0  0
 37111  1  0  0  0
 38 43  2  0  0  0
 38 46  1  0  0  0
 38 47  1  0  0  0
 39 64  1  0  0  0
 39 67  2  0  0  0
 40 52  1  0  0  0
 40 53  2  0  0  0
 40 58  1  0  0  0
 41112  1  0  0  0
 41113  1  0  0  0
 41114  1  0  0  0
 41 48  1  0  0  0
 42 43  1  0  0  0
 42 66  1  0  0  0
 42115  1  0  0  0
 42116  1  0  0  0
 43 44  1  0  0  0
 44117  1  0  0  0
 45 46  2  0  0  0
 45118  1  0  0  0
 46119  1  0  0  0
 47120  1  0  0  0
 47121  1  0  0  0
 48 56  1  0  0  0
 48 65  1  0  0  0
 48122  1  0  0  0
 49 50  1  0  0  0
 49 53  1  0  0  0
 49 64  1  0  0  0
 49123  1  0  0  0
 50 51  1  0  0  0
 50124  1  0  0  0
 50125  1  0  0  0
 51 52  1  0  0  0
 51126  1  0  0  0
 51127  1  0  0  0
 52128  1  0  0  0
 52129  1  0  0  0
 53 54  1  0  0  0
 54 55  2  0  0  0
 54130  1  0  0  0
 55 57  1  0  0  0
 55131  1  0  0  0
 56 69  2  0  0  0
 57 58  2  0  0  0
 57132  1  0  0  0
 58133  1  0  0  0
 59 60  1  0  0  0
 59 61  1  0  0  0
 59 62  1  0  0  0
 60134  1  0  0  0
 60135  1  0  0  0
 60136  1  0  0  0
 61137  1  0  0  0
 61138  1  0  0  0
 61139  1  0  0  0
 62140  1  0  0  0
 62141  1  0  0  0
 62142  1  0  0  0
 63 65  1  0  0  0
 63143  1  0  0  0
 63144  1  0  0  0
 63145  1  0  0  0
 64146  1  0  0  0
 65147  1  0  0  0
 68 84  1  0  0  0
 71 73  2  0  0  0
 71 75  1  0  0  0
 71148  1  0  0  0
 72 74  1  0  0  0
 72 75  2  0  0  0
 72149  1  0  0  0
 73 76  1  0  0  0
 73150  1  0  0  0
 74 76  2  0  0  0
 74151  1  0  0  0
 75 81  1  0  0  0
 76 86  1  0  0  0
 77 80  1  0  0  0
 77 85  1  0  0  0
 77152  1  0  0  0
 77153  1  0  0  0
 78 79  1  0  0  0
 78 87  1  0  0  0
 78154  1  0  0  0
 78155  1  0  0  0
 79 82  1  0  0  0
 79 85  1  0  0  0
 79156  1  0  0  0
 80 83  1  0  0  0
 80 87  1  0  0  0
 80157  1  0  0  0
 81 88  1  0  0  0
 81158  1  0  0  0
 81159  1  0  0  0
 82 88  1  0  0  0
 82160  1  0  0  0
 82161  1  0  0  0
 83 84  1  0  0  0
 83162  1  0  0  0
 83163  1  0  0  0
 84164  1  0  0  0
 84165  1  0  0  0
 85166  1  0  0  0
 86167  1  0  0  0
 87168  1  0  0  0
 87169  1  0  0  0
M  CHG  1  87   1
M  ISO  4   1 100  68 101  84 101  86 100
M  END
> <chiral flag>
0

> <version>
0

> <s_m_source_file>
/data/baiqing/PycharmProjects/Reinvent-master-3.2/result/LINK_invent/BTK/process_docking_weight1_custom_product_contain_oxygen_bond_distance_aromatic_linkinvent_7_9_3/rearranged_h_0004.sdf

> <i_m_source_file_index>
4

> <r_mmod_Potential_Energy-OPLS-2005>
-152.277740478516

> <r_mmod_Stretch_Energy-OPLS-2005>
33.0856170654297

> <r_mmod_Bend_Energy-OPLS-2005>
90.9249038696289

> <r_mmod_Torsional_Energy-OPLS-2005>
288.849884033203

> <r_mmod_Improper_Torsional_Energy-OPLS-2005>
12.4778861999512

> <r_mmod_Van_der_Waal_Energy-OPLS-2005>
149.902130126953

> <r_mmod_Electrostatic_Energy-OPLS-2005>
-280.175567626953

> <r_mmod_Solvation_Energy-OPLS-2005>
-461.952972412109

> <b_mmod_Minimization_Converged-OPLS-2005>
0

> <r_mmod_RMS_Derivative-OPLS-2005>
4.25582551956177

$$$$
4
                    3D
 Structure written by MMmdl.
163172  0  0  1  0            999 V2000
  -30.6297  -14.5572   20.5631 C   0  0  0  0  0  0
  -30.3490  -12.3067   19.5342 C   0  0  0  0  0  0
  -29.4629  -12.3865   18.2706 C   0  0  0  0  0  0
  -28.0015  -12.2216   18.7005 C   0  0  0  0  0  0
  -27.6193  -13.1852   19.8613 C   0  0  2  0  0  0
  -28.6280  -13.0952   21.0361 C   0  0  0  0  0  0
  -25.2384  -13.8156   20.5638 C   0  0  0  0  0  0
  -24.1699  -13.0435   20.9278 C   0  0  0  0  0  0
  -24.6198  -11.6878   20.8919 C   0  0  0  0  0  0
  -23.8898  -10.4258   21.0488 C   0  0  0  0  0  0
  -24.3485   -9.4181   21.9209 C   0  0  0  0  0  0
  -23.6191   -8.2213   22.0761 C   0  0  0  0  0  0
  -22.4204   -8.0242   21.3543 C   0  0  0  0  0  0
  -21.9829   -9.0211   20.4652 C   0  0  0  0  0  0
  -22.7130  -10.2103   20.3079 C   0  0  0  0  0  0
  -21.6820   -6.0694   22.5291 C   0  0  0  0  0  0
  -21.3981   -6.5616   23.8218 C   0  0  0  0  0  0
  -21.3668   -5.6781   24.9184 C   0  0  0  0  0  0
  -21.6043   -4.3047   24.7238 C   0  0  0  0  0  0
  -21.8827   -3.8125   23.4371 C   0  0  0  0  0  0
  -21.9174   -4.6923   22.3412 C   0  0  0  0  0  0
  -22.7755  -13.5286   21.1855 C   0  0  0  0  0  0
  -22.1656   -4.2122   21.0981 F   0  0  0  0  0  0
  -21.5641   -3.4538   25.7746 F   0  0  0  0  0  0
  -29.9314  -13.3877   20.4661 N   0  0  0  0  0  0
  -26.2639  -12.9262   20.3217 N   0  0  0  0  0  0
  -25.9061  -11.6510   20.5917 N   0  0  0  0  0  0
  -22.0342  -12.8309   22.0408 N   0  0  0  0  0  0
  -25.4440  -15.1821   20.4135 N   0  0  0  0  0  0
  -31.7849  -14.5480   20.1088 O   0  0  0  0  0  0
  -21.6633   -6.8821   21.4246 O   0  0  0  0  0  0
  -22.3435  -14.5593   20.6700 O   0  0  0  0  0  0
  -24.6492  -31.8564   23.2097 C   0  0  0  0  0  0
  -25.9218  -32.4832   23.8549 C   0  0  1  0  0  0
  -27.1840  -27.2735   20.0527 C   0  0  0  0  0  0
  -25.6031  -33.8577   24.2551 N   0  0  0  0  0  0
  -23.4323  -30.4955   21.5585 C   0  0  2  0  0  0
  -24.8834  -28.9780   20.0562 C   0  0  0  0  0  0
  -22.7564  -29.4532   22.4874 C   0  0  0  0  0  0
  -18.0285  -28.1437   22.8458 C   0  0  0  0  0  0
  -24.1467  -36.7560   23.2620 C   0  0  0  0  0  0
  -25.9804  -30.7587   21.3602 C   0  0  0  0  0  0
  -26.0326  -29.3812   20.7359 C   0  0  0  0  0  0
  -27.1680  -28.5058   20.7716 C   0  0  0  0  0  0
  -26.0689  -27.0506   19.1991 C   0  0  0  0  0  0
  -24.9124  -27.8300   19.2790 C   0  0  0  0  0  0
  -23.6336  -29.8431   20.1535 C   0  0  0  0  0  0
  -25.4011  -36.3194   24.0388 C   0  0  1  0  0  0
  -20.5920  -28.3691   23.1208 C   0  0  2  0  0  0
  -20.6803  -26.9409   22.5296 C   0  0  0  0  0  0
  -19.5737  -26.6441   21.5132 C   0  0  0  0  0  0
  -18.1969  -26.7947   22.1639 C   0  0  0  0  0  0
  -19.1569  -28.8849   23.2900 C   0  0  0  0  0  0
  -18.9472  -30.1458   23.8930 C   0  0  0  0  0  0
  -17.6466  -30.6557   24.0573 C   0  0  0  0  0  0
  -25.8919  -34.9530   23.5264 C   0  0  0  0  0  0
  -16.5347  -29.9096   23.6339 C   0  0  0  0  0  0
  -16.7298  -28.6572   23.0285 C   0  0  0  0  0  0
  -26.4553  -31.6615   25.0990 C   0  0  0  0  0  0
  -25.3906  -31.3613   26.1903 C   0  0  0  0  0  0
  -27.0286  -30.3086   24.6225 C   0  0  0  0  0  0
  -27.6245  -32.4244   25.7715 C   0  0  0  0  0  0
  -27.5615  -37.1915   24.8453 C   0  0  0  0  0  0
  -21.4248  -29.3129   22.3796 N   0  0  0  0  0  0
  -26.4271  -37.3872   23.9438 N   0  0  0  0  0  0
  -24.7109  -31.0509   22.1088 N   0  0  0  0  0  0
  -23.4233  -28.7520   23.2590 O   0  0  0  0  0  0
  -28.0840  -26.1778   20.2103 O   0  0  0  0  0  0
  -26.5418  -34.9026   22.4796 O   0  0  0  0  0  0
  -23.5684  -32.1388   23.7465 O   0  0  0  0  0  0
  -30.0439  -20.7746   21.4303 C   0  0  0  0  0  0
  -30.1000  -19.6341   20.6673 C   0  0  0  0  0  0
  -28.8748  -21.0535   22.1192 C   0  0  0  0  0  0
  -27.9127  -18.9424   21.2078 C   0  0  0  0  0  0
  -29.2352  -18.4899   20.7941 C   0  0  0  0  0  0
  -27.7666  -20.3105   21.7288 C   0  0  0  0  0  0
  -31.8849  -17.3187   21.4456 C   0  0  0  0  0  0
  -31.2994  -17.3103   20.0009 C   0  0  0  0  0  0
  -31.1245  -16.1607   22.1507 C   0  0  0  0  0  0
  -29.8237  -17.0067   20.3215 C   0  0  1  0  0  0
  -26.5233  -21.2173   21.8205 C   0  0  0  0  0  0
  -27.7601  -23.3525   20.5225 C   0  0  0  0  0  0
  -27.3200  -24.8623   20.2226 C   0  0  0  0  0  0
  -30.1128  -15.7232   21.1670 N   0  0  0  0  0  0
  -26.5788  -22.5966   21.1580 N   0  3  0  0  0  0
  -31.4065  -12.2967   19.2844 H   0  0  0  0  0  0
  -30.1972  -11.3318   20.0074 H   0  0  0  0  0  0
  -29.7222  -11.5952   17.5620 H   0  0  0  0  0  0
  -29.6085  -13.3256   17.7395 H   0  0  0  0  0  0
  -27.9085  -11.2011   19.0513 H   0  0  0  0  0  0
  -27.3097  -12.2904   17.8666 H   0  0  0  0  0  0
  -27.6343  -14.2009   19.4481 H   0  0  0  0  0  0
  -28.6098  -12.0886   21.4930 H   0  0  0  0  0  0
  -28.3584  -13.8092   21.8310 H   0  0  0  0  0  0
  -25.2613   -9.5700   22.4821 H   0  0  0  0  0  0
  -23.9950   -7.4587   22.7482 H   0  0  0  0  0  0
  -21.0775   -8.8662   19.8921 H   0  0  0  0  0  0
  -22.3542  -10.9630   19.6204 H   0  0  0  0  0  0
  -21.1969   -7.6125   23.9707 H   0  0  0  0  0  0
  -21.1492   -6.0515   25.9083 H   0  0  0  0  0  0
  -22.0598   -2.7591   23.2871 H   0  0  0  0  0  0
  -22.3955  -11.9901   22.4790 H   0  0  0  0  0  0
  -21.0920  -13.1408   22.2682 H   0  0  0  0  0  0
  -24.7106  -15.8695   20.5275 H   0  0  0  0  0  0
  -26.3166  -15.5873   20.1100 H   0  0  0  0  0  0
  -26.7363  -32.5389   23.1419 H   0  0  0  0  0  0
  -25.0491  -33.9510   25.0959 H   0  0  0  0  0  0
  -22.7391  -31.3460   21.4401 H   0  0  0  0  0  0
  -23.3664  -35.9959   23.3068 H   0  0  0  0  0  0
  -24.3747  -36.9343   22.2106 H   0  0  0  0  0  0
  -23.7205  -37.6767   23.6640 H   0  0  0  0  0  0
  -26.0099  -31.3715   20.4590 H   0  0  0  0  0  0
  -26.9124  -30.9295   21.8839 H   0  0  0  0  0  0
  -27.9929  -28.8224   21.3997 H   0  0  0  0  0  0
  -26.1100  -26.3261   18.3874 H   0  0  0  0  0  0
  -24.0951  -27.6830   18.5816 H   0  0  0  0  0  0
  -23.7136  -30.6436   19.4252 H   0  0  0  0  0  0
  -22.7393  -29.2684   19.8631 H   0  0  0  0  0  0
  -25.1075  -36.2178   25.0850 H   0  0  0  0  0  0
  -21.0169  -28.3225   24.1248 H   0  0  0  0  0  0
  -20.5769  -26.2227   23.3488 H   0  0  0  0  0  0
  -21.6680  -26.7463   22.1045 H   0  0  0  0  0  0
  -19.6892  -25.6385   21.1122 H   0  0  0  0  0  0
  -19.6637  -27.3325   20.6734 H   0  0  0  0  0  0
  -17.4205  -26.6675   21.4094 H   0  0  0  0  0  0
  -18.0428  -26.0122   22.9086 H   0  0  0  0  0  0
  -19.7913  -30.7293   24.2409 H   0  0  0  0  0  0
  -17.4927  -31.6198   24.5213 H   0  0  0  0  0  0
  -15.5356  -30.2948   23.7533 H   0  0  0  0  0  0
  -15.8749  -28.0856   22.6919 H   0  0  0  0  0  0
  -24.6046  -30.6958   25.8347 H   0  0  0  0  0  0
  -24.9263  -32.2717   26.5716 H   0  0  0  0  0  0
  -25.8569  -30.8645   27.0438 H   0  0  0  0  0  0
  -26.2668  -29.7046   24.1351 H   0  0  0  0  0  0
  -27.4214  -29.7149   25.4479 H   0  0  0  0  0  0
  -27.8495  -30.4653   23.9252 H   0  0  0  0  0  0
  -27.2997  -33.3504   26.2490 H   0  0  0  0  0  0
  -28.4056  -32.6824   25.0537 H   0  0  0  0  0  0
  -28.0955  -31.8209   26.5491 H   0  0  0  0  0  0
  -28.2530  -38.0322   24.7584 H   0  0  0  0  0  0
  -28.1184  -36.2854   24.6024 H   0  0  0  0  0  0
  -27.2428  -37.1359   25.8893 H   0  0  0  0  0  0
  -20.9414  -29.9185   21.7295 H   0  0  0  0  0  0
  -26.0220  -38.2990   24.1395 H   0  0  0  0  0  0
  -30.8885  -21.4321   21.4897 H   0  0  0  0  0  0
  -31.0837  -19.7260   20.2335 H   0  0  0  0  0  0
  -28.8262  -21.9848   22.6795 H   0  0  0  0  0  0
  -27.0726  -18.2968   20.9996 H   0  0  0  0  0  0
  -31.5592  -18.1931   22.0355 H   0  0  0  0  0  0
  -32.9721  -17.2671   21.4946 H   0  0  0  0  0  0
  -31.7992  -16.6118   19.3274 H   0  0  0  0  0  0
  -31.4643  -18.1189   19.2873 H   0  0  0  0  0  0
  -30.6189  -16.4686   23.0630 H   0  0  0  0  0  0
  -31.8234  -15.3653   22.4624 H   0  0  0  0  0  0
  -29.1701  -16.6964   19.5042 H   0  0  0  0  0  0
  -26.4053  -21.4270   22.8849 H   0  0  0  0  0  0
  -25.6098  -20.6706   21.5603 H   0  0  0  0  0  0
  -28.7097  -23.3524   21.0736 H   0  0  0  0  0  0
  -28.0172  -22.8349   19.5779 H   0  0  0  0  0  0
  -26.5260  -25.0784   20.9226 H   0  0  0  0  0  0
  -26.8530  -24.6895   19.2635 H   0  0  0  0  0  0
  -26.2346  -23.2317   21.9026 H   0  0  0  0  0  0
  -25.8600  -22.5732   20.4546 H   0  0  0  0  0  0
  1 25  1  0  0  0
  1 30  2  0  0  0
  1 84  1  0  0  0
  2  3  1  0  0  0
  2 25  1  0  0  0
  2 86  1  0  0  0
  2 87  1  0  0  0
  3  4  1  0  0  0
  3 88  1  0  0  0
  3 89  1  0  0  0
  4  5  1  0  0  0
  4 90  1  0  0  0
  4 91  1  0  0  0
  5  6  1  0  0  0
  5 26  1  0  0  0
  5 92  1  0  0  0
  6 25  1  0  0  0
  6 93  1  0  0  0
  6 94  1  0  0  0
  7  8  2  0  0  0
  7 26  1  0  0  0
  7 29  1  0  0  0
  8  9  1  0  0  0
  8 22  1  0  0  0
  9 10  1  0  0  0
  9 27  2  0  0  0
 10 11  2  0  0  0
 10 15  1  0  0  0
 11 12  1  0  0  0
 11 95  1  0  0  0
 12 13  2  0  0  0
 12 96  1  0  0  0
 13 14  1  0  0  0
 13 31  1  0  0  0
 14 15  2  0  0  0
 14 97  1  0  0  0
 15 98  1  0  0  0
 16 17  2  0  0  0
 16 21  1  0  0  0
 16 31  1  0  0  0
 17 18  1  0  0  0
 17 99  1  0  0  0
 18 19  2  0  0  0
 18100  1  0  0  0
 19 20  1  0  0  0
 19 24  1  0  0  0
 20 21  2  0  0  0
 20101  1  0  0  0
 21 23  1  0  0  0
 22 28  1  0  0  0
 22 32  2  0  0  0
 26 27  1  0  0  0
 28102  1  0  0  0
 28103  1  0  0  0
 29104  1  0  0  0
 29105  1  0  0  0
 33 34  1  0  0  0
 33 66  1  0  0  0
 33 70  2  0  0  0
 34 36  1  0  0  0
 34 59  1  0  0  0
 34106  1  0  0  0
 35 44  2  0  0  0
 35 45  1  0  0  0
 35 68  1  0  0  0
 36 56  1  0  0  0
 36107  1  0  0  0
 37 39  1  0  0  0
 37 47  1  0  0  0
 37 66  1  0  0  0
 37108  1  0  0  0
 38 43  2  0  0  0
 38 46  1  0  0  0
 38 47  1  0  0  0
 39 64  1  0  0  0
 39 67  2  0  0  0
 40 52  1  0  0  0
 40 53  2  0  0  0
 40 58  1  0  0  0
 41109  1  0  0  0
 41110  1  0  0  0
 41111  1  0  0  0
 41 48  1  0  0  0
 42 43  1  0  0  0
 42 66  1  0  0  0
 42112  1  0  0  0
 42113  1  0  0  0
 43 44  1  0  0  0
 44114  1  0  0  0
 45 46  2  0  0  0
 45115  1  0  0  0
 46116  1  0  0  0
 47117  1  0  0  0
 47118  1  0  0  0
 48 56  1  0  0  0
 48 65  1  0  0  0
 48119  1  0  0  0
 49 50  1  0  0  0
 49 53  1  0  0  0
 49 64  1  0  0  0
 49120  1  0  0  0
 50 51  1  0  0  0
 50121  1  0  0  0
 50122  1  0  0  0
 51 52  1  0  0  0
 51123  1  0  0  0
 51124  1  0  0  0
 52125  1  0  0  0
 52126  1  0  0  0
 53 54  1  0  0  0
 54 55  2  0  0  0
 54127  1  0  0  0
 55 57  1  0  0  0
 55128  1  0  0  0
 56 69  2  0  0  0
 57 58  2  0  0  0
 57129  1  0  0  0
 58130  1  0  0  0
 59 60  1  0  0  0
 59 61  1  0  0  0
 59 62  1  0  0  0
 60131  1  0  0  0
 60132  1  0  0  0
 60133  1  0  0  0
 61134  1  0  0  0
 61135  1  0  0  0
 61136  1  0  0  0
 62137  1  0  0  0
 62138  1  0  0  0
 62139  1  0  0  0
 63 65  1  0  0  0
 63140  1  0  0  0
 63141  1  0  0  0
 63142  1  0  0  0
 64143  1  0  0  0
 65144  1  0  0  0
 68 83  1  0  0  0
 71 72  2  0  0  0
 71 73  1  0  0  0
 71145  1  0  0  0
 72 75  1  0  0  0
 72146  1  0  0  0
 73 76  2  0  0  0
 73147  1  0  0  0
 74 75  2  0  0  0
 74 76  1  0  0  0
 74148  1  0  0  0
 75 80  1  0  0  0
 76 81  1  0  0  0
 77 78  1  0  0  0
 77 79  1  0  0  0
 77149  1  0  0  0
 77150  1  0  0  0
 78 80  1  0  0  0
 78151  1  0  0  0
 78152  1  0  0  0
 79 84  1  0  0  0
 79153  1  0  0  0
 79154  1  0  0  0
 80 84  1  0  0  0
 80155  1  0  0  0
 81 85  1  0  0  0
 81156  1  0  0  0
 81157  1  0  0  0
 82 83  1  0  0  0
 82 85  1  0  0  0
 82158  1  0  0  0
 82159  1  0  0  0
 83160  1  0  0  0
 83161  1  0  0  0
 85162  1  0  0  0
 85163  1  0  0  0
M  CHG  1  85   1
M  ISO  4   1 100  68 101  83 101  84 100
M  END
> <chiral flag>
0

> <version>
0

> <s_m_source_file>
/data/baiqing/PycharmProjects/Reinvent-master-3.2/result/LINK_invent/BTK/process_docking_weight1_custom_product_contain_oxygen_bond_distance_aromatic_linkinvent_7_9_3/rearranged_h_0004.sdf

> <i_m_source_file_index>
5

> <r_mmod_Potential_Energy-OPLS-2005>
779.441162109375

> <r_mmod_Stretch_Energy-OPLS-2005>
174.149566650391

> <r_mmod_Bend_Energy-OPLS-2005>
436.344146728516

> <r_mmod_Torsional_Energy-OPLS-2005>
433.164947509766

> <r_mmod_Improper_Torsional_Energy-OPLS-2005>
12.5768661499023

> <r_mmod_Van_der_Waal_Energy-OPLS-2005>
252.912872314453

> <r_mmod_Electrostatic_Energy-OPLS-2005>
-201.223892211914

> <r_mmod_Solvation_Energy-OPLS-2005>
-443.194732666016

> <b_mmod_Minimization_Converged-OPLS-2005>
0

> <r_mmod_RMS_Derivative-OPLS-2005>
41.442268371582

$$$$
5
                    3D
 Structure written by MMmdl.
156165  0  0  1  0            999 V2000
  -30.6722  -14.6310   20.5064 C   0  0  0  0  0  0
  -30.4226  -12.3943   19.4520 C   0  0  0  0  0  0
  -29.4990  -12.4936   18.2207 C   0  0  0  0  0  0
  -28.0240  -12.3366   18.6381 C   0  0  0  0  0  0
  -27.6447  -13.2246   19.8544 C   0  0  2  0  0  0
  -28.6907  -13.1208   20.9855 C   0  0  0  0  0  0
  -25.2513  -13.8188   20.5684 C   0  0  0  0  0  0
  -24.1801  -13.0437   20.9201 C   0  0  0  0  0  0
  -24.6381  -11.6914   20.8753 C   0  0  0  0  0  0
  -23.9063  -10.4296   21.0428 C   0  0  0  0  0  0
  -24.3614   -9.4207   21.9195 C   0  0  0  0  0  0
  -23.6287   -8.2246   22.0759 C   0  0  0  0  0  0
  -22.4266   -8.0288   21.3554 C   0  0  0  0  0  0
  -21.9907   -9.0264   20.4660 C   0  0  0  0  0  0
  -22.7238  -10.2140   20.3075 C   0  0  0  0  0  0
  -21.6854   -6.0737   22.5282 C   0  0  0  0  0  0
  -21.4015   -6.5643   23.8214 C   0  0  0  0  0  0
  -21.3657   -5.6795   24.9180 C   0  0  0  0  0  0
  -21.6048   -4.3059   24.7225 C   0  0  0  0  0  0
  -21.8817   -3.8149   23.4347 C   0  0  0  0  0  0
  -21.9188   -4.6965   22.3406 C   0  0  0  0  0  0
  -22.7824  -13.5230   21.1868 C   0  0  0  0  0  0
  -22.1660   -4.2151   21.0981 F   0  0  0  0  0  0
  -21.5627   -3.4540   25.7741 F   0  0  0  0  0  0
  -30.0009  -13.4419   20.4039 N   0  0  0  0  0  0
  -26.2938  -12.9386   20.3295 N   0  0  0  0  0  0
  -25.9309  -11.6531   20.5766 N   0  0  0  0  0  0
  -22.0468  -12.8225   22.0428 N   0  0  0  0  0  0
  -25.4199  -15.1915   20.4106 N   0  0  0  0  0  0
  -31.8524  -14.7190   20.1620 O   0  0  0  0  0  0
  -21.6636   -6.8877   21.4248 O   0  0  0  0  0  0
  -22.3517  -14.5543   20.6716 O   0  0  0  0  0  0
  -24.6249  -31.8617   23.2039 C   0  0  0  0  0  0
  -25.9089  -32.4797   23.8369 C   0  0  1  0  0  0
  -27.2214  -27.3181   20.1103 C   0  0  0  0  0  0
  -25.5904  -33.8601   24.2284 N   0  0  0  0  0  0
  -23.4189  -30.4858   21.5475 C   0  0  2  0  0  0
  -24.8643  -28.9451   20.1110 C   0  0  0  0  0  0
  -22.7472  -29.4630   22.4953 C   0  0  0  0  0  0
  -18.0280  -28.1407   22.8486 C   0  0  0  0  0  0
  -24.1485  -36.7305   23.2637 C   0  0  0  0  0  0
  -25.9607  -30.7911   21.3748 C   0  0  0  0  0  0
  -26.0347  -29.4183   20.7183 C   0  0  0  0  0  0
  -27.2147  -28.6159   20.7115 C   0  0  0  0  0  0
  -26.0277  -26.9090   19.4685 C   0  0  0  0  0  0
  -24.8628  -27.6949   19.4783 C   0  0  0  0  0  0
  -23.6326  -29.8246   20.1622 C   0  0  0  0  0  0
  -25.4110  -36.3099   24.0328 C   0  0  1  0  0  0
  -20.5877  -28.3704   23.1290 C   0  0  2  0  0  0
  -20.6771  -26.9431   22.5411 C   0  0  0  0  0  0
  -19.5746  -26.6400   21.5215 C   0  0  0  0  0  0
  -18.1926  -26.7947   22.1627 C   0  0  0  0  0  0
  -19.1534  -28.8867   23.2880 C   0  0  0  0  0  0
  -18.9462  -30.1467   23.8910 C   0  0  0  0  0  0
  -17.6467  -30.6605   24.0570 C   0  0  0  0  0  0
  -25.9048  -34.9469   23.5110 C   0  0  0  0  0  0
  -16.5354  -29.9113   23.6330 C   0  0  0  0  0  0
  -16.7268  -28.6523   23.0354 C   0  0  0  0  0  0
  -26.4469  -31.6604   25.0741 C   0  0  0  0  0  0
  -25.3696  -31.3748   26.1466 C   0  0  0  0  0  0
  -27.0309  -30.3031   24.6184 C   0  0  0  0  0  0
  -27.6044  -32.4328   25.7503 C   0  0  0  0  0  0
  -27.5575  -37.1806   24.8462 C   0  0  0  0  0  0
  -21.4182  -29.3056   22.3693 N   0  0  0  0  0  0
  -26.4288  -37.3791   23.9409 N   0  0  0  0  0  0
  -24.6870  -31.0629   22.0991 N   0  0  0  0  0  0
  -23.4190  -28.8170   23.3027 O   0  0  0  0  0  0
  -28.3321  -26.4556   20.1710 O   0  0  0  0  0  0
  -26.5639  -34.8933   22.4692 O   0  0  0  0  0  0
  -23.5409  -32.1415   23.7369 O   0  0  0  0  0  0
  -29.7739  -19.4739   21.8613 C   0  0  0  0  0  0
  -29.4225  -20.8320   21.5745 C   0  0  0  0  0  0
  -29.7139  -18.9032   19.5136 C   0  0  0  0  0  0
  -29.3687  -20.2624   19.2494 C   0  0  0  0  0  0
  -29.9449  -18.4787   20.8485 C   0  0  0  0  0  0
  -29.2254  -21.2445   20.2379 C   0  0  0  0  0  0
  -29.1458  -20.8741   17.9037 C   0  0  0  0  0  0
  -28.8915  -22.3605   18.2448 C   0  0  0  0  0  0
  -30.5758  -17.0828   21.2107 C   0  0  0  0  0  0
  -29.1448  -23.8844   20.2971 C   0  0  0  0  0  0
  -28.1104  -25.0198   19.8701 C   0  0  0  0  0  0
  -28.8730  -22.5295   19.7081 N   0  0  0  0  0  0
  -29.9671  -15.7569   20.8452 N   0  0  0  0  0  0
  -31.4663  -12.4988   19.1477 H   0  0  0  0  0  0
  -30.3421  -11.4090   19.9138 H   0  0  0  0  0  0
  -29.7610  -11.7265   17.4900 H   0  0  0  0  0  0
  -29.6444  -13.4530   17.7221 H   0  0  0  0  0  0
  -27.8665  -11.2866   18.8862 H   0  0  0  0  0  0
  -27.3661  -12.5502   17.7955 H   0  0  0  0  0  0
  -27.6522  -14.2531   19.4944 H   0  0  0  0  0  0
  -28.7018  -12.1168   21.4127 H   0  0  0  0  0  0
  -28.4415  -13.7969   21.8050 H   0  0  0  0  0  0
  -25.2769   -9.5673   22.4749 H   0  0  0  0  0  0
  -24.0003   -7.4637   22.7464 H   0  0  0  0  0  0
  -21.0840   -8.8786   19.8963 H   0  0  0  0  0  0
  -22.3710  -10.9674   19.6178 H   0  0  0  0  0  0
  -21.2020   -7.6150   23.9722 H   0  0  0  0  0  0
  -21.1477   -6.0525   25.9080 H   0  0  0  0  0  0
  -22.0593   -2.7606   23.2849 H   0  0  0  0  0  0
  -22.4087  -11.9902   22.4837 H   0  0  0  0  0  0
  -21.1089  -13.1261   22.2637 H   0  0  0  0  0  0
  -24.6502  -15.8416   20.5249 H   0  0  0  0  0  0
  -26.2666  -15.6352   20.0761 H   0  0  0  0  0  0
  -26.7163  -32.5469   23.1127 H   0  0  0  0  0  0
  -25.0006  -33.9752   25.0391 H   0  0  0  0  0  0
  -22.7096  -31.3044   21.4060 H   0  0  0  0  0  0
  -23.3752  -35.9631   23.3308 H   0  0  0  0  0  0
  -24.3564  -36.8920   22.2046 H   0  0  0  0  0  0
  -23.7230  -37.6506   23.6660 H   0  0  0  0  0  0
  -26.0878  -31.5516   20.6030 H   0  0  0  0  0  0
  -26.8433  -30.8454   22.0007 H   0  0  0  0  0  0
  -28.1100  -28.9723   21.2023 H   0  0  0  0  0  0
  -25.9552  -25.9618   18.9569 H   0  0  0  0  0  0
  -23.9684  -27.3266   18.9944 H   0  0  0  0  0  0
  -23.7525  -30.6044   19.4091 H   0  0  0  0  0  0
  -22.7524  -29.2557   19.8582 H   0  0  0  0  0  0
  -25.1284  -36.1967   25.0821 H   0  0  0  0  0  0
  -20.9950  -28.3293   24.1417 H   0  0  0  0  0  0
  -20.5675  -26.2323   23.3612 H   0  0  0  0  0  0
  -21.6642  -26.7474   22.1201 H   0  0  0  0  0  0
  -19.6910  -25.6308   21.1252 H   0  0  0  0  0  0
  -19.6688  -27.3207   20.6743 H   0  0  0  0  0  0
  -17.4182  -26.6679   21.4044 H   0  0  0  0  0  0
  -18.0340  -26.0104   22.9041 H   0  0  0  0  0  0
  -19.7941  -30.7273   24.2290 H   0  0  0  0  0  0
  -17.5029  -31.6286   24.5185 H   0  0  0  0  0  0
  -15.5357  -30.3028   23.7654 H   0  0  0  0  0  0
  -15.8660  -28.0853   22.7075 H   0  0  0  0  0  0
  -24.5869  -30.7096   25.7794 H   0  0  0  0  0  0
  -24.8878  -32.2917   26.4877 H   0  0  0  0  0  0
  -25.8000  -30.8934   27.0255 H   0  0  0  0  0  0
  -26.2890  -29.6798   24.1178 H   0  0  0  0  0  0
  -27.3984  -29.7269   25.4684 H   0  0  0  0  0  0
  -27.8769  -30.4326   23.9430 H   0  0  0  0  0  0
  -27.2670  -33.3630   26.2088 H   0  0  0  0  0  0
  -28.3847  -32.6878   25.0320 H   0  0  0  0  0  0
  -28.0724  -31.8445   26.5404 H   0  0  0  0  0  0
  -28.2603  -38.0094   24.7512 H   0  0  0  0  0  0
  -28.1063  -36.2628   24.6292 H   0  0  0  0  0  0
  -27.2298  -37.1463   25.8867 H   0  0  0  0  0  0
  -20.9362  -29.8792   21.6918 H   0  0  0  0  0  0
  -26.0179  -38.2870   24.1419 H   0  0  0  0  0  0
  -29.9572  -19.2060   22.8924 H   0  0  0  0  0  0
  -29.3191  -21.5420   22.3822 H   0  0  0  0  0  0
  -29.8558  -18.2106   18.6951 H   0  0  0  0  0  0
  -28.2868  -20.4135   17.4151 H   0  0  0  0  0  0
  -30.0221  -20.7476   17.2668 H   0  0  0  0  0  0
  -27.9447  -22.6913   17.8156 H   0  0  0  0  0  0
  -29.6767  -22.9837   17.8114 H   0  0  0  0  0  0
  -30.7094  -17.0538   22.2929 H   0  0  0  0  0  0
  -31.5920  -17.1245   20.8154 H   0  0  0  0  0  0
  -29.1866  -23.8144   21.3841 H   0  0  0  0  0  0
  -30.1432  -24.1892   19.9800 H   0  0  0  0  0  0
  -27.1648  -24.7135   20.3186 H   0  0  0  0  0  0
  -27.9808  -24.9577   18.7894 H   0  0  0  0  0  0
  -28.9823  -15.6399   21.0299 H   0  0  0  0  0  0
  1 25  1  0  0  0
  1 30  2  0  0  0
  1 83  1  0  0  0
  2  3  1  0  0  0
  2 25  1  0  0  0
  2 84  1  0  0  0
  2 85  1  0  0  0
  3  4  1  0  0  0
  3 86  1  0  0  0
  3 87  1  0  0  0
  4  5  1  0  0  0
  4 88  1  0  0  0
  4 89  1  0  0  0
  5  6  1  0  0  0
  5 26  1  0  0  0
  5 90  1  0  0  0
  6 25  1  0  0  0
  6 91  1  0  0  0
  6 92  1  0  0  0
  7  8  2  0  0  0
  7 26  1  0  0  0
  7 29  1  0  0  0
  8  9  1  0  0  0
  8 22  1  0  0  0
  9 10  1  0  0  0
  9 27  2  0  0  0
 10 11  2  0  0  0
 10 15  1  0  0  0
 11 12  1  0  0  0
 11 93  1  0  0  0
 12 13  2  0  0  0
 12 94  1  0  0  0
 13 14  1  0  0  0
 13 31  1  0  0  0
 14 15  2  0  0  0
 14 95  1  0  0  0
 15 96  1  0  0  0
 16 17  2  0  0  0
 16 21  1  0  0  0
 16 31  1  0  0  0
 17 18  1  0  0  0
 17 97  1  0  0  0
 18 19  2  0  0  0
 18 98  1  0  0  0
 19 20  1  0  0  0
 19 24  1  0  0  0
 20 21  2  0  0  0
 20 99  1  0  0  0
 21 23  1  0  0  0
 22 28  1  0  0  0
 22 32  2  0  0  0
 26 27  1  0  0  0
 28100  1  0  0  0
 28101  1  0  0  0
 29102  1  0  0  0
 29103  1  0  0  0
 33 34  1  0  0  0
 33 66  1  0  0  0
 33 70  2  0  0  0
 34 36  1  0  0  0
 34 59  1  0  0  0
 34104  1  0  0  0
 35 44  2  0  0  0
 35 45  1  0  0  0
 35 68  1  0  0  0
 36 56  1  0  0  0
 36105  1  0  0  0
 37 39  1  0  0  0
 37 47  1  0  0  0
 37 66  1  0  0  0
 37106  1  0  0  0
 38 43  2  0  0  0
 38 46  1  0  0  0
 38 47  1  0  0  0
 39 64  1  0  0  0
 39 67  2  0  0  0
 40 52  1  0  0  0
 40 53  2  0  0  0
 40 58  1  0  0  0
 41107  1  0  0  0
 41108  1  0  0  0
 41109  1  0  0  0
 41 48  1  0  0  0
 42 43  1  0  0  0
 42 66  1  0  0  0
 42110  1  0  0  0
 42111  1  0  0  0
 43 44  1  0  0  0
 44112  1  0  0  0
 45 46  2  0  0  0
 45113  1  0  0  0
 46114  1  0  0  0
 47115  1  0  0  0
 47116  1  0  0  0
 48 56  1  0  0  0
 48 65  1  0  0  0
 48117  1  0  0  0
 49 50  1  0  0  0
 49 53  1  0  0  0
 49 64  1  0  0  0
 49118  1  0  0  0
 50 51  1  0  0  0
 50119  1  0  0  0
 50120  1  0  0  0
 51 52  1  0  0  0
 51121  1  0  0  0
 51122  1  0  0  0
 52123  1  0  0  0
 52124  1  0  0  0
 53 54  1  0  0  0
 54 55  2  0  0  0
 54125  1  0  0  0
 55 57  1  0  0  0
 55126  1  0  0  0
 56 69  2  0  0  0
 57 58  2  0  0  0
 57127  1  0  0  0
 58128  1  0  0  0
 59 60  1  0  0  0
 59 61  1  0  0  0
 59 62  1  0  0  0
 60129  1  0  0  0
 60130  1  0  0  0
 60131  1  0  0  0
 61132  1  0  0  0
 61133  1  0  0  0
 61134  1  0  0  0
 62135  1  0  0  0
 62136  1  0  0  0
 62137  1  0  0  0
 63 65  1  0  0  0
 63138  1  0  0  0
 63139  1  0  0  0
 63140  1  0  0  0
 64141  1  0  0  0
 65142  1  0  0  0
 68 81  1  0  0  0
 71 72  2  0  0  0
 71 75  1  0  0  0
 71143  1  0  0  0
 72 76  1  0  0  0
 72144  1  0  0  0
 73 74  1  0  0  0
 73 75  2  0  0  0
 73145  1  0  0  0
 74 76  2  0  0  0
 74 77  1  0  0  0
 75 79  1  0  0  0
 76 82  1  0  0  0
 77 78  1  0  0  0
 77146  1  0  0  0
 77147  1  0  0  0
 78 82  1  0  0  0
 78148  1  0  0  0
 78149  1  0  0  0
 79 83  1  0  0  0
 79150  1  0  0  0
 79151  1  0  0  0
 80 81  1  0  0  0
 80 82  1  0  0  0
 80152  1  0  0  0
 80153  1  0  0  0
 81154  1  0  0  0
 81155  1  0  0  0
 83156  1  0  0  0
M  ISO  4   1 100  68 101  81 101  83 100
M  END
> <chiral flag>
0

> <version>
0

> <s_m_source_file>
/data/baiqing/PycharmProjects/Reinvent-master-3.2/result/LINK_invent/BTK/process_docking_weight1_custom_product_contain_oxygen_bond_distance_aromatic_linkinvent_7_9_3/rearranged_h_0004.sdf

> <i_m_source_file_index>
6

> <r_mmod_Potential_Energy-OPLS-2005>
49.5011177062988

> <r_mmod_Stretch_Energy-OPLS-2005>
77.8663635253906

> <r_mmod_Bend_Energy-OPLS-2005>
188.162094116211

> <r_mmod_Torsional_Energy-OPLS-2005>
211.506622314453

> <r_mmod_Improper_Torsional_Energy-OPLS-2005>
6.88833522796631

> <r_mmod_Van_der_Waal_Energy-OPLS-2005>
145.047424316406

> <r_mmod_Electrostatic_Energy-OPLS-2005>
-399.645874023438

> <r_mmod_Solvation_Energy-OPLS-2005>
-231.263671875

> <b_mmod_Minimization_Converged-OPLS-2005>
0

> <r_mmod_RMS_Derivative-OPLS-2005>
1.67624402046204

$$$$
6
                    3D
 Structure written by MMmdl.
159168  0  0  1  0            999 V2000
  -30.5671  -14.8994   20.4250 C   0  0  0  0  0  0
  -30.4334  -12.5553   19.4903 C   0  0  0  0  0  0
  -29.5153  -12.5205   18.2482 C   0  0  0  0  0  0
  -28.0465  -12.3198   18.6656 C   0  0  0  0  0  0
  -27.6299  -13.2462   19.8386 C   0  0  2  0  0  0
  -28.6737  -13.2588   20.9753 C   0  0  0  0  0  0
  -25.2461  -13.8215   20.5706 C   0  0  0  0  0  0
  -24.1780  -13.0441   20.9234 C   0  0  0  0  0  0
  -24.6393  -11.6926   20.8759 C   0  0  0  0  0  0
  -23.9079  -10.4294   21.0412 C   0  0  0  0  0  0
  -24.3628   -9.4207   21.9187 C   0  0  0  0  0  0
  -23.6301   -8.2244   22.0755 C   0  0  0  0  0  0
  -22.4282   -8.0282   21.3545 C   0  0  0  0  0  0
  -21.9921   -9.0258   20.4648 C   0  0  0  0  0  0
  -22.7251  -10.2135   20.3059 C   0  0  0  0  0  0
  -21.6855   -6.0739   22.5277 C   0  0  0  0  0  0
  -21.4014   -6.5643   23.8210 C   0  0  0  0  0  0
  -21.3659   -5.6794   24.9172 C   0  0  0  0  0  0
  -21.6043   -4.3056   24.7223 C   0  0  0  0  0  0
  -21.8820   -3.8149   23.4343 C   0  0  0  0  0  0
  -21.9194   -4.6966   22.3400 C   0  0  0  0  0  0
  -22.7800  -13.5212   21.1886 C   0  0  0  0  0  0
  -22.1662   -4.2152   21.0978 F   0  0  0  0  0  0
  -21.5629   -3.4539   25.7735 F   0  0  0  0  0  0
  -29.9534  -13.6531   20.3748 N   0  0  0  0  0  0
  -26.2885  -12.9444   20.3246 N   0  0  0  0  0  0
  -25.9324  -11.6577   20.5747 N   0  0  0  0  0  0
  -22.0451  -12.8197   22.0437 N   0  0  0  0  0  0
  -25.4121  -15.1940   20.4100 N   0  0  0  0  0  0
  -31.7726  -14.9367   20.1579 O   0  0  0  0  0  0
  -21.6642   -6.8881   21.4240 O   0  0  0  0  0  0
  -22.3482  -14.5516   20.6729 O   0  0  0  0  0  0
  -24.6400  -31.8453   23.1887 C   0  0  0  0  0  0
  -25.9179  -32.4699   23.8273 C   0  0  1  0  0  0
  -27.2178  -27.1617   20.1536 C   0  0  0  0  0  0
  -25.5938  -33.8505   24.2190 N   0  0  0  0  0  0
  -23.4421  -30.4636   21.5336 C   0  0  2  0  0  0
  -24.8910  -28.8909   20.1101 C   0  0  0  0  0  0
  -22.7549  -29.4547   22.4872 C   0  0  0  0  0  0
  -18.0301  -28.1393   22.8484 C   0  0  0  0  0  0
  -24.1488  -36.7256   23.2645 C   0  0  0  0  0  0
  -25.9952  -30.7282   21.3815 C   0  0  0  0  0  0
  -26.0664  -29.3409   20.7249 C   0  0  0  0  0  0
  -27.2322  -28.4929   20.7258 C   0  0  0  0  0  0
  -26.0190  -26.8018   19.5031 C   0  0  0  0  0  0
  -24.8785  -27.6343   19.4835 C   0  0  0  0  0  0
  -23.6661  -29.7896   20.1530 C   0  0  0  0  0  0
  -25.4119  -36.3031   24.0317 C   0  0  1  0  0  0
  -20.5910  -28.3705   23.1253 C   0  0  2  0  0  0
  -20.6781  -26.9411   22.5412 C   0  0  0  0  0  0
  -19.5755  -26.6377   21.5220 C   0  0  0  0  0  0
  -18.1936  -26.7933   22.1626 C   0  0  0  0  0  0
  -19.1556  -28.8868   23.2860 C   0  0  0  0  0  0
  -18.9475  -30.1472   23.8874 C   0  0  0  0  0  0
  -17.6473  -30.6592   24.0560 C   0  0  0  0  0  0
  -25.9069  -34.9409   23.5063 C   0  0  0  0  0  0
  -16.5365  -29.9084   23.6340 C   0  0  0  0  0  0
  -16.7285  -28.6505   23.0356 C   0  0  0  0  0  0
  -26.4510  -31.6569   25.0711 C   0  0  0  0  0  0
  -25.3698  -31.3759   26.1412 C   0  0  0  0  0  0
  -27.0378  -30.2973   24.6274 C   0  0  0  0  0  0
  -27.6040  -32.4336   25.7494 C   0  0  0  0  0  0
  -27.5573  -37.1778   24.8462 C   0  0  0  0  0  0
  -21.4243  -29.3039   22.3629 N   0  0  0  0  0  0
  -26.4279  -37.3746   23.9414 N   0  0  0  0  0  0
  -24.7122  -31.0336   22.0900 N   0  0  0  0  0  0
  -23.4207  -28.8101   23.3011 O   0  0  0  0  0  0
  -28.2930  -26.2132   20.2086 O   0  0  0  0  0  0
  -26.5658  -34.8910   22.4645 O   0  0  0  0  0  0
  -23.5526  -32.1315   23.7129 O   0  0  0  0  0  0
  -31.9165  -19.2851   20.7940 C   0  0  0  0  0  0
  -31.0247  -20.3651   20.6426 C   0  0  0  0  0  0
  -31.4923  -17.9419   20.7487 C   0  0  0  0  0  0
  -29.2217  -18.7477   20.4023 C   0  0  0  0  0  0
  -29.6417  -20.1795   20.4377 C   0  0  0  0  0  0
  -30.1408  -17.5809   20.5462 C   0  0  0  0  0  0
  -28.8782  -23.8732   21.4075 C   0  0  0  0  0  0
  -28.2856  -23.7364   19.0458 C   0  0  0  0  0  0
  -28.6200  -22.2797   21.5114 C   0  0  0  0  0  0
  -29.1465  -22.3677   19.1728 C   0  0  0  0  0  0
  -28.0796  -24.6785   20.3094 C   0  0  0  0  0  0
  -27.7510  -18.4386   20.1988 C   0  0  0  0  0  0
  -28.8436  -21.4269   20.2988 N   0  0  0  0  0  0
  -29.7936  -16.0878   20.5389 N   0  0  0  0  0  0
  -31.4695  -12.6983   19.1795 H   0  0  0  0  0  0
  -30.4114  -11.5996   20.0165 H   0  0  0  0  0  0
  -29.8240  -11.7240   17.5698 H   0  0  0  0  0  0
  -29.6152  -13.4540   17.6918 H   0  0  0  0  0  0
  -27.9305  -11.2765   18.9620 H   0  0  0  0  0  0
  -27.3850  -12.4675   17.8112 H   0  0  0  0  0  0
  -27.5980  -14.2520   19.4188 H   0  0  0  0  0  0
  -28.7490  -12.2803   21.4527 H   0  0  0  0  0  0
  -28.3837  -13.9633   21.7564 H   0  0  0  0  0  0
  -25.2772   -9.5683   22.4765 H   0  0  0  0  0  0
  -24.0007   -7.4635   22.7475 H   0  0  0  0  0  0
  -21.0852   -8.8781   19.8953 H   0  0  0  0  0  0
  -22.3711  -10.9678   19.6171 H   0  0  0  0  0  0
  -21.2004   -7.6151   23.9715 H   0  0  0  0  0  0
  -21.1479   -6.0524   25.9075 H   0  0  0  0  0  0
  -22.0599   -2.7613   23.2841 H   0  0  0  0  0  0
  -22.4075  -11.9858   22.4820 H   0  0  0  0  0  0
  -21.1067  -13.1214   22.2647 H   0  0  0  0  0  0
  -24.6372  -15.8404   20.5107 H   0  0  0  0  0  0
  -26.2416  -15.6286   20.0305 H   0  0  0  0  0  0
  -26.7248  -32.5308   23.1007 H   0  0  0  0  0  0
  -25.0058  -33.9625   25.0317 H   0  0  0  0  0  0
  -22.7436  -31.2886   21.3794 H   0  0  0  0  0  0
  -23.3758  -35.9579   23.3286 H   0  0  0  0  0  0
  -24.3581  -36.8905   22.2064 H   0  0  0  0  0  0
  -23.7233  -37.6441   23.6697 H   0  0  0  0  0  0
  -26.1469  -31.4835   20.6090 H   0  0  0  0  0  0
  -26.8680  -30.7787   22.0214 H   0  0  0  0  0  0
  -28.1313  -28.8343   21.2195 H   0  0  0  0  0  0
  -25.9452  -25.8384   19.0194 H   0  0  0  0  0  0
  -23.9803  -27.2863   18.9919 H   0  0  0  0  0  0
  -23.7976  -30.5622   19.3945 H   0  0  0  0  0  0
  -22.7817  -29.2277   19.8458 H   0  0  0  0  0  0
  -25.1307  -36.1852   25.0808 H   0  0  0  0  0  0
  -21.0004  -28.3284   24.1372 H   0  0  0  0  0  0
  -20.5677  -26.2312   23.3625 H   0  0  0  0  0  0
  -21.6647  -26.7417   22.1205 H   0  0  0  0  0  0
  -19.6910  -25.6285   21.1254 H   0  0  0  0  0  0
  -19.6694  -27.3185   20.6748 H   0  0  0  0  0  0
  -17.4205  -26.6686   21.4029 H   0  0  0  0  0  0
  -18.0328  -26.0084   22.9028 H   0  0  0  0  0  0
  -19.7952  -30.7299   24.2222 H   0  0  0  0  0  0
  -17.5025  -31.6268   24.5165 H   0  0  0  0  0  0
  -15.5362  -30.2976   23.7685 H   0  0  0  0  0  0
  -15.8684  -28.0821   22.7076 H   0  0  0  0  0  0
  -24.5882  -30.7098   25.7742 H   0  0  0  0  0  0
  -24.8883  -32.2944   26.4776 H   0  0  0  0  0  0
  -25.7985  -30.8976   27.0226 H   0  0  0  0  0  0
  -26.2996  -29.6697   24.1269 H   0  0  0  0  0  0
  -27.3998  -29.7265   25.4836 H   0  0  0  0  0  0
  -27.8894  -30.4232   23.9585 H   0  0  0  0  0  0
  -27.2631  -33.3661   26.2012 H   0  0  0  0  0  0
  -28.3881  -32.6856   25.0340 H   0  0  0  0  0  0
  -28.0675  -31.8497   26.5457 H   0  0  0  0  0  0
  -28.2566  -38.0097   24.7528 H   0  0  0  0  0  0
  -28.1087  -36.2625   24.6258 H   0  0  0  0  0  0
  -27.2298  -37.1389   25.8866 H   0  0  0  0  0  0
  -20.9449  -29.8747   21.6809 H   0  0  0  0  0  0
  -26.0137  -38.2804   24.1440 H   0  0  0  0  0  0
  -32.9645  -19.4948   20.9557 H   0  0  0  0  0  0
  -31.4291  -21.3660   20.6963 H   0  0  0  0  0  0
  -32.2514  -17.1885   20.8921 H   0  0  0  0  0  0
  -29.9451  -24.0452   21.2587 H   0  0  0  0  0  0
  -28.6574  -24.3164   22.3789 H   0  0  0  0  0  0
  -27.2985  -23.4782   18.6613 H   0  0  0  0  0  0
  -28.7386  -24.3339   18.2542 H   0  0  0  0  0  0
  -27.5863  -22.1240   21.8222 H   0  0  0  0  0  0
  -29.2266  -21.8889   22.3299 H   0  0  0  0  0  0
  -30.2004  -22.6421   19.2375 H   0  0  0  0  0  0
  -29.0563  -21.8134   18.2373 H   0  0  0  0  0  0
  -27.0384  -24.5566   20.6099 H   0  0  0  0  0  0
  -27.1433  -19.3431   20.1819 H   0  0  0  0  0  0
  -27.3821  -17.8049   21.0055 H   0  0  0  0  0  0
  -27.6041  -17.9154   19.2538 H   0  0  0  0  0  0
  -28.8076  -15.8946   20.6171 H   0  0  0  0  0  0
  1 25  1  0  0  0
  1 30  2  0  0  0
  1 84  1  0  0  0
  2  3  1  0  0  0
  2 25  1  0  0  0
  2 85  1  0  0  0
  2 86  1  0  0  0
  3  4  1  0  0  0
  3 87  1  0  0  0
  3 88  1  0  0  0
  4  5  1  0  0  0
  4 89  1  0  0  0
  4 90  1  0  0  0
  5  6  1  0  0  0
  5 26  1  0  0  0
  5 91  1  0  0  0
  6 25  1  0  0  0
  6 92  1  0  0  0
  6 93  1  0  0  0
  7  8  2  0  0  0
  7 26  1  0  0  0
  7 29  1  0  0  0
  8  9  1  0  0  0
  8 22  1  0  0  0
  9 10  1  0  0  0
  9 27  2  0  0  0
 10 11  2  0  0  0
 10 15  1  0  0  0
 11 12  1  0  0  0
 11 94  1  0  0  0
 12 13  2  0  0  0
 12 95  1  0  0  0
 13 14  1  0  0  0
 13 31  1  0  0  0
 14 15  2  0  0  0
 14 96  1  0  0  0
 15 97  1  0  0  0
 16 17  2  0  0  0
 16 21  1  0  0  0
 16 31  1  0  0  0
 17 18  1  0  0  0
 17 98  1  0  0  0
 18 19  2  0  0  0
 18 99  1  0  0  0
 19 20  1  0  0  0
 19 24  1  0  0  0
 20 21  2  0  0  0
 20100  1  0  0  0
 21 23  1  0  0  0
 22 28  1  0  0  0
 22 32  2  0  0  0
 26 27  1  0  0  0
 28101  1  0  0  0
 28102  1  0  0  0
 29103  1  0  0  0
 29104  1  0  0  0
 33 34  1  0  0  0
 33 66  1  0  0  0
 33 70  2  0  0  0
 34 36  1  0  0  0
 34 59  1  0  0  0
 34105  1  0  0  0
 35 44  2  0  0  0
 35 45  1  0  0  0
 35 68  1  0  0  0
 36 56  1  0  0  0
 36106  1  0  0  0
 37 39  1  0  0  0
 37 47  1  0  0  0
 37 66  1  0  0  0
 37107  1  0  0  0
 38 43  2  0  0  0
 38 46  1  0  0  0
 38 47  1  0  0  0
 39 64  1  0  0  0
 39 67  2  0  0  0
 40 52  1  0  0  0
 40 53  2  0  0  0
 40 58  1  0  0  0
 41108  1  0  0  0
 41109  1  0  0  0
 41110  1  0  0  0
 41 48  1  0  0  0
 42 43  1  0  0  0
 42 66  1  0  0  0
 42111  1  0  0  0
 42112  1  0  0  0
 43 44  1  0  0  0
 44113  1  0  0  0
 45 46  2  0  0  0
 45114  1  0  0  0
 46115  1  0  0  0
 47116  1  0  0  0
 47117  1  0  0  0
 48 56  1  0  0  0
 48 65  1  0  0  0
 48118  1  0  0  0
 49 50  1  0  0  0
 49 53  1  0  0  0
 49 64  1  0  0  0
 49119  1  0  0  0
 50 51  1  0  0  0
 50120  1  0  0  0
 50121  1  0  0  0
 51 52  1  0  0  0
 51122  1  0  0  0
 51123  1  0  0  0
 52124  1  0  0  0
 52125  1  0  0  0
 53 54  1  0  0  0
 54 55  2  0  0  0
 54126  1  0  0  0
 55 57  1  0  0  0
 55127  1  0  0  0
 56 69  2  0  0  0
 57 58  2  0  0  0
 57128  1  0  0  0
 58129  1  0  0  0
 59 60  1  0  0  0
 59 61  1  0  0  0
 59 62  1  0  0  0
 60130  1  0  0  0
 60131  1  0  0  0
 60132  1  0  0  0
 61133  1  0  0  0
 61134  1  0  0  0
 61135  1  0  0  0
 62136  1  0  0  0
 62137  1  0  0  0
 62138  1  0  0  0
 63 65  1  0  0  0
 63139  1  0  0  0
 63140  1  0  0  0
 63141  1  0  0  0
 64142  1  0  0  0
 65143  1  0  0  0
 68 81  1  0  0  0
 71 72  2  0  0  0
 71 73  1  0  0  0
 71144  1  0  0  0
 72 75  1  0  0  0
 72145  1  0  0  0
 73 76  2  0  0  0
 73146  1  0  0  0
 74 75  2  0  0  0
 74 76  1  0  0  0
 74 82  1  0  0  0
 75 83  1  0  0  0
 76 84  1  0  0  0
 77 79  1  0  0  0
 77 81  1  0  0  0
 77147  1  0  0  0
 77148  1  0  0  0
 78 80  1  0  0  0
 78 81  1  0  0  0
 78149  1  0  0  0
 78150  1  0  0  0
 79 83  1  0  0  0
 79151  1  0  0  0
 79152  1  0  0  0
 80 83  1  0  0  0
 80153  1  0  0  0
 80154  1  0  0  0
 81155  1  0  0  0
 82156  1  0  0  0
 82157  1  0  0  0
 82158  1  0  0  0
 84159  1  0  0  0
M  ISO  4   1 100  68 101  81 101  84 100
M  END
> <chiral flag>
0

> <version>
0

> <s_m_source_file>
/data/baiqing/PycharmProjects/Reinvent-master-3.2/result/LINK_invent/BTK/process_docking_weight1_custom_product_contain_oxygen_bond_distance_aromatic_linkinvent_7_9_3/rearranged_h_0004.sdf

> <i_m_source_file_index>
7

> <r_mmod_Potential_Energy-OPLS-2005>
433.188934326172

> <r_mmod_Stretch_Energy-OPLS-2005>
209.934875488281

> <r_mmod_Bend_Energy-OPLS-2005>
228.481643676758

> <r_mmod_Torsional_Energy-OPLS-2005>
290.209106445312

> <r_mmod_Improper_Torsional_Energy-OPLS-2005>
9.83685398101807

> <r_mmod_Van_der_Waal_Energy-OPLS-2005>
141.433074951172

> <r_mmod_Electrostatic_Energy-OPLS-2005>
-393.394775390625

> <r_mmod_Solvation_Energy-OPLS-2005>
-214.559371948242

> <b_mmod_Minimization_Converged-OPLS-2005>
0

> <r_mmod_RMS_Derivative-OPLS-2005>
0.68631786108017

$$$$
7
                    3D
 Structure written by MMmdl.
194203  0  0  1  0            999 V2000
  -30.7636  -14.3661   20.6587 C   0  0  0  0  0  0
  -30.4168  -12.2801   19.3956 C   0  0  0  0  0  0
  -29.4840  -12.5185   18.1934 C   0  0  0  0  0  0
  -28.0080  -12.3786   18.6120 C   0  0  0  0  0  0
  -27.6673  -13.2015   19.8828 C   0  0  2  0  0  0
  -28.7068  -12.9417   20.9960 C   0  0  0  0  0  0
  -25.2612  -13.8160   20.5678 C   0  0  0  0  0  0
  -24.1846  -13.0439   20.9149 C   0  0  0  0  0  0
  -24.6396  -11.6910   20.8735 C   0  0  0  0  0  0
  -23.9060  -10.4300   21.0412 C   0  0  0  0  0  0
  -24.3608   -9.4222   21.9198 C   0  0  0  0  0  0
  -23.6288   -8.2255   22.0767 C   0  0  0  0  0  0
  -22.4274   -8.0285   21.3548 C   0  0  0  0  0  0
  -21.9909   -9.0259   20.4651 C   0  0  0  0  0  0
  -22.7235  -10.2139   20.3058 C   0  0  0  0  0  0
  -21.6855   -6.0736   22.5279 C   0  0  0  0  0  0
  -21.4014   -6.5640   23.8215 C   0  0  0  0  0  0
  -21.3659   -5.6791   24.9174 C   0  0  0  0  0  0
  -21.6045   -4.3056   24.7226 C   0  0  0  0  0  0
  -21.8818   -3.8147   23.4345 C   0  0  0  0  0  0
  -21.9192   -4.6966   22.3403 C   0  0  0  0  0  0
  -22.7870  -13.5240   21.1809 C   0  0  0  0  0  0
  -22.1662   -4.2150   21.0980 F   0  0  0  0  0  0
  -21.5628   -3.4539   25.7738 F   0  0  0  0  0  0
  -30.0493  -13.2305   20.4540 N   0  0  0  0  0  0
  -26.3053  -12.9320   20.3413 N   0  0  0  0  0  0
  -25.9320  -11.6481   20.5777 N   0  0  0  0  0  0
  -22.0511  -12.8237   22.0375 N   0  0  0  0  0  0
  -25.4347  -15.1871   20.4054 N   0  0  0  0  0  0
  -31.8084  -14.6356   20.0590 O   0  0  0  0  0  0
  -21.6641   -6.8881   21.4242 O   0  0  0  0  0  0
  -22.3566  -14.5558   20.6685 O   0  0  0  0  0  0
  -24.6078  -31.8729   23.2148 C   0  0  0  0  0  0
  -25.8986  -32.4855   23.8446 C   0  0  1  0  0  0
  -27.2419  -27.4771   20.0990 C   0  0  0  0  0  0
  -25.5885  -33.8654   24.2387 N   0  0  0  0  0  0
  -23.3970  -30.4937   21.5527 C   0  0  2  0  0  0
  -24.8472  -28.9665   20.1167 C   0  0  0  0  0  0
  -22.7404  -29.4651   22.5010 C   0  0  0  0  0  0
  -18.0270  -28.1374   22.8475 C   0  0  0  0  0  0
  -24.1492  -36.7317   23.2644 C   0  0  0  0  0  0
  -25.9192  -30.8537   21.3613 C   0  0  0  0  0  0
  -26.0002  -29.4876   20.7169 C   0  0  0  0  0  0
  -27.1999  -28.7487   20.7125 C   0  0  0  0  0  0
  -26.0810  -26.9688   19.4851 C   0  0  0  0  0  0
  -24.8788  -27.7022   19.5019 C   0  0  0  0  0  0
  -23.6074  -29.8282   20.1654 C   0  0  0  0  0  0
  -25.4111  -36.3135   24.0355 C   0  0  1  0  0  0
  -20.5856  -28.3650   23.1328 C   0  0  2  0  0  0
  -20.6758  -26.9392   22.5421 C   0  0  0  0  0  0
  -19.5743  -26.6385   21.5206 C   0  0  0  0  0  0
  -18.1919  -26.7920   22.1614 C   0  0  0  0  0  0
  -19.1517  -28.8830   23.2895 C   0  0  0  0  0  0
  -18.9446  -30.1432   23.8909 C   0  0  0  0  0  0
  -17.6450  -30.6574   24.0560 C   0  0  0  0  0  0
  -25.9029  -34.9491   23.5164 C   0  0  0  0  0  0
  -16.5337  -29.9079   23.6317 C   0  0  0  0  0  0
  -16.7263  -28.6500   23.0331 C   0  0  0  0  0  0
  -26.4455  -31.6599   25.0729 C   0  0  0  0  0  0
  -25.3752  -31.3641   26.1494 C   0  0  0  0  0  0
  -27.0266  -30.3064   24.6000 C   0  0  0  0  0  0
  -27.6068  -32.4295   25.7464 C   0  0  0  0  0  0
  -27.5586  -37.1822   24.8472 C   0  0  0  0  0  0
  -21.4136  -29.3018   22.3747 N   0  0  0  0  0  0
  -26.4302  -37.3813   23.9415 N   0  0  0  0  0  0
  -24.6591  -31.0876   22.1021 N   0  0  0  0  0  0
  -23.4192  -28.8188   23.3033 O   0  0  0  0  0  0
  -28.3872  -26.7206   20.0520 O   0  0  0  0  0  0
  -26.5576  -34.8924   22.4717 O   0  0  0  0  0  0
  -23.5271  -32.1458   23.7555 O   0  0  0  0  0  0
  -25.5255  -13.4443   24.3589 C   0  0  0  0  0  0
  -24.9789  -14.7174   24.1095 C   0  0  0  0  0  0
  -26.7250  -13.3261   25.0858 C   0  0  0  0  0  0
  -32.6206  -18.1581   25.9764 C   0  0  0  0  0  0
  -25.6397  -15.8730   24.5687 C   0  0  0  0  0  0
  -27.3820  -14.4803   25.5550 C   0  0  0  0  0  0
  -32.9218  -17.0094   26.7310 C   0  0  0  0  0  0
  -31.5055  -18.1681   25.1160 C   0  0  0  0  0  0
  -30.9886  -15.8809   25.7655 C   0  0  0  0  0  0
  -26.8521  -15.7613   25.2839 C   0  0  0  0  0  0
  -32.1082  -15.8646   26.6211 C   0  0  0  0  0  0
  -30.6669  -17.0326   25.0121 C   0  0  0  0  0  0
  -27.7022  -24.4867   22.1236 C   0  0  0  0  0  0
  -32.4366  -14.6101   27.4054 C   0  0  0  0  0  0
  -27.5822  -17.0171   25.7433 C   0  0  0  0  0  0
  -29.0670  -25.0207   21.6750 C   0  0  0  0  0  0
  -27.3316  -21.4755   24.5290 C   0  0  0  0  0  0
  -26.1415  -22.2655   23.9572 C   0  0  0  0  0  0
  -27.1286  -19.9545   24.4462 C   0  0  0  0  0  0
  -29.7872  -17.4202   22.6153 C   0  0  0  0  0  0
  -26.3023  -23.7942   24.0692 C   0  0  0  0  0  0
  -30.8088  -16.5110   21.9048 C   0  0  0  0  0  0
  -28.4004  -19.1717   24.8294 C   0  0  0  0  0  0
  -29.0561  -26.5155   21.2980 C   0  0  0  0  0  0
  -29.4523  -17.0050   24.0718 C   0  0  2  0  0  0
  -27.5246  -24.2869   23.4369 N   0  0  0  0  0  0
  -30.2459  -15.2050   21.5611 N   0  0  0  0  0  0
  -28.2436  -17.7097   24.6042 N   0  3  1  0  0  0
  -26.8314  -24.2261   21.2916 O   0  0  0  0  0  0
  -31.4603  -12.3758   19.0896 H   0  0  0  0  0  0
  -30.3110  -11.2585   19.7642 H   0  0  0  0  0  0
  -29.7130  -11.8132   17.3935 H   0  0  0  0  0  0
  -29.6575  -13.5145   17.7831 H   0  0  0  0  0  0
  -27.8130  -11.3208   18.7931 H   0  0  0  0  0  0
  -27.3541  -12.6702   17.7892 H   0  0  0  0  0  0
  -27.7262  -14.2555   19.6106 H   0  0  0  0  0  0
  -28.6670  -11.8977   21.3102 H   0  0  0  0  0  0
  -28.4583  -13.5145   21.8897 H   0  0  0  0  0  0
  -25.2751   -9.5705   22.4775 H   0  0  0  0  0  0
  -23.9996   -7.4648   22.7487 H   0  0  0  0  0  0
  -21.0844   -8.8772   19.8951 H   0  0  0  0  0  0
  -22.3697  -10.9673   19.6161 H   0  0  0  0  0  0
  -21.2006   -7.6147   23.9717 H   0  0  0  0  0  0
  -21.1481   -6.0522   25.9078 H   0  0  0  0  0  0
  -22.0598   -2.7610   23.2846 H   0  0  0  0  0  0
  -22.4072  -11.9845   22.4699 H   0  0  0  0  0  0
  -21.1130  -13.1270   22.2568 H   0  0  0  0  0  0
  -24.6687  -15.8431   20.5059 H   0  0  0  0  0  0
  -26.2888  -15.6211   20.0800 H   0  0  0  0  0  0
  -26.7062  -32.5600   23.1233 H   0  0  0  0  0  0
  -25.0068  -33.9842   25.0547 H   0  0  0  0  0  0
  -22.6820  -31.3075   21.4143 H   0  0  0  0  0  0
  -23.3757  -35.9647   23.3318 H   0  0  0  0  0  0
  -24.3600  -36.8901   22.2056 H   0  0  0  0  0  0
  -23.7228  -37.6527   23.6631 H   0  0  0  0  0  0
  -26.0206  -31.6189   20.5900 H   0  0  0  0  0  0
  -26.8112  -30.9163   21.9724 H   0  0  0  0  0  0
  -28.0888  -29.1604   21.1689 H   0  0  0  0  0  0
  -26.1063  -25.9994   19.0070 H   0  0  0  0  0  0
  -23.9921  -27.2961   19.0362 H   0  0  0  0  0  0
  -23.7212  -30.6068   19.4100 H   0  0  0  0  0  0
  -22.7334  -29.2487   19.8623 H   0  0  0  0  0  0
  -25.1275  -36.2031   25.0848 H   0  0  0  0  0  0
  -20.9941  -28.3208   24.1448 H   0  0  0  0  0  0
  -20.5664  -26.2255   23.3605 H   0  0  0  0  0  0
  -21.6628  -26.7436   22.1211 H   0  0  0  0  0  0
  -19.6908  -25.6303   21.1218 H   0  0  0  0  0  0
  -19.6687  -27.3204   20.6744 H   0  0  0  0  0  0
  -17.4197  -26.6664   21.4009 H   0  0  0  0  0  0
  -18.0306  -26.0068   22.9014 H   0  0  0  0  0  0
  -19.7923  -30.7235   24.2297 H   0  0  0  0  0  0
  -17.5006  -31.6256   24.5156 H   0  0  0  0  0  0
  -15.5336  -30.2984   23.7641 H   0  0  0  0  0  0
  -15.8664  -28.0832   22.7031 H   0  0  0  0  0  0
  -24.5943  -30.6971   25.7820 H   0  0  0  0  0  0
  -24.8913  -32.2760   26.5001 H   0  0  0  0  0  0
  -25.8145  -30.8778   27.0214 H   0  0  0  0  0  0
  -26.2754  -29.6851   24.1108 H   0  0  0  0  0  0
  -27.4149  -29.7262   25.4380 H   0  0  0  0  0  0
  -27.8549  -30.4429   23.9043 H   0  0  0  0  0  0
  -27.2730  -33.3594   26.2077 H   0  0  0  0  0  0
  -28.3848  -32.6853   25.0256 H   0  0  0  0  0  0
  -28.0773  -31.8393   26.5337 H   0  0  0  0  0  0
  -28.2617  -38.0108   24.7517 H   0  0  0  0  0  0
  -28.1069  -36.2641   24.6302 H   0  0  0  0  0  0
  -27.2304  -37.1473   25.8877 H   0  0  0  0  0  0
  -20.9307  -29.8781   21.7003 H   0  0  0  0  0  0
  -26.0197  -38.2894   24.1423 H   0  0  0  0  0  0
  -25.0229  -12.5584   23.9966 H   0  0  0  0  0  0
  -24.0528  -14.8099   23.5603 H   0  0  0  0  0  0
  -27.1409  -12.3481   25.2869 H   0  0  0  0  0  0
  -33.2526  -19.0328   26.0518 H   0  0  0  0  0  0
  -25.2066  -16.8433   24.3650 H   0  0  0  0  0  0
  -28.2947  -14.3711   26.1229 H   0  0  0  0  0  0
  -33.7849  -17.0101   27.3835 H   0  0  0  0  0  0
  -31.3185  -19.0587   24.5347 H   0  0  0  0  0  0
  -30.3865  -14.9883   25.6793 H   0  0  0  0  0  0
  -33.1630  -14.8081   28.1941 H   0  0  0  0  0  0
  -32.8527  -13.8497   26.7437 H   0  0  0  0  0  0
  -31.5384  -14.2021   27.8701 H   0  0  0  0  0  0
  -28.3013  -16.7874   26.5305 H   0  0  0  0  0  0
  -26.8394  -17.6697   26.2037 H   0  0  0  0  0  0
  -29.4269  -24.4254   20.8355 H   0  0  0  0  0  0
  -29.7860  -24.8634   22.4795 H   0  0  0  0  0  0
  -27.5027  -21.7660   25.5668 H   0  0  0  0  0  0
  -28.2358  -21.7460   23.9821 H   0  0  0  0  0  0
  -25.2275  -21.9725   24.4757 H   0  0  0  0  0  0
  -25.9889  -21.9919   22.9119 H   0  0  0  0  0  0
  -26.8430  -19.6958   23.4257 H   0  0  0  0  0  0
  -26.2910  -19.6669   25.0825 H   0  0  0  0  0  0
  -28.8753  -17.4457   22.0175 H   0  0  0  0  0  0
  -30.1760  -18.4372   22.5900 H   0  0  0  0  0  0
  -26.3269  -24.0840   25.1206 H   0  0  0  0  0  0
  -25.4322  -24.2924   23.6385 H   0  0  0  0  0  0
  -31.7059  -16.3759   22.5117 H   0  0  0  0  0  0
  -31.1350  -17.0091   20.9893 H   0  0  0  0  0  0
  -28.6922  -19.3685   25.8625 H   0  0  0  0  0  0
  -29.2043  -19.5672   24.2128 H   0  0  0  0  0  0
  -30.0834  -26.8635   21.1845 H   0  0  0  0  0  0
  -28.6310  -27.0893   22.1238 H   0  0  0  0  0  0
  -29.1660  -15.9569   23.9884 H   0  0  0  0  0  0
  -28.2900  -24.5232   24.0555 H   0  0  0  0  0  0
  -29.3859  -14.9076   21.9949 H   0  0  0  0  0  0
  -27.5702  -17.6371   23.8581 H   0  0  0  0  0  0
  1 25  1  0  0  0
  1 30  2  0  0  0
  1 97  1  0  0  0
  2  3  1  0  0  0
  2 25  1  0  0  0
  2100  1  0  0  0
  2101  1  0  0  0
  3  4  1  0  0  0
  3102  1  0  0  0
  3103  1  0  0  0
  4  5  1  0  0  0
  4104  1  0  0  0
  4105  1  0  0  0
  5  6  1  0  0  0
  5 26  1  0  0  0
  5106  1  0  0  0
  6 25  1  0  0  0
  6107  1  0  0  0
  6108  1  0  0  0
  7  8  2  0  0  0
  7 26  1  0  0  0
  7 29  1  0  0  0
  8  9  1  0  0  0
  8 22  1  0  0  0
  9 10  1  0  0  0
  9 27  2  0  0  0
 10 11  2  0  0  0
 10 15  1  0  0  0
 11 12  1  0  0  0
 11109  1  0  0  0
 12 13  2  0  0  0
 12110  1  0  0  0
 13 14  1  0  0  0
 13 31  1  0  0  0
 14 15  2  0  0  0
 14111  1  0  0  0
 15112  1  0  0  0
 16 17  2  0  0  0
 16 21  1  0  0  0
 16 31  1  0  0  0
 17 18  1  0  0  0
 17113  1  0  0  0
 18 19  2  0  0  0
 18114  1  0  0  0
 19 20  1  0  0  0
 19 24  1  0  0  0
 20 21  2  0  0  0
 20115  1  0  0  0
 21 23  1  0  0  0
 22 28  1  0  0  0
 22 32  2  0  0  0
 26 27  1  0  0  0
 28116  1  0  0  0
 28117  1  0  0  0
 29118  1  0  0  0
 29119  1  0  0  0
 33 34  1  0  0  0
 33 66  1  0  0  0
 33 70  2  0  0  0
 34 36  1  0  0  0
 34 59  1  0  0  0
 34120  1  0  0  0
 35 44  2  0  0  0
 35 45  1  0  0  0
 35 68  1  0  0  0
 36 56  1  0  0  0
 36121  1  0  0  0
 37 39  1  0  0  0
 37 47  1  0  0  0
 37 66  1  0  0  0
 37122  1  0  0  0
 38 43  2  0  0  0
 38 46  1  0  0  0
 38 47  1  0  0  0
 39 64  1  0  0  0
 39 67  2  0  0  0
 40 52  1  0  0  0
 40 53  2  0  0  0
 40 58  1  0  0  0
 41123  1  0  0  0
 41124  1  0  0  0
 41125  1  0  0  0
 41 48  1  0  0  0
 42 43  1  0  0  0
 42 66  1  0  0  0
 42126  1  0  0  0
 42127  1  0  0  0
 43 44  1  0  0  0
 44128  1  0  0  0
 45 46  2  0  0  0
 45129  1  0  0  0
 46130  1  0  0  0
 47131  1  0  0  0
 47132  1  0  0  0
 48 56  1  0  0  0
 48 65  1  0  0  0
 48133  1  0  0  0
 49 50  1  0  0  0
 49 53  1  0  0  0
 49 64  1  0  0  0
 49134  1  0  0  0
 50 51  1  0  0  0
 50135  1  0  0  0
 50136  1  0  0  0
 51 52  1  0  0  0
 51137  1  0  0  0
 51138  1  0  0  0
 52139  1  0  0  0
 52140  1  0  0  0
 53 54  1  0  0  0
 54 55  2  0  0  0
 54141  1  0  0  0
 55 57  1  0  0  0
 55142  1  0  0  0
 56 69  2  0  0  0
 57 58  2  0  0  0
 57143  1  0  0  0
 58144  1  0  0  0
 59 60  1  0  0  0
 59 61  1  0  0  0
 59 62  1  0  0  0
 60145  1  0  0  0
 60146  1  0  0  0
 60147  1  0  0  0
 61148  1  0  0  0
 61149  1  0  0  0
 61150  1  0  0  0
 62151  1  0  0  0
 62152  1  0  0  0
 62153  1  0  0  0
 63 65  1  0  0  0
 63154  1  0  0  0
 63155  1  0  0  0
 63156  1  0  0  0
 64157  1  0  0  0
 65158  1  0  0  0
 68 94  1  0  0  0
 71 72  2  0  0  0
 71 73  1  0  0  0
 71159  1  0  0  0
 72 75  1  0  0  0
 72160  1  0  0  0
 73 76  2  0  0  0
 73161  1  0  0  0
 74 77  2  0  0  0
 74 78  1  0  0  0
 74162  1  0  0  0
 75 80  2  0  0  0
 75163  1  0  0  0
 76 80  1  0  0  0
 76164  1  0  0  0
 77 81  1  0  0  0
 77165  1  0  0  0
 78 82  2  0  0  0
 78166  1  0  0  0
 79 81  2  0  0  0
 79 82  1  0  0  0
 79167  1  0  0  0
 80 85  1  0  0  0
 81 84  1  0  0  0
 82 95  1  0  0  0
 83 86  1  0  0  0
 83 96  1  0  0  0
 83 99  2  0  0  0
 84168  1  0  0  0
 84169  1  0  0  0
 84170  1  0  0  0
 85171  1  0  0  0
 85172  1  0  0  0
 85 98  1  0  0  0
 86 94  1  0  0  0
 86173  1  0  0  0
 86174  1  0  0  0
 87 88  1  0  0  0
 87 89  1  0  0  0
 87175  1  0  0  0
 87176  1  0  0  0
 88 91  1  0  0  0
 88177  1  0  0  0
 88178  1  0  0  0
 89 93  1  0  0  0
 89179  1  0  0  0
 89180  1  0  0  0
 90 92  1  0  0  0
 90181  1  0  0  0
 90182  1  0  0  0
 90 95  1  0  0  0
 91 96  1  0  0  0
 91183  1  0  0  0
 91184  1  0  0  0
 92 97  1  0  0  0
 92185  1  0  0  0
 92186  1  0  0  0
 93 98  1  0  0  0
 93187  1  0  0  0
 93188  1  0  0  0
 94189  1  0  0  0
 94190  1  0  0  0
 95 98  1  0  0  0
 95191  1  0  0  0
 96192  1  0  0  0
 97193  1  0  0  0
 98194  1  0  0  0
M  CHG  1  98   1
M  ISO  4   1 100  68 101  94 101  97 100
M  END
> <chiral flag>
0

> <version>
0

> <s_m_source_file>
/data/baiqing/PycharmProjects/Reinvent-master-3.2/result/LINK_invent/BTK/process_docking_weight1_custom_product_contain_oxygen_bond_distance_aromatic_linkinvent_7_9_3/rearranged_h_0004.sdf

> <i_m_source_file_index>
8

> <r_mmod_Potential_Energy-OPLS-2005>
-259.874328613281

> <r_mmod_Stretch_Energy-OPLS-2005>
36.4792633056641

> <r_mmod_Bend_Energy-OPLS-2005>
100.991836547852

> <r_mmod_Torsional_Energy-OPLS-2005>
213.565185546875

> <r_mmod_Improper_Torsional_Energy-OPLS-2005>
1.9740469455719

> <r_mmod_Van_der_Waal_Energy-OPLS-2005>
140.592163085938

> <r_mmod_Electrostatic_Energy-OPLS-2005>
-281.306518554688

> <r_mmod_Solvation_Energy-OPLS-2005>
-478.121948242188

> <b_mmod_Minimization_Converged-OPLS-2005>
0

> <r_mmod_RMS_Derivative-OPLS-2005>
1.03480064868927

$$$$
8
                    3D
 Structure written by MMmdl.
159167  0  0  1  0            999 V2000
  -30.7011  -14.4453   20.5317 C   0  0  0  0  0  0
  -30.4206  -12.2633   19.4485 C   0  0  0  0  0  0
  -29.5071  -12.4831   18.2232 C   0  0  0  0  0  0
  -28.0215  -12.3643   18.6202 C   0  0  0  0  0  0
  -27.6653  -13.2020   19.8788 C   0  0  2  0  0  0
  -28.7036  -12.9831   21.0077 C   0  0  0  0  0  0
  -25.2608  -13.8145   20.5668 C   0  0  0  0  0  0
  -24.1852  -13.0436   20.9163 C   0  0  0  0  0  0
  -24.6394  -11.6901   20.8731 C   0  0  0  0  0  0
  -23.9067  -10.4296   21.0402 C   0  0  0  0  0  0
  -24.3617   -9.4221   21.9185 C   0  0  0  0  0  0
  -23.6302   -8.2251   22.0760 C   0  0  0  0  0  0
  -22.4281   -8.0281   21.3556 C   0  0  0  0  0  0
  -21.9912   -9.0258   20.4656 C   0  0  0  0  0  0
  -22.7240  -10.2137   20.3062 C   0  0  0  0  0  0
  -21.6857   -6.0739   22.5291 C   0  0  0  0  0  0
  -21.4017   -6.5642   23.8221 C   0  0  0  0  0  0
  -21.3660   -5.6795   24.9183 C   0  0  0  0  0  0
  -21.6042   -4.3057   24.7234 C   0  0  0  0  0  0
  -21.8816   -3.8152   23.4355 C   0  0  0  0  0  0
  -21.9198   -4.6971   22.3410 C   0  0  0  0  0  0
  -22.7881  -13.5244   21.1834 C   0  0  0  0  0  0
  -22.1663   -4.2151   21.0990 F   0  0  0  0  0  0
  -21.5630   -3.4540   25.7749 F   0  0  0  0  0  0
  -30.0446  -13.2576   20.4645 N   0  0  0  0  0  0
  -26.3037  -12.9305   20.3354 N   0  0  0  0  0  0
  -25.9314  -11.6473   20.5760 N   0  0  0  0  0  0
  -22.0508  -12.8258   22.0388 N   0  0  0  0  0  0
  -25.4315  -15.1867   20.4106 N   0  0  0  0  0  0
  -31.8458  -14.6142   20.1028 O   0  0  0  0  0  0
  -21.6643   -6.8882   21.4251 O   0  0  0  0  0  0
  -22.3577  -14.5558   20.6690 O   0  0  0  0  0  0
  -24.6112  -31.8716   23.2111 C   0  0  0  0  0  0
  -25.9019  -32.4847   23.8398 C   0  0  1  0  0  0
  -27.2325  -27.4768   20.0830 C   0  0  0  0  0  0
  -25.5886  -33.8640   24.2330 N   0  0  0  0  0  0
  -23.3957  -30.4961   21.5507 C   0  0  2  0  0  0
  -24.8422  -28.9658   20.1105 C   0  0  0  0  0  0
  -22.7379  -29.4692   22.4995 C   0  0  0  0  0  0
  -18.0271  -28.1394   22.8512 C   0  0  0  0  0  0
  -24.1483  -36.7318   23.2635 C   0  0  0  0  0  0
  -25.9195  -30.8509   21.3552 C   0  0  0  0  0  0
  -25.9997  -29.4877   20.7031 C   0  0  0  0  0  0
  -27.2014  -28.7490   20.6874 C   0  0  0  0  0  0
  -26.0645  -26.9581   19.4864 C   0  0  0  0  0  0
  -24.8679  -27.6994   19.4977 C   0  0  0  0  0  0
  -23.6017  -29.8265   20.1653 C   0  0  0  0  0  0
  -25.4104  -36.3122   24.0341 C   0  0  1  0  0  0
  -20.5858  -28.3679   23.1329 C   0  0  2  0  0  0
  -20.6767  -26.9422   22.5418 C   0  0  0  0  0  0
  -19.5740  -26.6405   21.5213 C   0  0  0  0  0  0
  -18.1916  -26.7951   22.1628 C   0  0  0  0  0  0
  -19.1520  -28.8849   23.2923 C   0  0  0  0  0  0
  -18.9454  -30.1460   23.8929 C   0  0  0  0  0  0
  -17.6459  -30.6598   24.0590 C   0  0  0  0  0  0
  -25.9023  -34.9488   23.5126 C   0  0  0  0  0  0
  -16.5348  -29.9113   23.6329 C   0  0  0  0  0  0
  -16.7264  -28.6528   23.0353 C   0  0  0  0  0  0
  -26.4446  -31.6622   25.0721 C   0  0  0  0  0  0
  -25.3724  -31.3762   26.1486 C   0  0  0  0  0  0
  -27.0256  -30.3063   24.6074 C   0  0  0  0  0  0
  -27.6032  -32.4329   25.7491 C   0  0  0  0  0  0
  -27.5571  -37.1818   24.8470 C   0  0  0  0  0  0
  -21.4110  -29.3056   22.3734 N   0  0  0  0  0  0
  -26.4287  -37.3808   23.9406 N   0  0  0  0  0  0
  -24.6605  -31.0851   22.0987 N   0  0  0  0  0  0
  -23.4173  -28.8226   23.3010 O   0  0  0  0  0  0
  -28.3865  -26.7374   20.0912 O   0  0  0  0  0  0
  -26.5586  -34.8934   22.4685 O   0  0  0  0  0  0
  -23.5316  -32.1428   23.7537 O   0  0  0  0  0  0
  -30.4372  -19.6731   22.2034 C   0  0  0  0  0  0
  -30.2914  -18.3325   21.7782 C   0  0  0  0  0  0
  -29.9730  -20.4493   19.9408 C   0  0  0  0  0  0
  -30.2825  -20.7383   21.2848 C   0  0  0  0  0  0
  -29.9901  -18.0491   20.4275 C   0  0  0  0  0  0
  -29.8252  -19.1169   19.5168 C   0  0  0  0  0  0
  -29.8578  -16.6362   19.8739 C   0  0  0  0  0  0
  -30.4780  -22.1885   21.7172 C   0  0  0  0  0  0
  -28.4340  -24.3034   20.3323 C   0  0  0  0  0  0
  -28.1630  -23.0979   21.2656 C   0  0  0  0  0  0
  -28.3583  -25.6693   21.0370 C   0  0  0  0  0  0
  -29.9091  -15.4944   20.7991 N   0  0  0  0  0  0
  -29.2416  -22.8055   22.2445 N   0  3  0  0  0  0
  -29.5358  -18.8645   18.2178 F   0  0  0  0  0  0
  -31.4717  -12.3337   19.1619 H   0  0  0  0  0  0
  -30.2899  -11.2563   19.8483 H   0  0  0  0  0  0
  -29.7458  -11.7561   17.4454 H   0  0  0  0  0  0
  -29.6977  -13.4673   17.7921 H   0  0  0  0  0  0
  -27.8154  -11.3101   18.8089 H   0  0  0  0  0  0
  -27.3851  -12.6512   17.7828 H   0  0  0  0  0  0
  -27.7063  -14.2479   19.5786 H   0  0  0  0  0  0
  -28.6588  -11.9527   21.3638 H   0  0  0  0  0  0
  -28.4767  -13.6049   21.8756 H   0  0  0  0  0  0
  -25.2760   -9.5701   22.4762 H   0  0  0  0  0  0
  -24.0014   -7.4647   22.7479 H   0  0  0  0  0  0
  -21.0842   -8.8783   19.8970 H   0  0  0  0  0  0
  -22.3693  -10.9681   19.6178 H   0  0  0  0  0  0
  -21.1998   -7.6149   23.9729 H   0  0  0  0  0  0
  -21.1486   -6.0522   25.9084 H   0  0  0  0  0  0
  -22.0590   -2.7618   23.2859 H   0  0  0  0  0  0
  -22.4103  -11.9906   22.4765 H   0  0  0  0  0  0
  -21.1140  -13.1313   22.2602 H   0  0  0  0  0  0
  -24.6606  -15.8371   20.5192 H   0  0  0  0  0  0
  -26.2813  -15.6332   20.0895 H   0  0  0  0  0  0
  -26.7110  -32.5581   23.1192 H   0  0  0  0  0  0
  -25.0091  -33.9821   25.0509 H   0  0  0  0  0  0
  -22.6828  -31.3111   21.4141 H   0  0  0  0  0  0
  -23.3733  -35.9667   23.3336 H   0  0  0  0  0  0
  -24.3565  -36.8887   22.2040 H   0  0  0  0  0  0
  -23.7241  -37.6543   23.6618 H   0  0  0  0  0  0
  -26.0193  -31.6184   20.5860 H   0  0  0  0  0  0
  -26.8113  -30.9087   21.9671 H   0  0  0  0  0  0
  -28.0957  -29.1470   21.1460 H   0  0  0  0  0  0
  -26.0795  -25.9869   19.0133 H   0  0  0  0  0  0
  -23.9785  -27.2937   19.0353 H   0  0  0  0  0  0
  -23.7026  -30.5994   19.4034 H   0  0  0  0  0  0
  -22.7269  -29.2427   19.8731 H   0  0  0  0  0  0
  -25.1283  -36.1993   25.0834 H   0  0  0  0  0  0
  -20.9975  -28.3242   24.1442 H   0  0  0  0  0  0
  -20.5674  -26.2279   23.3599 H   0  0  0  0  0  0
  -21.6636  -26.7482   22.1201 H   0  0  0  0  0  0
  -19.6898  -25.6317   21.1231 H   0  0  0  0  0  0
  -19.6676  -27.3227   20.6757 H   0  0  0  0  0  0
  -17.4193  -26.6716   21.4036 H   0  0  0  0  0  0
  -18.0331  -26.0073   22.9010 H   0  0  0  0  0  0
  -19.7925  -30.7278   24.2293 H   0  0  0  0  0  0
  -17.5016  -31.6279   24.5195 H   0  0  0  0  0  0
  -15.5354  -30.3038   23.7629 H   0  0  0  0  0  0
  -15.8663  -28.0864   22.7050 H   0  0  0  0  0  0
  -24.5905  -30.7081   25.7855 H   0  0  0  0  0  0
  -24.8906  -32.2947   26.4865 H   0  0  0  0  0  0
  -25.8088  -30.9006   27.0281 H   0  0  0  0  0  0
  -26.2805  -29.6873   24.1071 H   0  0  0  0  0  0
  -27.3972  -29.7245   25.4521 H   0  0  0  0  0  0
  -27.8660  -30.4380   23.9250 H   0  0  0  0  0  0
  -27.2654  -33.3626   26.2082 H   0  0  0  0  0  0
  -28.3846  -32.6891   25.0323 H   0  0  0  0  0  0
  -28.0696  -31.8444   26.5404 H   0  0  0  0  0  0
  -28.2631  -38.0079   24.7485 H   0  0  0  0  0  0
  -28.1029  -36.2613   24.6344 H   0  0  0  0  0  0
  -27.2292  -37.1527   25.8878 H   0  0  0  0  0  0
  -20.9240  -29.8766   21.6969 H   0  0  0  0  0  0
  -26.0182  -38.2896   24.1389 H   0  0  0  0  0  0
  -30.6842  -19.8779   23.2366 H   0  0  0  0  0  0
  -30.4260  -17.5303   22.4909 H   0  0  0  0  0  0
  -29.8577  -21.2457   19.2198 H   0  0  0  0  0  0
  -28.8941  -16.5804   19.3663 H   0  0  0  0  0  0
  -30.6046  -16.5424   19.0815 H   0  0  0  0  0  0
  -30.8780  -22.7788   20.8918 H   0  0  0  0  0  0
  -31.2423  -22.2193   22.4943 H   0  0  0  0  0  0
  -27.6730  -24.2862   19.5522 H   0  0  0  0  0  0
  -29.3862  -24.2003   19.8126 H   0  0  0  0  0  0
  -27.9587  -22.2086   20.6704 H   0  0  0  0  0  0
  -27.2431  -23.2827   21.8214 H   0  0  0  0  0  0
  -29.2088  -25.7922   21.7073 H   0  0  0  0  0  0
  -27.4695  -25.7128   21.6722 H   0  0  0  0  0  0
  -29.0341  -15.2606   21.2415 H   0  0  0  0  0  0
  -29.4918  -23.6467   22.7376 H   0  0  0  0  0  0
  -28.8727  -22.1692   22.9326 H   0  0  0  0  0  0
  1 25  1  0  0  0
  1 30  2  0  0  0
  1 82  1  0  0  0
  2  3  1  0  0  0
  2 25  1  0  0  0
  2 85  1  0  0  0
  2 86  1  0  0  0
  3  4  1  0  0  0
  3 87  1  0  0  0
  3 88  1  0  0  0
  4  5  1  0  0  0
  4 89  1  0  0  0
  4 90  1  0  0  0
  5  6  1  0  0  0
  5 26  1  0  0  0
  5 91  1  0  0  0
  6 25  1  0  0  0
  6 92  1  0  0  0
  6 93  1  0  0  0
  7  8  2  0  0  0
  7 26  1  0  0  0
  7 29  1  0  0  0
  8  9  1  0  0  0
  8 22  1  0  0  0
  9 10  1  0  0  0
  9 27  2  0  0  0
 10 11  2  0  0  0
 10 15  1  0  0  0
 11 12  1  0  0  0
 11 94  1  0  0  0
 12 13  2  0  0  0
 12 95  1  0  0  0
 13 14  1  0  0  0
 13 31  1  0  0  0
 14 15  2  0  0  0
 14 96  1  0  0  0
 15 97  1  0  0  0
 16 17  2  0  0  0
 16 21  1  0  0  0
 16 31  1  0  0  0
 17 18  1  0  0  0
 17 98  1  0  0  0
 18 19  2  0  0  0
 18 99  1  0  0  0
 19 20  1  0  0  0
 19 24  1  0  0  0
 20 21  2  0  0  0
 20100  1  0  0  0
 21 23  1  0  0  0
 22 28  1  0  0  0
 22 32  2  0  0  0
 26 27  1  0  0  0
 28101  1  0  0  0
 28102  1  0  0  0
 29103  1  0  0  0
 29104  1  0  0  0
 33 34  1  0  0  0
 33 66  1  0  0  0
 33 70  2  0  0  0
 34 36  1  0  0  0
 34 59  1  0  0  0
 34105  1  0  0  0
 35 44  2  0  0  0
 35 45  1  0  0  0
 35 68  1  0  0  0
 36 56  1  0  0  0
 36106  1  0  0  0
 37 39  1  0  0  0
 37 47  1  0  0  0
 37 66  1  0  0  0
 37107  1  0  0  0
 38 43  2  0  0  0
 38 46  1  0  0  0
 38 47  1  0  0  0
 39 64  1  0  0  0
 39 67  2  0  0  0
 40 52  1  0  0  0
 40 53  2  0  0  0
 40 58  1  0  0  0
 41108  1  0  0  0
 41109  1  0  0  0
 41110  1  0  0  0
 41 48  1  0  0  0
 42 43  1  0  0  0
 42 66  1  0  0  0
 42111  1  0  0  0
 42112  1  0  0  0
 43 44  1  0  0  0
 44113  1  0  0  0
 45 46  2  0  0  0
 45114  1  0  0  0
 46115  1  0  0  0
 47116  1  0  0  0
 47117  1  0  0  0
 48 56  1  0  0  0
 48 65  1  0  0  0
 48118  1  0  0  0
 49 50  1  0  0  0
 49 53  1  0  0  0
 49 64  1  0  0  0
 49119  1  0  0  0
 50 51  1  0  0  0
 50120  1  0  0  0
 50121  1  0  0  0
 51 52  1  0  0  0
 51122  1  0  0  0
 51123  1  0  0  0
 52124  1  0  0  0
 52125  1  0  0  0
 53 54  1  0  0  0
 54 55  2  0  0  0
 54126  1  0  0  0
 55 57  1  0  0  0
 55127  1  0  0  0
 56 69  2  0  0  0
 57 58  2  0  0  0
 57128  1  0  0  0
 58129  1  0  0  0
 59 60  1  0  0  0
 59 61  1  0  0  0
 59 62  1  0  0  0
 60130  1  0  0  0
 60131  1  0  0  0
 60132  1  0  0  0
 61133  1  0  0  0
 61134  1  0  0  0
 61135  1  0  0  0
 62136  1  0  0  0
 62137  1  0  0  0
 62138  1  0  0  0
 63 65  1  0  0  0
 63139  1  0  0  0
 63140  1  0  0  0
 63141  1  0  0  0
 64142  1  0  0  0
 65143  1  0  0  0
 68 81  1  0  0  0
 71 72  2  0  0  0
 71 74  1  0  0  0
 71144  1  0  0  0
 72 75  1  0  0  0
 72145  1  0  0  0
 73 74  2  0  0  0
 73 76  1  0  0  0
 73146  1  0  0  0
 74 78  1  0  0  0
 75 76  2  0  0  0
 75 77  1  0  0  0
 76 84  1  0  0  0
 77 82  1  0  0  0
 77147  1  0  0  0
 77148  1  0  0  0
 78 83  1  0  0  0
 78149  1  0  0  0
 78150  1  0  0  0
 79 80  1  0  0  0
 79 81  1  0  0  0
 79151  1  0  0  0
 79152  1  0  0  0
 80 83  1  0  0  0
 80153  1  0  0  0
 80154  1  0  0  0
 81155  1  0  0  0
 81156  1  0  0  0
 82157  1  0  0  0
 83158  1  0  0  0
 83159  1  0  0  0
M  CHG  1  83   1
M  ISO  4   1 100  68 101  81 101  82 100
M  END
> <chiral flag>
0

> <version>
0

> <s_m_source_file>
/data/baiqing/PycharmProjects/Reinvent-master-3.2/result/LINK_invent/BTK/process_docking_weight1_custom_product_contain_oxygen_bond_distance_aromatic_linkinvent_7_9_3/rearranged_h_0004.sdf

> <i_m_source_file_index>
9

> <r_mmod_Potential_Energy-OPLS-2005>
-265.684295654297

> <r_mmod_Stretch_Energy-OPLS-2005>
32.7531242370605

> <r_mmod_Bend_Energy-OPLS-2005>
93.6863098144531

> <r_mmod_Torsional_Energy-OPLS-2005>
248.330352783203

> <r_mmod_Improper_Torsional_Energy-OPLS-2005>
11.0152006149292

> <r_mmod_Van_der_Waal_Energy-OPLS-2005>
148.293121337891

> <r_mmod_Electrostatic_Energy-OPLS-2005>
-327.218719482422

> <r_mmod_Solvation_Energy-OPLS-2005>
-484.427276611328

> <b_mmod_Minimization_Converged-OPLS-2005>
0

> <r_mmod_RMS_Derivative-OPLS-2005>
2.32781672477722

$$$$
9
                    3D
 Structure written by MMmdl.
160169  0  0  1  0            999 V2000
  -30.7359  -14.5585   20.5031 C   0  0  0  0  0  0
  -30.4128  -12.3475   19.4480 C   0  0  0  0  0  0
  -29.5002  -12.5013   18.2162 C   0  0  0  0  0  0
  -28.0206  -12.3703   18.6272 C   0  0  0  0  0  0
  -27.6544  -13.2398   19.8612 C   0  0  2  0  0  0
  -28.7052  -13.1173   20.9902 C   0  0  0  0  0  0
  -25.2531  -13.8232   20.5699 C   0  0  0  0  0  0
  -24.1823  -13.0452   20.9204 C   0  0  0  0  0  0
  -24.6440  -11.6932   20.8762 C   0  0  0  0  0  0
  -23.9123  -10.4297   21.0425 C   0  0  0  0  0  0
  -24.3664   -9.4195   21.9199 C   0  0  0  0  0  0
  -23.6319   -8.2240   22.0759 C   0  0  0  0  0  0
  -22.4292   -8.0300   21.3551 C   0  0  0  0  0  0
  -21.9945   -9.0279   20.4650 C   0  0  0  0  0  0
  -22.7295  -10.2148   20.3066 C   0  0  0  0  0  0
  -21.6851   -6.0749   22.5270 C   0  0  0  0  0  0
  -21.4021   -6.5639   23.8214 C   0  0  0  0  0  0
  -21.3663   -5.6786   24.9170 C   0  0  0  0  0  0
  -21.6040   -4.3053   24.7218 C   0  0  0  0  0  0
  -21.8810   -3.8146   23.4340 C   0  0  0  0  0  0
  -21.9184   -4.6967   22.3394 C   0  0  0  0  0  0
  -22.7823  -13.5217   21.1833 C   0  0  0  0  0  0
  -22.1648   -4.2152   21.0981 F   0  0  0  0  0  0
  -21.5630   -3.4536   25.7741 F   0  0  0  0  0  0
  -30.0243  -13.3962   20.4082 N   0  0  0  0  0  0
  -26.3018  -12.9476   20.3379 N   0  0  0  0  0  0
  -25.9395  -11.6595   20.5815 N   0  0  0  0  0  0
  -22.0470  -12.8228   22.0398 N   0  0  0  0  0  0
  -25.4167  -15.1973   20.4100 N   0  0  0  0  0  0
  -31.8927  -14.6325   20.0869 O   0  0  0  0  0  0
  -21.6634   -6.8907   21.4244 O   0  0  0  0  0  0
  -22.3501  -14.5508   20.6663 O   0  0  0  0  0  0
  -24.6231  -31.8612   23.2021 C   0  0  0  0  0  0
  -25.9096  -32.4762   23.8346 C   0  0  1  0  0  0
  -27.2252  -27.3675   20.0950 C   0  0  0  0  0  0
  -25.5940  -33.8556   24.2305 N   0  0  0  0  0  0
  -23.4116  -30.4853   21.5456 C   0  0  2  0  0  0
  -24.8518  -28.9377   20.1126 C   0  0  0  0  0  0
  -22.7434  -29.4646   22.4953 C   0  0  0  0  0  0
  -18.0274  -28.1378   22.8515 C   0  0  0  0  0  0
  -24.1475  -36.7261   23.2641 C   0  0  0  0  0  0
  -25.9485  -30.8036   21.3653 C   0  0  0  0  0  0
  -26.0169  -29.4344   20.7085 C   0  0  0  0  0  0
  -27.2034  -28.6571   20.6925 C   0  0  0  0  0  0
  -26.0385  -26.8971   19.4933 C   0  0  0  0  0  0
  -24.8604  -27.6709   19.5000 C   0  0  0  0  0  0
  -23.6194  -29.8121   20.1631 C   0  0  0  0  0  0
  -25.4093  -36.3070   24.0351 C   0  0  1  0  0  0
  -20.5874  -28.3665   23.1310 C   0  0  2  0  0  0
  -20.6748  -26.9386   22.5417 C   0  0  0  0  0  0
  -19.5726  -26.6382   21.5209 C   0  0  0  0  0  0
  -18.1916  -26.7923   22.1638 C   0  0  0  0  0  0
  -19.1527  -28.8821   23.2914 C   0  0  0  0  0  0
  -18.9462  -30.1432   23.8914 C   0  0  0  0  0  0
  -17.6467  -30.6580   24.0560 C   0  0  0  0  0  0
  -25.9043  -34.9441   23.5115 C   0  0  0  0  0  0
  -16.5354  -29.9087   23.6332 C   0  0  0  0  0  0
  -16.7262  -28.6495   23.0371 C   0  0  0  0  0  0
  -26.4493  -31.6563   25.0701 C   0  0  0  0  0  0
  -25.3775  -31.3694   26.1469 C   0  0  0  0  0  0
  -27.0331  -30.2997   24.6132 C   0  0  0  0  0  0
  -27.6055  -32.4296   25.7473 C   0  0  0  0  0  0
  -27.5567  -37.1777   24.8476 C   0  0  0  0  0  0
  -21.4161  -29.3025   22.3694 N   0  0  0  0  0  0
  -26.4266  -37.3773   23.9438 N   0  0  0  0  0  0
  -24.6796  -31.0676   22.0940 N   0  0  0  0  0  0
  -23.4171  -28.8182   23.3030 O   0  0  0  0  0  0
  -28.3886  -26.6078   20.1402 O   0  0  0  0  0  0
  -26.5610  -34.8909   22.4689 O   0  0  0  0  0  0
  -23.5419  -32.1374   23.7405 O   0  0  0  0  0  0
  -29.2990  -20.4118   20.5634 C   0  0  0  0  0  0
  -29.1531  -19.0294   20.9661 C   0  0  0  0  0  0
  -30.5682  -20.5015   20.0257 C   0  0  0  0  0  0
  -30.3266  -18.3285   20.7618 C   0  0  0  0  0  0
  -31.3661  -21.5464   19.4806 C   0  0  0  0  0  0
  -32.6235  -21.2496   19.0285 C   0  0  0  0  0  0
  -33.1044  -19.9289   19.1443 C   0  0  0  0  0  0
  -28.3861  -21.6165   20.7926 C   0  0  0  0  0  0
  -27.9461  -18.4050   21.6060 C   0  0  0  0  0  0
  -30.7954  -16.9547   21.3000 C   0  0  0  0  0  0
  -27.8891  -24.0561   20.3332 C   0  0  0  0  0  0
  -28.4849  -25.2804   19.5460 C   0  0  0  0  0  0
  -32.4575  -18.9015   19.6876 N   0  0  0  0  0  0
  -31.1962  -19.2213   20.1072 N   0  0  0  0  0  0
  -28.5516  -22.7455   20.0595 N   0  0  0  0  0  0
  -30.1024  -15.6770   20.9445 N   0  0  0  0  0  0
  -27.5088  -21.5686   21.6551 O   0  0  0  0  0  0
  -31.4628  -12.4071   19.1562 H   0  0  0  0  0  0
  -30.2847  -11.3627   19.8983 H   0  0  0  0  0  0
  -29.7449  -11.7483   17.4657 H   0  0  0  0  0  0
  -29.6720  -13.4708   17.7474 H   0  0  0  0  0  0
  -27.8314  -11.3198   18.8484 H   0  0  0  0  0  0
  -27.3727  -12.6237   17.7873 H   0  0  0  0  0  0
  -27.6696  -14.2752   19.5178 H   0  0  0  0  0  0
  -28.6966  -12.1165   21.4231 H   0  0  0  0  0  0
  -28.4812  -13.8067   21.8056 H   0  0  0  0  0  0
  -25.2824   -9.5631   22.4769 H   0  0  0  0  0  0
  -23.9983   -7.4635   22.7517 H   0  0  0  0  0  0
  -21.0843   -8.8828   19.8992 H   0  0  0  0  0  0
  -22.3781  -10.9683   19.6154 H   0  0  0  0  0  0
  -21.2024   -7.6147   23.9711 H   0  0  0  0  0  0
  -21.1497   -6.0529   25.9078 H   0  0  0  0  0  0
  -22.0595   -2.7608   23.2836 H   0  0  0  0  0  0
  -22.4086  -11.9904   22.4803 H   0  0  0  0  0  0
  -21.1104  -13.1272   22.2626 H   0  0  0  0  0  0
  -24.6434  -15.8462   20.5131 H   0  0  0  0  0  0
  -26.2612  -15.6368   20.0654 H   0  0  0  0  0  0
  -26.7150  -32.5432   23.1089 H   0  0  0  0  0  0
  -25.0094  -33.9673   25.0454 H   0  0  0  0  0  0
  -22.7037  -31.3039   21.4024 H   0  0  0  0  0  0
  -23.3739  -35.9593   23.3311 H   0  0  0  0  0  0
  -24.3560  -36.8869   22.2053 H   0  0  0  0  0  0
  -23.7208  -37.6458   23.6640 H   0  0  0  0  0  0
  -26.0823  -31.5674   20.5968 H   0  0  0  0  0  0
  -26.8295  -30.8464   21.9950 H   0  0  0  0  0  0
  -28.1037  -29.0393   21.1523 H   0  0  0  0  0  0
  -25.9961  -25.9241   19.0291 H   0  0  0  0  0  0
  -23.9625  -27.2796   19.0403 H   0  0  0  0  0  0
  -23.7293  -30.5827   19.4008 H   0  0  0  0  0  0
  -22.7415  -29.2354   19.8683 H   0  0  0  0  0  0
  -25.1262  -36.1921   25.0843 H   0  0  0  0  0  0
  -20.9989  -28.3224   24.1425 H   0  0  0  0  0  0
  -20.5620  -26.2261   23.3609 H   0  0  0  0  0  0
  -21.6620  -26.7391   22.1224 H   0  0  0  0  0  0
  -19.6866  -25.6297   21.1214 H   0  0  0  0  0  0
  -19.6658  -27.3208   20.6761 H   0  0  0  0  0  0
  -17.4176  -26.6686   21.4051 H   0  0  0  0  0  0
  -18.0316  -26.0045   22.9022 H   0  0  0  0  0  0
  -19.7930  -30.7254   24.2286 H   0  0  0  0  0  0
  -17.5015  -31.6267   24.5157 H   0  0  0  0  0  0
  -15.5348  -30.3007   23.7615 H   0  0  0  0  0  0
  -15.8673  -28.0802   22.7112 H   0  0  0  0  0  0
  -24.5949  -30.7014   25.7852 H   0  0  0  0  0  0
  -24.8949  -32.2849   26.4900 H   0  0  0  0  0  0
  -25.8155  -30.8900   27.0244 H   0  0  0  0  0  0
  -26.2888  -29.6731   24.1193 H   0  0  0  0  0  0
  -27.4094  -29.7252   25.4609 H   0  0  0  0  0  0
  -27.8735  -30.4277   23.9304 H   0  0  0  0  0  0
  -27.2657  -33.3595   26.2055 H   0  0  0  0  0  0
  -28.3868  -32.6870   25.0307 H   0  0  0  0  0  0
  -28.0726  -31.8425   26.5394 H   0  0  0  0  0  0
  -28.2601  -38.0065   24.7536 H   0  0  0  0  0  0
  -28.1053  -36.2600   24.6287 H   0  0  0  0  0  0
  -27.2294  -37.1416   25.8884 H   0  0  0  0  0  0
  -20.9306  -29.8733   21.6914 H   0  0  0  0  0  0
  -26.0148  -38.2844   24.1470 H   0  0  0  0  0  0
  -31.0023  -22.5645   19.4219 H   0  0  0  0  0  0
  -33.2411  -22.0326   18.5898 H   0  0  0  0  0  0
  -34.1042  -19.7123   18.7781 H   0  0  0  0  0  0
  -27.2180  -18.1057   20.8511 H   0  0  0  0  0  0
  -27.4565  -19.0715   22.3124 H   0  0  0  0  0  0
  -28.2124  -17.5041   22.1589 H   0  0  0  0  0  0
  -30.7203  -17.0069   22.3862 H   0  0  0  0  0  0
  -31.8702  -16.8508   21.1456 H   0  0  0  0  0  0
  -26.8281  -23.9574   20.0982 H   0  0  0  0  0  0
  -27.9493  -24.2566   21.4052 H   0  0  0  0  0  0
  -29.5591  -25.1110   19.4520 H   0  0  0  0  0  0
  -28.1204  -25.2989   18.5184 H   0  0  0  0  0  0
  -29.2103  -22.7120   19.2946 H   0  0  0  0  0  0
  -29.1443  -15.5675   21.2399 H   0  0  0  0  0  0
  1 25  1  0  0  0
  1 30  2  0  0  0
  1 86  1  0  0  0
  2  3  1  0  0  0
  2 25  1  0  0  0
  2 88  1  0  0  0
  2 89  1  0  0  0
  3  4  1  0  0  0
  3 90  1  0  0  0
  3 91  1  0  0  0
  4  5  1  0  0  0
  4 92  1  0  0  0
  4 93  1  0  0  0
  5  6  1  0  0  0
  5 26  1  0  0  0
  5 94  1  0  0  0
  6 25  1  0  0  0
  6 95  1  0  0  0
  6 96  1  0  0  0
  7  8  2  0  0  0
  7 26  1  0  0  0
  7 29  1  0  0  0
  8  9  1  0  0  0
  8 22  1  0  0  0
  9 10  1  0  0  0
  9 27  2  0  0  0
 10 11  2  0  0  0
 10 15  1  0  0  0
 11 12  1  0  0  0
 11 97  1  0  0  0
 12 13  2  0  0  0
 12 98  1  0  0  0
 13 14  1  0  0  0
 13 31  1  0  0  0
 14 15  2  0  0  0
 14 99  1  0  0  0
 15100  1  0  0  0
 16 17  2  0  0  0
 16 21  1  0  0  0
 16 31  1  0  0  0
 17 18  1  0  0  0
 17101  1  0  0  0
 18 19  2  0  0  0
 18102  1  0  0  0
 19 20  1  0  0  0
 19 24  1  0  0  0
 20 21  2  0  0  0
 20103  1  0  0  0
 21 23  1  0  0  0
 22 28  1  0  0  0
 22 32  2  0  0  0
 26 27  1  0  0  0
 28104  1  0  0  0
 28105  1  0  0  0
 29106  1  0  0  0
 29107  1  0  0  0
 33 34  1  0  0  0
 33 66  1  0  0  0
 33 70  2  0  0  0
 34 36  1  0  0  0
 34 59  1  0  0  0
 34108  1  0  0  0
 35 44  2  0  0  0
 35 45  1  0  0  0
 35 68  1  0  0  0
 36 56  1  0  0  0
 36109  1  0  0  0
 37 39  1  0  0  0
 37 47  1  0  0  0
 37 66  1  0  0  0
 37110  1  0  0  0
 38 43  2  0  0  0
 38 46  1  0  0  0
 38 47  1  0  0  0
 39 64  1  0  0  0
 39 67  2  0  0  0
 40 52  1  0  0  0
 40 53  2  0  0  0
 40 58  1  0  0  0
 41111  1  0  0  0
 41112  1  0  0  0
 41113  1  0  0  0
 41 48  1  0  0  0
 42 43  1  0  0  0
 42 66  1  0  0  0
 42114  1  0  0  0
 42115  1  0  0  0
 43 44  1  0  0  0
 44116  1  0  0  0
 45 46  2  0  0  0
 45117  1  0  0  0
 46118  1  0  0  0
 47119  1  0  0  0
 47120  1  0  0  0
 48 56  1  0  0  0
 48 65  1  0  0  0
 48121  1  0  0  0
 49 50  1  0  0  0
 49 53  1  0  0  0
 49 64  1  0  0  0
 49122  1  0  0  0
 50 51  1  0  0  0
 50123  1  0  0  0
 50124  1  0  0  0
 51 52  1  0  0  0
 51125  1  0  0  0
 51126  1  0  0  0
 52127  1  0  0  0
 52128  1  0  0  0
 53 54  1  0  0  0
 54 55  2  0  0  0
 54129  1  0  0  0
 55 57  1  0  0  0
 55130  1  0  0  0
 56 69  2  0  0  0
 57 58  2  0  0  0
 57131  1  0  0  0
 58132  1  0  0  0
 59 60  1  0  0  0
 59 61  1  0  0  0
 59 62  1  0  0  0
 60133  1  0  0  0
 60134  1  0  0  0
 60135  1  0  0  0
 61136  1  0  0  0
 61137  1  0  0  0
 61138  1  0  0  0
 62139  1  0  0  0
 62140  1  0  0  0
 62141  1  0  0  0
 63 65  1  0  0  0
 63142  1  0  0  0
 63143  1  0  0  0
 63144  1  0  0  0
 64145  1  0  0  0
 65146  1  0  0  0
 68 82  1  0  0  0
 71 72  1  0  0  0
 71 73  2  0  0  0
 71 78  1  0  0  0
 72 74  2  0  0  0
 72 79  1  0  0  0
 73 75  1  0  0  0
 73 84  1  0  0  0
 74 80  1  0  0  0
 74 84  1  0  0  0
 75 76  2  0  0  0
 75147  1  0  0  0
 76 77  1  0  0  0
 76148  1  0  0  0
 77 83  2  0  0  0
 77149  1  0  0  0
 78 85  1  0  0  0
 78 87  2  0  0  0
 79150  1  0  0  0
 79151  1  0  0  0
 79152  1  0  0  0
 80 86  1  0  0  0
 80153  1  0  0  0
 80154  1  0  0  0
 81 82  1  0  0  0
 81 85  1  0  0  0
 81155  1  0  0  0
 81156  1  0  0  0
 82157  1  0  0  0
 82158  1  0  0  0
 83 84  1  0  0  0
 85159  1  0  0  0
 86160  1  0  0  0
M  ISO  4   1 100  68 101  82 101  86 100
M  END
> <chiral flag>
0

> <version>
0

> <s_m_source_file>
/data/baiqing/PycharmProjects/Reinvent-master-3.2/result/LINK_invent/BTK/process_docking_weight1_custom_product_contain_oxygen_bond_distance_aromatic_linkinvent_7_9_3/rearranged_h_0004.sdf

> <i_m_source_file_index>
10

> <r_mmod_Potential_Energy-OPLS-2005>
-174.052261352539

> <r_mmod_Stretch_Energy-OPLS-2005>
60.5276947021484

> <r_mmod_Bend_Energy-OPLS-2005>
140.786056518555

> <r_mmod_Torsional_Energy-OPLS-2005>
210.550247192383

> <r_mmod_Improper_Torsional_Energy-OPLS-2005>
5.20167827606201

> <r_mmod_Van_der_Waal_Energy-OPLS-2005>
149.618698120117

> <r_mmod_Electrostatic_Energy-OPLS-2005>
-517.013916015625

> <r_mmod_Solvation_Energy-OPLS-2005>
-255.005172729492

> <b_mmod_Minimization_Converged-OPLS-2005>
0

> <r_mmod_RMS_Derivative-OPLS-2005>
4.14214897155762

$$$$
10
                    3D
 Structure written by MMmdl.
162170  0  0  1  0            999 V2000
  -30.6431  -14.5594   20.4658 C   0  0  0  0  0  0
  -30.4318  -12.3184   19.4578 C   0  0  0  0  0  0
  -29.5031  -12.4187   18.2258 C   0  0  0  0  0  0
  -28.0178  -12.3241   18.6317 C   0  0  0  0  0  0
  -27.6531  -13.2046   19.8572 C   0  0  2  0  0  0
  -28.6943  -13.0456   20.9875 C   0  0  0  0  0  0
  -25.2576  -13.8173   20.5688 C   0  0  0  0  0  0
  -24.1824  -13.0450   20.9188 C   0  0  0  0  0  0
  -24.6365  -11.6919   20.8751 C   0  0  0  0  0  0
  -23.9049  -10.4297   21.0425 C   0  0  0  0  0  0
  -24.3601   -9.4203   21.9190 C   0  0  0  0  0  0
  -23.6281   -8.2238   22.0748 C   0  0  0  0  0  0
  -22.4271   -8.0287   21.3543 C   0  0  0  0  0  0
  -21.9911   -9.0256   20.4645 C   0  0  0  0  0  0
  -22.7231  -10.2136   20.3063 C   0  0  0  0  0  0
  -21.6861   -6.0748   22.5279 C   0  0  0  0  0  0
  -21.4008   -6.5639   23.8216 C   0  0  0  0  0  0
  -21.3646   -5.6783   24.9166 C   0  0  0  0  0  0
  -21.6032   -4.3047   24.7216 C   0  0  0  0  0  0
  -21.8814   -3.8154   23.4329 C   0  0  0  0  0  0
  -21.9184   -4.6971   22.3393 C   0  0  0  0  0  0
  -22.7841  -13.5255   21.1834 C   0  0  0  0  0  0
  -22.1667   -4.2167   21.0967 F   0  0  0  0  0  0
  -21.5625   -3.4513   25.7724 F   0  0  0  0  0  0
  -30.0174  -13.3482   20.4235 N   0  0  0  0  0  0
  -26.2978  -12.9330   20.3302 N   0  0  0  0  0  0
  -25.9285  -11.6501   20.5771 N   0  0  0  0  0  0
  -22.0467  -12.8266   22.0390 N   0  0  0  0  0  0
  -25.4313  -15.1896   20.4098 N   0  0  0  0  0  0
  -31.8260  -14.7001   20.1493 O   0  0  0  0  0  0
  -21.6634   -6.8895   21.4247 O   0  0  0  0  0  0
  -22.3543  -14.5564   20.6676 O   0  0  0  0  0  0
  -24.6181  -31.8657   23.2083 C   0  0  0  0  0  0
  -25.9077  -32.4807   23.8377 C   0  0  1  0  0  0
  -27.2352  -27.4031   20.0937 C   0  0  0  0  0  0
  -25.5930  -33.8604   24.2327 N   0  0  0  0  0  0
  -23.4064  -30.4917   21.5492 C   0  0  2  0  0  0
  -24.8490  -28.9505   20.1162 C   0  0  0  0  0  0
  -22.7425  -29.4657   22.4973 C   0  0  0  0  0  0
  -18.0282  -28.1376   22.8483 C   0  0  0  0  0  0
  -24.1488  -36.7300   23.2636 C   0  0  0  0  0  0
  -25.9385  -30.8218   21.3652 C   0  0  0  0  0  0
  -26.0119  -29.4539   20.7107 C   0  0  0  0  0  0
  -27.2027  -28.6882   20.6933 C   0  0  0  0  0  0
  -26.0436  -26.9159   19.5066 C   0  0  0  0  0  0
  -24.8624  -27.6820   19.5120 C   0  0  0  0  0  0
  -23.6162  -29.8253   20.1636 C   0  0  0  0  0  0
  -25.4107  -36.3092   24.0334 C   0  0  1  0  0  0
  -20.5874  -28.3675   23.1311 C   0  0  2  0  0  0
  -20.6781  -26.9421   22.5387 C   0  0  0  0  0  0
  -19.5741  -26.6370   21.5209 C   0  0  0  0  0  0
  -18.1915  -26.7924   22.1610 C   0  0  0  0  0  0
  -19.1530  -28.8829   23.2901 C   0  0  0  0  0  0
  -18.9454  -30.1429   23.8919 C   0  0  0  0  0  0
  -17.6457  -30.6571   24.0584 C   0  0  0  0  0  0
  -25.9039  -34.9463   23.5123 C   0  0  0  0  0  0
  -16.5345  -29.9082   23.6330 C   0  0  0  0  0  0
  -16.7264  -28.6512   23.0327 C   0  0  0  0  0  0
  -26.4503  -31.6589   25.0713 C   0  0  0  0  0  0
  -25.3778  -31.3692   26.1470 C   0  0  0  0  0  0
  -27.0337  -30.3024   24.6103 C   0  0  0  0  0  0
  -27.6069  -32.4313   25.7483 C   0  0  0  0  0  0
  -27.5576  -37.1808   24.8467 C   0  0  0  0  0  0
  -21.4143  -29.3049   22.3726 N   0  0  0  0  0  0
  -26.4286  -37.3784   23.9417 N   0  0  0  0  0  0
  -24.6729  -31.0748   22.0987 N   0  0  0  0  0  0
  -23.4193  -28.8186   23.3007 O   0  0  0  0  0  0
  -28.4302  -26.6973   20.1102 O   0  0  0  0  0  0
  -26.5589  -34.8923   22.4679 O   0  0  0  0  0  0
  -23.5371  -32.1412   23.7477 O   0  0  0  0  0  0
  -29.5089  -19.5954   19.0919 C   0  0  0  0  0  0
  -30.0641  -18.5783   18.3032 C   0  0  0  0  0  0
  -29.2758  -18.0150   20.9218 C   0  0  0  0  0  0
  -29.0795  -19.3360   20.4070 C   0  0  0  0  0  0
  -30.1874  -17.2608   18.7883 C   0  0  0  0  0  0
  -29.8289  -16.9579   20.1382 C   0  0  0  0  0  0
  -30.5901  -16.2146   17.7656 C   0  0  0  0  0  0
  -27.8569  -20.0368   22.5758 C   0  0  0  0  0  0
  -28.5448  -24.2466   20.6912 C   0  0  0  0  0  0
  -28.7379  -22.7875   20.1598 C   0  0  0  0  0  0
  -28.5460  -25.3503   19.5923 C   0  0  0  0  0  0
  -28.3051  -20.4527   21.1607 C   0  0  1  0  0  0
  -29.8286  -15.6219   20.7016 N   0  0  0  0  0  0
  -29.0016  -21.7761   21.2344 N   0  3  0  0  0  0
  -31.4750  -12.4275   19.1548 H   0  0  0  0  0  0
  -30.3579  -11.3291   19.9125 H   0  0  0  0  0  0
  -29.7378  -11.6211   17.5189 H   0  0  0  0  0  0
  -29.6832  -13.3419   17.6859 H   0  0  0  0  0  0
  -27.8179  -11.2772   18.8598 H   0  0  0  0  0  0
  -27.3786  -12.5753   17.7843 H   0  0  0  0  0  0
  -27.6790  -14.2378   19.5107 H   0  0  0  0  0  0
  -28.6795  -12.0275   21.3807 H   0  0  0  0  0  0
  -28.4547  -13.6947   21.8314 H   0  0  0  0  0  0
  -25.2733   -9.5680   22.4778 H   0  0  0  0  0  0
  -23.9975   -7.4625   22.7474 H   0  0  0  0  0  0
  -21.0838   -8.8779   19.8954 H   0  0  0  0  0  0
  -22.3690  -10.9676   19.6184 H   0  0  0  0  0  0
  -21.2025   -7.6155   23.9732 H   0  0  0  0  0  0
  -21.1473   -6.0508   25.9076 H   0  0  0  0  0  0
  -22.0614   -2.7623   23.2817 H   0  0  0  0  0  0
  -22.4049  -11.9924   22.4784 H   0  0  0  0  0  0
  -21.1091  -13.1346   22.2593 H   0  0  0  0  0  0
  -24.6642  -15.8444   20.5157 H   0  0  0  0  0  0
  -26.2763  -15.6258   20.0646 H   0  0  0  0  0  0
  -26.7152  -32.5519   23.1138 H   0  0  0  0  0  0
  -25.0145  -33.9762   25.0517 H   0  0  0  0  0  0
  -22.6944  -31.3083   21.4119 H   0  0  0  0  0  0
  -23.3744  -35.9644   23.3308 H   0  0  0  0  0  0
  -24.3570  -36.8899   22.2044 H   0  0  0  0  0  0
  -23.7242  -37.6511   23.6643 H   0  0  0  0  0  0
  -26.0567  -31.5867   20.5967 H   0  0  0  0  0  0
  -26.8243  -30.8695   21.9877 H   0  0  0  0  0  0
  -28.1025  -29.0812   21.1448 H   0  0  0  0  0  0
  -25.9852  -25.9457   19.0412 H   0  0  0  0  0  0
  -23.9668  -27.2836   19.0552 H   0  0  0  0  0  0
  -23.7331  -30.6039   19.4086 H   0  0  0  0  0  0
  -22.7371  -29.2529   19.8617 H   0  0  0  0  0  0
  -25.1285  -36.1959   25.0824 H   0  0  0  0  0  0
  -20.9987  -28.3220   24.1423 H   0  0  0  0  0  0
  -20.5718  -26.2294   23.3581 H   0  0  0  0  0  0
  -21.6641  -26.7491   22.1154 H   0  0  0  0  0  0
  -19.6918  -25.6275   21.1251 H   0  0  0  0  0  0
  -19.6661  -27.3168   20.6730 H   0  0  0  0  0  0
  -17.4193  -26.6707   21.3996 H   0  0  0  0  0  0
  -18.0263  -26.0056   22.8983 H   0  0  0  0  0  0
  -19.7939  -30.7237   24.2285 H   0  0  0  0  0  0
  -17.5016  -31.6242   24.5208 H   0  0  0  0  0  0
  -15.5345  -30.2984   23.7656 H   0  0  0  0  0  0
  -15.8658  -28.0857   22.7003 H   0  0  0  0  0  0
  -24.5958  -30.7024   25.7828 H   0  0  0  0  0  0
  -24.8967  -32.2839   26.4942 H   0  0  0  0  0  0
  -25.8148  -30.8864   27.0219 H   0  0  0  0  0  0
  -26.2880  -29.6765   24.1180 H   0  0  0  0  0  0
  -27.4119  -29.7276   25.4571 H   0  0  0  0  0  0
  -27.8719  -30.4322   23.9248 H   0  0  0  0  0  0
  -27.2683  -33.3606   26.2080 H   0  0  0  0  0  0
  -28.3877  -32.6878   25.0312 H   0  0  0  0  0  0
  -28.0744  -31.8425   26.5386 H   0  0  0  0  0  0
  -28.2608  -38.0095   24.7505 H   0  0  0  0  0  0
  -28.1050  -36.2620   24.6305 H   0  0  0  0  0  0
  -27.2288  -37.1483   25.8869 H   0  0  0  0  0  0
  -20.9291  -29.8806   21.6984 H   0  0  0  0  0  0
  -26.0169  -38.2866   24.1413 H   0  0  0  0  0  0
  -29.3604  -20.5666   18.6421 H   0  0  0  0  0  0
  -30.3309  -18.8104   17.2804 H   0  0  0  0  0  0
  -28.9461  -17.7753   21.9223 H   0  0  0  0  0  0
  -30.5980  -16.6259   16.7554 H   0  0  0  0  0  0
  -29.8545  -15.4179   17.7659 H   0  0  0  0  0  0
  -31.5852  -15.8166   17.9562 H   0  0  0  0  0  0
  -27.2241  -19.1489   22.5423 H   0  0  0  0  0  0
  -27.2633  -20.8203   23.0497 H   0  0  0  0  0  0
  -28.7046  -19.8229   23.2280 H   0  0  0  0  0  0
  -29.3391  -24.4792   21.4010 H   0  0  0  0  0  0
  -27.6082  -24.3038   21.2474 H   0  0  0  0  0  0
  -29.5804  -22.7591   19.4657 H   0  0  0  0  0  0
  -27.8603  -22.5113   19.5736 H   0  0  0  0  0  0
  -27.8394  -25.1160   18.8004 H   0  0  0  0  0  0
  -29.5145  -25.3150   19.0929 H   0  0  0  0  0  0
  -27.3781  -20.5971   20.6026 H   0  0  0  0  0  0
  -28.9826  -15.3778   21.1920 H   0  0  0  0  0  0
  -28.6922  -22.1943   22.0945 H   0  0  0  0  0  0
  -29.9920  -21.6215   21.3320 H   0  0  0  0  0  0
  1 25  1  0  0  0
  1 30  2  0  0  0
  1 83  1  0  0  0
  2  3  1  0  0  0
  2 25  1  0  0  0
  2 85  1  0  0  0
  2 86  1  0  0  0
  3  4  1  0  0  0
  3 87  1  0  0  0
  3 88  1  0  0  0
  4  5  1  0  0  0
  4 89  1  0  0  0
  4 90  1  0  0  0
  5  6  1  0  0  0
  5 26  1  0  0  0
  5 91  1  0  0  0
  6 25  1  0  0  0
  6 92  1  0  0  0
  6 93  1  0  0  0
  7  8  2  0  0  0
  7 26  1  0  0  0
  7 29  1  0  0  0
  8  9  1  0  0  0
  8 22  1  0  0  0
  9 10  1  0  0  0
  9 27  2  0  0  0
 10 11  2  0  0  0
 10 15  1  0  0  0
 11 12  1  0  0  0
 11 94  1  0  0  0
 12 13  2  0  0  0
 12 95  1  0  0  0
 13 14  1  0  0  0
 13 31  1  0  0  0
 14 15  2  0  0  0
 14 96  1  0  0  0
 15 97  1  0  0  0
 16 17  2  0  0  0
 16 21  1  0  0  0
 16 31  1  0  0  0
 17 18  1  0  0  0
 17 98  1  0  0  0
 18 19  2  0  0  0
 18 99  1  0  0  0
 19 20  1  0  0  0
 19 24  1  0  0  0
 20 21  2  0  0  0
 20100  1  0  0  0
 21 23  1  0  0  0
 22 28  1  0  0  0
 22 32  2  0  0  0
 26 27  1  0  0  0
 28101  1  0  0  0
 28102  1  0  0  0
 29103  1  0  0  0
 29104  1  0  0  0
 33 34  1  0  0  0
 33 66  1  0  0  0
 33 70  2  0  0  0
 34 36  1  0  0  0
 34 59  1  0  0  0
 34105  1  0  0  0
 35 44  2  0  0  0
 35 45  1  0  0  0
 35 68  1  0  0  0
 36 56  1  0  0  0
 36106  1  0  0  0
 37 39  1  0  0  0
 37 47  1  0  0  0
 37 66  1  0  0  0
 37107  1  0  0  0
 38 43  2  0  0  0
 38 46  1  0  0  0
 38 47  1  0  0  0
 39 64  1  0  0  0
 39 67  2  0  0  0
 40 52  1  0  0  0
 40 53  2  0  0  0
 40 58  1  0  0  0
 41108  1  0  0  0
 41109  1  0  0  0
 41110  1  0  0  0
 41 48  1  0  0  0
 42 43  1  0  0  0
 42 66  1  0  0  0
 42111  1  0  0  0
 42112  1  0  0  0
 43 44  1  0  0  0
 44113  1  0  0  0
 45 46  2  0  0  0
 45114  1  0  0  0
 46115  1  0  0  0
 47116  1  0  0  0
 47117  1  0  0  0
 48 56  1  0  0  0
 48 65  1  0  0  0
 48118  1  0  0  0
 49 50  1  0  0  0
 49 53  1  0  0  0
 49 64  1  0  0  0
 49119  1  0  0  0
 50 51  1  0  0  0
 50120  1  0  0  0
 50121  1  0  0  0
 51 52  1  0  0  0
 51122  1  0  0  0
 51123  1  0  0  0
 52124  1  0  0  0
 52125  1  0  0  0
 53 54  1  0  0  0
 54 55  2  0  0  0
 54126  1  0  0  0
 55 57  1  0  0  0
 55127  1  0  0  0
 56 69  2  0  0  0
 57 58  2  0  0  0
 57128  1  0  0  0
 58129  1  0  0  0
 59 60  1  0  0  0
 59 61  1  0  0  0
 59 62  1  0  0  0
 60130  1  0  0  0
 60131  1  0  0  0
 60132  1  0  0  0
 61133  1  0  0  0
 61134  1  0  0  0
 61135  1  0  0  0
 62136  1  0  0  0
 62137  1  0  0  0
 62138  1  0  0  0
 63 65  1  0  0  0
 63139  1  0  0  0
 63140  1  0  0  0
 63141  1  0  0  0
 64142  1  0  0  0
 65143  1  0  0  0
 68 81  1  0  0  0
 71 72  2  0  0  0
 71 74  1  0  0  0
 71144  1  0  0  0
 72 75  1  0  0  0
 72145  1  0  0  0
 73 74  2  0  0  0
 73 76  1  0  0  0
 73146  1  0  0  0
 74 82  1  0  0  0
 75 76  2  0  0  0
 75 77  1  0  0  0
 76 83  1  0  0  0
 77147  1  0  0  0
 77148  1  0  0  0
 77149  1  0  0  0
 78150  1  0  0  0
 78151  1  0  0  0
 78152  1  0  0  0
 78 82  1  0  0  0
 79 80  1  0  0  0
 79 81  1  0  0  0
 79153  1  0  0  0
 79154  1  0  0  0
 80 84  1  0  0  0
 80155  1  0  0  0
 80156  1  0  0  0
 81157  1  0  0  0
 81158  1  0  0  0
 82 84  1  0  0  0
 82159  1  0  0  0
 83160  1  0  0  0
 84161  1  0  0  0
 84162  1  0  0  0
M  CHG  1  84   1
M  ISO  4   1 100  68 101  81 101  83 100
M  END
> <chiral flag>
0

> <version>
0

> <s_m_source_file>
/data/baiqing/PycharmProjects/Reinvent-master-3.2/result/LINK_invent/BTK/process_docking_weight1_custom_product_contain_oxygen_bond_distance_aromatic_linkinvent_7_9_3/rearranged_h_0004.sdf

> <i_m_source_file_index>
11

> <r_mmod_Potential_Energy-OPLS-2005>
-192.665557861328

> <r_mmod_Stretch_Energy-OPLS-2005>
50.5029907226562

> <r_mmod_Bend_Energy-OPLS-2005>
126.777153015137

> <r_mmod_Torsional_Energy-OPLS-2005>
239.748672485352

> <r_mmod_Improper_Torsional_Energy-OPLS-2005>
6.17575836181641

> <r_mmod_Van_der_Waal_Energy-OPLS-2005>
153.206298828125

> <r_mmod_Electrostatic_Energy-OPLS-2005>
-323.392242431641

> <r_mmod_Solvation_Energy-OPLS-2005>
-472.32666015625

> <b_mmod_Minimization_Converged-OPLS-2005>
0

> <r_mmod_RMS_Derivative-OPLS-2005>
2.42520213127136

$$$$
11
                    3D
 Structure written by MMmdl.
178186  0  0  1  0            999 V2000
  -30.6712  -14.5125   20.5297 C   0  0  0  0  0  0
  -30.4215  -12.3003   19.4234 C   0  0  0  0  0  0
  -29.4907  -12.4894   18.2085 C   0  0  0  0  0  0
  -28.0124  -12.3501   18.6252 C   0  0  0  0  0  0
  -27.6566  -13.2066   19.8695 C   0  0  2  0  0  0
  -28.7085  -13.0091   20.9872 C   0  0  0  0  0  0
  -25.2540  -13.8107   20.5643 C   0  0  0  0  0  0
  -24.1843  -13.0394   20.9173 C   0  0  0  0  0  0
  -24.6384  -11.6856   20.8758 C   0  0  0  0  0  0
  -23.9060  -10.4220   21.0438 C   0  0  0  0  0  0
  -24.3634   -9.4127   21.9204 C   0  0  0  0  0  0
  -23.6298   -8.2171   22.0731 C   0  0  0  0  0  0
  -22.4281   -8.0235   21.3515 C   0  0  0  0  0  0
  -21.9954   -9.0201   20.4629 C   0  0  0  0  0  0
  -22.7263  -10.2074   20.3046 C   0  0  0  0  0  0
  -21.6834   -6.0710   22.5275 C   0  0  0  0  0  0
  -21.4001   -6.5627   23.8210 C   0  0  0  0  0  0
  -21.3661   -5.6790   24.9174 C   0  0  0  0  0  0
  -21.6047   -4.3052   24.7248 C   0  0  0  0  0  0
  -21.8820   -3.8141   23.4376 C   0  0  0  0  0  0
  -21.9186   -4.6936   22.3422 C   0  0  0  0  0  0
  -22.7853  -13.5165   21.1844 C   0  0  0  0  0  0
  -22.1657   -4.2140   21.0992 F   0  0  0  0  0  0
  -21.5633   -3.4542   25.7760 F   0  0  0  0  0  0
  -30.0311  -13.3124   20.4147 N   0  0  0  0  0  0
  -26.3020  -12.9320   20.3399 N   0  0  0  0  0  0
  -25.9338  -11.6459   20.5868 N   0  0  0  0  0  0
  -22.0525  -12.8123   22.0407 N   0  0  0  0  0  0
  -25.4166  -15.1830   20.3975 N   0  0  0  0  0  0
  -31.8480  -14.6890   20.2017 O   0  0  0  0  0  0
  -21.6606   -6.8861   21.4233 O   0  0  0  0  0  0
  -22.3512  -14.5457   20.6688 O   0  0  0  0  0  0
  -24.6178  -31.8704   23.2177 C   0  0  0  0  0  0
  -25.9091  -32.4827   23.8412 C   0  0  1  0  0  0
  -27.2488  -27.4352   20.0580 C   0  0  0  0  0  0
  -25.5967  -33.8624   24.2368 N   0  0  0  0  0  0
  -23.4097  -30.5002   21.5573 C   0  0  2  0  0  0
  -24.8566  -28.9800   20.1242 C   0  0  0  0  0  0
  -22.7529  -29.4635   22.4996 C   0  0  0  0  0  0
  -18.0413  -28.1403   22.8658 C   0  0  0  0  0  0
  -24.1526  -36.7376   23.2606 C   0  0  0  0  0  0
  -25.9441  -30.8355   21.3764 C   0  0  0  0  0  0
  -26.0242  -29.4660   20.7239 C   0  0  0  0  0  0
  -27.2163  -28.6955   20.7058 C   0  0  0  0  0  0
  -26.0392  -26.9873   19.4484 C   0  0  0  0  0  0
  -24.8638  -27.7394   19.4819 C   0  0  0  0  0  0
  -23.6330  -29.8645   20.1624 C   0  0  0  0  0  0
  -25.4135  -36.3150   24.0316 C   0  0  1  0  0  0
  -20.5990  -28.3696   23.1539 C   0  0  2  0  0  0
  -20.6853  -26.9393   22.5683 C   0  0  0  0  0  0
  -19.5964  -26.6642   21.5252 C   0  0  0  0  0  0
  -18.2174  -26.7964   22.1743 C   0  0  0  0  0  0
  -19.1637  -28.8856   23.3110 C   0  0  0  0  0  0
  -18.9566  -30.1556   23.8956 C   0  0  0  0  0  0
  -17.6550  -30.6714   24.0483 C   0  0  0  0  0  0
  -25.9007  -34.9486   23.5082 C   0  0  0  0  0  0
  -16.5483  -29.9189   23.6236 C   0  0  0  0  0  0
  -16.7376  -28.6561   23.0357 C   0  0  0  0  0  0
  -26.4532  -31.6596   25.0709 C   0  0  0  0  0  0
  -25.3778  -31.3695   26.1403 C   0  0  0  0  0  0
  -27.0338  -30.3042   24.6082 C   0  0  0  0  0  0
  -27.6147  -32.4229   25.7528 C   0  0  0  0  0  0
  -27.5627  -37.1869   24.8454 C   0  0  0  0  0  0
  -21.4204  -29.3074   22.3897 N   0  0  0  0  0  0
  -26.4351  -37.3822   23.9373 N   0  0  0  0  0  0
  -24.6754  -31.0816   22.1102 N   0  0  0  0  0  0
  -23.4381  -28.8051   23.2832 O   0  0  0  0  0  0
  -28.4193  -26.6778   20.0062 O   0  0  0  0  0  0
  -26.5529  -34.8940   22.4628 O   0  0  0  0  0  0
  -23.5359  -32.1454   23.7571 O   0  0  0  0  0  0
  -27.7315  -16.1194   22.9792 C   0  0  0  0  0  0
  -28.9995  -15.8417   23.5465 C   0  0  0  0  0  0
  -27.6404  -17.0040   21.8790 C   0  0  0  0  0  0
  -30.1714  -16.2593   22.8678 C   0  0  0  0  0  0
  -28.8564  -17.5870   21.4479 C   0  0  0  0  0  0
  -29.9884  -16.7211   21.5484 C   0  0  0  0  0  0
  -29.0754  -21.1764   20.0651 C   0  0  0  0  0  0
  -28.5817  -20.7204   23.6476 C   0  0  0  0  0  0
  -26.6465  -20.2591   22.0906 C   0  0  0  0  0  0
  -27.4548  -19.5527   17.7790 C   0  0  0  0  0  0
  -27.3159  -21.6590   16.4769 C   0  0  0  0  0  0
  -29.3700  -24.3352   19.2260 C   0  0  0  0  0  0
  -28.2874  -25.4340   19.2896 C   0  0  0  0  0  0
  -28.9887  -19.1358   21.5865 C   0  0  2  0  0  0
  -28.8663  -21.7183   18.6166 C   0  0  1  0  0  0
  -27.9786  -19.7218   22.6551 C   0  0  0  0  0  0
  -27.5863  -21.0949   17.8977 C   0  0  0  0  0  0
  -29.8299  -15.5561   20.7168 N   0  0  0  0  0  0
  -28.9490  -19.8518   20.2980 N   0  0  0  0  0  0
  -28.6816  -23.2095   18.5002 N   0  3  0  0  0  0
  -29.3589  -21.9462   20.9798 O   0  0  0  0  0  0
  -31.4729  -12.3870   19.1319 H   0  0  0  0  0  0
  -30.2941  -11.3012   19.8377 H   0  0  0  0  0  0
  -29.7248  -11.7668   17.4309 H   0  0  0  0  0  0
  -29.6601  -13.4735   17.7689 H   0  0  0  0  0  0
  -27.8192  -11.2988   18.8289 H   0  0  0  0  0  0
  -27.3628  -12.6105   17.7909 H   0  0  0  0  0  0
  -27.6795  -14.2462   19.5503 H   0  0  0  0  0  0
  -28.6967  -11.9784   21.3537 H   0  0  0  0  0  0
  -28.4905  -13.6361   21.8490 H   0  0  0  0  0  0
  -25.2760   -9.5582   22.4823 H   0  0  0  0  0  0
  -23.9958   -7.4557   22.7472 H   0  0  0  0  0  0
  -21.0875   -8.8753   19.8974 H   0  0  0  0  0  0
  -22.3735  -10.9624   19.6186 H   0  0  0  0  0  0
  -21.1973   -7.6138   23.9727 H   0  0  0  0  0  0
  -21.1495   -6.0513   25.9094 H   0  0  0  0  0  0
  -22.0607   -2.7604   23.2880 H   0  0  0  0  0  0
  -22.4152  -11.9771   22.4773 H   0  0  0  0  0  0
  -21.1149  -13.1171   22.2656 H   0  0  0  0  0  0
  -24.6433  -15.8294   20.4848 H   0  0  0  0  0  0
  -26.2891  -15.6418   20.1809 H   0  0  0  0  0  0
  -26.7197  -32.5569   23.1205 H   0  0  0  0  0  0
  -25.0357  -33.9797   25.0677 H   0  0  0  0  0  0
  -22.6974  -31.3119   21.4209 H   0  0  0  0  0  0
  -23.3751  -35.9742   23.3284 H   0  0  0  0  0  0
  -24.3646  -36.8978   22.2027 H   0  0  0  0  0  0
  -23.7333  -37.6609   23.6596 H   0  0  0  0  0  0
  -26.0341  -31.5953   20.5973 H   0  0  0  0  0  0
  -26.8369  -30.8993   21.9861 H   0  0  0  0  0  0
  -28.1059  -29.0761   21.1918 H   0  0  0  0  0  0
  -25.9524  -26.0629   18.9051 H   0  0  0  0  0  0
  -23.9769  -27.3779   18.9814 H   0  0  0  0  0  0
  -23.7852  -30.6589   19.4277 H   0  0  0  0  0  0
  -22.7503  -29.3255   19.8186 H   0  0  0  0  0  0
  -25.1325  -36.2024   25.0818 H   0  0  0  0  0  0
  -21.0154  -28.3260   24.1668 H   0  0  0  0  0  0
  -20.5376  -26.2429   23.3950 H   0  0  0  0  0  0
  -21.6850  -26.7123   22.1914 H   0  0  0  0  0  0
  -19.7261  -25.6770   21.0847 H   0  0  0  0  0  0
  -19.7026  -27.3780   20.7111 H   0  0  0  0  0  0
  -17.4344  -26.6493   21.4278 H   0  0  0  0  0  0
  -18.0765  -26.0177   22.9287 H   0  0  0  0  0  0
  -19.8051  -30.7404   24.2311 H   0  0  0  0  0  0
  -17.5078  -31.6488   24.4908 H   0  0  0  0  0  0
  -15.5502  -30.3153   23.7493 H   0  0  0  0  0  0
  -15.8740  -28.0979   22.7007 H   0  0  0  0  0  0
  -24.6021  -30.6975   25.7769 H   0  0  0  0  0  0
  -24.8845  -32.2796   26.4788 H   0  0  0  0  0  0
  -25.8043  -30.8953   27.0228 H   0  0  0  0  0  0
  -26.2861  -29.6798   24.1176 H   0  0  0  0  0  0
  -27.4179  -29.7300   25.4540 H   0  0  0  0  0  0
  -27.8673  -30.4425   23.9186 H   0  0  0  0  0  0
  -27.2856  -33.3531   26.2177 H   0  0  0  0  0  0
  -28.3960  -32.6736   25.0345 H   0  0  0  0  0  0
  -28.0770  -31.8234   26.5384 H   0  0  0  0  0  0
  -28.2617  -38.0196   24.7469 H   0  0  0  0  0  0
  -28.1136  -36.2697   24.6292 H   0  0  0  0  0  0
  -27.2294  -37.1547   25.8844 H   0  0  0  0  0  0
  -20.9210  -29.9024   21.7482 H   0  0  0  0  0  0
  -26.0226  -38.2916   24.1282 H   0  0  0  0  0  0
  -26.8319  -15.7735   23.4691 H   0  0  0  0  0  0
  -29.0710  -15.2841   24.4660 H   0  0  0  0  0  0
  -26.6767  -17.4608   21.7006 H   0  0  0  0  0  0
  -31.1426  -15.9387   23.2211 H   0  0  0  0  0  0
  -28.0763  -20.6472   24.6168 H   0  0  0  0  0  0
  -28.4871  -21.7524   23.3207 H   0  0  0  0  0  0
  -29.6384  -20.5273   23.8401 H   0  0  0  0  0  0
  -25.8841  -20.2842   22.8683 H   0  0  0  0  0  0
  -26.2727  -19.6474   21.2637 H   0  0  0  0  0  0
  -26.7436  -21.2771   21.7308 H   0  0  0  0  0  0
  -26.6062  -19.2674   17.1556 H   0  0  0  0  0  0
  -27.2496  -19.0591   18.7221 H   0  0  0  0  0  0
  -28.3310  -19.1018   17.3147 H   0  0  0  0  0  0
  -26.3874  -21.2361   16.0963 H   0  0  0  0  0  0
  -28.0974  -21.3918   15.7662 H   0  0  0  0  0  0
  -27.1727  -22.7376   16.4512 H   0  0  0  0  0  0
  -29.7097  -24.0996   20.2274 H   0  0  0  0  0  0
  -30.2324  -24.6741   18.6597 H   0  0  0  0  0  0
  -27.4524  -24.9160   19.7603 H   0  0  0  0  0  0
  -28.0203  -25.6714   18.2538 H   0  0  0  0  0  0
  -29.9949  -19.2851   21.9675 H   0  0  0  0  0  0
  -29.7752  -21.4543   18.0630 H   0  0  0  0  0  0
  -27.7195  -18.9235   23.3366 H   0  0  0  0  0  0
  -26.7344  -21.4172   18.4943 H   0  0  0  0  0  0
  -28.8629  -15.2859   20.6161 H   0  0  0  0  0  0
  -28.7559  -19.2753   19.4947 H   0  0  0  0  0  0
  -28.7357  -23.4167   17.5137 H   0  0  0  0  0  0
  -27.7213  -23.3306   18.7773 H   0  0  0  0  0  0
  1 25  1  0  0  0
  1 30  2  0  0  0
  1 88  1  0  0  0
  2  3  1  0  0  0
  2 25  1  0  0  0
  2 92  1  0  0  0
  2 93  1  0  0  0
  3  4  1  0  0  0
  3 94  1  0  0  0
  3 95  1  0  0  0
  4  5  1  0  0  0
  4 96  1  0  0  0
  4 97  1  0  0  0
  5  6  1  0  0  0
  5 26  1  0  0  0
  5 98  1  0  0  0
  6 25  1  0  0  0
  6 99  1  0  0  0
  6100  1  0  0  0
  7  8  2  0  0  0
  7 26  1  0  0  0
  7 29  1  0  0  0
  8  9  1  0  0  0
  8 22  1  0  0  0
  9 10  1  0  0  0
  9 27  2  0  0  0
 10 11  2  0  0  0
 10 15  1  0  0  0
 11 12  1  0  0  0
 11101  1  0  0  0
 12 13  2  0  0  0
 12102  1  0  0  0
 13 14  1  0  0  0
 13 31  1  0  0  0
 14 15  2  0  0  0
 14103  1  0  0  0
 15104  1  0  0  0
 16 17  2  0  0  0
 16 21  1  0  0  0
 16 31  1  0  0  0
 17 18  1  0  0  0
 17105  1  0  0  0
 18 19  2  0  0  0
 18106  1  0  0  0
 19 20  1  0  0  0
 19 24  1  0  0  0
 20 21  2  0  0  0
 20107  1  0  0  0
 21 23  1  0  0  0
 22 28  1  0  0  0
 22 32  2  0  0  0
 26 27  1  0  0  0
 28108  1  0  0  0
 28109  1  0  0  0
 29110  1  0  0  0
 29111  1  0  0  0
 33 34  1  0  0  0
 33 66  1  0  0  0
 33 70  2  0  0  0
 34 36  1  0  0  0
 34 59  1  0  0  0
 34112  1  0  0  0
 35 44  2  0  0  0
 35 45  1  0  0  0
 35 68  1  0  0  0
 36 56  1  0  0  0
 36113  1  0  0  0
 37 39  1  0  0  0
 37 47  1  0  0  0
 37 66  1  0  0  0
 37114  1  0  0  0
 38 43  2  0  0  0
 38 46  1  0  0  0
 38 47  1  0  0  0
 39 64  1  0  0  0
 39 67  2  0  0  0
 40 52  1  0  0  0
 40 53  2  0  0  0
 40 58  1  0  0  0
 41115  1  0  0  0
 41116  1  0  0  0
 41117  1  0  0  0
 41 48  1  0  0  0
 42 43  1  0  0  0
 42 66  1  0  0  0
 42118  1  0  0  0
 42119  1  0  0  0
 43 44  1  0  0  0
 44120  1  0  0  0
 45 46  2  0  0  0
 45121  1  0  0  0
 46122  1  0  0  0
 47123  1  0  0  0
 47124  1  0  0  0
 48 56  1  0  0  0
 48 65  1  0  0  0
 48125  1  0  0  0
 49 50  1  0  0  0
 49 53  1  0  0  0
 49 64  1  0  0  0
 49126  1  0  0  0
 50 51  1  0  0  0
 50127  1  0  0  0
 50128  1  0  0  0
 51 52  1  0  0  0
 51129  1  0  0  0
 51130  1  0  0  0
 52131  1  0  0  0
 52132  1  0  0  0
 53 54  1  0  0  0
 54 55  2  0  0  0
 54133  1  0  0  0
 55 57  1  0  0  0
 55134  1  0  0  0
 56 69  2  0  0  0
 57 58  2  0  0  0
 57135  1  0  0  0
 58136  1  0  0  0
 59 60  1  0  0  0
 59 61  1  0  0  0
 59 62  1  0  0  0
 60137  1  0  0  0
 60138  1  0  0  0
 60139  1  0  0  0
 61140  1  0  0  0
 61141  1  0  0  0
 61142  1  0  0  0
 62143  1  0  0  0
 62144  1  0  0  0
 62145  1  0  0  0
 63 65  1  0  0  0
 63146  1  0  0  0
 63147  1  0  0  0
 63148  1  0  0  0
 64149  1  0  0  0
 65150  1  0  0  0
 68 83  1  0  0  0
 71 72  2  0  0  0
 71 73  1  0  0  0
 71151  1  0  0  0
 72 74  1  0  0  0
 72152  1  0  0  0
 73 75  2  0  0  0
 73153  1  0  0  0
 74 76  2  0  0  0
 74154  1  0  0  0
 75 76  1  0  0  0
 75 84  1  0  0  0
 76 88  1  0  0  0
 77 85  1  0  0  0
 77 89  1  0  0  0
 77 91  2  0  0  0
 78155  1  0  0  0
 78156  1  0  0  0
 78157  1  0  0  0
 78 86  1  0  0  0
 79 86  1  0  0  0
 79158  1  0  0  0
 79159  1  0  0  0
 79160  1  0  0  0
 80161  1  0  0  0
 80162  1  0  0  0
 80163  1  0  0  0
 80 87  1  0  0  0
 81 87  1  0  0  0
 81164  1  0  0  0
 81165  1  0  0  0
 81166  1  0  0  0
 82 83  1  0  0  0
 82 90  1  0  0  0
 82167  1  0  0  0
 82168  1  0  0  0
 83169  1  0  0  0
 83170  1  0  0  0
 84 86  1  0  0  0
 84 89  1  0  0  0
 84171  1  0  0  0
 85 87  1  0  0  0
 85 90  1  0  0  0
 85172  1  0  0  0
 86173  1  0  0  0
 87174  1  0  0  0
 88175  1  0  0  0
 89176  1  0  0  0
 90177  1  0  0  0
 90178  1  0  0  0
M  CHG  1  90   1
M  ISO  4   1 100  68 101  83 101  88 100
M  END
> <chiral flag>
0

> <version>
0

> <s_m_source_file>
/data/baiqing/PycharmProjects/Reinvent-master-3.2/result/LINK_invent/BTK/process_docking_weight1_custom_product_contain_oxygen_bond_distance_aromatic_linkinvent_7_9_3/rearranged_h_0004.sdf

> <i_m_source_file_index>
12

> <r_mmod_Potential_Energy-OPLS-2005>
263.405975341797

> <r_mmod_Stretch_Energy-OPLS-2005>
62.2662162780762

> <r_mmod_Bend_Energy-OPLS-2005>
221.716888427734

> <r_mmod_Torsional_Energy-OPLS-2005>
491.971405029297

> <r_mmod_Improper_Torsional_Energy-OPLS-2005>
45.7287750244141

> <r_mmod_Van_der_Waal_Energy-OPLS-2005>
206.195037841797

> <r_mmod_Electrostatic_Energy-OPLS-2005>
-341.473846435547

> <r_mmod_Solvation_Energy-OPLS-2005>
-443.603149414062

> <b_mmod_Minimization_Converged-OPLS-2005>
0

> <r_mmod_RMS_Derivative-OPLS-2005>
11.7645702362061

$$$$
12
                    3D
 Structure written by MMmdl.
158167  0  0  1  0            999 V2000
  -30.6559  -14.7502   20.3836 C   0  0  0  0  0  0
  -30.4306  -12.4551   19.4377 C   0  0  0  0  0  0
  -29.4813  -12.4109   18.2200 C   0  0  0  0  0  0
  -28.0181  -12.2698   18.6629 C   0  0  0  0  0  0
  -27.6329  -13.2238   19.8243 C   0  0  2  0  0  0
  -28.6938  -13.2300   20.9421 C   0  0  0  0  0  0
  -25.2527  -13.8207   20.5708 C   0  0  0  0  0  0
  -24.1799  -13.0470   20.9221 C   0  0  0  0  0  0
  -24.6363  -11.6935   20.8763 C   0  0  0  0  0  0
  -23.9050  -10.4305   21.0429 C   0  0  0  0  0  0
  -24.3605   -9.4207   21.9194 C   0  0  0  0  0  0
  -23.6266   -8.2250   22.0762 C   0  0  0  0  0  0
  -22.4247   -8.0283   21.3554 C   0  0  0  0  0  0
  -21.9892   -9.0267   20.4663 C   0  0  0  0  0  0
  -22.7227  -10.2144   20.3073 C   0  0  0  0  0  0
  -21.6851   -6.0722   22.5269 C   0  0  0  0  0  0
  -21.4012   -6.5630   23.8206 C   0  0  0  0  0  0
  -21.3658   -5.6782   24.9169 C   0  0  0  0  0  0
  -21.6048   -4.3041   24.7227 C   0  0  0  0  0  0
  -21.8815   -3.8128   23.4343 C   0  0  0  0  0  0
  -21.9197   -4.6945   22.3394 C   0  0  0  0  0  0
  -22.7831  -13.5274   21.1865 C   0  0  0  0  0  0
  -22.1667   -4.2127   21.0971 F   0  0  0  0  0  0
  -21.5635   -3.4523   25.7748 F   0  0  0  0  0  0
  -29.9759  -13.5572   20.3079 N   0  0  0  0  0  0
  -26.2922  -12.9396   20.3258 N   0  0  0  0  0  0
  -25.9294  -11.6554   20.5801 N   0  0  0  0  0  0
  -22.0445  -12.8270   22.0404 N   0  0  0  0  0  0
  -25.4292  -15.1916   20.4148 N   0  0  0  0  0  0
  -31.8851  -14.7556   20.3190 O   0  0  0  0  0  0
  -21.6630   -6.8858   21.4232 O   0  0  0  0  0  0
  -22.3537  -14.5583   20.6690 O   0  0  0  0  0  0
  -24.6309  -31.8559   23.1958 C   0  0  0  0  0  0
  -25.9120  -32.4766   23.8306 C   0  0  1  0  0  0
  -27.2331  -27.2878   20.1151 C   0  0  0  0  0  0
  -25.5912  -33.8570   24.2235 N   0  0  0  0  0  0
  -23.4263  -30.4722   21.5431 C   0  0  2  0  0  0
  -24.8715  -28.9099   20.1230 C   0  0  0  0  0  0
  -22.7486  -29.4594   22.4958 C   0  0  0  0  0  0
  -18.0281  -28.1393   22.8482 C   0  0  0  0  0  0
  -24.1473  -36.7292   23.2633 C   0  0  0  0  0  0
  -25.9657  -30.7787   21.3647 C   0  0  0  0  0  0
  -26.0452  -29.3994   20.7110 C   0  0  0  0  0  0
  -27.2333  -28.6058   20.6796 C   0  0  0  0  0  0
  -26.0321  -26.8422   19.5289 C   0  0  0  0  0  0
  -24.8680  -27.6384   19.5242 C   0  0  0  0  0  0
  -23.6392  -29.7913   20.1654 C   0  0  0  0  0  0
  -25.4102  -36.3077   24.0315 C   0  0  1  0  0  0
  -20.5880  -28.3703   23.1284 C   0  0  2  0  0  0
  -20.6753  -26.9427   22.5424 C   0  0  0  0  0  0
  -19.5745  -26.6390   21.5205 C   0  0  0  0  0  0
  -18.1923  -26.7945   22.1615 C   0  0  0  0  0  0
  -19.1529  -28.8867   23.2877 C   0  0  0  0  0  0
  -18.9459  -30.1467   23.8912 C   0  0  0  0  0  0
  -17.6457  -30.6597   24.0560 C   0  0  0  0  0  0
  -25.9048  -34.9453   23.5083 C   0  0  0  0  0  0
  -16.5345  -29.9097   23.6333 C   0  0  0  0  0  0
  -16.7271  -28.6508   23.0367 C   0  0  0  0  0  0
  -26.4492  -31.6599   25.0700 C   0  0  0  0  0  0
  -25.3712  -31.3786   26.1416 C   0  0  0  0  0  0
  -27.0320  -30.3009   24.6201 C   0  0  0  0  0  0
  -27.6031  -32.4352   25.7491 C   0  0  0  0  0  0
  -27.5567  -37.1789   24.8456 C   0  0  0  0  0  0
  -21.4203  -29.3052   22.3680 N   0  0  0  0  0  0
  -26.4272  -37.3777   23.9411 N   0  0  0  0  0  0
  -24.6939  -31.0512   22.0930 N   0  0  0  0  0  0
  -23.4173  -28.8144   23.3061 O   0  0  0  0  0  0
  -28.3615  -26.4484   20.0694 O   0  0  0  0  0  0
  -26.5633  -34.8934   22.4663 O   0  0  0  0  0  0
  -23.5470  -32.1364   23.7277 O   0  0  0  0  0  0
  -30.1701  -17.8428   16.2655 C   0  0  0  0  0  0
  -30.6149  -16.5056   16.3397 C   0  0  0  0  0  0
  -29.6815  -18.4964   17.4157 C   0  0  0  0  0  0
  -30.5792  -15.8113   17.5653 C   0  0  0  0  0  0
  -29.6306  -17.7897   18.6334 C   0  0  0  0  0  0
  -30.0587  -16.4490   18.7126 C   0  0  0  0  0  0
  -28.7282  -20.9153   19.8830 C   0  0  0  0  0  0
  -29.7282  -17.1416   20.8995 C   0  0  0  0  0  0
  -29.1501  -18.3144   19.9705 C   0  0  1  0  0  0
  -28.9902  -22.3611   20.5096 C   0  0  0  0  0  0
  -28.5421  -23.7264   19.7522 C   0  0  0  0  0  0
  -28.3001  -25.0638   20.6273 C   0  0  0  0  0  0
  -29.9827  -15.9236   20.0399 N   0  0  0  0  0  0
  -29.4182  -19.7854   20.2937 N   0  0  0  0  0  0
  -27.8355  -20.8179   19.0407 O   0  0  0  0  0  0
  -31.4583  -12.5951   19.0987 H   0  0  0  0  0  0
  -30.4122  -11.5106   19.9838 H   0  0  0  0  0  0
  -29.7516  -11.5795   17.5672 H   0  0  0  0  0  0
  -29.5615  -13.3020   17.6044 H   0  0  0  0  0  0
  -27.8763  -11.2316   18.9698 H   0  0  0  0  0  0
  -27.3513  -12.4219   17.8141 H   0  0  0  0  0  0
  -27.6092  -14.2248   19.3934 H   0  0  0  0  0  0
  -28.7431  -12.2621   21.4395 H   0  0  0  0  0  0
  -28.4388  -13.9657   21.7061 H   0  0  0  0  0  0
  -25.2755   -9.5668   22.4757 H   0  0  0  0  0  0
  -23.9975   -7.4639   22.7466 H   0  0  0  0  0  0
  -21.0832   -8.8792   19.8961 H   0  0  0  0  0  0
  -22.3693  -10.9688   19.6175 H   0  0  0  0  0  0
  -21.1992   -7.6141   23.9700 H   0  0  0  0  0  0
  -21.1493   -6.0516   25.9078 H   0  0  0  0  0  0
  -22.0591   -2.7585   23.2854 H   0  0  0  0  0  0
  -22.4077  -11.9962   22.4848 H   0  0  0  0  0  0
  -21.1064  -13.1312   22.2607 H   0  0  0  0  0  0
  -24.6664  -15.8488   20.5334 H   0  0  0  0  0  0
  -26.2891  -15.6240   20.1002 H   0  0  0  0  0  0
  -26.7172  -32.5424   23.1031 H   0  0  0  0  0  0
  -24.9982  -33.9696   25.0329 H   0  0  0  0  0  0
  -22.7246  -31.2937   21.3918 H   0  0  0  0  0  0
  -23.3737  -35.9614   23.3320 H   0  0  0  0  0  0
  -24.3545  -36.8928   22.2041 H   0  0  0  0  0  0
  -23.7242  -37.6501   23.6674 H   0  0  0  0  0  0
  -26.0865  -31.5405   20.5944 H   0  0  0  0  0  0
  -26.8492  -30.8397   21.9883 H   0  0  0  0  0  0
  -28.1497  -28.9903   21.1066 H   0  0  0  0  0  0
  -25.9944  -25.8607   19.0765 H   0  0  0  0  0  0
  -23.9636  -27.2547   19.0719 H   0  0  0  0  0  0
  -23.7548  -30.5593   19.3997 H   0  0  0  0  0  0
  -22.7615  -29.2112   19.8726 H   0  0  0  0  0  0
  -25.1292  -36.1913   25.0806 H   0  0  0  0  0  0
  -20.9955  -28.3296   24.1411 H   0  0  0  0  0  0
  -20.5627  -26.2327   23.3635 H   0  0  0  0  0  0
  -21.6616  -26.7432   22.1233 H   0  0  0  0  0  0
  -19.6912  -25.6299   21.1259 H   0  0  0  0  0  0
  -19.6687  -27.3171   20.6721 H   0  0  0  0  0  0
  -17.4185  -26.6696   21.4033 H   0  0  0  0  0  0
  -18.0325  -26.0080   22.9015 H   0  0  0  0  0  0
  -19.7931  -30.7276   24.2285 H   0  0  0  0  0  0
  -17.5012  -31.6284   24.5166 H   0  0  0  0  0  0
  -15.5350  -30.3001   23.7660 H   0  0  0  0  0  0
  -15.8662  -28.0825   22.7094 H   0  0  0  0  0  0
  -24.5843  -30.7186   25.7750 H   0  0  0  0  0  0
  -24.8924  -32.2969   26.4823 H   0  0  0  0  0  0
  -25.7981  -30.8962   27.0212 H   0  0  0  0  0  0
  -26.2897  -29.6781   24.1190 H   0  0  0  0  0  0
  -27.3944  -29.7266   25.4740 H   0  0  0  0  0  0
  -27.8806  -30.4256   23.9470 H   0  0  0  0  0  0
  -27.2593  -33.3628   26.2074 H   0  0  0  0  0  0
  -28.3829  -32.6969   25.0331 H   0  0  0  0  0  0
  -28.0702  -31.8491   26.5412 H   0  0  0  0  0  0
  -28.2586  -38.0081   24.7484 H   0  0  0  0  0  0
  -28.1070  -36.2619   24.6298 H   0  0  0  0  0  0
  -27.2294  -37.1459   25.8861 H   0  0  0  0  0  0
  -20.9413  -29.8767   21.6867 H   0  0  0  0  0  0
  -26.0176  -38.2858   24.1432 H   0  0  0  0  0  0
  -30.2193  -18.3713   15.3240 H   0  0  0  0  0  0
  -31.0043  -16.0180   15.4576 H   0  0  0  0  0  0
  -29.3568  -19.5245   17.3529 H   0  0  0  0  0  0
  -30.9936  -14.8173   17.6121 H   0  0  0  0  0  0
  -29.0633  -16.9168   21.7344 H   0  0  0  0  0  0
  -30.6885  -17.4415   21.3199 H   0  0  0  0  0  0
  -28.0644  -18.2014   19.9437 H   0  0  0  0  0  0
  -30.0498  -22.4379   20.7559 H   0  0  0  0  0  0
  -28.4701  -22.3399   21.4665 H   0  0  0  0  0  0
  -27.6408  -23.5370   19.1692 H   0  0  0  0  0  0
  -29.3130  -23.9447   19.0113 H   0  0  0  0  0  0
  -29.0776  -25.0654   21.3931 H   0  0  0  0  0  0
  -27.3752  -24.9433   21.1913 H   0  0  0  0  0  0
  -30.1628  -19.9481   20.9575 H   0  0  0  0  0  0
  1 25  1  0  0  0
  1 30  2  0  0  0
  1 83  1  0  0  0
  2  3  1  0  0  0
  2 25  1  0  0  0
  2 86  1  0  0  0
  2 87  1  0  0  0
  3  4  1  0  0  0
  3 88  1  0  0  0
  3 89  1  0  0  0
  4  5  1  0  0  0
  4 90  1  0  0  0
  4 91  1  0  0  0
  5  6  1  0  0  0
  5 26  1  0  0  0
  5 92  1  0  0  0
  6 25  1  0  0  0
  6 93  1  0  0  0
  6 94  1  0  0  0
  7  8  2  0  0  0
  7 26  1  0  0  0
  7 29  1  0  0  0
  8  9  1  0  0  0
  8 22  1  0  0  0
  9 10  1  0  0  0
  9 27  2  0  0  0
 10 11  2  0  0  0
 10 15  1  0  0  0
 11 12  1  0  0  0
 11 95  1  0  0  0
 12 13  2  0  0  0
 12 96  1  0  0  0
 13 14  1  0  0  0
 13 31  1  0  0  0
 14 15  2  0  0  0
 14 97  1  0  0  0
 15 98  1  0  0  0
 16 17  2  0  0  0
 16 21  1  0  0  0
 16 31  1  0  0  0
 17 18  1  0  0  0
 17 99  1  0  0  0
 18 19  2  0  0  0
 18100  1  0  0  0
 19 20  1  0  0  0
 19 24  1  0  0  0
 20 21  2  0  0  0
 20101  1  0  0  0
 21 23  1  0  0  0
 22 28  1  0  0  0
 22 32  2  0  0  0
 26 27  1  0  0  0
 28102  1  0  0  0
 28103  1  0  0  0
 29104  1  0  0  0
 29105  1  0  0  0
 33 34  1  0  0  0
 33 66  1  0  0  0
 33 70  2  0  0  0
 34 36  1  0  0  0
 34 59  1  0  0  0
 34106  1  0  0  0
 35 44  2  0  0  0
 35 45  1  0  0  0
 35 68  1  0  0  0
 36 56  1  0  0  0
 36107  1  0  0  0
 37 39  1  0  0  0
 37 47  1  0  0  0
 37 66  1  0  0  0
 37108  1  0  0  0
 38 43  2  0  0  0
 38 46  1  0  0  0
 38 47  1  0  0  0
 39 64  1  0  0  0
 39 67  2  0  0  0
 40 52  1  0  0  0
 40 53  2  0  0  0
 40 58  1  0  0  0
 41109  1  0  0  0
 41110  1  0  0  0
 41111  1  0  0  0
 41 48  1  0  0  0
 42 43  1  0  0  0
 42 66  1  0  0  0
 42112  1  0  0  0
 42113  1  0  0  0
 43 44  1  0  0  0
 44114  1  0  0  0
 45 46  2  0  0  0
 45115  1  0  0  0
 46116  1  0  0  0
 47117  1  0  0  0
 47118  1  0  0  0
 48 56  1  0  0  0
 48 65  1  0  0  0
 48119  1  0  0  0
 49 50  1  0  0  0
 49 53  1  0  0  0
 49 64  1  0  0  0
 49120  1  0  0  0
 50 51  1  0  0  0
 50121  1  0  0  0
 50122  1  0  0  0
 51 52  1  0  0  0
 51123  1  0  0  0
 51124  1  0  0  0
 52125  1  0  0  0
 52126  1  0  0  0
 53 54  1  0  0  0
 54 55  2  0  0  0
 54127  1  0  0  0
 55 57  1  0  0  0
 55128  1  0  0  0
 56 69  2  0  0  0
 57 58  2  0  0  0
 57129  1  0  0  0
 58130  1  0  0  0
 59 60  1  0  0  0
 59 61  1  0  0  0
 59 62  1  0  0  0
 60131  1  0  0  0
 60132  1  0  0  0
 60133  1  0  0  0
 61134  1  0  0  0
 61135  1  0  0  0
 61136  1  0  0  0
 62137  1  0  0  0
 62138  1  0  0  0
 62139  1  0  0  0
 63 65  1  0  0  0
 63140  1  0  0  0
 63141  1  0  0  0
 63142  1  0  0  0
 64143  1  0  0  0
 65144  1  0  0  0
 68 82  1  0  0  0
 71 72  2  0  0  0
 71 73  1  0  0  0
 71145  1  0  0  0
 72 74  1  0  0  0
 72146  1  0  0  0
 73 75  2  0  0  0
 73147  1  0  0  0
 74 76  2  0  0  0
 74148  1  0  0  0
 75 76  1  0  0  0
 75 79  1  0  0  0
 76 83  1  0  0  0
 77 80  1  0  0  0
 77 84  1  0  0  0
 77 85  2  0  0  0
 78 79  1  0  0  0
 78 83  1  0  0  0
 78149  1  0  0  0
 78150  1  0  0  0
 79 84  1  0  0  0
 79151  1  0  0  0
 80 81  1  0  0  0
 80152  1  0  0  0
 80153  1  0  0  0
 81 82  1  0  0  0
 81154  1  0  0  0
 81155  1  0  0  0
 82156  1  0  0  0
 82157  1  0  0  0
 84158  1  0  0  0
M  ISO  4   1 100  68 101  82 101  83 100
M  END
> <chiral flag>
0

> <version>
0

> <s_m_source_file>
/data/baiqing/PycharmProjects/Reinvent-master-3.2/result/LINK_invent/BTK/process_docking_weight1_custom_product_contain_oxygen_bond_distance_aromatic_linkinvent_7_9_3/rearranged_h_0004.sdf

> <i_m_source_file_index>
13

> <r_mmod_Potential_Energy-OPLS-2005>
240.303085327148

> <r_mmod_Stretch_Energy-OPLS-2005>
111.167015075684

> <r_mmod_Bend_Energy-OPLS-2005>
223.392532348633

> <r_mmod_Torsional_Energy-OPLS-2005>
308.433441162109

> <r_mmod_Improper_Torsional_Energy-OPLS-2005>
17.8665580749512

> <r_mmod_Van_der_Waal_Energy-OPLS-2005>
124.754341125488

> <r_mmod_Electrostatic_Energy-OPLS-2005>
-414.795257568359

> <r_mmod_Solvation_Energy-OPLS-2005>
-223.531692504883

> <b_mmod_Minimization_Converged-OPLS-2005>
0

> <r_mmod_RMS_Derivative-OPLS-2005>
3.92572212219238

$$$$
13
                    3D
 Structure written by MMmdl.
163172  0  0  1  0            999 V2000
  -30.4400  -15.2878   20.5065 C   0  0  0  0  0  0
  -30.4388  -12.8366   19.5749 C   0  0  0  0  0  0
  -29.5498  -12.6241   18.3167 C   0  0  0  0  0  0
  -28.0885  -12.3360   18.7020 C   0  0  0  0  0  0
  -27.6087  -13.2787   19.8337 C   0  0  2  0  0  0
  -28.6346  -13.3868   20.9849 C   0  0  0  0  0  0
  -25.2030  -13.7998   20.5197 C   0  0  0  0  0  0
  -24.1590  -13.0215   20.9164 C   0  0  0  0  0  0
  -24.6389  -11.6794   20.8786 C   0  0  0  0  0  0
  -23.9093  -10.4179   21.0428 C   0  0  0  0  0  0
  -24.3622   -9.4113   21.9217 C   0  0  0  0  0  0
  -23.6280   -8.2163   22.0780 C   0  0  0  0  0  0
  -22.4270   -8.0209   21.3549 C   0  0  0  0  0  0
  -21.9905   -9.0190   20.4658 C   0  0  0  0  0  0
  -22.7259  -10.2054   20.3069 C   0  0  0  0  0  0
  -21.6840   -6.0709   22.5295 C   0  0  0  0  0  0
  -21.3999   -6.5623   23.8225 C   0  0  0  0  0  0
  -21.3650   -5.6776   24.9183 C   0  0  0  0  0  0
  -21.6050   -4.3046   24.7238 C   0  0  0  0  0  0
  -21.8812   -3.8134   23.4360 C   0  0  0  0  0  0
  -21.9179   -4.6942   22.3411 C   0  0  0  0  0  0
  -22.7636  -13.4993   21.1896 C   0  0  0  0  0  0
  -22.1652   -4.2135   21.0988 F   0  0  0  0  0  0
  -21.5626   -3.4527   25.7751 F   0  0  0  0  0  0
  -29.8773  -13.9636   20.4283 N   0  0  0  0  0  0
  -26.2726  -12.9465   20.3135 N   0  0  0  0  0  0
  -25.9363  -11.6591   20.5832 N   0  0  0  0  0  0
  -22.0361  -12.8032   22.0539 N   0  0  0  0  0  0
  -25.2883  -15.1590   20.2730 N   0  0  0  0  0  0
  -31.6008  -15.3072   20.0639 O   0  0  0  0  0  0
  -21.6600   -6.8841   21.4260 O   0  0  0  0  0  0
  -22.3317  -14.5326   20.6793 O   0  0  0  0  0  0
  -24.6647  -31.8229   23.1699 C   0  0  0  0  0  0
  -25.9303  -32.4605   23.8159 C   0  0  1  0  0  0
  -27.2273  -26.9251   20.2172 C   0  0  0  0  0  0
  -25.5960  -33.8407   24.2084 N   0  0  0  0  0  0
  -23.4788  -30.4317   21.5221 C   0  0  2  0  0  0
  -24.9348  -28.8126   20.1234 C   0  0  0  0  0  0
  -22.7736  -29.4382   22.4821 C   0  0  0  0  0  0
  -18.0376  -28.1510   22.8537 C   0  0  0  0  0  0
  -24.1489  -36.7219   23.2633 C   0  0  0  0  0  0
  -26.0466  -30.6334   21.3955 C   0  0  0  0  0  0
  -26.1173  -29.2195   20.7535 C   0  0  0  0  0  0
  -27.2604  -28.2979   20.7677 C   0  0  0  0  0  0
  -26.0097  -26.6626   19.5475 C   0  0  0  0  0  0
  -24.9049  -27.5557   19.4990 C   0  0  0  0  0  0
  -23.7228  -29.7425   20.1511 C   0  0  0  0  0  0
  -25.4140  -36.2973   24.0300 C   0  0  1  0  0  0
  -20.6006  -28.3701   23.1230 C   0  0  2  0  0  0
  -20.6772  -26.9344   22.5499 C   0  0  0  0  0  0
  -19.5753  -26.6449   21.5215 C   0  0  0  0  0  0
  -18.1903  -26.8061   22.1660 C   0  0  0  0  0  0
  -19.1688  -28.8948   23.2856 C   0  0  0  0  0  0
  -18.9696  -30.1553   23.8940 C   0  0  0  0  0  0
  -17.6746  -30.6734   24.0696 C   0  0  0  0  0  0
  -25.9110  -34.9350   23.5013 C   0  0  0  0  0  0
  -16.5572  -29.9279   23.6539 C   0  0  0  0  0  0
  -16.7396  -28.6701   23.0517 C   0  0  0  0  0  0
  -26.4550  -31.6524   25.0674 C   0  0  0  0  0  0
  -25.3655  -31.3774   26.1320 C   0  0  0  0  0  0
  -27.0441  -30.2904   24.6341 C   0  0  0  0  0  0
  -27.6055  -32.4328   25.7473 C   0  0  0  0  0  0
  -27.5584  -37.1743   24.8452 C   0  0  0  0  0  0
  -21.4429  -29.2905   22.3532 N   0  0  0  0  0  0
  -26.4292  -37.3725   23.9406 N   0  0  0  0  0  0
  -24.7505  -30.9915   22.0851 N   0  0  0  0  0  0
  -23.4304  -28.8040   23.3126 O   0  0  0  0  0  0
  -28.2773  -25.8661   20.1990 O   0  0  0  0  0  0
  -26.5727  -34.8884   22.4603 O   0  0  0  0  0  0
  -23.5701  -32.1194   23.6799 O   0  0  0  0  0  0
  -26.8488  -20.3995   21.6790 C   0  0  0  0  0  0
  -28.4245  -19.8901   23.4589 C   0  0  0  0  0  0
  -25.8584  -20.7021   22.6366 C   0  0  0  0  0  0
  -27.4274  -20.1693   24.4177 C   0  0  0  0  0  0
  -28.1502  -20.0041   22.0766 C   0  0  0  0  0  0
  -26.1504  -20.5995   24.0072 C   0  0  0  0  0  0
  -27.5869  -17.0736   21.5228 C   0  0  0  0  0  0
  -27.9218  -17.7035   20.1411 C   0  0  0  0  0  0
  -28.9293  -16.6224   22.0792 C   0  0  0  0  0  0
  -29.3978  -18.1095   20.2875 C   0  0  1  0  0  0
  -28.5032  -22.6468   20.0001 C   0  0  0  0  0  0
  -28.2646  -24.2864   20.7010 C   0  0  0  0  0  0
  -29.2558  -19.7942   21.0216 C   0  0  1  0  0  0
  -29.7489  -16.5706   20.8854 N   0  0  0  0  0  0
  -29.4500  -21.3238   20.3916 N   0  3  0  0  0  0
  -24.9614  -21.0324   25.1827 Cl  0  0  0  0  0  0
  -31.4632  -13.0364   19.2547 H   0  0  0  0  0  0
  -30.5039  -11.9123   20.1488 H   0  0  0  0  0  0
  -29.9427  -11.8139   17.7006 H   0  0  0  0  0  0
  -29.5838  -13.5244   17.7027 H   0  0  0  0  0  0
  -28.0258  -11.2977   19.0327 H   0  0  0  0  0  0
  -27.4396  -12.4229   17.8289 H   0  0  0  0  0  0
  -27.5313  -14.2649   19.3757 H   0  0  0  0  0  0
  -28.8046  -12.4082   21.4371 H   0  0  0  0  0  0
  -28.2260  -13.9915   21.7849 H   0  0  0  0  0  0
  -25.2756   -9.5584   22.4809 H   0  0  0  0  0  0
  -23.9963   -7.4559   22.7510 H   0  0  0  0  0  0
  -21.0826   -8.8711   19.8987 H   0  0  0  0  0  0
  -22.3717  -10.9584   19.6178 H   0  0  0  0  0  0
  -21.1998   -7.6134   23.9725 H   0  0  0  0  0  0
  -21.1480   -6.0511   25.9087 H   0  0  0  0  0  0
  -22.0604   -2.7600   23.2863 H   0  0  0  0  0  0
  -22.3980  -11.9671   22.4868 H   0  0  0  0  0  0
  -21.1040  -13.1147   22.2848 H   0  0  0  0  0  0
  -24.4985  -15.7785   20.4095 H   0  0  0  0  0  0
  -26.1225  -15.6465   19.9796 H   0  0  0  0  0  0
  -26.7387  -32.5161   23.0871 H   0  0  0  0  0  0
  -25.0003  -33.9488   25.0175 H   0  0  0  0  0  0
  -22.7864  -31.2608   21.3478 H   0  0  0  0  0  0
  -23.3789  -35.9503   23.3242 H   0  0  0  0  0  0
  -24.3549  -36.8924   22.2045 H   0  0  0  0  0  0
  -23.7210  -37.6377   23.6748 H   0  0  0  0  0  0
  -26.2095  -31.3697   20.6053 H   0  0  0  0  0  0
  -26.9125  -30.7013   22.0430 H   0  0  0  0  0  0
  -28.1648  -28.6200   21.2633 H   0  0  0  0  0  0
  -25.8925  -25.7021   19.0618 H   0  0  0  0  0  0
  -24.0055  -27.2415   18.9859 H   0  0  0  0  0  0
  -23.8793  -30.5102   19.3895 H   0  0  0  0  0  0
  -22.8303  -29.2009   19.8325 H   0  0  0  0  0  0
  -25.1325  -36.1757   25.0806 H   0  0  0  0  0  0
  -21.0029  -28.3364   24.1400 H   0  0  0  0  0  0
  -20.5643  -26.2339   23.3789 H   0  0  0  0  0  0
  -21.6668  -26.7238   22.1424 H   0  0  0  0  0  0
  -19.6931  -25.6393   21.1140 H   0  0  0  0  0  0
  -19.6719  -27.3345   20.6807 H   0  0  0  0  0  0
  -17.4069  -26.7021   21.4084 H   0  0  0  0  0  0
  -18.0233  -26.0195   22.9036 H   0  0  0  0  0  0
  -19.8237  -30.7322   24.2297 H   0  0  0  0  0  0
  -17.5416  -31.6424   24.5366 H   0  0  0  0  0  0
  -15.5633  -30.3332   23.7894 H   0  0  0  0  0  0
  -15.8755  -28.1075   22.7275 H   0  0  0  0  0  0
  -24.5852  -30.7117   25.7611 H   0  0  0  0  0  0
  -24.8812  -32.2973   26.4609 H   0  0  0  0  0  0
  -25.7854  -30.9004   27.0173 H   0  0  0  0  0  0
  -26.3093  -29.6594   24.1334 H   0  0  0  0  0  0
  -27.4012  -29.7247   25.4944 H   0  0  0  0  0  0
  -27.9014  -30.4130   23.9728 H   0  0  0  0  0  0
  -27.2642  -33.3676   26.1930 H   0  0  0  0  0  0
  -28.3927  -32.6797   25.0344 H   0  0  0  0  0  0
  -28.0658  -31.8506   26.5457 H   0  0  0  0  0  0
  -28.2554  -38.0089   24.7561 H   0  0  0  0  0  0
  -28.1137  -36.2606   24.6227 H   0  0  0  0  0  0
  -27.2281  -37.1314   25.8850 H   0  0  0  0  0  0
  -20.9625  -29.8566   21.6673 H   0  0  0  0  0  0
  -26.0137  -38.2783   24.1453 H   0  0  0  0  0  0
  -26.6065  -20.4918   20.6332 H   0  0  0  0  0  0
  -29.4075  -19.5917   23.8006 H   0  0  0  0  0  0
  -24.8741  -21.0247   22.3191 H   0  0  0  0  0  0
  -27.6500  -20.0785   25.4731 H   0  0  0  0  0  0
  -26.9689  -16.2025   21.4661 H   0  0  0  0  0  0
  -27.0585  -17.7337   22.2095 H   0  0  0  0  0  0
  -27.2529  -18.5084   19.8493 H   0  0  0  0  0  0
  -27.8278  -16.9442   19.3643 H   0  0  0  0  0  0
  -28.8799  -15.7178   22.6763 H   0  0  0  0  0  0
  -29.3475  -17.3791   22.7422 H   0  0  0  0  0  0
  -29.8807  -18.1984   19.3161 H   0  0  0  0  0  0
  -28.9663  -22.9101   19.0531 H   0  0  0  0  0  0
  -27.5294  -22.2722   19.6849 H   0  0  0  0  0  0
  -28.9501  -24.3057   21.5504 H   0  0  0  0  0  0
  -27.2914  -24.1984   21.1834 H   0  0  0  0  0  0
  -30.1692  -19.7683   21.6151 H   0  0  0  0  0  0
  -30.0990  -21.7166   21.0539 H   0  0  0  0  0  0
  -30.0143  -21.1577   19.5740 H   0  0  0  0  0  0
  1 25  1  0  0  0
  1 30  2  0  0  0
  1 84  1  0  0  0
  2  3  1  0  0  0
  2 25  1  0  0  0
  2 87  1  0  0  0
  2 88  1  0  0  0
  3  4  1  0  0  0
  3 89  1  0  0  0
  3 90  1  0  0  0
  4  5  1  0  0  0
  4 91  1  0  0  0
  4 92  1  0  0  0
  5  6  1  0  0  0
  5 26  1  0  0  0
  5 93  1  0  0  0
  6 25  1  0  0  0
  6 94  1  0  0  0
  6 95  1  0  0  0
  7  8  2  0  0  0
  7 26  1  0  0  0
  7 29  1  0  0  0
  8  9  1  0  0  0
  8 22  1  0  0  0
  9 10  1  0  0  0
  9 27  2  0  0  0
 10 11  2  0  0  0
 10 15  1  0  0  0
 11 12  1  0  0  0
 11 96  1  0  0  0
 12 13  2  0  0  0
 12 97  1  0  0  0
 13 14  1  0  0  0
 13 31  1  0  0  0
 14 15  2  0  0  0
 14 98  1  0  0  0
 15 99  1  0  0  0
 16 17  2  0  0  0
 16 21  1  0  0  0
 16 31  1  0  0  0
 17 18  1  0  0  0
 17100  1  0  0  0
 18 19  2  0  0  0
 18101  1  0  0  0
 19 20  1  0  0  0
 19 24  1  0  0  0
 20 21  2  0  0  0
 20102  1  0  0  0
 21 23  1  0  0  0
 22 28  1  0  0  0
 22 32  2  0  0  0
 26 27  1  0  0  0
 28103  1  0  0  0
 28104  1  0  0  0
 29105  1  0  0  0
 29106  1  0  0  0
 33 34  1  0  0  0
 33 66  1  0  0  0
 33 70  2  0  0  0
 34 36  1  0  0  0
 34 59  1  0  0  0
 34107  1  0  0  0
 35 44  2  0  0  0
 35 45  1  0  0  0
 35 68  1  0  0  0
 36 56  1  0  0  0
 36108  1  0  0  0
 37 39  1  0  0  0
 37 47  1  0  0  0
 37 66  1  0  0  0
 37109  1  0  0  0
 38 43  2  0  0  0
 38 46  1  0  0  0
 38 47  1  0  0  0
 39 64  1  0  0  0
 39 67  2  0  0  0
 40 52  1  0  0  0
 40 53  2  0  0  0
 40 58  1  0  0  0
 41110  1  0  0  0
 41111  1  0  0  0
 41112  1  0  0  0
 41 48  1  0  0  0
 42 43  1  0  0  0
 42 66  1  0  0  0
 42113  1  0  0  0
 42114  1  0  0  0
 43 44  1  0  0  0
 44115  1  0  0  0
 45 46  2  0  0  0
 45116  1  0  0  0
 46117  1  0  0  0
 47118  1  0  0  0
 47119  1  0  0  0
 48 56  1  0  0  0
 48 65  1  0  0  0
 48120  1  0  0  0
 49 50  1  0  0  0
 49 53  1  0  0  0
 49 64  1  0  0  0
 49121  1  0  0  0
 50 51  1  0  0  0
 50122  1  0  0  0
 50123  1  0  0  0
 51 52  1  0  0  0
 51124  1  0  0  0
 51125  1  0  0  0
 52126  1  0  0  0
 52127  1  0  0  0
 53 54  1  0  0  0
 54 55  2  0  0  0
 54128  1  0  0  0
 55 57  1  0  0  0
 55129  1  0  0  0
 56 69  2  0  0  0
 57 58  2  0  0  0
 57130  1  0  0  0
 58131  1  0  0  0
 59 60  1  0  0  0
 59 61  1  0  0  0
 59 62  1  0  0  0
 60132  1  0  0  0
 60133  1  0  0  0
 60134  1  0  0  0
 61135  1  0  0  0
 61136  1  0  0  0
 61137  1  0  0  0
 62138  1  0  0  0
 62139  1  0  0  0
 62140  1  0  0  0
 63 65  1  0  0  0
 63141  1  0  0  0
 63142  1  0  0  0
 63143  1  0  0  0
 64144  1  0  0  0
 65145  1  0  0  0
 68 82  1  0  0  0
 71 73  2  0  0  0
 71 75  1  0  0  0
 71146  1  0  0  0
 72 74  1  0  0  0
 72 75  2  0  0  0
 72147  1  0  0  0
 73 76  1  0  0  0
 73148  1  0  0  0
 74 76  2  0  0  0
 74149  1  0  0  0
 75 83  1  0  0  0
 76 86  1  0  0  0
 77 78  1  0  0  0
 77 79  1  0  0  0
 77150  1  0  0  0
 77151  1  0  0  0
 78152  1  0  0  0
 78153  1  0  0  0
 78 80  1  0  0  0
 79 84  1  0  0  0
 79154  1  0  0  0
 79155  1  0  0  0
 80 83  1  0  0  0
 80 84  1  0  0  0
 80156  1  0  0  0
 81 82  1  0  0  0
 81 85  1  0  0  0
 81157  1  0  0  0
 81158  1  0  0  0
 82159  1  0  0  0
 82160  1  0  0  0
 83 85  1  0  0  0
 83161  1  0  0  0
 85162  1  0  0  0
 85163  1  0  0  0
M  CHG  1  85   1
M  ISO  4   1 100  68 101  82 101  84 100
M  END
> <chiral flag>
0

> <version>
0

> <s_m_source_file>
/data/baiqing/PycharmProjects/Reinvent-master-3.2/result/LINK_invent/BTK/process_docking_weight1_custom_product_contain_oxygen_bond_distance_aromatic_linkinvent_7_9_3/rearranged_h_0004.sdf

> <i_m_source_file_index>
14

> <r_mmod_Potential_Energy-OPLS-2005>
1668.51330566406

> <r_mmod_Stretch_Energy-OPLS-2005>
660.371398925781

> <r_mmod_Bend_Energy-OPLS-2005>
662.268798828125

> <r_mmod_Torsional_Energy-OPLS-2005>
404.214782714844

> <r_mmod_Improper_Torsional_Energy-OPLS-2005>
4.09590768814087

> <r_mmod_Van_der_Waal_Energy-OPLS-2005>
143.369888305664

> <r_mmod_Electrostatic_Energy-OPLS-2005>
-198.127029418945

> <r_mmod_Solvation_Energy-OPLS-2005>
-464.399719238281

> <b_mmod_Minimization_Converged-OPLS-2005>
0

> <r_mmod_RMS_Derivative-OPLS-2005>
6.44802331924438

$$$$
14
                    3D
 Structure written by MMmdl.
156165  0  0  1  0            999 V2000
  -30.5503  -14.7830   20.4544 C   0  0  0  0  0  0
  -30.4509  -12.4779   19.4684 C   0  0  0  0  0  0
  -29.5171  -12.5169   18.2357 C   0  0  0  0  0  0
  -28.0428  -12.3289   18.6495 C   0  0  0  0  0  0
  -27.6446  -13.2227   19.8530 C   0  0  2  0  0  0
  -28.6916  -13.1389   20.9859 C   0  0  0  0  0  0
  -25.2526  -13.8165   20.5686 C   0  0  0  0  0  0
  -24.1811  -13.0423   20.9207 C   0  0  0  0  0  0
  -24.6395  -11.6900   20.8748 C   0  0  0  0  0  0
  -23.9068  -10.4284   21.0411 C   0  0  0  0  0  0
  -24.3618   -9.4200   21.9187 C   0  0  0  0  0  0
  -23.6291   -8.2238   22.0756 C   0  0  0  0  0  0
  -22.4272   -8.0279   21.3547 C   0  0  0  0  0  0
  -21.9909   -9.0254   20.4650 C   0  0  0  0  0  0
  -22.7241  -10.2131   20.3059 C   0  0  0  0  0  0
  -21.6850   -6.0736   22.5280 C   0  0  0  0  0  0
  -21.4013   -6.5640   23.8214 C   0  0  0  0  0  0
  -21.3658   -5.6792   24.9175 C   0  0  0  0  0  0
  -21.6043   -4.3055   24.7225 C   0  0  0  0  0  0
  -21.8819   -3.8147   23.4346 C   0  0  0  0  0  0
  -21.9191   -4.6963   22.3402 C   0  0  0  0  0  0
  -22.7835  -13.5215   21.1866 C   0  0  0  0  0  0
  -22.1660   -4.2150   21.0979 F   0  0  0  0  0  0
  -21.5631   -3.4540   25.7739 F   0  0  0  0  0  0
  -29.9898  -13.5227   20.4108 N   0  0  0  0  0  0
  -26.2949  -12.9354   20.3280 N   0  0  0  0  0  0
  -25.9322  -11.6507   20.5746 N   0  0  0  0  0  0
  -22.0477  -12.8210   22.0423 N   0  0  0  0  0  0
  -25.4199  -15.1890   20.4090 N   0  0  0  0  0  0
  -31.7364  -14.9436   20.1470 O   0  0  0  0  0  0
  -21.6636   -6.8878   21.4242 O   0  0  0  0  0  0
  -22.3522  -14.5521   20.6712 O   0  0  0  0  0  0
  -24.6338  -31.8519   23.1948 C   0  0  0  0  0  0
  -25.9152  -32.4738   23.8305 C   0  0  1  0  0  0
  -27.2270  -27.2411   20.1369 C   0  0  0  0  0  0
  -25.5933  -33.8540   24.2227 N   0  0  0  0  0  0
  -23.4318  -30.4723   21.5386 C   0  0  2  0  0  0
  -24.8800  -28.9098   20.1138 C   0  0  0  0  0  0
  -22.7513  -29.4586   22.4904 C   0  0  0  0  0  0
  -18.0294  -28.1391   22.8487 C   0  0  0  0  0  0
  -24.1489  -36.7276   23.2641 C   0  0  0  0  0  0
  -25.9785  -30.7606   21.3750 C   0  0  0  0  0  0
  -26.0529  -29.3801   20.7180 C   0  0  0  0  0  0
  -27.2300  -28.5617   20.7088 C   0  0  0  0  0  0
  -26.0267  -26.8342   19.5174 C   0  0  0  0  0  0
  -24.8732  -27.6461   19.5012 C   0  0  0  0  0  0
  -23.6516  -29.8000   20.1572 C   0  0  0  0  0  0
  -25.4119  -36.3058   24.0319 C   0  0  1  0  0  0
  -20.5899  -28.3703   23.1268 C   0  0  2  0  0  0
  -20.6780  -26.9418   22.5410 C   0  0  0  0  0  0
  -19.5753  -26.6384   21.5217 C   0  0  0  0  0  0
  -18.1934  -26.7932   22.1628 C   0  0  0  0  0  0
  -19.1549  -28.8865   23.2869 C   0  0  0  0  0  0
  -18.9467  -30.1468   23.8885 C   0  0  0  0  0  0
  -17.6465  -30.6589   24.0566 C   0  0  0  0  0  0
  -25.9062  -34.9432   23.5079 C   0  0  0  0  0  0
  -16.5357  -29.9085   23.6335 C   0  0  0  0  0  0
  -16.7282  -28.6505   23.0353 C   0  0  0  0  0  0
  -26.4508  -31.6578   25.0712 C   0  0  0  0  0  0
  -25.3721  -31.3735   26.1426 C   0  0  0  0  0  0
  -27.0365  -30.2993   24.6222 C   0  0  0  0  0  0
  -27.6052  -32.4331   25.7490 C   0  0  0  0  0  0
  -27.5578  -37.1793   24.8464 C   0  0  0  0  0  0
  -21.4217  -29.3043   22.3650 N   0  0  0  0  0  0
  -26.4290  -37.3763   23.9408 N   0  0  0  0  0  0
  -24.7006  -31.0468   22.0927 N   0  0  0  0  0  0
  -23.4201  -28.8136   23.3021 O   0  0  0  0  0  0
  -28.3389  -26.3615   20.1656 O   0  0  0  0  0  0
  -26.5638  -34.8916   22.4652 O   0  0  0  0  0  0
  -23.5485  -32.1346   23.7237 O   0  0  0  0  0  0
  -28.3775  -19.3736   19.7321 C   0  0  0  0  0  0
  -30.3917  -19.6879   20.9493 C   0  0  0  0  0  0
  -28.5522  -17.9499   19.8262 C   0  0  0  0  0  0
  -30.5848  -18.2555   21.0227 C   0  0  0  0  0  0
  -29.2786  -20.3220   20.3030 C   0  0  0  0  0  0
  -29.6604  -17.3200   20.4676 C   0  0  0  0  0  0
  -28.1524  -23.9373   19.0805 C   0  0  0  0  0  0
  -29.3478  -24.1978   21.1674 C   0  0  0  0  0  0
  -28.0354  -22.3708   19.3556 C   0  0  0  0  0  0
  -29.2672  -22.6265   21.4223 C   0  0  0  0  0  0
  -28.1830  -24.8612   20.3486 C   0  0  0  0  0  0
  -29.0915  -21.7782   20.2174 N   0  0  0  0  0  0
  -29.6620  -15.8363   20.6522 N   0  0  0  0  0  0
  -31.4861  -12.6369   19.1615 H   0  0  0  0  0  0
  -30.4249  -11.4966   19.9447 H   0  0  0  0  0  0
  -29.8048  -11.7470   17.5184 H   0  0  0  0  0  0
  -29.6316  -13.4717   17.7201 H   0  0  0  0  0  0
  -27.9053  -11.2787   18.9098 H   0  0  0  0  0  0
  -27.3842  -12.5199   17.8015 H   0  0  0  0  0  0
  -27.6389  -14.2452   19.4756 H   0  0  0  0  0  0
  -28.7388  -12.1287   21.3952 H   0  0  0  0  0  0
  -28.4196  -13.7887   21.8193 H   0  0  0  0  0  0
  -25.2764   -9.5673   22.4760 H   0  0  0  0  0  0
  -24.0001   -7.4627   22.7474 H   0  0  0  0  0  0
  -21.0843   -8.8774   19.8952 H   0  0  0  0  0  0
  -22.3705  -10.9672   19.6168 H   0  0  0  0  0  0
  -21.2004   -7.6148   23.9718 H   0  0  0  0  0  0
  -21.1482   -6.0523   25.9079 H   0  0  0  0  0  0
  -22.0598   -2.7609   23.2849 H   0  0  0  0  0  0
  -22.4092  -11.9871   22.4810 H   0  0  0  0  0  0
  -21.1097  -13.1241   22.2631 H   0  0  0  0  0  0
  -24.6454  -15.8355   20.5140 H   0  0  0  0  0  0
  -26.2531  -15.6298   20.0448 H   0  0  0  0  0  0
  -26.7220  -32.5380   23.1046 H   0  0  0  0  0  0
  -25.0074  -33.9669   25.0368 H   0  0  0  0  0  0
  -22.7298  -31.2951   21.3882 H   0  0  0  0  0  0
  -23.3756  -35.9603   23.3298 H   0  0  0  0  0  0
  -24.3576  -36.8911   22.2056 H   0  0  0  0  0  0
  -23.7239  -37.6470   23.6679 H   0  0  0  0  0  0
  -26.1188  -31.5205   20.6050 H   0  0  0  0  0  0
  -26.8550  -30.8105   22.0096 H   0  0  0  0  0  0
  -28.1321  -28.9218   21.1835 H   0  0  0  0  0  0
  -25.9621  -25.8645   19.0494 H   0  0  0  0  0  0
  -23.9742  -27.2782   19.0258 H   0  0  0  0  0  0
  -23.7777  -30.5729   19.3982 H   0  0  0  0  0  0
  -22.7696  -29.2331   19.8537 H   0  0  0  0  0  0
  -25.1305  -36.1896   25.0811 H   0  0  0  0  0  0
  -20.9992  -28.3286   24.1389 H   0  0  0  0  0  0
  -20.5684  -26.2313   23.3617 H   0  0  0  0  0  0
  -21.6647  -26.7437   22.1204 H   0  0  0  0  0  0
  -19.6913  -25.6294   21.1250 H   0  0  0  0  0  0
  -19.6692  -27.3193   20.6746 H   0  0  0  0  0  0
  -17.4203  -26.6688   21.4029 H   0  0  0  0  0  0
  -18.0328  -26.0074   22.9025 H   0  0  0  0  0  0
  -19.7942  -30.7292   24.2243 H   0  0  0  0  0  0
  -17.5016  -31.6266   24.5173 H   0  0  0  0  0  0
  -15.5356  -30.2982   23.7663 H   0  0  0  0  0  0
  -15.8684  -28.0822   22.7069 H   0  0  0  0  0  0
  -24.5899  -30.7084   25.7748 H   0  0  0  0  0  0
  -24.8912  -32.2908   26.4834 H   0  0  0  0  0  0
  -25.8027  -30.8919   27.0215 H   0  0  0  0  0  0
  -26.2958  -29.6728   24.1239 H   0  0  0  0  0  0
  -27.4029  -29.7271   25.4755 H   0  0  0  0  0  0
  -27.8841  -30.4262   23.9483 H   0  0  0  0  0  0
  -27.2651  -33.3639   26.2041 H   0  0  0  0  0  0
  -28.3874  -32.6879   25.0327 H   0  0  0  0  0  0
  -28.0710  -31.8477   26.5428 H   0  0  0  0  0  0
  -28.2588  -38.0096   24.7516 H   0  0  0  0  0  0
  -28.1080  -36.2627   24.6285 H   0  0  0  0  0  0
  -27.2294  -37.1433   25.8865 H   0  0  0  0  0  0
  -20.9408  -29.8752   21.6840 H   0  0  0  0  0  0
  -26.0163  -38.2831   24.1420 H   0  0  0  0  0  0
  -27.4959  -19.7267   19.2181 H   0  0  0  0  0  0
  -31.1435  -20.3122   21.4093 H   0  0  0  0  0  0
  -27.7849  -17.3273   19.3897 H   0  0  0  0  0  0
  -31.4465  -17.8811   21.5568 H   0  0  0  0  0  0
  -27.3260  -24.2326   18.4355 H   0  0  0  0  0  0
  -29.0521  -24.1202   18.4916 H   0  0  0  0  0  0
  -30.2903  -24.4145   20.6631 H   0  0  0  0  0  0
  -29.4191  -24.6983   22.1337 H   0  0  0  0  0  0
  -28.0374  -21.8543   18.3948 H   0  0  0  0  0  0
  -27.0646  -22.1620   19.8084 H   0  0  0  0  0  0
  -28.4359  -22.4227   22.0994 H   0  0  0  0  0  0
  -30.1666  -22.3158   21.9549 H   0  0  0  0  0  0
  -27.2609  -24.6981   20.9086 H   0  0  0  0  0  0
  -28.7375  -15.4653   20.8059 H   0  0  0  0  0  0
  1 25  1  0  0  0
  1 30  2  0  0  0
  1 83  1  0  0  0
  2  3  1  0  0  0
  2 25  1  0  0  0
  2 84  1  0  0  0
  2 85  1  0  0  0
  3  4  1  0  0  0
  3 86  1  0  0  0
  3 87  1  0  0  0
  4  5  1  0  0  0
  4 88  1  0  0  0
  4 89  1  0  0  0
  5  6  1  0  0  0
  5 26  1  0  0  0
  5 90  1  0  0  0
  6 25  1  0  0  0
  6 91  1  0  0  0
  6 92  1  0  0  0
  7  8  2  0  0  0
  7 26  1  0  0  0
  7 29  1  0  0  0
  8  9  1  0  0  0
  8 22  1  0  0  0
  9 10  1  0  0  0
  9 27  2  0  0  0
 10 11  2  0  0  0
 10 15  1  0  0  0
 11 12  1  0  0  0
 11 93  1  0  0  0
 12 13  2  0  0  0
 12 94  1  0  0  0
 13 14  1  0  0  0
 13 31  1  0  0  0
 14 15  2  0  0  0
 14 95  1  0  0  0
 15 96  1  0  0  0
 16 17  2  0  0  0
 16 21  1  0  0  0
 16 31  1  0  0  0
 17 18  1  0  0  0
 17 97  1  0  0  0
 18 19  2  0  0  0
 18 98  1  0  0  0
 19 20  1  0  0  0
 19 24  1  0  0  0
 20 21  2  0  0  0
 20 99  1  0  0  0
 21 23  1  0  0  0
 22 28  1  0  0  0
 22 32  2  0  0  0
 26 27  1  0  0  0
 28100  1  0  0  0
 28101  1  0  0  0
 29102  1  0  0  0
 29103  1  0  0  0
 33 34  1  0  0  0
 33 66  1  0  0  0
 33 70  2  0  0  0
 34 36  1  0  0  0
 34 59  1  0  0  0
 34104  1  0  0  0
 35 44  2  0  0  0
 35 45  1  0  0  0
 35 68  1  0  0  0
 36 56  1  0  0  0
 36105  1  0  0  0
 37 39  1  0  0  0
 37 47  1  0  0  0
 37 66  1  0  0  0
 37106  1  0  0  0
 38 43  2  0  0  0
 38 46  1  0  0  0
 38 47  1  0  0  0
 39 64  1  0  0  0
 39 67  2  0  0  0
 40 52  1  0  0  0
 40 53  2  0  0  0
 40 58  1  0  0  0
 41107  1  0  0  0
 41108  1  0  0  0
 41109  1  0  0  0
 41 48  1  0  0  0
 42 43  1  0  0  0
 42 66  1  0  0  0
 42110  1  0  0  0
 42111  1  0  0  0
 43 44  1  0  0  0
 44112  1  0  0  0
 45 46  2  0  0  0
 45113  1  0  0  0
 46114  1  0  0  0
 47115  1  0  0  0
 47116  1  0  0  0
 48 56  1  0  0  0
 48 65  1  0  0  0
 48117  1  0  0  0
 49 50  1  0  0  0
 49 53  1  0  0  0
 49 64  1  0  0  0
 49118  1  0  0  0
 50 51  1  0  0  0
 50119  1  0  0  0
 50120  1  0  0  0
 51 52  1  0  0  0
 51121  1  0  0  0
 51122  1  0  0  0
 52123  1  0  0  0
 52124  1  0  0  0
 53 54  1  0  0  0
 54 55  2  0  0  0
 54125  1  0  0  0
 55 57  1  0  0  0
 55126  1  0  0  0
 56 69  2  0  0  0
 57 58  2  0  0  0
 57127  1  0  0  0
 58128  1  0  0  0
 59 60  1  0  0  0
 59 61  1  0  0  0
 59 62  1  0  0  0
 60129  1  0  0  0
 60130  1  0  0  0
 60131  1  0  0  0
 61132  1  0  0  0
 61133  1  0  0  0
 61134  1  0  0  0
 62135  1  0  0  0
 62136  1  0  0  0
 62137  1  0  0  0
 63 65  1  0  0  0
 63138  1  0  0  0
 63139  1  0  0  0
 63140  1  0  0  0
 64141  1  0  0  0
 65142  1  0  0  0
 68 81  1  0  0  0
 71 73  2  0  0  0
 71 75  1  0  0  0
 71143  1  0  0  0
 72 74  1  0  0  0
 72 75  2  0  0  0
 72144  1  0  0  0
 73 76  1  0  0  0
 73145  1  0  0  0
 74 76  2  0  0  0
 74146  1  0  0  0
 75 82  1  0  0  0
 76 83  1  0  0  0
 77 79  1  0  0  0
 77 81  1  0  0  0
 77147  1  0  0  0
 77148  1  0  0  0
 78 80  1  0  0  0
 78 81  1  0  0  0
 78149  1  0  0  0
 78150  1  0  0  0
 79 82  1  0  0  0
 79151  1  0  0  0
 79152  1  0  0  0
 80 82  1  0  0  0
 80153  1  0  0  0
 80154  1  0  0  0
 81155  1  0  0  0
 83156  1  0  0  0
M  ISO  4   1 100  68 101  81 101  83 100
M  END
> <chiral flag>
0

> <version>
0

> <s_m_source_file>
/data/baiqing/PycharmProjects/Reinvent-master-3.2/result/LINK_invent/BTK/process_docking_weight1_custom_product_contain_oxygen_bond_distance_aromatic_linkinvent_7_9_3/rearranged_h_0004.sdf

> <i_m_source_file_index>
15

> <r_mmod_Potential_Energy-OPLS-2005>
190.801544189453

> <r_mmod_Stretch_Energy-OPLS-2005>
124.130180358887

> <r_mmod_Bend_Energy-OPLS-2005>
190.531784057617

> <r_mmod_Torsional_Energy-OPLS-2005>
259.040710449219

> <r_mmod_Improper_Torsional_Energy-OPLS-2005>
9.05308055877686

> <r_mmod_Van_der_Waal_Energy-OPLS-2005>
136.684219360352

> <r_mmod_Electrostatic_Energy-OPLS-2005>
-396.944183349609

> <r_mmod_Solvation_Energy-OPLS-2005>
-230.249862670898

> <b_mmod_Minimization_Converged-OPLS-2005>
0

> <r_mmod_RMS_Derivative-OPLS-2005>
0.348706066608429

$$$$
15
                    3D
 Structure written by MMmdl.
168176  0  0  1  0            999 V2000
  -30.7582  -14.3575   20.6937 C   0  0  0  0  0  0
  -30.4203  -12.2936   19.3833 C   0  0  0  0  0  0
  -29.4829  -12.5361   18.1853 C   0  0  0  0  0  0
  -28.0066  -12.3890   18.6016 C   0  0  0  0  0  0
  -27.6666  -13.2005   19.8794 C   0  0  2  0  0  0
  -28.7042  -12.9233   20.9887 C   0  0  0  0  0  0
  -25.2597  -13.8158   20.5653 C   0  0  0  0  0  0
  -24.1850  -13.0443   20.9177 C   0  0  0  0  0  0
  -24.6397  -11.6907   20.8735 C   0  0  0  0  0  0
  -23.9061  -10.4299   21.0402 C   0  0  0  0  0  0
  -24.3620   -9.4210   21.9175 C   0  0  0  0  0  0
  -23.6299   -8.2241   22.0747 C   0  0  0  0  0  0
  -22.4274   -8.0288   21.3546 C   0  0  0  0  0  0
  -21.9905   -9.0255   20.4640 C   0  0  0  0  0  0
  -22.7233  -10.2140   20.3048 C   0  0  0  0  0  0
  -21.6855   -6.0743   22.5282 C   0  0  0  0  0  0
  -21.4010   -6.5640   23.8217 C   0  0  0  0  0  0
  -21.3656   -5.6787   24.9174 C   0  0  0  0  0  0
  -21.6051   -4.3051   24.7216 C   0  0  0  0  0  0
  -21.8821   -3.8150   23.4332 C   0  0  0  0  0  0
  -21.9188   -4.6972   22.3396 C   0  0  0  0  0  0
  -22.7874  -13.5248   21.1845 C   0  0  0  0  0  0
  -22.1665   -4.2163   21.0970 F   0  0  0  0  0  0
  -21.5630   -3.4530   25.7724 F   0  0  0  0  0  0
  -30.0473  -13.2265   20.4557 N   0  0  0  0  0  0
  -26.3043  -12.9315   20.3364 N   0  0  0  0  0  0
  -25.9319  -11.6479   20.5743 N   0  0  0  0  0  0
  -22.0510  -12.8253   22.0410 N   0  0  0  0  0  0
  -25.4301  -15.1873   20.4002 N   0  0  0  0  0  0
  -31.7826  -14.6629   20.0751 O   0  0  0  0  0  0
  -21.6637   -6.8888   21.4244 O   0  0  0  0  0  0
  -22.3559  -14.5550   20.6685 O   0  0  0  0  0  0
  -24.6097  -31.8702   23.2132 C   0  0  0  0  0  0
  -25.9015  -32.4833   23.8408 C   0  0  1  0  0  0
  -27.2292  -27.4659   20.0875 C   0  0  0  0  0  0
  -25.5885  -33.8635   24.2335 N   0  0  0  0  0  0
  -23.3961  -30.4954   21.5527 C   0  0  2  0  0  0
  -24.8423  -28.9655   20.1155 C   0  0  0  0  0  0
  -22.7392  -29.4673   22.5004 C   0  0  0  0  0  0
  -18.0283  -28.1376   22.8501 C   0  0  0  0  0  0
  -24.1485  -36.7328   23.2636 C   0  0  0  0  0  0
  -25.9226  -30.8423   21.3659 C   0  0  0  0  0  0
  -25.9992  -29.4787   20.7159 C   0  0  0  0  0  0
  -27.1979  -28.7337   20.7044 C   0  0  0  0  0  0
  -26.0639  -26.9642   19.4733 C   0  0  0  0  0  0
  -24.8681  -27.7053   19.4928 C   0  0  0  0  0  0
  -23.6023  -29.8286   20.1665 C   0  0  0  0  0  0
  -25.4104  -36.3121   24.0338 C   0  0  1  0  0  0
  -20.5867  -28.3659   23.1343 C   0  0  2  0  0  0
  -20.6775  -26.9394   22.5446 C   0  0  0  0  0  0
  -19.5762  -26.6378   21.5240 C   0  0  0  0  0  0
  -18.1933  -26.7927   22.1629 C   0  0  0  0  0  0
  -19.1530  -28.8837   23.2917 C   0  0  0  0  0  0
  -18.9453  -30.1448   23.8910 C   0  0  0  0  0  0
  -17.6455  -30.6586   24.0570 C   0  0  0  0  0  0
  -25.9025  -34.9485   23.5130 C   0  0  0  0  0  0
  -16.5350  -29.9084   23.6321 C   0  0  0  0  0  0
  -16.7274  -28.6506   23.0337 C   0  0  0  0  0  0
  -26.4460  -31.6598   25.0719 C   0  0  0  0  0  0
  -25.3743  -31.3704   26.1477 C   0  0  0  0  0  0
  -27.0280  -30.3036   24.6086 C   0  0  0  0  0  0
  -27.6035  -32.4322   25.7475 C   0  0  0  0  0  0
  -27.5585  -37.1819   24.8464 C   0  0  0  0  0  0
  -21.4130  -29.3018   22.3743 N   0  0  0  0  0  0
  -26.4298  -37.3798   23.9399 N   0  0  0  0  0  0
  -24.6604  -31.0824   22.1023 N   0  0  0  0  0  0
  -23.4191  -28.8219   23.3030 O   0  0  0  0  0  0
  -28.3898  -26.7359   20.0635 O   0  0  0  0  0  0
  -26.5586  -34.8934   22.4692 O   0  0  0  0  0  0
  -23.5302  -32.1443   23.7547 O   0  0  0  0  0  0
  -28.7222  -17.5015   21.5129 C   0  0  0  0  0  0
  -27.8620  -18.6152   21.5009 C   0  0  0  0  0  0
  -30.2648  -18.7176   22.9303 C   0  0  0  0  0  0
  -29.3933  -19.8314   22.9563 C   0  0  0  0  0  0
  -29.9365  -17.5278   22.2379 C   0  0  0  0  0  0
  -28.1743  -19.7899   22.2216 C   0  0  0  0  0  0
  -29.8115  -20.9867   23.7590 C   0  0  0  0  0  0
  -27.1792  -20.9543   22.1514 C   0  0  0  0  0  0
  -28.0009  -24.3468   20.5284 C   0  0  0  0  0  0
  -28.0117  -23.2553   21.6154 C   0  0  0  0  0  0
  -28.4601  -25.7184   21.0624 C   0  0  0  0  0  0
  -30.8888  -16.3116   22.2513 C   0  0  1  0  0  0
  -31.4291  -15.9270   23.6550 C   0  0  0  0  0  0
  -29.0257  -21.4808   24.7105 N   0  0  0  0  0  0
  -30.2722  -15.1132   21.6797 N   0  0  0  0  0  0
  -30.9891  -21.5623   23.5344 N   0  3  0  0  0  0
  -27.5213  -21.9504   21.1117 N   0  3  0  0  0  0
  -32.2157  -16.8709   24.1683 F   0  0  0  0  0  0
  -30.4110  -15.7094   24.4888 F   0  0  0  0  0  0
  -32.1558  -14.8097   23.5819 F   0  0  0  0  0  0
  -31.4617  -12.4035   19.0750 H   0  0  0  0  0  0
  -30.3259  -11.2661   19.7373 H   0  0  0  0  0  0
  -29.7138  -11.8409   17.3770 H   0  0  0  0  0  0
  -29.6517  -13.5367   17.7848 H   0  0  0  0  0  0
  -27.8104  -11.3294   18.7698 H   0  0  0  0  0  0
  -27.3530  -12.6903   17.7813 H   0  0  0  0  0  0
  -27.7295  -14.2577   19.6198 H   0  0  0  0  0  0
  -28.6678  -11.8727   21.2809 H   0  0  0  0  0  0
  -28.4459  -13.4747   21.8926 H   0  0  0  0  0  0
  -25.2774   -9.5687   22.4734 H   0  0  0  0  0  0
  -24.0017   -7.4629   22.7462 H   0  0  0  0  0  0
  -21.0839   -8.8766   19.8946 H   0  0  0  0  0  0
  -22.3693  -10.9670   19.6150 H   0  0  0  0  0  0
  -21.2000   -7.6147   23.9727 H   0  0  0  0  0  0
  -21.1486   -6.0512   25.9082 H   0  0  0  0  0  0
  -22.0602   -2.7612   23.2820 H   0  0  0  0  0  0
  -22.4112  -11.9917   22.4819 H   0  0  0  0  0  0
  -21.1121  -13.1272   22.2592 H   0  0  0  0  0  0
  -24.6498  -15.8319   20.4689 H   0  0  0  0  0  0
  -26.2593  -15.6110   20.0067 H   0  0  0  0  0  0
  -26.7099  -32.5551   23.1189 H   0  0  0  0  0  0
  -25.0056  -33.9810   25.0493 H   0  0  0  0  0  0
  -22.6823  -31.3111   21.4182 H   0  0  0  0  0  0
  -23.3739  -35.9672   23.3299 H   0  0  0  0  0  0
  -24.3581  -36.8921   22.2049 H   0  0  0  0  0  0
  -23.7248  -37.6544   23.6635 H   0  0  0  0  0  0
  -26.0333  -31.6082   20.5967 H   0  0  0  0  0  0
  -26.8116  -30.8935   21.9825 H   0  0  0  0  0  0
  -28.0917  -29.1278   21.1670 H   0  0  0  0  0  0
  -26.0763  -26.0126   18.9631 H   0  0  0  0  0  0
  -23.9821  -27.3079   19.0165 H   0  0  0  0  0  0
  -23.7076  -30.6019   19.4046 H   0  0  0  0  0  0
  -22.7275  -29.2448   19.8736 H   0  0  0  0  0  0
  -25.1282  -36.2000   25.0836 H   0  0  0  0  0  0
  -20.9959  -28.3235   24.1464 H   0  0  0  0  0  0
  -20.5663  -26.2271   23.3635 H   0  0  0  0  0  0
  -21.6655  -26.7439   22.1257 H   0  0  0  0  0  0
  -19.6927  -25.6286   21.1274 H   0  0  0  0  0  0
  -19.6706  -27.3194   20.6776 H   0  0  0  0  0  0
  -17.4216  -26.6700   21.4018 H   0  0  0  0  0  0
  -18.0306  -26.0056   22.9009 H   0  0  0  0  0  0
  -19.7925  -30.7275   24.2274 H   0  0  0  0  0  0
  -17.5005  -31.6263   24.5174 H   0  0  0  0  0  0
  -15.5346  -30.2986   23.7636 H   0  0  0  0  0  0
  -15.8679  -28.0836   22.7021 H   0  0  0  0  0  0
  -24.5914  -30.7048   25.7829 H   0  0  0  0  0  0
  -24.8951  -32.2867   26.4939 H   0  0  0  0  0  0
  -25.8115  -30.8873   27.0225 H   0  0  0  0  0  0
  -26.2817  -29.6811   24.1139 H   0  0  0  0  0  0
  -27.4041  -29.7260   25.4541 H   0  0  0  0  0  0
  -27.8657  -30.4341   23.9231 H   0  0  0  0  0  0
  -27.2636  -33.3599   26.2097 H   0  0  0  0  0  0
  -28.3817  -32.6919   25.0284 H   0  0  0  0  0  0
  -28.0738  -31.8427   26.5355 H   0  0  0  0  0  0
  -28.2619  -38.0103   24.7506 H   0  0  0  0  0  0
  -28.1067  -36.2639   24.6297 H   0  0  0  0  0  0
  -27.2305  -37.1477   25.8869 H   0  0  0  0  0  0
  -20.9280  -29.8757   21.6988 H   0  0  0  0  0  0
  -26.0187  -38.2880   24.1394 H   0  0  0  0  0  0
  -28.4273  -16.6331   20.9432 H   0  0  0  0  0  0
  -26.9466  -18.5493   20.9285 H   0  0  0  0  0  0
  -31.1925  -18.7908   23.4771 H   0  0  0  0  0  0
  -27.0025  -21.4160   23.1216 H   0  0  0  0  0  0
  -26.2062  -20.5426   21.8797 H   0  0  0  0  0  0
  -26.9895  -24.4239   20.1356 H   0  0  0  0  0  0
  -28.6403  -24.0546   19.6943 H   0  0  0  0  0  0
  -27.3788  -23.5830   22.4420 H   0  0  0  0  0  0
  -29.0193  -23.1437   22.0136 H   0  0  0  0  0  0
  -29.4959  -25.6498   21.3963 H   0  0  0  0  0  0
  -27.8796  -25.9981   21.9441 H   0  0  0  0  0  0
  -31.7460  -16.6028   21.6424 H   0  0  0  0  0  0
  -28.2204  -20.9482   25.0056 H   0  0  0  0  0  0
  -29.3049  -22.2509   25.2977 H   0  0  0  0  0  0
  -29.4698  -14.7492   22.1678 H   0  0  0  0  0  0
  -31.5822  -21.2038   22.8004 H   0  0  0  0  0  0
  -31.3413  -22.3231   24.0938 H   0  0  0  0  0  0
  -26.6701  -22.1226   20.6022 H   0  0  0  0  0  0
  -28.1776  -21.5468   20.4625 H   0  0  0  0  0  0
  1 25  1  0  0  0
  1 30  2  0  0  0
  1 85  1  0  0  0
  2  3  1  0  0  0
  2 25  1  0  0  0
  2 91  1  0  0  0
  2 92  1  0  0  0
  3  4  1  0  0  0
  3 93  1  0  0  0
  3 94  1  0  0  0
  4  5  1  0  0  0
  4 95  1  0  0  0
  4 96  1  0  0  0
  5  6  1  0  0  0
  5 26  1  0  0  0
  5 97  1  0  0  0
  6 25  1  0  0  0
  6 98  1  0  0  0
  6 99  1  0  0  0
  7  8  2  0  0  0
  7 26  1  0  0  0
  7 29  1  0  0  0
  8  9  1  0  0  0
  8 22  1  0  0  0
  9 10  1  0  0  0
  9 27  2  0  0  0
 10 11  2  0  0  0
 10 15  1  0  0  0
 11 12  1  0  0  0
 11100  1  0  0  0
 12 13  2  0  0  0
 12101  1  0  0  0
 13 14  1  0  0  0
 13 31  1  0  0  0
 14 15  2  0  0  0
 14102  1  0  0  0
 15103  1  0  0  0
 16 17  2  0  0  0
 16 21  1  0  0  0
 16 31  1  0  0  0
 17 18  1  0  0  0
 17104  1  0  0  0
 18 19  2  0  0  0
 18105  1  0  0  0
 19 20  1  0  0  0
 19 24  1  0  0  0
 20 21  2  0  0  0
 20106  1  0  0  0
 21 23  1  0  0  0
 22 28  1  0  0  0
 22 32  2  0  0  0
 26 27  1  0  0  0
 28107  1  0  0  0
 28108  1  0  0  0
 29109  1  0  0  0
 29110  1  0  0  0
 33 34  1  0  0  0
 33 66  1  0  0  0
 33 70  2  0  0  0
 34 36  1  0  0  0
 34 59  1  0  0  0
 34111  1  0  0  0
 35 44  2  0  0  0
 35 45  1  0  0  0
 35 68  1  0  0  0
 36 56  1  0  0  0
 36112  1  0  0  0
 37 39  1  0  0  0
 37 47  1  0  0  0
 37 66  1  0  0  0
 37113  1  0  0  0
 38 43  2  0  0  0
 38 46  1  0  0  0
 38 47  1  0  0  0
 39 64  1  0  0  0
 39 67  2  0  0  0
 40 52  1  0  0  0
 40 53  2  0  0  0
 40 58  1  0  0  0
 41114  1  0  0  0
 41115  1  0  0  0
 41116  1  0  0  0
 41 48  1  0  0  0
 42 43  1  0  0  0
 42 66  1  0  0  0
 42117  1  0  0  0
 42118  1  0  0  0
 43 44  1  0  0  0
 44119  1  0  0  0
 45 46  2  0  0  0
 45120  1  0  0  0
 46121  1  0  0  0
 47122  1  0  0  0
 47123  1  0  0  0
 48 56  1  0  0  0
 48 65  1  0  0  0
 48124  1  0  0  0
 49 50  1  0  0  0
 49 53  1  0  0  0
 49 64  1  0  0  0
 49125  1  0  0  0
 50 51  1  0  0  0
 50126  1  0  0  0
 50127  1  0  0  0
 51 52  1  0  0  0
 51128  1  0  0  0
 51129  1  0  0  0
 52130  1  0  0  0
 52131  1  0  0  0
 53 54  1  0  0  0
 54 55  2  0  0  0
 54132  1  0  0  0
 55 57  1  0  0  0
 55133  1  0  0  0
 56 69  2  0  0  0
 57 58  2  0  0  0
 57134  1  0  0  0
 58135  1  0  0  0
 59 60  1  0  0  0
 59 61  1  0  0  0
 59 62  1  0  0  0
 60136  1  0  0  0
 60137  1  0  0  0
 60138  1  0  0  0
 61139  1  0  0  0
 61140  1  0  0  0
 61141  1  0  0  0
 62142  1  0  0  0
 62143  1  0  0  0
 62144  1  0  0  0
 63 65  1  0  0  0
 63145  1  0  0  0
 63146  1  0  0  0
 63147  1  0  0  0
 64148  1  0  0  0
 65149  1  0  0  0
 68 81  1  0  0  0
 71 72  2  0  0  0
 71 75  1  0  0  0
 71150  1  0  0  0
 72 76  1  0  0  0
 72151  1  0  0  0
 73 74  1  0  0  0
 73 75  2  0  0  0
 73152  1  0  0  0
 74 76  2  0  0  0
 74 77  1  0  0  0
 75 82  1  0  0  0
 76 78  1  0  0  0
 77 84  1  0  0  0
 77 86  2  0  0  0
 78 87  1  0  0  0
 78153  1  0  0  0
 78154  1  0  0  0
 79 80  1  0  0  0
 79 81  1  0  0  0
 79155  1  0  0  0
 79156  1  0  0  0
 80 87  1  0  0  0
 80157  1  0  0  0
 80158  1  0  0  0
 81159  1  0  0  0
 81160  1  0  0  0
 82 83  1  0  0  0
 82 85  1  0  0  0
 82161  1  0  0  0
 83 88  1  0  0  0
 83 89  1  0  0  0
 83 90  1  0  0  0
 84162  1  0  0  0
 84163  1  0  0  0
 85164  1  0  0  0
 86165  1  0  0  0
 86166  1  0  0  0
 87167  1  0  0  0
 87168  1  0  0  0
M  CHG  2  86   1  87   1
M  ISO  4   1 100  68 101  81 101  85 100
M  END
> <chiral flag>
0

> <version>
0

> <s_m_source_file>
/data/baiqing/PycharmProjects/Reinvent-master-3.2/result/LINK_invent/BTK/process_docking_weight1_custom_product_contain_oxygen_bond_distance_aromatic_linkinvent_7_9_3/rearranged_h_0004.sdf

> <i_m_source_file_index>
16

> <r_mmod_Potential_Energy-OPLS-2005>
-616.539367675781

> <r_mmod_Stretch_Energy-OPLS-2005>
36.0808029174805

> <r_mmod_Bend_Energy-OPLS-2005>
94.8230972290039

> <r_mmod_Torsional_Energy-OPLS-2005>
230.260314941406

> <r_mmod_Improper_Torsional_Energy-OPLS-2005>
2.96688985824585

> <r_mmod_Van_der_Waal_Energy-OPLS-2005>
158.760864257812

> <r_mmod_Electrostatic_Energy-OPLS-2005>
-152.887908935547

> <r_mmod_Solvation_Energy-OPLS-2005>
-993.519226074219

> <b_mmod_Minimization_Converged-OPLS-2005>
0

> <r_mmod_RMS_Derivative-OPLS-2005>
1.5188924074173

$$$$
16
                    3D
 Structure written by MMmdl.
154162  0  0  1  0            999 V2000
  -30.6896  -14.5241   20.4615 C   0  0  0  0  0  0
  -30.4107  -12.3048   19.4464 C   0  0  0  0  0  0
  -29.4970  -12.4872   18.2177 C   0  0  0  0  0  0
  -28.0192  -12.3515   18.6274 C   0  0  0  0  0  0
  -27.6549  -13.2133   19.8688 C   0  0  2  0  0  0
  -28.7011  -13.0559   20.9987 C   0  0  0  0  0  0
  -25.2557  -13.8159   20.5697 C   0  0  0  0  0  0
  -24.1849  -13.0405   20.9178 C   0  0  0  0  0  0
  -24.6400  -11.6877   20.8709 C   0  0  0  0  0  0
  -23.9110  -10.4263   21.0369 C   0  0  0  0  0  0
  -24.3667   -9.4188   21.9158 C   0  0  0  0  0  0
  -23.6336   -8.2237   22.0748 C   0  0  0  0  0  0
  -22.4298   -8.0290   21.3555 C   0  0  0  0  0  0
  -21.9942   -9.0248   20.4636 C   0  0  0  0  0  0
  -22.7269  -10.2128   20.3026 C   0  0  0  0  0  0
  -21.6854   -6.0765   22.5285 C   0  0  0  0  0  0
  -21.4017   -6.5653   23.8217 C   0  0  0  0  0  0
  -21.3662   -5.6801   24.9175 C   0  0  0  0  0  0
  -21.6040   -4.3061   24.7224 C   0  0  0  0  0  0
  -21.8818   -3.8183   23.4335 C   0  0  0  0  0  0
  -21.9196   -4.7005   22.3400 C   0  0  0  0  0  0
  -22.7862  -13.5187   21.1842 C   0  0  0  0  0  0
  -22.1643   -4.2187   21.0973 F   0  0  0  0  0  0
  -21.5643   -3.4527   25.7734 F   0  0  0  0  0  0
  -30.0268  -13.3344   20.4286 N   0  0  0  0  0  0
  -26.3009  -12.9357   20.3368 N   0  0  0  0  0  0
  -25.9332  -11.6500   20.5772 N   0  0  0  0  0  0
  -22.0576  -12.8163   22.0414 N   0  0  0  0  0  0
  -25.4180  -15.1909   20.4087 N   0  0  0  0  0  0
  -31.8746  -14.6200   20.1361 O   0  0  0  0  0  0
  -21.6644   -6.8905   21.4247 O   0  0  0  0  0  0
  -22.3499  -14.5465   20.6687 O   0  0  0  0  0  0
  -24.6098  -31.8696   23.2106 C   0  0  0  0  0  0
  -25.8981  -32.4847   23.8441 C   0  0  1  0  0  0
  -27.2370  -27.4122   20.1334 C   0  0  0  0  0  0
  -25.5852  -33.8650   24.2362 N   0  0  0  0  0  0
  -23.4009  -30.4895   21.5506 C   0  0  2  0  0  0
  -24.8510  -28.9477   20.1178 C   0  0  0  0  0  0
  -22.7369  -29.4678   22.5015 C   0  0  0  0  0  0
  -18.0263  -28.1366   22.8488 C   0  0  0  0  0  0
  -24.1482  -36.7316   23.2653 C   0  0  0  0  0  0
  -25.9280  -30.8318   21.3624 C   0  0  0  0  0  0
  -26.0088  -29.4633   20.7117 C   0  0  0  0  0  0
  -27.2029  -28.7060   20.7081 C   0  0  0  0  0  0
  -26.0630  -26.9134   19.5246 C   0  0  0  0  0  0
  -24.8754  -27.6752   19.5172 C   0  0  0  0  0  0
  -23.6100  -29.8127   20.1678 C   0  0  0  0  0  0
  -25.4097  -36.3127   24.0364 C   0  0  1  0  0  0
  -20.5842  -28.3653   23.1328 C   0  0  2  0  0  0
  -20.6744  -26.9392   22.5408 C   0  0  0  0  0  0
  -19.5739  -26.6370   21.5190 C   0  0  0  0  0  0
  -18.1916  -26.7926   22.1601 C   0  0  0  0  0  0
  -19.1511  -28.8824   23.2910 C   0  0  0  0  0  0
  -18.9438  -30.1440   23.8911 C   0  0  0  0  0  0
  -17.6441  -30.6583   24.0554 C   0  0  0  0  0  0
  -25.9006  -34.9493   23.5148 C   0  0  0  0  0  0
  -16.5333  -29.9067   23.6324 C   0  0  0  0  0  0
  -16.7251  -28.6479   23.0346 C   0  0  0  0  0  0
  -26.4419  -31.6641   25.0773 C   0  0  0  0  0  0
  -25.3740  -31.3716   26.1569 C   0  0  0  0  0  0
  -27.0235  -30.3102   24.6104 C   0  0  0  0  0  0
  -27.5995  -32.4401   25.7510 C   0  0  0  0  0  0
  -27.5579  -37.1815   24.8474 C   0  0  0  0  0  0
  -21.4106  -29.3036   22.3739 N   0  0  0  0  0  0
  -26.4291  -37.3794   23.9418 N   0  0  0  0  0  0
  -24.6645  -31.0779   22.1003 N   0  0  0  0  0  0
  -23.4142  -28.8244   23.3077 O   0  0  0  0  0  0
  -28.4200  -26.6996   20.1958 O   0  0  0  0  0  0
  -26.5565  -34.8938   22.4710 O   0  0  0  0  0  0
  -23.5283  -32.1471   23.7508 O   0  0  0  0  0  0
  -30.0827  -19.2296   19.0166 C   0  0  0  0  0  0
  -28.9154  -18.5990   21.0427 C   0  0  0  0  0  0
  -29.6399  -20.5614   19.1589 C   0  0  0  0  0  0
  -28.4762  -19.9473   21.1948 C   0  0  0  0  0  0
  -29.7158  -18.2203   19.9364 C   0  0  0  0  0  0
  -28.8168  -20.9420   20.2344 C   0  0  0  0  0  0
  -30.2024  -16.7857   19.6272 C   0  0  0  0  0  0
  -27.8054  -24.4599   21.2358 C   0  0  0  0  0  0
  -28.2876  -22.9833   21.4401 C   0  0  0  0  0  0
  -28.4449  -25.2589   20.0625 C   0  0  0  0  0  0
  -29.9168  -15.6369   20.5198 N   0  0  0  0  0  0
  -28.3452  -22.2467   20.2188 O   0  0  0  0  0  0
  -31.4598  -12.3660   19.1501 H   0  0  0  0  0  0
  -30.2755  -11.3070   19.8691 H   0  0  0  0  0  0
  -29.7366  -11.7474   17.4514 H   0  0  0  0  0  0
  -29.6724  -13.4630   17.7654 H   0  0  0  0  0  0
  -27.8359  -11.2986   18.8415 H   0  0  0  0  0  0
  -27.3737  -12.6028   17.7869 H   0  0  0  0  0  0
  -27.6812  -14.2523   19.5426 H   0  0  0  0  0  0
  -28.6889  -12.0447   21.4057 H   0  0  0  0  0  0
  -28.4770  -13.7219   21.8345 H   0  0  0  0  0  0
  -25.2816   -9.5671   22.4714 H   0  0  0  0  0  0
  -24.0077   -7.4620   22.7423 H   0  0  0  0  0  0
  -21.0903   -8.8747   19.8902 H   0  0  0  0  0  0
  -22.3722  -10.9688   19.6141 H   0  0  0  0  0  0
  -21.1989   -7.6152   23.9730 H   0  0  0  0  0  0
  -21.1474   -6.0526   25.9081 H   0  0  0  0  0  0
  -22.0591   -2.7647   23.2819 H   0  0  0  0  0  0
  -22.4300  -11.9873   22.4819 H   0  0  0  0  0  0
  -21.1142  -13.1092   22.2549 H   0  0  0  0  0  0
  -24.6381  -15.8296   20.5153 H   0  0  0  0  0  0
  -26.2530  -15.6467   20.0669 H   0  0  0  0  0  0
  -26.7041  -32.5560   23.1212 H   0  0  0  0  0  0
  -25.0069  -33.9856   25.0548 H   0  0  0  0  0  0
  -22.6914  -31.3070   21.4055 H   0  0  0  0  0  0
  -23.3751  -35.9636   23.3332 H   0  0  0  0  0  0
  -24.3574  -36.8891   22.2055 H   0  0  0  0  0  0
  -23.7209  -37.6525   23.6639 H   0  0  0  0  0  0
  -26.0373  -31.5957   20.5928 H   0  0  0  0  0  0
  -26.8166  -30.8928   21.9783 H   0  0  0  0  0  0
  -28.0966  -29.1024   21.1706 H   0  0  0  0  0  0
  -26.0464  -25.9361   19.0640 H   0  0  0  0  0  0
  -23.9833  -27.2686   19.0638 H   0  0  0  0  0  0
  -23.7177  -30.5870   19.4059 H   0  0  0  0  0  0
  -22.7337  -29.2305   19.8734 H   0  0  0  0  0  0
  -25.1263  -36.2015   25.0850 H   0  0  0  0  0  0
  -20.9946  -28.3199   24.1447 H   0  0  0  0  0  0
  -20.5591  -26.2258   23.3589 H   0  0  0  0  0  0
  -21.6623  -26.7403   22.1238 H   0  0  0  0  0  0
  -19.6892  -25.6266   21.1244 H   0  0  0  0  0  0
  -19.6704  -27.3155   20.6702 H   0  0  0  0  0  0
  -17.4178  -26.6683   21.4001 H   0  0  0  0  0  0
  -18.0330  -26.0055   22.8986 H   0  0  0  0  0  0
  -19.7907  -30.7248   24.2293 H   0  0  0  0  0  0
  -17.4986  -31.6267   24.5140 H   0  0  0  0  0  0
  -15.5333  -30.2957   23.7649 H   0  0  0  0  0  0
  -15.8662  -28.0795   22.7065 H   0  0  0  0  0  0
  -24.5885  -30.7069   25.7947 H   0  0  0  0  0  0
  -24.8966  -32.2840   26.5141 H   0  0  0  0  0  0
  -25.8172  -30.8832   27.0254 H   0  0  0  0  0  0
  -26.2737  -29.6921   24.1132 H   0  0  0  0  0  0
  -27.3975  -29.7290   25.4538 H   0  0  0  0  0  0
  -27.8596  -30.4458   23.9251 H   0  0  0  0  0  0
  -27.2581  -33.3676   26.2126 H   0  0  0  0  0  0
  -28.3746  -32.7021   25.0301 H   0  0  0  0  0  0
  -28.0720  -31.8531   26.5389 H   0  0  0  0  0  0
  -28.2610  -38.0103   24.7490 H   0  0  0  0  0  0
  -28.1067  -36.2626   24.6329 H   0  0  0  0  0  0
  -27.2315  -37.1499   25.8889 H   0  0  0  0  0  0
  -20.9257  -29.8761   21.6981 H   0  0  0  0  0  0
  -26.0204  -38.2883   24.1395 H   0  0  0  0  0  0
  -30.7007  -18.9838   18.1647 H   0  0  0  0  0  0
  -28.6099  -17.8550   21.7650 H   0  0  0  0  0  0
  -29.9236  -21.3005   18.4228 H   0  0  0  0  0  0
  -27.8384  -20.1965   22.0317 H   0  0  0  0  0  0
  -31.2747  -16.8705   19.4316 H   0  0  0  0  0  0
  -29.7664  -16.5194   18.6622 H   0  0  0  0  0  0
  -27.9987  -24.9990   22.1652 H   0  0  0  0  0  0
  -26.7217  -24.4705   21.1233 H   0  0  0  0  0  0
  -27.6106  -22.4867   22.1328 H   0  0  0  0  0  0
  -29.2721  -22.9660   21.9113 H   0  0  0  0  0  0
  -28.0369  -24.9438   19.1023 H   0  0  0  0  0  0
  -29.5009  -24.9925   20.0213 H   0  0  0  0  0  0
  -28.9616  -15.5095   20.8101 H   0  0  0  0  0  0
  1 25  1  0  0  0
  1 30  2  0  0  0
  1 81  1  0  0  0
  2  3  1  0  0  0
  2 25  1  0  0  0
  2 83  1  0  0  0
  2 84  1  0  0  0
  3  4  1  0  0  0
  3 85  1  0  0  0
  3 86  1  0  0  0
  4  5  1  0  0  0
  4 87  1  0  0  0
  4 88  1  0  0  0
  5  6  1  0  0  0
  5 26  1  0  0  0
  5 89  1  0  0  0
  6 25  1  0  0  0
  6 90  1  0  0  0
  6 91  1  0  0  0
  7  8  2  0  0  0
  7 26  1  0  0  0
  7 29  1  0  0  0
  8  9  1  0  0  0
  8 22  1  0  0  0
  9 10  1  0  0  0
  9 27  2  0  0  0
 10 11  2  0  0  0
 10 15  1  0  0  0
 11 12  1  0  0  0
 11 92  1  0  0  0
 12 13  2  0  0  0
 12 93  1  0  0  0
 13 14  1  0  0  0
 13 31  1  0  0  0
 14 15  2  0  0  0
 14 94  1  0  0  0
 15 95  1  0  0  0
 16 17  2  0  0  0
 16 21  1  0  0  0
 16 31  1  0  0  0
 17 18  1  0  0  0
 17 96  1  0  0  0
 18 19  2  0  0  0
 18 97  1  0  0  0
 19 20  1  0  0  0
 19 24  1  0  0  0
 20 21  2  0  0  0
 20 98  1  0  0  0
 21 23  1  0  0  0
 22 28  1  0  0  0
 22 32  2  0  0  0
 26 27  1  0  0  0
 28 99  1  0  0  0
 28100  1  0  0  0
 29101  1  0  0  0
 29102  1  0  0  0
 33 34  1  0  0  0
 33 66  1  0  0  0
 33 70  2  0  0  0
 34 36  1  0  0  0
 34 59  1  0  0  0
 34103  1  0  0  0
 35 44  2  0  0  0
 35 45  1  0  0  0
 35 68  1  0  0  0
 36 56  1  0  0  0
 36104  1  0  0  0
 37 39  1  0  0  0
 37 47  1  0  0  0
 37 66  1  0  0  0
 37105  1  0  0  0
 38 43  2  0  0  0
 38 46  1  0  0  0
 38 47  1  0  0  0
 39 64  1  0  0  0
 39 67  2  0  0  0
 40 52  1  0  0  0
 40 53  2  0  0  0
 40 58  1  0  0  0
 41106  1  0  0  0
 41107  1  0  0  0
 41108  1  0  0  0
 41 48  1  0  0  0
 42 43  1  0  0  0
 42 66  1  0  0  0
 42109  1  0  0  0
 42110  1  0  0  0
 43 44  1  0  0  0
 44111  1  0  0  0
 45 46  2  0  0  0
 45112  1  0  0  0
 46113  1  0  0  0
 47114  1  0  0  0
 47115  1  0  0  0
 48 56  1  0  0  0
 48 65  1  0  0  0
 48116  1  0  0  0
 49 50  1  0  0  0
 49 53  1  0  0  0
 49 64  1  0  0  0
 49117  1  0  0  0
 50 51  1  0  0  0
 50118  1  0  0  0
 50119  1  0  0  0
 51 52  1  0  0  0
 51120  1  0  0  0
 51121  1  0  0  0
 52122  1  0  0  0
 52123  1  0  0  0
 53 54  1  0  0  0
 54 55  2  0  0  0
 54124  1  0  0  0
 55 57  1  0  0  0
 55125  1  0  0  0
 56 69  2  0  0  0
 57 58  2  0  0  0
 57126  1  0  0  0
 58127  1  0  0  0
 59 60  1  0  0  0
 59 61  1  0  0  0
 59 62  1  0  0  0
 60128  1  0  0  0
 60129  1  0  0  0
 60130  1  0  0  0
 61131  1  0  0  0
 61132  1  0  0  0
 61133  1  0  0  0
 62134  1  0  0  0
 62135  1  0  0  0
 62136  1  0  0  0
 63 65  1  0  0  0
 63137  1  0  0  0
 63138  1  0  0  0
 63139  1  0  0  0
 64140  1  0  0  0
 65141  1  0  0  0
 68 80  1  0  0  0
 71 73  2  0  0  0
 71 75  1  0  0  0
 71142  1  0  0  0
 72 74  1  0  0  0
 72 75  2  0  0  0
 72143  1  0  0  0
 73 76  1  0  0  0
 73144  1  0  0  0
 74 76  2  0  0  0
 74145  1  0  0  0
 75 77  1  0  0  0
 76 82  1  0  0  0
 77 81  1  0  0  0
 77146  1  0  0  0
 77147  1  0  0  0
 78 79  1  0  0  0
 78 80  1  0  0  0
 78148  1  0  0  0
 78149  1  0  0  0
 79 82  1  0  0  0
 79150  1  0  0  0
 79151  1  0  0  0
 80152  1  0  0  0
 80153  1  0  0  0
 81154  1  0  0  0
M  ISO  4   1 100  68 101  80 101  81 100
M  END
> <chiral flag>
0

> <version>
0

> <s_m_source_file>
/data/baiqing/PycharmProjects/Reinvent-master-3.2/result/LINK_invent/BTK/process_docking_weight1_custom_product_contain_oxygen_bond_distance_aromatic_linkinvent_7_9_3/rearranged_h_0004.sdf

> <i_m_source_file_index>
17

> <r_mmod_Potential_Energy-OPLS-2005>
-43.8608894348145

> <r_mmod_Stretch_Energy-OPLS-2005>
44.3968620300293

> <r_mmod_Bend_Energy-OPLS-2005>
128.683959960938

> <r_mmod_Torsional_Energy-OPLS-2005>
231.517532348633

> <r_mmod_Improper_Torsional_Energy-OPLS-2005>
11.4373321533203

> <r_mmod_Van_der_Waal_Energy-OPLS-2005>
144.70849609375

> <r_mmod_Electrostatic_Energy-OPLS-2005>
-417.623291015625

> <r_mmod_Solvation_Energy-OPLS-2005>
-211.263778686523

> <b_mmod_Minimization_Converged-OPLS-2005>
0

> <r_mmod_RMS_Derivative-OPLS-2005>
4.2318434715271

$$$$
17
                    3D
 Structure written by MMmdl.
156164  0  0  1  0            999 V2000
  -30.6835  -14.5295   20.5632 C   0  0  0  0  0  0
  -30.4341  -12.3320   19.4599 C   0  0  0  0  0  0
  -29.5156  -12.5135   18.2312 C   0  0  0  0  0  0
  -28.0307  -12.3770   18.6224 C   0  0  0  0  0  0
  -27.6662  -13.2184   19.8767 C   0  0  2  0  0  0
  -28.7035  -13.0154   21.0082 C   0  0  0  0  0  0
  -25.2565  -13.8191   20.5664 C   0  0  0  0  0  0
  -24.1842  -13.0447   20.9158 C   0  0  0  0  0  0
  -24.6418  -11.6921   20.8694 C   0  0  0  0  0  0
  -23.9083  -10.4304   21.0363 C   0  0  0  0  0  0
  -24.3628   -9.4221   21.9158 C   0  0  0  0  0  0
  -23.6309   -8.2253   22.0750 C   0  0  0  0  0  0
  -22.4293   -8.0281   21.3536 C   0  0  0  0  0  0
  -21.9910   -9.0256   20.4634 C   0  0  0  0  0  0
  -22.7236  -10.2135   20.3035 C   0  0  0  0  0  0
  -21.6862   -6.0727   22.5286 C   0  0  0  0  0  0
  -21.4006   -6.5627   23.8219 C   0  0  0  0  0  0
  -21.3667   -5.6780   24.9180 C   0  0  0  0  0  0
  -21.6059   -4.3047   24.7224 C   0  0  0  0  0  0
  -21.8821   -3.8135   23.4344 C   0  0  0  0  0  0
  -21.9185   -4.6952   22.3396 C   0  0  0  0  0  0
  -22.7849  -13.5228   21.1816 C   0  0  0  0  0  0
  -22.1667   -4.2156   21.0977 F   0  0  0  0  0  0
  -21.5632   -3.4528   25.7725 F   0  0  0  0  0  0
  -30.0437  -13.3243   20.4779 N   0  0  0  0  0  0
  -26.3049  -12.9409   20.3348 N   0  0  0  0  0  0
  -25.9364  -11.6556   20.5732 N   0  0  0  0  0  0
  -22.0492  -12.8248   22.0382 N   0  0  0  0  0  0
  -25.4221  -15.1916   20.4098 N   0  0  0  0  0  0
  -31.7525  -14.7466   19.9898 O   0  0  0  0  0  0
  -21.6655   -6.8875   21.4250 O   0  0  0  0  0  0
  -22.3526  -14.5518   20.6638 O   0  0  0  0  0  0
  -24.6172  -31.8680   23.2057 C   0  0  0  0  0  0
  -25.9059  -32.4821   23.8363 C   0  0  1  0  0  0
  -27.2388  -27.4039   20.0943 C   0  0  0  0  0  0
  -25.5908  -33.8615   24.2294 N   0  0  0  0  0  0
  -23.4038  -30.4913   21.5488 C   0  0  2  0  0  0
  -24.8511  -28.9550   20.1082 C   0  0  0  0  0  0
  -22.7420  -29.4658   22.4983 C   0  0  0  0  0  0
  -18.0286  -28.1375   22.8515 C   0  0  0  0  0  0
  -24.1480  -36.7317   23.2640 C   0  0  0  0  0  0
  -25.9357  -30.8241   21.3604 C   0  0  0  0  0  0
  -26.0125  -29.4546   20.7110 C   0  0  0  0  0  0
  -27.2027  -28.6869   20.7030 C   0  0  0  0  0  0
  -26.0539  -26.9384   19.4688 C   0  0  0  0  0  0
  -24.8706  -27.6981   19.4839 C   0  0  0  0  0  0
  -23.6118  -29.8222   20.1632 C   0  0  0  0  0  0
  -25.4104  -36.3130   24.0345 C   0  0  1  0  0  0
  -20.5875  -28.3665   23.1339 C   0  0  2  0  0  0
  -20.6779  -26.9406   22.5434 C   0  0  0  0  0  0
  -19.5749  -26.6395   21.5234 C   0  0  0  0  0  0
  -18.1926  -26.7917   22.1638 C   0  0  0  0  0  0
  -19.1530  -28.8832   23.2926 C   0  0  0  0  0  0
  -18.9462  -30.1446   23.8939 C   0  0  0  0  0  0
  -17.6468  -30.6588   24.0572 C   0  0  0  0  0  0
  -25.9057  -34.9493   23.5128 C   0  0  0  0  0  0
  -16.5365  -29.9098   23.6326 C   0  0  0  0  0  0
  -16.7277  -28.6503   23.0367 C   0  0  0  0  0  0
  -26.4456  -31.6601   25.0696 C   0  0  0  0  0  0
  -25.3690  -31.3734   26.1420 C   0  0  0  0  0  0
  -27.0262  -30.3054   24.6053 C   0  0  0  0  0  0
  -27.6023  -32.4315   25.7469 C   0  0  0  0  0  0
  -27.5579  -37.1818   24.8464 C   0  0  0  0  0  0
  -21.4142  -29.3034   22.3726 N   0  0  0  0  0  0
  -26.4294  -37.3809   23.9408 N   0  0  0  0  0  0
  -24.6711  -31.0744   22.0976 N   0  0  0  0  0  0
  -23.4193  -28.8203   23.3040 O   0  0  0  0  0  0
  -28.4155  -26.6650   20.1388 O   0  0  0  0  0  0
  -26.5626  -34.8946   22.4701 O   0  0  0  0  0  0
  -23.5369  -32.1436   23.7460 O   0  0  0  0  0  0
  -32.2584  -19.3377   19.8693 C   0  0  0  0  0  0
  -31.5944  -18.1111   20.0798 C   0  0  0  0  0  0
  -31.6310  -20.5625   20.1758 C   0  0  0  0  0  0
  -29.6476  -19.3341   20.8718 C   0  0  0  0  0  0
  -30.2755  -18.0860   20.5802 C   0  0  0  0  0  0
  -30.3139  -20.5812   20.6858 C   0  0  0  0  0  0
  -29.4760  -16.7617   20.6878 C   0  0  0  0  0  0
  -29.6828  -21.9228   21.1302 C   0  0  0  0  0  0
  -29.4132  -24.3886   20.5607 C   0  0  0  0  0  0
  -28.4145  -25.2679   19.7485 C   0  0  0  0  0  0
  -30.0431  -15.5047   21.2482 N   0  0  0  0  0  0
  -29.5257  -22.9702   20.0723 N   0  3  0  0  0  0
  -31.4835  -12.4255   19.1716 H   0  0  0  0  0  0
  -30.3307  -11.3257   19.8716 H   0  0  0  0  0  0
  -29.7670  -11.7776   17.4663 H   0  0  0  0  0  0
  -29.6928  -13.4940   17.7851 H   0  0  0  0  0  0
  -27.8315  -11.3210   18.8102 H   0  0  0  0  0  0
  -27.3934  -12.6576   17.7824 H   0  0  0  0  0  0
  -27.7046  -14.2652   19.5773 H   0  0  0  0  0  0
  -28.6803  -11.9828   21.3617 H   0  0  0  0  0  0
  -28.4426  -13.6174   21.8786 H   0  0  0  0  0  0
  -25.2792   -9.5691   22.4706 H   0  0  0  0  0  0
  -24.0017   -7.4654   22.7474 H   0  0  0  0  0  0
  -21.0838   -8.8776   19.8954 H   0  0  0  0  0  0
  -22.3713  -10.9659   19.6117 H   0  0  0  0  0  0
  -21.2012   -7.6140   23.9721 H   0  0  0  0  0  0
  -21.1486   -6.0511   25.9087 H   0  0  0  0  0  0
  -22.0587   -2.7601   23.2844 H   0  0  0  0  0  0
  -22.4145  -11.9953   22.4824 H   0  0  0  0  0  0
  -21.1085  -13.1246   22.2523 H   0  0  0  0  0  0
  -24.6428  -15.8342   20.5127 H   0  0  0  0  0  0
  -26.2743  -15.6454   20.1092 H   0  0  0  0  0  0
  -26.7118  -32.5520   23.1109 H   0  0  0  0  0  0
  -25.0006  -33.9756   25.0407 H   0  0  0  0  0  0
  -22.6947  -31.3102   21.4081 H   0  0  0  0  0  0
  -23.3744  -35.9644   23.3328 H   0  0  0  0  0  0
  -24.3587  -36.8918   22.2052 H   0  0  0  0  0  0
  -23.7221  -37.6534   23.6632 H   0  0  0  0  0  0
  -26.0422  -31.5858   20.5857 H   0  0  0  0  0  0
  -26.8283  -30.8881   21.9722 H   0  0  0  0  0  0
  -28.0930  -29.0729   21.1774 H   0  0  0  0  0  0
  -26.0098  -25.9920   18.9546 H   0  0  0  0  0  0
  -23.9804  -27.3114   19.0053 H   0  0  0  0  0  0
  -23.7113  -30.5944   19.3979 H   0  0  0  0  0  0
  -22.7352  -29.2406   19.8748 H   0  0  0  0  0  0
  -25.1277  -36.1997   25.0837 H   0  0  0  0  0  0
  -20.9986  -28.3227   24.1455 H   0  0  0  0  0  0
  -20.5703  -26.2274   23.3619 H   0  0  0  0  0  0
  -21.6641  -26.7465   22.1212 H   0  0  0  0  0  0
  -19.6916  -25.6315   21.1251 H   0  0  0  0  0  0
  -19.6678  -27.3220   20.6766 H   0  0  0  0  0  0
  -17.4210  -26.6721   21.4028 H   0  0  0  0  0  0
  -18.0297  -26.0041   22.9005 H   0  0  0  0  0  0
  -19.7946  -30.7250   24.2317 H   0  0  0  0  0  0
  -17.5032  -31.6265   24.5171 H   0  0  0  0  0  0
  -15.5366  -30.3024   23.7600 H   0  0  0  0  0  0
  -15.8682  -28.0829   22.7072 H   0  0  0  0  0  0
  -24.5898  -30.7030   25.7770 H   0  0  0  0  0  0
  -24.8803  -32.2888   26.4777 H   0  0  0  0  0  0
  -25.8019  -30.8988   27.0231 H   0  0  0  0  0  0
  -26.2796  -29.6857   24.1066 H   0  0  0  0  0  0
  -27.4014  -29.7251   25.4494 H   0  0  0  0  0  0
  -27.8633  -30.4397   23.9191 H   0  0  0  0  0  0
  -27.2656  -33.3640   26.2005 H   0  0  0  0  0  0
  -28.3849  -32.6840   25.0301 H   0  0  0  0  0  0
  -28.0638  -31.8442   26.5420 H   0  0  0  0  0  0
  -28.2615  -38.0108   24.7549 H   0  0  0  0  0  0
  -28.1078  -36.2657   24.6247 H   0  0  0  0  0  0
  -27.2321  -37.1416   25.8880 H   0  0  0  0  0  0
  -20.9301  -29.8741   21.6933 H   0  0  0  0  0  0
  -26.0198  -38.2898   24.1405 H   0  0  0  0  0  0
  -33.2621  -19.3381   19.4672 H   0  0  0  0  0  0
  -32.1019  -17.1973   19.8196 H   0  0  0  0  0  0
  -32.1749  -21.4846   20.0288 H   0  0  0  0  0  0
  -28.6381  -19.3318   21.2573 H   0  0  0  0  0  0
  -29.0816  -16.5433   19.6957 H   0  0  0  0  0  0
  -28.5949  -16.9694   21.2981 H   0  0  0  0  0  0
  -30.3127  -22.3113   21.9290 H   0  0  0  0  0  0
  -28.7070  -21.7354   21.5821 H   0  0  0  0  0  0
  -29.1047  -24.3986   21.6082 H   0  0  0  0  0  0
  -30.4044  -24.8454   20.5453 H   0  0  0  0  0  0
  -27.4406  -24.8113   19.9029 H   0  0  0  0  0  0
  -28.6307  -25.2157   18.6791 H   0  0  0  0  0  0
  -29.4342  -15.1138   21.9503 H   0  0  0  0  0  0
  -30.3200  -22.9108   19.4551 H   0  0  0  0  0  0
  -28.7167  -22.7315   19.5211 H   0  0  0  0  0  0
  1 25  1  0  0  0
  1 30  2  0  0  0
  1 81  1  0  0  0
  2  3  1  0  0  0
  2 25  1  0  0  0
  2 83  1  0  0  0
  2 84  1  0  0  0
  3  4  1  0  0  0
  3 85  1  0  0  0
  3 86  1  0  0  0
  4  5  1  0  0  0
  4 87  1  0  0  0
  4 88  1  0  0  0
  5  6  1  0  0  0
  5 26  1  0  0  0
  5 89  1  0  0  0
  6 25  1  0  0  0
  6 90  1  0  0  0
  6 91  1  0  0  0
  7  8  2  0  0  0
  7 26  1  0  0  0
  7 29  1  0  0  0
  8  9  1  0  0  0
  8 22  1  0  0  0
  9 10  1  0  0  0
  9 27  2  0  0  0
 10 11  2  0  0  0
 10 15  1  0  0  0
 11 12  1  0  0  0
 11 92  1  0  0  0
 12 13  2  0  0  0
 12 93  1  0  0  0
 13 14  1  0  0  0
 13 31  1  0  0  0
 14 15  2  0  0  0
 14 94  1  0  0  0
 15 95  1  0  0  0
 16 17  2  0  0  0
 16 21  1  0  0  0
 16 31  1  0  0  0
 17 18  1  0  0  0
 17 96  1  0  0  0
 18 19  2  0  0  0
 18 97  1  0  0  0
 19 20  1  0  0  0
 19 24  1  0  0  0
 20 21  2  0  0  0
 20 98  1  0  0  0
 21 23  1  0  0  0
 22 28  1  0  0  0
 22 32  2  0  0  0
 26 27  1  0  0  0
 28 99  1  0  0  0
 28100  1  0  0  0
 29101  1  0  0  0
 29102  1  0  0  0
 33 34  1  0  0  0
 33 66  1  0  0  0
 33 70  2  0  0  0
 34 36  1  0  0  0
 34 59  1  0  0  0
 34103  1  0  0  0
 35 44  2  0  0  0
 35 45  1  0  0  0
 35 68  1  0  0  0
 36 56  1  0  0  0
 36104  1  0  0  0
 37 39  1  0  0  0
 37 47  1  0  0  0
 37 66  1  0  0  0
 37105  1  0  0  0
 38 43  2  0  0  0
 38 46  1  0  0  0
 38 47  1  0  0  0
 39 64  1  0  0  0
 39 67  2  0  0  0
 40 52  1  0  0  0
 40 53  2  0  0  0
 40 58  1  0  0  0
 41106  1  0  0  0
 41107  1  0  0  0
 41108  1  0  0  0
 41 48  1  0  0  0
 42 43  1  0  0  0
 42 66  1  0  0  0
 42109  1  0  0  0
 42110  1  0  0  0
 43 44  1  0  0  0
 44111  1  0  0  0
 45 46  2  0  0  0
 45112  1  0  0  0
 46113  1  0  0  0
 47114  1  0  0  0
 47115  1  0  0  0
 48 56  1  0  0  0
 48 65  1  0  0  0
 48116  1  0  0  0
 49 50  1  0  0  0
 49 53  1  0  0  0
 49 64  1  0  0  0
 49117  1  0  0  0
 50 51  1  0  0  0
 50118  1  0  0  0
 50119  1  0  0  0
 51 52  1  0  0  0
 51120  1  0  0  0
 51121  1  0  0  0
 52122  1  0  0  0
 52123  1  0  0  0
 53 54  1  0  0  0
 54 55  2  0  0  0
 54124  1  0  0  0
 55 57  1  0  0  0
 55125  1  0  0  0
 56 69  2  0  0  0
 57 58  2  0  0  0
 57126  1  0  0  0
 58127  1  0  0  0
 59 60  1  0  0  0
 59 61  1  0  0  0
 59 62  1  0  0  0
 60128  1  0  0  0
 60129  1  0  0  0
 60130  1  0  0  0
 61131  1  0  0  0
 61132  1  0  0  0
 61133  1  0  0  0
 62134  1  0  0  0
 62135  1  0  0  0
 62136  1  0  0  0
 63 65  1  0  0  0
 63137  1  0  0  0
 63138  1  0  0  0
 63139  1  0  0  0
 64140  1  0  0  0
 65141  1  0  0  0
 68 80  1  0  0  0
 71 72  2  0  0  0
 71 73  1  0  0  0
 71142  1  0  0  0
 72 75  1  0  0  0
 72143  1  0  0  0
 73 76  2  0  0  0
 73144  1  0  0  0
 74 75  2  0  0  0
 74 76  1  0  0  0
 74145  1  0  0  0
 75 77  1  0  0  0
 76 78  1  0  0  0
 77 81  1  0  0  0
 77146  1  0  0  0
 77147  1  0  0  0
 78 82  1  0  0  0
 78148  1  0  0  0
 78149  1  0  0  0
 79 80  1  0  0  0
 79 82  1  0  0  0
 79150  1  0  0  0
 79151  1  0  0  0
 80152  1  0  0  0
 80153  1  0  0  0
 81154  1  0  0  0
 82155  1  0  0  0
 82156  1  0  0  0
M  CHG  1  82   1
M  ISO  4   1 100  68 101  80 101  81 100
M  END
> <chiral flag>
0

> <version>
0

> <s_m_source_file>
/data/baiqing/PycharmProjects/Reinvent-master-3.2/result/LINK_invent/BTK/process_docking_weight1_custom_product_contain_oxygen_bond_distance_aromatic_linkinvent_7_9_3/rearranged_h_0004.sdf

> <i_m_source_file_index>
18

> <r_mmod_Potential_Energy-OPLS-2005>
-209.389038085938

> <r_mmod_Stretch_Energy-OPLS-2005>
50.0219573974609

> <r_mmod_Bend_Energy-OPLS-2005>
120.731338500977

> <r_mmod_Torsional_Energy-OPLS-2005>
232.536804199219

> <r_mmod_Improper_Torsional_Energy-OPLS-2005>
6.64321374893188

> <r_mmod_Van_der_Waal_Energy-OPLS-2005>
145.139739990234

> <r_mmod_Electrostatic_Energy-OPLS-2005>
-312.71630859375

> <r_mmod_Solvation_Energy-OPLS-2005>
-471.622131347656

> <b_mmod_Minimization_Converged-OPLS-2005>
0

> <r_mmod_RMS_Derivative-OPLS-2005>
3.84647035598755

$$$$
18
                    3D
 Structure written by MMmdl.
144152  0  0  1  0            999 V2000
  -30.2491  -15.7690   20.3185 C   0  0  0  0  0  0
  -30.4165  -13.1824   19.5389 C   0  0  0  0  0  0
  -29.5561  -12.6883   18.3366 C   0  0  0  0  0  0
  -28.1400  -12.3025   18.7870 C   0  0  0  0  0  0
  -27.5914  -13.3204   19.8100 C   0  0  2  0  0  0
  -28.5996  -13.7101   20.9197 C   0  0  0  0  0  0
  -25.2302  -13.8299   20.5812 C   0  0  0  0  0  0
  -24.1705  -13.0432   20.9298 C   0  0  0  0  0  0
  -24.6425  -11.6949   20.8764 C   0  0  0  0  0  0
  -23.9129  -10.4292   21.0393 C   0  0  0  0  0  0
  -24.3660   -9.4205   21.9178 C   0  0  0  0  0  0
  -23.6316   -8.2248   22.0754 C   0  0  0  0  0  0
  -22.4296   -8.0290   21.3545 C   0  0  0  0  0  0
  -21.9945   -9.0266   20.4644 C   0  0  0  0  0  0
  -22.7293  -10.2135   20.3047 C   0  0  0  0  0  0
  -21.6860   -6.0742   22.5279 C   0  0  0  0  0  0
  -21.4020   -6.5644   23.8213 C   0  0  0  0  0  0
  -21.3660   -5.6795   24.9174 C   0  0  0  0  0  0
  -21.6043   -4.3057   24.7223 C   0  0  0  0  0  0
  -21.8818   -3.8151   23.4344 C   0  0  0  0  0  0
  -21.9195   -4.6969   22.3401 C   0  0  0  0  0  0
  -22.7713  -13.5153   21.1928 C   0  0  0  0  0  0
  -22.1662   -4.2154   21.0979 F   0  0  0  0  0  0
  -21.5627   -3.4540   25.7735 F   0  0  0  0  0  0
  -29.7500  -14.3765   20.2532 N   0  0  0  0  0  0
  -26.2766  -12.9654   20.3247 N   0  0  0  0  0  0
  -25.9376  -11.6711   20.5692 N   0  0  0  0  0  0
  -22.0381  -12.8128   22.0480 N   0  0  0  0  0  0
  -25.3868  -15.2043   20.4253 N   0  0  0  0  0  0
  -31.4896  -15.6885   20.1870 O   0  0  0  0  0  0
  -21.6650   -6.8891   21.4243 O   0  0  0  0  0  0
  -22.3385  -14.5450   20.6762 O   0  0  0  0  0  0
  -24.6936  -31.7881   23.1428 C   0  0  0  0  0  0
  -25.9467  -32.4408   23.8014 C   0  0  1  0  0  0
  -27.2314  -26.6000   20.2259 C   0  0  0  0  0  0
  -25.6003  -33.8239   24.1889 N   0  0  0  0  0  0
  -23.5248  -30.3852   21.4992 C   0  0  2  0  0  0
  -24.9837  -28.7043   20.1217 C   0  0  0  0  0  0
  -22.7812  -29.4252   22.4682 C   0  0  0  0  0  0
  -18.0345  -28.1427   22.8448 C   0  0  0  0  0  0
  -24.1496  -36.7128   23.2656 C   0  0  0  0  0  0
  -26.1099  -30.4873   21.4229 C   0  0  0  0  0  0
  -26.1749  -29.0406   20.7752 C   0  0  0  0  0  0
  -27.2793  -28.0201   20.7903 C   0  0  0  0  0  0
  -26.0052  -26.4991   19.5134 C   0  0  0  0  0  0
  -24.9440  -27.4606   19.4663 C   0  0  0  0  0  0
  -23.7849  -29.6724   20.1393 C   0  0  0  0  0  0
  -25.4150  -36.2860   24.0273 C   0  0  1  0  0  0
  -20.5986  -28.3792   23.1121 C   0  0  2  0  0  0
  -20.6806  -26.9441   22.5405 C   0  0  0  0  0  0
  -19.5784  -26.6367   21.5217 C   0  0  0  0  0  0
  -18.1967  -26.7952   22.1618 C   0  0  0  0  0  0
  -19.1614  -28.8936   23.2762 C   0  0  0  0  0  0
  -18.9518  -30.1517   23.8813 C   0  0  0  0  0  0
  -17.6507  -30.6607   24.0547 C   0  0  0  0  0  0
  -25.9137  -34.9253   23.4926 C   0  0  0  0  0  0
  -16.5395  -29.9086   23.6353 C   0  0  0  0  0  0
  -16.7324  -28.6509   23.0369 C   0  0  0  0  0  0
  -26.4611  -31.6488   25.0681 C   0  0  0  0  0  0
  -25.3648  -31.3836   26.1276 C   0  0  0  0  0  0
  -27.0562  -30.2813   24.6660 C   0  0  0  0  0  0
  -27.6036  -32.4377   25.7508 C   0  0  0  0  0  0
  -27.5560  -37.1721   24.8466 C   0  0  0  0  0  0
  -21.4449  -29.3019   22.3429 N   0  0  0  0  0  0
  -26.4267  -37.3633   23.9406 N   0  0  0  0  0  0
  -24.8007  -30.9224   22.0738 N   0  0  0  0  0  0
  -23.4206  -28.7870   23.3076 O   0  0  0  0  0  0
  -28.1813  -25.3340   20.2925 O   0  0  0  0  0  0
  -26.5793  -34.8851   22.4554 O   0  0  0  0  0  0
  -23.5932  -32.1003   23.6316 O   0  0  0  0  0  0
  -31.2233  -20.8510   20.4443 C   0  0  0  0  0  0
  -30.3278  -21.9742   20.3863 C   0  0  0  0  0  0
  -30.8973  -19.4510   20.4170 C   0  0  0  0  0  0
  -28.6498  -20.2656   20.2683 C   0  0  0  0  0  0
  -28.9175  -21.8849   20.2883 C   0  0  0  0  0  0
  -29.5860  -18.9200   20.3295 C   0  0  0  0  0  0
  -27.9553  -23.5403   20.1946 C   0  0  0  0  0  0
  -29.4678  -17.1584   20.3338 N   0  0  0  0  0  0
  -31.3972  -13.4683   19.1574 H   0  0  0  0  0  0
  -30.6150  -12.3654   20.2348 H   0  0  0  0  0  0
  -30.0382  -11.8449   17.8404 H   0  0  0  0  0  0
  -29.4933  -13.4857   17.5947 H   0  0  0  0  0  0
  -28.1920  -11.3161   19.2495 H   0  0  0  0  0  0
  -27.4721  -12.2092   17.9298 H   0  0  0  0  0  0
  -27.4353  -14.2232   19.2177 H   0  0  0  0  0  0
  -28.8922  -12.8505   21.5245 H   0  0  0  0  0  0
  -28.1402  -14.4228   21.6061 H   0  0  0  0  0  0
  -25.2799   -9.5677   22.4764 H   0  0  0  0  0  0
  -24.0015   -7.4641   22.7480 H   0  0  0  0  0  0
  -21.0874   -8.8796   19.8951 H   0  0  0  0  0  0
  -22.3752  -10.9677   19.6160 H   0  0  0  0  0  0
  -21.2015   -7.6152   23.9718 H   0  0  0  0  0  0
  -21.1481   -6.0525   25.9077 H   0  0  0  0  0  0
  -22.0595   -2.7612   23.2843 H   0  0  0  0  0  0
  -22.4028  -11.9810   22.4881 H   0  0  0  0  0  0
  -21.0984  -13.1116   22.2673 H   0  0  0  0  0  0
  -24.6121  -15.8494   20.5375 H   0  0  0  0  0  0
  -26.2233  -15.6482   20.0710 H   0  0  0  0  0  0
  -26.7560  -32.4853   23.0732 H   0  0  0  0  0  0
  -25.0040  -33.9259   24.9969 H   0  0  0  0  0  0
  -22.8560  -31.2251   21.3001 H   0  0  0  0  0  0
  -23.3778  -35.9436   23.3259 H   0  0  0  0  0  0
  -24.3559  -36.8857   22.2082 H   0  0  0  0  0  0
  -23.7237  -37.6279   23.6781 H   0  0  0  0  0  0
  -26.3235  -31.2052   20.6299 H   0  0  0  0  0  0
  -26.9566  -30.5591   22.0929 H   0  0  0  0  0  0
  -28.1740  -28.2884   21.3341 H   0  0  0  0  0  0
  -25.8210  -25.5639   19.0038 H   0  0  0  0  0  0
  -24.0480  -27.1923   18.9234 H   0  0  0  0  0  0
  -23.9691  -30.4280   19.3747 H   0  0  0  0  0  0
  -22.8876  -29.1444   19.8122 H   0  0  0  0  0  0
  -25.1366  -36.1607   25.0763 H   0  0  0  0  0  0
  -21.0064  -28.3426   24.1249 H   0  0  0  0  0  0
  -20.5660  -26.2419   23.3677 H   0  0  0  0  0  0
  -21.6666  -26.7367   22.1230 H   0  0  0  0  0  0
  -19.6938  -25.6255   21.1303 H   0  0  0  0  0  0
  -19.6730  -27.3129   20.6710 H   0  0  0  0  0  0
  -17.4236  -26.6693   21.4021 H   0  0  0  0  0  0
  -18.0352  -26.0116   22.9034 H   0  0  0  0  0  0
  -19.7994  -30.7354   24.2146 H   0  0  0  0  0  0
  -17.5057  -31.6278   24.5166 H   0  0  0  0  0  0
  -15.5392  -30.2961   23.7726 H   0  0  0  0  0  0
  -15.8725  -28.0800   22.7132 H   0  0  0  0  0  0
  -24.5864  -30.7155   25.7572 H   0  0  0  0  0  0
  -24.8806  -32.3067   26.4469 H   0  0  0  0  0  0
  -25.7799  -30.9150   27.0207 H   0  0  0  0  0  0
  -26.3300  -29.6394   24.1665 H   0  0  0  0  0  0
  -27.3958  -29.7305   25.5442 H   0  0  0  0  0  0
  -27.9292  -30.3914   24.0226 H   0  0  0  0  0  0
  -27.2557  -33.3759   26.1844 H   0  0  0  0  0  0
  -28.3970  -32.6810   25.0429 H   0  0  0  0  0  0
  -28.0570  -31.8672   26.5625 H   0  0  0  0  0  0
  -28.2540  -38.0050   24.7512 H   0  0  0  0  0  0
  -28.1093  -36.2570   24.6297 H   0  0  0  0  0  0
  -27.2273  -37.1358   25.8868 H   0  0  0  0  0  0
  -20.9779  -29.8658   21.6465 H   0  0  0  0  0  0
  -26.0084  -38.2675   24.1421 H   0  0  0  0  0  0
  -32.2755  -21.0887   20.5173 H   0  0  0  0  0  0
  -30.7626  -22.9641   20.4154 H   0  0  0  0  0  0
  -31.7198  -18.7513   20.4730 H   0  0  0  0  0  0
  -27.5975  -20.0310   20.1940 H   0  0  0  0  0  0
  -27.1705  -23.3778   20.9334 H   0  0  0  0  0  0
  -27.4334  -23.4350   19.2435 H   0  0  0  0  0  0
  -28.4908  -16.9030   20.3508 H   0  0  0  0  0  0
  1 25  1  0  0  0
  1 30  2  0  0  0
  1 78  1  0  0  0
  2  3  1  0  0  0
  2 25  1  0  0  0
  2 79  1  0  0  0
  2 80  1  0  0  0
  3  4  1  0  0  0
  3 81  1  0  0  0
  3 82  1  0  0  0
  4  5  1  0  0  0
  4 83  1  0  0  0
  4 84  1  0  0  0
  5  6  1  0  0  0
  5 26  1  0  0  0
  5 85  1  0  0  0
  6 25  1  0  0  0
  6 86  1  0  0  0
  6 87  1  0  0  0
  7  8  2  0  0  0
  7 26  1  0  0  0
  7 29  1  0  0  0
  8  9  1  0  0  0
  8 22  1  0  0  0
  9 10  1  0  0  0
  9 27  2  0  0  0
 10 11  2  0  0  0
 10 15  1  0  0  0
 11 12  1  0  0  0
 11 88  1  0  0  0
 12 13  2  0  0  0
 12 89  1  0  0  0
 13 14  1  0  0  0
 13 31  1  0  0  0
 14 15  2  0  0  0
 14 90  1  0  0  0
 15 91  1  0  0  0
 16 17  2  0  0  0
 16 21  1  0  0  0
 16 31  1  0  0  0
 17 18  1  0  0  0
 17 92  1  0  0  0
 18 19  2  0  0  0
 18 93  1  0  0  0
 19 20  1  0  0  0
 19 24  1  0  0  0
 20 21  2  0  0  0
 20 94  1  0  0  0
 21 23  1  0  0  0
 22 28  1  0  0  0
 22 32  2  0  0  0
 26 27  1  0  0  0
 28 95  1  0  0  0
 28 96  1  0  0  0
 29 97  1  0  0  0
 29 98  1  0  0  0
 33 34  1  0  0  0
 33 66  1  0  0  0
 33 70  2  0  0  0
 34 36  1  0  0  0
 34 59  1  0  0  0
 34 99  1  0  0  0
 35 44  2  0  0  0
 35 45  1  0  0  0
 35 68  1  0  0  0
 36 56  1  0  0  0
 36100  1  0  0  0
 37 39  1  0  0  0
 37 47  1  0  0  0
 37 66  1  0  0  0
 37101  1  0  0  0
 38 43  2  0  0  0
 38 46  1  0  0  0
 38 47  1  0  0  0
 39 64  1  0  0  0
 39 67  2  0  0  0
 40 52  1  0  0  0
 40 53  2  0  0  0
 40 58  1  0  0  0
 41102  1  0  0  0
 41103  1  0  0  0
 41104  1  0  0  0
 41 48  1  0  0  0
 42 43  1  0  0  0
 42 66  1  0  0  0
 42105  1  0  0  0
 42106  1  0  0  0
 43 44  1  0  0  0
 44107  1  0  0  0
 45 46  2  0  0  0
 45108  1  0  0  0
 46109  1  0  0  0
 47110  1  0  0  0
 47111  1  0  0  0
 48 56  1  0  0  0
 48 65  1  0  0  0
 48112  1  0  0  0
 49 50  1  0  0  0
 49 53  1  0  0  0
 49 64  1  0  0  0
 49113  1  0  0  0
 50 51  1  0  0  0
 50114  1  0  0  0
 50115  1  0  0  0
 51 52  1  0  0  0
 51116  1  0  0  0
 51117  1  0  0  0
 52118  1  0  0  0
 52119  1  0  0  0
 53 54  1  0  0  0
 54 55  2  0  0  0
 54120  1  0  0  0
 55 57  1  0  0  0
 55121  1  0  0  0
 56 69  2  0  0  0
 57 58  2  0  0  0
 57122  1  0  0  0
 58123  1  0  0  0
 59 60  1  0  0  0
 59 61  1  0  0  0
 59 62  1  0  0  0
 60124  1  0  0  0
 60125  1  0  0  0
 60126  1  0  0  0
 61127  1  0  0  0
 61128  1  0  0  0
 61129  1  0  0  0
 62130  1  0  0  0
 62131  1  0  0  0
 62132  1  0  0  0
 63 65  1  0  0  0
 63133  1  0  0  0
 63134  1  0  0  0
 63135  1  0  0  0
 64136  1  0  0  0
 65137  1  0  0  0
 68 77  1  0  0  0
 71 72  2  0  0  0
 71 73  1  0  0  0
 71138  1  0  0  0
 72 75  1  0  0  0
 72139  1  0  0  0
 73 76  2  0  0  0
 73140  1  0  0  0
 74 75  2  0  0  0
 74 76  1  0  0  0
 74141  1  0  0  0
 75 77  1  0  0  0
 76 78  1  0  0  0
 77142  1  0  0  0
 77143  1  0  0  0
 78144  1  0  0  0
M  ISO  4   1 100  68 101  77 101  78 100
M  END
> <chiral flag>
0

> <version>
0

> <s_m_source_file>
/data/baiqing/PycharmProjects/Reinvent-master-3.2/result/LINK_invent/BTK/process_docking_weight1_custom_product_contain_oxygen_bond_distance_aromatic_linkinvent_7_9_3/rearranged_h_0004.sdf

> <i_m_source_file_index>
19

> <r_mmod_Potential_Energy-OPLS-2005>
2813.380859375

> <r_mmod_Stretch_Energy-OPLS-2005>
1256.92761230469

> <r_mmod_Bend_Energy-OPLS-2005>
641.894226074219

> <r_mmod_Torsional_Energy-OPLS-2005>
222.88850402832

> <r_mmod_Improper_Torsional_Energy-OPLS-2005>
4.12787246704102

> <r_mmod_Van_der_Waal_Energy-OPLS-2005>
126.438247680664

> <r_mmod_Electrostatic_Energy-OPLS-2005>
-346.341064453125

> <r_mmod_Solvation_Energy-OPLS-2005>
-213.760787963867

> <b_mmod_Minimization_Converged-OPLS-2005>
0

> <r_mmod_RMS_Derivative-OPLS-2005>
0.157229289412498

$$$$
19
                    3D
 Structure written by MMmdl.
150158  0  0  1  0            999 V2000
  -30.3026  -15.5951   20.3318 C   0  0  0  0  0  0
  -30.4333  -13.0487   19.5367 C   0  0  0  0  0  0
  -29.5519  -12.6450   18.3199 C   0  0  0  0  0  0
  -28.1204  -12.3003   18.7610 C   0  0  0  0  0  0
  -27.5998  -13.3035   19.8152 C   0  0  2  0  0  0
  -28.6204  -13.6103   20.9357 C   0  0  0  0  0  0
  -25.2334  -13.8279   20.5785 C   0  0  0  0  0  0
  -24.1719  -13.0435   20.9288 C   0  0  0  0  0  0
  -24.6417  -11.6945   20.8770 C   0  0  0  0  0  0
  -23.9118  -10.4294   21.0404 C   0  0  0  0  0  0
  -24.3651   -9.4206   21.9186 C   0  0  0  0  0  0
  -23.6310   -8.2248   22.0760 C   0  0  0  0  0  0
  -22.4290   -8.0292   21.3550 C   0  0  0  0  0  0
  -21.9936   -9.0269   20.4651 C   0  0  0  0  0  0
  -22.7283  -10.2139   20.3057 C   0  0  0  0  0  0
  -21.6858   -6.0744   22.5279 C   0  0  0  0  0  0
  -21.4022   -6.5644   23.8215 C   0  0  0  0  0  0
  -21.3661   -5.6796   24.9175 C   0  0  0  0  0  0
  -21.6041   -4.3058   24.7224 C   0  0  0  0  0  0
  -21.8817   -3.8152   23.4345 C   0  0  0  0  0  0
  -21.9193   -4.6970   22.3403 C   0  0  0  0  0  0
  -22.7729  -13.5169   21.1924 C   0  0  0  0  0  0
  -22.1660   -4.2155   21.0980 F   0  0  0  0  0  0
  -21.5623   -3.4541   25.7736 F   0  0  0  0  0  0
  -29.8011  -14.2240   20.2851 N   0  0  0  0  0  0
  -26.2787  -12.9604   20.3234 N   0  0  0  0  0  0
  -25.9363  -11.6681   20.5705 N   0  0  0  0  0  0
  -22.0392  -12.8148   22.0476 N   0  0  0  0  0  0
  -25.3906  -15.2020   20.4217 N   0  0  0  0  0  0
  -31.5375  -15.5652   20.1677 O   0  0  0  0  0  0
  -21.6647   -6.8890   21.4244 O   0  0  0  0  0  0
  -22.3403  -14.5468   20.6761 O   0  0  0  0  0  0
  -24.6838  -31.8004   23.1526 C   0  0  0  0  0  0
  -25.9417  -32.4472   23.8072 C   0  0  1  0  0  0
  -27.2285  -26.7122   20.2097 C   0  0  0  0  0  0
  -25.5995  -33.8296   24.1956 N   0  0  0  0  0  0
  -23.5098  -30.4030   21.5061 C   0  0  2  0  0  0
  -24.9678  -28.7466   20.1176 C   0  0  0  0  0  0
  -22.7767  -29.4319   22.4711 C   0  0  0  0  0  0
  -18.0338  -28.1423   22.8452 C   0  0  0  0  0  0
  -24.1496  -36.7158   23.2654 C   0  0  0  0  0  0
  -26.0906  -30.5363   21.4160 C   0  0  0  0  0  0
  -26.1573  -29.1024   20.7649 C   0  0  0  0  0  0
  -27.2735  -28.1131   20.7786 C   0  0  0  0  0  0
  -26.0058  -26.5650   19.5061 C   0  0  0  0  0  0
  -24.9307  -27.5028   19.4650 C   0  0  0  0  0  0
  -23.7639  -29.7013   20.1410 C   0  0  0  0  0  0
  -25.4147  -36.2898   24.0281 C   0  0  1  0  0  0
  -20.5974  -28.3783   23.1139 C   0  0  2  0  0  0
  -20.6804  -26.9441   22.5403 C   0  0  0  0  0  0
  -19.5781  -26.6371   21.5215 C   0  0  0  0  0  0
  -18.1964  -26.7949   22.1618 C   0  0  0  0  0  0
  -19.1604  -28.8927   23.2778 C   0  0  0  0  0  0
  -18.9510  -30.1510   23.8826 C   0  0  0  0  0  0
  -17.6500  -30.6604   24.0551 C   0  0  0  0  0  0
  -25.9123  -34.9287   23.4954 C   0  0  0  0  0  0
  -16.5389  -29.9087   23.6350 C   0  0  0  0  0  0
  -16.7318  -28.6510   23.0364 C   0  0  0  0  0  0
  -26.4591  -31.6506   25.0695 C   0  0  0  0  0  0
  -25.3656  -31.3820   26.1308 C   0  0  0  0  0  0
  -27.0522  -30.2844   24.6592 C   0  0  0  0  0  0
  -27.6039  -32.4366   25.7516 C   0  0  0  0  0  0
  -27.5560  -37.1743   24.8470 C   0  0  0  0  0  0
  -21.4415  -29.3032   22.3460 N   0  0  0  0  0  0
  -26.4276  -37.3655   23.9397 N   0  0  0  0  0  0
  -24.7847  -30.9457   22.0775 N   0  0  0  0  0  0
  -23.4210  -28.7917   23.3053 O   0  0  0  0  0  0
  -28.1836  -25.4896   20.2805 O   0  0  0  0  0  0
  -26.5764  -34.8860   22.4570 O   0  0  0  0  0  0
  -23.5858  -32.1072   23.6485 O   0  0  0  0  0  0
  -28.4470  -20.9673   19.2128 C   0  0  0  0  0  0
  -29.5808  -19.7166   21.2979 C   0  0  0  0  0  0
  -28.6230  -22.0637   20.2063 C   0  0  0  0  0  0
  -28.7705  -19.4721   19.2339 C   0  0  0  0  0  0
  -29.2462  -21.2226   21.2763 C   0  0  0  0  0  0
  -29.3938  -18.6270   20.2889 C   0  0  0  0  0  0
  -28.3509  -18.7063   17.9929 C   0  0  0  0  0  0
  -29.5411  -21.9780   22.5579 C   0  0  0  0  0  0
  -27.8657  -23.7757   20.1361 C   0  0  0  0  0  0
  -29.4741  -16.9080   20.3736 N   0  0  0  0  0  0
  -31.4271  -13.3134   19.1734 H   0  0  0  0  0  0
  -30.5911  -12.1969   20.2006 H   0  0  0  0  0  0
  -29.9955  -11.8020   17.7883 H   0  0  0  0  0  0
  -29.5217  -13.4735   17.6105 H   0  0  0  0  0  0
  -28.1373  -11.2981   19.1910 H   0  0  0  0  0  0
  -27.4511  -12.2566   17.9010 H   0  0  0  0  0  0
  -27.4698  -14.2327   19.2587 H   0  0  0  0  0  0
  -28.8705  -12.7174   21.5109 H   0  0  0  0  0  0
  -28.1974  -14.3241   21.6444 H   0  0  0  0  0  0
  -25.2792   -9.5674   22.4770 H   0  0  0  0  0  0
  -24.0010   -7.4637   22.7481 H   0  0  0  0  0  0
  -21.0866   -8.8803   19.8955 H   0  0  0  0  0  0
  -22.3747  -10.9685   19.6169 H   0  0  0  0  0  0
  -21.2023   -7.6155   23.9719 H   0  0  0  0  0  0
  -21.1481   -6.0527   25.9077 H   0  0  0  0  0  0
  -22.0592   -2.7614   23.2844 H   0  0  0  0  0  0
  -22.4033  -11.9827   22.4876 H   0  0  0  0  0  0
  -21.1004  -13.1149   22.2685 H   0  0  0  0  0  0
  -24.6126  -15.8437   20.5309 H   0  0  0  0  0  0
  -26.2203  -15.6467   20.0545 H   0  0  0  0  0  0
  -26.7500  -32.4945   23.0787 H   0  0  0  0  0  0
  -25.0049  -33.9334   25.0045 H   0  0  0  0  0  0
  -22.8352  -31.2406   21.3170 H   0  0  0  0  0  0
  -23.3765  -35.9482   23.3293 H   0  0  0  0  0  0
  -24.3557  -36.8842   22.2073 H   0  0  0  0  0  0
  -23.7257  -37.6332   23.6746 H   0  0  0  0  0  0
  -26.2929  -31.2625   20.6277 H   0  0  0  0  0  0
  -26.9416  -30.6031   22.0814 H   0  0  0  0  0  0
  -28.1686  -28.3902   21.3176 H   0  0  0  0  0  0
  -25.8384  -25.6243   19.0015 H   0  0  0  0  0  0
  -24.0331  -27.2213   18.9315 H   0  0  0  0  0  0
  -23.9402  -30.4625   19.3802 H   0  0  0  0  0  0
  -22.8685  -29.1691   19.8152 H   0  0  0  0  0  0
  -25.1359  -36.1665   25.0773 H   0  0  0  0  0  0
  -21.0055  -28.3409   24.1265 H   0  0  0  0  0  0
  -20.5667  -26.2407   23.3665 H   0  0  0  0  0  0
  -21.6665  -26.7385   22.1223 H   0  0  0  0  0  0
  -19.6938  -25.6262   21.1293 H   0  0  0  0  0  0
  -19.6724  -27.3140   20.6711 H   0  0  0  0  0  0
  -17.4232  -26.6687   21.4025 H   0  0  0  0  0  0
  -18.0358  -26.0112   22.9035 H   0  0  0  0  0  0
  -19.7984  -30.7345   24.2167 H   0  0  0  0  0  0
  -17.5048  -31.6274   24.5168 H   0  0  0  0  0  0
  -15.5386  -30.2966   23.7716 H   0  0  0  0  0  0
  -15.8718  -28.0806   22.7119 H   0  0  0  0  0  0
  -24.5866  -30.7144   25.7605 H   0  0  0  0  0  0
  -24.8818  -32.3042   26.4537 H   0  0  0  0  0  0
  -25.7833  -30.9112   27.0217 H   0  0  0  0  0  0
  -26.3235  -29.6458   24.1592 H   0  0  0  0  0  0
  -27.3952  -29.7293   25.5333 H   0  0  0  0  0  0
  -27.9215  -30.3966   24.0113 H   0  0  0  0  0  0
  -27.2572  -33.3730   26.1899 H   0  0  0  0  0  0
  -28.3951  -32.6828   25.0423 H   0  0  0  0  0  0
  -28.0594  -31.8629   26.5596 H   0  0  0  0  0  0
  -28.2567  -38.0045   24.7483 H   0  0  0  0  0  0
  -28.1064  -36.2565   24.6344 H   0  0  0  0  0  0
  -27.2268  -37.1437   25.8871 H   0  0  0  0  0  0
  -20.9719  -29.8688   21.6526 H   0  0  0  0  0  0
  -26.0106  -38.2707   24.1387 H   0  0  0  0  0  0
  -27.9415  -21.2998   18.3168 H   0  0  0  0  0  0
  -29.9821  -19.3575   22.2354 H   0  0  0  0  0  0
  -28.2553  -19.3627   17.1277 H   0  0  0  0  0  0
  -27.3912  -18.2161   18.1581 H   0  0  0  0  0  0
  -29.0867  -17.9410   17.7423 H   0  0  0  0  0  0
  -30.0234  -21.3488   23.3063 H   0  0  0  0  0  0
  -28.6188  -22.3681   22.9895 H   0  0  0  0  0  0
  -30.2032  -22.8203   22.3545 H   0  0  0  0  0  0
  -27.0349  -23.6586   20.8318 H   0  0  0  0  0  0
  -27.3841  -23.7399   19.1590 H   0  0  0  0  0  0
  -28.5240  -16.5699   20.4124 H   0  0  0  0  0  0
  1 25  1  0  0  0
  1 30  2  0  0  0
  1 80  1  0  0  0
  2  3  1  0  0  0
  2 25  1  0  0  0
  2 81  1  0  0  0
  2 82  1  0  0  0
  3  4  1  0  0  0
  3 83  1  0  0  0
  3 84  1  0  0  0
  4  5  1  0  0  0
  4 85  1  0  0  0
  4 86  1  0  0  0
  5  6  1  0  0  0
  5 26  1  0  0  0
  5 87  1  0  0  0
  6 25  1  0  0  0
  6 88  1  0  0  0
  6 89  1  0  0  0
  7  8  2  0  0  0
  7 26  1  0  0  0
  7 29  1  0  0  0
  8  9  1  0  0  0
  8 22  1  0  0  0
  9 10  1  0  0  0
  9 27  2  0  0  0
 10 11  2  0  0  0
 10 15  1  0  0  0
 11 12  1  0  0  0
 11 90  1  0  0  0
 12 13  2  0  0  0
 12 91  1  0  0  0
 13 14  1  0  0  0
 13 31  1  0  0  0
 14 15  2  0  0  0
 14 92  1  0  0  0
 15 93  1  0  0  0
 16 17  2  0  0  0
 16 21  1  0  0  0
 16 31  1  0  0  0
 17 18  1  0  0  0
 17 94  1  0  0  0
 18 19  2  0  0  0
 18 95  1  0  0  0
 19 20  1  0  0  0
 19 24  1  0  0  0
 20 21  2  0  0  0
 20 96  1  0  0  0
 21 23  1  0  0  0
 22 28  1  0  0  0
 22 32  2  0  0  0
 26 27  1  0  0  0
 28 97  1  0  0  0
 28 98  1  0  0  0
 29 99  1  0  0  0
 29100  1  0  0  0
 33 34  1  0  0  0
 33 66  1  0  0  0
 33 70  2  0  0  0
 34 36  1  0  0  0
 34 59  1  0  0  0
 34101  1  0  0  0
 35 44  2  0  0  0
 35 45  1  0  0  0
 35 68  1  0  0  0
 36 56  1  0  0  0
 36102  1  0  0  0
 37 39  1  0  0  0
 37 47  1  0  0  0
 37 66  1  0  0  0
 37103  1  0  0  0
 38 43  2  0  0  0
 38 46  1  0  0  0
 38 47  1  0  0  0
 39 64  1  0  0  0
 39 67  2  0  0  0
 40 52  1  0  0  0
 40 53  2  0  0  0
 40 58  1  0  0  0
 41104  1  0  0  0
 41105  1  0  0  0
 41106  1  0  0  0
 41 48  1  0  0  0
 42 43  1  0  0  0
 42 66  1  0  0  0
 42107  1  0  0  0
 42108  1  0  0  0
 43 44  1  0  0  0
 44109  1  0  0  0
 45 46  2  0  0  0
 45110  1  0  0  0
 46111  1  0  0  0
 47112  1  0  0  0
 47113  1  0  0  0
 48 56  1  0  0  0
 48 65  1  0  0  0
 48114  1  0  0  0
 49 50  1  0  0  0
 49 53  1  0  0  0
 49 64  1  0  0  0
 49115  1  0  0  0
 50 51  1  0  0  0
 50116  1  0  0  0
 50117  1  0  0  0
 51 52  1  0  0  0
 51118  1  0  0  0
 51119  1  0  0  0
 52120  1  0  0  0
 52121  1  0  0  0
 53 54  1  0  0  0
 54 55  2  0  0  0
 54122  1  0  0  0
 55 57  1  0  0  0
 55123  1  0  0  0
 56 69  2  0  0  0
 57 58  2  0  0  0
 57124  1  0  0  0
 58125  1  0  0  0
 59 60  1  0  0  0
 59 61  1  0  0  0
 59 62  1  0  0  0
 60126  1  0  0  0
 60127  1  0  0  0
 60128  1  0  0  0
 61129  1  0  0  0
 61130  1  0  0  0
 61131  1  0  0  0
 62132  1  0  0  0
 62133  1  0  0  0
 62134  1  0  0  0
 63 65  1  0  0  0
 63135  1  0  0  0
 63136  1  0  0  0
 63137  1  0  0  0
 64138  1  0  0  0
 65139  1  0  0  0
 68 79  1  0  0  0
 71 73  2  0  0  0
 71 74  1  0  0  0
 71140  1  0  0  0
 72 75  2  0  0  0
 72 76  1  0  0  0
 72141  1  0  0  0
 73 75  1  0  0  0
 73 79  1  0  0  0
 74 76  2  0  0  0
 74 77  1  0  0  0
 75 78  1  0  0  0
 76 80  1  0  0  0
 77142  1  0  0  0
 77143  1  0  0  0
 77144  1  0  0  0
 78145  1  0  0  0
 78146  1  0  0  0
 78147  1  0  0  0
 79148  1  0  0  0
 79149  1  0  0  0
 80150  1  0  0  0
M  ISO  4   1 100  68 101  79 101  80 100
M  END
> <chiral flag>
0

> <version>
0

> <s_m_source_file>
/data/baiqing/PycharmProjects/Reinvent-master-3.2/result/LINK_invent/BTK/process_docking_weight1_custom_product_contain_oxygen_bond_distance_aromatic_linkinvent_7_9_3/rearranged_h_0004.sdf

> <i_m_source_file_index>
20

> <r_mmod_Potential_Energy-OPLS-2005>
2262.70751953125

> <r_mmod_Stretch_Energy-OPLS-2005>
917.577331542969

> <r_mmod_Bend_Energy-OPLS-2005>
655.342224121094

> <r_mmod_Torsional_Energy-OPLS-2005>
258.717437744141

> <r_mmod_Improper_Torsional_Energy-OPLS-2005>
10.176064491272

> <r_mmod_Van_der_Waal_Energy-OPLS-2005>
130.060333251953

> <r_mmod_Electrostatic_Energy-OPLS-2005>
-361.068634033203

> <r_mmod_Solvation_Energy-OPLS-2005>
-211.298919677734

> <b_mmod_Minimization_Converged-OPLS-2005>
0

> <r_mmod_RMS_Derivative-OPLS-2005>
0.497664153575897

$$$$
20
                    3D
 Structure written by MMmdl.
195205  0  0  1  0            999 V2000
  -30.7588  -14.3691   20.7197 C   0  0  0  0  0  0
  -30.4278  -12.3079   19.3856 C   0  0  0  0  0  0
  -29.4853  -12.5356   18.1882 C   0  0  0  0  0  0
  -28.0100  -12.3802   18.6062 C   0  0  0  0  0  0
  -27.6658  -13.1966   19.8786 C   0  0  2  0  0  0
  -28.7048  -12.9200   20.9866 C   0  0  0  0  0  0
  -25.2531  -13.8037   20.5519 C   0  0  0  0  0  0
  -24.1813  -13.0359   20.9144 C   0  0  0  0  0  0
  -24.6388  -11.6845   20.8747 C   0  0  0  0  0  0
  -23.9052  -10.4249   21.0422 C   0  0  0  0  0  0
  -24.3607   -9.4171   21.9195 C   0  0  0  0  0  0
  -23.6277   -8.2212   22.0760 C   0  0  0  0  0  0
  -22.4260   -8.0261   21.3545 C   0  0  0  0  0  0
  -21.9896   -9.0237   20.4648 C   0  0  0  0  0  0
  -22.7231  -10.2108   20.3061 C   0  0  0  0  0  0
  -21.6843   -6.0726   22.5277 C   0  0  0  0  0  0
  -21.4007   -6.5633   23.8213 C   0  0  0  0  0  0
  -21.3656   -5.6787   24.9176 C   0  0  0  0  0  0
  -21.6045   -4.3050   24.7224 C   0  0  0  0  0  0
  -21.8820   -3.8140   23.4348 C   0  0  0  0  0  0
  -21.9189   -4.6956   22.3403 C   0  0  0  0  0  0
  -22.7849  -13.5189   21.1831 C   0  0  0  0  0  0
  -22.1660   -4.2144   21.0982 F   0  0  0  0  0  0
  -21.5630   -3.4537   25.7740 F   0  0  0  0  0  0
  -30.0489  -13.2381   20.4584 N   0  0  0  0  0  0
  -26.3037  -12.9246   20.3361 N   0  0  0  0  0  0
  -25.9321  -11.6418   20.5799 N   0  0  0  0  0  0
  -22.0487  -12.8205   22.0406 N   0  0  0  0  0  0
  -25.4095  -15.1690   20.3649 N   0  0  0  0  0  0
  -31.7820  -14.6838   20.1020 O   0  0  0  0  0  0
  -21.6622   -6.8863   21.4240 O   0  0  0  0  0  0
  -22.3539  -14.5503   20.6687 O   0  0  0  0  0  0
  -24.6091  -31.8729   23.2122 C   0  0  0  0  0  0
  -25.9001  -32.4853   23.8410 C   0  0  1  0  0  0
  -27.2294  -27.4736   20.0858 C   0  0  0  0  0  0
  -25.5887  -33.8651   24.2348 N   0  0  0  0  0  0
  -23.3949  -30.4962   21.5522 C   0  0  2  0  0  0
  -24.8411  -28.9639   20.1162 C   0  0  0  0  0  0
  -22.7376  -29.4688   22.5001 C   0  0  0  0  0  0
  -18.0267  -28.1384   22.8477 C   0  0  0  0  0  0
  -24.1491  -36.7325   23.2642 C   0  0  0  0  0  0
  -25.9197  -30.8507   21.3572 C   0  0  0  0  0  0
  -25.9983  -29.4853   20.7091 C   0  0  0  0  0  0
  -27.1996  -28.7467   20.6889 C   0  0  0  0  0  0
  -26.0592  -26.9542   19.4927 C   0  0  0  0  0  0
  -24.8635  -27.6969   19.5073 C   0  0  0  0  0  0
  -23.6017  -29.8285   20.1658 C   0  0  0  0  0  0
  -25.4106  -36.3119   24.0350 C   0  0  1  0  0  0
  -20.5852  -28.3649   23.1344 C   0  0  2  0  0  0
  -20.6767  -26.9392   22.5435 C   0  0  0  0  0  0
  -19.5751  -26.6392   21.5219 C   0  0  0  0  0  0
  -18.1920  -26.7934   22.1618 C   0  0  0  0  0  0
  -19.1513  -28.8829   23.2910 C   0  0  0  0  0  0
  -18.9452  -30.1436   23.8919 C   0  0  0  0  0  0
  -17.6458  -30.6580   24.0558 C   0  0  0  0  0  0
  -25.9044  -34.9490   23.5147 C   0  0  0  0  0  0
  -16.5347  -29.9097   23.6329 C   0  0  0  0  0  0
  -16.7261  -28.6528   23.0326 C   0  0  0  0  0  0
  -26.4446  -31.6607   25.0717 C   0  0  0  0  0  0
  -25.3736  -31.3723   26.1487 C   0  0  0  0  0  0
  -27.0262  -30.3054   24.6050 C   0  0  0  0  0  0
  -27.6021  -32.4317   25.7468 C   0  0  0  0  0  0
  -27.5578  -37.1815   24.8465 C   0  0  0  0  0  0
  -21.4115  -29.3036   22.3759 N   0  0  0  0  0  0
  -26.4288  -37.3798   23.9420 N   0  0  0  0  0  0
  -24.6590  -31.0874   22.0997 N   0  0  0  0  0  0
  -23.4187  -28.8223   23.3008 O   0  0  0  0  0  0
  -28.4023  -26.7650   20.0457 O   0  0  0  0  0  0
  -26.5599  -34.8919   22.4701 O   0  0  0  0  0  0
  -23.5295  -32.1464   23.7553 O   0  0  0  0  0  0
  -32.3972  -17.8737   23.0963 C   0  0  0  0  0  0
  -32.0228  -16.7007   22.4068 C   0  0  0  0  0  0
  -31.3911  -18.6464   23.7045 C   0  0  0  0  0  0
  -30.0376  -18.3158   23.6162 C   0  0  0  0  0  0
  -29.6599  -17.1388   22.9190 C   0  0  0  0  0  0
  -30.6594  -16.3209   22.3197 C   0  0  0  0  0  0
  -28.5633  -20.3050   23.4635 C   0  0  0  0  0  0
  -34.1679  -21.9478   26.2752 C   0  0  0  0  0  0
  -31.9030  -19.9215   26.9362 C   0  0  0  0  0  0
  -30.4724  -19.5020   26.5853 C   0  0  0  0  0  0
  -29.2251  -19.2840   24.4195 C   0  0  2  0  0  0
  -31.5547  -19.9176   24.5125 C   0  0  2  0  0  0
  -32.6619  -19.9717   25.5932 C   0  0  1  0  0  0
  -34.7205  -21.3480   27.5346 C   0  0  0  0  0  0
  -27.6599  -17.2505   21.4085 C   0  0  0  0  0  0
  -28.1849  -16.7887   22.7733 C   0  0  0  0  0  0
  -32.3572  -24.3069   25.1375 C   0  0  0  0  0  0
  -31.5371  -24.4386   23.8393 C   0  0  0  0  0  0
  -33.8594  -24.0264   24.8966 C   0  0  0  0  0  0
  -30.0207  -24.5773   24.0959 C   0  0  0  0  0  0
  -29.1852  -25.6983   22.0357 C   0  0  0  0  0  0
  -28.3796  -25.5206   20.7410 C   0  0  0  0  0  0
  -27.3298  -20.0799   23.0283 N   0  0  0  0  0  0
  -30.2468  -15.0947   21.7264 N   0  0  0  0  0  0
  -33.3831  -21.2504   25.4256 N   0  0  0  0  0  0
  -34.4404  -23.2429   26.0039 N   0  3  0  0  0  0
  -30.2525  -19.9980   25.2149 N   0  3  2  0  0  0
  -29.2155  -24.4675   22.8588 N   0  3  0  0  0  0
  -29.1465  -21.3491   23.1592 O   0  0  0  0  0  0
  -31.4676  -12.4315   19.0774 H   0  0  0  0  0  0
  -30.3469  -11.2808   19.7448 H   0  0  0  0  0  0
  -29.7215  -11.8356   17.3856 H   0  0  0  0  0  0
  -29.6460  -13.5347   17.7802 H   0  0  0  0  0  0
  -27.8233  -11.3202   18.7851 H   0  0  0  0  0  0
  -27.3535  -12.6691   17.7844 H   0  0  0  0  0  0
  -27.7261  -14.2529   19.6153 H   0  0  0  0  0  0
  -28.6767  -11.8664   21.2682 H   0  0  0  0  0  0
  -28.4350  -13.4556   21.8961 H   0  0  0  0  0  0
  -25.2753   -9.5643   22.4770 H   0  0  0  0  0  0
  -23.9984   -7.4598   22.7474 H   0  0  0  0  0  0
  -21.0829   -8.8755   19.8954 H   0  0  0  0  0  0
  -22.3696  -10.9649   19.6170 H   0  0  0  0  0  0
  -21.1996   -7.6140   23.9713 H   0  0  0  0  0  0
  -21.1480   -6.0518   25.9078 H   0  0  0  0  0  0
  -22.0602   -2.7602   23.2848 H   0  0  0  0  0  0
  -22.4093  -11.9858   22.4788 H   0  0  0  0  0  0
  -21.1116  -13.1251   22.2623 H   0  0  0  0  0  0
  -24.6345  -15.8165   20.4541 H   0  0  0  0  0  0
  -26.2593  -15.6066   20.0354 H   0  0  0  0  0  0
  -26.7078  -32.5587   23.1181 H   0  0  0  0  0  0
  -25.0004  -33.9815   25.0467 H   0  0  0  0  0  0
  -22.6806  -31.3110   21.4156 H   0  0  0  0  0  0
  -23.3744  -35.9668   23.3313 H   0  0  0  0  0  0
  -24.3583  -36.8936   22.2057 H   0  0  0  0  0  0
  -23.7267  -37.6543   23.6641 H   0  0  0  0  0  0
  -26.0269  -31.6127   20.5848 H   0  0  0  0  0  0
  -26.8110  -30.9086   21.9711 H   0  0  0  0  0  0
  -28.0973  -29.1495   21.1361 H   0  0  0  0  0  0
  -26.0733  -25.9860   19.0113 H   0  0  0  0  0  0
  -23.9727  -27.2950   19.0448 H   0  0  0  0  0  0
  -23.7086  -30.6036   19.4074 H   0  0  0  0  0  0
  -22.7260  -29.2482   19.8695 H   0  0  0  0  0  0
  -25.1285  -36.1975   25.0850 H   0  0  0  0  0  0
  -20.9931  -28.3193   24.1468 H   0  0  0  0  0  0
  -20.5666  -26.2247   23.3601 H   0  0  0  0  0  0
  -21.6639  -26.7447   22.1223 H   0  0  0  0  0  0
  -19.6919  -25.6314   21.1226 H   0  0  0  0  0  0
  -19.6708  -27.3218   20.6757 H   0  0  0  0  0  0
  -17.4204  -26.6667   21.4012 H   0  0  0  0  0  0
  -18.0303  -26.0081   22.9020 H   0  0  0  0  0  0
  -19.7933  -30.7237   24.2289 H   0  0  0  0  0  0
  -17.5032  -31.6253   24.5163 H   0  0  0  0  0  0
  -15.5358  -30.3016   23.7646 H   0  0  0  0  0  0
  -15.8657  -28.0869   22.7021 H   0  0  0  0  0  0
  -24.5869  -30.7117   25.7822 H   0  0  0  0  0  0
  -24.8975  -32.2904   26.4953 H   0  0  0  0  0  0
  -25.8101  -30.8863   27.0229 H   0  0  0  0  0  0
  -26.2781  -29.6836   24.1124 H   0  0  0  0  0  0
  -27.4078  -29.7265   25.4471 H   0  0  0  0  0  0
  -27.8591  -30.4389   23.9145 H   0  0  0  0  0  0
  -27.2628  -33.3597   26.2077 H   0  0  0  0  0  0
  -28.3792  -32.6931   25.0278 H   0  0  0  0  0  0
  -28.0719  -31.8445   26.5363 H   0  0  0  0  0  0
  -28.2599  -38.0103   24.7486 H   0  0  0  0  0  0
  -28.1070  -36.2643   24.6304 H   0  0  0  0  0  0
  -27.2302  -37.1482   25.8866 H   0  0  0  0  0  0
  -20.9246  -29.8768   21.7014 H   0  0  0  0  0  0
  -26.0186  -38.2882   24.1413 H   0  0  0  0  0  0
  -33.4387  -18.1554   23.1634 H   0  0  0  0  0  0
  -32.7983  -16.0871   21.9713 H   0  0  0  0  0  0
  -32.3566  -19.2255   27.6421 H   0  0  0  0  0  0
  -31.8839  -20.9011   27.4161 H   0  0  0  0  0  0
  -29.7317  -19.8930   27.2843 H   0  0  0  0  0  0
  -30.3961  -18.4125   26.5980 H   0  0  0  0  0  0
  -28.4803  -18.8071   25.0582 H   0  0  0  0  0  0
  -31.6351  -20.7411   23.8015 H   0  0  0  0  0  0
  -33.3548  -19.1357   25.4908 H   0  0  0  0  0  0
  -34.8085  -20.2650   27.4507 H   0  0  0  0  0  0
  -34.0785  -21.5835   28.3836 H   0  0  0  0  0  0
  -35.7175  -21.7416   27.7361 H   0  0  0  0  0  0
  -26.5729  -17.2193   21.3838 H   0  0  0  0  0  0
  -28.0485  -16.6291   20.6015 H   0  0  0  0  0  0
  -27.9533  -18.2759   21.1883 H   0  0  0  0  0  0
  -27.6028  -17.2457   23.5714 H   0  0  0  0  0  0
  -28.0217  -15.7174   22.8964 H   0  0  0  0  0  0
  -31.9211  -23.5271   25.7619 H   0  0  0  0  0  0
  -32.2591  -25.2271   25.7150 H   0  0  0  0  0  0
  -31.7121  -23.5563   23.2214 H   0  0  0  0  0  0
  -31.9030  -25.2903   23.2645 H   0  0  0  0  0  0
  -34.4075  -24.9606   24.7730 H   0  0  0  0  0  0
  -34.0046  -23.4697   23.9708 H   0  0  0  0  0  0
  -29.7968  -25.5158   24.6077 H   0  0  0  0  0  0
  -29.6937  -23.7816   24.7656 H   0  0  0  0  0  0
  -28.7513  -26.5108   22.6207 H   0  0  0  0  0  0
  -30.2014  -25.9976   21.7837 H   0  0  0  0  0  0
  -27.3681  -25.1792   20.9716 H   0  0  0  0  0  0
  -28.8348  -24.7600   20.1059 H   0  0  0  0  0  0
  -26.8251  -19.2462   23.2910 H   0  0  0  0  0  0
  -26.8832  -20.7440   22.4132 H   0  0  0  0  0  0
  -29.3761  -14.7254   22.0728 H   0  0  0  0  0  0
  -33.3519  -21.6000   24.4774 H   0  0  0  0  0  0
  -35.0181  -23.7630   26.6536 H   0  0  0  0  0  0
  -29.9648  -20.9645   25.2474 H   0  0  0  0  0  0
  -28.2703  -24.2435   23.1329 H   0  0  0  0  0  0
  -29.5485  -23.6845   22.3142 H   0  0  0  0  0  0
  1 25  1  0  0  0
  1 30  2  0  0  0
  1 94  1  0  0  0
  2  3  1  0  0  0
  2 25  1  0  0  0
  2100  1  0  0  0
  2101  1  0  0  0
  3  4  1  0  0  0
  3102  1  0  0  0
  3103  1  0  0  0
  4  5  1  0  0  0
  4104  1  0  0  0
  4105  1  0  0  0
  5  6  1  0  0  0
  5 26  1  0  0  0
  5106  1  0  0  0
  6 25  1  0  0  0
  6107  1  0  0  0
  6108  1  0  0  0
  7  8  2  0  0  0
  7 26  1  0  0  0
  7 29  1  0  0  0
  8  9  1  0  0  0
  8 22  1  0  0  0
  9 10  1  0  0  0
  9 27  2  0  0  0
 10 11  2  0  0  0
 10 15  1  0  0  0
 11 12  1  0  0  0
 11109  1  0  0  0
 12 13  2  0  0  0
 12110  1  0  0  0
 13 14  1  0  0  0
 13 31  1  0  0  0
 14 15  2  0  0  0
 14111  1  0  0  0
 15112  1  0  0  0
 16 17  2  0  0  0
 16 21  1  0  0  0
 16 31  1  0  0  0
 17 18  1  0  0  0
 17113  1  0  0  0
 18 19  2  0  0  0
 18114  1  0  0  0
 19 20  1  0  0  0
 19 24  1  0  0  0
 20 21  2  0  0  0
 20115  1  0  0  0
 21 23  1  0  0  0
 22 28  1  0  0  0
 22 32  2  0  0  0
 26 27  1  0  0  0
 28116  1  0  0  0
 28117  1  0  0  0
 29118  1  0  0  0
 29119  1  0  0  0
 33 34  1  0  0  0
 33 66  1  0  0  0
 33 70  2  0  0  0
 34 36  1  0  0  0
 34 59  1  0  0  0
 34120  1  0  0  0
 35 44  2  0  0  0
 35 45  1  0  0  0
 35 68  1  0  0  0
 36 56  1  0  0  0
 36121  1  0  0  0
 37 39  1  0  0  0
 37 47  1  0  0  0
 37 66  1  0  0  0
 37122  1  0  0  0
 38 43  2  0  0  0
 38 46  1  0  0  0
 38 47  1  0  0  0
 39 64  1  0  0  0
 39 67  2  0  0  0
 40 52  1  0  0  0
 40 53  2  0  0  0
 40 58  1  0  0  0
 41123  1  0  0  0
 41124  1  0  0  0
 41125  1  0  0  0
 41 48  1  0  0  0
 42 43  1  0  0  0
 42 66  1  0  0  0
 42126  1  0  0  0
 42127  1  0  0  0
 43 44  1  0  0  0
 44128  1  0  0  0
 45 46  2  0  0  0
 45129  1  0  0  0
 46130  1  0  0  0
 47131  1  0  0  0
 47132  1  0  0  0
 48 56  1  0  0  0
 48 65  1  0  0  0
 48133  1  0  0  0
 49 50  1  0  0  0
 49 53  1  0  0  0
 49 64  1  0  0  0
 49134  1  0  0  0
 50 51  1  0  0  0
 50135  1  0  0  0
 50136  1  0  0  0
 51 52  1  0  0  0
 51137  1  0  0  0
 51138  1  0  0  0
 52139  1  0  0  0
 52140  1  0  0  0
 53 54  1  0  0  0
 54 55  2  0  0  0
 54141  1  0  0  0
 55 57  1  0  0  0
 55142  1  0  0  0
 56 69  2  0  0  0
 57 58  2  0  0  0
 57143  1  0  0  0
 58144  1  0  0  0
 59 60  1  0  0  0
 59 61  1  0  0  0
 59 62  1  0  0  0
 60145  1  0  0  0
 60146  1  0  0  0
 60147  1  0  0  0
 61148  1  0  0  0
 61149  1  0  0  0
 61150  1  0  0  0
 62151  1  0  0  0
 62152  1  0  0  0
 62153  1  0  0  0
 63 65  1  0  0  0
 63154  1  0  0  0
 63155  1  0  0  0
 63156  1  0  0  0
 64157  1  0  0  0
 65158  1  0  0  0
 68 92  1  0  0  0
 71 72  2  0  0  0
 71 73  1  0  0  0
 71159  1  0  0  0
 72 76  1  0  0  0
 72160  1  0  0  0
 73 74  2  0  0  0
 73 82  1  0  0  0
 74 75  1  0  0  0
 74 81  1  0  0  0
 75 76  2  0  0  0
 75 86  1  0  0  0
 76 94  1  0  0  0
 77 93  1  0  0  0
 77 99  2  0  0  0
 77 81  1  0  0  0
 78 84  1  0  0  0
 78 95  1  0  0  0
 78 96  2  0  0  0
 79 80  1  0  0  0
 79 83  1  0  0  0
 79161  1  0  0  0
 79162  1  0  0  0
 80163  1  0  0  0
 80164  1  0  0  0
 80 97  1  0  0  0
 81 97  1  0  0  0
 81165  1  0  0  0
 82 83  1  0  0  0
 82 97  1  0  0  0
 82166  1  0  0  0
 83 95  1  0  0  0
 83167  1  0  0  0
 84168  1  0  0  0
 84169  1  0  0  0
 84170  1  0  0  0
 85 86  1  0  0  0
 85171  1  0  0  0
 85172  1  0  0  0
 85173  1  0  0  0
 86174  1  0  0  0
 86175  1  0  0  0
 87 88  1  0  0  0
 87 89  1  0  0  0
 87176  1  0  0  0
 87177  1  0  0  0
 88 90  1  0  0  0
 88178  1  0  0  0
 88179  1  0  0  0
 89 96  1  0  0  0
 89180  1  0  0  0
 89181  1  0  0  0
 90 98  1  0  0  0
 90182  1  0  0  0
 90183  1  0  0  0
 91 92  1  0  0  0
 91 98  1  0  0  0
 91184  1  0  0  0
 91185  1  0  0  0
 92186  1  0  0  0
 92187  1  0  0  0
 93188  1  0  0  0
 93189  1  0  0  0
 94190  1  0  0  0
 95191  1  0  0  0
 96192  1  0  0  0
 97193  1  0  0  0
 98194  1  0  0  0
 98195  1  0  0  0
M  CHG  3  96   1  97   1  98   1
M  ISO  4   1 100  68 101  92 101  94 100
M  END
> <chiral flag>
0

> <version>
0

> <s_m_source_file>
/data/baiqing/PycharmProjects/Reinvent-master-3.2/result/LINK_invent/BTK/process_docking_weight1_custom_product_contain_oxygen_bond_distance_aromatic_linkinvent_7_9_3/rearranged_h_0004.sdf

> <i_m_source_file_index>
21

> <r_mmod_Potential_Energy-OPLS-2005>
-450.884979248047

> <r_mmod_Stretch_Energy-OPLS-2005>
37.5855751037598

> <r_mmod_Bend_Energy-OPLS-2005>
186.762619018555

> <r_mmod_Torsional_Energy-OPLS-2005>
340.908874511719

> <r_mmod_Improper_Torsional_Energy-OPLS-2005>
2.98918700218201

> <r_mmod_Van_der_Waal_Energy-OPLS-2005>
138.722915649414

> <r_mmod_Electrostatic_Energy-OPLS-2005>
436.974822998047

> <r_mmod_Solvation_Energy-OPLS-2005>
-1602.60815429688

> <b_mmod_Minimization_Converged-OPLS-2005>
0

> <r_mmod_RMS_Derivative-OPLS-2005>
2.22825455665588

$$$$
21
                    3D
 Structure written by MMmdl.
155164  0  0  1  0            999 V2000
  -30.6360  -14.7247   20.5278 C   0  0  0  0  0  0
  -30.4327  -12.4568   19.4765 C   0  0  0  0  0  0
  -29.5111  -12.5222   18.2377 C   0  0  0  0  0  0
  -28.0357  -12.3420   18.6434 C   0  0  0  0  0  0
  -27.6446  -13.2273   19.8550 C   0  0  2  0  0  0
  -28.6846  -13.1184   20.9893 C   0  0  0  0  0  0
  -25.2512  -13.8195   20.5694 C   0  0  0  0  0  0
  -24.1786  -13.0448   20.9182 C   0  0  0  0  0  0
  -24.6360  -11.6922   20.8712 C   0  0  0  0  0  0
  -23.9038  -10.4300   21.0392 C   0  0  0  0  0  0
  -24.3593   -9.4221   21.9171 C   0  0  0  0  0  0
  -23.6278   -8.2249   22.0749 C   0  0  0  0  0  0
  -22.4257   -8.0279   21.3549 C   0  0  0  0  0  0
  -21.9886   -9.0248   20.4655 C   0  0  0  0  0  0
  -22.7205  -10.2129   20.3053 C   0  0  0  0  0  0
  -21.6852   -6.0723   22.5284 C   0  0  0  0  0  0
  -21.4017   -6.5623   23.8212 C   0  0  0  0  0  0
  -21.3661   -5.6784   24.9173 C   0  0  0  0  0  0
  -21.6043   -4.3043   24.7224 C   0  0  0  0  0  0
  -21.8819   -3.8134   23.4348 C   0  0  0  0  0  0
  -21.9193   -4.6954   22.3403 C   0  0  0  0  0  0
  -22.7812  -13.5247   21.1853 C   0  0  0  0  0  0
  -22.1663   -4.2140   21.0985 F   0  0  0  0  0  0
  -21.5625   -3.4530   25.7738 F   0  0  0  0  0  0
  -29.9922  -13.5036   20.4345 N   0  0  0  0  0  0
  -26.2938  -12.9389   20.3274 N   0  0  0  0  0  0
  -25.9292  -11.6532   20.5706 N   0  0  0  0  0  0
  -22.0452  -12.8254   22.0415 N   0  0  0  0  0  0
  -25.4222  -15.1924   20.4166 N   0  0  0  0  0  0
  -31.7759  -14.8322   20.0609 O   0  0  0  0  0  0
  -21.6632   -6.8864   21.4243 O   0  0  0  0  0  0
  -22.3503  -14.5551   20.6700 O   0  0  0  0  0  0
  -24.6328  -31.8545   23.1992 C   0  0  0  0  0  0
  -25.9151  -32.4746   23.8337 C   0  0  1  0  0  0
  -27.2142  -27.2466   20.1332 C   0  0  0  0  0  0
  -25.5945  -33.8552   24.2253 N   0  0  0  0  0  0
  -23.4302  -30.4789   21.5423 C   0  0  2  0  0  0
  -24.8775  -28.9300   20.1069 C   0  0  0  0  0  0
  -22.7514  -29.4596   22.4896 C   0  0  0  0  0  0
  -18.0296  -28.1386   22.8484 C   0  0  0  0  0  0
  -24.1491  -36.7280   23.2637 C   0  0  0  0  0  0
  -25.9784  -30.7614   21.3857 C   0  0  0  0  0  0
  -26.0488  -29.3843   20.7253 C   0  0  0  0  0  0
  -27.2181  -28.5543   20.7317 C   0  0  0  0  0  0
  -26.0254  -26.8801   19.4594 C   0  0  0  0  0  0
  -24.8724  -27.6862   19.4615 C   0  0  0  0  0  0
  -23.6495  -29.8179   20.1568 C   0  0  0  0  0  0
  -25.4115  -36.3064   24.0322 C   0  0  1  0  0  0
  -20.5900  -28.3701   23.1261 C   0  0  2  0  0  0
  -20.6780  -26.9416   22.5407 C   0  0  0  0  0  0
  -19.5755  -26.6382   21.5211 C   0  0  0  0  0  0
  -18.1936  -26.7929   22.1628 C   0  0  0  0  0  0
  -19.1551  -28.8863   23.2864 C   0  0  0  0  0  0
  -18.9468  -30.1462   23.8882 C   0  0  0  0  0  0
  -17.6466  -30.6589   24.0557 C   0  0  0  0  0  0
  -25.9059  -34.9431   23.5089 C   0  0  0  0  0  0
  -16.5357  -29.9085   23.6334 C   0  0  0  0  0  0
  -16.7280  -28.6505   23.0356 C   0  0  0  0  0  0
  -26.4513  -31.6582   25.0737 C   0  0  0  0  0  0
  -25.3730  -31.3755   26.1462 C   0  0  0  0  0  0
  -27.0356  -30.2985   24.6258 C   0  0  0  0  0  0
  -27.6064  -32.4331   25.7500 C   0  0  0  0  0  0
  -27.5583  -37.1781   24.8454 C   0  0  0  0  0  0
  -21.4219  -29.3047   22.3648 N   0  0  0  0  0  0
  -26.4284  -37.3769   23.9417 N   0  0  0  0  0  0
  -24.6992  -31.0497   22.0981 N   0  0  0  0  0  0
  -23.4207  -28.8131   23.2998 O   0  0  0  0  0  0
  -28.2889  -26.3233   20.2306 O   0  0  0  0  0  0
  -26.5633  -34.8914   22.4660 O   0  0  0  0  0  0
  -23.5477  -32.1374   23.7277 O   0  0  0  0  0  0
  -29.5954  -19.8030   22.9430 C   0  0  0  0  0  0
  -29.3279  -21.0276   22.2872 C   0  0  0  0  0  0
  -29.3873  -19.8482   20.1692 C   0  0  0  0  0  0
  -29.7608  -18.5945   22.2288 C   0  0  0  0  0  0
  -29.6784  -18.5806   20.8260 C   0  0  0  0  0  0
  -29.2034  -21.1069   20.8793 C   0  0  0  0  0  0
  -28.8833  -23.7191   20.6594 C   0  0  0  0  0  0
  -30.0371  -17.2931   22.9672 C   0  0  0  0  0  0
  -29.9371  -17.1918   20.0979 C   0  0  0  0  0  0
  -29.4532  -16.0450   22.2645 C   0  0  0  0  0  0
  -28.0402  -24.8637   19.9159 C   0  0  0  0  0  0
  -29.9191  -15.8729   20.8774 N   0  0  0  0  0  0
  -28.8127  -22.3924   20.2345 N   0  0  0  0  0  0
  -29.5951  -24.0500   21.6121 O   0  0  0  0  0  0
  -31.4735  -12.5774   19.1720 H   0  0  0  0  0  0
  -30.3800  -11.4719   19.9426 H   0  0  0  0  0  0
  -29.7947  -11.7578   17.5129 H   0  0  0  0  0  0
  -29.6369  -13.4813   17.7337 H   0  0  0  0  0  0
  -27.8871  -11.2905   18.8918 H   0  0  0  0  0  0
  -27.3820  -12.5480   17.7955 H   0  0  0  0  0  0
  -27.6519  -14.2570   19.4967 H   0  0  0  0  0  0
  -28.7228  -12.0985   21.3746 H   0  0  0  0  0  0
  -28.3823  -13.7329   21.8315 H   0  0  0  0  0  0
  -25.2740   -9.5697   22.4737 H   0  0  0  0  0  0
  -23.9995   -7.4643   22.7461 H   0  0  0  0  0  0
  -21.0816   -8.8758   19.8969 H   0  0  0  0  0  0
  -22.3655  -10.9658   19.6156 H   0  0  0  0  0  0
  -21.2011   -7.6135   23.9712 H   0  0  0  0  0  0
  -21.1484   -6.0509   25.9074 H   0  0  0  0  0  0
  -22.0594   -2.7602   23.2845 H   0  0  0  0  0  0
  -22.4065  -11.9938   22.4854 H   0  0  0  0  0  0
  -21.1080  -13.1302   22.2614 H   0  0  0  0  0  0
  -24.6605  -15.8492   20.5482 H   0  0  0  0  0  0
  -26.2846  -15.6387   20.1324 H   0  0  0  0  0  0
  -26.7214  -32.5389   23.1071 H   0  0  0  0  0  0
  -25.0079  -33.9685   25.0391 H   0  0  0  0  0  0
  -22.7271  -31.3016   21.3981 H   0  0  0  0  0  0
  -23.3757  -35.9608   23.3283 H   0  0  0  0  0  0
  -24.3589  -36.8920   22.2056 H   0  0  0  0  0  0
  -23.7240  -37.6473   23.6674 H   0  0  0  0  0  0
  -26.1259  -31.5232   20.6189 H   0  0  0  0  0  0
  -26.8527  -30.8046   22.0233 H   0  0  0  0  0  0
  -28.1080  -28.8914   21.2436 H   0  0  0  0  0  0
  -25.9457  -25.9423   18.9309 H   0  0  0  0  0  0
  -23.9806  -27.3380   18.9587 H   0  0  0  0  0  0
  -23.7759  -30.5962   19.4036 H   0  0  0  0  0  0
  -22.7674  -29.2536   19.8494 H   0  0  0  0  0  0
  -25.1292  -36.1898   25.0815 H   0  0  0  0  0  0
  -20.9991  -28.3283   24.1381 H   0  0  0  0  0  0
  -20.5685  -26.2308   23.3613 H   0  0  0  0  0  0
  -21.6647  -26.7441   22.1197 H   0  0  0  0  0  0
  -19.6914  -25.6289   21.1252 H   0  0  0  0  0  0
  -19.6688  -27.3183   20.6734 H   0  0  0  0  0  0
  -17.4202  -26.6670   21.4033 H   0  0  0  0  0  0
  -18.0338  -26.0073   22.9033 H   0  0  0  0  0  0
  -19.7945  -30.7285   24.2239 H   0  0  0  0  0  0
  -17.5022  -31.6270   24.5162 H   0  0  0  0  0  0
  -15.5354  -30.2982   23.7667 H   0  0  0  0  0  0
  -15.8681  -28.0818   22.7076 H   0  0  0  0  0  0
  -24.5857  -30.7170   25.7782 H   0  0  0  0  0  0
  -24.8991  -32.2947   26.4918 H   0  0  0  0  0  0
  -25.8036  -30.8884   27.0220 H   0  0  0  0  0  0
  -26.2951  -29.6728   24.1267 H   0  0  0  0  0  0
  -27.3991  -29.7261   25.4801 H   0  0  0  0  0  0
  -27.8853  -30.4234   23.9542 H   0  0  0  0  0  0
  -27.2661  -33.3617   26.2094 H   0  0  0  0  0  0
  -28.3856  -32.6924   25.0320 H   0  0  0  0  0  0
  -28.0761  -31.8459   26.5400 H   0  0  0  0  0  0
  -28.2567  -38.0111   24.7549 H   0  0  0  0  0  0
  -28.1110  -36.2644   24.6210 H   0  0  0  0  0  0
  -27.2315  -37.1350   25.8858 H   0  0  0  0  0  0
  -20.9400  -29.8765   21.6849 H   0  0  0  0  0  0
  -26.0154  -38.2832   24.1453 H   0  0  0  0  0  0
  -29.6646  -19.7961   24.0228 H   0  0  0  0  0  0
  -29.1868  -21.9061   22.8997 H   0  0  0  0  0  0
  -29.3022  -19.8503   19.0914 H   0  0  0  0  0  0
  -29.6279  -17.3571   23.9759 H   0  0  0  0  0  0
  -31.1169  -17.1858   23.0826 H   0  0  0  0  0  0
  -30.9032  -17.2801   19.5982 H   0  0  0  0  0  0
  -29.2023  -17.0965   19.2984 H   0  0  0  0  0  0
  -28.3642  -16.1064   22.2505 H   0  0  0  0  0  0
  -29.7067  -15.1753   22.8741 H   0  0  0  0  0  0
  -27.0170  -24.6058   20.1860 H   0  0  0  0  0  0
  -28.1324  -24.7194   18.8397 H   0  0  0  0  0  0
  -28.3394  -22.2843   19.3468 H   0  0  0  0  0  0
  1 25  1  0  0  0
  1 30  2  0  0  0
  1 82  1  0  0  0
  2  3  1  0  0  0
  2 25  1  0  0  0
  2 85  1  0  0  0
  2 86  1  0  0  0
  3  4  1  0  0  0
  3 87  1  0  0  0
  3 88  1  0  0  0
  4  5  1  0  0  0
  4 89  1  0  0  0
  4 90  1  0  0  0
  5  6  1  0  0  0
  5 26  1  0  0  0
  5 91  1  0  0  0
  6 25  1  0  0  0
  6 92  1  0  0  0
  6 93  1  0  0  0
  7  8  2  0  0  0
  7 26  1  0  0  0
  7 29  1  0  0  0
  8  9  1  0  0  0
  8 22  1  0  0  0
  9 10  1  0  0  0
  9 27  2  0  0  0
 10 11  2  0  0  0
 10 15  1  0  0  0
 11 12  1  0  0  0
 11 94  1  0  0  0
 12 13  2  0  0  0
 12 95  1  0  0  0
 13 14  1  0  0  0
 13 31  1  0  0  0
 14 15  2  0  0  0
 14 96  1  0  0  0
 15 97  1  0  0  0
 16 17  2  0  0  0
 16 21  1  0  0  0
 16 31  1  0  0  0
 17 18  1  0  0  0
 17 98  1  0  0  0
 18 19  2  0  0  0
 18 99  1  0  0  0
 19 20  1  0  0  0
 19 24  1  0  0  0
 20 21  2  0  0  0
 20100  1  0  0  0
 21 23  1  0  0  0
 22 28  1  0  0  0
 22 32  2  0  0  0
 26 27  1  0  0  0
 28101  1  0  0  0
 28102  1  0  0  0
 29103  1  0  0  0
 29104  1  0  0  0
 33 34  1  0  0  0
 33 66  1  0  0  0
 33 70  2  0  0  0
 34 36  1  0  0  0
 34 59  1  0  0  0
 34105  1  0  0  0
 35 44  2  0  0  0
 35 45  1  0  0  0
 35 68  1  0  0  0
 36 56  1  0  0  0
 36106  1  0  0  0
 37 39  1  0  0  0
 37 47  1  0  0  0
 37 66  1  0  0  0
 37107  1  0  0  0
 38 43  2  0  0  0
 38 46  1  0  0  0
 38 47  1  0  0  0
 39 64  1  0  0  0
 39 67  2  0  0  0
 40 52  1  0  0  0
 40 53  2  0  0  0
 40 58  1  0  0  0
 41108  1  0  0  0
 41109  1  0  0  0
 41110  1  0  0  0
 41 48  1  0  0  0
 42 43  1  0  0  0
 42 66  1  0  0  0
 42111  1  0  0  0
 42112  1  0  0  0
 43 44  1  0  0  0
 44113  1  0  0  0
 45 46  2  0  0  0
 45114  1  0  0  0
 46115  1  0  0  0
 47116  1  0  0  0
 47117  1  0  0  0
 48 56  1  0  0  0
 48 65  1  0  0  0
 48118  1  0  0  0
 49 50  1  0  0  0
 49 53  1  0  0  0
 49 64  1  0  0  0
 49119  1  0  0  0
 50 51  1  0  0  0
 50120  1  0  0  0
 50121  1  0  0  0
 51 52  1  0  0  0
 51122  1  0  0  0
 51123  1  0  0  0
 52124  1  0  0  0
 52125  1  0  0  0
 53 54  1  0  0  0
 54 55  2  0  0  0
 54126  1  0  0  0
 55 57  1  0  0  0
 55127  1  0  0  0
 56 69  2  0  0  0
 57 58  2  0  0  0
 57128  1  0  0  0
 58129  1  0  0  0
 59 60  1  0  0  0
 59 61  1  0  0  0
 59 62  1  0  0  0
 60130  1  0  0  0
 60131  1  0  0  0
 60132  1  0  0  0
 61133  1  0  0  0
 61134  1  0  0  0
 61135  1  0  0  0
 62136  1  0  0  0
 62137  1  0  0  0
 62138  1  0  0  0
 63 65  1  0  0  0
 63139  1  0  0  0
 63140  1  0  0  0
 63141  1  0  0  0
 64142  1  0  0  0
 65143  1  0  0  0
 68 81  1  0  0  0
 71 72  2  0  0  0
 71 74  1  0  0  0
 71144  1  0  0  0
 72 76  1  0  0  0
 72145  1  0  0  0
 73 75  1  0  0  0
 73 76  2  0  0  0
 73146  1  0  0  0
 74 75  2  0  0  0
 74 78  1  0  0  0
 75 79  1  0  0  0
 76 83  1  0  0  0
 77 81  1  0  0  0
 77 83  1  0  0  0
 77 84  2  0  0  0
 78 80  1  0  0  0
 78147  1  0  0  0
 78148  1  0  0  0
 79 82  1  0  0  0
 79149  1  0  0  0
 79150  1  0  0  0
 80 82  1  0  0  0
 80151  1  0  0  0
 80152  1  0  0  0
 81153  1  0  0  0
 81154  1  0  0  0
 83155  1  0  0  0
M  ISO  4   1 100  68 101  81 101  82 100
M  END
> <chiral flag>
0

> <version>
0

> <s_m_source_file>
/data/baiqing/PycharmProjects/Reinvent-master-3.2/result/LINK_invent/BTK/process_docking_weight1_custom_product_contain_oxygen_bond_distance_aromatic_linkinvent_7_9_3/rearranged_h_0004.sdf

> <i_m_source_file_index>
22

> <r_mmod_Potential_Energy-OPLS-2005>
271.362487792969

> <r_mmod_Stretch_Energy-OPLS-2005>
129.678466796875

> <r_mmod_Bend_Energy-OPLS-2005>
159.826843261719

> <r_mmod_Torsional_Energy-OPLS-2005>
295.121948242188

> <r_mmod_Improper_Torsional_Energy-OPLS-2005>
7.86289834976196

> <r_mmod_Van_der_Waal_Energy-OPLS-2005>
149.435745239258

> <r_mmod_Electrostatic_Energy-OPLS-2005>
-319.016723632812

> <r_mmod_Solvation_Energy-OPLS-2005>
-236.268127441406

> <b_mmod_Minimization_Converged-OPLS-2005>
0

> <r_mmod_RMS_Derivative-OPLS-2005>
1.4810551404953

$$$$
22
                    3D
 Structure written by MMmdl.
160168  0  0  1  0            999 V2000
  -30.7446  -14.3951   20.5854 C   0  0  0  0  0  0
  -30.4126  -12.2758   19.3883 C   0  0  0  0  0  0
  -29.4809  -12.5294   18.1866 C   0  0  0  0  0  0
  -27.9994  -12.4157   18.6019 C   0  0  0  0  0  0
  -27.6681  -13.2153   19.8908 C   0  0  2  0  0  0
  -28.7192  -12.9453   20.9944 C   0  0  0  0  0  0
  -25.2564  -13.8193   20.5691 C   0  0  0  0  0  0
  -24.1822  -13.0437   20.9204 C   0  0  0  0  0  0
  -24.6414  -11.6927   20.8762 C   0  0  0  0  0  0
  -23.9083  -10.4293   21.0400 C   0  0  0  0  0  0
  -24.3621   -9.4211   21.9187 C   0  0  0  0  0  0
  -23.6290   -8.2246   22.0761 C   0  0  0  0  0  0
  -22.4279   -8.0289   21.3536 C   0  0  0  0  0  0
  -21.9911   -9.0273   20.4640 C   0  0  0  0  0  0
  -22.7253  -10.2143   20.3053 C   0  0  0  0  0  0
  -21.6858   -6.0730   22.5275 C   0  0  0  0  0  0
  -21.4029   -6.5636   23.8216 C   0  0  0  0  0  0
  -21.3653   -5.6781   24.9176 C   0  0  0  0  0  0
  -21.6052   -4.3049   24.7219 C   0  0  0  0  0  0
  -21.8829   -3.8140   23.4346 C   0  0  0  0  0  0
  -21.9195   -4.6953   22.3401 C   0  0  0  0  0  0
  -22.7834  -13.5216   21.1851 C   0  0  0  0  0  0
  -22.1651   -4.2140   21.0974 F   0  0  0  0  0  0
  -21.5622   -3.4539   25.7734 F   0  0  0  0  0  0
  -30.0519  -13.2370   20.4377 N   0  0  0  0  0  0
  -26.3065  -12.9394   20.3491 N   0  0  0  0  0  0
  -25.9356  -11.6537   20.5841 N   0  0  0  0  0  0
  -22.0462  -12.8187   22.0395 N   0  0  0  0  0  0
  -25.4188  -15.1892   20.3976 N   0  0  0  0  0  0
  -31.8539  -14.5998   20.0885 O   0  0  0  0  0  0
  -21.6650   -6.8878   21.4237 O   0  0  0  0  0  0
  -22.3501  -14.5498   20.6689 O   0  0  0  0  0  0
  -24.6144  -31.8698   23.2093 C   0  0  0  0  0  0
  -25.9002  -32.4866   23.8420 C   0  0  1  0  0  0
  -27.2512  -27.4531   20.0923 C   0  0  0  0  0  0
  -25.5870  -33.8666   24.2354 N   0  0  0  0  0  0
  -23.4018  -30.4934   21.5468 C   0  0  2  0  0  0
  -24.8519  -28.9566   20.1120 C   0  0  0  0  0  0
  -22.7399  -29.4700   22.4975 C   0  0  0  0  0  0
  -18.0270  -28.1372   22.8524 C   0  0  0  0  0  0
  -24.1456  -36.7350   23.2639 C   0  0  0  0  0  0
  -25.9262  -30.8396   21.3572 C   0  0  0  0  0  0
  -26.0060  -29.4723   20.7113 C   0  0  0  0  0  0
  -27.2033  -28.7241   20.7033 C   0  0  0  0  0  0
  -26.0758  -26.9526   19.4806 C   0  0  0  0  0  0
  -24.8808  -27.6948   19.4948 C   0  0  0  0  0  0
  -23.6113  -29.8211   20.1618 C   0  0  0  0  0  0
  -25.4078  -36.3155   24.0330 C   0  0  1  0  0  0
  -20.5867  -28.3643   23.1232 C   0  0  2  0  0  0
  -20.6735  -26.9345   22.5398 C   0  0  0  0  0  0
  -19.5646  -26.6168   21.5307 C   0  0  0  0  0  0
  -18.1850  -26.7881   22.1754 C   0  0  0  0  0  0
  -19.1549  -28.8821   23.2892 C   0  0  0  0  0  0
  -18.9483  -30.1436   23.8896 C   0  0  0  0  0  0
  -17.6507  -30.6617   24.0542 C   0  0  0  0  0  0
  -25.9005  -34.9514   23.5146 C   0  0  0  0  0  0
  -16.5376  -29.9100   23.6332 C   0  0  0  0  0  0
  -16.7266  -28.6497   23.0396 C   0  0  0  0  0  0
  -26.4432  -31.6644   25.0751 C   0  0  0  0  0  0
  -25.3665  -31.3737   26.1473 C   0  0  0  0  0  0
  -27.0242  -30.3092   24.6094 C   0  0  0  0  0  0
  -27.6051  -32.4324   25.7518 C   0  0  0  0  0  0
  -27.5565  -37.1827   24.8462 C   0  0  0  0  0  0
  -21.4145  -29.2982   22.3609 N   0  0  0  0  0  0
  -26.4284  -37.3819   23.9403 N   0  0  0  0  0  0
  -24.6668  -31.0817   22.0982 N   0  0  0  0  0  0
  -23.4150  -28.8260   23.3077 O   0  0  0  0  0  0
  -28.4482  -26.7647   20.1115 O   0  0  0  0  0  0
  -26.5588  -34.8959   22.4715 O   0  0  0  0  0  0
  -23.5330  -32.1432   23.7474 O   0  0  0  0  0  0
  -29.7405  -19.7506   22.6953 C   0  0  0  0  0  0
  -27.6832  -18.8786   21.7229 C   0  0  0  0  0  0
  -30.2430  -18.4383   22.8140 C   0  0  0  0  0  0
  -28.1861  -17.5706   21.8323 C   0  0  0  0  0  0
  -28.4616  -19.9821   22.1355 C   0  0  0  0  0  0
  -29.4718  -17.3441   22.3652 C   0  0  0  0  0  0
  -27.8863  -21.3680   22.0375 C   0  0  0  0  0  0
  -30.0222  -15.9306   22.3701 C   0  0  0  0  0  0
  -29.9315  -23.2959   19.5344 C   0  0  0  0  0  0
  -29.8303  -24.7661   20.0052 C   0  0  0  0  0  0
  -29.8094  -22.2201   20.6371 C   0  0  0  0  0  0
  -28.4527  -25.3920   19.7270 C   0  0  0  0  0  0
  -28.5627  -22.3288   21.3898 N   0  0  0  0  0  0
  -30.0249  -15.4346   21.0026 N   0  0  0  0  0  0
  -26.7872  -21.6052   22.5357 O   0  0  0  0  0  0
  -31.4579  -12.3597   19.0821 H   0  0  0  0  0  0
  -30.2859  -11.2572   19.7554 H   0  0  0  0  0  0
  -29.6944  -11.8217   17.3841 H   0  0  0  0  0  0
  -29.6703  -13.5206   17.7750 H   0  0  0  0  0  0
  -27.7724  -11.3605   18.7490 H   0  0  0  0  0  0
  -27.3581  -12.7470   17.7822 H   0  0  0  0  0  0
  -27.7233  -14.2754   19.6381 H   0  0  0  0  0  0
  -28.6800  -11.9034   21.3117 H   0  0  0  0  0  0
  -28.5100  -13.5272   21.8907 H   0  0  0  0  0  0
  -25.2774   -9.5684   22.4754 H   0  0  0  0  0  0
  -24.0006   -7.4640   22.7482 H   0  0  0  0  0  0
  -21.0853   -8.8804   19.8933 H   0  0  0  0  0  0
  -22.3740  -10.9682   19.6153 H   0  0  0  0  0  0
  -21.2041   -7.6152   23.9718 H   0  0  0  0  0  0
  -21.1449   -6.0513   25.9074 H   0  0  0  0  0  0
  -22.0608   -2.7607   23.2859 H   0  0  0  0  0  0
  -22.4085  -11.9864   22.4798 H   0  0  0  0  0  0
  -21.1068  -13.1185   22.2573 H   0  0  0  0  0  0
  -24.6404  -15.8345   20.4784 H   0  0  0  0  0  0
  -26.2580  -15.6202   20.0299 H   0  0  0  0  0  0
  -26.7091  -32.5621   23.1220 H   0  0  0  0  0  0
  -25.0024  -33.9831   25.0504 H   0  0  0  0  0  0
  -22.6891  -31.3101   21.4030 H   0  0  0  0  0  0
  -23.3725  -35.9684   23.3316 H   0  0  0  0  0  0
  -24.3560  -36.8967   22.2059 H   0  0  0  0  0  0
  -23.7185  -37.6539   23.6647 H   0  0  0  0  0  0
  -26.0170  -31.5966   20.5789 H   0  0  0  0  0  0
  -26.8243  -30.9163   21.9585 H   0  0  0  0  0  0
  -28.0941  -29.1209   21.1703 H   0  0  0  0  0  0
  -26.0689  -25.9989   18.9768 H   0  0  0  0  0  0
  -23.9972  -27.2909   19.0178 H   0  0  0  0  0  0
  -23.7107  -30.5872   19.3917 H   0  0  0  0  0  0
  -22.7399  -29.2307   19.8791 H   0  0  0  0  0  0
  -25.1243  -36.2064   25.0819 H   0  0  0  0  0  0
  -20.9988  -28.3208   24.1324 H   0  0  0  0  0  0
  -20.5788  -26.2253   23.3650 H   0  0  0  0  0  0
  -21.6546  -26.7321   22.1052 H   0  0  0  0  0  0
  -19.6531  -27.2702   20.6640 H   0  0  0  0  0  0
  -19.6745  -25.5968   21.1637 H   0  0  0  0  0  0
  -17.4049  -26.6591   21.4236 H   0  0  0  0  0  0
  -18.0224  -26.0116   22.9223 H   0  0  0  0  0  0
  -19.7969  -30.7236   24.2240 H   0  0  0  0  0  0
  -17.5027  -31.6279   24.5183 H   0  0  0  0  0  0
  -15.5366  -30.2953   23.7697 H   0  0  0  0  0  0
  -15.8665  -28.0843   22.7106 H   0  0  0  0  0  0
  -24.5918  -30.6997   25.7785 H   0  0  0  0  0  0
  -24.8749  -32.2869   26.4840 H   0  0  0  0  0  0
  -25.8016  -30.8986   27.0273 H   0  0  0  0  0  0
  -26.2777  -29.6922   24.1076 H   0  0  0  0  0  0
  -27.3919  -29.7294   25.4567 H   0  0  0  0  0  0
  -27.8661  -30.4441   23.9304 H   0  0  0  0  0  0
  -27.2743  -33.3674   26.2056 H   0  0  0  0  0  0
  -28.3902  -32.6767   25.0346 H   0  0  0  0  0  0
  -28.0636  -31.8424   26.5462 H   0  0  0  0  0  0
  -28.2582  -38.0121   24.7496 H   0  0  0  0  0  0
  -28.1056  -36.2648   24.6309 H   0  0  0  0  0  0
  -27.2292  -37.1517   25.8868 H   0  0  0  0  0  0
  -20.9385  -29.8412   21.6550 H   0  0  0  0  0  0
  -26.0198  -38.2906   24.1423 H   0  0  0  0  0  0
  -30.3405  -20.5856   23.0340 H   0  0  0  0  0  0
  -26.6946  -19.0359   21.3139 H   0  0  0  0  0  0
  -31.2312  -18.2823   23.2257 H   0  0  0  0  0  0
  -27.5950  -16.7365   21.4853 H   0  0  0  0  0  0
  -29.3960  -15.3019   23.0018 H   0  0  0  0  0  0
  -31.0321  -15.9151   22.7848 H   0  0  0  0  0  0
  -30.8970  -23.1541   19.0492 H   0  0  0  0  0  0
  -29.1956  -23.1053   18.7509 H   0  0  0  0  0  0
  -30.5760  -25.3532   19.4656 H   0  0  0  0  0  0
  -30.1011  -24.8502   21.0582 H   0  0  0  0  0  0
  -30.6496  -22.2983   21.3277 H   0  0  0  0  0  0
  -29.8889  -21.2366   20.1695 H   0  0  0  0  0  0
  -27.6799  -24.8394   20.2641 H   0  0  0  0  0  0
  -28.2445  -25.3174   18.6578 H   0  0  0  0  0  0
  -28.1141  -23.2325   21.3940 H   0  0  0  0  0  0
  -30.1871  -16.2254   20.3977 H   0  0  0  0  0  0
  1 25  1  0  0  0
  1 30  2  0  0  0
  1 84  1  0  0  0
  2  3  1  0  0  0
  2 25  1  0  0  0
  2 86  1  0  0  0
  2 87  1  0  0  0
  3  4  1  0  0  0
  3 88  1  0  0  0
  3 89  1  0  0  0
  4  5  1  0  0  0
  4 90  1  0  0  0
  4 91  1  0  0  0
  5  6  1  0  0  0
  5 26  1  0  0  0
  5 92  1  0  0  0
  6 25  1  0  0  0
  6 93  1  0  0  0
  6 94  1  0  0  0
  7  8  2  0  0  0
  7 26  1  0  0  0
  7 29  1  0  0  0
  8  9  1  0  0  0
  8 22  1  0  0  0
  9 10  1  0  0  0
  9 27  2  0  0  0
 10 11  2  0  0  0
 10 15  1  0  0  0
 11 12  1  0  0  0
 11 95  1  0  0  0
 12 13  2  0  0  0
 12 96  1  0  0  0
 13 14  1  0  0  0
 13 31  1  0  0  0
 14 15  2  0  0  0
 14 97  1  0  0  0
 15 98  1  0  0  0
 16 17  2  0  0  0
 16 21  1  0  0  0
 16 31  1  0  0  0
 17 18  1  0  0  0
 17 99  1  0  0  0
 18 19  2  0  0  0
 18100  1  0  0  0
 19 20  1  0  0  0
 19 24  1  0  0  0
 20 21  2  0  0  0
 20101  1  0  0  0
 21 23  1  0  0  0
 22 28  1  0  0  0
 22 32  2  0  0  0
 26 27  1  0  0  0
 28102  1  0  0  0
 28103  1  0  0  0
 29104  1  0  0  0
 29105  1  0  0  0
 33 34  1  0  0  0
 33 66  1  0  0  0
 33 70  2  0  0  0
 34 36  1  0  0  0
 34 59  1  0  0  0
 34106  1  0  0  0
 35 44  2  0  0  0
 35 45  1  0  0  0
 35 68  1  0  0  0
 36 56  1  0  0  0
 36107  1  0  0  0
 37 39  1  0  0  0
 37 47  1  0  0  0
 37 66  1  0  0  0
 37108  1  0  0  0
 38 43  2  0  0  0
 38 46  1  0  0  0
 38 47  1  0  0  0
 39 64  1  0  0  0
 39 67  2  0  0  0
 40 52  1  0  0  0
 40 53  2  0  0  0
 40 58  1  0  0  0
 41109  1  0  0  0
 41110  1  0  0  0
 41111  1  0  0  0
 41 48  1  0  0  0
 42 43  1  0  0  0
 42 66  1  0  0  0
 42112  1  0  0  0
 42113  1  0  0  0
 43 44  1  0  0  0
 44114  1  0  0  0
 45 46  2  0  0  0
 45115  1  0  0  0
 46116  1  0  0  0
 47117  1  0  0  0
 47118  1  0  0  0
 48 56  1  0  0  0
 48 65  1  0  0  0
 48119  1  0  0  0
 49 50  1  0  0  0
 49 53  1  0  0  0
 49 64  1  0  0  0
 49120  1  0  0  0
 50 51  1  0  0  0
 50121  1  0  0  0
 50122  1  0  0  0
 51 52  1  0  0  0
 51123  1  0  0  0
 51124  1  0  0  0
 52125  1  0  0  0
 52126  1  0  0  0
 53 54  1  0  0  0
 54 55  2  0  0  0
 54127  1  0  0  0
 55 57  1  0  0  0
 55128  1  0  0  0
 56 69  2  0  0  0
 57 58  2  0  0  0
 57129  1  0  0  0
 58130  1  0  0  0
 59 60  1  0  0  0
 59 61  1  0  0  0
 59 62  1  0  0  0
 60131  1  0  0  0
 60132  1  0  0  0
 60133  1  0  0  0
 61134  1  0  0  0
 61135  1  0  0  0
 61136  1  0  0  0
 62137  1  0  0  0
 62138  1  0  0  0
 62139  1  0  0  0
 63 65  1  0  0  0
 63140  1  0  0  0
 63141  1  0  0  0
 63142  1  0  0  0
 64143  1  0  0  0
 65144  1  0  0  0
 68 82  1  0  0  0
 71 73  2  0  0  0
 71 75  1  0  0  0
 71145  1  0  0  0
 72 74  1  0  0  0
 72 75  2  0  0  0
 72146  1  0  0  0
 73 76  1  0  0  0
 73147  1  0  0  0
 74 76  2  0  0  0
 74148  1  0  0  0
 75 77  1  0  0  0
 76 78  1  0  0  0
 77 83  1  0  0  0
 77 85  2  0  0  0
 78 84  1  0  0  0
 78149  1  0  0  0
 78150  1  0  0  0
 79 80  1  0  0  0
 79 81  1  0  0  0
 79151  1  0  0  0
 79152  1  0  0  0
 80 82  1  0  0  0
 80153  1  0  0  0
 80154  1  0  0  0
 81 83  1  0  0  0
 81155  1  0  0  0
 81156  1  0  0  0
 82157  1  0  0  0
 82158  1  0  0  0
 83159  1  0  0  0
 84160  1  0  0  0
M  ISO  4   1 100  68 101  82 101  84 100
M  END
> <chiral flag>
0

> <version>
0

> <s_m_source_file>
/data/baiqing/PycharmProjects/Reinvent-master-3.2/result/LINK_invent/BTK/process_docking_weight1_custom_product_contain_oxygen_bond_distance_aromatic_linkinvent_7_9_3/rearranged_h_0004.sdf

> <i_m_source_file_index>
23

> <r_mmod_Potential_Energy-OPLS-2005>
-74.1516876220703

> <r_mmod_Stretch_Energy-OPLS-2005>
32.9213485717773

> <r_mmod_Bend_Energy-OPLS-2005>
110.129188537598

> <r_mmod_Torsional_Energy-OPLS-2005>
303.215393066406

> <r_mmod_Improper_Torsional_Energy-OPLS-2005>
14.2661914825439

> <r_mmod_Van_der_Waal_Energy-OPLS-2005>
147.839019775391

> <r_mmod_Electrostatic_Energy-OPLS-2005>
-468.640472412109

> <r_mmod_Solvation_Energy-OPLS-2005>
-223.876312255859

> <b_mmod_Minimization_Converged-OPLS-2005>
0

> <r_mmod_RMS_Derivative-OPLS-2005>
5.07052135467529

$$$$
23
                    3D
 Structure written by MMmdl.
169178  0  0  1  0            999 V2000
  -30.8116  -14.3323   20.6408 C   0  0  0  0  0  0
  -30.3921  -12.2471   19.4225 C   0  0  0  0  0  0
  -29.4837  -12.5095   18.2089 C   0  0  0  0  0  0
  -28.0079  -12.3791   18.6204 C   0  0  0  0  0  0
  -27.6648  -13.2118   19.8837 C   0  0  2  0  0  0
  -28.7017  -12.9915   21.0113 C   0  0  0  0  0  0
  -25.2566  -13.8193   20.5683 C   0  0  0  0  0  0
  -24.1819  -13.0435   20.9163 C   0  0  0  0  0  0
  -24.6386  -11.6910   20.8711 C   0  0  0  0  0  0
  -23.9052  -10.4291   21.0377 C   0  0  0  0  0  0
  -24.3605   -9.4210   21.9157 C   0  0  0  0  0  0
  -23.6281   -8.2246   22.0745 C   0  0  0  0  0  0
  -22.4261   -8.0287   21.3541 C   0  0  0  0  0  0
  -21.9890   -9.0248   20.4632 C   0  0  0  0  0  0
  -22.7222  -10.2130   20.3028 C   0  0  0  0  0  0
  -21.6860   -6.0734   22.5282 C   0  0  0  0  0  0
  -21.4027   -6.5639   23.8212 C   0  0  0  0  0  0
  -21.3658   -5.6798   24.9176 C   0  0  0  0  0  0
  -21.6036   -4.3058   24.7238 C   0  0  0  0  0  0
  -21.8812   -3.8148   23.4358 C   0  0  0  0  0  0
  -21.9176   -4.6960   22.3409 C   0  0  0  0  0  0
  -22.7840  -13.5225   21.1814 C   0  0  0  0  0  0
  -22.1648   -4.2141   21.0996 F   0  0  0  0  0  0
  -21.5602   -3.4544   25.7748 F   0  0  0  0  0  0
  -30.0549  -13.2197   20.4728 N   0  0  0  0  0  0
  -26.3017  -12.9371   20.3401 N   0  0  0  0  0  0
  -25.9312  -11.6513   20.5757 N   0  0  0  0  0  0
  -22.0493  -12.8236   22.0403 N   0  0  0  0  0  0
  -25.4261  -15.1914   20.4129 N   0  0  0  0  0  0
  -31.8286  -14.5431   19.9707 O   0  0  0  0  0  0
  -21.6639   -6.8880   21.4243 O   0  0  0  0  0  0
  -22.3529  -14.5518   20.6651 O   0  0  0  0  0  0
  -24.6004  -31.8784   23.2228 C   0  0  0  0  0  0
  -25.8939  -32.4878   23.8477 C   0  0  1  0  0  0
  -27.2173  -27.4772   20.1094 C   0  0  0  0  0  0
  -25.5862  -33.8676   24.2437 N   0  0  0  0  0  0
  -23.3809  -30.5048   21.5641 C   0  0  2  0  0  0
  -24.8299  -28.9870   20.1129 C   0  0  0  0  0  0
  -22.7311  -29.4691   22.5054 C   0  0  0  0  0  0
  -18.0210  -28.1306   22.8519 C   0  0  0  0  0  0
  -24.1489  -36.7266   23.2644 C   0  0  0  0  0  0
  -25.9068  -30.8564   21.3745 C   0  0  0  0  0  0
  -25.9876  -29.5007   20.7096 C   0  0  0  0  0  0
  -27.1852  -28.7542   20.7050 C   0  0  0  0  0  0
  -26.0515  -26.9829   19.4839 C   0  0  0  0  0  0
  -24.8569  -27.7259   19.4944 C   0  0  0  0  0  0
  -23.5879  -29.8508   20.1734 C   0  0  0  0  0  0
  -25.4111  -36.3141   24.0375 C   0  0  1  0  0  0
  -20.5805  -28.3605   23.1360 C   0  0  2  0  0  0
  -20.6762  -26.9371   22.5443 C   0  0  0  0  0  0
  -19.5763  -26.6355   21.5214 C   0  0  0  0  0  0
  -18.1905  -26.7863   22.1609 C   0  0  0  0  0  0
  -19.1469  -28.8765   23.2925 C   0  0  0  0  0  0
  -18.9425  -30.1348   23.8962 C   0  0  0  0  0  0
  -17.6465  -30.6580   24.0517 C   0  0  0  0  0  0
  -25.9023  -34.9507   23.5212 C   0  0  0  0  0  0
  -16.5332  -29.9085   23.6314 C   0  0  0  0  0  0
  -16.7213  -28.6438   23.0445 C   0  0  0  0  0  0
  -26.4438  -31.6602   25.0740 C   0  0  0  0  0  0
  -25.3728  -31.3717   26.1517 C   0  0  0  0  0  0
  -27.0305  -30.3072   24.6037 C   0  0  0  0  0  0
  -27.6043  -32.4294   25.7484 C   0  0  0  0  0  0
  -27.5587  -37.1803   24.8484 C   0  0  0  0  0  0
  -21.4044  -29.2986   22.3783 N   0  0  0  0  0  0
  -26.4313  -37.3804   23.9408 N   0  0  0  0  0  0
  -24.6448  -31.0920   22.1119 N   0  0  0  0  0  0
  -23.4142  -28.8244   23.3063 O   0  0  0  0  0  0
  -28.3732  -26.7344   20.1888 O   0  0  0  0  0  0
  -26.5582  -34.8931   22.4765 O   0  0  0  0  0  0
  -23.5226  -32.1525   23.7681 O   0  0  0  0  0  0
  -32.1677  -18.1228   23.1704 C   0  0  0  0  0  0
  -31.9392  -18.5153   20.7799 C   0  0  0  0  0  0
  -31.4882  -16.8923   23.0401 C   0  0  0  0  0  0
  -31.2401  -17.3040   20.6512 C   0  0  0  0  0  0
  -31.0528  -22.0660   19.7233 C   0  0  0  0  0  0
  -30.4405  -21.4300   21.9913 C   0  0  0  0  0  0
  -29.6947  -22.2833   19.4232 C   0  0  0  0  0  0
  -29.0858  -21.6511   21.6922 C   0  0  0  0  0  0
  -32.4000  -18.9446   22.0435 C   0  0  0  0  0  0
  -31.0435  -16.4654   21.7723 C   0  0  0  0  0  0
  -31.4343  -21.6150   21.0032 C   0  0  0  0  0  0
  -28.6988  -22.0728   20.3949 C   0  0  0  0  0  0
  -33.1299  -20.2794   22.2080 C   0  0  0  0  0  0
  -26.1706  -23.9876   21.2720 C   0  0  0  0  0  0
  -27.4098  -24.8687   21.5859 C   0  0  0  0  0  0
  -26.3904  -22.4934   20.9632 C   0  0  0  0  0  0
  -28.2316  -25.3153   20.3385 C   0  0  0  0  0  0
  -30.4439  -15.1873   21.6064 N   0  0  0  0  0  0
  -32.7835  -21.3215   21.2386 N   0  0  0  0  0  0
  -27.4022  -22.2897   19.9852 O   0  0  0  0  0  0
  -31.4430  -12.2856   19.1272 H   0  0  0  0  0  0
  -30.2356  -11.2376   19.8051 H   0  0  0  0  0  0
  -29.7168  -11.8044   17.4105 H   0  0  0  0  0  0
  -29.6703  -13.5082   17.8111 H   0  0  0  0  0  0
  -27.8092  -11.3237   18.8088 H   0  0  0  0  0  0
  -27.3555  -12.6661   17.7947 H   0  0  0  0  0  0
  -27.7105  -14.2607   19.5940 H   0  0  0  0  0  0
  -28.6362  -11.9720   21.3901 H   0  0  0  0  0  0
  -28.4694  -13.6373   21.8600 H   0  0  0  0  0  0
  -25.2742   -9.5687   22.4747 H   0  0  0  0  0  0
  -23.9979   -7.4650   22.7482 H   0  0  0  0  0  0
  -21.0806   -8.8764   19.8959 H   0  0  0  0  0  0
  -22.3655  -10.9667   19.6148 H   0  0  0  0  0  0
  -21.2059   -7.6158   23.9718 H   0  0  0  0  0  0
  -21.1473   -6.0535   25.9074 H   0  0  0  0  0  0
  -22.0586   -2.7612   23.2873 H   0  0  0  0  0  0
  -22.4137  -11.9937   22.4839 H   0  0  0  0  0  0
  -21.1085  -13.1242   22.2541 H   0  0  0  0  0  0
  -24.6629  -15.8479   20.5352 H   0  0  0  0  0  0
  -26.2857  -15.6367   20.1143 H   0  0  0  0  0  0
  -26.6981  -32.5634   23.1217 H   0  0  0  0  0  0
  -25.0155  -33.9904   25.0686 H   0  0  0  0  0  0
  -22.6568  -31.3136   21.4382 H   0  0  0  0  0  0
  -23.3814  -35.9538   23.3367 H   0  0  0  0  0  0
  -24.3594  -36.8815   22.2051 H   0  0  0  0  0  0
  -23.7199  -37.6469   23.6605 H   0  0  0  0  0  0
  -26.0233  -31.6394   20.6245 H   0  0  0  0  0  0
  -26.7900  -30.8947   22.0002 H   0  0  0  0  0  0
  -28.0704  -29.1452   21.1880 H   0  0  0  0  0  0
  -26.0529  -26.0192   19.0007 H   0  0  0  0  0  0
  -23.9665  -27.3236   19.0305 H   0  0  0  0  0  0
  -23.6878  -30.6399   19.4262 H   0  0  0  0  0  0
  -22.7087  -29.2761   19.8745 H   0  0  0  0  0  0
  -25.1278  -36.2060   25.0872 H   0  0  0  0  0  0
  -20.9827  -28.3191   24.1503 H   0  0  0  0  0  0
  -20.5709  -26.2197   23.3600 H   0  0  0  0  0  0
  -21.6636  -26.7515   22.1207 H   0  0  0  0  0  0
  -19.6988  -25.6271   21.1220 H   0  0  0  0  0  0
  -19.6733  -27.3186   20.6762 H   0  0  0  0  0  0
  -17.4206  -26.6589   21.3980 H   0  0  0  0  0  0
  -18.0324  -25.9932   22.8941 H   0  0  0  0  0  0
  -19.7923  -30.7051   24.2456 H   0  0  0  0  0  0
  -17.5074  -31.6310   24.5030 H   0  0  0  0  0  0
  -15.5364  -30.3076   23.7591 H   0  0  0  0  0  0
  -15.8557  -28.0730   22.7340 H   0  0  0  0  0  0
  -24.5856  -30.7078   25.7910 H   0  0  0  0  0  0
  -24.8933  -32.2889   26.4936 H   0  0  0  0  0  0
  -25.8090  -30.8926   27.0284 H   0  0  0  0  0  0
  -26.2884  -29.6817   24.1048 H   0  0  0  0  0  0
  -27.4155  -29.7257   25.4420 H   0  0  0  0  0  0
  -27.8645  -30.4490   23.9163 H   0  0  0  0  0  0
  -27.2699  -33.3591   26.2089 H   0  0  0  0  0  0
  -28.3837  -32.6866   25.0299 H   0  0  0  0  0  0
  -28.0700  -31.8374   26.5374 H   0  0  0  0  0  0
  -28.2648  -38.0058   24.7514 H   0  0  0  0  0  0
  -28.1055  -36.2604   24.6359 H   0  0  0  0  0  0
  -27.2281  -37.1478   25.8880 H   0  0  0  0  0  0
  -20.9170  -29.8665   21.6983 H   0  0  0  0  0  0
  -26.0236  -38.2891   24.1419 H   0  0  0  0  0  0
  -32.5183  -18.4319   24.1458 H   0  0  0  0  0  0
  -32.1034  -19.1196   19.8989 H   0  0  0  0  0  0
  -31.3484  -16.2603   23.9087 H   0  0  0  0  0  0
  -30.8938  -16.9940   19.6751 H   0  0  0  0  0  0
  -31.7900  -22.2271   18.9500 H   0  0  0  0  0  0
  -30.6940  -21.0842   22.9820 H   0  0  0  0  0  0
  -29.4100  -22.6111   18.4336 H   0  0  0  0  0  0
  -28.3828  -21.4535   22.4855 H   0  0  0  0  0  0
  -34.2028  -20.0940   22.1290 H   0  0  0  0  0  0
  -32.9740  -20.6692   23.2175 H   0  0  0  0  0  0
  -25.6148  -24.4240   20.4462 H   0  0  0  0  0  0
  -25.4900  -24.0303   22.1229 H   0  0  0  0  0  0
  -28.0547  -24.3668   22.3065 H   0  0  0  0  0  0
  -27.0590  -25.7546   22.1175 H   0  0  0  0  0  0
  -25.4636  -22.1136   20.5295 H   0  0  0  0  0  0
  -26.5055  -21.9006   21.8664 H   0  0  0  0  0  0
  -29.2462  -24.9312   20.4381 H   0  0  0  0  0  0
  -27.8571  -24.8760   19.4151 H   0  0  0  0  0  0
  -29.7212  -14.8998   22.2495 H   0  0  0  0  0  0
  -33.3903  -21.3615   20.4240 H   0  0  0  0  0  0
  1 25  1  0  0  0
  1 30  2  0  0  0
  1 88  1  0  0  0
  2  3  1  0  0  0
  2 25  1  0  0  0
  2 91  1  0  0  0
  2 92  1  0  0  0
  3  4  1  0  0  0
  3 93  1  0  0  0
  3 94  1  0  0  0
  4  5  1  0  0  0
  4 95  1  0  0  0
  4 96  1  0  0  0
  5  6  1  0  0  0
  5 26  1  0  0  0
  5 97  1  0  0  0
  6 25  1  0  0  0
  6 98  1  0  0  0
  6 99  1  0  0  0
  7  8  2  0  0  0
  7 26  1  0  0  0
  7 29  1  0  0  0
  8  9  1  0  0  0
  8 22  1  0  0  0
  9 10  1  0  0  0
  9 27  2  0  0  0
 10 11  2  0  0  0
 10 15  1  0  0  0
 11 12  1  0  0  0
 11100  1  0  0  0
 12 13  2  0  0  0
 12101  1  0  0  0
 13 14  1  0  0  0
 13 31  1  0  0  0
 14 15  2  0  0  0
 14102  1  0  0  0
 15103  1  0  0  0
 16 17  2  0  0  0
 16 21  1  0  0  0
 16 31  1  0  0  0
 17 18  1  0  0  0
 17104  1  0  0  0
 18 19  2  0  0  0
 18105  1  0  0  0
 19 20  1  0  0  0
 19 24  1  0  0  0
 20 21  2  0  0  0
 20106  1  0  0  0
 21 23  1  0  0  0
 22 28  1  0  0  0
 22 32  2  0  0  0
 26 27  1  0  0  0
 28107  1  0  0  0
 28108  1  0  0  0
 29109  1  0  0  0
 29110  1  0  0  0
 33 34  1  0  0  0
 33 66  1  0  0  0
 33 70  2  0  0  0
 34 36  1  0  0  0
 34 59  1  0  0  0
 34111  1  0  0  0
 35 44  2  0  0  0
 35 45  1  0  0  0
 35 68  1  0  0  0
 36 56  1  0  0  0
 36112  1  0  0  0
 37 39  1  0  0  0
 37 47  1  0  0  0
 37 66  1  0  0  0
 37113  1  0  0  0
 38 43  2  0  0  0
 38 46  1  0  0  0
 38 47  1  0  0  0
 39 64  1  0  0  0
 39 67  2  0  0  0
 40 52  1  0  0  0
 40 53  2  0  0  0
 40 58  1  0  0  0
 41114  1  0  0  0
 41115  1  0  0  0
 41116  1  0  0  0
 41 48  1  0  0  0
 42 43  1  0  0  0
 42 66  1  0  0  0
 42117  1  0  0  0
 42118  1  0  0  0
 43 44  1  0  0  0
 44119  1  0  0  0
 45 46  2  0  0  0
 45120  1  0  0  0
 46121  1  0  0  0
 47122  1  0  0  0
 47123  1  0  0  0
 48 56  1  0  0  0
 48 65  1  0  0  0
 48124  1  0  0  0
 49 50  1  0  0  0
 49 53  1  0  0  0
 49 64  1  0  0  0
 49125  1  0  0  0
 50 51  1  0  0  0
 50126  1  0  0  0
 50127  1  0  0  0
 51 52  1  0  0  0
 51128  1  0  0  0
 51129  1  0  0  0
 52130  1  0  0  0
 52131  1  0  0  0
 53 54  1  0  0  0
 54 55  2  0  0  0
 54132  1  0  0  0
 55 57  1  0  0  0
 55133  1  0  0  0
 56 69  2  0  0  0
 57 58  2  0  0  0
 57134  1  0  0  0
 58135  1  0  0  0
 59 60  1  0  0  0
 59 61  1  0  0  0
 59 62  1  0  0  0
 60136  1  0  0  0
 60137  1  0  0  0
 60138  1  0  0  0
 61139  1  0  0  0
 61140  1  0  0  0
 61141  1  0  0  0
 62142  1  0  0  0
 62143  1  0  0  0
 62144  1  0  0  0
 63 65  1  0  0  0
 63145  1  0  0  0
 63146  1  0  0  0
 63147  1  0  0  0
 64148  1  0  0  0
 65149  1  0  0  0
 68 87  1  0  0  0
 71 73  2  0  0  0
 71 79  1  0  0  0
 71150  1  0  0  0
 72 74  1  0  0  0
 72 79  2  0  0  0
 72151  1  0  0  0
 73 80  1  0  0  0
 73152  1  0  0  0
 74 80  2  0  0  0
 74153  1  0  0  0
 75 77  2  0  0  0
 75 81  1  0  0  0
 75154  1  0  0  0
 76 78  1  0  0  0
 76 81  2  0  0  0
 76155  1  0  0  0
 77 82  1  0  0  0
 77156  1  0  0  0
 78 82  2  0  0  0
 78157  1  0  0  0
 79 83  1  0  0  0
 80 88  1  0  0  0
 81 89  1  0  0  0
 82 90  1  0  0  0
 83 89  1  0  0  0
 83158  1  0  0  0
 83159  1  0  0  0
 84 85  1  0  0  0
 84 86  1  0  0  0
 84160  1  0  0  0
 84161  1  0  0  0
 85 87  1  0  0  0
 85162  1  0  0  0
 85163  1  0  0  0
 86 90  1  0  0  0
 86164  1  0  0  0
 86165  1  0  0  0
 87166  1  0  0  0
 87167  1  0  0  0
 88168  1  0  0  0
 89169  1  0  0  0
M  ISO  4   1 100  68 101  87 101  88 100
M  END
> <chiral flag>
0

> <version>
0

> <s_m_source_file>
/data/baiqing/PycharmProjects/Reinvent-master-3.2/result/LINK_invent/BTK/process_docking_weight1_custom_product_contain_oxygen_bond_distance_aromatic_linkinvent_7_9_3/rearranged_h_0004.sdf

> <i_m_source_file_index>
24

> <r_mmod_Potential_Energy-OPLS-2005>
-61.3703498840332

> <r_mmod_Stretch_Energy-OPLS-2005>
35.4341087341309

> <r_mmod_Bend_Energy-OPLS-2005>
115.173080444336

> <r_mmod_Torsional_Energy-OPLS-2005>
236.790969848633

> <r_mmod_Improper_Torsional_Energy-OPLS-2005>
5.17932844161987

> <r_mmod_Van_der_Waal_Energy-OPLS-2005>
194.211730957031

> <r_mmod_Electrostatic_Energy-OPLS-2005>
-435.56298828125

> <r_mmod_Solvation_Energy-OPLS-2005>
-225.73095703125

> <b_mmod_Minimization_Converged-OPLS-2005>
0

> <r_mmod_RMS_Derivative-OPLS-2005>
4.29646778106689

$$$$
24
                    3D
 Structure written by MMmdl.
154162  0  0  1  0            999 V2000
  -30.6755  -14.4856   20.5768 C   0  0  0  0  0  0
  -30.4342  -12.3171   19.4176 C   0  0  0  0  0  0
  -29.4979  -12.5126   18.2056 C   0  0  0  0  0  0
  -28.0186  -12.3671   18.6170 C   0  0  0  0  0  0
  -27.6648  -13.1978   19.8787 C   0  0  2  0  0  0
  -28.7076  -12.9625   20.9954 C   0  0  0  0  0  0
  -25.2602  -13.8130   20.5673 C   0  0  0  0  0  0
  -24.1842  -13.0423   20.9167 C   0  0  0  0  0  0
  -24.6385  -11.6887   20.8730 C   0  0  0  0  0  0
  -23.9043  -10.4283   21.0398 C   0  0  0  0  0  0
  -24.3599   -9.4204   21.9179 C   0  0  0  0  0  0
  -23.6282   -8.2238   22.0750 C   0  0  0  0  0  0
  -22.4265   -8.0274   21.3540 C   0  0  0  0  0  0
  -21.9891   -9.0244   20.4642 C   0  0  0  0  0  0
  -22.7215  -10.2127   20.3049 C   0  0  0  0  0  0
  -21.6847   -6.0734   22.5281 C   0  0  0  0  0  0
  -21.4010   -6.5638   23.8215 C   0  0  0  0  0  0
  -21.3657   -5.6790   24.9177 C   0  0  0  0  0  0
  -21.6046   -4.3054   24.7227 C   0  0  0  0  0  0
  -21.8819   -3.8146   23.4348 C   0  0  0  0  0  0
  -21.9189   -4.6963   22.3404 C   0  0  0  0  0  0
  -22.7867  -13.5235   21.1838 C   0  0  0  0  0  0
  -22.1658   -4.2149   21.0981 F   0  0  0  0  0  0
  -21.5629   -3.4536   25.7739 F   0  0  0  0  0  0
  -30.0402  -13.2864   20.4518 N   0  0  0  0  0  0
  -26.3039  -12.9284   20.3378 N   0  0  0  0  0  0
  -25.9314  -11.6454   20.5768 N   0  0  0  0  0  0
  -22.0499  -12.8240   22.0398 N   0  0  0  0  0  0
  -25.4309  -15.1846   20.4077 N   0  0  0  0  0  0
  -31.7868  -14.7150   20.0889 O   0  0  0  0  0  0
  -21.6629   -6.8873   21.4241 O   0  0  0  0  0  0
  -22.3561  -14.5548   20.6692 O   0  0  0  0  0  0
  -24.6151  -31.8672   23.2098 C   0  0  0  0  0  0
  -25.9041  -32.4819   23.8398 C   0  0  1  0  0  0
  -27.2388  -27.4345   20.0997 C   0  0  0  0  0  0
  -25.5895  -33.8618   24.2330 N   0  0  0  0  0  0
  -23.4050  -30.4890   21.5488 C   0  0  2  0  0  0
  -24.8559  -28.9546   20.1136 C   0  0  0  0  0  0
  -22.7418  -29.4648   22.4978 C   0  0  0  0  0  0
  -18.0273  -28.1376   22.8491 C   0  0  0  0  0  0
  -24.1485  -36.7316   23.2637 C   0  0  0  0  0  0
  -25.9338  -30.8323   21.3646 C   0  0  0  0  0  0
  -26.0148  -29.4661   20.7128 C   0  0  0  0  0  0
  -27.2123  -28.7122   20.7056 C   0  0  0  0  0  0
  -26.0685  -26.9379   19.4924 C   0  0  0  0  0  0
  -24.8772  -27.6891   19.5001 C   0  0  0  0  0  0
  -23.6163  -29.8202   20.1638 C   0  0  0  0  0  0
  -25.4103  -36.3112   24.0340 C   0  0  1  0  0  0
  -20.5865  -28.3664   23.1313 C   0  0  2  0  0  0
  -20.6760  -26.9399   22.5417 C   0  0  0  0  0  0
  -19.5740  -26.6384   21.5212 C   0  0  0  0  0  0
  -18.1920  -26.7923   22.1622 C   0  0  0  0  0  0
  -19.1523  -28.8836   23.2899 C   0  0  0  0  0  0
  -18.9451  -30.1442   23.8910 C   0  0  0  0  0  0
  -17.6454  -30.6584   24.0563 C   0  0  0  0  0  0
  -25.9033  -34.9476   23.5134 C   0  0  0  0  0  0
  -16.5344  -29.9087   23.6323 C   0  0  0  0  0  0
  -16.7261  -28.6501   23.0347 C   0  0  0  0  0  0
  -26.4474  -31.6595   25.0723 C   0  0  0  0  0  0
  -25.3747  -31.3694   26.1476 C   0  0  0  0  0  0
  -27.0307  -30.3037   24.6097 C   0  0  0  0  0  0
  -27.6053  -32.4313   25.7484 C   0  0  0  0  0  0
  -27.5587  -37.1801   24.8456 C   0  0  0  0  0  0
  -21.4145  -29.3031   22.3720 N   0  0  0  0  0  0
  -26.4285  -37.3801   23.9423 N   0  0  0  0  0  0
  -24.6693  -31.0768   22.0998 N   0  0  0  0  0  0
  -23.4184  -28.8193   23.3028 O   0  0  0  0  0  0
  -28.3688  -26.6472   20.1027 O   0  0  0  0  0  0
  -26.5596  -34.8928   22.4695 O   0  0  0  0  0  0
  -23.5340  -32.1421   23.7489 O   0  0  0  0  0  0
  -28.8313  -17.2028   19.9449 C   0  0  0  0  0  0
  -30.6632  -17.8086   21.4193 C   0  0  0  0  0  0
  -28.6050  -18.5670   19.6701 C   0  0  0  0  0  0
  -30.4286  -19.1810   21.1450 C   0  0  0  0  0  0
  -29.8580  -16.8071   20.8280 C   0  0  0  0  0  0
  -29.3791  -19.5781   20.2763 C   0  0  0  0  0  0
  -28.8315  -23.2801   20.3855 C   0  0  0  0  0  0
  -29.3915  -24.5523   21.0758 C   0  0  0  0  0  0
  -29.6401  -21.9813   20.6659 C   0  0  0  0  0  0
  -28.4049  -25.7441   21.2175 C   0  0  0  0  0  0
  -29.9575  -15.4355   21.2065 N   0  0  0  0  0  0
  -29.0320  -20.8859   19.9737 O   0  0  0  0  0  0
  -31.4757  -12.4372   19.1133 H   0  0  0  0  0  0
  -30.3545  -11.3010   19.8065 H   0  0  0  0  0  0
  -29.7398  -11.7918   17.4231 H   0  0  0  0  0  0
  -29.6606  -13.5003   17.7710 H   0  0  0  0  0  0
  -27.8282  -11.3100   18.8058 H   0  0  0  0  0  0
  -27.3681  -12.6487   17.7880 H   0  0  0  0  0  0
  -27.7112  -14.2455   19.5883 H   0  0  0  0  0  0
  -28.6895  -11.9185   21.3125 H   0  0  0  0  0  0
  -28.4599  -13.5349   21.8901 H   0  0  0  0  0  0
  -25.2743   -9.5684   22.4755 H   0  0  0  0  0  0
  -23.9992   -7.4627   22.7466 H   0  0  0  0  0  0
  -21.0821   -8.8758   19.8950 H   0  0  0  0  0  0
  -22.3669  -10.9663   19.6158 H   0  0  0  0  0  0
  -21.2003   -7.6145   23.9723 H   0  0  0  0  0  0
  -21.1479   -6.0517   25.9082 H   0  0  0  0  0  0
  -22.0603   -2.7608   23.2846 H   0  0  0  0  0  0
  -22.4096  -11.9892   22.4784 H   0  0  0  0  0  0
  -21.1127  -13.1289   22.2612 H   0  0  0  0  0  0
  -24.6616  -15.8368   20.5163 H   0  0  0  0  0  0
  -26.2840  -15.6286   20.0960 H   0  0  0  0  0  0
  -26.7115  -32.5537   23.1169 H   0  0  0  0  0  0
  -25.0047  -33.9783   25.0475 H   0  0  0  0  0  0
  -22.6937  -31.3056   21.4079 H   0  0  0  0  0  0
  -23.3751  -35.9643   23.3285 H   0  0  0  0  0  0
  -24.3588  -36.8946   22.2055 H   0  0  0  0  0  0
  -23.7226  -37.6513   23.6658 H   0  0  0  0  0  0
  -26.0464  -31.5983   20.5961 H   0  0  0  0  0  0
  -26.8208  -30.8871   21.9834 H   0  0  0  0  0  0
  -28.1067  -29.0996   21.1735 H   0  0  0  0  0  0
  -26.0792  -25.9628   19.0255 H   0  0  0  0  0  0
  -23.9870  -27.2886   19.0350 H   0  0  0  0  0  0
  -23.7247  -30.5947   19.4035 H   0  0  0  0  0  0
  -22.7412  -29.2391   19.8674 H   0  0  0  0  0  0
  -25.1275  -36.1974   25.0832 H   0  0  0  0  0  0
  -20.9956  -28.3229   24.1433 H   0  0  0  0  0  0
  -20.5657  -26.2274   23.3606 H   0  0  0  0  0  0
  -21.6632  -26.7437   22.1211 H   0  0  0  0  0  0
  -19.6901  -25.6298   21.1232 H   0  0  0  0  0  0
  -19.6681  -27.3200   20.6748 H   0  0  0  0  0  0
  -17.4190  -26.6672   21.4024 H   0  0  0  0  0  0
  -18.0320  -26.0061   22.9015 H   0  0  0  0  0  0
  -19.7929  -30.7252   24.2285 H   0  0  0  0  0  0
  -17.5012  -31.6266   24.5161 H   0  0  0  0  0  0
  -15.5346  -30.2994   23.7641 H   0  0  0  0  0  0
  -15.8659  -28.0827   22.7054 H   0  0  0  0  0  0
  -24.5910  -30.7058   25.7810 H   0  0  0  0  0  0
  -24.8955  -32.2848   26.4957 H   0  0  0  0  0  0
  -25.8108  -30.8834   27.0214 H   0  0  0  0  0  0
  -26.2851  -29.6793   24.1161 H   0  0  0  0  0  0
  -27.4090  -29.7277   25.4554 H   0  0  0  0  0  0
  -27.8680  -30.4358   23.9241 H   0  0  0  0  0  0
  -27.2673  -33.3596   26.2100 H   0  0  0  0  0  0
  -28.3841  -32.6899   25.0298 H   0  0  0  0  0  0
  -28.0745  -31.8413   26.5367 H   0  0  0  0  0  0
  -28.2574  -38.0131   24.7559 H   0  0  0  0  0  0
  -28.1116  -36.2668   24.6205 H   0  0  0  0  0  0
  -27.2318  -37.1356   25.8860 H   0  0  0  0  0  0
  -20.9305  -29.8761   21.6948 H   0  0  0  0  0  0
  -26.0173  -38.2872   24.1458 H   0  0  0  0  0  0
  -28.1911  -16.4684   19.4806 H   0  0  0  0  0  0
  -31.4452  -17.5332   22.1133 H   0  0  0  0  0  0
  -27.8028  -18.8432   19.0003 H   0  0  0  0  0  0
  -31.0561  -19.9164   21.6268 H   0  0  0  0  0  0
  -28.7664  -23.4536   19.3107 H   0  0  0  0  0  0
  -27.8085  -23.1144   20.7249 H   0  0  0  0  0  0
  -30.3134  -24.8783   20.5932 H   0  0  0  0  0  0
  -29.6789  -24.2650   22.0882 H   0  0  0  0  0  0
  -29.6517  -21.7891   21.7399 H   0  0  0  0  0  0
  -30.6738  -22.0941   20.3368 H   0  0  0  0  0  0
  -28.7055  -26.3349   22.0844 H   0  0  0  0  0  0
  -27.4089  -25.3630   21.4531 H   0  0  0  0  0  0
  -29.1125  -15.0532   21.6036 H   0  0  0  0  0  0
  1 25  1  0  0  0
  1 30  2  0  0  0
  1 81  1  0  0  0
  2  3  1  0  0  0
  2 25  1  0  0  0
  2 83  1  0  0  0
  2 84  1  0  0  0
  3  4  1  0  0  0
  3 85  1  0  0  0
  3 86  1  0  0  0
  4  5  1  0  0  0
  4 87  1  0  0  0
  4 88  1  0  0  0
  5  6  1  0  0  0
  5 26  1  0  0  0
  5 89  1  0  0  0
  6 25  1  0  0  0
  6 90  1  0  0  0
  6 91  1  0  0  0
  7  8  2  0  0  0
  7 26  1  0  0  0
  7 29  1  0  0  0
  8  9  1  0  0  0
  8 22  1  0  0  0
  9 10  1  0  0  0
  9 27  2  0  0  0
 10 11  2  0  0  0
 10 15  1  0  0  0
 11 12  1  0  0  0
 11 92  1  0  0  0
 12 13  2  0  0  0
 12 93  1  0  0  0
 13 14  1  0  0  0
 13 31  1  0  0  0
 14 15  2  0  0  0
 14 94  1  0  0  0
 15 95  1  0  0  0
 16 17  2  0  0  0
 16 21  1  0  0  0
 16 31  1  0  0  0
 17 18  1  0  0  0
 17 96  1  0  0  0
 18 19  2  0  0  0
 18 97  1  0  0  0
 19 20  1  0  0  0
 19 24  1  0  0  0
 20 21  2  0  0  0
 20 98  1  0  0  0
 21 23  1  0  0  0
 22 28  1  0  0  0
 22 32  2  0  0  0
 26 27  1  0  0  0
 28 99  1  0  0  0
 28100  1  0  0  0
 29101  1  0  0  0
 29102  1  0  0  0
 33 34  1  0  0  0
 33 66  1  0  0  0
 33 70  2  0  0  0
 34 36  1  0  0  0
 34 59  1  0  0  0
 34103  1  0  0  0
 35 44  2  0  0  0
 35 45  1  0  0  0
 35 68  1  0  0  0
 36 56  1  0  0  0
 36104  1  0  0  0
 37 39  1  0  0  0
 37 47  1  0  0  0
 37 66  1  0  0  0
 37105  1  0  0  0
 38 43  2  0  0  0
 38 46  1  0  0  0
 38 47  1  0  0  0
 39 64  1  0  0  0
 39 67  2  0  0  0
 40 52  1  0  0  0
 40 53  2  0  0  0
 40 58  1  0  0  0
 41106  1  0  0  0
 41107  1  0  0  0
 41108  1  0  0  0
 41 48  1  0  0  0
 42 43  1  0  0  0
 42 66  1  0  0  0
 42109  1  0  0  0
 42110  1  0  0  0
 43 44  1  0  0  0
 44111  1  0  0  0
 45 46  2  0  0  0
 45112  1  0  0  0
 46113  1  0  0  0
 47114  1  0  0  0
 47115  1  0  0  0
 48 56  1  0  0  0
 48 65  1  0  0  0
 48116  1  0  0  0
 49 50  1  0  0  0
 49 53  1  0  0  0
 49 64  1  0  0  0
 49117  1  0  0  0
 50 51  1  0  0  0
 50118  1  0  0  0
 50119  1  0  0  0
 51 52  1  0  0  0
 51120  1  0  0  0
 51121  1  0  0  0
 52122  1  0  0  0
 52123  1  0  0  0
 53 54  1  0  0  0
 54 55  2  0  0  0
 54124  1  0  0  0
 55 57  1  0  0  0
 55125  1  0  0  0
 56 69  2  0  0  0
 57 58  2  0  0  0
 57126  1  0  0  0
 58127  1  0  0  0
 59 60  1  0  0  0
 59 61  1  0  0  0
 59 62  1  0  0  0
 60128  1  0  0  0
 60129  1  0  0  0
 60130  1  0  0  0
 61131  1  0  0  0
 61132  1  0  0  0
 61133  1  0  0  0
 62134  1  0  0  0
 62135  1  0  0  0
 62136  1  0  0  0
 63 65  1  0  0  0
 63137  1  0  0  0
 63138  1  0  0  0
 63139  1  0  0  0
 64140  1  0  0  0
 65141  1  0  0  0
 68 80  1  0  0  0
 71 73  2  0  0  0
 71 75  1  0  0  0
 71142  1  0  0  0
 72 74  1  0  0  0
 72 75  2  0  0  0
 72143  1  0  0  0
 73 76  1  0  0  0
 73144  1  0  0  0
 74 76  2  0  0  0
 74145  1  0  0  0
 75 81  1  0  0  0
 76 82  1  0  0  0
 77 78  1  0  0  0
 77 79  1  0  0  0
 77146  1  0  0  0
 77147  1  0  0  0
 78 80  1  0  0  0
 78148  1  0  0  0
 78149  1  0  0  0
 79 82  1  0  0  0
 79150  1  0  0  0
 79151  1  0  0  0
 80152  1  0  0  0
 80153  1  0  0  0
 81154  1  0  0  0
M  ISO  4   1 100  68 101  80 101  81 100
M  END
> <chiral flag>
0

> <version>
0

> <s_m_source_file>
/data/baiqing/PycharmProjects/Reinvent-master-3.2/result/LINK_invent/BTK/process_docking_weight1_custom_product_contain_oxygen_bond_distance_aromatic_linkinvent_7_9_3/rearranged_h_0004.sdf

> <i_m_source_file_index>
25

> <r_mmod_Potential_Energy-OPLS-2005>
-26.1432418823242

> <r_mmod_Stretch_Energy-OPLS-2005>
38.0520858764648

> <r_mmod_Bend_Energy-OPLS-2005>
103.493583679199

> <r_mmod_Torsional_Energy-OPLS-2005>
269.066009521484

> <r_mmod_Improper_Torsional_Energy-OPLS-2005>
5.56116437911987

> <r_mmod_Van_der_Waal_Energy-OPLS-2005>
142.235061645508

> <r_mmod_Electrostatic_Energy-OPLS-2005>
-386.073486328125

> <r_mmod_Solvation_Energy-OPLS-2005>
-212.002868652344

> <b_mmod_Minimization_Converged-OPLS-2005>
0

> <r_mmod_RMS_Derivative-OPLS-2005>
0.609314560890198

$$$$
25
                    3D
 Structure written by MMmdl.
140147  0  0  1  0            999 V2000
  -30.1611  -16.0041   20.3080 C   0  0  0  0  0  0
  -30.3940  -13.3709   19.5193 C   0  0  0  0  0  0
  -29.5602  -12.7495   18.3505 C   0  0  0  0  0  0
  -28.1679  -12.3098   18.8207 C   0  0  0  0  0  0
  -27.5837  -13.3431   19.8035 C   0  0  2  0  0  0
  -28.5794  -13.8362   20.8889 C   0  0  0  0  0  0
  -25.2278  -13.8329   20.5856 C   0  0  0  0  0  0
  -24.1700  -13.0433   20.9315 C   0  0  0  0  0  0
  -24.6450  -11.6960   20.8763 C   0  0  0  0  0  0
  -23.9156  -10.4295   21.0384 C   0  0  0  0  0  0
  -24.3676   -9.4207   21.9173 C   0  0  0  0  0  0
  -23.6326   -8.2253   22.0753 C   0  0  0  0  0  0
  -22.4305   -8.0296   21.3544 C   0  0  0  0  0  0
  -21.9960   -9.0273   20.4641 C   0  0  0  0  0  0
  -22.7315  -10.2138   20.3042 C   0  0  0  0  0  0
  -21.6863   -6.0747   22.5279 C   0  0  0  0  0  0
  -21.4022   -6.5646   23.8213 C   0  0  0  0  0  0
  -21.3661   -5.6796   24.9173 C   0  0  0  0  0  0
  -21.6044   -4.3059   24.7222 C   0  0  0  0  0  0
  -21.8818   -3.8153   23.4342 C   0  0  0  0  0  0
  -21.9196   -4.6972   22.3400 C   0  0  0  0  0  0
  -22.7702  -13.5137   21.1934 C   0  0  0  0  0  0
  -22.1662   -4.2158   21.0977 F   0  0  0  0  0  0
  -21.5626   -3.4540   25.7734 F   0  0  0  0  0  0
  -29.6775  -14.5802   20.1919 N   0  0  0  0  0  0
  -26.2769  -12.9729   20.3291 N   0  0  0  0  0  0
  -25.9412  -11.6758   20.5682 N   0  0  0  0  0  0
  -22.0374  -12.8106   22.0483 N   0  0  0  0  0  0
  -25.3817  -15.2078   20.4306 N   0  0  0  0  0  0
  -31.4087  -15.8722   20.2822 O   0  0  0  0  0  0
  -21.6655   -6.8899   21.4244 O   0  0  0  0  0  0
  -22.3368  -14.5432   20.6768 O   0  0  0  0  0  0
  -24.7122  -31.7741   23.1306 C   0  0  0  0  0  0
  -25.9575  -32.4339   23.7956 C   0  0  1  0  0  0
  -27.2357  -26.4414   20.2493 C   0  0  0  0  0  0
  -25.6043  -33.8173   24.1821 N   0  0  0  0  0  0
  -23.5502  -30.3697   21.4913 C   0  0  2  0  0  0
  -25.0042  -28.6446   20.1367 C   0  0  0  0  0  0
  -22.7896  -29.4343   22.4700 C   0  0  0  0  0  0
  -18.0162  -28.1569   22.8214 C   0  0  0  0  0  0
  -24.1498  -36.7093   23.2657 C   0  0  0  0  0  0
  -26.1405  -30.4200   21.4324 C   0  0  0  0  0  0
  -26.2010  -28.9529   20.7936 C   0  0  0  0  0  0
  -27.2917  -27.8910   20.8024 C   0  0  0  0  0  0
  -25.9991  -26.4075   19.5352 C   0  0  0  0  0  0
  -24.9575  -27.3998   19.4818 C   0  0  0  0  0  0
  -23.8153  -29.6344   20.1422 C   0  0  0  0  0  0
  -25.4158  -36.2817   24.0263 C   0  0  1  0  0  0
  -20.6073  -28.3875   23.0881 C   0  0  2  0  0  0
  -20.7786  -26.9756   22.4608 C   0  0  0  0  0  0
  -19.5498  -26.4216   21.7088 C   0  0  0  0  0  0
  -18.1097  -26.8638   22.0237 C   0  0  0  0  0  0
  -19.1588  -28.8842   23.2637 C   0  0  0  0  0  0
  -18.9570  -30.1345   23.8911 C   0  0  0  0  0  0
  -17.6624  -30.6560   24.0765 C   0  0  0  0  0  0
  -25.9160  -34.9216   23.4892 C   0  0  0  0  0  0
  -16.5419  -29.9202   23.6574 C   0  0  0  0  0  0
  -16.7219  -28.6723   23.0397 C   0  0  0  0  0  0
  -26.4648  -31.6466   25.0680 C   0  0  0  0  0  0
  -25.3637  -31.3855   26.1238 C   0  0  0  0  0  0
  -27.0614  -30.2776   24.6755 C   0  0  0  0  0  0
  -27.6047  -32.4377   25.7524 C   0  0  0  0  0  0
  -27.5558  -37.1705   24.8467 C   0  0  0  0  0  0
  -21.4495  -29.3435   22.3578 N   0  0  0  0  0  0
  -26.4262  -37.3606   23.9409 N   0  0  0  0  0  0
  -24.8283  -30.8941   22.0696 N   0  0  0  0  0  0
  -23.4210  -28.7802   23.3033 O   0  0  0  0  0  0
  -28.1967  -25.1262   20.2226 O   0  0  0  0  0  0
  -26.5824  -34.8842   22.4527 O   0  0  0  0  0  0
  -23.6085  -32.0940   23.6097 O   0  0  0  0  0  0
  -28.7705  -21.2825   19.9969 C   0  0  0  0  0  0
  -29.3625  -19.3536   20.6014 C   0  0  0  0  0  0
  -28.2110  -23.2498   20.5175 C   0  0  0  0  0  0
  -29.4079  -17.4693   20.2741 N   0  0  0  0  0  0
  -31.3466  -13.7011   19.1035 H   0  0  0  0  0  0
  -30.6640  -12.6081   20.2520 H   0  0  0  0  0  0
  -30.0920  -11.9085   17.9034 H   0  0  0  0  0  0
  -29.4512  -13.4961   17.5625 H   0  0  0  0  0  0
  -28.2677  -11.3481   19.3257 H   0  0  0  0  0  0
  -27.5014  -12.1499   17.9722 H   0  0  0  0  0  0
  -27.3925  -14.2099   19.1687 H   0  0  0  0  0  0
  -28.9347  -13.0208   21.5211 H   0  0  0  0  0  0
  -28.0774  -14.5353   21.5592 H   0  0  0  0  0  0
  -25.2813   -9.5677   22.4762 H   0  0  0  0  0  0
  -24.0020   -7.4647   22.7483 H   0  0  0  0  0  0
  -21.0888   -8.8807   19.8948 H   0  0  0  0  0  0
  -22.3776  -10.9680   19.6153 H   0  0  0  0  0  0
  -21.2018   -7.6155   23.9719 H   0  0  0  0  0  0
  -21.1482   -6.0525   25.9077 H   0  0  0  0  0  0
  -22.0594   -2.7615   23.2840 H   0  0  0  0  0  0
  -22.4027  -11.9789   22.4882 H   0  0  0  0  0  0
  -21.0974  -13.1085   22.2674 H   0  0  0  0  0  0
  -24.6092  -15.8546   20.5480 H   0  0  0  0  0  0
  -26.2271  -15.6547   20.1017 H   0  0  0  0  0  0
  -26.7689  -32.4750   23.0689 H   0  0  0  0  0  0
  -25.0068  -33.9166   24.9896 H   0  0  0  0  0  0
  -22.8946  -31.2157   21.2742 H   0  0  0  0  0  0
  -23.3788  -35.9392   23.3244 H   0  0  0  0  0  0
  -24.3558  -36.8846   22.2087 H   0  0  0  0  0  0
  -23.7232  -37.6231   23.6804 H   0  0  0  0  0  0
  -26.3681  -31.1235   20.6306 H   0  0  0  0  0  0
  -26.9832  -30.5006   22.1060 H   0  0  0  0  0  0
  -28.1975  -28.1537   21.3305 H   0  0  0  0  0  0
  -25.7911  -25.4872   19.0076 H   0  0  0  0  0  0
  -24.0632  -27.1495   18.9276 H   0  0  0  0  0  0
  -24.0136  -30.3783   19.3698 H   0  0  0  0  0  0
  -22.9130  -29.1146   19.8155 H   0  0  0  0  0  0
  -25.1379  -36.1542   25.0751 H   0  0  0  0  0  0
  -20.9993  -28.3319   24.1064 H   0  0  0  0  0  0
  -21.1583  -26.3040   23.2422 H   0  0  0  0  0  0
  -21.6163  -26.9721   21.7601 H   0  0  0  0  0  0
  -19.3880  -26.0269   22.7114 H   0  0  0  0  0  0
  -19.6128  -27.3462   21.1307 H   0  0  0  0  0  0
  -17.5815  -27.0283   21.0810 H   0  0  0  0  0  0
  -17.5017  -26.0951   22.5175 H   0  0  0  0  0  0
  -19.8097  -30.7074   24.2302 H   0  0  0  0  0  0
  -17.5302  -31.6181   24.5523 H   0  0  0  0  0  0
  -15.5460  -30.3152   23.8048 H   0  0  0  0  0  0
  -15.8546  -28.1225   22.6995 H   0  0  0  0  0  0
  -24.5858  -30.7178   25.7514 H   0  0  0  0  0  0
  -24.8793  -32.3100   26.4389 H   0  0  0  0  0  0
  -25.7743  -30.9184   27.0198 H   0  0  0  0  0  0
  -26.3378  -29.6321   24.1770 H   0  0  0  0  0  0
  -27.3966  -29.7315   25.5583 H   0  0  0  0  0  0
  -27.9387  -30.3845   24.0374 H   0  0  0  0  0  0
  -27.2557  -33.3779   26.1808 H   0  0  0  0  0  0
  -28.4013  -32.6778   25.0469 H   0  0  0  0  0  0
  -28.0543  -31.8704   26.5683 H   0  0  0  0  0  0
  -28.2525  -38.0046   24.7520 H   0  0  0  0  0  0
  -28.1104  -36.2565   24.6288 H   0  0  0  0  0  0
  -27.2271  -37.1326   25.8867 H   0  0  0  0  0  0
  -20.9859  -29.9264   21.6745 H   0  0  0  0  0  0
  -26.0065  -38.2641   24.1431 H   0  0  0  0  0  0
  -27.9479  -21.0312   19.3274 H   0  0  0  0  0  0
  -29.5799  -21.5046   19.3014 H   0  0  0  0  0  0
  -28.8623  -19.3135   21.5693 H   0  0  0  0  0  0
  -30.4044  -19.5229   20.8749 H   0  0  0  0  0  0
  -28.6621  -23.2870   21.5090 H   0  0  0  0  0  0
  -27.1534  -23.1048   20.7380 H   0  0  0  0  0  0
  -28.4467  -17.2150   20.0887 H   0  0  0  0  0  0
  1 25  1  0  0  0
  1 30  2  0  0  0
  1 74  1  0  0  0
  2  3  1  0  0  0
  2 25  1  0  0  0
  2 75  1  0  0  0
  2 76  1  0  0  0
  3  4  1  0  0  0
  3 77  1  0  0  0
  3 78  1  0  0  0
  4  5  1  0  0  0
  4 79  1  0  0  0
  4 80  1  0  0  0
  5  6  1  0  0  0
  5 26  1  0  0  0
  5 81  1  0  0  0
  6 25  1  0  0  0
  6 82  1  0  0  0
  6 83  1  0  0  0
  7  8  2  0  0  0
  7 26  1  0  0  0
  7 29  1  0  0  0
  8  9  1  0  0  0
  8 22  1  0  0  0
  9 10  1  0  0  0
  9 27  2  0  0  0
 10 11  2  0  0  0
 10 15  1  0  0  0
 11 12  1  0  0  0
 11 84  1  0  0  0
 12 13  2  0  0  0
 12 85  1  0  0  0
 13 14  1  0  0  0
 13 31  1  0  0  0
 14 15  2  0  0  0
 14 86  1  0  0  0
 15 87  1  0  0  0
 16 17  2  0  0  0
 16 21  1  0  0  0
 16 31  1  0  0  0
 17 18  1  0  0  0
 17 88  1  0  0  0
 18 19  2  0  0  0
 18 89  1  0  0  0
 19 20  1  0  0  0
 19 24  1  0  0  0
 20 21  2  0  0  0
 20 90  1  0  0  0
 21 23  1  0  0  0
 22 28  1  0  0  0
 22 32  2  0  0  0
 26 27  1  0  0  0
 28 91  1  0  0  0
 28 92  1  0  0  0
 29 93  1  0  0  0
 29 94  1  0  0  0
 33 34  1  0  0  0
 33 66  1  0  0  0
 33 70  2  0  0  0
 34 36  1  0  0  0
 34 59  1  0  0  0
 34 95  1  0  0  0
 35 44  2  0  0  0
 35 45  1  0  0  0
 35 68  1  0  0  0
 36 56  1  0  0  0
 36 96  1  0  0  0
 37 39  1  0  0  0
 37 47  1  0  0  0
 37 66  1  0  0  0
 37 97  1  0  0  0
 38 43  2  0  0  0
 38 46  1  0  0  0
 38 47  1  0  0  0
 39 64  1  0  0  0
 39 67  2  0  0  0
 40 52  1  0  0  0
 40 53  2  0  0  0
 40 58  1  0  0  0
 41 98  1  0  0  0
 41 99  1  0  0  0
 41100  1  0  0  0
 41 48  1  0  0  0
 42 43  1  0  0  0
 42 66  1  0  0  0
 42101  1  0  0  0
 42102  1  0  0  0
 43 44  1  0  0  0
 44103  1  0  0  0
 45 46  2  0  0  0
 45104  1  0  0  0
 46105  1  0  0  0
 47106  1  0  0  0
 47107  1  0  0  0
 48 56  1  0  0  0
 48 65  1  0  0  0
 48108  1  0  0  0
 49 50  1  0  0  0
 49 53  1  0  0  0
 49 64  1  0  0  0
 49109  1  0  0  0
 50 51  1  0  0  0
 50110  1  0  0  0
 50111  1  0  0  0
 51 52  1  0  0  0
 51112  1  0  0  0
 51113  1  0  0  0
 52114  1  0  0  0
 52115  1  0  0  0
 53 54  1  0  0  0
 54 55  2  0  0  0
 54116  1  0  0  0
 55 57  1  0  0  0
 55117  1  0  0  0
 56 69  2  0  0  0
 57 58  2  0  0  0
 57118  1  0  0  0
 58119  1  0  0  0
 59 60  1  0  0  0
 59 61  1  0  0  0
 59 62  1  0  0  0
 60120  1  0  0  0
 60121  1  0  0  0
 60122  1  0  0  0
 61123  1  0  0  0
 61124  1  0  0  0
 61125  1  0  0  0
 62126  1  0  0  0
 62127  1  0  0  0
 62128  1  0  0  0
 63 65  1  0  0  0
 63129  1  0  0  0
 63130  1  0  0  0
 63131  1  0  0  0
 64132  1  0  0  0
 65133  1  0  0  0
 68 73  1  0  0  0
 71 72  1  0  0  0
 71 73  1  0  0  0
 71134  1  0  0  0
 71135  1  0  0  0
 72 74  1  0  0  0
 72136  1  0  0  0
 72137  1  0  0  0
 73138  1  0  0  0
 73139  1  0  0  0
 74140  1  0  0  0
M  ISO  4   1 100  68 101  73 101  74 100
M  END
> <chiral flag>
0

> <version>
0

> <s_m_source_file>
/data/baiqing/PycharmProjects/Reinvent-master-3.2/result/LINK_invent/BTK/process_docking_weight1_custom_product_contain_oxygen_bond_distance_aromatic_linkinvent_7_9_3/rearranged_h_0004.sdf

> <i_m_source_file_index>
26

> <r_mmod_Potential_Energy-OPLS-2005>
4439.1796875

> <r_mmod_Stretch_Energy-OPLS-2005>
1928.78686523438

> <r_mmod_Bend_Energy-OPLS-2005>
1134.07287597656

> <r_mmod_Torsional_Energy-OPLS-2005>
253.740341186523

> <r_mmod_Improper_Torsional_Energy-OPLS-2005>
5.21059560775757

> <r_mmod_Van_der_Waal_Energy-OPLS-2005>
136.971328735352

> <r_mmod_Electrostatic_Energy-OPLS-2005>
-343.119842529297

> <r_mmod_Solvation_Energy-OPLS-2005>
-223.109710693359

> <b_mmod_Minimization_Converged-OPLS-2005>
0

> <r_mmod_RMS_Derivative-OPLS-2005>
0.0710311159491539

$$$$
26
                    3D
 Structure written by MMmdl.
192203  0  0  1  0            999 V2000
  -31.0553  -14.0770   20.6378 C   0  0  0  0  0  0
  -30.3564  -12.1869   19.3415 C   0  0  0  0  0  0
  -29.4356  -12.5348   18.1675 C   0  0  0  0  0  0
  -27.9756  -12.4071   18.5872 C   0  0  0  0  0  0
  -27.6777  -13.2242   19.8625 C   0  0  2  0  0  0
  -28.7397  -13.0516   20.9896 C   0  0  0  0  0  0
  -25.2680  -13.8190   20.5561 C   0  0  0  0  0  0
  -24.1946  -13.0428   20.9058 C   0  0  0  0  0  0
  -24.6523  -11.6913   20.8614 C   0  0  0  0  0  0
  -23.9175  -10.4289   21.0278 C   0  0  0  0  0  0
  -24.3710   -9.4213   21.9097 C   0  0  0  0  0  0
  -23.6365   -8.2230   22.0746 C   0  0  0  0  0  0
  -22.4345   -8.0270   21.3530 C   0  0  0  0  0  0
  -21.9961   -9.0245   20.4625 C   0  0  0  0  0  0
  -22.7321  -10.2101   20.2991 C   0  0  0  0  0  0
  -21.6852   -6.0732   22.5265 C   0  0  0  0  0  0
  -21.4017   -6.5650   23.8181 C   0  0  0  0  0  0
  -21.3664   -5.6830   24.9161 C   0  0  0  0  0  0
  -21.6000   -4.3080   24.7207 C   0  0  0  0  0  0
  -21.8805   -3.8153   23.4344 C   0  0  0  0  0  0
  -21.9217   -4.6961   22.3416 C   0  0  0  0  0  0
  -22.7984  -13.5207   21.1831 C   0  0  0  0  0  0
  -22.1714   -4.2154   21.0986 F   0  0  0  0  0  0
  -21.5639   -3.4571   25.7715 F   0  0  0  0  0  0
  -30.1332  -13.1006   20.4748 N   0  0  0  0  0  0
  -26.3172  -12.9422   20.3352 N   0  0  0  0  0  0
  -25.9464  -11.6544   20.5656 N   0  0  0  0  0  0
  -22.0789  -12.8054   22.0354 N   0  0  0  0  0  0
  -25.4464  -15.1887   20.3980 N   0  0  0  0  0  0
  -31.4001  -14.8392   19.7395 O   0  0  0  0  0  0
  -21.6707   -6.8884   21.4226 O   0  0  0  0  0  0
  -22.3598  -14.5572   20.6821 O   0  0  0  0  0  0
  -24.6137  -31.8685   23.2113 C   0  0  0  0  0  0
  -25.9052  -32.4802   23.8394 C   0  0  1  0  0  0
  -27.2953  -27.5057   20.0534 C   0  0  0  0  0  0
  -25.5933  -33.8581   24.2351 N   0  0  0  0  0  0
  -23.4104  -30.4792   21.5545 C   0  0  2  0  0  0
  -24.8636  -28.9418   20.1300 C   0  0  0  0  0  0
  -22.7430  -29.4612   22.5124 C   0  0  0  0  0  0
  -18.0272  -28.1359   22.8529 C   0  0  0  0  0  0
  -24.1472  -36.7308   23.2638 C   0  0  0  0  0  0
  -25.9301  -30.8384   21.3697 C   0  0  0  0  0  0
  -26.0131  -29.4745   20.7233 C   0  0  0  0  0  0
  -27.2214  -28.7534   20.7011 C   0  0  0  0  0  0
  -26.1211  -26.9578   19.4843 C   0  0  0  0  0  0
  -24.9045  -27.6729   19.5205 C   0  0  0  0  0  0
  -23.6152  -29.7895   20.1773 C   0  0  0  0  0  0
  -25.4108  -36.3130   24.0354 C   0  0  1  0  0  0
  -20.5879  -28.3628   23.1388 C   0  0  2  0  0  0
  -20.6772  -26.9369   22.5479 C   0  0  0  0  0  0
  -19.5741  -26.6348   21.5281 C   0  0  0  0  0  0
  -18.1902  -26.7920   22.1633 C   0  0  0  0  0  0
  -19.1532  -28.8841   23.2928 C   0  0  0  0  0  0
  -18.9408  -30.1464   23.8879 C   0  0  0  0  0  0
  -17.6405  -30.6570   24.0579 C   0  0  0  0  0  0
  -25.9055  -34.9462   23.5167 C   0  0  0  0  0  0
  -16.5300  -29.9046   23.6385 C   0  0  0  0  0  0
  -16.7252  -28.6494   23.0358 C   0  0  0  0  0  0
  -26.4475  -31.6626   25.0724 C   0  0  0  0  0  0
  -25.3787  -31.3718   26.1496 C   0  0  0  0  0  0
  -27.0322  -30.3089   24.6111 C   0  0  0  0  0  0
  -27.6065  -32.4353   25.7492 C   0  0  0  0  0  0
  -27.5601  -37.1801   24.8460 C   0  0  0  0  0  0
  -21.4205  -29.2980   22.3822 N   0  0  0  0  0  0
  -26.4308  -37.3795   23.9431 N   0  0  0  0  0  0
  -24.6681  -31.0731   22.1045 N   0  0  0  0  0  0
  -23.4210  -28.8170   23.3150 O   0  0  0  0  0  0
  -28.5081  -26.8606   19.9969 O   0  0  0  0  0  0
  -26.5523  -34.8915   22.4654 O   0  0  0  0  0  0
  -23.5342  -32.1379   23.7511 O   0  0  0  0  0  0
  -27.6417  -15.6345   23.9805 C   0  0  0  0  0  0
  -29.0360  -15.4305   23.9588 C   0  0  0  0  0  0
  -27.0906  -16.7905   23.4011 C   0  0  0  0  0  0
  -29.8802  -16.3920   23.3748 C   0  0  0  0  0  0
  -27.9286  -17.7320   22.7908 C   0  0  0  0  0  0
  -32.5773  -21.8675   19.9847 C   0  0  0  0  0  0
  -30.7984  -20.8525   21.2925 C   0  0  0  0  0  0
  -29.9887  -21.9958   21.1780 C   0  0  0  0  0  0
  -29.3294  -17.5556   22.7932 C   0  0  0  0  0  0
  -32.1041  -20.7657   20.7421 C   0  0  0  0  0  0
  -31.7691  -23.0248   19.8912 C   0  0  0  0  0  0
  -30.5152  -23.0993   20.4879 C   0  0  0  0  0  0
  -30.0180  -19.8697   22.0425 C   0  0  0  0  0  0
  -28.7478  -21.7460   21.9443 C   0  0  0  0  0  0
  -30.2355  -18.5489   22.2075 C   0  0  0  0  0  0
  -32.9177  -19.5665   21.0232 C   0  0  0  0  0  0
  -33.5910  -18.7721   20.1666 C   0  0  0  0  0  0
  -32.1009  -24.3412   19.2273 C   0  0  0  0  0  0
  -29.9151  -24.4370   20.2661 C   0  0  0  0  0  0
  -27.1477  -23.6476   21.3969 C   0  0  0  0  0  0
  -26.5720  -21.9597   23.1015 C   0  0  0  0  0  0
  -34.3391  -17.5284   20.6415 C   0  0  0  0  0  0
  -33.4547  -13.9293   21.1900 C   0  0  0  0  0  0
  -30.5415  -26.2935   18.6779 C   0  0  0  0  0  0
  -34.0322  -15.3364   21.5010 C   0  0  0  0  0  0
  -29.0158  -26.6363   18.6758 C   0  0  0  0  0  0
  -28.8916  -20.5372   22.4932 N   0  3  0  0  0  0
  -32.0233  -13.7442   21.5117 N   0  0  0  0  0  0
  -27.5888  -22.4451   22.1322 N   0  0  0  0  0  0
  -30.9944  -25.2549   19.6571 N   0  3  2  0  0  0
  -33.5063  -16.3712   20.6664 O   0  0  0  0  0  0
  -31.3930  -12.2117   18.9964 H   0  0  0  0  0  0
  -30.1594  -11.1651   19.6627 H   0  0  0  0  0  0
  -29.6353  -11.8711   17.3227 H   0  0  0  0  0  0
  -29.6208  -13.5546   17.8147 H   0  0  0  0  0  0
  -27.7367  -11.3540   18.7278 H   0  0  0  0  0  0
  -27.3290  -12.7532   17.7814 H   0  0  0  0  0  0
  -27.7080  -14.2730   19.5477 H   0  0  0  0  0  0
  -28.5781  -12.1040   21.5015 H   0  0  0  0  0  0
  -28.5756  -13.8363   21.7278 H   0  0  0  0  0  0
  -25.2861   -9.5707   22.4650 H   0  0  0  0  0  0
  -24.0058   -7.4655   22.7510 H   0  0  0  0  0  0
  -21.0858   -8.8789   19.8967 H   0  0  0  0  0  0
  -22.3756  -10.9659   19.6118 H   0  0  0  0  0  0
  -21.2042   -7.6181   23.9650 H   0  0  0  0  0  0
  -21.1489   -6.0601   25.9058 H   0  0  0  0  0  0
  -22.0587   -2.7619   23.2878 H   0  0  0  0  0  0
  -22.4509  -11.9613   22.4497 H   0  0  0  0  0  0
  -21.1469  -13.0981   22.2797 H   0  0  0  0  0  0
  -24.7051  -15.8680   20.5061 H   0  0  0  0  0  0
  -26.3405  -15.6068   20.1563 H   0  0  0  0  0  0
  -26.7149  -32.5529   23.1186 H   0  0  0  0  0  0
  -25.0304  -33.9749   25.0660 H   0  0  0  0  0  0
  -22.6979  -31.2919   21.4012 H   0  0  0  0  0  0
  -23.3767  -35.9611   23.3285 H   0  0  0  0  0  0
  -24.3644  -36.8897   22.2082 H   0  0  0  0  0  0
  -23.7166  -37.6486   23.6624 H   0  0  0  0  0  0
  -26.0474  -31.5969   20.5980 H   0  0  0  0  0  0
  -26.8144  -30.8859   21.9915 H   0  0  0  0  0  0
  -28.1180  -29.1625   21.1536 H   0  0  0  0  0  0
  -26.1416  -25.9874   19.0095 H   0  0  0  0  0  0
  -24.0202  -27.2473   19.0736 H   0  0  0  0  0  0
  -23.7118  -30.5456   19.3980 H   0  0  0  0  0  0
  -22.7451  -29.1916   19.9026 H   0  0  0  0  0  0
  -25.1304  -36.2008   25.0853 H   0  0  0  0  0  0
  -20.9957  -28.3121   24.1511 H   0  0  0  0  0  0
  -20.5795  -26.2172   23.3644 H   0  0  0  0  0  0
  -21.6611  -26.7478   22.1164 H   0  0  0  0  0  0
  -19.6928  -25.6277   21.1274 H   0  0  0  0  0  0
  -19.6731  -27.3203   20.6865 H   0  0  0  0  0  0
  -17.4260  -26.6793   21.3936 H   0  0  0  0  0  0
  -18.0165  -25.9991   22.8923 H   0  0  0  0  0  0
  -19.7867  -30.7312   24.2193 H   0  0  0  0  0  0
  -17.4931  -31.6246   24.5155 H   0  0  0  0  0  0
  -15.5301  -30.2906   23.7747 H   0  0  0  0  0  0
  -15.8626  -28.0809   22.7069 H   0  0  0  0  0  0
  -24.5958  -30.7029   25.7874 H   0  0  0  0  0  0
  -24.8945  -32.2850   26.4982 H   0  0  0  0  0  0
  -25.8166  -30.8900   27.0246 H   0  0  0  0  0  0
  -26.2840  -29.6811   24.1225 H   0  0  0  0  0  0
  -27.4186  -29.7353   25.4555 H   0  0  0  0  0  0
  -27.8647  -30.4431   23.9187 H   0  0  0  0  0  0
  -27.2702  -33.3655   26.2077 H   0  0  0  0  0  0
  -28.3871  -32.6905   25.0317 H   0  0  0  0  0  0
  -28.0723  -31.8464   26.5399 H   0  0  0  0  0  0
  -28.2616  -38.0090   24.7575 H   0  0  0  0  0  0
  -28.1079  -36.2659   24.6214 H   0  0  0  0  0  0
  -27.2334  -37.1380   25.8839 H   0  0  0  0  0  0
  -20.9408  -29.8664   21.6988 H   0  0  0  0  0  0
  -26.0214  -38.2885   24.1354 H   0  0  0  0  0  0
  -26.9861  -14.9039   24.4321 H   0  0  0  0  0  0
  -29.4574  -14.5315   24.3856 H   0  0  0  0  0  0
  -26.0250  -16.9518   23.3983 H   0  0  0  0  0  0
  -30.9519  -16.2318   23.3732 H   0  0  0  0  0  0
  -27.4641  -18.5703   22.2986 H   0  0  0  0  0  0
  -33.5616  -21.8527   19.5329 H   0  0  0  0  0  0
  -31.1070  -18.0989   21.7623 H   0  0  0  0  0  0
  -32.9652  -19.2985   22.0713 H   0  0  0  0  0  0
  -33.6164  -18.9757   19.1048 H   0  0  0  0  0  0
  -32.1406  -24.2095   18.1477 H   0  0  0  0  0  0
  -33.0635  -24.7129   19.5805 H   0  0  0  0  0  0
  -29.5688  -24.8765   21.1971 H   0  0  0  0  0  0
  -29.1017  -24.2783   19.5694 H   0  0  0  0  0  0
  -27.3503  -23.5747   20.3317 H   0  0  0  0  0  0
  -27.5739  -24.5568   21.8169 H   0  0  0  0  0  0
  -26.0659  -23.7669   21.4582 H   0  0  0  0  0  0
  -27.0267  -21.5791   24.0181 H   0  0  0  0  0  0
  -25.9520  -21.1670   22.6794 H   0  0  0  0  0  0
  -25.9027  -22.7636   23.4075 H   0  0  0  0  0  0
  -34.7250  -17.7213   21.6475 H   0  0  0  0  0  0
  -35.2021  -17.3542   19.9961 H   0  0  0  0  0  0
  -34.0194  -13.1689   21.7368 H   0  0  0  0  0  0
  -33.6585  -13.6843   20.1345 H   0  0  0  0  0  0
  -31.1222  -27.1956   18.8679 H   0  0  0  0  0  0
  -30.8155  -25.9760   17.6714 H   0  0  0  0  0  0
  -35.1102  -15.2676   21.3388 H   0  0  0  0  0  0
  -33.9055  -15.6124   22.5498 H   0  0  0  0  0  0
  -28.4424  -25.8399   18.2076 H   0  0  0  0  0  0
  -28.8536  -27.5153   18.0505 H   0  0  0  0  0  0
  -28.1615  -20.1866   23.0890 H   0  0  0  0  0  0
  -31.8305  -13.0101   22.1830 H   0  0  0  0  0  0
  -31.3896  -25.7669   20.4358 H   0  0  0  0  0  0
  1 25  1  0  0  0
  1 30  2  0  0  0
  1 98  1  0  0  0
  2  3  1  0  0  0
  2 25  1  0  0  0
  2102  1  0  0  0
  2103  1  0  0  0
  3  4  1  0  0  0
  3104  1  0  0  0
  3105  1  0  0  0
  4  5  1  0  0  0
  4106  1  0  0  0
  4107  1  0  0  0
  5  6  1  0  0  0
  5 26  1  0  0  0
  5108  1  0  0  0
  6 25  1  0  0  0
  6109  1  0  0  0
  6110  1  0  0  0
  7  8  2  0  0  0
  7 26  1  0  0  0
  7 29  1  0  0  0
  8  9  1  0  0  0
  8 22  1  0  0  0
  9 10  1  0  0  0
  9 27  2  0  0  0
 10 11  2  0  0  0
 10 15  1  0  0  0
 11 12  1  0  0  0
 11111  1  0  0  0
 12 13  2  0  0  0
 12112  1  0  0  0
 13 14  1  0  0  0
 13 31  1  0  0  0
 14 15  2  0  0  0
 14113  1  0  0  0
 15114  1  0  0  0
 16 17  2  0  0  0
 16 21  1  0  0  0
 16 31  1  0  0  0
 17 18  1  0  0  0
 17115  1  0  0  0
 18 19  2  0  0  0
 18116  1  0  0  0
 19 20  1  0  0  0
 19 24  1  0  0  0
 20 21  2  0  0  0
 20117  1  0  0  0
 21 23  1  0  0  0
 22 28  1  0  0  0
 22 32  2  0  0  0
 26 27  1  0  0  0
 28118  1  0  0  0
 28119  1  0  0  0
 29120  1  0  0  0
 29121  1  0  0  0
 33 34  1  0  0  0
 33 66  1  0  0  0
 33 70  2  0  0  0
 34 36  1  0  0  0
 34 59  1  0  0  0
 34122  1  0  0  0
 35 44  2  0  0  0
 35 45  1  0  0  0
 35 68  1  0  0  0
 36 56  1  0  0  0
 36123  1  0  0  0
 37 39  1  0  0  0
 37 47  1  0  0  0
 37 66  1  0  0  0
 37124  1  0  0  0
 38 43  2  0  0  0
 38 46  1  0  0  0
 38 47  1  0  0  0
 39 64  1  0  0  0
 39 67  2  0  0  0
 40 52  1  0  0  0
 40 53  2  0  0  0
 40 58  1  0  0  0
 41125  1  0  0  0
 41126  1  0  0  0
 41127  1  0  0  0
 41 48  1  0  0  0
 42 43  1  0  0  0
 42 66  1  0  0  0
 42128  1  0  0  0
 42129  1  0  0  0
 43 44  1  0  0  0
 44130  1  0  0  0
 45 46  2  0  0  0
 45131  1  0  0  0
 46132  1  0  0  0
 47133  1  0  0  0
 47134  1  0  0  0
 48 56  1  0  0  0
 48 65  1  0  0  0
 48135  1  0  0  0
 49 50  1  0  0  0
 49 53  1  0  0  0
 49 64  1  0  0  0
 49136  1  0  0  0
 50 51  1  0  0  0
 50137  1  0  0  0
 50138  1  0  0  0
 51 52  1  0  0  0
 51139  1  0  0  0
 51140  1  0  0  0
 52141  1  0  0  0
 52142  1  0  0  0
 53 54  1  0  0  0
 54 55  2  0  0  0
 54143  1  0  0  0
 55 57  1  0  0  0
 55144  1  0  0  0
 56 69  2  0  0  0
 57 58  2  0  0  0
 57145  1  0  0  0
 58146  1  0  0  0
 59 60  1  0  0  0
 59 61  1  0  0  0
 59 62  1  0  0  0
 60147  1  0  0  0
 60148  1  0  0  0
 60149  1  0  0  0
 61150  1  0  0  0
 61151  1  0  0  0
 61152  1  0  0  0
 62153  1  0  0  0
 62154  1  0  0  0
 62155  1  0  0  0
 63 65  1  0  0  0
 63156  1  0  0  0
 63157  1  0  0  0
 63158  1  0  0  0
 64159  1  0  0  0
 65160  1  0  0  0
 68 96  1  0  0  0
 71 72  2  0  0  0
 71 73  1  0  0  0
 71161  1  0  0  0
 72 74  1  0  0  0
 72162  1  0  0  0
 73 75  2  0  0  0
 73163  1  0  0  0
 74 79  2  0  0  0
 74164  1  0  0  0
 75 79  1  0  0  0
 75165  1  0  0  0
 76 80  2  0  0  0
 76 81  1  0  0  0
 76166  1  0  0  0
 77 78  2  0  0  0
 77 80  1  0  0  0
 77 83  1  0  0  0
 78 82  1  0  0  0
 78 84  1  0  0  0
 79 85  1  0  0  0
 80 86  1  0  0  0
 81 82  2  0  0  0
 81 88  1  0  0  0
 82 89  1  0  0  0
 83 85  2  0  0  0
 83 97  1  0  0  0
 84 97  2  0  0  0
 84 99  1  0  0  0
 85167  1  0  0  0
 86 87  2  0  0  0
 86168  1  0  0  0
 87 92  1  0  0  0
 87169  1  0  0  0
 88100  1  0  0  0
 88170  1  0  0  0
 88171  1  0  0  0
 89100  1  0  0  0
 89172  1  0  0  0
 89173  1  0  0  0
 90 99  1  0  0  0
 90174  1  0  0  0
 90175  1  0  0  0
 90176  1  0  0  0
 91 99  1  0  0  0
 91177  1  0  0  0
 91178  1  0  0  0
 91179  1  0  0  0
 92101  1  0  0  0
 92180  1  0  0  0
 92181  1  0  0  0
 93 95  1  0  0  0
 93 98  1  0  0  0
 93182  1  0  0  0
 93183  1  0  0  0
 94 96  1  0  0  0
 94184  1  0  0  0
 94185  1  0  0  0
 94100  1  0  0  0
 95101  1  0  0  0
 95186  1  0  0  0
 95187  1  0  0  0
 96188  1  0  0  0
 96189  1  0  0  0
 97190  1  0  0  0
 98191  1  0  0  0
100192  1  0  0  0
M  CHG  2  97   1 100   1
M  ISO  4   1 100  68 101  96 101  98 100
M  END
> <chiral flag>
0

> <version>
0

> <s_m_source_file>
/data/baiqing/PycharmProjects/Reinvent-master-3.2/result/LINK_invent/BTK/process_docking_weight1_custom_product_contain_oxygen_bond_distance_aromatic_linkinvent_7_9_3/rearranged_h_0004.sdf

> <i_m_source_file_index>
27

> <r_mmod_Potential_Energy-OPLS-2005>
6.59728860855103

> <r_mmod_Stretch_Energy-OPLS-2005>
46.818717956543

> <r_mmod_Bend_Energy-OPLS-2005>
280.56494140625

> <r_mmod_Torsional_Energy-OPLS-2005>
347.128601074219

> <r_mmod_Improper_Torsional_Energy-OPLS-2005>
27.3926696777344

> <r_mmod_Van_der_Waal_Energy-OPLS-2005>
168.474487304688

> <r_mmod_Electrostatic_Energy-OPLS-2005>
-80.0365753173828

> <r_mmod_Solvation_Energy-OPLS-2005>
-842.47607421875

> <b_mmod_Minimization_Converged-OPLS-2005>
0

> <r_mmod_RMS_Derivative-OPLS-2005>
10.7040777206421

$$$$
27
                    3D
 Structure written by MMmdl.
161169  0  0  1  0            999 V2000
  -30.4086  -15.3364   20.3724 C   0  0  0  0  0  0
  -30.4424  -12.8708   19.5021 C   0  0  0  0  0  0
  -29.5339  -12.5826   18.2794 C   0  0  0  0  0  0
  -28.0875  -12.2948   18.7194 C   0  0  0  0  0  0
  -27.6073  -13.2786   19.8141 C   0  0  2  0  0  0
  -28.6465  -13.4836   20.9354 C   0  0  0  0  0  0
  -25.2383  -13.8246   20.5756 C   0  0  0  0  0  0
  -24.1741  -13.0430   20.9268 C   0  0  0  0  0  0
  -24.6411  -11.6933   20.8773 C   0  0  0  0  0  0
  -23.9112  -10.4291   21.0415 C   0  0  0  0  0  0
  -24.3655   -9.4201   21.9191 C   0  0  0  0  0  0
  -23.6313   -8.2244   22.0762 C   0  0  0  0  0  0
  -22.4289   -8.0291   21.3557 C   0  0  0  0  0  0
  -21.9942   -9.0268   20.4656 C   0  0  0  0  0  0
  -22.7285  -10.2138   20.3062 C   0  0  0  0  0  0
  -21.6855   -6.0749   22.5278 C   0  0  0  0  0  0
  -21.4016   -6.5648   23.8214 C   0  0  0  0  0  0
  -21.3656   -5.6798   24.9174 C   0  0  0  0  0  0
  -21.6042   -4.3062   24.7222 C   0  0  0  0  0  0
  -21.8815   -3.8157   23.4341 C   0  0  0  0  0  0
  -21.9193   -4.6977   22.3399 C   0  0  0  0  0  0
  -22.7755  -13.5178   21.1909 C   0  0  0  0  0  0
  -22.1658   -4.2164   21.0976 F   0  0  0  0  0  0
  -21.5629   -3.4542   25.7731 F   0  0  0  0  0  0
  -29.8548  -14.0210   20.2846 N   0  0  0  0  0  0
  -26.2815  -12.9531   20.3220 N   0  0  0  0  0  0
  -25.9349  -11.6636   20.5734 N   0  0  0  0  0  0
  -22.0418  -12.8159   22.0464 N   0  0  0  0  0  0
  -25.3991  -15.1987   20.4187 N   0  0  0  0  0  0
  -31.6448  -15.3256   20.2702 O   0  0  0  0  0  0
  -21.6645   -6.8895   21.4244 O   0  0  0  0  0  0
  -22.3437  -14.5480   20.6746 O   0  0  0  0  0  0
  -24.6667  -31.8199   23.1656 C   0  0  0  0  0  0
  -25.9321  -32.4576   23.8145 C   0  0  1  0  0  0
  -27.2182  -26.8825   20.2050 C   0  0  0  0  0  0
  -25.5974  -33.8395   24.2046 N   0  0  0  0  0  0
  -23.4837  -30.4304   21.5165 C   0  0  2  0  0  0
  -24.9373  -28.8037   20.1202 C   0  0  0  0  0  0
  -22.7688  -29.4433   22.4762 C   0  0  0  0  0  0
  -18.0330  -28.1418   22.8463 C   0  0  0  0  0  0
  -24.1489  -36.7204   23.2654 C   0  0  0  0  0  0
  -26.0555  -30.6131   21.4027 C   0  0  0  0  0  0
  -26.1231  -29.1956   20.7540 C   0  0  0  0  0  0
  -27.2593  -28.2594   20.7653 C   0  0  0  0  0  0
  -26.0020  -26.6528   19.5230 C   0  0  0  0  0  0
  -24.9037  -27.5534   19.4824 C   0  0  0  0  0  0
  -23.7274  -29.7402   20.1458 C   0  0  0  0  0  0
  -25.4129  -36.2963   24.0304 C   0  0  1  0  0  0
  -20.5957  -28.3768   23.1168 C   0  0  2  0  0  0
  -20.6807  -26.9446   22.5401 C   0  0  0  0  0  0
  -19.5778  -26.6374   21.5219 C   0  0  0  0  0  0
  -18.1955  -26.7951   22.1613 C   0  0  0  0  0  0
  -19.1592  -28.8912   23.2806 C   0  0  0  0  0  0
  -18.9506  -30.1501   23.8848 C   0  0  0  0  0  0
  -17.6500  -30.6608   24.0561 C   0  0  0  0  0  0
  -25.9097  -34.9351   23.4996 C   0  0  0  0  0  0
  -16.5389  -29.9095   23.6352 C   0  0  0  0  0  0
  -16.7314  -28.6513   23.0369 C   0  0  0  0  0  0
  -26.4549  -31.6548   25.0701 C   0  0  0  0  0  0
  -25.3652  -31.3819   26.1348 C   0  0  0  0  0  0
  -27.0465  -30.2912   24.6475 C   0  0  0  0  0  0
  -27.6030  -32.4372   25.7503 C   0  0  0  0  0  0
  -27.5561  -37.1759   24.8465 C   0  0  0  0  0  0
  -21.4350  -29.3054   22.3515 N   0  0  0  0  0  0
  -26.4264  -37.3708   23.9414 N   0  0  0  0  0  0
  -24.7572  -30.9826   22.0817 N   0  0  0  0  0  0
  -23.4212  -28.8012   23.3031 O   0  0  0  0  0  0
  -28.2217  -25.7614   20.2203 O   0  0  0  0  0  0
  -26.5721  -34.8899   22.4601 O   0  0  0  0  0  0
  -23.5720  -32.1185   23.6717 O   0  0  0  0  0  0
  -29.7978  -20.0487   18.7921 C   0  0  0  0  0  0
  -29.7661  -21.3197   18.1518 C   0  0  0  0  0  0
  -28.8230  -21.1901   20.6756 C   0  0  0  0  0  0
  -29.3640  -19.8388   20.1161 C   0  0  0  0  0  0
  -28.7329  -22.6075   20.0302 C   0  0  0  0  0  0
  -29.2841  -22.5357   18.7229 C   0  0  0  0  0  0
  -29.0920  -23.8608   15.4688 C   0  0  0  0  0  0
  -31.7857  -24.1932   17.6948 C   0  0  0  0  0  0
  -29.7178  -18.2463   20.8052 C   0  0  0  0  0  0
  -27.9592  -24.1343   20.5121 C   0  0  0  0  0  0
  -28.4125  -23.8546   16.8424 C   0  0  0  0  0  0
  -30.4244  -24.6499   18.2336 C   0  0  0  0  0  0
  -29.6242  -16.6136   20.3699 N   0  0  0  0  0  0
  -29.3639  -23.6922   17.9366 N   0  0  0  0  0  0
  -31.4469  -13.1094   19.1504 H   0  0  0  0  0  0
  -30.5521  -11.9839   20.1285 H   0  0  0  0  0  0
  -29.9257  -11.7436   17.7030 H   0  0  0  0  0  0
  -29.5448  -13.4447   17.6109 H   0  0  0  0  0  0
  -28.0581  -11.2762   19.1082 H   0  0  0  0  0  0
  -27.4135  -12.3136   17.8613 H   0  0  0  0  0  0
  -27.5080  -14.2360   19.3011 H   0  0  0  0  0  0
  -28.8451  -12.5574   21.4764 H   0  0  0  0  0  0
  -28.2769  -14.2015   21.6687 H   0  0  0  0  0  0
  -25.2800   -9.5667   22.4770 H   0  0  0  0  0  0
  -24.0011   -7.4638   22.7485 H   0  0  0  0  0  0
  -21.0869   -8.8806   19.8959 H   0  0  0  0  0  0
  -22.3756  -10.9688   19.6172 H   0  0  0  0  0  0
  -21.2008   -7.6159   23.9722 H   0  0  0  0  0  0
  -21.1478   -6.0528   25.9078 H   0  0  0  0  0  0
  -22.0595   -2.7619   23.2834 H   0  0  0  0  0  0
  -22.4052  -11.9825   22.4845 H   0  0  0  0  0  0
  -21.1038  -13.1184   22.2689 H   0  0  0  0  0  0
  -24.6244  -15.8441   20.5280 H   0  0  0  0  0  0
  -26.2366  -15.6445   20.0698 H   0  0  0  0  0  0
  -26.7395  -32.5099   23.0860 H   0  0  0  0  0  0
  -25.0084  -33.9465   25.0167 H   0  0  0  0  0  0
  -22.8009  -31.2640   21.3400 H   0  0  0  0  0  0
  -23.3766  -35.9519   23.3282 H   0  0  0  0  0  0
  -24.3564  -36.8884   22.2074 H   0  0  0  0  0  0
  -23.7226  -37.6374   23.6731 H   0  0  0  0  0  0
  -26.2391  -31.3471   20.6171 H   0  0  0  0  0  0
  -26.9145  -30.6743   22.0589 H   0  0  0  0  0  0
  -28.1594  -28.5653   21.2786 H   0  0  0  0  0  0
  -25.8754  -25.7030   19.0237 H   0  0  0  0  0  0
  -24.0047  -27.2459   18.9648 H   0  0  0  0  0  0
  -23.8902  -30.5061   19.3868 H   0  0  0  0  0  0
  -22.8353  -29.2001   19.8239 H   0  0  0  0  0  0
  -25.1323  -36.1758   25.0796 H   0  0  0  0  0  0
  -21.0043  -28.3384   24.1292 H   0  0  0  0  0  0
  -20.5692  -26.2392   23.3647 H   0  0  0  0  0  0
  -21.6669  -26.7427   22.1204 H   0  0  0  0  0  0
  -19.6946  -25.6267   21.1288 H   0  0  0  0  0  0
  -19.6719  -27.3155   20.6725 H   0  0  0  0  0  0
  -17.4229  -26.6702   21.4015 H   0  0  0  0  0  0
  -18.0348  -26.0106   22.9019 H   0  0  0  0  0  0
  -19.7992  -30.7326   24.2186 H   0  0  0  0  0  0
  -17.5063  -31.6288   24.5169 H   0  0  0  0  0  0
  -15.5389  -30.2989   23.7709 H   0  0  0  0  0  0
  -15.8710  -28.0821   22.7118 H   0  0  0  0  0  0
  -24.5849  -30.7162   25.7641 H   0  0  0  0  0  0
  -24.8830  -32.3035   26.4624 H   0  0  0  0  0  0
  -25.7861  -30.9074   27.0225 H   0  0  0  0  0  0
  -26.3156  -29.6566   24.1458 H   0  0  0  0  0  0
  -27.3961  -29.7311   25.5154 H   0  0  0  0  0  0
  -27.9102  -30.4093   23.9930 H   0  0  0  0  0  0
  -27.2594  -33.3727   26.1929 H   0  0  0  0  0  0
  -28.3913  -32.6848   25.0381 H   0  0  0  0  0  0
  -28.0620  -31.8604   26.5540 H   0  0  0  0  0  0
  -28.2557  -38.0074   24.7516 H   0  0  0  0  0  0
  -28.1074  -36.2602   24.6276 H   0  0  0  0  0  0
  -27.2284  -37.1381   25.8868 H   0  0  0  0  0  0
  -20.9609  -29.8746   21.6641 H   0  0  0  0  0  0
  -26.0111  -38.2766   24.1433 H   0  0  0  0  0  0
  -30.2263  -19.2160   18.2525 H   0  0  0  0  0  0
  -30.1670  -21.3623   17.1489 H   0  0  0  0  0  0
  -28.4490  -21.1375   21.6884 H   0  0  0  0  0  0
  -28.3482  -23.9278   14.6742 H   0  0  0  0  0  0
  -29.6716  -22.9528   15.3027 H   0  0  0  0  0  0
  -29.7611  -24.7148   15.3598 H   0  0  0  0  0  0
  -32.5512  -24.9423   17.8983 H   0  0  0  0  0  0
  -31.7591  -24.0359   16.6170 H   0  0  0  0  0  0
  -32.1086  -23.2629   18.1629 H   0  0  0  0  0  0
  -29.1579  -18.2680   21.7400 H   0  0  0  0  0  0
  -30.7530  -18.3488   21.1314 H   0  0  0  0  0  0
  -27.9269  -24.0730   21.5993 H   0  0  0  0  0  0
  -26.9230  -23.9774   20.2148 H   0  0  0  0  0  0
  -27.6687  -23.0564   16.8769 H   0  0  0  0  0  0
  -27.8631  -24.7863   16.9886 H   0  0  0  0  0  0
  -30.1645  -25.6193   17.8046 H   0  0  0  0  0  0
  -30.4964  -24.8011   19.3119 H   0  0  0  0  0  0
  -28.6545  -16.3756   20.2255 H   0  0  0  0  0  0
  1 25  1  0  0  0
  1 30  2  0  0  0
  1 83  1  0  0  0
  2  3  1  0  0  0
  2 25  1  0  0  0
  2 85  1  0  0  0
  2 86  1  0  0  0
  3  4  1  0  0  0
  3 87  1  0  0  0
  3 88  1  0  0  0
  4  5  1  0  0  0
  4 89  1  0  0  0
  4 90  1  0  0  0
  5  6  1  0  0  0
  5 26  1  0  0  0
  5 91  1  0  0  0
  6 25  1  0  0  0
  6 92  1  0  0  0
  6 93  1  0  0  0
  7  8  2  0  0  0
  7 26  1  0  0  0
  7 29  1  0  0  0
  8  9  1  0  0  0
  8 22  1  0  0  0
  9 10  1  0  0  0
  9 27  2  0  0  0
 10 11  2  0  0  0
 10 15  1  0  0  0
 11 12  1  0  0  0
 11 94  1  0  0  0
 12 13  2  0  0  0
 12 95  1  0  0  0
 13 14  1  0  0  0
 13 31  1  0  0  0
 14 15  2  0  0  0
 14 96  1  0  0  0
 15 97  1  0  0  0
 16 17  2  0  0  0
 16 21  1  0  0  0
 16 31  1  0  0  0
 17 18  1  0  0  0
 17 98  1  0  0  0
 18 19  2  0  0  0
 18 99  1  0  0  0
 19 20  1  0  0  0
 19 24  1  0  0  0
 20 21  2  0  0  0
 20100  1  0  0  0
 21 23  1  0  0  0
 22 28  1  0  0  0
 22 32  2  0  0  0
 26 27  1  0  0  0
 28101  1  0  0  0
 28102  1  0  0  0
 29103  1  0  0  0
 29104  1  0  0  0
 33 34  1  0  0  0
 33 66  1  0  0  0
 33 70  2  0  0  0
 34 36  1  0  0  0
 34 59  1  0  0  0
 34105  1  0  0  0
 35 44  2  0  0  0
 35 45  1  0  0  0
 35 68  1  0  0  0
 36 56  1  0  0  0
 36106  1  0  0  0
 37 39  1  0  0  0
 37 47  1  0  0  0
 37 66  1  0  0  0
 37107  1  0  0  0
 38 43  2  0  0  0
 38 46  1  0  0  0
 38 47  1  0  0  0
 39 64  1  0  0  0
 39 67  2  0  0  0
 40 52  1  0  0  0
 40 53  2  0  0  0
 40 58  1  0  0  0
 41108  1  0  0  0
 41109  1  0  0  0
 41110  1  0  0  0
 41 48  1  0  0  0
 42 43  1  0  0  0
 42 66  1  0  0  0
 42111  1  0  0  0
 42112  1  0  0  0
 43 44  1  0  0  0
 44113  1  0  0  0
 45 46  2  0  0  0
 45114  1  0  0  0
 46115  1  0  0  0
 47116  1  0  0  0
 47117  1  0  0  0
 48 56  1  0  0  0
 48 65  1  0  0  0
 48118  1  0  0  0
 49 50  1  0  0  0
 49 53  1  0  0  0
 49 64  1  0  0  0
 49119  1  0  0  0
 50 51  1  0  0  0
 50120  1  0  0  0
 50121  1  0  0  0
 51 52  1  0  0  0
 51122  1  0  0  0
 51123  1  0  0  0
 52124  1  0  0  0
 52125  1  0  0  0
 53 54  1  0  0  0
 54 55  2  0  0  0
 54126  1  0  0  0
 55 57  1  0  0  0
 55127  1  0  0  0
 56 69  2  0  0  0
 57 58  2  0  0  0
 57128  1  0  0  0
 58129  1  0  0  0
 59 60  1  0  0  0
 59 61  1  0  0  0
 59 62  1  0  0  0
 60130  1  0  0  0
 60131  1  0  0  0
 60132  1  0  0  0
 61133  1  0  0  0
 61134  1  0  0  0
 61135  1  0  0  0
 62136  1  0  0  0
 62137  1  0  0  0
 62138  1  0  0  0
 63 65  1  0  0  0
 63139  1  0  0  0
 63140  1  0  0  0
 63141  1  0  0  0
 64142  1  0  0  0
 65143  1  0  0  0
 68 80  1  0  0  0
 71 72  2  0  0  0
 71 74  1  0  0  0
 71144  1  0  0  0
 72 76  1  0  0  0
 72145  1  0  0  0
 73 74  2  0  0  0
 73 75  1  0  0  0
 73146  1  0  0  0
 74 79  1  0  0  0
 75 76  2  0  0  0
 75 80  1  0  0  0
 76 84  1  0  0  0
 77 81  1  0  0  0
 77147  1  0  0  0
 77148  1  0  0  0
 77149  1  0  0  0
 78 82  1  0  0  0
 78150  1  0  0  0
 78151  1  0  0  0
 78152  1  0  0  0
 79 83  1  0  0  0
 79153  1  0  0  0
 79154  1  0  0  0
 80155  1  0  0  0
 80156  1  0  0  0
 81 84  1  0  0  0
 81157  1  0  0  0
 81158  1  0  0  0
 82 84  1  0  0  0
 82159  1  0  0  0
 82160  1  0  0  0
 83161  1  0  0  0
M  ISO  4   1 100  68 101  80 101  83 100
M  END
> <chiral flag>
0

> <version>
0

> <s_m_source_file>
/data/baiqing/PycharmProjects/Reinvent-master-3.2/result/LINK_invent/BTK/process_docking_weight1_custom_product_contain_oxygen_bond_distance_aromatic_linkinvent_7_9_3/rearranged_h_0004.sdf

> <i_m_source_file_index>
28

> <r_mmod_Potential_Energy-OPLS-2005>
1439.54516601562

> <r_mmod_Stretch_Energy-OPLS-2005>
645.425415039062

> <r_mmod_Bend_Energy-OPLS-2005>
465.464141845703

> <r_mmod_Torsional_Energy-OPLS-2005>
273.8583984375

> <r_mmod_Improper_Torsional_Energy-OPLS-2005>
6.42637014389038

> <r_mmod_Van_der_Waal_Energy-OPLS-2005>
117.140777587891

> <r_mmod_Electrostatic_Energy-OPLS-2005>
-387.027465820312

> <r_mmod_Solvation_Energy-OPLS-2005>
-215.689956665039

> <b_mmod_Minimization_Converged-OPLS-2005>
0

> <r_mmod_RMS_Derivative-OPLS-2005>
1.37445855140686

$$$$
28
                    3D
 Structure written by MMmdl.
152160  0  0  1  0            999 V2000
  -30.5144  -14.8981   20.4385 C   0  0  0  0  0  0
  -30.4550  -12.5524   19.4883 C   0  0  0  0  0  0
  -29.5256  -12.5304   18.2506 C   0  0  0  0  0  0
  -28.0549  -12.3225   18.6645 C   0  0  0  0  0  0
  -27.6400  -13.2348   19.8477 C   0  0  2  0  0  0
  -28.6846  -13.2034   20.9850 C   0  0  0  0  0  0
  -25.2507  -13.8185   20.5687 C   0  0  0  0  0  0
  -24.1808  -13.0433   20.9228 C   0  0  0  0  0  0
  -24.6403  -11.6912   20.8756 C   0  0  0  0  0  0
  -23.9077  -10.4290   21.0412 C   0  0  0  0  0  0
  -24.3624   -9.4203   21.9188 C   0  0  0  0  0  0
  -23.6295   -8.2241   22.0756 C   0  0  0  0  0  0
  -22.4277   -8.0282   21.3546 C   0  0  0  0  0  0
  -21.9916   -9.0259   20.4648 C   0  0  0  0  0  0
  -22.7250  -10.2135   20.3059 C   0  0  0  0  0  0
  -21.6853   -6.0737   22.5278 C   0  0  0  0  0  0
  -21.4015   -6.5640   23.8212 C   0  0  0  0  0  0
  -21.3659   -5.6792   24.9174 C   0  0  0  0  0  0
  -21.6044   -4.3055   24.7224 C   0  0  0  0  0  0
  -21.8819   -3.8147   23.4346 C   0  0  0  0  0  0
  -21.9193   -4.6964   22.3402 C   0  0  0  0  0  0
  -22.7828  -13.5217   21.1879 C   0  0  0  0  0  0
  -22.1661   -4.2150   21.0979 F   0  0  0  0  0  0
  -21.5628   -3.4539   25.7737 F   0  0  0  0  0  0
  -29.9712  -13.6186   20.4051 N   0  0  0  0  0  0
  -26.2930  -12.9393   20.3254 N   0  0  0  0  0  0
  -25.9332  -11.6537   20.5740 N   0  0  0  0  0  0
  -22.0470  -12.8209   22.0432 N   0  0  0  0  0  0
  -25.4175  -15.1906   20.4049 N   0  0  0  0  0  0
  -31.7003  -15.0441   20.1205 O   0  0  0  0  0  0
  -21.6639   -6.8880   21.4241 O   0  0  0  0  0  0
  -22.3517  -14.5522   20.6719 O   0  0  0  0  0  0
  -24.6418  -31.8460   23.1900 C   0  0  0  0  0  0
  -25.9198  -32.4706   23.8283 C   0  0  1  0  0  0
  -27.2219  -27.1599   20.1445 C   0  0  0  0  0  0
  -25.5952  -33.8511   24.2201 N   0  0  0  0  0  0
  -23.4442  -30.4663   21.5354 C   0  0  2  0  0  0
  -24.8940  -28.8976   20.1109 C   0  0  0  0  0  0
  -22.7559  -29.4558   22.4869 C   0  0  0  0  0  0
  -18.0304  -28.1394   22.8479 C   0  0  0  0  0  0
  -24.1492  -36.7261   23.2641 C   0  0  0  0  0  0
  -25.9991  -30.7276   21.3852 C   0  0  0  0  0  0
  -26.0715  -29.3413   20.7261 C   0  0  0  0  0  0
  -27.2367  -28.4890   20.7252 C   0  0  0  0  0  0
  -26.0155  -26.8127   19.4945 C   0  0  0  0  0  0
  -24.8777  -27.6457   19.4804 C   0  0  0  0  0  0
  -23.6694  -29.7968   20.1544 C   0  0  0  0  0  0
  -25.4122  -36.3038   24.0317 C   0  0  1  0  0  0
  -20.5915  -28.3719   23.1241 C   0  0  2  0  0  0
  -20.6789  -26.9424   22.5404 C   0  0  0  0  0  0
  -19.5762  -26.6382   21.5213 C   0  0  0  0  0  0
  -18.1944  -26.7933   22.1625 C   0  0  0  0  0  0
  -19.1560  -28.8874   23.2853 C   0  0  0  0  0  0
  -18.9476  -30.1470   23.8878 C   0  0  0  0  0  0
  -17.6473  -30.6590   24.0560 C   0  0  0  0  0  0
  -25.9072  -34.9413   23.5066 C   0  0  0  0  0  0
  -16.5364  -29.9084   23.6334 C   0  0  0  0  0  0
  -16.7289  -28.6502   23.0356 C   0  0  0  0  0  0
  -26.4525  -31.6566   25.0716 C   0  0  0  0  0  0
  -25.3714  -31.3748   26.1413 C   0  0  0  0  0  0
  -27.0390  -30.2966   24.6283 C   0  0  0  0  0  0
  -27.6054  -32.4330   25.7504 C   0  0  0  0  0  0
  -27.5575  -37.1788   24.8465 C   0  0  0  0  0  0
  -21.4253  -29.3048   22.3615 N   0  0  0  0  0  0
  -26.4287  -37.3749   23.9408 N   0  0  0  0  0  0
  -24.7148  -31.0337   22.0923 N   0  0  0  0  0  0
  -23.4211  -28.8105   23.3012 O   0  0  0  0  0  0
  -28.2839  -26.1897   20.2098 O   0  0  0  0  0  0
  -26.5655  -34.8907   22.4643 O   0  0  0  0  0  0
  -23.5542  -32.1326   23.7133 O   0  0  0  0  0  0
  -30.5129  -18.5116   20.3224 C   0  0  0  0  0  0
  -30.2139  -19.9466   20.2560 C   0  0  0  0  0  0
  -28.2286  -18.0763   20.7024 C   0  0  0  0  0  0
  -27.9217  -19.4858   20.6245 C   0  0  0  0  0  0
  -29.5220  -17.4899   20.5496 C   0  0  0  0  0  0
  -28.8953  -20.5157   20.3938 C   0  0  0  0  0  0
  -26.4632  -19.8832   20.8031 C   0  0  0  0  0  0
  -29.0118  -23.3594   20.3296 C   0  0  0  0  0  0
  -27.9900  -24.6730   20.0914 C   0  0  0  0  0  0
  -29.6274  -15.9701   20.6734 N   0  0  0  0  0  0
  -28.4286  -21.9233   20.2955 N   0  0  0  0  0  0
  -31.4867  -12.7253   19.1781 H   0  0  0  0  0  0
  -30.4526  -11.5847   19.9924 H   0  0  0  0  0  0
  -29.8342  -11.7450   17.5592 H   0  0  0  0  0  0
  -29.6213  -13.4712   17.7062 H   0  0  0  0  0  0
  -27.9382  -11.2763   18.9498 H   0  0  0  0  0  0
  -27.3941  -12.4810   17.8116 H   0  0  0  0  0  0
  -27.6197  -14.2481   19.4461 H   0  0  0  0  0  0
  -28.7581  -12.2050   21.4185 H   0  0  0  0  0  0
  -28.3901  -13.8659   21.8006 H   0  0  0  0  0  0
  -25.2769   -9.5675   22.4764 H   0  0  0  0  0  0
  -24.0002   -7.4630   22.7473 H   0  0  0  0  0  0
  -21.0848   -8.8782   19.8953 H   0  0  0  0  0  0
  -22.3712  -10.9677   19.6170 H   0  0  0  0  0  0
  -21.2009   -7.6148   23.9716 H   0  0  0  0  0  0
  -21.1480   -6.0523   25.9077 H   0  0  0  0  0  0
  -22.0598   -2.7610   23.2846 H   0  0  0  0  0  0
  -22.4087  -11.9873   22.4825 H   0  0  0  0  0  0
  -21.1086  -13.1230   22.2631 H   0  0  0  0  0  0
  -24.6342  -15.8295   20.4870 H   0  0  0  0  0  0
  -26.2273  -15.6128   19.9714 H   0  0  0  0  0  0
  -26.7265  -32.5321   23.1015 H   0  0  0  0  0  0
  -25.0080  -33.9628   25.0335 H   0  0  0  0  0  0
  -22.7459  -31.2917   21.3824 H   0  0  0  0  0  0
  -23.3756  -35.9590   23.3293 H   0  0  0  0  0  0
  -24.3578  -36.8902   22.2058 H   0  0  0  0  0  0
  -23.7246  -37.6455   23.6684 H   0  0  0  0  0  0
  -26.1518  -31.4836   20.6138 H   0  0  0  0  0  0
  -26.8706  -30.7773   22.0263 H   0  0  0  0  0  0
  -28.1343  -28.8248   21.2252 H   0  0  0  0  0  0
  -25.9127  -25.8576   19.0036 H   0  0  0  0  0  0
  -23.9787  -27.3003   18.9884 H   0  0  0  0  0  0
  -23.8043  -30.5717   19.3989 H   0  0  0  0  0  0
  -22.7849  -29.2375   19.8442 H   0  0  0  0  0  0
  -25.1309  -36.1867   25.0809 H   0  0  0  0  0  0
  -21.0008  -28.3307   24.1361 H   0  0  0  0  0  0
  -20.5686  -26.2332   23.3621 H   0  0  0  0  0  0
  -21.6656  -26.7434   22.1200 H   0  0  0  0  0  0
  -19.6923  -25.6288   21.1255 H   0  0  0  0  0  0
  -19.6696  -27.3182   20.6734 H   0  0  0  0  0  0
  -17.4212  -26.6677   21.4030 H   0  0  0  0  0  0
  -18.0344  -26.0080   22.9027 H   0  0  0  0  0  0
  -19.7951  -30.7292   24.2241 H   0  0  0  0  0  0
  -17.5025  -31.6268   24.5165 H   0  0  0  0  0  0
  -15.5364  -30.2979   23.7668 H   0  0  0  0  0  0
  -15.8690  -28.0813   22.7083 H   0  0  0  0  0  0
  -24.5902  -30.7086   25.7736 H   0  0  0  0  0  0
  -24.8893  -32.2928   26.4785 H   0  0  0  0  0  0
  -25.8003  -30.8960   27.0225 H   0  0  0  0  0  0
  -26.3004  -29.6689   24.1283 H   0  0  0  0  0  0
  -27.4005  -29.7261   25.4849 H   0  0  0  0  0  0
  -27.8909  -30.4208   23.9595 H   0  0  0  0  0  0
  -27.2644  -33.3647   26.2031 H   0  0  0  0  0  0
  -28.3894  -32.6864   25.0355 H   0  0  0  0  0  0
  -28.0690  -31.8489   26.5465 H   0  0  0  0  0  0
  -28.2585  -38.0091   24.7510 H   0  0  0  0  0  0
  -28.1079  -36.2620   24.6294 H   0  0  0  0  0  0
  -27.2292  -37.1437   25.8868 H   0  0  0  0  0  0
  -20.9461  -29.8761   21.6796 H   0  0  0  0  0  0
  -26.0154  -38.2817   24.1409 H   0  0  0  0  0  0
  -31.5415  -18.2042   20.1970 H   0  0  0  0  0  0
  -31.0390  -20.6205   20.0746 H   0  0  0  0  0  0
  -27.4044  -17.4031   20.8896 H   0  0  0  0  0  0
  -25.8310  -19.0245   21.0302 H   0  0  0  0  0  0
  -26.0785  -20.3444   19.8931 H   0  0  0  0  0  0
  -26.3569  -20.5930   21.6241 H   0  0  0  0  0  0
  -29.4934  -23.4824   21.3004 H   0  0  0  0  0  0
  -29.8174  -23.4113   19.5961 H   0  0  0  0  0  0
  -27.1385  -24.5033   20.7517 H   0  0  0  0  0  0
  -27.6038  -24.5311   19.0824 H   0  0  0  0  0  0
  -28.7386  -15.5686   20.9285 H   0  0  0  0  0  0
  -27.4137  -21.9665   20.3183 H   0  0  0  0  0  0
  1 25  1  0  0  0
  1 30  2  0  0  0
  1 80  1  0  0  0
  2  3  1  0  0  0
  2 25  1  0  0  0
  2 82  1  0  0  0
  2 83  1  0  0  0
  3  4  1  0  0  0
  3 84  1  0  0  0
  3 85  1  0  0  0
  4  5  1  0  0  0
  4 86  1  0  0  0
  4 87  1  0  0  0
  5  6  1  0  0  0
  5 26  1  0  0  0
  5 88  1  0  0  0
  6 25  1  0  0  0
  6 89  1  0  0  0
  6 90  1  0  0  0
  7  8  2  0  0  0
  7 26  1  0  0  0
  7 29  1  0  0  0
  8  9  1  0  0  0
  8 22  1  0  0  0
  9 10  1  0  0  0
  9 27  2  0  0  0
 10 11  2  0  0  0
 10 15  1  0  0  0
 11 12  1  0  0  0
 11 91  1  0  0  0
 12 13  2  0  0  0
 12 92  1  0  0  0
 13 14  1  0  0  0
 13 31  1  0  0  0
 14 15  2  0  0  0
 14 93  1  0  0  0
 15 94  1  0  0  0
 16 17  2  0  0  0
 16 21  1  0  0  0
 16 31  1  0  0  0
 17 18  1  0  0  0
 17 95  1  0  0  0
 18 19  2  0  0  0
 18 96  1  0  0  0
 19 20  1  0  0  0
 19 24  1  0  0  0
 20 21  2  0  0  0
 20 97  1  0  0  0
 21 23  1  0  0  0
 22 28  1  0  0  0
 22 32  2  0  0  0
 26 27  1  0  0  0
 28 98  1  0  0  0
 28 99  1  0  0  0
 29100  1  0  0  0
 29101  1  0  0  0
 33 34  1  0  0  0
 33 66  1  0  0  0
 33 70  2  0  0  0
 34 36  1  0  0  0
 34 59  1  0  0  0
 34102  1  0  0  0
 35 44  2  0  0  0
 35 45  1  0  0  0
 35 68  1  0  0  0
 36 56  1  0  0  0
 36103  1  0  0  0
 37 39  1  0  0  0
 37 47  1  0  0  0
 37 66  1  0  0  0
 37104  1  0  0  0
 38 43  2  0  0  0
 38 46  1  0  0  0
 38 47  1  0  0  0
 39 64  1  0  0  0
 39 67  2  0  0  0
 40 52  1  0  0  0
 40 53  2  0  0  0
 40 58  1  0  0  0
 41105  1  0  0  0
 41106  1  0  0  0
 41107  1  0  0  0
 41 48  1  0  0  0
 42 43  1  0  0  0
 42 66  1  0  0  0
 42108  1  0  0  0
 42109  1  0  0  0
 43 44  1  0  0  0
 44110  1  0  0  0
 45 46  2  0  0  0
 45111  1  0  0  0
 46112  1  0  0  0
 47113  1  0  0  0
 47114  1  0  0  0
 48 56  1  0  0  0
 48 65  1  0  0  0
 48115  1  0  0  0
 49 50  1  0  0  0
 49 53  1  0  0  0
 49 64  1  0  0  0
 49116  1  0  0  0
 50 51  1  0  0  0
 50117  1  0  0  0
 50118  1  0  0  0
 51 52  1  0  0  0
 51119  1  0  0  0
 51120  1  0  0  0
 52121  1  0  0  0
 52122  1  0  0  0
 53 54  1  0  0  0
 54 55  2  0  0  0
 54123  1  0  0  0
 55 57  1  0  0  0
 55124  1  0  0  0
 56 69  2  0  0  0
 57 58  2  0  0  0
 57125  1  0  0  0
 58126  1  0  0  0
 59 60  1  0  0  0
 59 61  1  0  0  0
 59 62  1  0  0  0
 60127  1  0  0  0
 60128  1  0  0  0
 60129  1  0  0  0
 61130  1  0  0  0
 61131  1  0  0  0
 61132  1  0  0  0
 62133  1  0  0  0
 62134  1  0  0  0
 62135  1  0  0  0
 63 65  1  0  0  0
 63136  1  0  0  0
 63137  1  0  0  0
 63138  1  0  0  0
 64139  1  0  0  0
 65140  1  0  0  0
 68 79  1  0  0  0
 71 72  2  0  0  0
 71 75  1  0  0  0
 71141  1  0  0  0
 72 76  1  0  0  0
 72142  1  0  0  0
 73 74  1  0  0  0
 73 75  2  0  0  0
 73143  1  0  0  0
 74 76  2  0  0  0
 74 77  1  0  0  0
 75 80  1  0  0  0
 76 81  1  0  0  0
 77144  1  0  0  0
 77145  1  0  0  0
 77146  1  0  0  0
 78 79  1  0  0  0
 78 81  1  0  0  0
 78147  1  0  0  0
 78148  1  0  0  0
 79149  1  0  0  0
 79150  1  0  0  0
 80151  1  0  0  0
 81152  1  0  0  0
M  ISO  4   1 100  68 101  79 101  80 100
M  END
> <chiral flag>
0

> <version>
0

> <s_m_source_file>
/data/baiqing/PycharmProjects/Reinvent-master-3.2/result/LINK_invent/BTK/process_docking_weight1_custom_product_contain_oxygen_bond_distance_aromatic_linkinvent_7_9_3/rearranged_h_0004.sdf

> <i_m_source_file_index>
29

> <r_mmod_Potential_Energy-OPLS-2005>
379.068420410156

> <r_mmod_Stretch_Energy-OPLS-2005>
203.779541015625

> <r_mmod_Bend_Energy-OPLS-2005>
288.774139404297

> <r_mmod_Torsional_Energy-OPLS-2005>
203.61247253418

> <r_mmod_Improper_Torsional_Energy-OPLS-2005>
4.70212125778198

> <r_mmod_Van_der_Waal_Energy-OPLS-2005>
134.3603515625

> <r_mmod_Electrostatic_Energy-OPLS-2005>
-401.699554443359

> <r_mmod_Solvation_Energy-OPLS-2005>
-219.972503662109

> <b_mmod_Minimization_Converged-OPLS-2005>
0

> <r_mmod_RMS_Derivative-OPLS-2005>
0.17198321223259

$$$$
29
                    3D
 Structure written by MMmdl.
156164  0  0  1  0            999 V2000
  -30.7640  -14.4044   20.6637 C   0  0  0  0  0  0
  -30.4119  -12.3081   19.4034 C   0  0  0  0  0  0
  -29.4823  -12.5268   18.1958 C   0  0  0  0  0  0
  -28.0106  -12.3697   18.6146 C   0  0  0  0  0  0
  -27.6616  -13.2062   19.8726 C   0  0  2  0  0  0
  -28.7007  -12.9827   20.9943 C   0  0  0  0  0  0
  -25.2564  -13.8153   20.5612 C   0  0  0  0  0  0
  -24.1829  -13.0434   20.9174 C   0  0  0  0  0  0
  -24.6390  -11.6906   20.8740 C   0  0  0  0  0  0
  -23.9067  -10.4284   21.0410 C   0  0  0  0  0  0
  -24.3611   -9.4206   21.9192 C   0  0  0  0  0  0
  -23.6281   -8.2251   22.0773 C   0  0  0  0  0  0
  -22.4266   -8.0290   21.3561 C   0  0  0  0  0  0
  -21.9903   -9.0272   20.4669 C   0  0  0  0  0  0
  -22.7241  -10.2138   20.3073 C   0  0  0  0  0  0
  -21.6853   -6.0733   22.5278 C   0  0  0  0  0  0
  -21.4015   -6.5637   23.8215 C   0  0  0  0  0  0
  -21.3663   -5.6795   24.9177 C   0  0  0  0  0  0
  -21.6044   -4.3065   24.7228 C   0  0  0  0  0  0
  -21.8819   -3.8149   23.4355 C   0  0  0  0  0  0
  -21.9193   -4.6958   22.3405 C   0  0  0  0  0  0
  -22.7852  -13.5244   21.1843 C   0  0  0  0  0  0
  -22.1659   -4.2138   21.0988 F   0  0  0  0  0  0
  -21.5622   -3.4551   25.7748 F   0  0  0  0  0  0
  -30.0422  -13.2697   20.4548 N   0  0  0  0  0  0
  -26.3018  -12.9339   20.3323 N   0  0  0  0  0  0
  -25.9317  -11.6493   20.5737 N   0  0  0  0  0  0
  -22.0483  -12.8257   22.0395 N   0  0  0  0  0  0
  -25.4198  -15.1864   20.3896 N   0  0  0  0  0  0
  -31.7948  -14.6673   20.0389 O   0  0  0  0  0  0
  -21.6651   -6.8873   21.4243 O   0  0  0  0  0  0
  -22.3551  -14.5562   20.6705 O   0  0  0  0  0  0
  -24.6159  -31.8703   23.2111 C   0  0  0  0  0  0
  -25.9056  -32.4834   23.8392 C   0  0  1  0  0  0
  -27.2319  -27.4451   20.0852 C   0  0  0  0  0  0
  -25.5923  -33.8628   24.2327 N   0  0  0  0  0  0
  -23.4009  -30.4934   21.5520 C   0  0  2  0  0  0
  -24.8462  -28.9573   20.1173 C   0  0  0  0  0  0
  -22.7419  -29.4653   22.4994 C   0  0  0  0  0  0
  -18.0293  -28.1358   22.8482 C   0  0  0  0  0  0
  -24.1490  -36.7308   23.2633 C   0  0  0  0  0  0
  -25.9310  -30.8355   21.3642 C   0  0  0  0  0  0
  -26.0096  -29.4727   20.7076 C   0  0  0  0  0  0
  -27.2089  -28.7237   20.6863 C   0  0  0  0  0  0
  -26.0552  -26.9368   19.4986 C   0  0  0  0  0  0
  -24.8622  -27.6859   19.5141 C   0  0  0  0  0  0
  -23.6082  -29.8240   20.1677 C   0  0  0  0  0  0
  -25.4111  -36.3109   24.0337 C   0  0  1  0  0  0
  -20.5869  -28.3643   23.1323 C   0  0  2  0  0  0
  -20.6802  -26.9391   22.5392 C   0  0  0  0  0  0
  -19.5750  -26.6334   21.5223 C   0  0  0  0  0  0
  -18.1936  -26.7888   22.1645 C   0  0  0  0  0  0
  -19.1534  -28.8817   23.2909 C   0  0  0  0  0  0
  -18.9451  -30.1421   23.8922 C   0  0  0  0  0  0
  -17.6446  -30.6554   24.0563 C   0  0  0  0  0  0
  -25.9046  -34.9475   23.5117 C   0  0  0  0  0  0
  -16.5339  -29.9049   23.6338 C   0  0  0  0  0  0
  -16.7277  -28.6480   23.0332 C   0  0  0  0  0  0
  -26.4495  -31.6613   25.0723 C   0  0  0  0  0  0
  -25.3751  -31.3730   26.1466 C   0  0  0  0  0  0
  -27.0335  -30.3052   24.6111 C   0  0  0  0  0  0
  -27.6069  -32.4333   25.7497 C   0  0  0  0  0  0
  -27.5586  -37.1802   24.8471 C   0  0  0  0  0  0
  -21.4153  -29.3030   22.3754 N   0  0  0  0  0  0
  -26.4308  -37.3785   23.9413 N   0  0  0  0  0  0
  -24.6668  -31.0812   22.1012 N   0  0  0  0  0  0
  -23.4200  -28.8191   23.3013 O   0  0  0  0  0  0
  -28.3786  -26.6842   20.0741 O   0  0  0  0  0  0
  -26.5586  -34.8928   22.4669 O   0  0  0  0  0  0
  -23.5356  -32.1453   23.7525 O   0  0  0  0  0  0
  -28.1708  -18.1599   21.3546 C   0  0  0  0  0  0
  -30.4409  -18.9085   21.8061 C   0  0  0  0  0  0
  -28.6141  -16.8182   21.3375 C   0  0  0  0  0  0
  -30.8826  -17.5669   21.7966 C   0  0  0  0  0  0
  -29.0760  -19.2177   21.6110 C   0  0  0  0  0  0
  -29.9707  -16.5111   21.5719 C   0  0  0  0  0  0
  -28.5622  -20.6431   21.8610 C   0  0  0  0  0  0
  -28.5983  -24.1768   20.2259 C   0  0  0  0  0  0
  -28.4510  -23.0198   21.2499 C   0  0  0  0  0  0
  -28.3171  -25.5310   20.9254 C   0  0  0  0  0  0
  -30.3986  -15.1620   21.7072 N   0  0  0  0  0  0
  -28.7790  -21.6428   20.7818 N   0  3  0  0  0  0
  -31.4569  -12.4017   19.0994 H   0  0  0  0  0  0
  -30.3062  -11.2890   19.7797 H   0  0  0  0  0  0
  -29.7208  -11.8174   17.4027 H   0  0  0  0  0  0
  -29.6444  -13.5212   17.7771 H   0  0  0  0  0  0
  -27.8291  -11.3111   18.8099 H   0  0  0  0  0  0
  -27.3553  -12.6438   17.7874 H   0  0  0  0  0  0
  -27.7106  -14.2538   19.5791 H   0  0  0  0  0  0
  -28.6620  -11.9487   21.3395 H   0  0  0  0  0  0
  -28.4502  -13.5924   21.8630 H   0  0  0  0  0  0
  -25.2750   -9.5677   22.4768 H   0  0  0  0  0  0
  -23.9992   -7.4637   22.7497 H   0  0  0  0  0  0
  -21.0832   -8.8799   19.8965 H   0  0  0  0  0  0
  -22.3709  -10.9684   19.6187 H   0  0  0  0  0  0
  -21.2006   -7.6142   23.9716 H   0  0  0  0  0  0
  -21.1485   -6.0521   25.9075 H   0  0  0  0  0  0
  -22.0591   -2.7609   23.2865 H   0  0  0  0  0  0
  -22.4079  -11.9919   22.4796 H   0  0  0  0  0  0
  -21.1106  -13.1314   22.2610 H   0  0  0  0  0  0
  -24.6401  -15.8293   20.4694 H   0  0  0  0  0  0
  -26.2484  -15.6132   19.9966 H   0  0  0  0  0  0
  -26.7108  -32.5548   23.1142 H   0  0  0  0  0  0
  -25.0145  -33.9792   25.0516 H   0  0  0  0  0  0
  -22.6875  -31.3092   21.4140 H   0  0  0  0  0  0
  -23.3755  -35.9641   23.3327 H   0  0  0  0  0  0
  -24.3582  -36.8903   22.2045 H   0  0  0  0  0  0
  -23.7256  -37.6522   23.6636 H   0  0  0  0  0  0
  -26.0452  -31.6029   20.5971 H   0  0  0  0  0  0
  -26.8200  -30.8866   21.9832 H   0  0  0  0  0  0
  -28.1094  -29.1136   21.1397 H   0  0  0  0  0  0
  -26.0648  -25.9626   19.0318 H   0  0  0  0  0  0
  -23.9640  -27.2822   19.0645 H   0  0  0  0  0  0
  -23.7163  -30.6016   19.4101 H   0  0  0  0  0  0
  -22.7315  -29.2446   19.8717 H   0  0  0  0  0  0
  -25.1281  -36.1972   25.0831 H   0  0  0  0  0  0
  -20.9954  -28.3214   24.1452 H   0  0  0  0  0  0
  -20.5795  -26.2228   23.3564 H   0  0  0  0  0  0
  -21.6647  -26.7503   22.1105 H   0  0  0  0  0  0
  -19.6938  -25.6232   21.1282 H   0  0  0  0  0  0
  -19.6690  -27.3124   20.6730 H   0  0  0  0  0  0
  -17.4192  -26.6592   21.4059 H   0  0  0  0  0  0
  -18.0373  -26.0064   22.9090 H   0  0  0  0  0  0
  -19.7938  -30.7233   24.2301 H   0  0  0  0  0  0
  -17.5008  -31.6237   24.5166 H   0  0  0  0  0  0
  -15.5347  -30.2931   23.7663 H   0  0  0  0  0  0
  -15.8679  -28.0797   22.7021 H   0  0  0  0  0  0
  -24.5902  -30.7112   25.7808 H   0  0  0  0  0  0
  -24.8965  -32.2890   26.4928 H   0  0  0  0  0  0
  -25.8083  -30.8881   27.0216 H   0  0  0  0  0  0
  -26.2881  -29.6805   24.1176 H   0  0  0  0  0  0
  -27.4128  -29.7313   25.4577 H   0  0  0  0  0  0
  -27.8712  -30.4384   23.9257 H   0  0  0  0  0  0
  -27.2672  -33.3610   26.2110 H   0  0  0  0  0  0
  -28.3859  -32.6923   25.0317 H   0  0  0  0  0  0
  -28.0758  -31.8436   26.5384 H   0  0  0  0  0  0
  -28.2588  -38.0104   24.7493 H   0  0  0  0  0  0
  -28.1071  -36.2621   24.6299 H   0  0  0  0  0  0
  -27.2297  -37.1488   25.8872 H   0  0  0  0  0  0
  -20.9303  -29.8797   21.7033 H   0  0  0  0  0  0
  -26.0196  -38.2868   24.1403 H   0  0  0  0  0  0
  -27.1146  -18.3642   21.2400 H   0  0  0  0  0  0
  -31.1511  -19.6929   22.0306 H   0  0  0  0  0  0
  -27.8923  -16.0248   21.2092 H   0  0  0  0  0  0
  -31.9244  -17.3551   21.9984 H   0  0  0  0  0  0
  -29.0444  -20.9945   22.7743 H   0  0  0  0  0  0
  -27.4970  -20.5988   22.0910 H   0  0  0  0  0  0
  -27.9039  -24.0339   19.3968 H   0  0  0  0  0  0
  -29.6038  -24.1890   19.8064 H   0  0  0  0  0  0
  -27.4252  -23.0210   21.6235 H   0  0  0  0  0  0
  -29.0883  -23.2442   22.1063 H   0  0  0  0  0  0
  -29.0567  -25.6785   21.7144 H   0  0  0  0  0  0
  -27.3571  -25.4652   21.4431 H   0  0  0  0  0  0
  -31.0952  -15.0678   22.4330 H   0  0  0  0  0  0
  -28.2014  -21.3944   19.9954 H   0  0  0  0  0  0
  -29.7421  -21.6078   20.4876 H   0  0  0  0  0  0
  1 25  1  0  0  0
  1 30  2  0  0  0
  1 81  1  0  0  0
  2  3  1  0  0  0
  2 25  1  0  0  0
  2 83  1  0  0  0
  2 84  1  0  0  0
  3  4  1  0  0  0
  3 85  1  0  0  0
  3 86  1  0  0  0
  4  5  1  0  0  0
  4 87  1  0  0  0
  4 88  1  0  0  0
  5  6  1  0  0  0
  5 26  1  0  0  0
  5 89  1  0  0  0
  6 25  1  0  0  0
  6 90  1  0  0  0
  6 91  1  0  0  0
  7  8  2  0  0  0
  7 26  1  0  0  0
  7 29  1  0  0  0
  8  9  1  0  0  0
  8 22  1  0  0  0
  9 10  1  0  0  0
  9 27  2  0  0  0
 10 11  2  0  0  0
 10 15  1  0  0  0
 11 12  1  0  0  0
 11 92  1  0  0  0
 12 13  2  0  0  0
 12 93  1  0  0  0
 13 14  1  0  0  0
 13 31  1  0  0  0
 14 15  2  0  0  0
 14 94  1  0  0  0
 15 95  1  0  0  0
 16 17  2  0  0  0
 16 21  1  0  0  0
 16 31  1  0  0  0
 17 18  1  0  0  0
 17 96  1  0  0  0
 18 19  2  0  0  0
 18 97  1  0  0  0
 19 20  1  0  0  0
 19 24  1  0  0  0
 20 21  2  0  0  0
 20 98  1  0  0  0
 21 23  1  0  0  0
 22 28  1  0  0  0
 22 32  2  0  0  0
 26 27  1  0  0  0
 28 99  1  0  0  0
 28100  1  0  0  0
 29101  1  0  0  0
 29102  1  0  0  0
 33 34  1  0  0  0
 33 66  1  0  0  0
 33 70  2  0  0  0
 34 36  1  0  0  0
 34 59  1  0  0  0
 34103  1  0  0  0
 35 44  2  0  0  0
 35 45  1  0  0  0
 35 68  1  0  0  0
 36 56  1  0  0  0
 36104  1  0  0  0
 37 39  1  0  0  0
 37 47  1  0  0  0
 37 66  1  0  0  0
 37105  1  0  0  0
 38 43  2  0  0  0
 38 46  1  0  0  0
 38 47  1  0  0  0
 39 64  1  0  0  0
 39 67  2  0  0  0
 40 52  1  0  0  0
 40 53  2  0  0  0
 40 58  1  0  0  0
 41106  1  0  0  0
 41107  1  0  0  0
 41108  1  0  0  0
 41 48  1  0  0  0
 42 43  1  0  0  0
 42 66  1  0  0  0
 42109  1  0  0  0
 42110  1  0  0  0
 43 44  1  0  0  0
 44111  1  0  0  0
 45 46  2  0  0  0
 45112  1  0  0  0
 46113  1  0  0  0
 47114  1  0  0  0
 47115  1  0  0  0
 48 56  1  0  0  0
 48 65  1  0  0  0
 48116  1  0  0  0
 49 50  1  0  0  0
 49 53  1  0  0  0
 49 64  1  0  0  0
 49117  1  0  0  0
 50 51  1  0  0  0
 50118  1  0  0  0
 50119  1  0  0  0
 51 52  1  0  0  0
 51120  1  0  0  0
 51121  1  0  0  0
 52122  1  0  0  0
 52123  1  0  0  0
 53 54  1  0  0  0
 54 55  2  0  0  0
 54124  1  0  0  0
 55 57  1  0  0  0
 55125  1  0  0  0
 56 69  2  0  0  0
 57 58  2  0  0  0
 57126  1  0  0  0
 58127  1  0  0  0
 59 60  1  0  0  0
 59 61  1  0  0  0
 59 62  1  0  0  0
 60128  1  0  0  0
 60129  1  0  0  0
 60130  1  0  0  0
 61131  1  0  0  0
 61132  1  0  0  0
 61133  1  0  0  0
 62134  1  0  0  0
 62135  1  0  0  0
 62136  1  0  0  0
 63 65  1  0  0  0
 63137  1  0  0  0
 63138  1  0  0  0
 63139  1  0  0  0
 64140  1  0  0  0
 65141  1  0  0  0
 68 80  1  0  0  0
 71 73  2  0  0  0
 71 75  1  0  0  0
 71142  1  0  0  0
 72 74  1  0  0  0
 72 75  2  0  0  0
 72143  1  0  0  0
 73 76  1  0  0  0
 73144  1  0  0  0
 74 76  2  0  0  0
 74145  1  0  0  0
 75 77  1  0  0  0
 76 81  1  0  0  0
 77 82  1  0  0  0
 77146  1  0  0  0
 77147  1  0  0  0
 78 79  1  0  0  0
 78 80  1  0  0  0
 78148  1  0  0  0
 78149  1  0  0  0
 79 82  1  0  0  0
 79150  1  0  0  0
 79151  1  0  0  0
 80152  1  0  0  0
 80153  1  0  0  0
 81154  1  0  0  0
 82155  1  0  0  0
 82156  1  0  0  0
M  CHG  1  82   1
M  ISO  4   1 100  68 101  80 101  81 100
M  END
> <chiral flag>
0

> <version>
0

> <s_m_source_file>
/data/baiqing/PycharmProjects/Reinvent-master-3.2/result/LINK_invent/BTK/process_docking_weight1_custom_product_contain_oxygen_bond_distance_aromatic_linkinvent_7_9_3/rearranged_h_0004.sdf

> <i_m_source_file_index>
30

> <r_mmod_Potential_Energy-OPLS-2005>
-196.190368652344

> <r_mmod_Stretch_Energy-OPLS-2005>
35.6467056274414

> <r_mmod_Bend_Energy-OPLS-2005>
100.445503234863

> <r_mmod_Torsional_Energy-OPLS-2005>
287.154571533203

> <r_mmod_Improper_Torsional_Energy-OPLS-2005>
9.43102264404297

> <r_mmod_Van_der_Waal_Energy-OPLS-2005>
140.592468261719

> <r_mmod_Electrostatic_Energy-OPLS-2005>
-302.904388427734

> <r_mmod_Solvation_Energy-OPLS-2005>
-475.400085449219

> <b_mmod_Minimization_Converged-OPLS-2005>
0

> <r_mmod_RMS_Derivative-OPLS-2005>
2.99270963668823

$$$$
30
                    3D
 Structure written by MMmdl.
203212  0  0  1  0            999 V2000
  -30.6837  -14.4348   20.5365 C   0  0  0  0  0  0
  -30.4174  -12.2695   19.4315 C   0  0  0  0  0  0
  -29.4936  -12.4962   18.2141 C   0  0  0  0  0  0
  -28.0126  -12.3603   18.6207 C   0  0  0  0  0  0
  -27.6604  -13.1942   19.8810 C   0  0  2  0  0  0
  -28.7002  -12.9672   21.0065 C   0  0  0  0  0  0
  -25.2596  -13.8119   20.5643 C   0  0  0  0  0  0
  -24.1830  -13.0420   20.9152 C   0  0  0  0  0  0
  -24.6365  -11.6873   20.8729 C   0  0  0  0  0  0
  -23.9019  -10.4276   21.0399 C   0  0  0  0  0  0
  -24.3589   -9.4202   21.9168 C   0  0  0  0  0  0
  -23.6275   -8.2239   22.0728 C   0  0  0  0  0  0
  -22.4270   -8.0276   21.3515 C   0  0  0  0  0  0
  -21.9879   -9.0243   20.4629 C   0  0  0  0  0  0
  -22.7202  -10.2123   20.3044 C   0  0  0  0  0  0
  -21.6861   -6.0728   22.5258 C   0  0  0  0  0  0
  -21.4033   -6.5630   23.8192 C   0  0  0  0  0  0
  -21.3654   -5.6785   24.9153 C   0  0  0  0  0  0
  -21.6053   -4.3046   24.7210 C   0  0  0  0  0  0
  -21.8839   -3.8136   23.4334 C   0  0  0  0  0  0
  -21.9205   -4.6954   22.3395 C   0  0  0  0  0  0
  -22.7878  -13.5236   21.1847 C   0  0  0  0  0  0
  -22.1671   -4.2138   21.0973 F   0  0  0  0  0  0
  -21.5620   -3.4534   25.7719 F   0  0  0  0  0  0
  -30.0370  -13.2462   20.4583 N   0  0  0  0  0  0
  -26.3007  -12.9251   20.3374 N   0  0  0  0  0  0
  -25.9294  -11.6426   20.5783 N   0  0  0  0  0  0
  -22.0545  -12.8205   22.0408 N   0  0  0  0  0  0
  -25.4348  -15.1830   20.4028 N   0  0  0  0  0  0
  -31.8399  -14.6135   20.1502 O   0  0  0  0  0  0
  -21.6645   -6.8876   21.4223 O   0  0  0  0  0  0
  -22.3560  -14.5556   20.6730 O   0  0  0  0  0  0
  -24.6130  -31.8712   23.2128 C   0  0  0  0  0  0
  -25.9031  -32.4838   23.8424 C   0  0  1  0  0  0
  -27.2338  -27.4627   20.0797 C   0  0  0  0  0  0
  -25.5896  -33.8638   24.2354 N   0  0  0  0  0  0
  -23.3992  -30.4953   21.5539 C   0  0  2  0  0  0
  -24.8452  -28.9655   20.1149 C   0  0  0  0  0  0
  -22.7404  -29.4673   22.5011 C   0  0  0  0  0  0
  -18.0274  -28.1373   22.8494 C   0  0  0  0  0  0
  -24.1486  -36.7318   23.2637 C   0  0  0  0  0  0
  -25.9264  -30.8429   21.3630 C   0  0  0  0  0  0
  -26.0060  -29.4811   20.7073 C   0  0  0  0  0  0
  -27.2071  -28.7373   20.6875 C   0  0  0  0  0  0
  -26.0605  -26.9591   19.4796 C   0  0  0  0  0  0
  -24.8652  -27.7012   19.5010 C   0  0  0  0  0  0
  -23.6050  -29.8286   20.1682 C   0  0  0  0  0  0
  -25.4106  -36.3122   24.0344 C   0  0  1  0  0  0
  -20.5862  -28.3653   23.1329 C   0  0  2  0  0  0
  -20.6764  -26.9393   22.5419 C   0  0  0  0  0  0
  -19.5739  -26.6383   21.5216 C   0  0  0  0  0  0
  -18.1920  -26.7925   22.1624 C   0  0  0  0  0  0
  -19.1525  -28.8833   23.2906 C   0  0  0  0  0  0
  -18.9448  -30.1441   23.8917 C   0  0  0  0  0  0
  -17.6451  -30.6581   24.0567 C   0  0  0  0  0  0
  -25.9032  -34.9482   23.5147 C   0  0  0  0  0  0
  -16.5342  -29.9084   23.6322 C   0  0  0  0  0  0
  -16.7267  -28.6496   23.0351 C   0  0  0  0  0  0
  -26.4464  -31.6606   25.0740 C   0  0  0  0  0  0
  -25.3741  -31.3699   26.1495 C   0  0  0  0  0  0
  -27.0284  -30.3054   24.6094 C   0  0  0  0  0  0
  -27.6061  -32.4309   25.7486 C   0  0  0  0  0  0
  -27.5585  -37.1812   24.8465 C   0  0  0  0  0  0
  -21.4136  -29.3032   22.3745 N   0  0  0  0  0  0
  -26.4294  -37.3802   23.9416 N   0  0  0  0  0  0
  -24.6644  -31.0833   22.1020 N   0  0  0  0  0  0
  -23.4185  -28.8229   23.3056 O   0  0  0  0  0  0
  -28.3808  -26.7061   20.0660 O   0  0  0  0  0  0
  -26.5580  -34.8928   22.4700 O   0  0  0  0  0  0
  -23.5329  -32.1454   23.7533 O   0  0  0  0  0  0
  -35.2083  -16.8418   11.2243 C   0  0  0  0  0  0
  -33.9510  -17.4660   11.3213 C   0  0  0  0  0  0
  -30.1770  -22.2384   21.1800 C   0  0  0  0  0  0
  -31.0007  -23.3899   19.2049 C   0  0  0  0  0  0
  -35.4710  -15.6729   11.9625 C   0  0  0  0  0  0
  -29.2909  -23.3027   21.4310 C   0  0  0  0  0  0
  -30.1146  -24.4615   19.4582 C   0  0  0  0  0  0
  -33.2133  -15.7450   12.8846 C   0  0  0  0  0  0
  -31.0475  -22.2698   20.0691 C   0  0  0  0  0  0
  -32.9488  -16.9315   12.1609 C   0  0  0  0  0  0
  -29.2596  -24.4266   20.5823 C   0  0  0  0  0  0
  -34.4763  -15.1153   12.7942 C   0  0  0  0  0  0
  -31.9848  -21.1372   19.8655 C   0  0  0  0  0  0
  -31.6181  -17.6189   12.2580 C   0  0  0  0  0  0
  -34.7800  -13.8566   13.5975 C   0  0  0  0  0  0
  -28.2821  -25.5503   20.9024 C   0  0  0  0  0  0
  -33.9447  -17.5105   17.9874 C   0  0  0  0  0  0
  -29.8321  -17.5941   16.2465 C   0  0  0  0  0  0
  -29.8037  -17.9079   17.7539 C   0  0  0  0  0  0
  -33.9212  -16.5976   16.7514 C   0  0  0  0  0  0
  -33.6289  -18.9912   17.6979 C   0  0  0  0  0  0
  -29.9083  -18.8358   15.3445 C   0  0  0  0  0  0
  -29.7737  -16.6067   18.5617 C   0  0  0  0  0  0
  -34.1550  -15.1189   17.1228 C   0  0  0  0  0  0
  -33.7179  -19.8484   18.9773 C   0  0  0  0  0  0
  -29.9166  -18.4809   13.8468 C   0  0  0  0  0  0
  -29.9981  -16.7690   20.0791 C   0  0  0  0  0  0
  -33.9940  -14.1433   15.9448 C   0  0  0  0  0  0
  -32.8312  -21.0089   18.9186 N   0  0  0  0  0  0
  -31.1182  -17.7316   13.4929 N   0  0  0  0  0  0
  -29.8583  -15.4711   20.7448 N   0  0  0  0  0  0
  -35.1224  -14.2024   14.9896 N   0  3  0  0  0  0
  -31.0798  -18.1061   11.2611 O   0  0  0  0  0  0
  -31.4658  -12.3597   19.1390 H   0  0  0  0  0  0
  -30.3006  -11.2574   19.8206 H   0  0  0  0  0  0
  -29.7251  -11.7825   17.4225 H   0  0  0  0  0  0
  -29.6718  -13.4891   17.7971 H   0  0  0  0  0  0
  -27.8157  -11.3054   18.8105 H   0  0  0  0  0  0
  -27.3661  -12.6459   17.7904 H   0  0  0  0  0  0
  -27.7025  -14.2393   19.5795 H   0  0  0  0  0  0
  -28.6601  -11.9378   21.3647 H   0  0  0  0  0  0
  -28.4770  -13.5880   21.8766 H   0  0  0  0  0  0
  -25.2744   -9.5674   22.4722 H   0  0  0  0  0  0
  -23.9991   -7.4631   22.7442 H   0  0  0  0  0  0
  -21.0801   -8.8776   19.8929 H   0  0  0  0  0  0
  -22.3669  -10.9667   19.6148 H   0  0  0  0  0  0
  -21.2039   -7.6137   23.9684 H   0  0  0  0  0  0
  -21.1448   -6.0508   25.9049 H   0  0  0  0  0  0
  -22.0618   -2.7596   23.2829 H   0  0  0  0  0  0
  -22.4195  -11.9850   22.4740 H   0  0  0  0  0  0
  -21.1178  -13.1205   22.2709 H   0  0  0  0  0  0
  -24.6681  -15.8388   20.5127 H   0  0  0  0  0  0
  -26.2871  -15.6174   20.0701 H   0  0  0  0  0  0
  -26.7107  -32.5559   23.1197 H   0  0  0  0  0  0
  -25.0076  -33.9811   25.0518 H   0  0  0  0  0  0
  -22.6866  -31.3112   21.4177 H   0  0  0  0  0  0
  -23.3746  -35.9652   23.3309 H   0  0  0  0  0  0
  -24.3588  -36.8920   22.2050 H   0  0  0  0  0  0
  -23.7236  -37.6529   23.6638 H   0  0  0  0  0  0
  -26.0374  -31.6120   20.5977 H   0  0  0  0  0  0
  -26.8142  -30.8948   21.9814 H   0  0  0  0  0  0
  -28.1048  -29.1303   21.1444 H   0  0  0  0  0  0
  -26.0706  -25.9905   19.0007 H   0  0  0  0  0  0
  -23.9742  -27.2995   19.0391 H   0  0  0  0  0  0
  -23.7072  -30.6045   19.4082 H   0  0  0  0  0  0
  -22.7292  -29.2463   19.8747 H   0  0  0  0  0  0
  -25.1277  -36.2000   25.0837 H   0  0  0  0  0  0
  -20.9952  -28.3214   24.1451 H   0  0  0  0  0  0
  -20.5675  -26.2265   23.3606 H   0  0  0  0  0  0
  -21.6639  -26.7449   22.1213 H   0  0  0  0  0  0
  -19.6905  -25.6300   21.1236 H   0  0  0  0  0  0
  -19.6686  -27.3205   20.6756 H   0  0  0  0  0  0
  -17.4199  -26.6687   21.4015 H   0  0  0  0  0  0
  -18.0307  -26.0058   22.9009 H   0  0  0  0  0  0
  -19.7927  -30.7246   24.2302 H   0  0  0  0  0  0
  -17.5010  -31.6269   24.5152 H   0  0  0  0  0  0
  -15.5345  -30.2992   23.7636 H   0  0  0  0  0  0
  -15.8665  -28.0820   22.7061 H   0  0  0  0  0  0
  -24.5925  -30.7027   25.7836 H   0  0  0  0  0  0
  -24.8908  -32.2843   26.4951 H   0  0  0  0  0  0
  -25.8106  -30.8873   27.0250 H   0  0  0  0  0  0
  -26.2820  -29.6832   24.1140 H   0  0  0  0  0  0
  -27.4056  -29.7273   25.4540 H   0  0  0  0  0  0
  -27.8657  -30.4380   23.9236 H   0  0  0  0  0  0
  -27.2709  -33.3605   26.2102 H   0  0  0  0  0  0
  -28.3846  -32.6880   25.0288 H   0  0  0  0  0  0
  -28.0759  -31.8408   26.5367 H   0  0  0  0  0  0
  -28.2603  -38.0107   24.7520 H   0  0  0  0  0  0
  -28.1078  -36.2644   24.6275 H   0  0  0  0  0  0
  -27.2307  -37.1446   25.8867 H   0  0  0  0  0  0
  -20.9297  -29.8746   21.6963 H   0  0  0  0  0  0
  -26.0188  -38.2885   24.1415 H   0  0  0  0  0  0
  -35.9728  -17.2617   10.5855 H   0  0  0  0  0  0
  -33.7597  -18.3705   10.7584 H   0  0  0  0  0  0
  -30.1851  -21.3940   21.8559 H   0  0  0  0  0  0
  -31.6554  -23.4314   18.3466 H   0  0  0  0  0  0
  -36.4426  -15.2058   11.8822 H   0  0  0  0  0  0
  -28.6323  -23.2562   22.2879 H   0  0  0  0  0  0
  -30.0966  -25.3091   18.7879 H   0  0  0  0  0  0
  -32.4386  -15.3183   13.5062 H   0  0  0  0  0  0
  -31.9200  -20.3678   20.6415 H   0  0  0  0  0  0
  -35.6346  -13.3485   13.1500 H   0  0  0  0  0  0
  -33.9522  -13.1487   13.5495 H   0  0  0  0  0  0
  -28.4547  -25.8703   21.9301 H   0  0  0  0  0  0
  -27.2826  -25.1138   20.8829 H   0  0  0  0  0  0
  -34.9204  -17.4364   18.4707 H   0  0  0  0  0  0
  -33.2155  -17.1352   18.7087 H   0  0  0  0  0  0
  -28.9430  -17.0206   15.9874 H   0  0  0  0  0  0
  -30.6755  -16.9381   16.0338 H   0  0  0  0  0  0
  -28.9320  -18.5161   18.0020 H   0  0  0  0  0  0
  -30.6732  -18.4963   18.0407 H   0  0  0  0  0  0
  -34.6680  -16.9338   16.0322 H   0  0  0  0  0  0
  -32.9544  -16.6965   16.2567 H   0  0  0  0  0  0
  -32.6362  -19.0631   17.2568 H   0  0  0  0  0  0
  -34.3132  -19.3817   16.9434 H   0  0  0  0  0  0
  -30.7955  -19.4244   15.5843 H   0  0  0  0  0  0
  -29.0510  -19.4805   15.5487 H   0  0  0  0  0  0
  -30.5433  -15.9436   18.1655 H   0  0  0  0  0  0
  -28.8196  -16.1099   18.3827 H   0  0  0  0  0  0
  -33.4212  -14.8385   17.8795 H   0  0  0  0  0  0
  -35.1289  -14.9879   17.5966 H   0  0  0  0  0  0
  -34.7509  -20.1804   19.1128 H   0  0  0  0  0  0
  -33.5180  -19.2123   19.8436 H   0  0  0  0  0  0
  -29.8589  -19.3969   13.2560 H   0  0  0  0  0  0
  -29.0328  -17.8928   13.5922 H   0  0  0  0  0  0
  -29.2620  -17.4603   20.4915 H   0  0  0  0  0  0
  -30.9799  -17.2004   20.2851 H   0  0  0  0  0  0
  -33.0443  -14.3434   15.4490 H   0  0  0  0  0  0
  -33.9275  -13.1193   16.3166 H   0  0  0  0  0  0
  -31.6554  -17.3305   14.2471 H   0  0  0  0  0  0
  -28.9353  -15.2358   21.0772 H   0  0  0  0  0  0
  -35.5288  -15.1213   14.9798 H   0  0  0  0  0  0
  -35.8325  -13.5599   15.3036 H   0  0  0  0  0  0
  1 25  1  0  0  0
  1 30  2  0  0  0
  1101  1  0  0  0
  2  3  1  0  0  0
  2 25  1  0  0  0
  2104  1  0  0  0
  2105  1  0  0  0
  3  4  1  0  0  0
  3106  1  0  0  0
  3107  1  0  0  0
  4  5  1  0  0  0
  4108  1  0  0  0
  4109  1  0  0  0
  5  6  1  0  0  0
  5 26  1  0  0  0
  5110  1  0  0  0
  6 25  1  0  0  0
  6111  1  0  0  0
  6112  1  0  0  0
  7  8  2  0  0  0
  7 26  1  0  0  0
  7 29  1  0  0  0
  8  9  1  0  0  0
  8 22  1  0  0  0
  9 10  1  0  0  0
  9 27  2  0  0  0
 10 11  2  0  0  0
 10 15  1  0  0  0
 11 12  1  0  0  0
 11113  1  0  0  0
 12 13  2  0  0  0
 12114  1  0  0  0
 13 14  1  0  0  0
 13 31  1  0  0  0
 14 15  2  0  0  0
 14115  1  0  0  0
 15116  1  0  0  0
 16 17  2  0  0  0
 16 21  1  0  0  0
 16 31  1  0  0  0
 17 18  1  0  0  0
 17117  1  0  0  0
 18 19  2  0  0  0
 18118  1  0  0  0
 19 20  1  0  0  0
 19 24  1  0  0  0
 20 21  2  0  0  0
 20119  1  0  0  0
 21 23  1  0  0  0
 22 28  1  0  0  0
 22 32  2  0  0  0
 26 27  1  0  0  0
 28120  1  0  0  0
 28121  1  0  0  0
 29122  1  0  0  0
 29123  1  0  0  0
 33 34  1  0  0  0
 33 66  1  0  0  0
 33 70  2  0  0  0
 34 36  1  0  0  0
 34 59  1  0  0  0
 34124  1  0  0  0
 35 44  2  0  0  0
 35 45  1  0  0  0
 35 68  1  0  0  0
 36 56  1  0  0  0
 36125  1  0  0  0
 37 39  1  0  0  0
 37 47  1  0  0  0
 37 66  1  0  0  0
 37126  1  0  0  0
 38 43  2  0  0  0
 38 46  1  0  0  0
 38 47  1  0  0  0
 39 64  1  0  0  0
 39 67  2  0  0  0
 40 52  1  0  0  0
 40 53  2  0  0  0
 40 58  1  0  0  0
 41127  1  0  0  0
 41128  1  0  0  0
 41129  1  0  0  0
 41 48  1  0  0  0
 42 43  1  0  0  0
 42 66  1  0  0  0
 42130  1  0  0  0
 42131  1  0  0  0
 43 44  1  0  0  0
 44132  1  0  0  0
 45 46  2  0  0  0
 45133  1  0  0  0
 46134  1  0  0  0
 47135  1  0  0  0
 47136  1  0  0  0
 48 56  1  0  0  0
 48 65  1  0  0  0
 48137  1  0  0  0
 49 50  1  0  0  0
 49 53  1  0  0  0
 49 64  1  0  0  0
 49138  1  0  0  0
 50 51  1  0  0  0
 50139  1  0  0  0
 50140  1  0  0  0
 51 52  1  0  0  0
 51141  1  0  0  0
 51142  1  0  0  0
 52143  1  0  0  0
 52144  1  0  0  0
 53 54  1  0  0  0
 54 55  2  0  0  0
 54145  1  0  0  0
 55 57  1  0  0  0
 55146  1  0  0  0
 56 69  2  0  0  0
 57 58  2  0  0  0
 57147  1  0  0  0
 58148  1  0  0  0
 59 60  1  0  0  0
 59 61  1  0  0  0
 59 62  1  0  0  0
 60149  1  0  0  0
 60150  1  0  0  0
 60151  1  0  0  0
 61152  1  0  0  0
 61153  1  0  0  0
 61154  1  0  0  0
 62155  1  0  0  0
 62156  1  0  0  0
 62157  1  0  0  0
 63 65  1  0  0  0
 63158  1  0  0  0
 63159  1  0  0  0
 63160  1  0  0  0
 64161  1  0  0  0
 65162  1  0  0  0
 68 86  1  0  0  0
 71 72  2  0  0  0
 71 75  1  0  0  0
 71163  1  0  0  0
 72 80  1  0  0  0
 72164  1  0  0  0
 73 76  2  0  0  0
 73 79  1  0  0  0
 73165  1  0  0  0
 74 77  1  0  0  0
 74 79  2  0  0  0
 74166  1  0  0  0
 75 82  2  0  0  0
 75167  1  0  0  0
 76 81  1  0  0  0
 76168  1  0  0  0
 77 81  2  0  0  0
 77169  1  0  0  0
 78 80  2  0  0  0
 78 82  1  0  0  0
 78170  1  0  0  0
 79 83  1  0  0  0
 80 84  1  0  0  0
 81 86  1  0  0  0
 82 85  1  0  0  0
 83 99  2  0  0  0
 83171  1  0  0  0
 84100  1  0  0  0
 84103  2  0  0  0
 85102  1  0  0  0
 85172  1  0  0  0
 85173  1  0  0  0
 86174  1  0  0  0
 86175  1  0  0  0
 87 90  1  0  0  0
 87 91  1  0  0  0
 87176  1  0  0  0
 87177  1  0  0  0
 88 89  1  0  0  0
 88 92  1  0  0  0
 88178  1  0  0  0
 88179  1  0  0  0
 89 93  1  0  0  0
 89180  1  0  0  0
 89181  1  0  0  0
 90 94  1  0  0  0
 90182  1  0  0  0
 90183  1  0  0  0
 91 95  1  0  0  0
 91184  1  0  0  0
 91185  1  0  0  0
 92 96  1  0  0  0
 92186  1  0  0  0
 92187  1  0  0  0
 93 97  1  0  0  0
 93188  1  0  0  0
 93189  1  0  0  0
 94 98  1  0  0  0
 94190  1  0  0  0
 94191  1  0  0  0
 95 99  1  0  0  0
 95192  1  0  0  0
 95193  1  0  0  0
 96100  1  0  0  0
 96194  1  0  0  0
 96195  1  0  0  0
 97101  1  0  0  0
 97196  1  0  0  0
 97197  1  0  0  0
 98102  1  0  0  0
 98198  1  0  0  0
 98199  1  0  0  0
100200  1  0  0  0
101201  1  0  0  0
102202  1  0  0  0
102203  1  0  0  0
M  CHG  1 102   1
M  ISO  4   1 100  68 101  86 101 101 100
M  END
> <chiral flag>
0

> <version>
0

> <s_m_source_file>
/data/baiqing/PycharmProjects/Reinvent-master-3.2/result/LINK_invent/BTK/process_docking_weight1_custom_product_contain_oxygen_bond_distance_aromatic_linkinvent_7_9_3/rearranged_h_0004.sdf

> <i_m_source_file_index>
31

> <r_mmod_Potential_Energy-OPLS-2005>
-253.665832519531

> <r_mmod_Stretch_Energy-OPLS-2005>
36.3456077575684

> <r_mmod_Bend_Energy-OPLS-2005>
94.3313369750977

> <r_mmod_Torsional_Energy-OPLS-2005>
275.936309814453

> <r_mmod_Improper_Torsional_Energy-OPLS-2005>
10.7036323547363

> <r_mmod_Van_der_Waal_Energy-OPLS-2005>
149.123306274414

> <r_mmod_Electrostatic_Energy-OPLS-2005>
-332.866424560547

> <r_mmod_Solvation_Energy-OPLS-2005>
-499.252593994141

> <b_mmod_Minimization_Converged-OPLS-2005>
0

> <r_mmod_RMS_Derivative-OPLS-2005>
2.83831334114075

$$$$
31
                    3D
 Structure written by MMmdl.
174182  0  0  1  0            999 V2000
  -30.6584  -14.5063   20.5219 C   0  0  0  0  0  0
  -30.4252  -12.3098   19.4260 C   0  0  0  0  0  0
  -29.4938  -12.5017   18.2115 C   0  0  0  0  0  0
  -28.0138  -12.3547   18.6220 C   0  0  0  0  0  0
  -27.6551  -13.1863   19.8837 C   0  0  2  0  0  0
  -28.7052  -12.9846   20.9999 C   0  0  0  0  0  0
  -25.2535  -13.8025   20.5724 C   0  0  0  0  0  0
  -24.1732  -13.0332   20.9064 C   0  0  0  0  0  0
  -24.6301  -11.6815   20.8678 C   0  0  0  0  0  0
  -23.8969  -10.4240   21.0370 C   0  0  0  0  0  0
  -24.3563   -9.4182   21.9154 C   0  0  0  0  0  0
  -23.6264   -8.2205   22.0722 C   0  0  0  0  0  0
  -22.4233   -8.0247   21.3530 C   0  0  0  0  0  0
  -21.9849   -9.0190   20.4614 C   0  0  0  0  0  0
  -22.7148  -10.2075   20.3023 C   0  0  0  0  0  0
  -21.6836   -6.0706   22.5273 C   0  0  0  0  0  0
  -21.4010   -6.5616   23.8210 C   0  0  0  0  0  0
  -21.3674   -5.6774   24.9175 C   0  0  0  0  0  0
  -21.6062   -4.3038   24.7225 C   0  0  0  0  0  0
  -21.8815   -3.8120   23.4345 C   0  0  0  0  0  0
  -21.9193   -4.6934   22.3403 C   0  0  0  0  0  0
  -22.7796  -13.5174   21.1799 C   0  0  0  0  0  0
  -22.1652   -4.2115   21.0980 F   0  0  0  0  0  0
  -21.5643   -3.4529   25.7740 F   0  0  0  0  0  0
  -30.0302  -13.3036   20.4338 N   0  0  0  0  0  0
  -26.2972  -12.9180   20.3475 N   0  0  0  0  0  0
  -25.9250  -11.6361   20.5815 N   0  0  0  0  0  0
  -22.0439  -12.8182   22.0383 N   0  0  0  0  0  0
  -25.4346  -15.1739   20.4413 N   0  0  0  0  0  0
  -31.8165  -14.6908   20.1245 O   0  0  0  0  0  0
  -21.6618   -6.8834   21.4224 O   0  0  0  0  0  0
  -22.3584  -14.5562   20.6731 O   0  0  0  0  0  0
  -24.6161  -31.8684   23.2145 C   0  0  0  0  0  0
  -25.9062  -32.4825   23.8391 C   0  0  1  0  0  0
  -27.2265  -27.4545   20.0581 C   0  0  0  0  0  0
  -25.5937  -33.8614   24.2335 N   0  0  0  0  0  0
  -23.3987  -30.5008   21.5533 C   0  0  2  0  0  0
  -24.8354  -28.9724   20.1133 C   0  0  0  0  0  0
  -22.7410  -29.4688   22.4986 C   0  0  0  0  0  0
  -18.0277  -28.1392   22.8501 C   0  0  0  0  0  0
  -24.1474  -36.7304   23.2642 C   0  0  0  0  0  0
  -25.9271  -30.8377   21.3639 C   0  0  0  0  0  0
  -25.9996  -29.4747   20.7092 C   0  0  0  0  0  0
  -27.1956  -28.7219   20.6797 C   0  0  0  0  0  0
  -26.0331  -26.9662   19.4652 C   0  0  0  0  0  0
  -24.8456  -27.7157   19.4932 C   0  0  0  0  0  0
  -23.6015  -29.8422   20.1643 C   0  0  0  0  0  0
  -25.4094  -36.3103   24.0349 C   0  0  1  0  0  0
  -20.5874  -28.3693   23.1309 C   0  0  2  0  0  0
  -20.6769  -26.9434   22.5404 C   0  0  0  0  0  0
  -19.5732  -26.6408   21.5209 C   0  0  0  0  0  0
  -18.1917  -26.7948   22.1633 C   0  0  0  0  0  0
  -19.1533  -28.8853   23.2904 C   0  0  0  0  0  0
  -18.9464  -30.1457   23.8915 C   0  0  0  0  0  0
  -17.6470  -30.6602   24.0584 C   0  0  0  0  0  0
  -25.9028  -34.9474   23.5133 C   0  0  0  0  0  0
  -16.5352  -29.9120   23.6329 C   0  0  0  0  0  0
  -16.7269  -28.6533   23.0352 C   0  0  0  0  0  0
  -26.4494  -31.6604   25.0703 C   0  0  0  0  0  0
  -25.3771  -31.3717   26.1467 C   0  0  0  0  0  0
  -27.0322  -30.3044   24.6054 C   0  0  0  0  0  0
  -27.6067  -32.4337   25.7465 C   0  0  0  0  0  0
  -27.5569  -37.1798   24.8479 C   0  0  0  0  0  0
  -21.4143  -29.3056   22.3718 N   0  0  0  0  0  0
  -26.4277  -37.3793   23.9434 N   0  0  0  0  0  0
  -24.6665  -31.0825   22.1034 N   0  0  0  0  0  0
  -23.4198  -28.8217   23.3009 O   0  0  0  0  0  0
  -28.4148  -26.7446   20.0392 O   0  0  0  0  0  0
  -26.5585  -34.8938   22.4688 O   0  0  0  0  0  0
  -23.5360  -32.1435   23.7554 O   0  0  0  0  0  0
  -29.2132  -19.2262   20.6415 C   0  0  0  0  0  0
  -31.2463  -17.4760   21.4281 C   0  0  0  0  0  0
  -30.3680  -19.7515   21.2502 C   0  0  0  0  0  0
  -29.0535  -17.8440   20.3962 C   0  0  0  0  0  0
  -31.4068  -18.8660   21.6288 C   0  0  0  0  0  0
  -30.0673  -16.9413   20.8461 C   0  0  0  0  0  0
  -32.6538  -19.3662   22.3411 C   0  0  0  0  0  0
  -26.2030  -19.1213   18.8021 C   0  0  0  0  0  0
  -28.3041  -18.6260   17.5935 C   0  0  0  0  0  0
  -31.6959  -22.5138   19.8898 C   0  0  0  0  0  0
  -30.3769  -21.2487   21.5641 C   0  0  0  0  0  0
  -27.7616  -17.3640   19.7092 C   0  0  0  0  0  0
  -29.6285  -24.5671   19.8845 C   0  0  0  0  0  0
  -29.2712  -23.1217   20.3282 C   0  0  0  0  0  0
  -28.3377  -25.3754   19.6395 C   0  0  0  0  0  0
  -29.8397  -15.5257   20.8630 N   0  0  0  0  0  0
  -27.2659  -18.1236   18.5203 N   0  3  0  0  0  0
  -30.3484  -22.0859   20.3320 N   0  3  1  0  0  0
  -31.4703  -12.4135   19.1259 H   0  0  0  0  0  0
  -30.3310  -11.3017   19.8327 H   0  0  0  0  0  0
  -29.7417  -11.7788   17.4346 H   0  0  0  0  0  0
  -29.6582  -13.4872   17.7729 H   0  0  0  0  0  0
  -27.8211  -11.2972   18.8094 H   0  0  0  0  0  0
  -27.3637  -12.6340   17.7913 H   0  0  0  0  0  0
  -27.6871  -14.2256   19.5745 H   0  0  0  0  0  0
  -28.6973  -11.9502   21.3463 H   0  0  0  0  0  0
  -28.4736  -13.5879   21.8794 H   0  0  0  0  0  0
  -25.2711   -9.5682   22.4713 H   0  0  0  0  0  0
  -23.9997   -7.4599   22.7434 H   0  0  0  0  0  0
  -21.0781   -8.8675   19.8927 H   0  0  0  0  0  0
  -22.3586  -10.9602   19.6132 H   0  0  0  0  0  0
  -21.1984   -7.6121   23.9698 H   0  0  0  0  0  0
  -21.1522   -6.0504   25.9082 H   0  0  0  0  0  0
  -22.0589   -2.7573   23.2846 H   0  0  0  0  0  0
  -22.4044  -11.9807   22.4718 H   0  0  0  0  0  0
  -21.1078  -13.1232   22.2672 H   0  0  0  0  0  0
  -24.5916  -15.6889   20.6739 H   0  0  0  0  0  0
  -26.1891  -15.4797   21.0397 H   0  0  0  0  0  0
  -26.7122  -32.5490   23.1135 H   0  0  0  0  0  0
  -25.0139  -33.9761   25.0518 H   0  0  0  0  0  0
  -22.6852  -31.3183   21.4207 H   0  0  0  0  0  0
  -23.3745  -35.9632   23.3316 H   0  0  0  0  0  0
  -24.3569  -36.8880   22.2051 H   0  0  0  0  0  0
  -23.7207  -37.6508   23.6633 H   0  0  0  0  0  0
  -26.0293  -31.6021   20.5925 H   0  0  0  0  0  0
  -26.8221  -30.8865   21.9716 H   0  0  0  0  0  0
  -28.0969  -29.1134   21.1289 H   0  0  0  0  0  0
  -25.9889  -26.0163   18.9539 H   0  0  0  0  0  0
  -23.9527  -27.3289   19.0199 H   0  0  0  0  0  0
  -23.7143  -30.6177   19.4078 H   0  0  0  0  0  0
  -22.7230  -29.2673   19.8679 H   0  0  0  0  0  0
  -25.1250  -36.1967   25.0838 H   0  0  0  0  0  0
  -20.9944  -28.3259   24.1435 H   0  0  0  0  0  0
  -20.5680  -26.2305   23.3592 H   0  0  0  0  0  0
  -21.6638  -26.7470   22.1174 H   0  0  0  0  0  0
  -19.6894  -25.6321   21.1223 H   0  0  0  0  0  0
  -19.6665  -27.3250   20.6759 H   0  0  0  0  0  0
  -17.4182  -26.6717   21.4037 H   0  0  0  0  0  0
  -18.0312  -26.0069   22.9010 H   0  0  0  0  0  0
  -19.7931  -30.7277   24.2280 H   0  0  0  0  0  0
  -17.5023  -31.6275   24.5216 H   0  0  0  0  0  0
  -15.5362  -30.3046   23.7614 H   0  0  0  0  0  0
  -15.8660  -28.0864   22.7044 H   0  0  0  0  0  0
  -24.5955  -30.7035   25.7834 H   0  0  0  0  0  0
  -24.8971  -32.2877   26.4917 H   0  0  0  0  0  0
  -25.8152  -30.8905   27.0222 H   0  0  0  0  0  0
  -26.2834  -29.6795   24.1170 H   0  0  0  0  0  0
  -27.4173  -29.7285   25.4483 H   0  0  0  0  0  0
  -27.8648  -30.4379   23.9139 H   0  0  0  0  0  0
  -27.2674  -33.3643   26.2035 H   0  0  0  0  0  0
  -28.3887  -32.6882   25.0291 H   0  0  0  0  0  0
  -28.0732  -31.8464   26.5380 H   0  0  0  0  0  0
  -28.2601  -38.0082   24.7514 H   0  0  0  0  0  0
  -28.1033  -36.2607   24.6310 H   0  0  0  0  0  0
  -27.2287  -37.1469   25.8881 H   0  0  0  0  0  0
  -20.9312  -29.8795   21.6944 H   0  0  0  0  0  0
  -26.0165  -38.2864   24.1458 H   0  0  0  0  0  0
  -28.4142  -19.9108   20.4051 H   0  0  0  0  0  0
  -32.0281  -16.8165   21.7799 H   0  0  0  0  0  0
  -33.3437  -18.5504   22.5657 H   0  0  0  0  0  0
  -32.3796  -19.8407   23.2876 H   0  0  0  0  0  0
  -33.1904  -20.0948   21.7334 H   0  0  0  0  0  0
  -25.8013  -19.5316   17.8741 H   0  0  0  0  0  0
  -26.5643  -19.9568   19.3966 H   0  0  0  0  0  0
  -25.3636  -18.6742   19.3323 H   0  0  0  0  0  0
  -27.8612  -18.9044   16.6348 H   0  0  0  0  0  0
  -29.0625  -17.8653   17.4053 H   0  0  0  0  0  0
  -28.7903  -19.5152   17.9945 H   0  0  0  0  0  0
  -31.6870  -22.8362   18.8494 H   0  0  0  0  0  0
  -32.3987  -21.6822   19.9546 H   0  0  0  0  0  0
  -32.0914  -23.3322   20.4904 H   0  0  0  0  0  0
  -31.2089  -21.5530   22.1952 H   0  0  0  0  0  0
  -29.4979  -21.4036   22.1905 H   0  0  0  0  0  0
  -26.9904  -17.2862   20.4719 H   0  0  0  0  0  0
  -27.9266  -16.3596   19.3255 H   0  0  0  0  0  0
  -30.2398  -25.0556   20.6440 H   0  0  0  0  0  0
  -30.2099  -24.5713   18.9624 H   0  0  0  0  0  0
  -28.4876  -22.7345   19.6741 H   0  0  0  0  0  0
  -28.8122  -23.1921   21.3152 H   0  0  0  0  0  0
  -28.0985  -25.3352   18.5769 H   0  0  0  0  0  0
  -27.5120  -24.9024   20.1762 H   0  0  0  0  0  0
  -28.9052  -15.2290   21.0978 H   0  0  0  0  0  0
  -26.7774  -17.4199   17.9880 H   0  0  0  0  0  0
  -30.0554  -21.4453   19.6116 H   0  0  0  0  0  0
  1 25  1  0  0  0
  1 30  2  0  0  0
  1 86  1  0  0  0
  2  3  1  0  0  0
  2 25  1  0  0  0
  2 89  1  0  0  0
  2 90  1  0  0  0
  3  4  1  0  0  0
  3 91  1  0  0  0
  3 92  1  0  0  0
  4  5  1  0  0  0
  4 93  1  0  0  0
  4 94  1  0  0  0
  5  6  1  0  0  0
  5 26  1  0  0  0
  5 95  1  0  0  0
  6 25  1  0  0  0
  6 96  1  0  0  0
  6 97  1  0  0  0
  7  8  2  0  0  0
  7 26  1  0  0  0
  7 29  1  0  0  0
  8  9  1  0  0  0
  8 22  1  0  0  0
  9 10  1  0  0  0
  9 27  2  0  0  0
 10 11  2  0  0  0
 10 15  1  0  0  0
 11 12  1  0  0  0
 11 98  1  0  0  0
 12 13  2  0  0  0
 12 99  1  0  0  0
 13 14  1  0  0  0
 13 31  1  0  0  0
 14 15  2  0  0  0
 14100  1  0  0  0
 15101  1  0  0  0
 16 17  2  0  0  0
 16 21  1  0  0  0
 16 31  1  0  0  0
 17 18  1  0  0  0
 17102  1  0  0  0
 18 19  2  0  0  0
 18103  1  0  0  0
 19 20  1  0  0  0
 19 24  1  0  0  0
 20 21  2  0  0  0
 20104  1  0  0  0
 21 23  1  0  0  0
 22 28  1  0  0  0
 22 32  2  0  0  0
 26 27  1  0  0  0
 28105  1  0  0  0
 28106  1  0  0  0
 29107  1  0  0  0
 29108  1  0  0  0
 33 34  1  0  0  0
 33 66  1  0  0  0
 33 70  2  0  0  0
 34 36  1  0  0  0
 34 59  1  0  0  0
 34109  1  0  0  0
 35 44  2  0  0  0
 35 45  1  0  0  0
 35 68  1  0  0  0
 36 56  1  0  0  0
 36110  1  0  0  0
 37 39  1  0  0  0
 37 47  1  0  0  0
 37 66  1  0  0  0
 37111  1  0  0  0
 38 43  2  0  0  0
 38 46  1  0  0  0
 38 47  1  0  0  0
 39 64  1  0  0  0
 39 67  2  0  0  0
 40 52  1  0  0  0
 40 53  2  0  0  0
 40 58  1  0  0  0
 41112  1  0  0  0
 41113  1  0  0  0
 41114  1  0  0  0
 41 48  1  0  0  0
 42 43  1  0  0  0
 42 66  1  0  0  0
 42115  1  0  0  0
 42116  1  0  0  0
 43 44  1  0  0  0
 44117  1  0  0  0
 45 46  2  0  0  0
 45118  1  0  0  0
 46119  1  0  0  0
 47120  1  0  0  0
 47121  1  0  0  0
 48 56  1  0  0  0
 48 65  1  0  0  0
 48122  1  0  0  0
 49 50  1  0  0  0
 49 53  1  0  0  0
 49 64  1  0  0  0
 49123  1  0  0  0
 50 51  1  0  0  0
 50124  1  0  0  0
 50125  1  0  0  0
 51 52  1  0  0  0
 51126  1  0  0  0
 51127  1  0  0  0
 52128  1  0  0  0
 52129  1  0  0  0
 53 54  1  0  0  0
 54 55  2  0  0  0
 54130  1  0  0  0
 55 57  1  0  0  0
 55131  1  0  0  0
 56 69  2  0  0  0
 57 58  2  0  0  0
 57132  1  0  0  0
 58133  1  0  0  0
 59 60  1  0  0  0
 59 61  1  0  0  0
 59 62  1  0  0  0
 60134  1  0  0  0
 60135  1  0  0  0
 60136  1  0  0  0
 61137  1  0  0  0
 61138  1  0  0  0
 61139  1  0  0  0
 62140  1  0  0  0
 62141  1  0  0  0
 62142  1  0  0  0
 63 65  1  0  0  0
 63143  1  0  0  0
 63144  1  0  0  0
 63145  1  0  0  0
 64146  1  0  0  0
 65147  1  0  0  0
 68 85  1  0  0  0
 71 73  2  0  0  0
 71 74  1  0  0  0
 71148  1  0  0  0
 72 75  2  0  0  0
 72 76  1  0  0  0
 72149  1  0  0  0
 73 75  1  0  0  0
 73 81  1  0  0  0
 74 76  2  0  0  0
 74 82  1  0  0  0
 75 77  1  0  0  0
 76 86  1  0  0  0
 77150  1  0  0  0
 77151  1  0  0  0
 77152  1  0  0  0
 78153  1  0  0  0
 78154  1  0  0  0
 78155  1  0  0  0
 78 87  1  0  0  0
 79 87  1  0  0  0
 79156  1  0  0  0
 79157  1  0  0  0
 79158  1  0  0  0
 80159  1  0  0  0
 80160  1  0  0  0
 80161  1  0  0  0
 80 88  1  0  0  0
 81 88  1  0  0  0
 81162  1  0  0  0
 81163  1  0  0  0
 82 87  1  0  0  0
 82164  1  0  0  0
 82165  1  0  0  0
 83 84  1  0  0  0
 83 85  1  0  0  0
 83166  1  0  0  0
 83167  1  0  0  0
 84 88  1  0  0  0
 84168  1  0  0  0
 84169  1  0  0  0
 85170  1  0  0  0
 85171  1  0  0  0
 86172  1  0  0  0
 87173  1  0  0  0
 88174  1  0  0  0
M  CHG  2  87   1  88   1
M  ISO  4   1 100  68 101  85 101  86 100
M  END
> <chiral flag>
0

> <version>
0

> <s_m_source_file>
/data/baiqing/PycharmProjects/Reinvent-master-3.2/result/LINK_invent/BTK/process_docking_weight1_custom_product_contain_oxygen_bond_distance_aromatic_linkinvent_7_9_3/rearranged_h_0004.sdf

> <i_m_source_file_index>
32

> <r_mmod_Potential_Energy-OPLS-2005>
-241.967178344727

> <r_mmod_Stretch_Energy-OPLS-2005>
41.2247467041016

> <r_mmod_Bend_Energy-OPLS-2005>
122.143157958984

> <r_mmod_Torsional_Energy-OPLS-2005>
261.998779296875

> <r_mmod_Improper_Torsional_Energy-OPLS-2005>
12.2349319458008

> <r_mmod_Van_der_Waal_Energy-OPLS-2005>
165.489883422852

> <r_mmod_Electrostatic_Energy-OPLS-2005>
64.5483169555664

> <r_mmod_Solvation_Energy-OPLS-2005>
-925.920166015625

> <b_mmod_Minimization_Converged-OPLS-2005>
0

> <r_mmod_RMS_Derivative-OPLS-2005>
5.0131402015686

$$$$
32
                    3D
 Structure written by MMmdl.
148157  0  0  1  0            999 V2000
  -30.4111  -15.3205   20.3770 C   0  0  0  0  0  0
  -30.4409  -12.8566   19.5066 C   0  0  0  0  0  0
  -29.5339  -12.5795   18.2810 C   0  0  0  0  0  0
  -28.0874  -12.2912   18.7205 C   0  0  0  0  0  0
  -27.6073  -13.2753   19.8154 C   0  0  2  0  0  0
  -28.6450  -13.4767   20.9384 C   0  0  0  0  0  0
  -25.2383  -13.8239   20.5757 C   0  0  0  0  0  0
  -24.1738  -13.0427   20.9264 C   0  0  0  0  0  0
  -24.6398  -11.6926   20.8767 C   0  0  0  0  0  0
  -23.9094  -10.4287   21.0409 C   0  0  0  0  0  0
  -24.3637   -9.4200   21.9186 C   0  0  0  0  0  0
  -23.6304   -8.2239   22.0755 C   0  0  0  0  0  0
  -22.4284   -8.0282   21.3545 C   0  0  0  0  0  0
  -21.9927   -9.0257   20.4645 C   0  0  0  0  0  0
  -22.7265  -10.2131   20.3055 C   0  0  0  0  0  0
  -21.6855   -6.0738   22.5278 C   0  0  0  0  0  0
  -21.4016   -6.5641   23.8212 C   0  0  0  0  0  0
  -21.3659   -5.6793   24.9173 C   0  0  0  0  0  0
  -21.6043   -4.3055   24.7224 C   0  0  0  0  0  0
  -21.8819   -3.8148   23.4346 C   0  0  0  0  0  0
  -21.9194   -4.6965   22.3402 C   0  0  0  0  0  0
  -22.7755  -13.5179   21.1910 C   0  0  0  0  0  0
  -22.1661   -4.2151   21.0979 F   0  0  0  0  0  0
  -21.5629   -3.4538   25.7737 F   0  0  0  0  0  0
  -29.8558  -14.0080   20.2888 N   0  0  0  0  0  0
  -26.2808  -12.9514   20.3218 N   0  0  0  0  0  0
  -25.9335  -11.6619   20.5721 N   0  0  0  0  0  0
  -22.0416  -12.8160   22.0465 N   0  0  0  0  0  0
  -25.3999  -15.1978   20.4201 N   0  0  0  0  0  0
  -31.6455  -15.3081   20.2499 O   0  0  0  0  0  0
  -21.6643   -6.8883   21.4241 O   0  0  0  0  0  0
  -22.3433  -14.5481   20.6750 O   0  0  0  0  0  0
  -24.6659  -31.8206   23.1670 C   0  0  0  0  0  0
  -25.9327  -32.4573   23.8149 C   0  0  1  0  0  0
  -27.2195  -26.8925   20.2015 C   0  0  0  0  0  0
  -25.5983  -33.8388   24.2056 N   0  0  0  0  0  0
  -23.4819  -30.4296   21.5183 C   0  0  2  0  0  0
  -24.9341  -28.8027   20.1229 C   0  0  0  0  0  0
  -22.7679  -29.4426   22.4788 C   0  0  0  0  0  0
  -18.0325  -28.1411   22.8467 C   0  0  0  0  0  0
  -24.1489  -36.7195   23.2650 C   0  0  0  0  0  0
  -26.0526  -30.6169   21.4001 C   0  0  0  0  0  0
  -26.1209  -29.2000   20.7521 C   0  0  0  0  0  0
  -27.2603  -28.2702   20.7567 C   0  0  0  0  0  0
  -25.9986  -26.6482   19.5346 C   0  0  0  0  0  0
  -24.8997  -27.5474   19.4935 C   0  0  0  0  0  0
  -23.7242  -29.7384   20.1482 C   0  0  0  0  0  0
  -25.4134  -36.2957   24.0296 C   0  0  1  0  0  0
  -20.5951  -28.3755   23.1187 C   0  0  2  0  0  0
  -20.6801  -26.9435   22.5404 C   0  0  0  0  0  0
  -19.5775  -26.6379   21.5216 C   0  0  0  0  0  0
  -18.1955  -26.7944   22.1622 C   0  0  0  0  0  0
  -19.1587  -28.8904   23.2812 C   0  0  0  0  0  0
  -18.9499  -30.1494   23.8846 C   0  0  0  0  0  0
  -17.6492  -30.6601   24.0554 C   0  0  0  0  0  0
  -25.9102  -34.9342   23.5000 C   0  0  0  0  0  0
  -16.5382  -29.9088   23.6346 C   0  0  0  0  0  0
  -16.7307  -28.6509   23.0365 C   0  0  0  0  0  0
  -26.4566  -31.6532   25.0690 C   0  0  0  0  0  0
  -25.3682  -31.3798   26.1341 C   0  0  0  0  0  0
  -27.0470  -30.2897   24.6440 C   0  0  0  0  0  0
  -27.6051  -32.4351   25.7495 C   0  0  0  0  0  0
  -27.5561  -37.1760   24.8472 C   0  0  0  0  0  0
  -21.4346  -29.3040   22.3533 N   0  0  0  0  0  0
  -26.4277  -37.3695   23.9404 N   0  0  0  0  0  0
  -24.7554  -30.9836   22.0822 N   0  0  0  0  0  0
  -23.4210  -28.8004   23.3050 O   0  0  0  0  0  0
  -28.2493  -25.8027   20.1805 O   0  0  0  0  0  0
  -26.5714  -34.8884   22.4598 O   0  0  0  0  0  0
  -23.5721  -32.1195   23.6741 O   0  0  0  0  0  0
  -29.7865  -20.9704   21.8416 C   0  0  0  0  0  0
  -30.3179  -19.8116   22.4661 C   0  0  0  0  0  0
  -29.1436  -19.5002   20.0538 C   0  0  0  0  0  0
  -29.1611  -20.9705   20.5784 C   0  0  0  0  0  0
  -29.7056  -18.1828   20.6772 C   0  0  0  0  0  0
  -30.2929  -18.4942   21.9344 C   0  0  0  0  0  0
  -27.4193  -23.2000   19.6872 C   0  0  0  0  0  0
  -28.7973  -22.6176   19.9950 C   0  0  1  0  0  0
  -28.1607  -24.1839   20.5857 C   0  0  2  0  0  0
  -29.6259  -16.5939   20.2864 N   0  0  0  0  0  0
  -30.9560  -17.2559   22.9442 Cl  0  0  0  0  0  0
  -31.4496  -13.0869   19.1610 H   0  0  0  0  0  0
  -30.5393  -11.9668   20.1307 H   0  0  0  0  0  0
  -29.9242  -11.7439   17.6984 H   0  0  0  0  0  0
  -29.5460  -13.4474   17.6199 H   0  0  0  0  0  0
  -28.0590  -11.2729   19.1099 H   0  0  0  0  0  0
  -27.4141  -12.3097   17.8627 H   0  0  0  0  0  0
  -27.5104  -14.2331   19.3029 H   0  0  0  0  0  0
  -28.8376  -12.5502   21.4811 H   0  0  0  0  0  0
  -28.2780  -14.1979   21.6706 H   0  0  0  0  0  0
  -25.2779   -9.5674   22.4767 H   0  0  0  0  0  0
  -24.0007   -7.4630   22.7476 H   0  0  0  0  0  0
  -21.0858   -8.8784   19.8950 H   0  0  0  0  0  0
  -22.3726  -10.9674   19.6167 H   0  0  0  0  0  0
  -21.2010   -7.6149   23.9717 H   0  0  0  0  0  0
  -21.1480   -6.0522   25.9077 H   0  0  0  0  0  0
  -22.0599   -2.7610   23.2845 H   0  0  0  0  0  0
  -22.4051  -11.9829   22.4853 H   0  0  0  0  0  0
  -21.1029  -13.1166   22.2674 H   0  0  0  0  0  0
  -24.6281  -15.8455   20.5367 H   0  0  0  0  0  0
  -26.2441  -15.6458   20.0906 H   0  0  0  0  0  0
  -26.7400  -32.5105   23.0866 H   0  0  0  0  0  0
  -25.0084  -33.9461   25.0174 H   0  0  0  0  0  0
  -22.7967  -31.2614   21.3429 H   0  0  0  0  0  0
  -23.3757  -35.9520   23.3304 H   0  0  0  0  0  0
  -24.3555  -36.8850   22.2065 H   0  0  0  0  0  0
  -23.7246  -37.6380   23.6715 H   0  0  0  0  0  0
  -26.2320  -31.3526   20.6150 H   0  0  0  0  0  0
  -26.9130  -30.6802   22.0542 H   0  0  0  0  0  0
  -28.1675  -28.5836   21.2537 H   0  0  0  0  0  0
  -25.8744  -25.6919   19.0467 H   0  0  0  0  0  0
  -23.9988  -27.2357   18.9827 H   0  0  0  0  0  0
  -23.8868  -30.5034   19.3881 H   0  0  0  0  0  0
  -22.8322  -29.1966   19.8286 H   0  0  0  0  0  0
  -25.1335  -36.1750   25.0787 H   0  0  0  0  0  0
  -21.0033  -28.3364   24.1314 H   0  0  0  0  0  0
  -20.5687  -26.2372   23.3645 H   0  0  0  0  0  0
  -21.6663  -26.7415   22.1206 H   0  0  0  0  0  0
  -19.6932  -25.6278   21.1277 H   0  0  0  0  0  0
  -19.6713  -27.3161   20.6724 H   0  0  0  0  0  0
  -17.4225  -26.6690   21.4025 H   0  0  0  0  0  0
  -18.0347  -26.0097   22.9029 H   0  0  0  0  0  0
  -19.7975  -30.7325   24.2189 H   0  0  0  0  0  0
  -17.5046  -31.6276   24.5167 H   0  0  0  0  0  0
  -15.5381  -30.2975   23.7703 H   0  0  0  0  0  0
  -15.8707  -28.0814   22.7109 H   0  0  0  0  0  0
  -24.5872  -30.7141   25.7649 H   0  0  0  0  0  0
  -24.8861  -32.3004   26.4637 H   0  0  0  0  0  0
  -25.7899  -30.9048   27.0206 H   0  0  0  0  0  0
  -26.3145  -29.6562   24.1424 H   0  0  0  0  0  0
  -27.3976  -29.7272   25.5104 H   0  0  0  0  0  0
  -27.9093  -30.4077   23.9875 H   0  0  0  0  0  0
  -27.2619  -33.3706   26.1927 H   0  0  0  0  0  0
  -28.3938  -32.6828   25.0379 H   0  0  0  0  0  0
  -28.0633  -31.8574   26.5534 H   0  0  0  0  0  0
  -28.2583  -38.0050   24.7489 H   0  0  0  0  0  0
  -28.1054  -36.2575   24.6343 H   0  0  0  0  0  0
  -27.2271  -37.1454   25.8874 H   0  0  0  0  0  0
  -20.9610  -29.8719   21.6646 H   0  0  0  0  0  0
  -26.0122  -38.2754   24.1403 H   0  0  0  0  0  0
  -29.9010  -21.9143   22.3568 H   0  0  0  0  0  0
  -30.7796  -19.9445   23.4339 H   0  0  0  0  0  0
  -28.6793  -19.3764   19.0858 H   0  0  0  0  0  0
  -26.5620  -22.7107   20.1447 H   0  0  0  0  0  0
  -27.2502  -23.4981   18.6548 H   0  0  0  0  0  0
  -29.5378  -22.7600   19.2104 H   0  0  0  0  0  0
  -27.8847  -24.1640   21.6385 H   0  0  0  0  0  0
  -28.6952  -16.3602   19.9776 H   0  0  0  0  0  0
  1 25  1  0  0  0
  1 30  2  0  0  0
  1 80  1  0  0  0
  2  3  1  0  0  0
  2 25  1  0  0  0
  2 82  1  0  0  0
  2 83  1  0  0  0
  3  4  1  0  0  0
  3 84  1  0  0  0
  3 85  1  0  0  0
  4  5  1  0  0  0
  4 86  1  0  0  0
  4 87  1  0  0  0
  5  6  1  0  0  0
  5 26  1  0  0  0
  5 88  1  0  0  0
  6 25  1  0  0  0
  6 89  1  0  0  0
  6 90  1  0  0  0
  7  8  2  0  0  0
  7 26  1  0  0  0
  7 29  1  0  0  0
  8  9  1  0  0  0
  8 22  1  0  0  0
  9 10  1  0  0  0
  9 27  2  0  0  0
 10 11  2  0  0  0
 10 15  1  0  0  0
 11 12  1  0  0  0
 11 91  1  0  0  0
 12 13  2  0  0  0
 12 92  1  0  0  0
 13 14  1  0  0  0
 13 31  1  0  0  0
 14 15  2  0  0  0
 14 93  1  0  0  0
 15 94  1  0  0  0
 16 17  2  0  0  0
 16 21  1  0  0  0
 16 31  1  0  0  0
 17 18  1  0  0  0
 17 95  1  0  0  0
 18 19  2  0  0  0
 18 96  1  0  0  0
 19 20  1  0  0  0
 19 24  1  0  0  0
 20 21  2  0  0  0
 20 97  1  0  0  0
 21 23  1  0  0  0
 22 28  1  0  0  0
 22 32  2  0  0  0
 26 27  1  0  0  0
 28 98  1  0  0  0
 28 99  1  0  0  0
 29100  1  0  0  0
 29101  1  0  0  0
 33 34  1  0  0  0
 33 66  1  0  0  0
 33 70  2  0  0  0
 34 36  1  0  0  0
 34 59  1  0  0  0
 34102  1  0  0  0
 35 44  2  0  0  0
 35 45  1  0  0  0
 35 68  1  0  0  0
 36 56  1  0  0  0
 36103  1  0  0  0
 37 39  1  0  0  0
 37 47  1  0  0  0
 37 66  1  0  0  0
 37104  1  0  0  0
 38 43  2  0  0  0
 38 46  1  0  0  0
 38 47  1  0  0  0
 39 64  1  0  0  0
 39 67  2  0  0  0
 40 52  1  0  0  0
 40 53  2  0  0  0
 40 58  1  0  0  0
 41105  1  0  0  0
 41106  1  0  0  0
 41107  1  0  0  0
 41 48  1  0  0  0
 42 43  1  0  0  0
 42 66  1  0  0  0
 42108  1  0  0  0
 42109  1  0  0  0
 43 44  1  0  0  0
 44110  1  0  0  0
 45 46  2  0  0  0
 45111  1  0  0  0
 46112  1  0  0  0
 47113  1  0  0  0
 47114  1  0  0  0
 48 56  1  0  0  0
 48 65  1  0  0  0
 48115  1  0  0  0
 49 50  1  0  0  0
 49 53  1  0  0  0
 49 64  1  0  0  0
 49116  1  0  0  0
 50 51  1  0  0  0
 50117  1  0  0  0
 50118  1  0  0  0
 51 52  1  0  0  0
 51119  1  0  0  0
 51120  1  0  0  0
 52121  1  0  0  0
 52122  1  0  0  0
 53 54  1  0  0  0
 54 55  2  0  0  0
 54123  1  0  0  0
 55 57  1  0  0  0
 55124  1  0  0  0
 56 69  2  0  0  0
 57 58  2  0  0  0
 57125  1  0  0  0
 58126  1  0  0  0
 59 60  1  0  0  0
 59 61  1  0  0  0
 59 62  1  0  0  0
 60127  1  0  0  0
 60128  1  0  0  0
 60129  1  0  0  0
 61130  1  0  0  0
 61131  1  0  0  0
 61132  1  0  0  0
 62133  1  0  0  0
 62134  1  0  0  0
 62135  1  0  0  0
 63 65  1  0  0  0
 63136  1  0  0  0
 63137  1  0  0  0
 63138  1  0  0  0
 64139  1  0  0  0
 65140  1  0  0  0
 68 79  1  0  0  0
 71 72  2  0  0  0
 71 74  1  0  0  0
 71141  1  0  0  0
 72 76  1  0  0  0
 72142  1  0  0  0
 73 74  2  0  0  0
 73 75  1  0  0  0
 73143  1  0  0  0
 74 78  1  0  0  0
 75 76  2  0  0  0
 75 80  1  0  0  0
 76 81  1  0  0  0
 77 78  1  0  0  0
 77 79  1  0  0  0
 77144  1  0  0  0
 77145  1  0  0  0
 78 79  1  0  0  0
 78146  1  0  0  0
 79147  1  0  0  0
 80148  1  0  0  0
M  ISO  4   1 100  68 101  79 101  80 100
M  END
> <chiral flag>
0

> <version>
0

> <s_m_source_file>
/data/baiqing/PycharmProjects/Reinvent-master-3.2/result/LINK_invent/BTK/process_docking_weight1_custom_product_contain_oxygen_bond_distance_aromatic_linkinvent_7_9_3/rearranged_h_0004.sdf

> <i_m_source_file_index>
33

> <r_mmod_Potential_Energy-OPLS-2005>
1402.70092773438

> <r_mmod_Stretch_Energy-OPLS-2005>
643.532775878906

> <r_mmod_Bend_Energy-OPLS-2005>
436.403900146484

> <r_mmod_Torsional_Energy-OPLS-2005>
270.778717041016

> <r_mmod_Improper_Torsional_Energy-OPLS-2005>
9.74612998962402

> <r_mmod_Van_der_Waal_Energy-OPLS-2005>
123.435050964355

> <r_mmod_Electrostatic_Energy-OPLS-2005>
-377.406341552734

> <r_mmod_Solvation_Energy-OPLS-2005>
-213.156448364258

> <b_mmod_Minimization_Converged-OPLS-2005>
0

> <r_mmod_RMS_Derivative-OPLS-2005>
0.386158645153046

$$$$
33
                    3D
 Structure written by MMmdl.
166175  0  0  1  0            999 V2000
  -30.6601  -14.4408   20.5242 C   0  0  0  0  0  0
  -30.4266  -12.2767   19.4033 C   0  0  0  0  0  0
  -29.4912  -12.4781   18.1898 C   0  0  0  0  0  0
  -28.0086  -12.3307   18.5987 C   0  0  0  0  0  0
  -27.6561  -13.1746   19.8513 C   0  0  2  0  0  0
  -28.6942  -12.9178   20.9618 C   0  0  0  0  0  0
  -25.2642  -13.8114   20.5597 C   0  0  0  0  0  0
  -24.1857  -13.0404   20.9143 C   0  0  0  0  0  0
  -24.6385  -11.6881   20.8698 C   0  0  0  0  0  0
  -23.9029  -10.4293   21.0386 C   0  0  0  0  0  0
  -24.3587   -9.4231   21.9189 C   0  0  0  0  0  0
  -23.6281   -8.2266   22.0754 C   0  0  0  0  0  0
  -22.4265   -8.0290   21.3552 C   0  0  0  0  0  0
  -21.9884   -9.0258   20.4649 C   0  0  0  0  0  0
  -22.7189  -10.2148   20.3047 C   0  0  0  0  0  0
  -21.6871   -6.0713   22.5286 C   0  0  0  0  0  0
  -21.4024   -6.5620   23.8205 C   0  0  0  0  0  0
  -21.3646   -5.6770   24.9175 C   0  0  0  0  0  0
  -21.6047   -4.3040   24.7224 C   0  0  0  0  0  0
  -21.8818   -3.8127   23.4352 C   0  0  0  0  0  0
  -21.9205   -4.6947   22.3401 C   0  0  0  0  0  0
  -22.7903  -13.5236   21.1823 C   0  0  0  0  0  0
  -22.1670   -4.2127   21.0985 F   0  0  0  0  0  0
  -21.5624   -3.4519   25.7740 F   0  0  0  0  0  0
  -30.0199  -13.2484   20.4247 N   0  0  0  0  0  0
  -26.2996  -12.9200   20.3210 N   0  0  0  0  0  0
  -25.9281  -11.6397   20.5691 N   0  0  0  0  0  0
  -22.0534  -12.8233   22.0403 N   0  0  0  0  0  0
  -25.4405  -15.1802   20.3975 N   0  0  0  0  0  0
  -31.8527  -14.5976   20.2573 O   0  0  0  0  0  0
  -21.6653   -6.8871   21.4244 O   0  0  0  0  0  0
  -22.3592  -14.5533   20.6688 O   0  0  0  0  0  0
  -24.6025  -31.8814   23.2196 C   0  0  0  0  0  0
  -25.8987  -32.4887   23.8452 C   0  0  1  0  0  0
  -27.2050  -27.5092   20.0826 C   0  0  0  0  0  0
  -25.5929  -33.8688   24.2430 N   0  0  0  0  0  0
  -23.3768  -30.5184   21.5580 C   0  0  2  0  0  0
  -24.8143  -28.9992   20.1141 C   0  0  0  0  0  0
  -22.7259  -29.4768   22.4938 C   0  0  0  0  0  0
  -18.0276  -28.1231   22.8637 C   0  0  0  0  0  0
  -24.1491  -36.7323   23.2632 C   0  0  0  0  0  0
  -25.8992  -30.8721   21.3550 C   0  0  0  0  0  0
  -25.9749  -29.5117   20.7085 C   0  0  0  0  0  0
  -27.1720  -28.7706   20.6976 C   0  0  0  0  0  0
  -26.0264  -27.0052   19.4788 C   0  0  0  0  0  0
  -24.8316  -27.7386   19.4988 C   0  0  0  0  0  0
  -23.5795  -29.8668   20.1642 C   0  0  0  0  0  0
  -25.4109  -36.3115   24.0338 C   0  0  1  0  0  0
  -20.5835  -28.3657   23.1347 C   0  0  2  0  0  0
  -20.6865  -26.9350   22.5494 C   0  0  0  0  0  0
  -19.5744  -26.6046   21.5490 C   0  0  0  0  0  0
  -18.1943  -26.7700   22.1929 C   0  0  0  0  0  0
  -19.1477  -28.8759   23.2989 C   0  0  0  0  0  0
  -18.9341  -30.1450   23.8861 C   0  0  0  0  0  0
  -17.6328  -30.6562   24.0516 C   0  0  0  0  0  0
  -25.9015  -34.9481   23.5153 C   0  0  0  0  0  0
  -16.5271  -29.8945   23.6328 C   0  0  0  0  0  0
  -16.7249  -28.6345   23.0422 C   0  0  0  0  0  0
  -26.4475  -31.6593   25.0703 C   0  0  0  0  0  0
  -25.3839  -31.3639   26.1522 C   0  0  0  0  0  0
  -27.0287  -30.3063   24.5948 C   0  0  0  0  0  0
  -27.6031  -32.4319   25.7485 C   0  0  0  0  0  0
  -27.5576  -37.1821   24.8452 C   0  0  0  0  0  0
  -21.3992  -29.3064   22.3658 N   0  0  0  0  0  0
  -26.4290  -37.3793   23.9383 N   0  0  0  0  0  0
  -24.6457  -31.0993   22.1068 N   0  0  0  0  0  0
  -23.4080  -28.8289   23.2923 O   0  0  0  0  0  0
  -28.3882  -26.8155   20.1068 O   0  0  0  0  0  0
  -26.5483  -34.8928   22.4644 O   0  0  0  0  0  0
  -23.5265  -32.1496   23.7662 O   0  0  0  0  0  0
  -28.0980  -16.9388   23.3139 C   0  0  0  0  0  0
  -27.8012  -18.2165   22.8097 C   0  0  0  0  0  0
  -28.8000  -16.0084   22.5224 C   0  0  0  0  0  0
  -28.8797  -17.6330   20.7043 C   0  0  0  0  0  0
  -28.1701  -18.5642   21.4939 C   0  0  0  0  0  0
  -29.1905  -16.3515   21.2052 C   0  0  0  0  0  0
  -28.8900  -20.9537   21.0030 C   0  0  0  0  0  0
  -27.2002  -19.8704   19.5094 C   0  0  0  0  0  0
  -28.4152  -22.3252   20.5014 C   0  0  0  0  0  0
  -26.6939  -21.2611   19.0857 C   0  0  0  0  0  0
  -27.7610  -19.9229   20.9426 C   0  0  1  0  0  0
  -28.3278  -24.7577   18.8439 C   0  0  0  0  0  0
  -27.3320  -23.5888   18.6439 C   0  0  0  0  0  0
  -28.2623  -25.4137   20.2382 C   0  0  0  0  0  0
  -29.8583  -15.4903   20.2986 N   0  0  0  0  0  0
  -27.7856  -22.2699   19.1506 N   0  3  1  0  0  0
  -31.4700  -12.3959   19.1064 H   0  0  0  0  0  0
  -30.3406  -11.2594   19.7864 H   0  0  0  0  0  0
  -29.7354  -11.7593   17.4056 H   0  0  0  0  0  0
  -29.6482  -13.4669   17.7550 H   0  0  0  0  0  0
  -27.8218  -11.2729   18.8002 H   0  0  0  0  0  0
  -27.3556  -12.5999   17.7659 H   0  0  0  0  0  0
  -27.7012  -14.2181   19.5491 H   0  0  0  0  0  0
  -28.6720  -11.8657   21.2562 H   0  0  0  0  0  0
  -28.4434  -13.4567   21.8626 H   0  0  0  0  0  0
  -25.2720   -9.5697   22.4776 H   0  0  0  0  0  0
  -23.9989   -7.4629   22.7445 H   0  0  0  0  0  0
  -21.0824   -8.8753   19.8952 H   0  0  0  0  0  0
  -22.3632  -10.9692   19.6162 H   0  0  0  0  0  0
  -21.2029   -7.6128   23.9688 H   0  0  0  0  0  0
  -21.1459   -6.0518   25.9066 H   0  0  0  0  0  0
  -22.0619   -2.7595   23.2856 H   0  0  0  0  0  0
  -22.4130  -11.9876   22.4766 H   0  0  0  0  0  0
  -21.1164  -13.1300   22.2597 H   0  0  0  0  0  0
  -24.6826  -15.8427   20.5184 H   0  0  0  0  0  0
  -26.3101  -15.6208   20.1196 H   0  0  0  0  0  0
  -26.7060  -32.5626   23.1234 H   0  0  0  0  0  0
  -25.0223  -33.9867   25.0669 H   0  0  0  0  0  0
  -22.6650  -31.3382   21.4363 H   0  0  0  0  0  0
  -23.3727  -35.9675   23.3312 H   0  0  0  0  0  0
  -24.3617  -36.8910   22.2049 H   0  0  0  0  0  0
  -23.7307  -37.6569   23.6634 H   0  0  0  0  0  0
  -25.9715  -31.6376   20.5811 H   0  0  0  0  0  0
  -26.7990  -30.9375   21.9519 H   0  0  0  0  0  0
  -28.0650  -29.1557   21.1671 H   0  0  0  0  0  0
  -26.0027  -26.0585   18.9730 H   0  0  0  0  0  0
  -23.9419  -27.3512   19.0233 H   0  0  0  0  0  0
  -23.6867  -30.6534   19.4148 H   0  0  0  0  0  0
  -22.6991  -29.2973   19.8690 H   0  0  0  0  0  0
  -25.1303  -36.1977   25.0836 H   0  0  0  0  0  0
  -20.9936  -28.3327   24.1462 H   0  0  0  0  0  0
  -20.5989  -26.2268   23.3718 H   0  0  0  0  0  0
  -21.6681  -26.7563   22.1055 H   0  0  0  0  0  0
  -19.6814  -25.5780   21.1930 H   0  0  0  0  0  0
  -19.6728  -27.2542   20.6784 H   0  0  0  0  0  0
  -17.4226  -26.6280   21.4324 H   0  0  0  0  0  0
  -18.0288  -26.0050   22.9536 H   0  0  0  0  0  0
  -19.7785  -30.7432   24.1988 H   0  0  0  0  0  0
  -17.4737  -31.6261   24.5013 H   0  0  0  0  0  0
  -15.5217  -30.2743   23.7681 H   0  0  0  0  0  0
  -15.8687  -28.0599   22.7205 H   0  0  0  0  0  0
  -24.5949  -30.7048   25.7907 H   0  0  0  0  0  0
  -24.9129  -32.2796   26.5113 H   0  0  0  0  0  0
  -25.8306  -30.8747   27.0189 H   0  0  0  0  0  0
  -26.2777  -29.6833   24.1107 H   0  0  0  0  0  0
  -27.4230  -29.7286   25.4318 H   0  0  0  0  0  0
  -27.8529  -30.4435   23.8939 H   0  0  0  0  0  0
  -27.2584  -33.3541   26.2180 H   0  0  0  0  0  0
  -28.3801  -32.7020   25.0319 H   0  0  0  0  0  0
  -28.0738  -31.8389   26.5339 H   0  0  0  0  0  0
  -28.2577  -38.0128   24.7461 H   0  0  0  0  0  0
  -28.1081  -36.2644   24.6329 H   0  0  0  0  0  0
  -27.2263  -37.1536   25.8846 H   0  0  0  0  0  0
  -20.9109  -29.8619   21.6739 H   0  0  0  0  0  0
  -26.0155  -38.2838   24.1462 H   0  0  0  0  0  0
  -27.7839  -16.6695   24.3120 H   0  0  0  0  0  0
  -27.2725  -18.9263   23.4319 H   0  0  0  0  0  0
  -29.0256  -15.0502   22.9625 H   0  0  0  0  0  0
  -29.1796  -17.8937   19.6990 H   0  0  0  0  0  0
  -29.2198  -21.0673   22.0367 H   0  0  0  0  0  0
  -29.7532  -20.6154   20.4305 H   0  0  0  0  0  0
  -27.9678  -19.5387   18.8063 H   0  0  0  0  0  0
  -26.3912  -19.1435   19.4455 H   0  0  0  0  0  0
  -29.2929  -22.9677   20.4599 H   0  0  0  0  0  0
  -27.7137  -22.7694   21.2138 H   0  0  0  0  0  0
  -25.8729  -21.5717   19.7376 H   0  0  0  0  0  0
  -26.2756  -21.2064   18.0770 H   0  0  0  0  0  0
  -26.9600  -20.2794   21.5915 H   0  0  0  0  0  0
  -28.0841  -25.5187   18.1015 H   0  0  0  0  0  0
  -29.3445  -24.4468   18.6053 H   0  0  0  0  0  0
  -27.1520  -23.4930   17.5739 H   0  0  0  0  0  0
  -26.3609  -23.8359   19.0730 H   0  0  0  0  0  0
  -29.0708  -25.0819   20.8898 H   0  0  0  0  0  0
  -27.3507  -25.1423   20.7784 H   0  0  0  0  0  0
  -30.2134  -16.0087   19.5075 H   0  0  0  0  0  0
  -28.5069  -21.9618   18.5103 H   0  0  0  0  0  0
  1 25  1  0  0  0
  1 30  2  0  0  0
  1 85  1  0  0  0
  2  3  1  0  0  0
  2 25  1  0  0  0
  2 87  1  0  0  0
  2 88  1  0  0  0
  3  4  1  0  0  0
  3 89  1  0  0  0
  3 90  1  0  0  0
  4  5  1  0  0  0
  4 91  1  0  0  0
  4 92  1  0  0  0
  5  6  1  0  0  0
  5 26  1  0  0  0
  5 93  1  0  0  0
  6 25  1  0  0  0
  6 94  1  0  0  0
  6 95  1  0  0  0
  7  8  2  0  0  0
  7 26  1  0  0  0
  7 29  1  0  0  0
  8  9  1  0  0  0
  8 22  1  0  0  0
  9 10  1  0  0  0
  9 27  2  0  0  0
 10 11  2  0  0  0
 10 15  1  0  0  0
 11 12  1  0  0  0
 11 96  1  0  0  0
 12 13  2  0  0  0
 12 97  1  0  0  0
 13 14  1  0  0  0
 13 31  1  0  0  0
 14 15  2  0  0  0
 14 98  1  0  0  0
 15 99  1  0  0  0
 16 17  2  0  0  0
 16 21  1  0  0  0
 16 31  1  0  0  0
 17 18  1  0  0  0
 17100  1  0  0  0
 18 19  2  0  0  0
 18101  1  0  0  0
 19 20  1  0  0  0
 19 24  1  0  0  0
 20 21  2  0  0  0
 20102  1  0  0  0
 21 23  1  0  0  0
 22 28  1  0  0  0
 22 32  2  0  0  0
 26 27  1  0  0  0
 28103  1  0  0  0
 28104  1  0  0  0
 29105  1  0  0  0
 29106  1  0  0  0
 33 34  1  0  0  0
 33 66  1  0  0  0
 33 70  2  0  0  0
 34 36  1  0  0  0
 34 59  1  0  0  0
 34107  1  0  0  0
 35 44  2  0  0  0
 35 45  1  0  0  0
 35 68  1  0  0  0
 36 56  1  0  0  0
 36108  1  0  0  0
 37 39  1  0  0  0
 37 47  1  0  0  0
 37 66  1  0  0  0
 37109  1  0  0  0
 38 43  2  0  0  0
 38 46  1  0  0  0
 38 47  1  0  0  0
 39 64  1  0  0  0
 39 67  2  0  0  0
 40 52  1  0  0  0
 40 53  2  0  0  0
 40 58  1  0  0  0
 41110  1  0  0  0
 41111  1  0  0  0
 41112  1  0  0  0
 41 48  1  0  0  0
 42 43  1  0  0  0
 42 66  1  0  0  0
 42113  1  0  0  0
 42114  1  0  0  0
 43 44  1  0  0  0
 44115  1  0  0  0
 45 46  2  0  0  0
 45116  1  0  0  0
 46117  1  0  0  0
 47118  1  0  0  0
 47119  1  0  0  0
 48 56  1  0  0  0
 48 65  1  0  0  0
 48120  1  0  0  0
 49 50  1  0  0  0
 49 53  1  0  0  0
 49 64  1  0  0  0
 49121  1  0  0  0
 50 51  1  0  0  0
 50122  1  0  0  0
 50123  1  0  0  0
 51 52  1  0  0  0
 51124  1  0  0  0
 51125  1  0  0  0
 52126  1  0  0  0
 52127  1  0  0  0
 53 54  1  0  0  0
 54 55  2  0  0  0
 54128  1  0  0  0
 55 57  1  0  0  0
 55129  1  0  0  0
 56 69  2  0  0  0
 57 58  2  0  0  0
 57130  1  0  0  0
 58131  1  0  0  0
 59 60  1  0  0  0
 59 61  1  0  0  0
 59 62  1  0  0  0
 60132  1  0  0  0
 60133  1  0  0  0
 60134  1  0  0  0
 61135  1  0  0  0
 61136  1  0  0  0
 61137  1  0  0  0
 62138  1  0  0  0
 62139  1  0  0  0
 62140  1  0  0  0
 63 65  1  0  0  0
 63141  1  0  0  0
 63142  1  0  0  0
 63143  1  0  0  0
 64144  1  0  0  0
 65145  1  0  0  0
 68 84  1  0  0  0
 71 72  2  0  0  0
 71 73  1  0  0  0
 71146  1  0  0  0
 72 75  1  0  0  0
 72147  1  0  0  0
 73 76  2  0  0  0
 73148  1  0  0  0
 74 75  2  0  0  0
 74 76  1  0  0  0
 74149  1  0  0  0
 75 81  1  0  0  0
 76 85  1  0  0  0
 77 79  1  0  0  0
 77 81  1  0  0  0
 77150  1  0  0  0
 77151  1  0  0  0
 78 80  1  0  0  0
 78 81  1  0  0  0
 78152  1  0  0  0
 78153  1  0  0  0
 79 86  1  0  0  0
 79154  1  0  0  0
 79155  1  0  0  0
 80 86  1  0  0  0
 80156  1  0  0  0
 80157  1  0  0  0
 81158  1  0  0  0
 82 83  1  0  0  0
 82 84  1  0  0  0
 82159  1  0  0  0
 82160  1  0  0  0
 83161  1  0  0  0
 83162  1  0  0  0
 83 86  1  0  0  0
 84163  1  0  0  0
 84164  1  0  0  0
 85165  1  0  0  0
 86166  1  0  0  0
M  CHG  1  86   1
M  ISO  4   1 100  68 101  84 101  85 100
M  END
> <chiral flag>
0

> <version>
0

> <s_m_source_file>
/data/baiqing/PycharmProjects/Reinvent-master-3.2/result/LINK_invent/BTK/process_docking_weight1_custom_product_contain_oxygen_bond_distance_aromatic_linkinvent_7_9_3/rearranged_h_0004.sdf

> <i_m_source_file_index>
34

> <r_mmod_Potential_Energy-OPLS-2005>
-30.2463626861572

> <r_mmod_Stretch_Energy-OPLS-2005>
31.5162010192871

> <r_mmod_Bend_Energy-OPLS-2005>
118.33277130127

> <r_mmod_Torsional_Energy-OPLS-2005>
312.471649169922

> <r_mmod_Improper_Torsional_Energy-OPLS-2005>
24.7660045623779

> <r_mmod_Van_der_Waal_Energy-OPLS-2005>
168.117248535156

> <r_mmod_Electrostatic_Energy-OPLS-2005>
-257.790130615234

> <r_mmod_Solvation_Energy-OPLS-2005>
-448.147491455078

> <b_mmod_Minimization_Converged-OPLS-2005>
0

> <r_mmod_RMS_Derivative-OPLS-2005>
7.87557458877563

$$$$
34
                    3D
 Structure written by MMmdl.
151159  0  0  1  0            999 V2000
  -30.5209  -15.0260   20.4026 C   0  0  0  0  0  0
  -30.4388  -12.6404   19.5032 C   0  0  0  0  0  0
  -29.5229  -12.5367   18.2614 C   0  0  0  0  0  0
  -28.0596  -12.3090   18.6832 C   0  0  0  0  0  0
  -27.6237  -13.2547   19.8323 C   0  0  2  0  0  0
  -28.6657  -13.3239   20.9684 C   0  0  0  0  0  0
  -25.2438  -13.8224   20.5719 C   0  0  0  0  0  0
  -24.1767  -13.0438   20.9242 C   0  0  0  0  0  0
  -24.6395  -11.6927   20.8764 C   0  0  0  0  0  0
  -23.9082  -10.4294   21.0413 C   0  0  0  0  0  0
  -24.3629   -9.4207   21.9188 C   0  0  0  0  0  0
  -23.6300   -8.2243   22.0756 C   0  0  0  0  0  0
  -22.4282   -8.0284   21.3545 C   0  0  0  0  0  0
  -21.9922   -9.0259   20.4647 C   0  0  0  0  0  0
  -22.7255  -10.2135   20.3059 C   0  0  0  0  0  0
  -21.6855   -6.0738   22.5279 C   0  0  0  0  0  0
  -21.4014   -6.5641   23.8213 C   0  0  0  0  0  0
  -21.3660   -5.6794   24.9175 C   0  0  0  0  0  0
  -21.6043   -4.3057   24.7225 C   0  0  0  0  0  0
  -21.8818   -3.8149   23.4346 C   0  0  0  0  0  0
  -21.9192   -4.6965   22.3402 C   0  0  0  0  0  0
  -22.7786  -13.5204   21.1892 C   0  0  0  0  0  0
  -22.1662   -4.2152   21.0980 F   0  0  0  0  0  0
  -21.5628   -3.4540   25.7738 F   0  0  0  0  0  0
  -29.9294  -13.7566   20.3582 N   0  0  0  0  0  0
  -26.2862  -12.9466   20.3233 N   0  0  0  0  0  0
  -25.9328  -11.6590   20.5741 N   0  0  0  0  0  0
  -22.0439  -12.8190   22.0446 N   0  0  0  0  0  0
  -25.4079  -15.1956   20.4128 N   0  0  0  0  0  0
  -31.7341  -15.0541   20.1654 O   0  0  0  0  0  0
  -21.6643   -6.8884   21.4242 O   0  0  0  0  0  0
  -22.3469  -14.5507   20.6735 O   0  0  0  0  0  0
  -24.6490  -31.8385   23.1832 C   0  0  0  0  0  0
  -25.9237  -32.4666   23.8244 C   0  0  1  0  0  0
  -27.2162  -27.0783   20.1608 C   0  0  0  0  0  0
  -25.5961  -33.8474   24.2157 N   0  0  0  0  0  0
  -23.4558  -30.4560   21.5300 C   0  0  2  0  0  0
  -24.9060  -28.8721   20.1111 C   0  0  0  0  0  0
  -22.7597  -29.4520   22.4838 C   0  0  0  0  0  0
  -18.0311  -28.1401   22.8475 C   0  0  0  0  0  0
  -24.1492  -36.7241   23.2645 C   0  0  0  0  0  0
  -26.0160  -30.6942   21.3905 C   0  0  0  0  0  0
  -26.0862  -29.2998   20.7323 C   0  0  0  0  0  0
  -27.2414  -28.4209   20.7361 C   0  0  0  0  0  0
  -26.0078  -26.7656   19.5002 C   0  0  0  0  0  0
  -24.8831  -27.6206   19.4779 C   0  0  0  0  0  0
  -23.6859  -29.7821   20.1511 C   0  0  0  0  0  0
  -25.4128  -36.3014   24.0311 C   0  0  1  0  0  0
  -20.5927  -28.3733   23.1222 C   0  0  2  0  0  0
  -20.6793  -26.9430   22.5404 C   0  0  0  0  0  0
  -19.5765  -26.6382   21.5215 C   0  0  0  0  0  0
  -18.1947  -26.7938   22.1626 C   0  0  0  0  0  0
  -19.1569  -28.8886   23.2840 C   0  0  0  0  0  0
  -18.9482  -30.1481   23.8868 C   0  0  0  0  0  0
  -17.6477  -30.6595   24.0559 C   0  0  0  0  0  0
  -25.9082  -34.9391   23.5047 C   0  0  0  0  0  0
  -16.5368  -29.9085   23.6339 C   0  0  0  0  0  0
  -16.7295  -28.6506   23.0358 C   0  0  0  0  0  0
  -26.4537  -31.6556   25.0712 C   0  0  0  0  0  0
  -25.3703  -31.3761   26.1394 C   0  0  0  0  0  0
  -27.0415  -30.2944   24.6340 C   0  0  0  0  0  0
  -27.6052  -32.4336   25.7505 C   0  0  0  0  0  0
  -27.5574  -37.1778   24.8466 C   0  0  0  0  0  0
  -21.4283  -29.3047   22.3585 N   0  0  0  0  0  0
  -26.4285  -37.3733   23.9408 N   0  0  0  0  0  0
  -24.7272  -31.0188   22.0892 N   0  0  0  0  0  0
  -23.4212  -28.8076   23.3018 O   0  0  0  0  0  0
  -28.2537  -26.0582   20.2310 O   0  0  0  0  0  0
  -26.5676  -34.8900   22.4631 O   0  0  0  0  0  0
  -23.5594  -32.1287   23.7016 O   0  0  0  0  0  0
  -31.3891  -18.1824   20.5585 C   0  0  0  0  0  0
  -30.8573  -20.6137   20.4842 C   0  0  0  0  0  0
  -29.1054  -18.9473   20.3732 C   0  0  0  0  0  0
  -31.7880  -19.5459   20.5785 C   0  0  0  0  0  0
  -30.0407  -17.7703   20.4610 C   0  0  0  0  0  0
  -29.4666  -20.4096   20.3746 C   0  0  0  0  0  0
  -27.9638  -24.5032   20.1109 C   0  0  0  0  0  0
  -28.9798  -23.1284   20.3311 C   0  0  0  0  0  0
  -33.2703  -19.8823   20.6854 C   0  0  0  0  0  0
  -29.7381  -16.2370   20.4856 N   0  0  0  0  0  0
  -28.5852  -21.6001   20.2728 O   0  0  0  0  0  0
  -33.9568  -18.9036   21.2768 F   0  0  0  0  0  0
  -33.7672  -20.0704   19.4635 F   0  0  0  0  0  0
  -33.4543  -20.9968   21.3948 F   0  0  0  0  0  0
  -31.4694  -12.8067   19.1859 H   0  0  0  0  0  0
  -30.4484  -11.7015   20.0592 H   0  0  0  0  0  0
  -29.8562  -11.7282   17.6095 H   0  0  0  0  0  0
  -29.5967  -13.4540   17.6751 H   0  0  0  0  0  0
  -27.9707  -11.2719   19.0088 H   0  0  0  0  0  0
  -27.3940  -12.4172   17.8259 H   0  0  0  0  0  0
  -27.5730  -14.2472   19.3836 H   0  0  0  0  0  0
  -28.7741  -12.3597   21.4674 H   0  0  0  0  0  0
  -28.3524  -14.0367   21.7329 H   0  0  0  0  0  0
  -25.2771   -9.5682   22.4768 H   0  0  0  0  0  0
  -24.0006   -7.4634   22.7477 H   0  0  0  0  0  0
  -21.0854   -8.8781   19.8952 H   0  0  0  0  0  0
  -22.3715  -10.9676   19.6171 H   0  0  0  0  0  0
  -21.2008   -7.6150   23.9717 H   0  0  0  0  0  0
  -21.1482   -6.0525   25.9078 H   0  0  0  0  0  0
  -22.0597   -2.7611   23.2846 H   0  0  0  0  0  0
  -22.4066  -11.9855   22.4833 H   0  0  0  0  0  0
  -21.1052  -13.1204   22.2651 H   0  0  0  0  0  0
  -24.6329  -15.8416   20.5185 H   0  0  0  0  0  0
  -26.2405  -15.6367   20.0454 H   0  0  0  0  0  0
  -26.7305  -32.5252   23.0969 H   0  0  0  0  0  0
  -25.0075  -33.9579   25.0283 H   0  0  0  0  0  0
  -22.7613  -31.2836   21.3712 H   0  0  0  0  0  0
  -23.3761  -35.9564   23.3289 H   0  0  0  0  0  0
  -24.3575  -36.8895   22.2062 H   0  0  0  0  0  0
  -23.7240  -37.6426   23.6699 H   0  0  0  0  0  0
  -26.1793  -31.4456   20.6169 H   0  0  0  0  0  0
  -26.8831  -30.7453   22.0372 H   0  0  0  0  0  0
  -28.1393  -28.7442   21.2438 H   0  0  0  0  0  0
  -25.8959  -25.8094   19.0124 H   0  0  0  0  0  0
  -23.9833  -27.2878   18.9790 H   0  0  0  0  0  0
  -23.8283  -30.5552   19.3952 H   0  0  0  0  0  0
  -22.7991  -29.2282   19.8381 H   0  0  0  0  0  0
  -25.1318  -36.1832   25.0803 H   0  0  0  0  0  0
  -21.0020  -28.3330   24.1343 H   0  0  0  0  0  0
  -20.5687  -26.2349   23.3631 H   0  0  0  0  0  0
  -21.6658  -26.7428   22.1201 H   0  0  0  0  0  0
  -19.6925  -25.6285   21.1264 H   0  0  0  0  0  0
  -19.6701  -27.3177   20.6733 H   0  0  0  0  0  0
  -17.4216  -26.6684   21.4030 H   0  0  0  0  0  0
  -18.0343  -26.0089   22.9030 H   0  0  0  0  0  0
  -19.7957  -30.7307   24.2223 H   0  0  0  0  0  0
  -17.5028  -31.6272   24.5167 H   0  0  0  0  0  0
  -15.5367  -30.2977   23.7679 H   0  0  0  0  0  0
  -15.8696  -28.0814   22.7088 H   0  0  0  0  0  0
  -24.5897  -30.7095   25.7710 H   0  0  0  0  0  0
  -24.8877  -32.2948   26.4738 H   0  0  0  0  0  0
  -25.7970  -30.8988   27.0225 H   0  0  0  0  0  0
  -26.3052  -29.6649   24.1331 H   0  0  0  0  0  0
  -27.3989  -29.7264   25.4940 H   0  0  0  0  0  0
  -27.8975  -30.4163   23.9699 H   0  0  0  0  0  0
  -27.2636  -33.3664   26.2004 H   0  0  0  0  0  0
  -28.3906  -32.6853   25.0365 H   0  0  0  0  0  0
  -28.0675  -31.8516   26.5488 H   0  0  0  0  0  0
  -28.2580  -38.0084   24.7512 H   0  0  0  0  0  0
  -28.1081  -36.2612   24.6296 H   0  0  0  0  0  0
  -27.2291  -37.1425   25.8869 H   0  0  0  0  0  0
  -20.9507  -29.8749   21.6745 H   0  0  0  0  0  0
  -26.0146  -38.2798   24.1411 H   0  0  0  0  0  0
  -32.1672  -17.4393   20.6311 H   0  0  0  0  0  0
  -31.2464  -21.6202   20.4947 H   0  0  0  0  0  0
  -28.0514  -18.7203   20.2977 H   0  0  0  0  0  0
  -27.1151  -24.3368   20.7749 H   0  0  0  0  0  0
  -27.5594  -24.3738   19.1076 H   0  0  0  0  0  0
  -29.4508  -23.2569   21.3057 H   0  0  0  0  0  0
  -29.7920  -23.2449   19.6135 H   0  0  0  0  0  0
  -28.7547  -16.0270   20.5658 H   0  0  0  0  0  0
  1 25  1  0  0  0
  1 30  2  0  0  0
  1 80  1  0  0  0
  2  3  1  0  0  0
  2 25  1  0  0  0
  2 85  1  0  0  0
  2 86  1  0  0  0
  3  4  1  0  0  0
  3 87  1  0  0  0
  3 88  1  0  0  0
  4  5  1  0  0  0
  4 89  1  0  0  0
  4 90  1  0  0  0
  5  6  1  0  0  0
  5 26  1  0  0  0
  5 91  1  0  0  0
  6 25  1  0  0  0
  6 92  1  0  0  0
  6 93  1  0  0  0
  7  8  2  0  0  0
  7 26  1  0  0  0
  7 29  1  0  0  0
  8  9  1  0  0  0
  8 22  1  0  0  0
  9 10  1  0  0  0
  9 27  2  0  0  0
 10 11  2  0  0  0
 10 15  1  0  0  0
 11 12  1  0  0  0
 11 94  1  0  0  0
 12 13  2  0  0  0
 12 95  1  0  0  0
 13 14  1  0  0  0
 13 31  1  0  0  0
 14 15  2  0  0  0
 14 96  1  0  0  0
 15 97  1  0  0  0
 16 17  2  0  0  0
 16 21  1  0  0  0
 16 31  1  0  0  0
 17 18  1  0  0  0
 17 98  1  0  0  0
 18 19  2  0  0  0
 18 99  1  0  0  0
 19 20  1  0  0  0
 19 24  1  0  0  0
 20 21  2  0  0  0
 20100  1  0  0  0
 21 23  1  0  0  0
 22 28  1  0  0  0
 22 32  2  0  0  0
 26 27  1  0  0  0
 28101  1  0  0  0
 28102  1  0  0  0
 29103  1  0  0  0
 29104  1  0  0  0
 33 34  1  0  0  0
 33 66  1  0  0  0
 33 70  2  0  0  0
 34 36  1  0  0  0
 34 59  1  0  0  0
 34105  1  0  0  0
 35 44  2  0  0  0
 35 45  1  0  0  0
 35 68  1  0  0  0
 36 56  1  0  0  0
 36106  1  0  0  0
 37 39  1  0  0  0
 37 47  1  0  0  0
 37 66  1  0  0  0
 37107  1  0  0  0
 38 43  2  0  0  0
 38 46  1  0  0  0
 38 47  1  0  0  0
 39 64  1  0  0  0
 39 67  2  0  0  0
 40 52  1  0  0  0
 40 53  2  0  0  0
 40 58  1  0  0  0
 41108  1  0  0  0
 41109  1  0  0  0
 41110  1  0  0  0
 41 48  1  0  0  0
 42 43  1  0  0  0
 42 66  1  0  0  0
 42111  1  0  0  0
 42112  1  0  0  0
 43 44  1  0  0  0
 44113  1  0  0  0
 45 46  2  0  0  0
 45114  1  0  0  0
 46115  1  0  0  0
 47116  1  0  0  0
 47117  1  0  0  0
 48 56  1  0  0  0
 48 65  1  0  0  0
 48118  1  0  0  0
 49 50  1  0  0  0
 49 53  1  0  0  0
 49 64  1  0  0  0
 49119  1  0  0  0
 50 51  1  0  0  0
 50120  1  0  0  0
 50121  1  0  0  0
 51 52  1  0  0  0
 51122  1  0  0  0
 51123  1  0  0  0
 52124  1  0  0  0
 52125  1  0  0  0
 53 54  1  0  0  0
 54 55  2  0  0  0
 54126  1  0  0  0
 55 57  1  0  0  0
 55127  1  0  0  0
 56 69  2  0  0  0
 57 58  2  0  0  0
 57128  1  0  0  0
 58129  1  0  0  0
 59 60  1  0  0  0
 59 61  1  0  0  0
 59 62  1  0  0  0
 60130  1  0  0  0
 60131  1  0  0  0
 60132  1  0  0  0
 61133  1  0  0  0
 61134  1  0  0  0
 61135  1  0  0  0
 62136  1  0  0  0
 62137  1  0  0  0
 62138  1  0  0  0
 63 65  1  0  0  0
 63139  1  0  0  0
 63140  1  0  0  0
 63141  1  0  0  0
 64142  1  0  0  0
 65143  1  0  0  0
 68 77  1  0  0  0
 71 74  2  0  0  0
 71 75  1  0  0  0
 71144  1  0  0  0
 72 74  1  0  0  0
 72 76  2  0  0  0
 72145  1  0  0  0
 73 75  2  0  0  0
 73 76  1  0  0  0
 73146  1  0  0  0
 74 79  1  0  0  0
 75 80  1  0  0  0
 76 81  1  0  0  0
 77 78  1  0  0  0
 77147  1  0  0  0
 77148  1  0  0  0
 78 81  1  0  0  0
 78149  1  0  0  0
 78150  1  0  0  0
 79 82  1  0  0  0
 79 83  1  0  0  0
 79 84  1  0  0  0
 80151  1  0  0  0
M  ISO  4   1 100  68 101  77 101  80 100
M  END
> <chiral flag>
0

> <version>
0

> <s_m_source_file>
/data/baiqing/PycharmProjects/Reinvent-master-3.2/result/LINK_invent/BTK/process_docking_weight1_custom_product_contain_oxygen_bond_distance_aromatic_linkinvent_7_9_3/rearranged_h_0004.sdf

> <i_m_source_file_index>
35

> <r_mmod_Potential_Energy-OPLS-2005>
648.157043457031

> <r_mmod_Stretch_Energy-OPLS-2005>
331.558990478516

> <r_mmod_Bend_Energy-OPLS-2005>
282.4345703125

> <r_mmod_Torsional_Energy-OPLS-2005>
210.221786499023

> <r_mmod_Improper_Torsional_Energy-OPLS-2005>
4.89591407775879

> <r_mmod_Van_der_Waal_Energy-OPLS-2005>
135.702835083008

> <r_mmod_Electrostatic_Energy-OPLS-2005>
-353.998443603516

> <r_mmod_Solvation_Energy-OPLS-2005>
-211.974334716797

> <b_mmod_Minimization_Converged-OPLS-2005>
0

> <r_mmod_RMS_Derivative-OPLS-2005>
0.242191195487976

$$$$
35
                    3D
 Structure written by MMmdl.
151159  0  0  1  0            999 V2000
  -30.6183  -14.6884   20.5139 C   0  0  0  0  0  0
  -30.4359  -12.4337   19.4638 C   0  0  0  0  0  0
  -29.5135  -12.5566   18.2311 C   0  0  0  0  0  0
  -28.0372  -12.3840   18.6297 C   0  0  0  0  0  0
  -27.6555  -13.2329   19.8715 C   0  0  2  0  0  0
  -28.6981  -13.0967   21.0054 C   0  0  0  0  0  0
  -25.2556  -13.8210   20.5713 C   0  0  0  0  0  0
  -24.1819  -13.0449   20.9188 C   0  0  0  0  0  0
  -24.6435  -11.6934   20.8744 C   0  0  0  0  0  0
  -23.9092  -10.4291   21.0363 C   0  0  0  0  0  0
  -24.3651   -9.4206   21.9131 C   0  0  0  0  0  0
  -23.6309   -8.2257   22.0720 C   0  0  0  0  0  0
  -22.4288   -8.0293   21.3541 C   0  0  0  0  0  0
  -21.9934   -9.0258   20.4628 C   0  0  0  0  0  0
  -22.7273  -10.2129   20.3016 C   0  0  0  0  0  0
  -21.6874   -6.0737   22.5277 C   0  0  0  0  0  0
  -21.4030   -6.5634   23.8203 C   0  0  0  0  0  0
  -21.3679   -5.6772   24.9165 C   0  0  0  0  0  0
  -21.6040   -4.3054   24.7207 C   0  0  0  0  0  0
  -21.8837   -3.8139   23.4323 C   0  0  0  0  0  0
  -21.9204   -4.6962   22.3389 C   0  0  0  0  0  0
  -22.7831  -13.5241   21.1808 C   0  0  0  0  0  0
  -22.1651   -4.2152   21.0969 F   0  0  0  0  0  0
  -21.5636   -3.4527   25.7714 F   0  0  0  0  0  0
  -30.0159  -13.4528   20.4529 N   0  0  0  0  0  0
  -26.3007  -12.9411   20.3353 N   0  0  0  0  0  0
  -25.9377  -11.6563   20.5761 N   0  0  0  0  0  0
  -22.0454  -12.8264   22.0419 N   0  0  0  0  0  0
  -25.4261  -15.1926   20.4188 N   0  0  0  0  0  0
  -31.7466  -14.8581   20.0396 O   0  0  0  0  0  0
  -21.6664   -6.8882   21.4224 O   0  0  0  0  0  0
  -22.3495  -14.5516   20.6631 O   0  0  0  0  0  0
  -24.6263  -31.8598   23.1996 C   0  0  0  0  0  0
  -25.9118  -32.4779   23.8327 C   0  0  1  0  0  0
  -27.2440  -27.3066   20.1323 C   0  0  0  0  0  0
  -25.5949  -33.8587   24.2276 N   0  0  0  0  0  0
  -23.4204  -30.4782   21.5458 C   0  0  2  0  0  0
  -24.8716  -28.9196   20.1219 C   0  0  0  0  0  0
  -22.7472  -29.4642   22.4998 C   0  0  0  0  0  0
  -18.0303  -28.1373   22.8479 C   0  0  0  0  0  0
  -24.1504  -36.7279   23.2632 C   0  0  0  0  0  0
  -25.9629  -30.7810   21.3774 C   0  0  0  0  0  0
  -26.0393  -29.4068   20.7226 C   0  0  0  0  0  0
  -27.2260  -28.6130   20.7158 C   0  0  0  0  0  0
  -26.0486  -26.8692   19.5151 C   0  0  0  0  0  0
  -24.8787  -27.6550   19.5111 C   0  0  0  0  0  0
  -23.6351  -29.7970   20.1681 C   0  0  0  0  0  0
  -25.4137  -36.3092   24.0332 C   0  0  1  0  0  0
  -20.5892  -28.3685   23.1288 C   0  0  2  0  0  0
  -20.6825  -26.9422   22.5401 C   0  0  0  0  0  0
  -19.5800  -26.6366   21.5226 C   0  0  0  0  0  0
  -18.1971  -26.7919   22.1604 C   0  0  0  0  0  0
  -19.1543  -28.8850   23.2867 C   0  0  0  0  0  0
  -18.9471  -30.1464   23.8859 C   0  0  0  0  0  0
  -17.6464  -30.6574   24.0553 C   0  0  0  0  0  0
  -25.9078  -34.9468   23.5103 C   0  0  0  0  0  0
  -16.5364  -29.9063   23.6332 C   0  0  0  0  0  0
  -16.7285  -28.6480   23.0351 C   0  0  0  0  0  0
  -26.4481  -31.6589   25.0709 C   0  0  0  0  0  0
  -25.3699  -31.3732   26.1424 C   0  0  0  0  0  0
  -27.0354  -30.3025   24.6179 C   0  0  0  0  0  0
  -27.6045  -32.4320   25.7470 C   0  0  0  0  0  0
  -27.5609  -37.1794   24.8455 C   0  0  0  0  0  0
  -21.4202  -29.3019   22.3689 N   0  0  0  0  0  0
  -26.4304  -37.3797   23.9413 N   0  0  0  0  0  0
  -24.6886  -31.0584   22.0967 N   0  0  0  0  0  0
  -23.4166  -28.8224   23.3136 O   0  0  0  0  0  0
  -28.3839  -26.4785   20.1614 O   0  0  0  0  0  0
  -26.5641  -34.8918   22.4668 O   0  0  0  0  0  0
  -23.5438  -32.1430   23.7307 O   0  0  0  0  0  0
  -30.3063  -17.7857   19.5591 C   0  0  0  0  0  0
  -29.3834  -18.0960   21.7608 C   0  0  0  0  0  0
  -30.1503  -19.1846   19.3131 C   0  0  0  0  0  0
  -29.2632  -19.5058   21.5264 C   0  0  0  0  0  0
  -29.9033  -17.1873   20.7885 C   0  0  0  0  0  0
  -29.6223  -20.0930   20.2781 C   0  0  0  0  0  0
  -29.4960  -24.0739   20.3620 C   0  0  0  0  0  0
  -29.4037  -22.5508   20.8796 C   0  0  0  0  0  0
  -28.2090  -25.0020   20.2058 C   0  0  0  0  0  0
  -29.8978  -15.7332   21.0433 N   0  0  0  0  0  0
  -29.4531  -21.4503   19.9079 O   0  0  0  0  0  0
  -31.4753  -12.5568   19.1615 H   0  0  0  0  0  0
  -30.3658  -11.4324   19.8887 H   0  0  0  0  0  0
  -29.7913  -11.8247   17.4695 H   0  0  0  0  0  0
  -29.6525  -13.5380   17.7753 H   0  0  0  0  0  0
  -27.8735  -11.3263   18.8296 H   0  0  0  0  0  0
  -27.3910  -12.6356   17.7882 H   0  0  0  0  0  0
  -27.6693  -14.2727   19.5484 H   0  0  0  0  0  0
  -28.7155  -12.0734   21.3863 H   0  0  0  0  0  0
  -28.4291  -13.7289   21.8511 H   0  0  0  0  0  0
  -25.2775   -9.5720   22.4711 H   0  0  0  0  0  0
  -24.0047   -7.4666   22.7467 H   0  0  0  0  0  0
  -21.0850   -8.8770   19.8950 H   0  0  0  0  0  0
  -22.3685  -10.9673   19.6153 H   0  0  0  0  0  0
  -21.2008   -7.6126   23.9721 H   0  0  0  0  0  0
  -21.1483   -6.0488   25.9079 H   0  0  0  0  0  0
  -22.0594   -2.7597   23.2816 H   0  0  0  0  0  0
  -22.4062  -11.9965   22.4895 H   0  0  0  0  0  0
  -21.1051  -13.1241   22.2523 H   0  0  0  0  0  0
  -24.6665  -15.8532   20.5436 H   0  0  0  0  0  0
  -26.2856  -15.6363   20.1247 H   0  0  0  0  0  0
  -26.7180  -32.5417   23.1067 H   0  0  0  0  0  0
  -25.0177  -33.9724   25.0473 H   0  0  0  0  0  0
  -22.7144  -31.2989   21.3978 H   0  0  0  0  0  0
  -23.3803  -35.9568   23.3274 H   0  0  0  0  0  0
  -24.3602  -36.8921   22.2046 H   0  0  0  0  0  0
  -23.7201  -37.6453   23.6661 H   0  0  0  0  0  0
  -26.1067  -31.5404   20.6075 H   0  0  0  0  0  0
  -26.8363  -30.8237   22.0166 H   0  0  0  0  0  0
  -28.1177  -28.9868   21.2001 H   0  0  0  0  0  0
  -25.9934  -25.9038   19.0360 H   0  0  0  0  0  0
  -23.9843  -27.2690   19.0415 H   0  0  0  0  0  0
  -23.7403  -30.5632   19.4004 H   0  0  0  0  0  0
  -22.7556  -29.2188   19.8770 H   0  0  0  0  0  0
  -25.1316  -36.1953   25.0827 H   0  0  0  0  0  0
  -20.9965  -28.3272   24.1415 H   0  0  0  0  0  0
  -20.5799  -26.2308   23.3595 H   0  0  0  0  0  0
  -21.6692  -26.7520   22.1159 H   0  0  0  0  0  0
  -19.6998  -25.6281   21.1261 H   0  0  0  0  0  0
  -19.6737  -27.3157   20.6745 H   0  0  0  0  0  0
  -17.4273  -26.6667   21.3983 H   0  0  0  0  0  0
  -18.0346  -26.0029   22.8950 H   0  0  0  0  0  0
  -19.7957  -30.7303   24.2150 H   0  0  0  0  0  0
  -17.5032  -31.6249   24.5162 H   0  0  0  0  0  0
  -15.5365  -30.2946   23.7697 H   0  0  0  0  0  0
  -15.8687  -28.0785   22.7088 H   0  0  0  0  0  0
  -24.5841  -30.7139   25.7725 H   0  0  0  0  0  0
  -24.8923  -32.2906   26.4872 H   0  0  0  0  0  0
  -25.7975  -30.8855   27.0188 H   0  0  0  0  0  0
  -26.2957  -29.6747   24.1210 H   0  0  0  0  0  0
  -27.4094  -29.7292   25.4666 H   0  0  0  0  0  0
  -27.8785  -30.4337   23.9399 H   0  0  0  0  0  0
  -27.2672  -33.3616   26.2050 H   0  0  0  0  0  0
  -28.3834  -32.6889   25.0286 H   0  0  0  0  0  0
  -28.0734  -31.8453   26.5370 H   0  0  0  0  0  0
  -28.2593  -38.0129   24.7612 H   0  0  0  0  0  0
  -28.1151  -36.2687   24.6170 H   0  0  0  0  0  0
  -27.2338  -37.1292   25.8850 H   0  0  0  0  0  0
  -20.9436  -29.8639   21.6781 H   0  0  0  0  0  0
  -26.0207  -38.2871   24.1430 H   0  0  0  0  0  0
  -30.7036  -17.1789   18.7545 H   0  0  0  0  0  0
  -29.0400  -17.7192   22.7203 H   0  0  0  0  0  0
  -30.4406  -19.5683   18.3432 H   0  0  0  0  0  0
  -28.8440  -20.1135   22.3196 H   0  0  0  0  0  0
  -30.0759  -24.0950   19.4386 H   0  0  0  0  0  0
  -30.1279  -24.5954   21.0820 H   0  0  0  0  0  0
  -28.5720  -22.4378   21.5775 H   0  0  0  0  0  0
  -30.3014  -22.3971   21.4825 H   0  0  0  0  0  0
  -27.5390  -24.7864   21.0384 H   0  0  0  0  0  0
  -27.7049  -24.6696   19.3012 H   0  0  0  0  0  0
  -29.1493  -15.4223   21.6469 H   0  0  0  0  0  0
  1 25  1  0  0  0
  1 30  2  0  0  0
  1 80  1  0  0  0
  2  3  1  0  0  0
  2 25  1  0  0  0
  2 82  1  0  0  0
  2 83  1  0  0  0
  3  4  1  0  0  0
  3 84  1  0  0  0
  3 85  1  0  0  0
  4  5  1  0  0  0
  4 86  1  0  0  0
  4 87  1  0  0  0
  5  6  1  0  0  0
  5 26  1  0  0  0
  5 88  1  0  0  0
  6 25  1  0  0  0
  6 89  1  0  0  0
  6 90  1  0  0  0
  7  8  2  0  0  0
  7 26  1  0  0  0
  7 29  1  0  0  0
  8  9  1  0  0  0
  8 22  1  0  0  0
  9 10  1  0  0  0
  9 27  2  0  0  0
 10 11  2  0  0  0
 10 15  1  0  0  0
 11 12  1  0  0  0
 11 91  1  0  0  0
 12 13  2  0  0  0
 12 92  1  0  0  0
 13 14  1  0  0  0
 13 31  1  0  0  0
 14 15  2  0  0  0
 14 93  1  0  0  0
 15 94  1  0  0  0
 16 17  2  0  0  0
 16 21  1  0  0  0
 16 31  1  0  0  0
 17 18  1  0  0  0
 17 95  1  0  0  0
 18 19  2  0  0  0
 18 96  1  0  0  0
 19 20  1  0  0  0
 19 24  1  0  0  0
 20 21  2  0  0  0
 20 97  1  0  0  0
 21 23  1  0  0  0
 22 28  1  0  0  0
 22 32  2  0  0  0
 26 27  1  0  0  0
 28 98  1  0  0  0
 28 99  1  0  0  0
 29100  1  0  0  0
 29101  1  0  0  0
 33 34  1  0  0  0
 33 66  1  0  0  0
 33 70  2  0  0  0
 34 36  1  0  0  0
 34 59  1  0  0  0
 34102  1  0  0  0
 35 44  2  0  0  0
 35 45  1  0  0  0
 35 68  1  0  0  0
 36 56  1  0  0  0
 36103  1  0  0  0
 37 39  1  0  0  0
 37 47  1  0  0  0
 37 66  1  0  0  0
 37104  1  0  0  0
 38 43  2  0  0  0
 38 46  1  0  0  0
 38 47  1  0  0  0
 39 64  1  0  0  0
 39 67  2  0  0  0
 40 52  1  0  0  0
 40 53  2  0  0  0
 40 58  1  0  0  0
 41105  1  0  0  0
 41106  1  0  0  0
 41107  1  0  0  0
 41 48  1  0  0  0
 42 43  1  0  0  0
 42 66  1  0  0  0
 42108  1  0  0  0
 42109  1  0  0  0
 43 44  1  0  0  0
 44110  1  0  0  0
 45 46  2  0  0  0
 45111  1  0  0  0
 46112  1  0  0  0
 47113  1  0  0  0
 47114  1  0  0  0
 48 56  1  0  0  0
 48 65  1  0  0  0
 48115  1  0  0  0
 49 50  1  0  0  0
 49 53  1  0  0  0
 49 64  1  0  0  0
 49116  1  0  0  0
 50 51  1  0  0  0
 50117  1  0  0  0
 50118  1  0  0  0
 51 52  1  0  0  0
 51119  1  0  0  0
 51120  1  0  0  0
 52121  1  0  0  0
 52122  1  0  0  0
 53 54  1  0  0  0
 54 55  2  0  0  0
 54123  1  0  0  0
 55 57  1  0  0  0
 55124  1  0  0  0
 56 69  2  0  0  0
 57 58  2  0  0  0
 57125  1  0  0  0
 58126  1  0  0  0
 59 60  1  0  0  0
 59 61  1  0  0  0
 59 62  1  0  0  0
 60127  1  0  0  0
 60128  1  0  0  0
 60129  1  0  0  0
 61130  1  0  0  0
 61131  1  0  0  0
 61132  1  0  0  0
 62133  1  0  0  0
 62134  1  0  0  0
 62135  1  0  0  0
 63 65  1  0  0  0
 63136  1  0  0  0
 63137  1  0  0  0
 63138  1  0  0  0
 64139  1  0  0  0
 65140  1  0  0  0
 68 79  1  0  0  0
 71 73  2  0  0  0
 71 75  1  0  0  0
 71141  1  0  0  0
 72 74  1  0  0  0
 72 75  2  0  0  0
 72142  1  0  0  0
 73 76  1  0  0  0
 73143  1  0  0  0
 74 76  2  0  0  0
 74144  1  0  0  0
 75 80  1  0  0  0
 76 81  1  0  0  0
 77 78  1  0  0  0
 77 79  1  0  0  0
 77145  1  0  0  0
 77146  1  0  0  0
 78 81  1  0  0  0
 78147  1  0  0  0
 78148  1  0  0  0
 79149  1  0  0  0
 79150  1  0  0  0
 80151  1  0  0  0
M  ISO  4   1 100  68 101  79 101  80 100
M  END
> <chiral flag>
0

> <version>
0

> <s_m_source_file>
/data/baiqing/PycharmProjects/Reinvent-master-3.2/result/LINK_invent/BTK/process_docking_weight1_custom_product_contain_oxygen_bond_distance_aromatic_linkinvent_7_9_3/rearranged_h_0004.sdf

> <i_m_source_file_index>
36

> <r_mmod_Potential_Energy-OPLS-2005>
87.3086853027344

> <r_mmod_Stretch_Energy-OPLS-2005>
91.08984375

> <r_mmod_Bend_Energy-OPLS-2005>
159.319290161133

> <r_mmod_Torsional_Energy-OPLS-2005>
236.013916015625

> <r_mmod_Improper_Torsional_Energy-OPLS-2005>
3.05807876586914

> <r_mmod_Van_der_Waal_Energy-OPLS-2005>
138.714782714844

> <r_mmod_Electrostatic_Energy-OPLS-2005>
-383.976654052734

> <r_mmod_Solvation_Energy-OPLS-2005>
-214.270523071289

> <b_mmod_Minimization_Converged-OPLS-2005>
0

> <r_mmod_RMS_Derivative-OPLS-2005>
5.72391843795776

$$$$
36
                    3D
 Structure written by MMmdl.
177187  0  0  1  0            999 V2000
  -30.7715  -14.3896   20.6504 C   0  0  0  0  0  0
  -30.4092  -12.2940   19.4068 C   0  0  0  0  0  0
  -29.4811  -12.5068   18.1964 C   0  0  0  0  0  0
  -28.0066  -12.3673   18.6152 C   0  0  0  0  0  0
  -27.6588  -13.2074   19.8724 C   0  0  2  0  0  0
  -28.6982  -12.9864   20.9940 C   0  0  0  0  0  0
  -25.2570  -13.8161   20.5693 C   0  0  0  0  0  0
  -24.1821  -13.0434   20.9169 C   0  0  0  0  0  0
  -24.6381  -11.6900   20.8718 C   0  0  0  0  0  0
  -23.9048  -10.4289   21.0385 C   0  0  0  0  0  0
  -24.3602   -9.4214   21.9173 C   0  0  0  0  0  0
  -23.6284   -8.2247   22.0752 C   0  0  0  0  0  0
  -22.4268   -8.0271   21.3543 C   0  0  0  0  0  0
  -21.9898   -9.0238   20.4644 C   0  0  0  0  0  0
  -22.7215  -10.2123   20.3050 C   0  0  0  0  0  0
  -21.6849   -6.0728   22.5276 C   0  0  0  0  0  0
  -21.4018   -6.5636   23.8206 C   0  0  0  0  0  0
  -21.3661   -5.6789   24.9167 C   0  0  0  0  0  0
  -21.6037   -4.3051   24.7217 C   0  0  0  0  0  0
  -21.8825   -3.8146   23.4342 C   0  0  0  0  0  0
  -21.9195   -4.6961   22.3397 C   0  0  0  0  0  0
  -22.7847  -13.5232   21.1827 C   0  0  0  0  0  0
  -22.1661   -4.2146   21.0975 F   0  0  0  0  0  0
  -21.5628   -3.4538   25.7734 F   0  0  0  0  0  0
  -30.0365  -13.2665   20.4461 N   0  0  0  0  0  0
  -26.2999  -12.9339   20.3345 N   0  0  0  0  0  0
  -25.9306  -11.6496   20.5737 N   0  0  0  0  0  0
  -22.0489  -12.8228   22.0384 N   0  0  0  0  0  0
  -25.4304  -15.1883   20.4152 N   0  0  0  0  0  0
  -31.8450  -14.5977   20.0834 O   0  0  0  0  0  0
  -21.6640   -6.8869   21.4235 O   0  0  0  0  0  0
  -22.3527  -14.5532   20.6668 O   0  0  0  0  0  0
  -24.6134  -31.8692   23.2119 C   0  0  0  0  0  0
  -25.9022  -32.4833   23.8401 C   0  0  1  0  0  0
  -27.2249  -27.4368   20.0903 C   0  0  0  0  0  0
  -25.5882  -33.8625   24.2336 N   0  0  0  0  0  0
  -23.3976  -30.4966   21.5551 C   0  0  2  0  0  0
  -24.8380  -28.9629   20.1200 C   0  0  0  0  0  0
  -22.7395  -29.4667   22.5009 C   0  0  0  0  0  0
  -18.0268  -28.1370   22.8480 C   0  0  0  0  0  0
  -24.1496  -36.7327   23.2644 C   0  0  0  0  0  0
  -25.9251  -30.8396   21.3572 C   0  0  0  0  0  0
  -26.0003  -29.4720   20.7100 C   0  0  0  0  0  0
  -27.1942  -28.7174   20.6904 C   0  0  0  0  0  0
  -26.0356  -26.9387   19.5042 C   0  0  0  0  0  0
  -24.8501  -27.6953   19.5181 C   0  0  0  0  0  0
  -23.6032  -29.8333   20.1679 C   0  0  0  0  0  0
  -25.4111  -36.3109   24.0343 C   0  0  1  0  0  0
  -20.5860  -28.3640   23.1337 C   0  0  2  0  0  0
  -20.6771  -26.9385   22.5422 C   0  0  0  0  0  0
  -19.5761  -26.6382   21.5210 C   0  0  0  0  0  0
  -18.1925  -26.7928   22.1604 C   0  0  0  0  0  0
  -19.1523  -28.8824   23.2907 C   0  0  0  0  0  0
  -18.9447  -30.1429   23.8908 C   0  0  0  0  0  0
  -17.6453  -30.6581   24.0570 C   0  0  0  0  0  0
  -25.9028  -34.9483   23.5139 C   0  0  0  0  0  0
  -16.5337  -29.9076   23.6338 C   0  0  0  0  0  0
  -16.7270  -28.6510   23.0341 C   0  0  0  0  0  0
  -26.4493  -31.6584   25.0696 C   0  0  0  0  0  0
  -25.3786  -31.3614   26.1453 C   0  0  0  0  0  0
  -27.0342  -30.3070   24.5987 C   0  0  0  0  0  0
  -27.6081  -32.4297   25.7436 C   0  0  0  0  0  0
  -27.5598  -37.1795   24.8464 C   0  0  0  0  0  0
  -21.4132  -29.3022   22.3742 N   0  0  0  0  0  0
  -26.4307  -37.3785   23.9418 N   0  0  0  0  0  0
  -24.6651  -31.0805   22.1022 N   0  0  0  0  0  0
  -23.4173  -28.8174   23.3013 O   0  0  0  0  0  0
  -28.4295  -26.7621   20.0783 O   0  0  0  0  0  0
  -26.5592  -34.8922   22.4701 O   0  0  0  0  0  0
  -23.5332  -32.1444   23.7523 O   0  0  0  0  0  0
  -32.7063  -19.0333   16.0882 C   0  0  0  0  0  0
  -32.0099  -20.2577   15.9488 C   0  0  0  0  0  0
  -32.5346  -18.2218   17.2391 C   0  0  0  0  0  0
  -31.1110  -20.6395   16.9617 C   0  0  0  0  0  0
  -31.6367  -18.6028   18.2622 C   0  0  0  0  0  0
  -30.9317  -19.7945   18.0552 C   0  0  0  0  0  0
  -28.9854  -20.4135   21.3215 C   0  0  0  0  0  0
  -30.2729  -21.8800   17.1902 C   0  0  0  0  0  0
  -31.4435  -17.9262   19.6242 C   0  0  0  0  0  0
  -29.8247  -21.7980   18.6608 C   0  0  0  0  0  0
  -29.8931  -20.2980   19.0063 C   0  0  2  0  0  0
  -30.1528  -19.8757   20.4668 C   0  0  2  0  0  0
  -27.6307  -23.5358   21.5517 C   0  0  0  0  0  0
  -28.6962  -24.6070   21.2257 C   0  0  0  0  0  0
  -28.1241  -22.4400   22.5217 C   0  0  0  0  0  0
  -31.0267  -16.4048   22.0964 C   0  0  0  0  0  0
  -30.4292  -17.8323   21.9098 C   0  0  0  0  0  0
  -28.4801  -25.3441   19.8867 C   0  0  0  0  0  0
  -29.1590  -21.6161   21.8944 N   0  0  0  0  0  0
  -30.2641  -15.2932   21.5048 N   0  0  0  0  0  0
  -30.3309  -18.3848   20.5142 N   0  3  2  0  0  0
  -27.9296  -19.7813   21.4000 O   0  0  0  0  0  0
  -31.4526  -12.3840   19.0975 H   0  0  0  0  0  0
  -30.3042  -11.2798   19.7960 H   0  0  0  0  0  0
  -29.7151  -11.7843   17.4133 H   0  0  0  0  0  0
  -29.6518  -13.4943   17.7640 H   0  0  0  0  0  0
  -27.8192  -11.3112   18.8127 H   0  0  0  0  0  0
  -27.3520  -12.6391   17.7866 H   0  0  0  0  0  0
  -27.7056  -14.2556   19.5760 H   0  0  0  0  0  0
  -28.6595  -11.9550   21.3463 H   0  0  0  0  0  0
  -28.4490  -13.5984   21.8621 H   0  0  0  0  0  0
  -25.2747   -9.5691   22.4739 H   0  0  0  0  0  0
  -23.9991   -7.4644   22.7480 H   0  0  0  0  0  0
  -21.0828   -8.8746   19.8953 H   0  0  0  0  0  0
  -22.3661  -10.9656   19.6155 H   0  0  0  0  0  0
  -21.2018   -7.6147   23.9705 H   0  0  0  0  0  0
  -21.1475   -6.0523   25.9065 H   0  0  0  0  0  0
  -22.0606   -2.7613   23.2839 H   0  0  0  0  0  0
  -22.4110  -11.9895   22.4790 H   0  0  0  0  0  0
  -21.1095  -13.1244   22.2572 H   0  0  0  0  0  0
  -24.6702  -15.8469   20.5441 H   0  0  0  0  0  0
  -26.2876  -15.6301   20.1081 H   0  0  0  0  0  0
  -26.7066  -32.5559   23.1137 H   0  0  0  0  0  0
  -25.0051  -33.9776   25.0491 H   0  0  0  0  0  0
  -22.6862  -31.3143   21.4199 H   0  0  0  0  0  0
  -23.3760  -35.9664   23.3301 H   0  0  0  0  0  0
  -24.3594  -36.8951   22.2058 H   0  0  0  0  0  0
  -23.7252  -37.6532   23.6666 H   0  0  0  0  0  0
  -26.0209  -31.6024   20.5833 H   0  0  0  0  0  0
  -26.8209  -30.9039   21.9645 H   0  0  0  0  0  0
  -28.0963  -29.1135   21.1350 H   0  0  0  0  0  0
  -25.9816  -25.9846   19.0046 H   0  0  0  0  0  0
  -23.9560  -27.2962   19.0589 H   0  0  0  0  0  0
  -23.7062  -30.6122   19.4105 H   0  0  0  0  0  0
  -22.7255  -29.2546   19.8750 H   0  0  0  0  0  0
  -25.1277  -36.2000   25.0836 H   0  0  0  0  0  0
  -20.9963  -28.3210   24.1460 H   0  0  0  0  0  0
  -20.5694  -26.2237   23.3588 H   0  0  0  0  0  0
  -21.6631  -26.7450   22.1189 H   0  0  0  0  0  0
  -19.6927  -25.6301   21.1223 H   0  0  0  0  0  0
  -19.6724  -27.3218   20.6755 H   0  0  0  0  0  0
  -17.4199  -26.6704   21.3987 H   0  0  0  0  0  0
  -18.0295  -26.0076   22.8995 H   0  0  0  0  0  0
  -19.7931  -30.7237   24.2300 H   0  0  0  0  0  0
  -17.5011  -31.6277   24.5135 H   0  0  0  0  0  0
  -15.5340  -30.2959   23.7679 H   0  0  0  0  0  0
  -15.8680  -28.0834   22.7023 H   0  0  0  0  0  0
  -24.5992  -30.6935   25.7766 H   0  0  0  0  0  0
  -24.8919  -32.2710   26.4969 H   0  0  0  0  0  0
  -25.8159  -30.8739   27.0168 H   0  0  0  0  0  0
  -26.2845  -29.6749   24.1213 H   0  0  0  0  0  0
  -27.4387  -29.7371   25.4353 H   0  0  0  0  0  0
  -27.8531  -30.4458   23.8936 H   0  0  0  0  0  0
  -27.2762  -33.3609   26.2043 H   0  0  0  0  0  0
  -28.3867  -32.6838   25.0229 H   0  0  0  0  0  0
  -28.0792  -31.8400   26.5316 H   0  0  0  0  0  0
  -28.2582  -38.0123   24.7539 H   0  0  0  0  0  0
  -28.1119  -36.2638   24.6253 H   0  0  0  0  0  0
  -27.2303  -37.1412   25.8864 H   0  0  0  0  0  0
  -20.9278  -29.8757   21.6987 H   0  0  0  0  0  0
  -26.0210  -38.2866   24.1437 H   0  0  0  0  0  0
  -33.4056  -18.7283   15.3224 H   0  0  0  0  0  0
  -32.1761  -20.8902   15.0863 H   0  0  0  0  0  0
  -33.1157  -17.3154   17.3441 H   0  0  0  0  0  0
  -29.4141  -21.8590   16.5176 H   0  0  0  0  0  0
  -30.8382  -22.7909   16.9875 H   0  0  0  0  0  0
  -32.3945  -18.0246   20.1518 H   0  0  0  0  0  0
  -31.3038  -16.8758   19.4006 H   0  0  0  0  0  0
  -28.8503  -22.2521   18.8421 H   0  0  0  0  0  0
  -30.5565  -22.3346   19.2673 H   0  0  0  0  0  0
  -28.9532  -19.8488   18.6783 H   0  0  0  0  0  0
  -31.0817  -20.3352   20.8131 H   0  0  0  0  0  0
  -27.2831  -23.0558   20.6369 H   0  0  0  0  0  0
  -26.7544  -24.0282   21.9751 H   0  0  0  0  0  0
  -29.6836  -24.1459   21.1870 H   0  0  0  0  0  0
  -28.7478  -25.3235   22.0459 H   0  0  0  0  0  0
  -27.2828  -21.8226   22.8407 H   0  0  0  0  0  0
  -28.5294  -22.8915   23.4276 H   0  0  0  0  0  0
  -31.0697  -16.2030   23.1676 H   0  0  0  0  0  0
  -32.0742  -16.3881   21.7884 H   0  0  0  0  0  0
  -31.0461  -18.5095   22.5044 H   0  0  0  0  0  0
  -29.4437  -17.8498   22.3741 H   0  0  0  0  0  0
  -27.6585  -24.9098   19.3244 H   0  0  0  0  0  0
  -29.3504  -25.1569   19.2568 H   0  0  0  0  0  0
  -30.0768  -22.0361   21.8197 H   0  0  0  0  0  0
  -29.3776  -15.0586   21.9276 H   0  0  0  0  0  0
  -29.4796  -18.0055   20.1282 H   0  0  0  0  0  0
  1 25  1  0  0  0
  1 30  2  0  0  0
  1 90  1  0  0  0
  2  3  1  0  0  0
  2 25  1  0  0  0
  2 93  1  0  0  0
  2 94  1  0  0  0
  3  4  1  0  0  0
  3 95  1  0  0  0
  3 96  1  0  0  0
  4  5  1  0  0  0
  4 97  1  0  0  0
  4 98  1  0  0  0
  5  6  1  0  0  0
  5 26  1  0  0  0
  5 99  1  0  0  0
  6 25  1  0  0  0
  6100  1  0  0  0
  6101  1  0  0  0
  7  8  2  0  0  0
  7 26  1  0  0  0
  7 29  1  0  0  0
  8  9  1  0  0  0
  8 22  1  0  0  0
  9 10  1  0  0  0
  9 27  2  0  0  0
 10 11  2  0  0  0
 10 15  1  0  0  0
 11 12  1  0  0  0
 11102  1  0  0  0
 12 13  2  0  0  0
 12103  1  0  0  0
 13 14  1  0  0  0
 13 31  1  0  0  0
 14 15  2  0  0  0
 14104  1  0  0  0
 15105  1  0  0  0
 16 17  2  0  0  0
 16 21  1  0  0  0
 16 31  1  0  0  0
 17 18  1  0  0  0
 17106  1  0  0  0
 18 19  2  0  0  0
 18107  1  0  0  0
 19 20  1  0  0  0
 19 24  1  0  0  0
 20 21  2  0  0  0
 20108  1  0  0  0
 21 23  1  0  0  0
 22 28  1  0  0  0
 22 32  2  0  0  0
 26 27  1  0  0  0
 28109  1  0  0  0
 28110  1  0  0  0
 29111  1  0  0  0
 29112  1  0  0  0
 33 34  1  0  0  0
 33 66  1  0  0  0
 33 70  2  0  0  0
 34 36  1  0  0  0
 34 59  1  0  0  0
 34113  1  0  0  0
 35 44  2  0  0  0
 35 45  1  0  0  0
 35 68  1  0  0  0
 36 56  1  0  0  0
 36114  1  0  0  0
 37 39  1  0  0  0
 37 47  1  0  0  0
 37 66  1  0  0  0
 37115  1  0  0  0
 38 43  2  0  0  0
 38 46  1  0  0  0
 38 47  1  0  0  0
 39 64  1  0  0  0
 39 67  2  0  0  0
 40 52  1  0  0  0
 40 53  2  0  0  0
 40 58  1  0  0  0
 41116  1  0  0  0
 41117  1  0  0  0
 41118  1  0  0  0
 41 48  1  0  0  0
 42 43  1  0  0  0
 42 66  1  0  0  0
 42119  1  0  0  0
 42120  1  0  0  0
 43 44  1  0  0  0
 44121  1  0  0  0
 45 46  2  0  0  0
 45122  1  0  0  0
 46123  1  0  0  0
 47124  1  0  0  0
 47125  1  0  0  0
 48 56  1  0  0  0
 48 65  1  0  0  0
 48126  1  0  0  0
 49 50  1  0  0  0
 49 53  1  0  0  0
 49 64  1  0  0  0
 49127  1  0  0  0
 50 51  1  0  0  0
 50128  1  0  0  0
 50129  1  0  0  0
 51 52  1  0  0  0
 51130  1  0  0  0
 51131  1  0  0  0
 52132  1  0  0  0
 52133  1  0  0  0
 53 54  1  0  0  0
 54 55  2  0  0  0
 54134  1  0  0  0
 55 57  1  0  0  0
 55135  1  0  0  0
 56 69  2  0  0  0
 57 58  2  0  0  0
 57136  1  0  0  0
 58137  1  0  0  0
 59 60  1  0  0  0
 59 61  1  0  0  0
 59 62  1  0  0  0
 60138  1  0  0  0
 60139  1  0  0  0
 60140  1  0  0  0
 61141  1  0  0  0
 61142  1  0  0  0
 61143  1  0  0  0
 62144  1  0  0  0
 62145  1  0  0  0
 62146  1  0  0  0
 63 65  1  0  0  0
 63147  1  0  0  0
 63148  1  0  0  0
 63149  1  0  0  0
 64150  1  0  0  0
 65151  1  0  0  0
 68 88  1  0  0  0
 71 72  2  0  0  0
 71 73  1  0  0  0
 71152  1  0  0  0
 72 74  1  0  0  0
 72153  1  0  0  0
 73 75  2  0  0  0
 73154  1  0  0  0
 74 76  2  0  0  0
 74 78  1  0  0  0
 75 76  1  0  0  0
 75 79  1  0  0  0
 76 81  1  0  0  0
 77 89  1  0  0  0
 77 92  2  0  0  0
 77 82  1  0  0  0
 78 80  1  0  0  0
 78155  1  0  0  0
 78156  1  0  0  0
 79 91  1  0  0  0
 79157  1  0  0  0
 79158  1  0  0  0
 80159  1  0  0  0
 80160  1  0  0  0
 80 81  1  0  0  0
 81 82  1  0  0  0
 81161  1  0  0  0
 82 91  1  0  0  0
 82162  1  0  0  0
 83 84  1  0  0  0
 83 85  1  0  0  0
 83163  1  0  0  0
 83164  1  0  0  0
 84 88  1  0  0  0
 84165  1  0  0  0
 84166  1  0  0  0
 85 89  1  0  0  0
 85167  1  0  0  0
 85168  1  0  0  0
 86 87  1  0  0  0
 86 90  1  0  0  0
 86169  1  0  0  0
 86170  1  0  0  0
 87171  1  0  0  0
 87172  1  0  0  0
 87 91  1  0  0  0
 88173  1  0  0  0
 88174  1  0  0  0
 89175  1  0  0  0
 90176  1  0  0  0
 91177  1  0  0  0
M  CHG  1  91   1
M  ISO  4   1 100  68 101  88 101  90 100
M  END
> <chiral flag>
0

> <version>
0

> <s_m_source_file>
/data/baiqing/PycharmProjects/Reinvent-master-3.2/result/LINK_invent/BTK/process_docking_weight1_custom_product_contain_oxygen_bond_distance_aromatic_linkinvent_7_9_3/rearranged_h_0004.sdf

> <i_m_source_file_index>
37

> <r_mmod_Potential_Energy-OPLS-2005>
-207.124145507812

> <r_mmod_Stretch_Energy-OPLS-2005>
40.7606620788574

> <r_mmod_Bend_Energy-OPLS-2005>
194.219909667969

> <r_mmod_Torsional_Energy-OPLS-2005>
273.153259277344

> <r_mmod_Improper_Torsional_Energy-OPLS-2005>
3.06479001045227

> <r_mmod_Van_der_Waal_Energy-OPLS-2005>
159.358734130859

> <r_mmod_Electrostatic_Energy-OPLS-2005>
-442.783264160156

> <r_mmod_Solvation_Energy-OPLS-2005>
-444.481719970703

> <b_mmod_Minimization_Converged-OPLS-2005>
0

> <r_mmod_RMS_Derivative-OPLS-2005>
2.43752551078796

$$$$
37
                    3D
 Structure written by MMmdl.
146154  0  0  1  0            999 V2000
  -30.5303  -15.0383   20.4054 C   0  0  0  0  0  0
  -30.4365  -12.6496   19.5065 C   0  0  0  0  0  0
  -29.5232  -12.5413   18.2632 C   0  0  0  0  0  0
  -28.0606  -12.3124   18.6844 C   0  0  0  0  0  0
  -27.6233  -13.2589   19.8323 C   0  0  2  0  0  0
  -28.6652  -13.3386   20.9688 C   0  0  0  0  0  0
  -25.2437  -13.8233   20.5728 C   0  0  0  0  0  0
  -24.1771  -13.0441   20.9241 C   0  0  0  0  0  0
  -24.6403  -11.6931   20.8761 C   0  0  0  0  0  0
  -23.9093  -10.4295   21.0409 C   0  0  0  0  0  0
  -24.3637   -9.4205   21.9185 C   0  0  0  0  0  0
  -23.6304   -8.2244   22.0755 C   0  0  0  0  0  0
  -22.4286   -8.0284   21.3545 C   0  0  0  0  0  0
  -21.9927   -9.0261   20.4646 C   0  0  0  0  0  0
  -22.7264  -10.2136   20.3057 C   0  0  0  0  0  0
  -21.6857   -6.0738   22.5280 C   0  0  0  0  0  0
  -21.4017   -6.5641   23.8213 C   0  0  0  0  0  0
  -21.3659   -5.6794   24.9174 C   0  0  0  0  0  0
  -21.6044   -4.3056   24.7226 C   0  0  0  0  0  0
  -21.8820   -3.8148   23.4347 C   0  0  0  0  0  0
  -21.9194   -4.6965   22.3403 C   0  0  0  0  0  0
  -22.7788  -13.5202   21.1888 C   0  0  0  0  0  0
  -22.1663   -4.2149   21.0981 F   0  0  0  0  0  0
  -21.5627   -3.4539   25.7738 F   0  0  0  0  0  0
  -29.9279  -13.7721   20.3567 N   0  0  0  0  0  0
  -26.2864  -12.9484   20.3240 N   0  0  0  0  0  0
  -25.9338  -11.6603   20.5740 N   0  0  0  0  0  0
  -22.0443  -12.8184   22.0441 N   0  0  0  0  0  0
  -25.4072  -15.1967   20.4150 N   0  0  0  0  0  0
  -31.7430  -15.0465   20.1637 O   0  0  0  0  0  0
  -21.6645   -6.8883   21.4243 O   0  0  0  0  0  0
  -22.3469  -14.5503   20.6728 O   0  0  0  0  0  0
  -24.6507  -31.8385   23.1844 C   0  0  0  0  0  0
  -25.9250  -32.4667   23.8252 C   0  0  1  0  0  0
  -27.2093  -27.0643   20.1584 C   0  0  0  0  0  0
  -25.5969  -33.8477   24.2165 N   0  0  0  0  0  0
  -23.4582  -30.4579   21.5315 C   0  0  2  0  0  0
  -24.9087  -28.8787   20.1079 C   0  0  0  0  0  0
  -22.7607  -29.4523   22.4830 C   0  0  0  0  0  0
  -18.0313  -28.1397   22.8473 C   0  0  0  0  0  0
  -24.1493  -36.7247   23.2643 C   0  0  0  0  0  0
  -26.0207  -30.6885   21.3965 C   0  0  0  0  0  0
  -26.0895  -29.2940   20.7365 C   0  0  0  0  0  0
  -27.2399  -28.4043   20.7453 C   0  0  0  0  0  0
  -26.0037  -26.7805   19.4755 C   0  0  0  0  0  0
  -24.8838  -27.6382   19.4586 C   0  0  0  0  0  0
  -23.6890  -29.7889   20.1510 C   0  0  0  0  0  0
  -25.4127  -36.3021   24.0311 C   0  0  1  0  0  0
  -20.5932  -28.3736   23.1208 C   0  0  2  0  0  0
  -20.6791  -26.9430   22.5396 C   0  0  0  0  0  0
  -19.5762  -26.6378   21.5209 C   0  0  0  0  0  0
  -18.1948  -26.7931   22.1628 C   0  0  0  0  0  0
  -19.1572  -28.8885   23.2832 C   0  0  0  0  0  0
  -18.9484  -30.1477   23.8865 C   0  0  0  0  0  0
  -17.6477  -30.6591   24.0556 C   0  0  0  0  0  0
  -25.9082  -34.9395   23.5050 C   0  0  0  0  0  0
  -16.5369  -29.9080   23.6335 C   0  0  0  0  0  0
  -16.7296  -28.6500   23.0356 C   0  0  0  0  0  0
  -26.4541  -31.6556   25.0721 C   0  0  0  0  0  0
  -25.3700  -31.3760   26.1395 C   0  0  0  0  0  0
  -27.0419  -30.2941   24.6359 C   0  0  0  0  0  0
  -27.6056  -32.4336   25.7514 C   0  0  0  0  0  0
  -27.5576  -37.1781   24.8467 C   0  0  0  0  0  0
  -21.4292  -29.3055   22.3574 N   0  0  0  0  0  0
  -26.4289  -37.3737   23.9404 N   0  0  0  0  0  0
  -24.7303  -31.0175   22.0920 N   0  0  0  0  0  0
  -23.4217  -28.8068   23.3004 O   0  0  0  0  0  0
  -28.2118  -26.0027   20.2452 O   0  0  0  0  0  0
  -26.5677  -34.8902   22.4634 O   0  0  0  0  0  0
  -23.5608  -32.1296   23.7016 O   0  0  0  0  0  0
  -28.9731  -21.8927   20.3362 C   0  0  0  0  0  0
  -28.5795  -23.1085   20.2549 C   0  0  0  0  0  0
  -31.9467  -19.4643   20.5965 C   0  0  0  0  0  0
  -31.0874  -20.5805   20.5155 C   0  0  0  0  0  0
  -31.4842  -18.1314   20.5832 C   0  0  0  0  0  0
  -29.2330  -19.0259   20.4075 C   0  0  0  0  0  0
  -29.6852  -20.4692   20.4160 C   0  0  0  0  0  0
  -30.1152  -17.7950   20.4846 C   0  0  0  0  0  0
  -27.8003  -24.4940   19.9916 C   0  0  0  0  0  0
  -29.7695  -16.2672   20.5000 N   0  0  0  0  0  0
  -31.4682  -12.8098   19.1893 H   0  0  0  0  0  0
  -30.4428  -11.7130   20.0664 H   0  0  0  0  0  0
  -29.8584  -11.7314   17.6140 H   0  0  0  0  0  0
  -29.5963  -13.4570   17.6746 H   0  0  0  0  0  0
  -27.9723  -11.2753   19.0101 H   0  0  0  0  0  0
  -27.3953  -12.4194   17.8266 H   0  0  0  0  0  0
  -27.5695  -14.2499   19.3806 H   0  0  0  0  0  0
  -28.7760  -12.3792   21.4761 H   0  0  0  0  0  0
  -28.3499  -14.0572   21.7269 H   0  0  0  0  0  0
  -25.2780   -9.5679   22.4762 H   0  0  0  0  0  0
  -24.0009   -7.4637   22.7479 H   0  0  0  0  0  0
  -21.0856   -8.8788   19.8953 H   0  0  0  0  0  0
  -22.3726  -10.9678   19.6167 H   0  0  0  0  0  0
  -21.2012   -7.6150   23.9717 H   0  0  0  0  0  0
  -21.1479   -6.0523   25.9078 H   0  0  0  0  0  0
  -22.0598   -2.7611   23.2849 H   0  0  0  0  0  0
  -22.4078  -11.9855   22.4834 H   0  0  0  0  0  0
  -21.1055  -13.1194   22.2643 H   0  0  0  0  0  0
  -24.6338  -15.8433   20.5261 H   0  0  0  0  0  0
  -26.2421  -15.6396   20.0546 H   0  0  0  0  0  0
  -26.7315  -32.5247   23.0974 H   0  0  0  0  0  0
  -25.0078  -33.9577   25.0287 H   0  0  0  0  0  0
  -22.7650  -31.2868   21.3740 H   0  0  0  0  0  0
  -23.3756  -35.9581   23.3311 H   0  0  0  0  0  0
  -24.3571  -36.8873   22.2056 H   0  0  0  0  0  0
  -23.7252  -37.6445   23.6677 H   0  0  0  0  0  0
  -26.1859  -31.4398   20.6231 H   0  0  0  0  0  0
  -26.8878  -30.7392   22.0433 H   0  0  0  0  0  0
  -28.1329  -28.7149   21.2694 H   0  0  0  0  0  0
  -25.8762  -25.8395   18.9640 H   0  0  0  0  0  0
  -23.9874  -27.3175   18.9457 H   0  0  0  0  0  0
  -23.8312  -30.5649   19.3979 H   0  0  0  0  0  0
  -22.8020  -29.2364   19.8357 H   0  0  0  0  0  0
  -25.1317  -36.1846   25.0803 H   0  0  0  0  0  0
  -21.0024  -28.3331   24.1329 H   0  0  0  0  0  0
  -20.5672  -26.2356   23.3626 H   0  0  0  0  0  0
  -21.6653  -26.7414   22.1199 H   0  0  0  0  0  0
  -19.6920  -25.6281   21.1257 H   0  0  0  0  0  0
  -19.6688  -27.3171   20.6723 H   0  0  0  0  0  0
  -17.4208  -26.6669   21.4042 H   0  0  0  0  0  0
  -18.0357  -26.0083   22.9037 H   0  0  0  0  0  0
  -19.7958  -30.7302   24.2224 H   0  0  0  0  0  0
  -17.5027  -31.6267   24.5164 H   0  0  0  0  0  0
  -15.5367  -30.2970   23.7672 H   0  0  0  0  0  0
  -15.8700  -28.0805   22.7087 H   0  0  0  0  0  0
  -24.5908  -30.7078   25.7707 H   0  0  0  0  0  0
  -24.8851  -32.2941   26.4723 H   0  0  0  0  0  0
  -25.7961  -30.8999   27.0234 H   0  0  0  0  0  0
  -26.3057  -29.6646   24.1345 H   0  0  0  0  0  0
  -27.3976  -29.7262   25.4966 H   0  0  0  0  0  0
  -27.8990  -30.4155   23.9734 H   0  0  0  0  0  0
  -27.2639  -33.3658   26.2023 H   0  0  0  0  0  0
  -28.3904  -32.6861   25.0371 H   0  0  0  0  0  0
  -28.0689  -31.8507   26.5484 H   0  0  0  0  0  0
  -28.2587  -38.0083   24.7506 H   0  0  0  0  0  0
  -28.1077  -36.2610   24.6309 H   0  0  0  0  0  0
  -27.2290  -37.1443   25.8869 H   0  0  0  0  0  0
  -20.9518  -29.8778   21.6751 H   0  0  0  0  0  0
  -26.0156  -38.2806   24.1397 H   0  0  0  0  0  0
  -33.0106  -19.6391   20.6746 H   0  0  0  0  0  0
  -31.5380  -21.5639   20.5329 H   0  0  0  0  0  0
  -32.2348  -17.3603   20.6630 H   0  0  0  0  0  0
  -28.1680  -18.8581   20.3372 H   0  0  0  0  0  0
  -26.8558  -24.3477   20.5169 H   0  0  0  0  0  0
  -27.5581  -24.4295   18.9308 H   0  0  0  0  0  0
  -28.7819  -16.0808   20.5860 H   0  0  0  0  0  0
  1 25  1  0  0  0
  1 30  2  0  0  0
  1 80  1  0  0  0
  2  3  1  0  0  0
  2 25  1  0  0  0
  2 81  1  0  0  0
  2 82  1  0  0  0
  3  4  1  0  0  0
  3 83  1  0  0  0
  3 84  1  0  0  0
  4  5  1  0  0  0
  4 85  1  0  0  0
  4 86  1  0  0  0
  5  6  1  0  0  0
  5 26  1  0  0  0
  5 87  1  0  0  0
  6 25  1  0  0  0
  6 88  1  0  0  0
  6 89  1  0  0  0
  7  8  2  0  0  0
  7 26  1  0  0  0
  7 29  1  0  0  0
  8  9  1  0  0  0
  8 22  1  0  0  0
  9 10  1  0  0  0
  9 27  2  0  0  0
 10 11  2  0  0  0
 10 15  1  0  0  0
 11 12  1  0  0  0
 11 90  1  0  0  0
 12 13  2  0  0  0
 12 91  1  0  0  0
 13 14  1  0  0  0
 13 31  1  0  0  0
 14 15  2  0  0  0
 14 92  1  0  0  0
 15 93  1  0  0  0
 16 17  2  0  0  0
 16 21  1  0  0  0
 16 31  1  0  0  0
 17 18  1  0  0  0
 17 94  1  0  0  0
 18 19  2  0  0  0
 18 95  1  0  0  0
 19 20  1  0  0  0
 19 24  1  0  0  0
 20 21  2  0  0  0
 20 96  1  0  0  0
 21 23  1  0  0  0
 22 28  1  0  0  0
 22 32  2  0  0  0
 26 27  1  0  0  0
 28 97  1  0  0  0
 28 98  1  0  0  0
 29 99  1  0  0  0
 29100  1  0  0  0
 33 34  1  0  0  0
 33 66  1  0  0  0
 33 70  2  0  0  0
 34 36  1  0  0  0
 34 59  1  0  0  0
 34101  1  0  0  0
 35 44  2  0  0  0
 35 45  1  0  0  0
 35 68  1  0  0  0
 36 56  1  0  0  0
 36102  1  0  0  0
 37 39  1  0  0  0
 37 47  1  0  0  0
 37 66  1  0  0  0
 37103  1  0  0  0
 38 43  2  0  0  0
 38 46  1  0  0  0
 38 47  1  0  0  0
 39 64  1  0  0  0
 39 67  2  0  0  0
 40 52  1  0  0  0
 40 53  2  0  0  0
 40 58  1  0  0  0
 41104  1  0  0  0
 41105  1  0  0  0
 41106  1  0  0  0
 41 48  1  0  0  0
 42 43  1  0  0  0
 42 66  1  0  0  0
 42107  1  0  0  0
 42108  1  0  0  0
 43 44  1  0  0  0
 44109  1  0  0  0
 45 46  2  0  0  0
 45110  1  0  0  0
 46111  1  0  0  0
 47112  1  0  0  0
 47113  1  0  0  0
 48 56  1  0  0  0
 48 65  1  0  0  0
 48114  1  0  0  0
 49 50  1  0  0  0
 49 53  1  0  0  0
 49 64  1  0  0  0
 49115  1  0  0  0
 50 51  1  0  0  0
 50116  1  0  0  0
 50117  1  0  0  0
 51 52  1  0  0  0
 51118  1  0  0  0
 51119  1  0  0  0
 52120  1  0  0  0
 52121  1  0  0  0
 53 54  1  0  0  0
 54 55  2  0  0  0
 54122  1  0  0  0
 55 57  1  0  0  0
 55123  1  0  0  0
 56 69  2  0  0  0
 57 58  2  0  0  0
 57124  1  0  0  0
 58125  1  0  0  0
 59 60  1  0  0  0
 59 61  1  0  0  0
 59 62  1  0  0  0
 60126  1  0  0  0
 60127  1  0  0  0
 60128  1  0  0  0
 61129  1  0  0  0
 61130  1  0  0  0
 61131  1  0  0  0
 62132  1  0  0  0
 62133  1  0  0  0
 62134  1  0  0  0
 63 65  1  0  0  0
 63135  1  0  0  0
 63136  1  0  0  0
 63137  1  0  0  0
 64138  1  0  0  0
 65139  1  0  0  0
 68 79  1  0  0  0
 71 72  3  0  0  0
 71 77  1  0  0  0
 72 79  1  0  0  0
 73 74  2  0  0  0
 73 75  1  0  0  0
 73140  1  0  0  0
 74 77  1  0  0  0
 74141  1  0  0  0
 75 78  2  0  0  0
 75142  1  0  0  0
 76 77  2  0  0  0
 76 78  1  0  0  0
 76143  1  0  0  0
 78 80  1  0  0  0
 79144  1  0  0  0
 79145  1  0  0  0
 80146  1  0  0  0
M  ISO  4   1 100  68 101  79 101  80 100
M  END
> <chiral flag>
0

> <version>
0

> <s_m_source_file>
/data/baiqing/PycharmProjects/Reinvent-master-3.2/result/LINK_invent/BTK/process_docking_weight1_custom_product_contain_oxygen_bond_distance_aromatic_linkinvent_7_9_3/rearranged_h_0004.sdf

> <i_m_source_file_index>
38

> <r_mmod_Potential_Energy-OPLS-2005>
658.296203613281

> <r_mmod_Stretch_Energy-OPLS-2005>
316.950012207031

> <r_mmod_Bend_Energy-OPLS-2005>
279.364318847656

> <r_mmod_Torsional_Energy-OPLS-2005>
208.923004150391

> <r_mmod_Improper_Torsional_Energy-OPLS-2005>
4.79529666900635

> <r_mmod_Van_der_Waal_Energy-OPLS-2005>
137.160125732422

> <r_mmod_Electrostatic_Energy-OPLS-2005>
-345.354400634766

> <r_mmod_Solvation_Energy-OPLS-2005>
-209.569488525391

> <b_mmod_Minimization_Converged-OPLS-2005>
0

> <r_mmod_RMS_Derivative-OPLS-2005>
0.495439141988754

$$$$
38
                    3D
 Structure written by MMmdl.
192202  0  0  1  0            999 V2000
  -30.8072  -14.4565   20.5078 C   0  0  0  0  0  0
  -30.3876  -12.3018   19.4222 C   0  0  0  0  0  0
  -29.4761  -12.4723   18.1955 C   0  0  0  0  0  0
  -27.9957  -12.3540   18.6039 C   0  0  0  0  0  0
  -27.6396  -13.2227   19.8411 C   0  0  2  0  0  0
  -28.6919  -13.0953   20.9594 C   0  0  0  0  0  0
  -25.2504  -13.8177   20.5692 C   0  0  0  0  0  0
  -24.1792  -13.0437   20.9221 C   0  0  0  0  0  0
  -24.6387  -11.6914   20.8771 C   0  0  0  0  0  0
  -23.9069  -10.4283   21.0450 C   0  0  0  0  0  0
  -24.3614   -9.4195   21.9234 C   0  0  0  0  0  0
  -23.6286   -8.2232   22.0772 C   0  0  0  0  0  0
  -22.4271   -8.0274   21.3546 C   0  0  0  0  0  0
  -21.9921   -9.0254   20.4649 C   0  0  0  0  0  0
  -22.7252  -10.2133   20.3092 C   0  0  0  0  0  0
  -21.6835   -6.0743   22.5281 C   0  0  0  0  0  0
  -21.3994   -6.5643   23.8220 C   0  0  0  0  0  0
  -21.3673   -5.6807   24.9182 C   0  0  0  0  0  0
  -21.6050   -4.3063   24.7233 C   0  0  0  0  0  0
  -21.8798   -3.8148   23.4352 C   0  0  0  0  0  0
  -21.9178   -4.6971   22.3408 C   0  0  0  0  0  0
  -22.7805  -13.5219   21.1878 C   0  0  0  0  0  0
  -22.1646   -4.2158   21.0993 F   0  0  0  0  0  0
  -21.5653   -3.4559   25.7747 F   0  0  0  0  0  0
  -30.0061  -13.3656   20.3631 N   0  0  0  0  0  0
  -26.2933  -12.9375   20.3284 N   0  0  0  0  0  0
  -25.9321  -11.6525   20.5776 N   0  0  0  0  0  0
  -22.0443  -12.8217   22.0422 N   0  0  0  0  0  0
  -25.4183  -15.1885   20.4060 N   0  0  0  0  0  0
  -32.0239  -14.3339   20.4219 O   0  0  0  0  0  0
  -21.6624   -6.8884   21.4237 O   0  0  0  0  0  0
  -22.3515  -14.5546   20.6736 O   0  0  0  0  0  0
  -24.6126  -31.8675   23.2149 C   0  0  0  0  0  0
  -25.9052  -32.4803   23.8426 C   0  0  1  0  0  0
  -27.2246  -27.4697   20.0808 C   0  0  0  0  0  0
  -25.5929  -33.8614   24.2401 N   0  0  0  0  0  0
  -23.3926  -30.4993   21.5551 C   0  0  2  0  0  0
  -24.8293  -28.9682   20.1142 C   0  0  0  0  0  0
  -22.7368  -29.4721   22.5036 C   0  0  0  0  0  0
  -18.0262  -28.1343   22.8542 C   0  0  0  0  0  0
  -24.1459  -36.7319   23.2651 C   0  0  0  0  0  0
  -25.9170  -30.8514   21.3520 C   0  0  0  0  0  0
  -25.9892  -29.4859   20.7049 C   0  0  0  0  0  0
  -27.1870  -28.7447   20.6857 C   0  0  0  0  0  0
  -26.0392  -26.9487   19.5100 C   0  0  0  0  0  0
  -24.8476  -27.6955   19.5184 C   0  0  0  0  0  0
  -23.5875  -29.8286   20.1697 C   0  0  0  0  0  0
  -25.4072  -36.3120   24.0371 C   0  0  1  0  0  0
  -20.5852  -28.3632   23.1314 C   0  0  2  0  0  0
  -20.6740  -26.9375   22.5400 C   0  0  0  0  0  0
  -19.5704  -26.6370   21.5213 C   0  0  0  0  0  0
  -18.1877  -26.7913   22.1624 C   0  0  0  0  0  0
  -19.1513  -28.8813   23.2909 C   0  0  0  0  0  0
  -18.9438  -30.1437   23.8913 C   0  0  0  0  0  0
  -17.6434  -30.6553   24.0598 C   0  0  0  0  0  0
  -25.9021  -34.9463   23.5182 C   0  0  0  0  0  0
  -16.5331  -29.9054   23.6329 C   0  0  0  0  0  0
  -16.7237  -28.6453   23.0401 C   0  0  0  0  0  0
  -26.4515  -31.6591   25.0746 C   0  0  0  0  0  0
  -25.3823  -31.3577   26.1505 C   0  0  0  0  0  0
  -27.0450  -30.3096   24.6120 C   0  0  0  0  0  0
  -27.6086  -32.4340   25.7467 C   0  0  0  0  0  0
  -27.5569  -37.1801   24.8473 C   0  0  0  0  0  0
  -21.4123  -29.3041   22.3761 N   0  0  0  0  0  0
  -26.4272  -37.3810   23.9442 N   0  0  0  0  0  0
  -24.6606  -31.0863   22.0987 N   0  0  0  0  0  0
  -23.4175  -28.8257   23.3048 O   0  0  0  0  0  0
  -28.4284  -26.8042   20.0714 O   0  0  0  0  0  0
  -26.5531  -34.8916   22.4716 O   0  0  0  0  0  0
  -23.5343  -32.1382   23.7606 O   0  0  0  0  0  0
  -28.3011  -19.4682   18.9997 C   0  0  0  0  0  0
  -28.2206  -18.2067   19.6102 C   0  0  0  0  0  0
  -29.9777  -18.8760   21.1401 C   0  0  0  0  0  0
  -29.2526  -20.4356   19.4093 C   0  0  0  0  0  0
  -30.0875  -20.1591   20.5463 C   0  0  0  0  0  0
  -29.1160  -17.8737   20.6417 C   0  0  0  0  0  0
  -29.4164  -21.6296   18.5004 C   0  0  0  0  0  0
  -33.6566  -22.3205   22.2398 C   0  0  0  0  0  0
  -33.1707  -22.6117   20.8080 C   0  0  0  0  0  0
  -32.4906  -21.9304   23.1611 C   0  0  0  0  0  0
  -33.5421  -16.7232   19.0352 C   0  0  0  0  0  0
  -33.0091  -16.3944   17.6447 C   0  0  0  0  0  0
  -32.3404  -21.4417   20.2379 C   0  0  0  0  0  0
  -31.6624  -20.7871   22.5467 C   0  0  0  0  0  0
  -32.3144  -17.2057   19.8066 C   0  0  0  0  0  0
  -31.6102  -15.8169   17.8893 C   0  0  0  0  0  0
  -31.1153  -21.1591   21.1412 C   0  0  0  0  0  0
  -31.0727  -16.5181   19.1728 C   0  0  0  0  0  0
  -28.5543  -16.9113   23.4703 C   0  0  0  0  0  0
  -29.6009  -16.2411   22.5636 C   0  0  0  0  0  0
  -29.9980  -25.2500   19.1612 C   0  0  0  0  0  0
  -30.1894  -23.9682   18.3493 C   0  0  0  0  0  0
  -28.5245  -25.6414   19.2686 C   0  0  0  0  0  0
  -29.3076  -16.3967   21.0381 C   0  0  2  0  0  0
  -29.6579  -22.8121   19.0649 N   0  0  0  0  0  0
  -30.2905  -15.6728   20.1593 N   0  0  0  0  0  0
  -29.3258  -21.4973   17.2756 O   0  0  0  0  0  0
  -31.4351  -12.3508   19.1170 H   0  0  0  0  0  0
  -30.2524  -11.3203   19.8831 H   0  0  0  0  0  0
  -29.7190  -11.7222   17.4420 H   0  0  0  0  0  0
  -29.6509  -13.4444   17.7299 H   0  0  0  0  0  0
  -27.7882  -11.3035   18.8105 H   0  0  0  0  0  0
  -27.3563  -12.6266   17.7631 H   0  0  0  0  0  0
  -27.6497  -14.2542   19.4899 H   0  0  0  0  0  0
  -28.6747  -12.0921   21.3886 H   0  0  0  0  0  0
  -28.4536  -13.7679   21.7800 H   0  0  0  0  0  0
  -25.2753   -9.5662   22.4841 H   0  0  0  0  0  0
  -23.9973   -7.4616   22.7492 H   0  0  0  0  0  0
  -21.0871   -8.8781   19.8941 H   0  0  0  0  0  0
  -22.3728  -10.9690   19.6213 H   0  0  0  0  0  0
  -21.1950   -7.6150   23.9718 H   0  0  0  0  0  0
  -21.1542   -6.0547   25.9096 H   0  0  0  0  0  0
  -22.0562   -2.7612   23.2855 H   0  0  0  0  0  0
  -22.4005  -11.9864   22.4828 H   0  0  0  0  0  0
  -21.1058  -13.1251   22.2597 H   0  0  0  0  0  0
  -24.6469  -15.8381   20.5061 H   0  0  0  0  0  0
  -26.2610  -15.6259   20.0606 H   0  0  0  0  0  0
  -26.7140  -32.5493   23.1216 H   0  0  0  0  0  0
  -25.0181  -33.9759   25.0614 H   0  0  0  0  0  0
  -22.6804  -31.3150   21.4222 H   0  0  0  0  0  0
  -23.3713  -35.9657   23.3270 H   0  0  0  0  0  0
  -24.3577  -36.8973   22.2082 H   0  0  0  0  0  0
  -23.7187  -37.6517   23.6654 H   0  0  0  0  0  0
  -26.0218  -31.6170   20.5792 H   0  0  0  0  0  0
  -26.8091  -30.9034   21.9637 H   0  0  0  0  0  0
  -28.0878  -29.1544   21.1188 H   0  0  0  0  0  0
  -26.0012  -25.9718   19.0515 H   0  0  0  0  0  0
  -23.9544  -27.2910   19.0625 H   0  0  0  0  0  0
  -23.6730  -30.5951   19.3991 H   0  0  0  0  0  0
  -22.7160  -29.2325   19.8918 H   0  0  0  0  0  0
  -25.1238  -36.2024   25.0867 H   0  0  0  0  0  0
  -20.9951  -28.3162   24.1431 H   0  0  0  0  0  0
  -20.5620  -26.2234   23.3566 H   0  0  0  0  0  0
  -21.6589  -26.7375   22.1193 H   0  0  0  0  0  0
  -19.6814  -25.6285   21.1200 H   0  0  0  0  0  0
  -19.6622  -27.3210   20.6758 H   0  0  0  0  0  0
  -17.4156  -26.6745   21.4005 H   0  0  0  0  0  0
  -18.0236  -26.0009   22.8955 H   0  0  0  0  0  0
  -19.7910  -30.7274   24.2254 H   0  0  0  0  0  0
  -17.4958  -31.6221   24.5216 H   0  0  0  0  0  0
  -15.5325  -30.2963   23.7587 H   0  0  0  0  0  0
  -15.8642  -28.0716   22.7173 H   0  0  0  0  0  0
  -24.6032  -30.6919   25.7793 H   0  0  0  0  0  0
  -24.8989  -32.2663   26.5096 H   0  0  0  0  0  0
  -25.8235  -30.8642   27.0181 H   0  0  0  0  0  0
  -26.3024  -29.6706   24.1356 H   0  0  0  0  0  0
  -27.4471  -29.7514   25.4588 H   0  0  0  0  0  0
  -27.8693  -30.4477   23.9127 H   0  0  0  0  0  0
  -27.2756  -33.3688   26.1985 H   0  0  0  0  0  0
  -28.3876  -32.6856   25.0256 H   0  0  0  0  0  0
  -28.0784  -31.8504   26.5402 H   0  0  0  0  0  0
  -28.2581  -38.0122   24.7590 H   0  0  0  0  0  0
  -28.1100  -36.2668   24.6195 H   0  0  0  0  0  0
  -27.2296  -37.1317   25.8885 H   0  0  0  0  0  0
  -20.9237  -29.8792   21.7041 H   0  0  0  0  0  0
  -26.0171  -38.2905   24.1440 H   0  0  0  0  0  0
  -27.6671  -19.6667   18.1454 H   0  0  0  0  0  0
  -27.5589  -17.4595   19.1926 H   0  0  0  0  0  0
  -30.6489  -18.6033   21.9347 H   0  0  0  0  0  0
  -34.1774  -23.1904   22.6489 H   0  0  0  0  0  0
  -34.3886  -21.5106   22.2188 H   0  0  0  0  0  0
  -34.0266  -22.8165   20.1650 H   0  0  0  0  0  0
  -32.5716  -23.5233   20.8069 H   0  0  0  0  0  0
  -31.8532  -22.7946   23.3467 H   0  0  0  0  0  0
  -32.8785  -21.6259   24.1345 H   0  0  0  0  0  0
  -34.3423  -17.4655   19.0185 H   0  0  0  0  0  0
  -33.9491  -15.8206   19.4956 H   0  0  0  0  0  0
  -33.6599  -15.7031   17.1068 H   0  0  0  0  0  0
  -32.9405  -17.3112   17.0546 H   0  0  0  0  0  0
  -32.9618  -20.5508   20.1531 H   0  0  0  0  0  0
  -32.0537  -21.6869   19.2187 H   0  0  0  0  0  0
  -30.8499  -20.5321   23.2299 H   0  0  0  0  0  0
  -32.3071  -19.9091   22.4706 H   0  0  0  0  0  0
  -32.2335  -18.2865   19.6921 H   0  0  0  0  0  0
  -32.4156  -17.0177   20.8755 H   0  0  0  0  0  0
  -31.6989  -14.7359   17.9841 H   0  0  0  0  0  0
  -30.9575  -15.9855   17.0302 H   0  0  0  0  0  0
  -30.5719  -22.0894   21.2991 H   0  0  0  0  0  0
  -30.4615  -17.3032   18.7336 H   0  0  0  0  0  0
  -28.7439  -16.6803   24.5198 H   0  0  0  0  0  0
  -27.5452  -16.5710   23.2344 H   0  0  0  0  0  0
  -28.5620  -17.9970   23.3716 H   0  0  0  0  0  0
  -29.6478  -15.1958   22.8596 H   0  0  0  0  0  0
  -30.5897  -16.6346   22.8026 H   0  0  0  0  0  0
  -30.5446  -26.0627   18.6820 H   0  0  0  0  0  0
  -30.4312  -25.1296   20.1537 H   0  0  0  0  0  0
  -31.2545  -23.7991   18.1836 H   0  0  0  0  0  0
  -29.7244  -24.0766   17.3663 H   0  0  0  0  0  0
  -27.9427  -24.8314   19.7129 H   0  0  0  0  0  0
  -28.1344  -25.8283   18.2656 H   0  0  0  0  0  0
  -28.3403  -15.9279   20.8658 H   0  0  0  0  0  0
  -29.6605  -22.8456   20.0730 H   0  0  0  0  0  0
  1 25  1  0  0  0
  1 30  2  0  0  0
  1 96  1  0  0  0
  2  3  1  0  0  0
  2 25  1  0  0  0
  2 98  1  0  0  0
  2 99  1  0  0  0
  3  4  1  0  0  0
  3100  1  0  0  0
  3101  1  0  0  0
  4  5  1  0  0  0
  4102  1  0  0  0
  4103  1  0  0  0
  5  6  1  0  0  0
  5 26  1  0  0  0
  5104  1  0  0  0
  6 25  1  0  0  0
  6105  1  0  0  0
  6106  1  0  0  0
  7  8  2  0  0  0
  7 26  1  0  0  0
  7 29  1  0  0  0
  8  9  1  0  0  0
  8 22  1  0  0  0
  9 10  1  0  0  0
  9 27  2  0  0  0
 10 11  2  0  0  0
 10 15  1  0  0  0
 11 12  1  0  0  0
 11107  1  0  0  0
 12 13  2  0  0  0
 12108  1  0  0  0
 13 14  1  0  0  0
 13 31  1  0  0  0
 14 15  2  0  0  0
 14109  1  0  0  0
 15110  1  0  0  0
 16 17  2  0  0  0
 16 21  1  0  0  0
 16 31  1  0  0  0
 17 18  1  0  0  0
 17111  1  0  0  0
 18 19  2  0  0  0
 18112  1  0  0  0
 19 20  1  0  0  0
 19 24  1  0  0  0
 20 21  2  0  0  0
 20113  1  0  0  0
 21 23  1  0  0  0
 22 28  1  0  0  0
 22 32  2  0  0  0
 26 27  1  0  0  0
 28114  1  0  0  0
 28115  1  0  0  0
 29116  1  0  0  0
 29117  1  0  0  0
 33 34  1  0  0  0
 33 66  1  0  0  0
 33 70  2  0  0  0
 34 36  1  0  0  0
 34 59  1  0  0  0
 34118  1  0  0  0
 35 44  2  0  0  0
 35 45  1  0  0  0
 35 68  1  0  0  0
 36 56  1  0  0  0
 36119  1  0  0  0
 37 39  1  0  0  0
 37 47  1  0  0  0
 37 66  1  0  0  0
 37120  1  0  0  0
 38 43  2  0  0  0
 38 46  1  0  0  0
 38 47  1  0  0  0
 39 64  1  0  0  0
 39 67  2  0  0  0
 40 52  1  0  0  0
 40 53  2  0  0  0
 40 58  1  0  0  0
 41121  1  0  0  0
 41122  1  0  0  0
 41123  1  0  0  0
 41 48  1  0  0  0
 42 43  1  0  0  0
 42 66  1  0  0  0
 42124  1  0  0  0
 42125  1  0  0  0
 43 44  1  0  0  0
 44126  1  0  0  0
 45 46  2  0  0  0
 45127  1  0  0  0
 46128  1  0  0  0
 47129  1  0  0  0
 47130  1  0  0  0
 48 56  1  0  0  0
 48 65  1  0  0  0
 48131  1  0  0  0
 49 50  1  0  0  0
 49 53  1  0  0  0
 49 64  1  0  0  0
 49132  1  0  0  0
 50 51  1  0  0  0
 50133  1  0  0  0
 50134  1  0  0  0
 51 52  1  0  0  0
 51135  1  0  0  0
 51136  1  0  0  0
 52137  1  0  0  0
 52138  1  0  0  0
 53 54  1  0  0  0
 54 55  2  0  0  0
 54139  1  0  0  0
 55 57  1  0  0  0
 55140  1  0  0  0
 56 69  2  0  0  0
 57 58  2  0  0  0
 57141  1  0  0  0
 58142  1  0  0  0
 59 60  1  0  0  0
 59 61  1  0  0  0
 59 62  1  0  0  0
 60143  1  0  0  0
 60144  1  0  0  0
 60145  1  0  0  0
 61146  1  0  0  0
 61147  1  0  0  0
 61148  1  0  0  0
 62149  1  0  0  0
 62150  1  0  0  0
 62151  1  0  0  0
 63 65  1  0  0  0
 63152  1  0  0  0
 63153  1  0  0  0
 63154  1  0  0  0
 64155  1  0  0  0
 65156  1  0  0  0
 68 93  1  0  0  0
 71 72  2  0  0  0
 71 74  1  0  0  0
 71157  1  0  0  0
 72 76  1  0  0  0
 72158  1  0  0  0
 73 75  1  0  0  0
 73 76  2  0  0  0
 73159  1  0  0  0
 74 75  2  0  0  0
 74 77  1  0  0  0
 75 87  1  0  0  0
 76 94  1  0  0  0
 77 95  1  0  0  0
 77 97  2  0  0  0
 78 79  1  0  0  0
 78 80  1  0  0  0
 78160  1  0  0  0
 78161  1  0  0  0
 79 83  1  0  0  0
 79162  1  0  0  0
 79163  1  0  0  0
 80 84  1  0  0  0
 80164  1  0  0  0
 80165  1  0  0  0
 81 82  1  0  0  0
 81 85  1  0  0  0
 81166  1  0  0  0
 81167  1  0  0  0
 82 86  1  0  0  0
 82168  1  0  0  0
 82169  1  0  0  0
 83 87  1  0  0  0
 83170  1  0  0  0
 83171  1  0  0  0
 84 87  1  0  0  0
 84172  1  0  0  0
 84173  1  0  0  0
 85 88  1  0  0  0
 85174  1  0  0  0
 85175  1  0  0  0
 86 88  1  0  0  0
 86176  1  0  0  0
 86177  1  0  0  0
 87178  1  0  0  0
 88 96  1  0  0  0
 88179  1  0  0  0
 89 90  1  0  0  0
 89180  1  0  0  0
 89181  1  0  0  0
 89182  1  0  0  0
 90183  1  0  0  0
 90184  1  0  0  0
 90 94  1  0  0  0
 91 92  1  0  0  0
 91 93  1  0  0  0
 91185  1  0  0  0
 91186  1  0  0  0
 92 95  1  0  0  0
 92187  1  0  0  0
 92188  1  0  0  0
 93189  1  0  0  0
 93190  1  0  0  0
 94 96  1  0  0  0
 94191  1  0  0  0
 95192  1  0  0  0
M  ISO  4   1 100  68 101  93 101  96 100
M  END
> <chiral flag>
0

> <version>
0

> <s_m_source_file>
/data/baiqing/PycharmProjects/Reinvent-master-3.2/result/LINK_invent/BTK/process_docking_weight1_custom_product_contain_oxygen_bond_distance_aromatic_linkinvent_7_9_3/rearranged_h_0004.sdf

> <i_m_source_file_index>
39

> <r_mmod_Potential_Energy-OPLS-2005>
350.843902587891

> <r_mmod_Stretch_Energy-OPLS-2005>
55.2510261535645

> <r_mmod_Bend_Energy-OPLS-2005>
153.644973754883

> <r_mmod_Torsional_Energy-OPLS-2005>
383.386657714844

> <r_mmod_Improper_Torsional_Energy-OPLS-2005>
23.8495273590088

> <r_mmod_Van_der_Waal_Energy-OPLS-2005>
181.717086791992

> <r_mmod_Electrostatic_Energy-OPLS-2005>
-299.687042236328

> <r_mmod_Solvation_Energy-OPLS-2005>
-196.040878295898

> <b_mmod_Minimization_Converged-OPLS-2005>
0

> <r_mmod_RMS_Derivative-OPLS-2005>
4.80872011184692

$$$$
39
                    3D
 Structure written by MMmdl.
163171  0  0  1  0            999 V2000
  -30.6839  -14.3961   20.5861 C   0  0  0  0  0  0
  -30.4316  -12.2402   19.4164 C   0  0  0  0  0  0
  -29.4903  -12.4046   18.1987 C   0  0  0  0  0  0
  -28.0041  -12.3390   18.6127 C   0  0  0  0  0  0
  -27.6672  -13.1758   19.8757 C   0  0  2  0  0  0
  -28.7061  -12.9024   20.9892 C   0  0  0  0  0  0
  -25.2660  -13.8111   20.5706 C   0  0  0  0  0  0
  -24.1871  -13.0433   20.9176 C   0  0  0  0  0  0
  -24.6366  -11.6885   20.8756 C   0  0  0  0  0  0
  -23.9040  -10.4282   21.0408 C   0  0  0  0  0  0
  -24.3597   -9.4183   21.9163 C   0  0  0  0  0  0
  -23.6284   -8.2216   22.0768 C   0  0  0  0  0  0
  -22.4252   -8.0276   21.3579 C   0  0  0  0  0  0
  -21.9912   -9.0236   20.4652 C   0  0  0  0  0  0
  -22.7224  -10.2132   20.3048 C   0  0  0  0  0  0
  -21.6832   -6.0735   22.5304 C   0  0  0  0  0  0
  -21.3977   -6.5646   23.8237 C   0  0  0  0  0  0
  -21.3665   -5.6810   24.9205 C   0  0  0  0  0  0
  -21.6058   -4.3079   24.7252 C   0  0  0  0  0  0
  -21.8794   -3.8170   23.4372 C   0  0  0  0  0  0
  -21.9178   -4.6969   22.3421 C   0  0  0  0  0  0
  -22.7880  -13.5238   21.1833 C   0  0  0  0  0  0
  -22.1645   -4.2148   21.0999 F   0  0  0  0  0  0
  -21.5655   -3.4560   25.7765 F   0  0  0  0  0  0
  -30.0411  -13.2106   20.4485 N   0  0  0  0  0  0
  -26.3046  -12.9206   20.3378 N   0  0  0  0  0  0
  -25.9291  -11.6396   20.5815 N   0  0  0  0  0  0
  -22.0532  -12.8252   22.0424 N   0  0  0  0  0  0
  -25.4473  -15.1823   20.4124 N   0  0  0  0  0  0
  -31.8205  -14.6194   20.1534 O   0  0  0  0  0  0
  -21.6637   -6.8867   21.4271 O   0  0  0  0  0  0
  -22.3519  -14.5511   20.6663 O   0  0  0  0  0  0
  -24.6105  -31.8708   23.2139 C   0  0  0  0  0  0
  -25.9008  -32.4850   23.8440 C   0  0  1  0  0  0
  -27.2476  -27.4850   20.0691 C   0  0  0  0  0  0
  -25.5874  -33.8649   24.2375 N   0  0  0  0  0  0
  -23.3991  -30.4943   21.5506 C   0  0  2  0  0  0
  -24.8479  -28.9610   20.1198 C   0  0  0  0  0  0
  -22.7405  -29.4684   22.5001 C   0  0  0  0  0  0
  -18.0281  -28.1377   22.8513 C   0  0  0  0  0  0
  -24.1480  -36.7344   23.2638 C   0  0  0  0  0  0
  -25.9251  -30.8473   21.3606 C   0  0  0  0  0  0
  -26.0040  -29.4825   20.7146 C   0  0  0  0  0  0
  -27.2060  -28.7455   20.6984 C   0  0  0  0  0  0
  -26.0741  -26.9591   19.4867 C   0  0  0  0  0  0
  -24.8729  -27.6932   19.5109 C   0  0  0  0  0  0
  -23.6078  -29.8232   20.1668 C   0  0  0  0  0  0
  -25.4100  -36.3145   24.0353 C   0  0  1  0  0  0
  -20.5873  -28.3685   23.1299 C   0  0  2  0  0  0
  -20.6769  -26.9421   22.5392 C   0  0  0  0  0  0
  -19.5740  -26.6406   21.5191 C   0  0  0  0  0  0
  -18.1925  -26.7937   22.1617 C   0  0  0  0  0  0
  -19.1531  -28.8841   23.2916 C   0  0  0  0  0  0
  -18.9449  -30.1439   23.8944 C   0  0  0  0  0  0
  -17.6452  -30.6584   24.0574 C   0  0  0  0  0  0
  -25.9019  -34.9497   23.5168 C   0  0  0  0  0  0
  -16.5345  -29.9091   23.6312 C   0  0  0  0  0  0
  -16.7269  -28.6488   23.0370 C   0  0  0  0  0  0
  -26.4472  -31.6608   25.0739 C   0  0  0  0  0  0
  -25.3748  -31.3664   26.1484 C   0  0  0  0  0  0
  -27.0294  -30.3062   24.6065 C   0  0  0  0  0  0
  -27.6072  -32.4309   25.7477 C   0  0  0  0  0  0
  -27.5600  -37.1817   24.8473 C   0  0  0  0  0  0
  -21.4140  -29.3054   22.3717 N   0  0  0  0  0  0
  -26.4311  -37.3807   23.9413 N   0  0  0  0  0  0
  -24.6633  -31.0843   22.1009 N   0  0  0  0  0  0
  -23.4187  -28.8223   23.3031 O   0  0  0  0  0  0
  -28.4208  -26.7779   20.0566 O   0  0  0  0  0  0
  -26.5584  -34.8929   22.4733 O   0  0  0  0  0  0
  -23.5291  -32.1450   23.7522 O   0  0  0  0  0  0
  -29.0732  -16.6556   16.9268 C   0  0  0  0  0  0
  -28.8042  -18.0007   16.6503 C   0  0  0  0  0  0
  -29.4354  -16.2817   18.2260 C   0  0  0  0  0  0
  -29.2230  -18.5755   18.9902 C   0  0  0  0  0  0
  -28.8545  -18.9666   17.6767 C   0  0  0  0  0  0
  -29.5355  -17.2252   19.2720 C   0  0  0  0  0  0
  -28.5493  -20.3907   17.3213 C   0  0  0  0  0  0
  -30.0294  -16.8126   20.6658 C   0  0  0  0  0  0
  -28.8162  -23.9295   19.0189 C   0  0  0  0  0  0
  -28.0696  -23.5408   17.7328 C   0  0  0  0  0  0
  -29.7213  -25.1604   18.8371 C   0  0  0  0  0  0
  -27.1320  -22.3303   17.9021 C   0  0  0  0  0  0
  -28.9519  -26.4900   18.7689 C   0  0  0  0  0  0
  -27.8218  -21.0793   18.2064 N   0  0  0  0  0  0
  -29.8729  -15.3899   20.9724 N   0  0  0  0  0  0
  -28.8663  -20.8373   16.2168 O   0  0  0  0  0  0
  -31.4755  -12.3538   19.1209 H   0  0  0  0  0  0
  -30.3589  -11.2255   19.8136 H   0  0  0  0  0  0
  -29.6908  -11.6126   17.4747 H   0  0  0  0  0  0
  -29.7002  -13.3278   17.6682 H   0  0  0  0  0  0
  -27.7790  -11.2901   18.8086 H   0  0  0  0  0  0
  -27.3662  -12.6304   17.7784 H   0  0  0  0  0  0
  -27.7272  -14.2223   19.5820 H   0  0  0  0  0  0
  -28.6658  -11.8501   21.2693 H   0  0  0  0  0  0
  -28.4829  -13.4442   21.9091 H   0  0  0  0  0  0
  -25.2734   -9.5665   22.4742 H   0  0  0  0  0  0
  -24.0017   -7.4606   22.7486 H   0  0  0  0  0  0
  -21.0867   -8.8733   19.8919 H   0  0  0  0  0  0
  -22.3669  -10.9688   19.6176 H   0  0  0  0  0  0
  -21.1915   -7.6155   23.9741 H   0  0  0  0  0  0
  -21.1528   -6.0545   25.9105 H   0  0  0  0  0  0
  -22.0559   -2.7639   23.2889 H   0  0  0  0  0  0
  -22.4159  -11.9912   22.4795 H   0  0  0  0  0  0
  -21.1128  -13.1263   22.2575 H   0  0  0  0  0  0
  -24.6865  -15.8468   20.5071 H   0  0  0  0  0  0
  -26.3024  -15.6138   20.0815 H   0  0  0  0  0  0
  -26.7087  -32.5569   23.1214 H   0  0  0  0  0  0
  -25.0024  -33.9815   25.0525 H   0  0  0  0  0  0
  -22.6868  -31.3095   21.4074 H   0  0  0  0  0  0
  -23.3739  -35.9682   23.3319 H   0  0  0  0  0  0
  -24.3588  -36.8933   22.2052 H   0  0  0  0  0  0
  -23.7223  -37.6554   23.6633 H   0  0  0  0  0  0
  -26.0288  -31.6081   20.5853 H   0  0  0  0  0  0
  -26.8187  -30.9086   21.9708 H   0  0  0  0  0  0
  -28.1053  -29.1473   21.1446 H   0  0  0  0  0  0
  -26.0926  -25.9865   19.0139 H   0  0  0  0  0  0
  -23.9819  -27.2836   19.0546 H   0  0  0  0  0  0
  -23.7123  -30.5951   19.4021 H   0  0  0  0  0  0
  -22.7334  -29.2366   19.8753 H   0  0  0  0  0  0
  -25.1256  -36.2052   25.0845 H   0  0  0  0  0  0
  -20.9986  -28.3240   24.1409 H   0  0  0  0  0  0
  -20.5657  -26.2291   23.3581 H   0  0  0  0  0  0
  -21.6637  -26.7446   22.1180 H   0  0  0  0  0  0
  -19.6908  -25.6319   21.1211 H   0  0  0  0  0  0
  -19.6677  -27.3218   20.6722 H   0  0  0  0  0  0
  -17.4193  -26.6711   21.4022 H   0  0  0  0  0  0
  -18.0335  -26.0052   22.8981 H   0  0  0  0  0  0
  -19.7915  -30.7241   24.2363 H   0  0  0  0  0  0
  -17.4995  -31.6270   24.5172 H   0  0  0  0  0  0
  -15.5345  -30.3013   23.7592 H   0  0  0  0  0  0
  -15.8675  -28.0799   22.7109 H   0  0  0  0  0  0
  -24.5938  -30.7002   25.7809 H   0  0  0  0  0  0
  -24.8901  -32.2777   26.4980 H   0  0  0  0  0  0
  -25.8099  -30.8799   27.0218 H   0  0  0  0  0  0
  -26.2805  -29.6806   24.1184 H   0  0  0  0  0  0
  -27.4176  -29.7309   25.4485 H   0  0  0  0  0  0
  -27.8598  -30.4430   23.9132 H   0  0  0  0  0  0
  -27.2748  -33.3611   26.2097 H   0  0  0  0  0  0
  -28.3843  -32.6865   25.0262 H   0  0  0  0  0  0
  -28.0795  -31.8405   26.5335 H   0  0  0  0  0  0
  -28.2614  -38.0113   24.7511 H   0  0  0  0  0  0
  -28.1092  -36.2645   24.6303 H   0  0  0  0  0  0
  -27.2321  -37.1469   25.8874 H   0  0  0  0  0  0
  -20.9308  -29.8775   21.6937 H   0  0  0  0  0  0
  -26.0227  -38.2906   24.1368 H   0  0  0  0  0  0
  -29.0222  -15.9118   16.1442 H   0  0  0  0  0  0
  -28.5510  -18.2931   15.6404 H   0  0  0  0  0  0
  -29.6704  -15.2513   18.3865 H   0  0  0  0  0  0
  -29.2862  -19.3120   19.7790 H   0  0  0  0  0  0
  -29.4878  -17.3794   21.4263 H   0  0  0  0  0  0
  -31.0791  -17.0955   20.7559 H   0  0  0  0  0  0
  -29.4327  -23.0887   19.3331 H   0  0  0  0  0  0
  -28.1080  -24.1032   19.8309 H   0  0  0  0  0  0
  -28.7937  -23.3567   16.9366 H   0  0  0  0  0  0
  -27.4698  -24.3833   17.3869 H   0  0  0  0  0  0
  -30.3190  -25.0363   17.9336 H   0  0  0  0  0  0
  -30.4350  -25.2111   19.6607 H   0  0  0  0  0  0
  -26.5550  -22.1944   16.9852 H   0  0  0  0  0  0
  -26.4074  -22.5289   18.6941 H   0  0  0  0  0  0
  -28.1936  -26.4615   17.9847 H   0  0  0  0  0  0
  -29.6339  -27.2973   18.5013 H   0  0  0  0  0  0
  -27.5624  -20.5994   19.0576 H   0  0  0  0  0  0
  -28.9656  -15.1079   21.3094 H   0  0  0  0  0  0
  1 25  1  0  0  0
  1 30  2  0  0  0
  1 85  1  0  0  0
  2  3  1  0  0  0
  2 25  1  0  0  0
  2 87  1  0  0  0
  2 88  1  0  0  0
  3  4  1  0  0  0
  3 89  1  0  0  0
  3 90  1  0  0  0
  4  5  1  0  0  0
  4 91  1  0  0  0
  4 92  1  0  0  0
  5  6  1  0  0  0
  5 26  1  0  0  0
  5 93  1  0  0  0
  6 25  1  0  0  0
  6 94  1  0  0  0
  6 95  1  0  0  0
  7  8  2  0  0  0
  7 26  1  0  0  0
  7 29  1  0  0  0
  8  9  1  0  0  0
  8 22  1  0  0  0
  9 10  1  0  0  0
  9 27  2  0  0  0
 10 11  2  0  0  0
 10 15  1  0  0  0
 11 12  1  0  0  0
 11 96  1  0  0  0
 12 13  2  0  0  0
 12 97  1  0  0  0
 13 14  1  0  0  0
 13 31  1  0  0  0
 14 15  2  0  0  0
 14 98  1  0  0  0
 15 99  1  0  0  0
 16 17  2  0  0  0
 16 21  1  0  0  0
 16 31  1  0  0  0
 17 18  1  0  0  0
 17100  1  0  0  0
 18 19  2  0  0  0
 18101  1  0  0  0
 19 20  1  0  0  0
 19 24  1  0  0  0
 20 21  2  0  0  0
 20102  1  0  0  0
 21 23  1  0  0  0
 22 28  1  0  0  0
 22 32  2  0  0  0
 26 27  1  0  0  0
 28103  1  0  0  0
 28104  1  0  0  0
 29105  1  0  0  0
 29106  1  0  0  0
 33 34  1  0  0  0
 33 66  1  0  0  0
 33 70  2  0  0  0
 34 36  1  0  0  0
 34 59  1  0  0  0
 34107  1  0  0  0
 35 44  2  0  0  0
 35 45  1  0  0  0
 35 68  1  0  0  0
 36 56  1  0  0  0
 36108  1  0  0  0
 37 39  1  0  0  0
 37 47  1  0  0  0
 37 66  1  0  0  0
 37109  1  0  0  0
 38 43  2  0  0  0
 38 46  1  0  0  0
 38 47  1  0  0  0
 39 64  1  0  0  0
 39 67  2  0  0  0
 40 52  1  0  0  0
 40 53  2  0  0  0
 40 58  1  0  0  0
 41110  1  0  0  0
 41111  1  0  0  0
 41112  1  0  0  0
 41 48  1  0  0  0
 42 43  1  0  0  0
 42 66  1  0  0  0
 42113  1  0  0  0
 42114  1  0  0  0
 43 44  1  0  0  0
 44115  1  0  0  0
 45 46  2  0  0  0
 45116  1  0  0  0
 46117  1  0  0  0
 47118  1  0  0  0
 47119  1  0  0  0
 48 56  1  0  0  0
 48 65  1  0  0  0
 48120  1  0  0  0
 49 50  1  0  0  0
 49 53  1  0  0  0
 49 64  1  0  0  0
 49121  1  0  0  0
 50 51  1  0  0  0
 50122  1  0  0  0
 50123  1  0  0  0
 51 52  1  0  0  0
 51124  1  0  0  0
 51125  1  0  0  0
 52126  1  0  0  0
 52127  1  0  0  0
 53 54  1  0  0  0
 54 55  2  0  0  0
 54128  1  0  0  0
 55 57  1  0  0  0
 55129  1  0  0  0
 56 69  2  0  0  0
 57 58  2  0  0  0
 57130  1  0  0  0
 58131  1  0  0  0
 59 60  1  0  0  0
 59 61  1  0  0  0
 59 62  1  0  0  0
 60132  1  0  0  0
 60133  1  0  0  0
 60134  1  0  0  0
 61135  1  0  0  0
 61136  1  0  0  0
 61137  1  0  0  0
 62138  1  0  0  0
 62139  1  0  0  0
 62140  1  0  0  0
 63 65  1  0  0  0
 63141  1  0  0  0
 63142  1  0  0  0
 63143  1  0  0  0
 64144  1  0  0  0
 65145  1  0  0  0
 68 83  1  0  0  0
 71 72  2  0  0  0
 71 73  1  0  0  0
 71146  1  0  0  0
 72 75  1  0  0  0
 72147  1  0  0  0
 73 76  2  0  0  0
 73148  1  0  0  0
 74 75  2  0  0  0
 74 76  1  0  0  0
 74149  1  0  0  0
 75 77  1  0  0  0
 76 78  1  0  0  0
 77 84  1  0  0  0
 77 86  2  0  0  0
 78 85  1  0  0  0
 78150  1  0  0  0
 78151  1  0  0  0
 79 80  1  0  0  0
 79 81  1  0  0  0
 79152  1  0  0  0
 79153  1  0  0  0
 80 82  1  0  0  0
 80154  1  0  0  0
 80155  1  0  0  0
 81 83  1  0  0  0
 81156  1  0  0  0
 81157  1  0  0  0
 82 84  1  0  0  0
 82158  1  0  0  0
 82159  1  0  0  0
 83160  1  0  0  0
 83161  1  0  0  0
 84162  1  0  0  0
 85163  1  0  0  0
M  ISO  4   1 100  68 101  83 101  85 100
M  END
> <chiral flag>
0

> <version>
0

> <s_m_source_file>
/data/baiqing/PycharmProjects/Reinvent-master-3.2/result/LINK_invent/BTK/process_docking_weight1_custom_product_contain_oxygen_bond_distance_aromatic_linkinvent_7_9_3/rearranged_h_0004.sdf

> <i_m_source_file_index>
40

> <r_mmod_Potential_Energy-OPLS-2005>
-139.919952392578

> <r_mmod_Stretch_Energy-OPLS-2005>
32.6650199890137

> <r_mmod_Bend_Energy-OPLS-2005>
88.6091842651367

> <r_mmod_Torsional_Energy-OPLS-2005>
240.013412475586

> <r_mmod_Improper_Torsional_Energy-OPLS-2005>
9.11839771270752

> <r_mmod_Van_der_Waal_Energy-OPLS-2005>
156.555221557617

> <r_mmod_Electrostatic_Energy-OPLS-2005>
-443.799560546875

> <r_mmod_Solvation_Energy-OPLS-2005>
-234.67414855957

> <b_mmod_Minimization_Converged-OPLS-2005>
0

> <r_mmod_RMS_Derivative-OPLS-2005>
3.96409249305725

$$$$
40
                    3D
 Structure written by MMmdl.
200211  0  0  1  0            999 V2000
  -30.7874  -14.2861   20.7881 C   0  0  0  0  0  0
  -30.4119  -12.2887   19.3837 C   0  0  0  0  0  0
  -29.4696  -12.5685   18.1992 C   0  0  0  0  0  0
  -28.0024  -12.4064   18.6200 C   0  0  0  0  0  0
  -27.6682  -13.2119   19.8985 C   0  0  2  0  0  0
  -28.6995  -12.9250   21.0119 C   0  0  0  0  0  0
  -25.2553  -13.8226   20.5656 C   0  0  0  0  0  0
  -24.1773  -13.0490   20.9118 C   0  0  0  0  0  0
  -24.6340  -11.6951   20.8686 C   0  0  0  0  0  0
  -23.8952  -10.4347   21.0365 C   0  0  0  0  0  0
  -24.3552   -9.4290   21.9165 C   0  0  0  0  0  0
  -23.6247   -8.2313   22.0743 C   0  0  0  0  0  0
  -22.4220   -8.0340   21.3531 C   0  0  0  0  0  0
  -21.9795   -9.0285   20.4612 C   0  0  0  0  0  0
  -22.7125  -10.2174   20.3002 C   0  0  0  0  0  0
  -21.6875   -6.0758   22.5217 C   0  0  0  0  0  0
  -21.4058   -6.5661   23.8169 C   0  0  0  0  0  0
  -21.3630   -5.6809   24.9134 C   0  0  0  0  0  0
  -21.6018   -4.3070   24.7175 C   0  0  0  0  0  0
  -21.8871   -3.8164   23.4300 C   0  0  0  0  0  0
  -21.9265   -4.6989   22.3375 C   0  0  0  0  0  0
  -22.7843  -13.5324   21.1858 C   0  0  0  0  0  0
  -22.1771   -4.2205   21.0951 F   0  0  0  0  0  0
  -21.5538   -3.4548   25.7675 F   0  0  0  0  0  0
  -30.0670  -13.1783   20.4992 N   0  0  0  0  0  0
  -26.2992  -12.9404   20.3428 N   0  0  0  0  0  0
  -25.9266  -11.6539   20.5735 N   0  0  0  0  0  0
  -22.0528  -12.8292   22.0461 N   0  0  0  0  0  0
  -25.4197  -15.1953   20.4193 N   0  0  0  0  0  0
  -31.6632  -14.7633   20.0572 O   0  0  0  0  0  0
  -21.6656   -6.8887   21.4175 O   0  0  0  0  0  0
  -22.3493  -14.5629   20.6742 O   0  0  0  0  0  0
  -24.6139  -31.8756   23.2167 C   0  0  0  0  0  0
  -25.9069  -32.4837   23.8456 C   0  0  1  0  0  0
  -27.2340  -27.4863   20.0725 C   0  0  0  0  0  0
  -25.6012  -33.8646   24.2398 N   0  0  0  0  0  0
  -23.3987  -30.5051   21.5524 C   0  0  2  0  0  0
  -24.8488  -28.9937   20.1020 C   0  0  0  0  0  0
  -22.7402  -29.4665   22.4930 C   0  0  0  0  0  0
  -18.0236  -28.1445   22.8365 C   0  0  0  0  0  0
  -24.1512  -36.7326   23.2586 C   0  0  0  0  0  0
  -25.9267  -30.8543   21.3681 C   0  0  0  0  0  0
  -26.0052  -29.4917   20.7205 C   0  0  0  0  0  0
  -27.2018  -28.7394   20.7237 C   0  0  0  0  0  0
  -26.0933  -27.0515   19.3731 C   0  0  0  0  0  0
  -24.8861  -27.7650   19.4314 C   0  0  0  0  0  0
  -23.6066  -29.8532   20.1580 C   0  0  0  0  0  0
  -25.4117  -36.3131   24.0310 C   0  0  1  0  0  0
  -20.5828  -28.3586   23.1246 C   0  0  2  0  0  0
  -20.6718  -26.9367   22.5287 C   0  0  0  0  0  0
  -19.5699  -26.6302   21.5107 C   0  0  0  0  0  0
  -18.1810  -26.8109   22.1280 C   0  0  0  0  0  0
  -19.1538  -28.8799   23.2841 C   0  0  0  0  0  0
  -18.9501  -30.1291   23.9080 C   0  0  0  0  0  0
  -17.6557  -30.6516   24.0744 C   0  0  0  0  0  0
  -25.9061  -34.9487   23.5132 C   0  0  0  0  0  0
  -16.5401  -29.9158   23.6390 C   0  0  0  0  0  0
  -16.7255  -28.6626   23.0296 C   0  0  0  0  0  0
  -26.4513  -31.6578   25.0746 C   0  0  0  0  0  0
  -25.3768  -31.3725   26.1486 C   0  0  0  0  0  0
  -27.0332  -30.3025   24.6104 C   0  0  0  0  0  0
  -27.6139  -32.4262   25.7469 C   0  0  0  0  0  0
  -27.5604  -37.1823   24.8433 C   0  0  0  0  0  0
  -21.4113  -29.2961   22.3633 N   0  0  0  0  0  0
  -26.4316  -37.3812   23.9392 N   0  0  0  0  0  0
  -24.6621  -31.0939   22.1016 N   0  0  0  0  0  0
  -23.4180  -28.8148   23.2893 O   0  0  0  0  0  0
  -28.3528  -26.6876   20.1299 O   0  0  0  0  0  0
  -26.5576  -34.8940   22.4665 O   0  0  0  0  0  0
  -23.5348  -32.1467   23.7639 O   0  0  0  0  0  0
  -24.5672  -20.2078   23.7422 C   0  0  0  0  0  0
  -22.7680  -19.0491   22.5785 C   0  0  0  0  0  0
  -24.7731  -21.0262   22.6229 C   0  0  0  0  0  0
  -22.9504  -19.8913   21.4679 C   0  0  0  0  0  0
  -23.6147  -19.1682   23.7054 C   0  0  0  0  0  0
  -23.9665  -20.8673   21.4775 C   0  0  0  0  0  0
  -22.2752  -18.0185   25.3377 C   0  0  0  0  0  0
  -23.5076  -18.2136   24.8351 C   0  0  0  0  0  0
  -24.6849  -17.4870   25.3687 C   0  0  0  0  0  0
  -24.5392  -16.7790   26.5310 C   0  0  0  0  0  0
  -21.9629  -17.1298   26.5107 C   0  0  0  0  0  0
  -25.6015  -16.0274   27.3359 C   0  0  0  0  0  0
  -24.1153  -23.2627   20.6687 C   0  0  0  0  0  0
  -25.3404  -21.4173   19.3778 C   0  0  0  0  0  0
  -25.7859  -16.6767   28.7239 C   0  0  0  0  0  0
  -25.2888  -24.0546   20.0861 C   0  0  0  0  0  0
  -26.6973  -22.0213   19.8215 C   0  0  0  0  0  0
  -23.3964  -17.4055   28.6715 C   0  0  0  0  0  0
  -24.1305  -21.7751   20.2692 C   0  0  1  0  0  0
  -23.2198  -16.6970   27.3030 C   0  0  2  0  0  0
  -25.9724  -17.6045   24.5091 C   0  0  0  0  0  0
  -27.2436  -16.7769   24.7209 C   0  0  0  0  0  0
  -28.2134  -16.9706   23.5405 C   0  0  0  0  0  0
  -29.5256  -16.1856   23.6995 C   0  0  0  0  0  0
  -30.3691  -16.1387   22.4009 C   0  0  0  0  0  0
  -27.7682  -24.2711   19.8497 C   0  0  0  0  0  0
  -28.1176  -25.4405   20.8085 C   0  0  0  0  0  0
  -30.5472  -14.7454   22.0211 N   0  0  0  0  0  0
  -24.5058  -16.8103   29.4573 N   0  3  0  0  0  0
  -26.6185  -23.4253   20.3176 N   0  3  1  0  0  0
  -31.4538  -12.4092   19.0836 H   0  0  0  0  0  0
  -30.3116  -11.2510   19.7070 H   0  0  0  0  0  0
  -29.6800  -11.8847   17.3791 H   0  0  0  0  0  0
  -29.6432  -13.5810   17.8282 H   0  0  0  0  0  0
  -27.8322  -11.3457   18.8005 H   0  0  0  0  0  0
  -27.3360  -12.7112   17.8106 H   0  0  0  0  0  0
  -27.7316  -14.2764   19.6603 H   0  0  0  0  0  0
  -28.6205  -11.8933   21.3530 H   0  0  0  0  0  0
  -28.4332  -13.5407   21.8718 H   0  0  0  0  0  0
  -25.2692   -9.5823   22.4761 H   0  0  0  0  0  0
  -24.0009   -7.4656   22.7367 H   0  0  0  0  0  0
  -21.0789   -8.8740   19.8846 H   0  0  0  0  0  0
  -22.3534  -10.9702   19.6122 H   0  0  0  0  0  0
  -21.2058   -7.6166   23.9687 H   0  0  0  0  0  0
  -21.1366   -6.0527   25.9018 H   0  0  0  0  0  0
  -22.0673   -2.7647   23.2766 H   0  0  0  0  0  0
  -22.4253  -11.9983   22.4816 H   0  0  0  0  0  0
  -21.1076  -13.1122   22.2503 H   0  0  0  0  0  0
  -26.2883  -15.6489   20.1629 H   0  0  0  0  0  0
  -24.6493  -15.8470   20.5381 H   0  0  0  0  0  0
  -26.7153  -32.5580   23.1226 H   0  0  0  0  0  0
  -25.0375  -33.9788   25.0707 H   0  0  0  0  0  0
  -22.6798  -31.3181   21.4281 H   0  0  0  0  0  0
  -23.3780  -35.9656   23.3235 H   0  0  0  0  0  0
  -24.3589  -36.8957   22.2001 H   0  0  0  0  0  0
  -23.7305  -37.6536   23.6628 H   0  0  0  0  0  0
  -26.0510  -31.6193   20.5988 H   0  0  0  0  0  0
  -26.8025  -30.9002   22.0001 H   0  0  0  0  0  0
  -28.0803  -29.1074   21.2339 H   0  0  0  0  0  0
  -26.1283  -26.1661   18.7650 H   0  0  0  0  0  0
  -24.0134  -27.3962   18.9107 H   0  0  0  0  0  0
  -23.7084  -30.6477   19.4131 H   0  0  0  0  0  0
  -22.7326  -29.2752   19.8471 H   0  0  0  0  0  0
  -25.1292  -36.1972   25.0807 H   0  0  0  0  0  0
  -20.9966  -28.3095   24.1342 H   0  0  0  0  0  0
  -20.5825  -26.2134   23.3391 H   0  0  0  0  0  0
  -21.6528  -26.7555   22.0887 H   0  0  0  0  0  0
  -19.6791  -25.6135   21.1346 H   0  0  0  0  0  0
  -19.6822  -27.2919   20.6510 H   0  0  0  0  0  0
  -17.4273  -26.7371   21.3389 H   0  0  0  0  0  0
  -17.9723  -26.0060   22.8388 H   0  0  0  0  0  0
  -19.8010  -30.6926   24.2695 H   0  0  0  0  0  0
  -17.5153  -31.6130   24.5549 H   0  0  0  0  0  0
  -15.5423  -30.3141   23.7772 H   0  0  0  0  0  0
  -15.8553  -28.1080   22.7015 H   0  0  0  0  0  0
  -24.5962  -30.7027   25.7840 H   0  0  0  0  0  0
  -24.8914  -32.2892   26.4873 H   0  0  0  0  0  0
  -25.8107  -30.8969   27.0277 H   0  0  0  0  0  0
  -26.2900  -29.6781   24.1134 H   0  0  0  0  0  0
  -27.4062  -29.7270   25.4572 H   0  0  0  0  0  0
  -27.8756  -30.4292   23.9291 H   0  0  0  0  0  0
  -27.2836  -33.3554   26.2107 H   0  0  0  0  0  0
  -28.3936  -32.6805   25.0276 H   0  0  0  0  0  0
  -28.0812  -31.8321   26.5315 H   0  0  0  0  0  0
  -28.2599  -38.0142   24.7532 H   0  0  0  0  0  0
  -28.1139  -36.2692   24.6209 H   0  0  0  0  0  0
  -27.2304  -37.1388   25.8822 H   0  0  0  0  0  0
  -20.9289  -29.8465   21.6684 H   0  0  0  0  0  0
  -26.0204  -38.2890   24.1422 H   0  0  0  0  0  0
  -25.1623  -20.3805   24.6279 H   0  0  0  0  0  0
  -21.9949  -18.2947   22.5269 H   0  0  0  0  0  0
  -25.5372  -21.7882   22.6742 H   0  0  0  0  0  0
  -22.3065  -19.7814   20.6049 H   0  0  0  0  0  0
  -21.4266  -18.5353   24.9013 H   0  0  0  0  0  0
  -21.4455  -16.2538   26.1139 H   0  0  0  0  0  0
  -21.2403  -17.6341   27.1557 H   0  0  0  0  0  0
  -26.5707  -15.9423   26.8786 H   0  0  0  0  0  0
  -25.2787  -14.9923   27.4562 H   0  0  0  0  0  0
  -23.1787  -23.7154   20.3409 H   0  0  0  0  0  0
  -24.0919  -23.4037   21.7481 H   0  0  0  0  0  0
  -25.4230  -20.3384   19.2397 H   0  0  0  0  0  0
  -25.1300  -21.8127   18.3840 H   0  0  0  0  0  0
  -26.2358  -17.6635   28.6129 H   0  0  0  0  0  0
  -26.4868  -16.0915   29.3230 H   0  0  0  0  0  0
  -25.2505  -25.0272   20.5678 H   0  0  0  0  0  0
  -25.1323  -24.2046   19.0136 H   0  0  0  0  0  0
  -27.3880  -21.9460   18.9801 H   0  0  0  0  0  0
  -27.1407  -21.4176   20.6130 H   0  0  0  0  0  0
  -22.4789  -17.3475   29.2567 H   0  0  0  0  0  0
  -23.6067  -18.4668   28.5282 H   0  0  0  0  0  0
  -23.2405  -21.6116   19.6542 H   0  0  0  0  0  0
  -23.0438  -15.6419   27.5272 H   0  0  0  0  0  0
  -26.3177  -18.6311   24.5749 H   0  0  0  0  0  0
  -25.6520  -17.4359   23.4777 H   0  0  0  0  0  0
  -27.0106  -15.7123   24.8064 H   0  0  0  0  0  0
  -27.7508  -17.1143   25.6258 H   0  0  0  0  0  0
  -28.4352  -18.0290   23.3966 H   0  0  0  0  0  0
  -27.7105  -16.6460   22.6292 H   0  0  0  0  0  0
  -29.2697  -15.1778   24.0427 H   0  0  0  0  0  0
  -30.1239  -16.6161   24.5061 H   0  0  0  0  0  0
  -31.3366  -16.6278   22.5523 H   0  0  0  0  0  0
  -29.8680  -16.6742   21.5894 H   0  0  0  0  0  0
  -28.6649  -23.6629   19.7324 H   0  0  0  0  0  0
  -27.5833  -24.6316   18.8423 H   0  0  0  0  0  0
  -29.0191  -25.1833   21.3654 H   0  0  0  0  0  0
  -27.3481  -25.5591   21.5765 H   0  0  0  0  0  0
  -30.0700  -14.0806   22.6111 H   0  0  0  0  0  0
  -24.6681  -17.3708   30.2782 H   0  0  0  0  0  0
  -24.2280  -15.8960   29.7722 H   0  0  0  0  0  0
  -26.7312  -23.3505   21.3197 H   0  0  0  0  0  0
  1 25  1  0  0  0
  1 30  2  0  0  0
  1 98  1  0  0  0
  2  3  1  0  0  0
  2 25  1  0  0  0
  2101  1  0  0  0
  2102  1  0  0  0
  3  4  1  0  0  0
  3103  1  0  0  0
  3104  1  0  0  0
  4  5  1  0  0  0
  4105  1  0  0  0
  4106  1  0  0  0
  5  6  1  0  0  0
  5 26  1  0  0  0
  5107  1  0  0  0
  6 25  1  0  0  0
  6108  1  0  0  0
  6109  1  0  0  0
  7  8  2  0  0  0
  7 26  1  0  0  0
  7 29  1  0  0  0
  8  9  1  0  0  0
  8 22  1  0  0  0
  9 10  1  0  0  0
  9 27  2  0  0  0
 10 11  2  0  0  0
 10 15  1  0  0  0
 11 12  1  0  0  0
 11110  1  0  0  0
 12 13  2  0  0  0
 12111  1  0  0  0
 13 14  1  0  0  0
 13 31  1  0  0  0
 14 15  2  0  0  0
 14112  1  0  0  0
 15113  1  0  0  0
 16 17  2  0  0  0
 16 21  1  0  0  0
 16 31  1  0  0  0
 17 18  1  0  0  0
 17114  1  0  0  0
 18 19  2  0  0  0
 18115  1  0  0  0
 19 20  1  0  0  0
 19 24  1  0  0  0
 20 21  2  0  0  0
 20116  1  0  0  0
 21 23  1  0  0  0
 22 28  1  0  0  0
 22 32  2  0  0  0
 26 27  1  0  0  0
 28117  1  0  0  0
 28118  1  0  0  0
 29119  1  0  0  0
 29120  1  0  0  0
 33 34  1  0  0  0
 33 66  1  0  0  0
 33 70  2  0  0  0
 34 36  1  0  0  0
 34 59  1  0  0  0
 34121  1  0  0  0
 35 44  2  0  0  0
 35 45  1  0  0  0
 35 68  1  0  0  0
 36 56  1  0  0  0
 36122  1  0  0  0
 37 39  1  0  0  0
 37 47  1  0  0  0
 37 66  1  0  0  0
 37123  1  0  0  0
 38 43  2  0  0  0
 38 46  1  0  0  0
 38 47  1  0  0  0
 39 64  1  0  0  0
 39 67  2  0  0  0
 40 52  1  0  0  0
 40 53  2  0  0  0
 40 58  1  0  0  0
 41124  1  0  0  0
 41125  1  0  0  0
 41126  1  0  0  0
 41 48  1  0  0  0
 42 43  1  0  0  0
 42 66  1  0  0  0
 42127  1  0  0  0
 42128  1  0  0  0
 43 44  1  0  0  0
 44129  1  0  0  0
 45 46  2  0  0  0
 45130  1  0  0  0
 46131  1  0  0  0
 47132  1  0  0  0
 47133  1  0  0  0
 48 56  1  0  0  0
 48 65  1  0  0  0
 48134  1  0  0  0
 49 50  1  0  0  0
 49 53  1  0  0  0
 49 64  1  0  0  0
 49135  1  0  0  0
 50 51  1  0  0  0
 50136  1  0  0  0
 50137  1  0  0  0
 51 52  1  0  0  0
 51138  1  0  0  0
 51139  1  0  0  0
 52140  1  0  0  0
 52141  1  0  0  0
 53 54  1  0  0  0
 54 55  2  0  0  0
 54142  1  0  0  0
 55 57  1  0  0  0
 55143  1  0  0  0
 56 69  2  0  0  0
 57 58  2  0  0  0
 57144  1  0  0  0
 58145  1  0  0  0
 59 60  1  0  0  0
 59 61  1  0  0  0
 59 62  1  0  0  0
 60146  1  0  0  0
 60147  1  0  0  0
 60148  1  0  0  0
 61149  1  0  0  0
 61150  1  0  0  0
 61151  1  0  0  0
 62152  1  0  0  0
 62153  1  0  0  0
 62154  1  0  0  0
 63 65  1  0  0  0
 63155  1  0  0  0
 63156  1  0  0  0
 63157  1  0  0  0
 64158  1  0  0  0
 65159  1  0  0  0
 68 97  1  0  0  0
 71 73  2  0  0  0
 71 75  1  0  0  0
 71160  1  0  0  0
 72 74  1  0  0  0
 72 75  2  0  0  0
 72161  1  0  0  0
 73 76  1  0  0  0
 73162  1  0  0  0
 74 76  2  0  0  0
 74163  1  0  0  0
 75 78  1  0  0  0
 76 89  1  0  0  0
 77 78  2  0  0  0
 77 81  1  0  0  0
 77164  1  0  0  0
 78 79  1  0  0  0
 79 80  2  0  0  0
 79 91  1  0  0  0
 80 82  1  0  0  0
 80 90  1  0  0  0
 81165  1  0  0  0
 81166  1  0  0  0
 81 90  1  0  0  0
 82 85  1  0  0  0
 82167  1  0  0  0
 82168  1  0  0  0
 83 86  1  0  0  0
 83 89  1  0  0  0
 83169  1  0  0  0
 83170  1  0  0  0
 84 87  1  0  0  0
 84 89  1  0  0  0
 84171  1  0  0  0
 84172  1  0  0  0
 85 99  1  0  0  0
 85173  1  0  0  0
 85174  1  0  0  0
 86100  1  0  0  0
 86175  1  0  0  0
 86176  1  0  0  0
 87100  1  0  0  0
 87177  1  0  0  0
 87178  1  0  0  0
 88 90  1  0  0  0
 88 99  1  0  0  0
 88179  1  0  0  0
 88180  1  0  0  0
 89181  1  0  0  0
 90182  1  0  0  0
 91 92  1  0  0  0
 91183  1  0  0  0
 91184  1  0  0  0
 92 93  1  0  0  0
 92185  1  0  0  0
 92186  1  0  0  0
 93 94  1  0  0  0
 93187  1  0  0  0
 93188  1  0  0  0
 94 95  1  0  0  0
 94189  1  0  0  0
 94190  1  0  0  0
 95 98  1  0  0  0
 95191  1  0  0  0
 95192  1  0  0  0
 96 97  1  0  0  0
 96193  1  0  0  0
 96194  1  0  0  0
 96100  1  0  0  0
 97195  1  0  0  0
 97196  1  0  0  0
 98197  1  0  0  0
 99198  1  0  0  0
 99199  1  0  0  0
100200  1  0  0  0
M  CHG  2  99   1 100   1
M  ISO  4   1 100  68 101  97 101  98 100
M  END
> <chiral flag>
0

> <version>
0

> <s_m_source_file>
/data/baiqing/PycharmProjects/Reinvent-master-3.2/result/LINK_invent/BTK/process_docking_weight1_custom_product_contain_oxygen_bond_distance_aromatic_linkinvent_7_9_3/rearranged_h_0004.sdf

> <i_m_source_file_index>
41

> <r_mmod_Potential_Energy-OPLS-2005>
-49.1727333068848

> <r_mmod_Stretch_Energy-OPLS-2005>
47.0189933776855

> <r_mmod_Bend_Energy-OPLS-2005>
151.835189819336

> <r_mmod_Torsional_Energy-OPLS-2005>
395.638641357422

> <r_mmod_Improper_Torsional_Energy-OPLS-2005>
4.69927835464478

> <r_mmod_Van_der_Waal_Energy-OPLS-2005>
198.343719482422

> <r_mmod_Electrostatic_Energy-OPLS-2005>
-53.4973182678223

> <r_mmod_Solvation_Energy-OPLS-2005>
-811.033508300781

> <b_mmod_Minimization_Converged-OPLS-2005>
0

> <r_mmod_RMS_Derivative-OPLS-2005>
7.58171033859253

$$$$
41
                    3D
 Structure written by MMmdl.
171180  0  0  1  0            999 V2000
  -30.7573  -14.3689   20.6903 C   0  0  0  0  0  0
  -30.4258  -12.2896   19.4015 C   0  0  0  0  0  0
  -29.4921  -12.5324   18.1995 C   0  0  0  0  0  0
  -28.0145  -12.3910   18.6128 C   0  0  0  0  0  0
  -27.6706  -13.2036   19.8886 C   0  0  2  0  0  0
  -28.7078  -12.9258   21.0002 C   0  0  0  0  0  0
  -25.2534  -13.8117   20.5519 C   0  0  0  0  0  0
  -24.1809  -13.0412   20.9103 C   0  0  0  0  0  0
  -24.6386  -11.6892   20.8723 C   0  0  0  0  0  0
  -23.9052  -10.4287   21.0398 C   0  0  0  0  0  0
  -24.3600   -9.4208   21.9184 C   0  0  0  0  0  0
  -23.6273   -8.2245   22.0754 C   0  0  0  0  0  0
  -22.4260   -8.0280   21.3537 C   0  0  0  0  0  0
  -21.9895   -9.0259   20.4647 C   0  0  0  0  0  0
  -22.7225  -10.2134   20.3050 C   0  0  0  0  0  0
  -21.6855   -6.0730   22.5275 C   0  0  0  0  0  0
  -21.4021   -6.5630   23.8213 C   0  0  0  0  0  0
  -21.3658   -5.6776   24.9170 C   0  0  0  0  0  0
  -21.6039   -4.3042   24.7215 C   0  0  0  0  0  0
  -21.8821   -3.8141   23.4337 C   0  0  0  0  0  0
  -21.9196   -4.6959   22.3394 C   0  0  0  0  0  0
  -22.7839  -13.5227   21.1791 C   0  0  0  0  0  0
  -22.1664   -4.2150   21.0972 F   0  0  0  0  0  0
  -21.5622   -3.4524   25.7726 F   0  0  0  0  0  0
  -30.0549  -13.2251   20.4737 N   0  0  0  0  0  0
  -26.3057  -12.9325   20.3417 N   0  0  0  0  0  0
  -25.9332  -11.6483   20.5811 N   0  0  0  0  0  0
  -22.0476  -12.8247   22.0370 N   0  0  0  0  0  0
  -25.4099  -15.1798   20.3679 N   0  0  0  0  0  0
  -31.7779  -14.6632   20.0594 O   0  0  0  0  0  0
  -21.6632   -6.8871   21.4234 O   0  0  0  0  0  0
  -22.3520  -14.5541   20.6668 O   0  0  0  0  0  0
  -24.6097  -31.8703   23.2097 C   0  0  0  0  0  0
  -25.9007  -32.4831   23.8393 C   0  0  1  0  0  0
  -27.2446  -27.4711   20.1029 C   0  0  0  0  0  0
  -25.5867  -33.8627   24.2327 N   0  0  0  0  0  0
  -23.3963  -30.4907   21.5501 C   0  0  2  0  0  0
  -24.8448  -28.9505   20.1238 C   0  0  0  0  0  0
  -22.7380  -29.4669   22.5016 C   0  0  0  0  0  0
  -18.0266  -28.1374   22.8503 C   0  0  0  0  0  0
  -24.1480  -36.7330   23.2640 C   0  0  0  0  0  0
  -25.9188  -30.8473   21.3554 C   0  0  0  0  0  0
  -25.9999  -29.4800   20.7126 C   0  0  0  0  0  0
  -27.2033  -28.7485   20.6956 C   0  0  0  0  0  0
  -26.0758  -26.9345   19.5237 C   0  0  0  0  0  0
  -24.8750  -27.6747   19.5276 C   0  0  0  0  0  0
  -23.6044  -29.8139   20.1675 C   0  0  0  0  0  0
  -25.4099  -36.3122   24.0341 C   0  0  1  0  0  0
  -20.5852  -28.3651   23.1337 C   0  0  2  0  0  0
  -20.6748  -26.9390   22.5428 C   0  0  0  0  0  0
  -19.5729  -26.6388   21.5214 C   0  0  0  0  0  0
  -18.1908  -26.7921   22.1631 C   0  0  0  0  0  0
  -19.1514  -28.8830   23.2916 C   0  0  0  0  0  0
  -18.9448  -30.1439   23.8921 C   0  0  0  0  0  0
  -17.6451  -30.6581   24.0575 C   0  0  0  0  0  0
  -25.9027  -34.9486   23.5138 C   0  0  0  0  0  0
  -16.5342  -29.9087   23.6329 C   0  0  0  0  0  0
  -16.7257  -28.6506   23.0347 C   0  0  0  0  0  0
  -26.4451  -31.6599   25.0707 C   0  0  0  0  0  0
  -25.3732  -31.3690   26.1470 C   0  0  0  0  0  0
  -27.0290  -30.3053   24.6052 C   0  0  0  0  0  0
  -27.6048  -32.4303   25.7455 C   0  0  0  0  0  0
  -27.5584  -37.1814   24.8464 C   0  0  0  0  0  0
  -21.4114  -29.3027   22.3755 N   0  0  0  0  0  0
  -26.4290  -37.3804   23.9417 N   0  0  0  0  0  0
  -24.6600  -31.0834   22.0980 N   0  0  0  0  0  0
  -23.4171  -28.8223   23.3055 O   0  0  0  0  0  0
  -28.4413  -26.8082   20.0361 O   0  0  0  0  0  0
  -26.5602  -34.8941   22.4707 O   0  0  0  0  0  0
  -23.5303  -32.1436   23.7510 O   0  0  0  0  0  0
  -30.2599  -19.3532   21.6372 C   0  0  0  0  0  0
  -31.5165  -17.2869   21.5814 C   0  0  0  0  0  0
  -31.5209  -18.7023   21.5828 C   0  0  0  0  0  0
  -29.0637  -18.6379   21.8355 C   0  0  0  0  0  0
  -30.3176  -16.5498   21.7117 C   0  0  0  0  0  0
  -29.1006  -17.2321   21.9120 C   0  0  0  0  0  0
  -33.1084  -21.0917   19.6718 C   0  0  0  0  0  0
  -32.7340  -20.6008   22.5418 C   0  0  0  0  0  0
  -32.9237  -22.2380   20.6751 C   0  0  0  0  0  0
  -32.8249  -19.4469   21.5063 C   0  0  2  0  0  0
  -27.7538  -19.3920   21.9809 C   0  0  0  0  0  0
  -30.3651  -24.2082   21.9799 C   0  0  0  0  0  0
  -31.8264  -24.2830   22.4748 C   0  0  0  0  0  0
  -29.9540  -25.5258   21.3003 C   0  0  0  0  0  0
  -32.4049  -22.9694   23.0510 C   0  0  0  0  0  0
  -28.5307  -25.5646   20.7201 C   0  0  0  0  0  0
  -33.0256  -19.8392   20.1164 N   0  0  0  0  0  0
  -32.6534  -21.8763   22.0847 N   0  0  0  0  0  0
  -30.2866  -15.1322   21.6857 N   0  0  0  0  0  0
  -33.3221  -21.3366   18.4852 O   0  0  0  0  0  0
  -32.7093  -20.3236   23.7464 O   0  0  0  0  0  0
  -27.6621  -16.3386   22.2544 Cl  0  0  0  0  0  0
  -31.4695  -12.3951   19.0981 H   0  0  0  0  0  0
  -30.3286  -11.2638   19.7593 H   0  0  0  0  0  0
  -29.7258  -11.8328   17.3960 H   0  0  0  0  0  0
  -29.6660  -13.5307   17.7946 H   0  0  0  0  0  0
  -27.8161  -11.3328   18.7849 H   0  0  0  0  0  0
  -27.3662  -12.6940   17.7902 H   0  0  0  0  0  0
  -27.7328  -14.2612   19.6307 H   0  0  0  0  0  0
  -28.6678  -11.8752   21.2919 H   0  0  0  0  0  0
  -28.4513  -13.4759   21.9053 H   0  0  0  0  0  0
  -25.2742   -9.5696   22.4763 H   0  0  0  0  0  0
  -23.9988   -7.4635   22.7471 H   0  0  0  0  0  0
  -21.0831   -8.8778   19.8947 H   0  0  0  0  0  0
  -22.3685  -10.9673   19.6160 H   0  0  0  0  0  0
  -21.2025   -7.6139   23.9717 H   0  0  0  0  0  0
  -21.1470   -6.0503   25.9071 H   0  0  0  0  0  0
  -22.0604   -2.7607   23.2832 H   0  0  0  0  0  0
  -22.4064  -11.9917   22.4793 H   0  0  0  0  0  0
  -21.1109  -13.1315   22.2574 H   0  0  0  0  0  0
  -24.6552  -15.8383   20.5218 H   0  0  0  0  0  0
  -26.3008  -15.6296   20.2009 H   0  0  0  0  0  0
  -26.7084  -32.5568   23.1176 H   0  0  0  0  0  0
  -24.9993  -33.9780   25.0453 H   0  0  0  0  0  0
  -22.6837  -31.3063   21.4077 H   0  0  0  0  0  0
  -23.3730  -35.9675   23.3311 H   0  0  0  0  0  0
  -24.3574  -36.8935   22.2054 H   0  0  0  0  0  0
  -23.7246  -37.6542   23.6648 H   0  0  0  0  0  0
  -26.0191  -31.6078   20.5798 H   0  0  0  0  0  0
  -26.8120  -30.9082   21.9655 H   0  0  0  0  0  0
  -28.1036  -29.1613   21.1306 H   0  0  0  0  0  0
  -26.1009  -25.9619   19.0532 H   0  0  0  0  0  0
  -23.9873  -27.2601   19.0698 H   0  0  0  0  0  0
  -23.7098  -30.5835   19.4018 H   0  0  0  0  0  0
  -22.7298  -29.2291   19.8770 H   0  0  0  0  0  0
  -25.1268  -36.1983   25.0831 H   0  0  0  0  0  0
  -20.9947  -28.3207   24.1455 H   0  0  0  0  0  0
  -20.5637  -26.2254   23.3607 H   0  0  0  0  0  0
  -21.6623  -26.7432   22.1229 H   0  0  0  0  0  0
  -19.6879  -25.6303   21.1226 H   0  0  0  0  0  0
  -19.6660  -27.3217   20.6757 H   0  0  0  0  0  0
  -17.4179  -26.6684   21.4027 H   0  0  0  0  0  0
  -18.0303  -26.0047   22.9013 H   0  0  0  0  0  0
  -19.7928  -30.7249   24.2288 H   0  0  0  0  0  0
  -17.5014  -31.6263   24.5174 H   0  0  0  0  0  0
  -15.5345  -30.3001   23.7629 H   0  0  0  0  0  0
  -15.8660  -28.0838   22.7037 H   0  0  0  0  0  0
  -24.5890  -30.7050   25.7816 H   0  0  0  0  0  0
  -24.8937  -32.2838   26.4962 H   0  0  0  0  0  0
  -25.8098  -30.8832   27.0205 H   0  0  0  0  0  0
  -26.2829  -29.6792   24.1145 H   0  0  0  0  0  0
  -27.4129  -29.7299   25.4486 H   0  0  0  0  0  0
  -27.8626  -30.4397   23.9152 H   0  0  0  0  0  0
  -27.2692  -33.3589   26.2087 H   0  0  0  0  0  0
  -28.3828  -32.6880   25.0255 H   0  0  0  0  0  0
  -28.0753  -31.8387   26.5317 H   0  0  0  0  0  0
  -28.2605  -38.0112   24.7520 H   0  0  0  0  0  0
  -28.1070  -36.2642   24.6261 H   0  0  0  0  0  0
  -27.2306  -37.1444   25.8869 H   0  0  0  0  0  0
  -20.9261  -29.8764   21.6999 H   0  0  0  0  0  0
  -26.0173  -38.2879   24.1412 H   0  0  0  0  0  0
  -30.2077  -20.4318   21.5772 H   0  0  0  0  0  0
  -32.4565  -16.7611   21.4894 H   0  0  0  0  0  0
  -32.1214  -22.8524   20.2744 H   0  0  0  0  0  0
  -33.8275  -22.8477   20.6509 H   0  0  0  0  0  0
  -33.6583  -18.8067   21.7989 H   0  0  0  0  0  0
  -27.8832  -20.4620   21.8142 H   0  0  0  0  0  0
  -27.3478  -19.2537   22.9835 H   0  0  0  0  0  0
  -27.0202  -19.0271   21.2611 H   0  0  0  0  0  0
  -29.7003  -24.0000   22.8190 H   0  0  0  0  0  0
  -30.2317  -23.3828   21.2812 H   0  0  0  0  0  0
  -31.8741  -25.0398   23.2594 H   0  0  0  0  0  0
  -32.4772  -24.6644   21.6873 H   0  0  0  0  0  0
  -30.6597  -25.7349   20.4950 H   0  0  0  0  0  0
  -30.0627  -26.3449   22.0127 H   0  0  0  0  0  0
  -31.7278  -22.6316   23.8391 H   0  0  0  0  0  0
  -33.3511  -23.1887   23.5486 H   0  0  0  0  0  0
  -27.7885  -25.4749   21.5162 H   0  0  0  0  0  0
  -28.3707  -24.7477   20.0147 H   0  0  0  0  0  0
  -33.1402  -19.0909   19.4496 H   0  0  0  0  0  0
  -29.4853  -14.7277   22.1462 H   0  0  0  0  0  0
  1 25  1  0  0  0
  1 30  2  0  0  0
  1 89  1  0  0  0
  2  3  1  0  0  0
  2 25  1  0  0  0
  2 93  1  0  0  0
  2 94  1  0  0  0
  3  4  1  0  0  0
  3 95  1  0  0  0
  3 96  1  0  0  0
  4  5  1  0  0  0
  4 97  1  0  0  0
  4 98  1  0  0  0
  5  6  1  0  0  0
  5 26  1  0  0  0
  5 99  1  0  0  0
  6 25  1  0  0  0
  6100  1  0  0  0
  6101  1  0  0  0
  7  8  2  0  0  0
  7 26  1  0  0  0
  7 29  1  0  0  0
  8  9  1  0  0  0
  8 22  1  0  0  0
  9 10  1  0  0  0
  9 27  2  0  0  0
 10 11  2  0  0  0
 10 15  1  0  0  0
 11 12  1  0  0  0
 11102  1  0  0  0
 12 13  2  0  0  0
 12103  1  0  0  0
 13 14  1  0  0  0
 13 31  1  0  0  0
 14 15  2  0  0  0
 14104  1  0  0  0
 15105  1  0  0  0
 16 17  2  0  0  0
 16 21  1  0  0  0
 16 31  1  0  0  0
 17 18  1  0  0  0
 17106  1  0  0  0
 18 19  2  0  0  0
 18107  1  0  0  0
 19 20  1  0  0  0
 19 24  1  0  0  0
 20 21  2  0  0  0
 20108  1  0  0  0
 21 23  1  0  0  0
 22 28  1  0  0  0
 22 32  2  0  0  0
 26 27  1  0  0  0
 28109  1  0  0  0
 28110  1  0  0  0
 29111  1  0  0  0
 29112  1  0  0  0
 33 34  1  0  0  0
 33 66  1  0  0  0
 33 70  2  0  0  0
 34 36  1  0  0  0
 34 59  1  0  0  0
 34113  1  0  0  0
 35 44  2  0  0  0
 35 45  1  0  0  0
 35 68  1  0  0  0
 36 56  1  0  0  0
 36114  1  0  0  0
 37 39  1  0  0  0
 37 47  1  0  0  0
 37 66  1  0  0  0
 37115  1  0  0  0
 38 43  2  0  0  0
 38 46  1  0  0  0
 38 47  1  0  0  0
 39 64  1  0  0  0
 39 67  2  0  0  0
 40 52  1  0  0  0
 40 53  2  0  0  0
 40 58  1  0  0  0
 41116  1  0  0  0
 41117  1  0  0  0
 41118  1  0  0  0
 41 48  1  0  0  0
 42 43  1  0  0  0
 42 66  1  0  0  0
 42119  1  0  0  0
 42120  1  0  0  0
 43 44  1  0  0  0
 44121  1  0  0  0
 45 46  2  0  0  0
 45122  1  0  0  0
 46123  1  0  0  0
 47124  1  0  0  0
 47125  1  0  0  0
 48 56  1  0  0  0
 48 65  1  0  0  0
 48126  1  0  0  0
 49 50  1  0  0  0
 49 53  1  0  0  0
 49 64  1  0  0  0
 49127  1  0  0  0
 50 51  1  0  0  0
 50128  1  0  0  0
 50129  1  0  0  0
 51 52  1  0  0  0
 51130  1  0  0  0
 51131  1  0  0  0
 52132  1  0  0  0
 52133  1  0  0  0
 53 54  1  0  0  0
 54 55  2  0  0  0
 54134  1  0  0  0
 55 57  1  0  0  0
 55135  1  0  0  0
 56 69  2  0  0  0
 57 58  2  0  0  0
 57136  1  0  0  0
 58137  1  0  0  0
 59 60  1  0  0  0
 59 61  1  0  0  0
 59 62  1  0  0  0
 60138  1  0  0  0
 60139  1  0  0  0
 60140  1  0  0  0
 61141  1  0  0  0
 61142  1  0  0  0
 61143  1  0  0  0
 62144  1  0  0  0
 62145  1  0  0  0
 62146  1  0  0  0
 63 65  1  0  0  0
 63147  1  0  0  0
 63148  1  0  0  0
 63149  1  0  0  0
 64150  1  0  0  0
 65151  1  0  0  0
 68 86  1  0  0  0
 71 73  2  0  0  0
 71 74  1  0  0  0
 71152  1  0  0  0
 72 73  1  0  0  0
 72 75  2  0  0  0
 72153  1  0  0  0
 73 80  1  0  0  0
 74 76  2  0  0  0
 74 81  1  0  0  0
 75 76  1  0  0  0
 75 89  1  0  0  0
 76 92  1  0  0  0
 77 79  1  0  0  0
 77 87  1  0  0  0
 77 90  2  0  0  0
 78 80  1  0  0  0
 78 88  1  0  0  0
 78 91  2  0  0  0
 79 88  1  0  0  0
 79154  1  0  0  0
 79155  1  0  0  0
 80 87  1  0  0  0
 80156  1  0  0  0
 81157  1  0  0  0
 81158  1  0  0  0
 81159  1  0  0  0
 82 83  1  0  0  0
 82 84  1  0  0  0
 82160  1  0  0  0
 82161  1  0  0  0
 83 85  1  0  0  0
 83162  1  0  0  0
 83163  1  0  0  0
 84 86  1  0  0  0
 84164  1  0  0  0
 84165  1  0  0  0
 85 88  1  0  0  0
 85166  1  0  0  0
 85167  1  0  0  0
 86168  1  0  0  0
 86169  1  0  0  0
 87170  1  0  0  0
 89171  1  0  0  0
M  ISO  4   1 100  68 101  86 101  89 100
M  END
> <chiral flag>
0

> <version>
0

> <s_m_source_file>
/data/baiqing/PycharmProjects/Reinvent-master-3.2/result/LINK_invent/BTK/process_docking_weight1_custom_product_contain_oxygen_bond_distance_aromatic_linkinvent_7_9_3/rearranged_h_0004.sdf

> <i_m_source_file_index>
42

> <r_mmod_Potential_Energy-OPLS-2005>
-95.6193237304688

> <r_mmod_Stretch_Energy-OPLS-2005>
38.7617988586426

> <r_mmod_Bend_Energy-OPLS-2005>
111.58016204834

> <r_mmod_Torsional_Energy-OPLS-2005>
255.065185546875

> <r_mmod_Improper_Torsional_Energy-OPLS-2005>
4.96718120574951

> <r_mmod_Van_der_Waal_Energy-OPLS-2005>
171.630950927734

> <r_mmod_Electrostatic_Energy-OPLS-2005>
-440.695526123047

> <r_mmod_Solvation_Energy-OPLS-2005>
-244.074188232422

> <b_mmod_Minimization_Converged-OPLS-2005>
0

> <r_mmod_RMS_Derivative-OPLS-2005>
1.35891532897949

$$$$
42
                    3D
 Structure written by MMmdl.
172182  0  0  1  0            999 V2000
  -30.2753  -15.5143   20.6076 C   0  0  0  0  0  0
  -30.4220  -13.0313   19.5987 C   0  0  0  0  0  0
  -29.5546  -12.6580   18.3551 C   0  0  0  0  0  0
  -28.1140  -12.3103   18.7651 C   0  0  0  0  0  0
  -27.5932  -13.2917   19.8419 C   0  0  2  0  0  0
  -28.5896  -13.5204   21.0006 C   0  0  0  0  0  0
  -25.2268  -13.8268   20.5800 C   0  0  0  0  0  0
  -24.1653  -13.0428   20.9318 C   0  0  0  0  0  0
  -24.6332  -11.6930   20.8771 C   0  0  0  0  0  0
  -23.9054  -10.4275   21.0391 C   0  0  0  0  0  0
  -24.3608   -9.4193   21.9166 C   0  0  0  0  0  0
  -23.6290   -8.2226   22.0734 C   0  0  0  0  0  0
  -22.4267   -8.0255   21.3534 C   0  0  0  0  0  0
  -21.9898   -9.0228   20.4642 C   0  0  0  0  0  0
  -22.7220  -10.2112   20.3050 C   0  0  0  0  0  0
  -21.6846   -6.0713   22.5277 C   0  0  0  0  0  0
  -21.4017   -6.5622   23.8207 C   0  0  0  0  0  0
  -21.3661   -5.6781   24.9176 C   0  0  0  0  0  0
  -21.6039   -4.3040   24.7232 C   0  0  0  0  0  0
  -21.8820   -3.8125   23.4354 C   0  0  0  0  0  0
  -21.9199   -4.6942   22.3406 C   0  0  0  0  0  0
  -22.7669  -13.5166   21.1954 C   0  0  0  0  0  0
  -22.1664   -4.2118   21.0984 F   0  0  0  0  0  0
  -21.5630   -3.4528   25.7745 F   0  0  0  0  0  0
  -29.7788  -14.1585   20.4222 N   0  0  0  0  0  0
  -26.2674  -12.9553   20.3226 N   0  0  0  0  0  0
  -25.9265  -11.6636   20.5697 N   0  0  0  0  0  0
  -22.0372  -12.8118   22.0513 N   0  0  0  0  0  0
  -25.3917  -15.2022   20.4278 N   0  0  0  0  0  0
  -31.4912  -15.5213   20.3389 O   0  0  0  0  0  0
  -21.6632   -6.8847   21.4235 O   0  0  0  0  0  0
  -22.3338  -14.5460   20.6785 O   0  0  0  0  0  0
  -24.6911  -31.7062   23.4566 C   0  0  0  0  0  0
  -25.9424  -32.4499   23.9912 C   0  0  1  0  0  0
  -27.1973  -26.9812   19.2138 C   0  0  0  0  0  0
  -25.5834  -33.8574   24.2679 N   0  0  0  0  0  0
  -23.5558  -30.2485   21.7689 C   0  0  2  0  0  0
  -25.1013  -28.7187   19.6365 C   0  0  0  0  0  0
  -22.6082  -29.4566   22.6719 C   0  0  0  0  0  0
  -17.9816  -28.1389   22.8373 C   0  0  0  0  0  0
  -24.1491  -36.7210   23.2529 C   0  0  0  0  0  0
  -26.3829  -29.8867   22.4320 C   0  0  0  0  0  0
  -26.5188  -28.8016   20.3534 C   0  0  0  0  0  0
  -27.5497  -28.1874   19.6832 C   0  0  0  0  0  0
  -25.9416  -26.8433   18.6127 C   0  0  0  0  0  0
  -24.8807  -27.6891   18.8033 C   0  0  0  0  0  0
  -23.6910  -29.4563   20.2339 C   0  0  0  0  0  0
  -25.4088  -36.3000   24.0277 C   0  0  1  0  0  0
  -20.5115  -28.3524   23.1133 C   0  0  2  0  0  0
  -20.6251  -26.9228   22.5426 C   0  0  0  0  0  0
  -19.5346  -26.6223   21.5159 C   0  0  0  0  0  0
  -18.1477  -26.7947   22.1477 C   0  0  0  0  0  0
  -19.1016  -28.8822   23.2771 C   0  0  0  0  0  0
  -18.9150  -30.1459   23.8779 C   0  0  0  0  0  0
  -17.6203  -30.6631   24.0547 C   0  0  0  0  0  0
  -25.8995  -34.9281   23.5216 C   0  0  0  0  0  0
  -16.5068  -29.9120   23.6418 C   0  0  0  0  0  0
  -16.6869  -28.6587   23.0314 C   0  0  0  0  0  0
  -26.5109  -31.7573   25.2973 C   0  0  0  0  0  0
  -25.3966  -31.5098   26.3347 C   0  0  0  0  0  0
  -27.2237  -30.3911   25.1858 C   0  0  0  0  0  0
  -27.6101  -32.6617   25.8863 C   0  0  0  0  0  0
  -27.5520  -37.1771   24.8521 C   0  0  0  0  0  0
  -21.3380  -29.2742   22.3454 N   0  0  0  0  0  0
  -26.4298  -37.3674   23.9331 N   0  0  0  0  0  0
  -24.8454  -30.5582   22.7374 N   0  0  0  0  0  0
  -23.0497  -28.9651   23.7053 O   0  0  0  0  0  0
  -28.1108  -25.9807   19.3451 O   0  0  0  0  0  0
  -26.5645  -34.8550   22.4824 O   0  0  0  0  0  0
  -23.5778  -32.1841   23.7159 O   0  0  0  0  0  0
  -27.4058  -20.2659   20.8483 C   0  0  0  0  0  0
  -26.6276  -21.5006   20.8276 C   0  0  0  0  0  0
  -28.7115  -20.0917   21.4096 C   0  0  0  0  0  0
  -28.2551  -22.8627   22.0180 C   0  0  0  0  0  0
  -27.0383  -22.7884   21.3542 C   0  0  0  0  0  0
  -29.0620  -21.5026   22.0011 C   0  0  0  0  0  0
  -27.1928  -25.1916   21.9795 C   0  0  0  0  0  0
  -28.2840  -28.2111   22.1586 C   0  0  0  0  0  0
  -25.1157  -28.1358   21.9360 C   0  0  0  0  0  0
  -28.5987  -29.9464   21.3427 C   0  0  0  0  0  0
  -25.7296  -30.8549   20.5560 C   0  0  0  0  0  0
  -26.8013  -27.0516   22.1957 C   0  0  0  0  0  0
  -29.6560  -18.5107   21.2958 C   0  0  0  0  0  0
  -26.3322  -24.0214   18.8772 C   0  0  0  0  0  0
  -25.5692  -24.3489   20.2142 C   0  0  0  0  0  0
  -27.7737  -24.7006   18.7056 C   0  0  0  0  0  0
  -28.2700  -24.3384   22.4624 N   0  0  0  0  0  0
  -26.5220  -24.1663   21.2418 N   0  0  0  0  0  0
  -29.4745  -16.7992   20.9285 N   0  0  0  0  0  0
  -27.4695  -31.0424   20.5602 N   0  3  0  0  0  0
  -30.2793  -21.5731   22.5863 F   0  0  0  0  0  0
  -31.4160  -13.3192   19.2582 H   0  0  0  0  0  0
  -30.5808  -12.1480   20.2219 H   0  0  0  0  0  0
  -29.9949  -11.8199   17.8148 H   0  0  0  0  0  0
  -29.5396  -13.4954   17.6569 H   0  0  0  0  0  0
  -28.1180  -11.2968   19.1713 H   0  0  0  0  0  0
  -27.4508  -12.2873   17.8976 H   0  0  0  0  0  0
  -27.4891  -14.2384   19.3116 H   0  0  0  0  0  0
  -28.8326  -12.5899   21.5154 H   0  0  0  0  0  0
  -28.1570  -14.1812   21.7521 H   0  0  0  0  0  0
  -25.2765   -9.5648   22.4718 H   0  0  0  0  0  0
  -24.0001   -7.4607   22.7443 H   0  0  0  0  0  0
  -21.0823   -8.8739   19.8953 H   0  0  0  0  0  0
  -22.3680  -10.9639   19.6140 H   0  0  0  0  0  0
  -21.2010   -7.6127   23.9699 H   0  0  0  0  0  0
  -21.1482   -6.0514   25.9076 H   0  0  0  0  0  0
  -22.0604   -2.7584   23.2862 H   0  0  0  0  0  0
  -22.4066  -11.9813   22.4886 H   0  0  0  0  0  0
  -21.0979  -13.1066   22.2772 H   0  0  0  0  0  0
  -24.6137  -15.8444   20.5336 H   0  0  0  0  0  0
  -26.2088  -15.6380   20.0196 H   0  0  0  0  0  0
  -26.7265  -32.5156   23.2428 H   0  0  0  0  0  0
  -24.9998  -34.0123   25.0785 H   0  0  0  0  0  0
  -23.0321  -31.1817   21.5502 H   0  0  0  0  0  0
  -23.3702  -35.9584   23.3314 H   0  0  0  0  0  0
  -24.3592  -36.8623   22.1912 H   0  0  0  0  0  0
  -23.7305  -37.6536   23.6372 H   0  0  0  0  0  0
  -27.0365  -30.6692   22.7459 H   0  0  0  0  0  0
  -26.5520  -29.2379   23.2686 H   0  0  0  0  0  0
  -28.6158  -28.2040   19.8287 H   0  0  0  0  0  0
  -25.6908  -26.0773   17.9154 H   0  0  0  0  0  0
  -23.9067  -27.4983   18.3709 H   0  0  0  0  0  0
  -23.3449  -30.1467   19.4652 H   0  0  0  0  0  0
  -22.9266  -28.6781   20.1952 H   0  0  0  0  0  0
  -25.1177  -36.1997   25.0768 H   0  0  0  0  0  0
  -20.8512  -28.2892   24.1504 H   0  0  0  0  0  0
  -20.5099  -26.2143   23.3658 H   0  0  0  0  0  0
  -21.6182  -26.7317   22.1324 H   0  0  0  0  0  0
  -19.6514  -25.6100   21.1270 H   0  0  0  0  0  0
  -19.6437  -27.2955   20.6632 H   0  0  0  0  0  0
  -17.3850  -26.6824   21.3764 H   0  0  0  0  0  0
  -17.9713  -26.0079   22.8810 H   0  0  0  0  0  0
  -19.7689  -30.7244   24.2035 H   0  0  0  0  0  0
  -17.4791  -31.6305   24.5168 H   0  0  0  0  0  0
  -15.5083  -30.3008   23.7850 H   0  0  0  0  0  0
  -15.8245  -28.0967   22.6984 H   0  0  0  0  0  0
  -24.6901  -30.7390   26.0265 H   0  0  0  0  0  0
  -24.8250  -32.4179   26.5334 H   0  0  0  0  0  0
  -25.8142  -31.1856   27.2898 H   0  0  0  0  0  0
  -26.5288  -29.5507   25.1823 H   0  0  0  0  0  0
  -27.7534  -30.1884   26.1182 H   0  0  0  0  0  0
  -28.0416  -30.3356   24.4693 H   0  0  0  0  0  0
  -27.2221  -33.6345   26.1877 H   0  0  0  0  0  0
  -28.4143  -32.8453   25.1725 H   0  0  0  0  0  0
  -28.0682  -32.2492   26.7881 H   0  0  0  0  0  0
  -28.2670  -37.9945   24.7347 H   0  0  0  0  0  0
  -28.0868  -36.2441   24.6631 H   0  0  0  0  0  0
  -27.2159  -37.1770   25.8922 H   0  0  0  0  0  0
  -20.9385  -29.7061   21.5253 H   0  0  0  0  0  0
  -26.0199  -38.2793   24.1168 H   0  0  0  0  0  0
  -26.9531  -19.4143   20.3502 H   0  0  0  0  0  0
  -25.6670  -21.4566   20.3289 H   0  0  0  0  0  0
  -28.5794  -28.3222   23.1985 H   0  0  0  0  0  0
  -29.1055  -27.5852   21.8032 H   0  0  0  0  0  0
  -24.3396  -27.4780   21.5361 H   0  0  0  0  0  0
  -24.8828  -28.1019   22.9861 H   0  0  0  0  0  0
  -29.4460  -29.8787   20.6650 H   0  0  0  0  0  0
  -29.0672  -30.5320   22.1329 H   0  0  0  0  0  0
  -25.5007  -30.9926   19.4898 H   0  0  0  0  0  0
  -25.3098  -31.8153   20.8729 H   0  0  0  0  0  0
  -26.6807  -26.9618   23.2771 H   0  0  0  0  0  0
  -30.0799  -18.4561   22.2973 H   0  0  0  0  0  0
  -30.5065  -18.7949   20.6765 H   0  0  0  0  0  0
  -25.6664  -24.1626   18.0283 H   0  0  0  0  0  0
  -26.4448  -22.9449   18.7475 H   0  0  0  0  0  0
  -24.6938  -23.7153   20.3876 H   0  0  0  0  0  0
  -25.1917  -25.3547   20.3237 H   0  0  0  0  0  0
  -28.0201  -24.7650   17.6426 H   0  0  0  0  0  0
  -28.5128  -24.0025   19.1007 H   0  0  0  0  0  0
  -28.5015  -16.5535   21.0054 H   0  0  0  0  0  0
  -27.6903  -30.9614   19.5755 H   0  0  0  0  0  0
  -27.7052  -31.9933   20.7814 H   0  0  0  0  0  0
  1 25  1  0  0  0
  1 30  2  0  0  0
  1 89  1  0  0  0
  2  3  1  0  0  0
  2 25  1  0  0  0
  2 92  1  0  0  0
  2 93  1  0  0  0
  3  4  1  0  0  0
  3 94  1  0  0  0
  3 95  1  0  0  0
  4  5  1  0  0  0
  4 96  1  0  0  0
  4 97  1  0  0  0
  5  6  1  0  0  0
  5 26  1  0  0  0
  5 98  1  0  0  0
  6 25  1  0  0  0
  6 99  1  0  0  0
  6100  1  0  0  0
  7  8  2  0  0  0
  7 26  1  0  0  0
  7 29  1  0  0  0
  8  9  1  0  0  0
  8 22  1  0  0  0
  9 10  1  0  0  0
  9 27  2  0  0  0
 10 11  2  0  0  0
 10 15  1  0  0  0
 11 12  1  0  0  0
 11101  1  0  0  0
 12 13  2  0  0  0
 12102  1  0  0  0
 13 14  1  0  0  0
 13 31  1  0  0  0
 14 15  2  0  0  0
 14103  1  0  0  0
 15104  1  0  0  0
 16 17  2  0  0  0
 16 21  1  0  0  0
 16 31  1  0  0  0
 17 18  1  0  0  0
 17105  1  0  0  0
 18 19  2  0  0  0
 18106  1  0  0  0
 19 20  1  0  0  0
 19 24  1  0  0  0
 20 21  2  0  0  0
 20107  1  0  0  0
 21 23  1  0  0  0
 22 28  1  0  0  0
 22 32  2  0  0  0
 26 27  1  0  0  0
 28108  1  0  0  0
 28109  1  0  0  0
 29110  1  0  0  0
 29111  1  0  0  0
 33 34  1  0  0  0
 33 66  1  0  0  0
 33 70  2  0  0  0
 34 36  1  0  0  0
 34 59  1  0  0  0
 34112  1  0  0  0
 35 44  2  0  0  0
 35 45  1  0  0  0
 35 68  1  0  0  0
 36 56  1  0  0  0
 36113  1  0  0  0
 37 39  1  0  0  0
 37 47  1  0  0  0
 37 66  1  0  0  0
 37114  1  0  0  0
 38 43  2  0  0  0
 38 46  1  0  0  0
 38 47  1  0  0  0
 39 64  1  0  0  0
 39 67  2  0  0  0
 40 52  1  0  0  0
 40 53  2  0  0  0
 40 58  1  0  0  0
 41115  1  0  0  0
 41116  1  0  0  0
 41117  1  0  0  0
 41 48  1  0  0  0
 42 43  1  0  0  0
 42 66  1  0  0  0
 42118  1  0  0  0
 42119  1  0  0  0
 43 44  1  0  0  0
 44120  1  0  0  0
 45 46  2  0  0  0
 45121  1  0  0  0
 46122  1  0  0  0
 47123  1  0  0  0
 47124  1  0  0  0
 48 56  1  0  0  0
 48 65  1  0  0  0
 48125  1  0  0  0
 49 50  1  0  0  0
 49 53  1  0  0  0
 49 64  1  0  0  0
 49126  1  0  0  0
 50 51  1  0  0  0
 50127  1  0  0  0
 50128  1  0  0  0
 51 52  1  0  0  0
 51129  1  0  0  0
 51130  1  0  0  0
 52131  1  0  0  0
 52132  1  0  0  0
 53 54  1  0  0  0
 54 55  2  0  0  0
 54133  1  0  0  0
 55 57  1  0  0  0
 55134  1  0  0  0
 56 69  2  0  0  0
 57 58  2  0  0  0
 57135  1  0  0  0
 58136  1  0  0  0
 59 60  1  0  0  0
 59 61  1  0  0  0
 59 62  1  0  0  0
 60137  1  0  0  0
 60138  1  0  0  0
 60139  1  0  0  0
 61140  1  0  0  0
 61141  1  0  0  0
 61142  1  0  0  0
 62143  1  0  0  0
 62144  1  0  0  0
 62145  1  0  0  0
 63 65  1  0  0  0
 63146  1  0  0  0
 63147  1  0  0  0
 63148  1  0  0  0
 64149  1  0  0  0
 65150  1  0  0  0
 68 86  1  0  0  0
 71 72  2  0  0  0
 71 73  1  0  0  0
 71151  1  0  0  0
 72 75  1  0  0  0
 72152  1  0  0  0
 73 76  2  0  0  0
 73 83  1  0  0  0
 74 75  2  0  0  0
 74 76  1  0  0  0
 74 87  1  0  0  0
 75 88  1  0  0  0
 76 91  1  0  0  0
 77 87  2  0  0  0
 77 88  1  0  0  0
 77 82  1  0  0  0
 78 80  1  0  0  0
 78 82  1  0  0  0
 78153  1  0  0  0
 78154  1  0  0  0
 79 81  1  0  0  0
 79 82  1  0  0  0
 79155  1  0  0  0
 79156  1  0  0  0
 80 90  1  0  0  0
 80157  1  0  0  0
 80158  1  0  0  0
 81 90  1  0  0  0
 81159  1  0  0  0
 81160  1  0  0  0
 82161  1  0  0  0
 83 89  1  0  0  0
 83162  1  0  0  0
 83163  1  0  0  0
 84 85  1  0  0  0
 84 86  1  0  0  0
 84164  1  0  0  0
 84165  1  0  0  0
 85 88  1  0  0  0
 85166  1  0  0  0
 85167  1  0  0  0
 86168  1  0  0  0
 86169  1  0  0  0
 89170  1  0  0  0
 90171  1  0  0  0
 90172  1  0  0  0
M  CHG  1  90   1
M  ISO  4   1 100  68 101  86 101  89 100
M  END
> <chiral flag>
0

> <version>
0

> <s_m_source_file>
/data/baiqing/PycharmProjects/Reinvent-master-3.2/result/LINK_invent/BTK/process_docking_weight1_custom_product_contain_oxygen_bond_distance_aromatic_linkinvent_7_9_3/rearranged_h_0004.sdf

> <i_m_source_file_index>
43

> <r_mmod_Potential_Energy-OPLS-2005>
10475.419921875

> <r_mmod_Stretch_Energy-OPLS-2005>
5827.32421875

> <r_mmod_Bend_Energy-OPLS-2005>
893.8310546875

> <r_mmod_Torsional_Energy-OPLS-2005>
461.992065429688

> <r_mmod_Improper_Torsional_Energy-OPLS-2005>
14.2856426239014

> <r_mmod_Van_der_Waal_Energy-OPLS-2005>
2488.01000976562

> <r_mmod_Electrostatic_Energy-OPLS-2005>
-305.980743408203

> <r_mmod_Solvation_Energy-OPLS-2005>
-452.855590820312

> <b_mmod_Minimization_Converged-OPLS-2005>
0

> <r_mmod_RMS_Derivative-OPLS-2005>
14.374960899353

$$$$
43
                    3D
 Structure written by MMmdl.
137144  0  0  1  0            999 V2000
  -29.9622  -16.5635   20.2664 C   0  0  0  0  0  0
  -30.3146  -13.7964   19.5233 C   0  0  0  0  0  0
  -29.5702  -12.9451   18.4142 C   0  0  0  0  0  0
  -28.2376  -12.3814   18.9086 C   0  0  0  0  0  0
  -27.5746  -13.4257   19.8177 C   0  0  2  0  0  0
  -28.5152  -14.1357   20.8613 C   0  0  0  0  0  0
  -25.2174  -13.8479   20.5951 C   0  0  0  0  0  0
  -24.1675  -13.0467   20.9341 C   0  0  0  0  0  0
  -24.6541  -11.7031   20.8745 C   0  0  0  0  0  0
  -23.9255  -10.4321   21.0342 C   0  0  0  0  0  0
  -24.3739   -9.4228   21.9149 C   0  0  0  0  0  0
  -23.6364   -8.2283   22.0747 C   0  0  0  0  0  0
  -22.4340   -8.0323   21.3544 C   0  0  0  0  0  0
  -22.0014   -9.0304   20.4634 C   0  0  0  0  0  0
  -22.7395  -10.2158   20.3018 C   0  0  0  0  0  0
  -21.6878   -6.0765   22.5277 C   0  0  0  0  0  0
  -21.4033   -6.5657   23.8214 C   0  0  0  0  0  0
  -21.3665   -5.6802   24.9171 C   0  0  0  0  0  0
  -21.6043   -4.3064   24.7217 C   0  0  0  0  0  0
  -21.8816   -3.8163   23.4335 C   0  0  0  0  0  0
  -21.9200   -4.6987   22.3396 C   0  0  0  0  0  0
  -22.7650  -13.5092   21.1938 C   0  0  0  0  0  0
  -22.1663   -4.2170   21.0973 F   0  0  0  0  0  0
  -21.5624   -3.4543   25.7727 F   0  0  0  0  0  0
  -29.5188  -15.0444   20.1465 N   0  0  0  0  0  0
  -26.2805  -13.0063   20.3476 N   0  0  0  0  0  0
  -25.9548  -11.6990   20.5678 N   0  0  0  0  0  0
  -22.0351  -12.8040   22.0489 N   0  0  0  0  0  0
  -25.3555  -15.2242   20.4383 N   0  0  0  0  0  0
  -31.2063  -16.3142   20.2293 O   0  0  0  0  0  0
  -21.6677   -6.8928   21.4248 O   0  0  0  0  0  0
  -22.3283  -14.5375   20.6771 O   0  0  0  0  0  0
  -24.7449  -31.7216   23.0979 C   0  0  0  0  0  0
  -25.9712  -32.4091   23.7768 C   0  0  1  0  0  0
  -27.2626  -26.0606   20.2671 C   0  0  0  0  0  0
  -25.6018  -33.7953   24.1581 N   0  0  0  0  0  0
  -23.5996  -30.2922   21.4680 C   0  0  2  0  0  0
  -25.0624  -28.4936   20.1392 C   0  0  0  0  0  0
  -22.8035  -29.3895   22.4550 C   0  0  0  0  0  0
  -18.0376  -28.1454   22.8421 C   0  0  0  0  0  0
  -24.1496  -36.6992   23.2671 C   0  0  0  0  0  0
  -26.1999  -30.2411   21.4589 C   0  0  0  0  0  0
  -26.2597  -28.7329   20.8212 C   0  0  0  0  0  0
  -27.3097  -27.5690   20.8335 C   0  0  0  0  0  0
  -26.0272  -26.1946   19.5192 C   0  0  0  0  0  0
  -25.0234  -27.2541   19.4619 C   0  0  0  0  0  0
  -23.8874  -29.5253   20.1333 C   0  0  0  0  0  0
  -25.4170  -36.2677   24.0236 C   0  0  1  0  0  0
  -20.6038  -28.3836   23.1031 C   0  0  2  0  0  0
  -20.6806  -26.9436   22.5420 C   0  0  0  0  0  0
  -19.5796  -26.6348   21.5224 C   0  0  0  0  0  0
  -18.1977  -26.7969   22.1607 C   0  0  0  0  0  0
  -19.1657  -28.8984   23.2686 C   0  0  0  0  0  0
  -18.9553  -30.1552   23.8759 C   0  0  0  0  0  0
  -17.6536  -30.6619   24.0537 C   0  0  0  0  0  0
  -25.9187  -34.9084   23.4798 C   0  0  0  0  0  0
  -16.5422  -29.9090   23.6366 C   0  0  0  0  0  0
  -16.7352  -28.6518   23.0376 C   0  0  0  0  0  0
  -26.4693  -31.6408   25.0652 C   0  0  0  0  0  0
  -25.3596  -31.3898   26.1149 C   0  0  0  0  0  0
  -27.0730  -30.2690   24.7003 C   0  0  0  0  0  0
  -27.6017  -32.4426   25.7501 C   0  0  0  0  0  0
  -27.5543  -37.1648   24.8466 C   0  0  0  0  0  0
  -21.4628  -29.2949   22.3282 N   0  0  0  0  0  0
  -26.4242  -37.3509   23.9408 N   0  0  0  0  0  0
  -24.8802  -30.8007   22.0600 N   0  0  0  0  0  0
  -23.4175  -28.7613   23.3197 O   0  0  0  0  0  0
  -28.1668  -24.5661   20.3212 O   0  0  0  0  0  0
  -26.5925  -34.8791   22.4483 O   0  0  0  0  0  0
  -23.6336  -32.0588   23.5524 O   0  0  0  0  0  0
  -29.2006  -20.3375   20.3201 C   0  0  0  0  0  0
  -28.2004  -22.4649   20.2188 C   0  0  0  0  0  0
  -29.3170  -18.2279   20.2702 N   0  0  0  0  0  0
  -31.2155  -14.1817   19.0448 H   0  0  0  0  0  0
  -30.7050  -13.1434   20.3066 H   0  0  0  0  0  0
  -30.2109  -12.1390   18.0541 H   0  0  0  0  0  0
  -29.3823  -13.5901   17.5547 H   0  0  0  0  0  0
  -28.4305  -11.4738   19.4819 H   0  0  0  0  0  0
  -27.5913  -12.1016   18.0755 H   0  0  0  0  0  0
  -27.3204  -14.2160   19.1091 H   0  0  0  0  0  0
  -28.9720  -13.4238   21.5512 H   0  0  0  0  0  0
  -27.9168  -14.7884   21.4973 H   0  0  0  0  0  0
  -25.2871   -9.5690   22.4748 H   0  0  0  0  0  0
  -24.0047   -7.4683   22.7489 H   0  0  0  0  0  0
  -21.0938   -8.8851   19.8945 H   0  0  0  0  0  0
  -22.3854  -10.9697   19.6127 H   0  0  0  0  0  0
  -21.2035   -7.6165   23.9725 H   0  0  0  0  0  0
  -21.1486   -6.0529   25.9075 H   0  0  0  0  0  0
  -22.0587   -2.7625   23.2829 H   0  0  0  0  0  0
  -22.4039  -11.9742   22.4895 H   0  0  0  0  0  0
  -21.0937  -13.0980   22.2674 H   0  0  0  0  0  0
  -24.5768  -15.8638   20.5540 H   0  0  0  0  0  0
  -26.2060  -15.6839   20.1380 H   0  0  0  0  0  0
  -26.7876  -32.4443   23.0543 H   0  0  0  0  0  0
  -24.9961  -33.8879   24.9601 H   0  0  0  0  0  0
  -22.9629  -31.1444   21.2211 H   0  0  0  0  0  0
  -23.3792  -35.9283   23.3224 H   0  0  0  0  0  0
  -24.3542  -36.8804   22.2107 H   0  0  0  0  0  0
  -23.7229  -37.6104   23.6874 H   0  0  0  0  0  0
  -26.4659  -30.9211   20.6487 H   0  0  0  0  0  0
  -27.0298  -30.3291   22.1459 H   0  0  0  0  0  0
  -28.1985  -27.7908   21.4071 H   0  0  0  0  0  0
  -25.7596  -25.3099   18.9588 H   0  0  0  0  0  0
  -24.1415  -27.0455   18.8719 H   0  0  0  0  0  0
  -24.1127  -30.2559   19.3556 H   0  0  0  0  0  0
  -22.9802  -29.0216   19.7958 H   0  0  0  0  0  0
  -25.1411  -36.1346   25.0723 H   0  0  0  0  0  0
  -21.0093  -28.3507   24.1170 H   0  0  0  0  0  0
  -20.5606  -26.2478   23.3738 H   0  0  0  0  0  0
  -21.6663  -26.7276   22.1281 H   0  0  0  0  0  0
  -19.6940  -25.6222   21.1342 H   0  0  0  0  0  0
  -19.6763  -27.3084   20.6699 H   0  0  0  0  0  0
  -17.4253  -26.6718   21.4002 H   0  0  0  0  0  0
  -18.0338  -26.0144   22.9029 H   0  0  0  0  0  0
  -19.8031  -30.7398   24.2071 H   0  0  0  0  0  0
  -17.5087  -31.6284   24.5168 H   0  0  0  0  0  0
  -15.5417  -30.2952   23.7771 H   0  0  0  0  0  0
  -15.8752  -28.0794   22.7169 H   0  0  0  0  0  0
  -24.5845  -30.7190   25.7424 H   0  0  0  0  0  0
  -24.8725  -32.3171   26.4173 H   0  0  0  0  0  0
  -25.7627  -30.9316   27.0189 H   0  0  0  0  0  0
  -26.3552  -29.6093   24.2123 H   0  0  0  0  0  0
  -27.4038  -29.7408   25.5956 H   0  0  0  0  0  0
  -27.9570  -30.3690   24.0706 H   0  0  0  0  0  0
  -27.2476  -33.3875   26.1635 H   0  0  0  0  0  0
  -28.4042  -32.6752   25.0488 H   0  0  0  0  0  0
  -28.0450  -31.8868   26.5774 H   0  0  0  0  0  0
  -28.2488  -38.0006   24.7515 H   0  0  0  0  0  0
  -28.1107  -36.2518   24.6291 H   0  0  0  0  0  0
  -27.2256  -37.1265   25.8866 H   0  0  0  0  0  0
  -21.0089  -29.8498   21.6159 H   0  0  0  0  0  0
  -26.0011  -38.2526   24.1435 H   0  0  0  0  0  0
  -30.0015  -20.5173   19.6027 H   0  0  0  0  0  0
  -29.6902  -20.4553   21.2869 H   0  0  0  0  0  0
  -27.7199  -22.3753   19.2446 H   0  0  0  0  0  0
  -27.3860  -22.2933   20.9225 H   0  0  0  0  0  0
  -30.3181  -18.3884   20.2986 H   0  0  0  0  0  0
  1 25  1  0  0  0
  1 30  2  0  0  0
  1 73  1  0  0  0
  2  3  1  0  0  0
  2 25  1  0  0  0
  2 74  1  0  0  0
  2 75  1  0  0  0
  3  4  1  0  0  0
  3 76  1  0  0  0
  3 77  1  0  0  0
  4  5  1  0  0  0
  4 78  1  0  0  0
  4 79  1  0  0  0
  5  6  1  0  0  0
  5 26  1  0  0  0
  5 80  1  0  0  0
  6 25  1  0  0  0
  6 81  1  0  0  0
  6 82  1  0  0  0
  7  8  2  0  0  0
  7 26  1  0  0  0
  7 29  1  0  0  0
  8  9  1  0  0  0
  8 22  1  0  0  0
  9 10  1  0  0  0
  9 27  2  0  0  0
 10 11  2  0  0  0
 10 15  1  0  0  0
 11 12  1  0  0  0
 11 83  1  0  0  0
 12 13  2  0  0  0
 12 84  1  0  0  0
 13 14  1  0  0  0
 13 31  1  0  0  0
 14 15  2  0  0  0
 14 85  1  0  0  0
 15 86  1  0  0  0
 16 17  2  0  0  0
 16 21  1  0  0  0
 16 31  1  0  0  0
 17 18  1  0  0  0
 17 87  1  0  0  0
 18 19  2  0  0  0
 18 88  1  0  0  0
 19 20  1  0  0  0
 19 24  1  0  0  0
 20 21  2  0  0  0
 20 89  1  0  0  0
 21 23  1  0  0  0
 22 28  1  0  0  0
 22 32  2  0  0  0
 26 27  1  0  0  0
 28 90  1  0  0  0
 28 91  1  0  0  0
 29 92  1  0  0  0
 29 93  1  0  0  0
 33 34  1  0  0  0
 33 66  1  0  0  0
 33 70  2  0  0  0
 34 36  1  0  0  0
 34 59  1  0  0  0
 34 94  1  0  0  0
 35 44  2  0  0  0
 35 45  1  0  0  0
 35 68  1  0  0  0
 36 56  1  0  0  0
 36 95  1  0  0  0
 37 39  1  0  0  0
 37 47  1  0  0  0
 37 66  1  0  0  0
 37 96  1  0  0  0
 38 43  2  0  0  0
 38 46  1  0  0  0
 38 47  1  0  0  0
 39 64  1  0  0  0
 39 67  2  0  0  0
 40 52  1  0  0  0
 40 53  2  0  0  0
 40 58  1  0  0  0
 41 97  1  0  0  0
 41 98  1  0  0  0
 41 99  1  0  0  0
 41 48  1  0  0  0
 42 43  1  0  0  0
 42 66  1  0  0  0
 42100  1  0  0  0
 42101  1  0  0  0
 43 44  1  0  0  0
 44102  1  0  0  0
 45 46  2  0  0  0
 45103  1  0  0  0
 46104  1  0  0  0
 47105  1  0  0  0
 47106  1  0  0  0
 48 56  1  0  0  0
 48 65  1  0  0  0
 48107  1  0  0  0
 49 50  1  0  0  0
 49 53  1  0  0  0
 49 64  1  0  0  0
 49108  1  0  0  0
 50 51  1  0  0  0
 50109  1  0  0  0
 50110  1  0  0  0
 51 52  1  0  0  0
 51111  1  0  0  0
 51112  1  0  0  0
 52113  1  0  0  0
 52114  1  0  0  0
 53 54  1  0  0  0
 54 55  2  0  0  0
 54115  1  0  0  0
 55 57  1  0  0  0
 55116  1  0  0  0
 56 69  2  0  0  0
 57 58  2  0  0  0
 57117  1  0  0  0
 58118  1  0  0  0
 59 60  1  0  0  0
 59 61  1  0  0  0
 59 62  1  0  0  0
 60119  1  0  0  0
 60120  1  0  0  0
 60121  1  0  0  0
 61122  1  0  0  0
 61123  1  0  0  0
 61124  1  0  0  0
 62125  1  0  0  0
 62126  1  0  0  0
 62127  1  0  0  0
 63 65  1  0  0  0
 63128  1  0  0  0
 63129  1  0  0  0
 63130  1  0  0  0
 64131  1  0  0  0
 65132  1  0  0  0
 68 72  1  0  0  0
 71 72  1  0  0  0
 71 73  1  0  0  0
 71133  1  0  0  0
 71134  1  0  0  0
 72135  1  0  0  0
 72136  1  0  0  0
 73137  1  0  0  0
M  ISO  4   1 100  68 101  72 101  73 100
M  END
> <chiral flag>
0

> <version>
0

> <s_m_source_file>
/data/baiqing/PycharmProjects/Reinvent-master-3.2/result/LINK_invent/BTK/process_docking_weight1_custom_product_contain_oxygen_bond_distance_aromatic_linkinvent_7_9_3/rearranged_h_0004.sdf

> <i_m_source_file_index>
44

> <r_mmod_Potential_Energy-OPLS-2005>
6948.9697265625

> <r_mmod_Stretch_Energy-OPLS-2005>
3136.46411132812

> <r_mmod_Bend_Energy-OPLS-2005>
1268.50207519531

> <r_mmod_Torsional_Energy-OPLS-2005>
217.324829101562

> <r_mmod_Improper_Torsional_Energy-OPLS-2005>
4.82364273071289

> <r_mmod_Van_der_Waal_Energy-OPLS-2005>
120.95548248291

> <r_mmod_Electrostatic_Energy-OPLS-2005>
-391.247985839844

> <r_mmod_Solvation_Energy-OPLS-2005>
-221.174652099609

> <b_mmod_Minimization_Converged-OPLS-2005>
1

> <r_mmod_RMS_Derivative-OPLS-2005>
0.042349461466074

$$$$
44
                    3D
 Structure written by MMmdl.
162171  0  0  1  0            999 V2000
  -30.7110  -14.4665   20.4975 C   0  0  0  0  0  0
  -30.4072  -12.2839   19.4175 C   0  0  0  0  0  0
  -29.4824  -12.4657   18.1973 C   0  0  0  0  0  0
  -28.0006  -12.3403   18.6139 C   0  0  0  0  0  0
  -27.6395  -13.1877   19.8667 C   0  0  2  0  0  0
  -28.6958  -13.0376   20.9828 C   0  0  0  0  0  0
  -25.2532  -13.8040   20.5817 C   0  0  0  0  0  0
  -24.1759  -13.0346   20.9207 C   0  0  0  0  0  0
  -24.6321  -11.6827   20.8784 C   0  0  0  0  0  0
  -23.8991  -10.4249   21.0415 C   0  0  0  0  0  0
  -24.3556   -9.4179   21.9195 C   0  0  0  0  0  0
  -23.6240   -8.2212   22.0748 C   0  0  0  0  0  0
  -22.4227   -8.0254   21.3533 C   0  0  0  0  0  0
  -21.9867   -9.0225   20.4633 C   0  0  0  0  0  0
  -22.7177  -10.2110   20.3055 C   0  0  0  0  0  0
  -21.6835   -6.0713   22.5286 C   0  0  0  0  0  0
  -21.3998   -6.5620   23.8220 C   0  0  0  0  0  0
  -21.3662   -5.6778   24.9185 C   0  0  0  0  0  0
  -21.6058   -4.3043   24.7249 C   0  0  0  0  0  0
  -21.8806   -3.8128   23.4369 C   0  0  0  0  0  0
  -21.9180   -4.6940   22.3420 C   0  0  0  0  0  0
  -22.7803  -13.5183   21.1831 C   0  0  0  0  0  0
  -22.1643   -4.2118   21.1007 F   0  0  0  0  0  0
  -21.5647   -3.4542   25.7764 F   0  0  0  0  0  0
  -30.0155  -13.3063   20.3931 N   0  0  0  0  0  0
  -26.2915  -12.9152   20.3431 N   0  0  0  0  0  0
  -25.9234  -11.6336   20.5829 N   0  0  0  0  0  0
  -22.0426  -12.8242   22.0423 N   0  0  0  0  0  0
  -25.4338  -15.1758   20.4400 N   0  0  0  0  0  0
  -31.9163  -14.5494   20.2665 O   0  0  0  0  0  0
  -21.6598   -6.8855   21.4240 O   0  0  0  0  0  0
  -22.3542  -14.5503   20.6650 O   0  0  0  0  0  0
  -24.6065  -31.8747   23.2149 C   0  0  0  0  0  0
  -25.9000  -32.4854   23.8428 C   0  0  1  0  0  0
  -27.2218  -27.4799   20.1078 C   0  0  0  0  0  0
  -25.5883  -33.8649   24.2368 N   0  0  0  0  0  0
  -23.3920  -30.5002   21.5497 C   0  0  2  0  0  0
  -24.8408  -28.9738   20.1104 C   0  0  0  0  0  0
  -22.7364  -29.4730   22.4997 C   0  0  0  0  0  0
  -18.0287  -28.1384   22.8474 C   0  0  0  0  0  0
  -24.1480  -36.7309   23.2646 C   0  0  0  0  0  0
  -25.9147  -30.8574   21.3664 C   0  0  0  0  0  0
  -25.9946  -29.4969   20.7096 C   0  0  0  0  0  0
  -27.1931  -28.7553   20.7061 C   0  0  0  0  0  0
  -26.0603  -26.9624   19.4990 C   0  0  0  0  0  0
  -24.8645  -27.7049   19.5025 C   0  0  0  0  0  0
  -23.5977  -29.8306   20.1632 C   0  0  0  0  0  0
  -25.4103  -36.3121   24.0355 C   0  0  1  0  0  0
  -20.5856  -28.3709   23.1333 C   0  0  2  0  0  0
  -20.6757  -26.9431   22.5477 C   0  0  0  0  0  0
  -19.5796  -26.6531   21.5190 C   0  0  0  0  0  0
  -18.1979  -26.7945   22.1633 C   0  0  0  0  0  0
  -19.1520  -28.8864   23.2887 C   0  0  0  0  0  0
  -18.9434  -30.1483   23.8845 C   0  0  0  0  0  0
  -17.6427  -30.6612   24.0473 C   0  0  0  0  0  0
  -25.9020  -34.9493   23.5142 C   0  0  0  0  0  0
  -16.5335  -29.9082   23.6253 C   0  0  0  0  0  0
  -16.7266  -28.6483   23.0314 C   0  0  0  0  0  0
  -26.4453  -31.6608   25.0730 C   0  0  0  0  0  0
  -25.3734  -31.3680   26.1487 C   0  0  0  0  0  0
  -27.0304  -30.3065   24.6083 C   0  0  0  0  0  0
  -27.6050  -32.4310   25.7478 C   0  0  0  0  0  0
  -27.5572  -37.1809   24.8473 C   0  0  0  0  0  0
  -21.4109  -29.3079   22.3760 N   0  0  0  0  0  0
  -26.4296  -37.3801   23.9400 N   0  0  0  0  0  0
  -24.6542  -31.0893   22.1028 N   0  0  0  0  0  0
  -23.4168  -28.8311   23.3047 O   0  0  0  0  0  0
  -28.3720  -26.7428   20.1306 O   0  0  0  0  0  0
  -26.5577  -34.8935   22.4703 O   0  0  0  0  0  0
  -23.5267  -32.1505   23.7567 O   0  0  0  0  0  0
  -29.9078  -16.7505   15.7746 C   0  0  0  0  0  0
  -30.2433  -16.7504   16.9519 C   0  0  0  0  0  0
  -26.5860  -18.7848   19.4200 C   0  0  0  0  0  0
  -26.4869  -21.1398   20.0923 C   0  0  0  0  0  0
  -27.3379  -17.6079   19.2244 C   0  0  0  0  0  0
  -27.1437  -22.3000   20.5505 C   0  0  0  0  0  0
  -29.2482  -18.6392   20.3370 C   0  0  0  0  0  0
  -29.1669  -21.0024   20.9521 C   0  0  0  0  0  0
  -27.1897  -19.9196   20.0005 C   0  0  0  0  0  0
  -28.5291  -19.8469   20.4543 C   0  0  0  0  0  0
  -28.6768  -17.5294   19.6726 C   0  0  0  0  0  0
  -28.5031  -22.2456   20.9362 C   0  0  0  0  0  0
  -30.6657  -16.6850   18.3594 C   0  0  0  0  0  0
  -29.0882  -24.4735   20.3807 C   0  0  0  0  0  0
  -28.2954  -25.6205   21.0099 C   0  0  0  0  0  0
  -29.5291  -16.3003   19.3518 C   0  0  2  0  0  0
  -29.9816  -15.5935   20.5672 N   0  0  0  0  0  0
  -29.2170  -23.3681   21.2757 O   0  0  0  0  0  0
  -31.4554  -12.3716   19.1180 H   0  0  0  0  0  0
  -30.2966  -11.2864   19.8433 H   0  0  0  0  0  0
  -29.7171  -11.7207   17.4361 H   0  0  0  0  0  0
  -29.6642  -13.4377   17.7362 H   0  0  0  0  0  0
  -27.8056  -11.2868   18.8166 H   0  0  0  0  0  0
  -27.3509  -12.6080   17.7792 H   0  0  0  0  0  0
  -27.6232  -14.2195   19.5470 H   0  0  0  0  0  0
  -28.6702  -12.0306   21.3985 H   0  0  0  0  0  0
  -28.4855  -13.7168   21.8089 H   0  0  0  0  0  0
  -25.2689   -9.5668   22.4796 H   0  0  0  0  0  0
  -23.9939   -7.4603   22.7472 H   0  0  0  0  0  0
  -21.0790   -8.8724   19.8951 H   0  0  0  0  0  0
  -22.3603  -10.9642   19.6186 H   0  0  0  0  0  0
  -21.1966   -7.6130   23.9717 H   0  0  0  0  0  0
  -21.1500   -6.0518   25.9094 H   0  0  0  0  0  0
  -22.0584   -2.7592   23.2881 H   0  0  0  0  0  0
  -22.3931  -11.9869   22.4812 H   0  0  0  0  0  0
  -21.1072  -13.1358   22.2577 H   0  0  0  0  0  0
  -24.6917  -15.8444   20.6130 H   0  0  0  0  0  0
  -26.3302  -15.6169   20.2780 H   0  0  0  0  0  0
  -26.7089  -32.5600   23.1221 H   0  0  0  0  0  0
  -25.0039  -33.9832   25.0517 H   0  0  0  0  0  0
  -22.6804  -31.3175   21.4122 H   0  0  0  0  0  0
  -23.3744  -35.9628   23.3332 H   0  0  0  0  0  0
  -24.3575  -36.8902   22.2045 H   0  0  0  0  0  0
  -23.7221  -37.6524   23.6642 H   0  0  0  0  0  0
  -26.0289  -31.6350   20.6099 H   0  0  0  0  0  0
  -26.8017  -30.9013   21.9863 H   0  0  0  0  0  0
  -28.0859  -29.1474   21.1742 H   0  0  0  0  0  0
  -26.0822  -25.9877   19.0323 H   0  0  0  0  0  0
  -23.9751  -27.2969   19.0401 H   0  0  0  0  0  0
  -23.6974  -30.6025   19.3993 H   0  0  0  0  0  0
  -22.7258  -29.2386   19.8724 H   0  0  0  0  0  0
  -25.1271  -36.1999   25.0848 H   0  0  0  0  0  0
  -20.9903  -28.3323   24.1452 H   0  0  0  0  0  0
  -20.5487  -26.2361   23.3692 H   0  0  0  0  0  0
  -21.6643  -26.7377   22.1380 H   0  0  0  0  0  0
  -19.6984  -25.6563   21.0952 H   0  0  0  0  0  0
  -19.6713  -27.3558   20.6899 H   0  0  0  0  0  0
  -17.4196  -26.6589   21.4098 H   0  0  0  0  0  0
  -18.0482  -26.0130   22.9088 H   0  0  0  0  0  0
  -19.7901  -30.7309   24.2196 H   0  0  0  0  0  0
  -17.4983  -31.6306   24.5026 H   0  0  0  0  0  0
  -15.5326  -30.2943   23.7574 H   0  0  0  0  0  0
  -15.8704  -28.0768   22.7015 H   0  0  0  0  0  0
  -24.5919  -30.7030   25.7804 H   0  0  0  0  0  0
  -24.8914  -32.2815   26.4966 H   0  0  0  0  0  0
  -25.8098  -30.8816   27.0225 H   0  0  0  0  0  0
  -26.2849  -29.6815   24.1156 H   0  0  0  0  0  0
  -27.4125  -29.7305   25.4526 H   0  0  0  0  0  0
  -27.8658  -30.4420   23.9214 H   0  0  0  0  0  0
  -27.2706  -33.3619   26.2078 H   0  0  0  0  0  0
  -28.3835  -32.6864   25.0273 H   0  0  0  0  0  0
  -28.0746  -31.8415   26.5371 H   0  0  0  0  0  0
  -28.2617  -38.0086   24.7505 H   0  0  0  0  0  0
  -28.1050  -36.2616   24.6320 H   0  0  0  0  0  0
  -27.2291  -37.1481   25.8886 H   0  0  0  0  0  0
  -20.9279  -29.8790   21.6958 H   0  0  0  0  0  0
  -26.0193  -38.2885   24.1405 H   0  0  0  0  0  0
  -29.6274  -16.7384   14.7444 H   0  0  0  0  0  0
  -25.5628  -18.8227   19.0683 H   0  0  0  0  0  0
  -25.4606  -21.2062   19.7613 H   0  0  0  0  0  0
  -26.8830  -16.7825   18.6962 H   0  0  0  0  0  0
  -26.5934  -23.2300   20.5837 H   0  0  0  0  0  0
  -30.2684  -18.6023   20.6900 H   0  0  0  0  0  0
  -30.1973  -20.9435   21.2714 H   0  0  0  0  0  0
  -31.1257  -17.6361   18.6256 H   0  0  0  0  0  0
  -31.4629  -15.9487   18.3408 H   0  0  0  0  0  0
  -30.0949  -24.8269   20.1600 H   0  0  0  0  0  0
  -28.6474  -24.1997   19.4191 H   0  0  0  0  0  0
  -28.7291  -25.9077   21.9688 H   0  0  0  0  0  0
  -27.2743  -25.2985   21.2219 H   0  0  0  0  0  0
  -28.8966  -15.6097   18.8045 H   0  0  0  0  0  0
  -30.3857  -16.2550   21.2139 H   0  0  0  0  0  0
  1 25  1  0  0  0
  1 30  2  0  0  0
  1 87  1  0  0  0
  2  3  1  0  0  0
  2 25  1  0  0  0
  2 89  1  0  0  0
  2 90  1  0  0  0
  3  4  1  0  0  0
  3 91  1  0  0  0
  3 92  1  0  0  0
  4  5  1  0  0  0
  4 93  1  0  0  0
  4 94  1  0  0  0
  5  6  1  0  0  0
  5 26  1  0  0  0
  5 95  1  0  0  0
  6 25  1  0  0  0
  6 96  1  0  0  0
  6 97  1  0  0  0
  7  8  2  0  0  0
  7 26  1  0  0  0
  7 29  1  0  0  0
  8  9  1  0  0  0
  8 22  1  0  0  0
  9 10  1  0  0  0
  9 27  2  0  0  0
 10 11  2  0  0  0
 10 15  1  0  0  0
 11 12  1  0  0  0
 11 98  1  0  0  0
 12 13  2  0  0  0
 12 99  1  0  0  0
 13 14  1  0  0  0
 13 31  1  0  0  0
 14 15  2  0  0  0
 14100  1  0  0  0
 15101  1  0  0  0
 16 17  2  0  0  0
 16 21  1  0  0  0
 16 31  1  0  0  0
 17 18  1  0  0  0
 17102  1  0  0  0
 18 19  2  0  0  0
 18103  1  0  0  0
 19 20  1  0  0  0
 19 24  1  0  0  0
 20 21  2  0  0  0
 20104  1  0  0  0
 21 23  1  0  0  0
 22 28  1  0  0  0
 22 32  2  0  0  0
 26 27  1  0  0  0
 28105  1  0  0  0
 28106  1  0  0  0
 29107  1  0  0  0
 29108  1  0  0  0
 33 34  1  0  0  0
 33 66  1  0  0  0
 33 70  2  0  0  0
 34 36  1  0  0  0
 34 59  1  0  0  0
 34109  1  0  0  0
 35 44  2  0  0  0
 35 45  1  0  0  0
 35 68  1  0  0  0
 36 56  1  0  0  0
 36110  1  0  0  0
 37 39  1  0  0  0
 37 47  1  0  0  0
 37 66  1  0  0  0
 37111  1  0  0  0
 38 43  2  0  0  0
 38 46  1  0  0  0
 38 47  1  0  0  0
 39 64  1  0  0  0
 39 67  2  0  0  0
 40 52  1  0  0  0
 40 53  2  0  0  0
 40 58  1  0  0  0
 41112  1  0  0  0
 41113  1  0  0  0
 41114  1  0  0  0
 41 48  1  0  0  0
 42 43  1  0  0  0
 42 66  1  0  0  0
 42115  1  0  0  0
 42116  1  0  0  0
 43 44  1  0  0  0
 44117  1  0  0  0
 45 46  2  0  0  0
 45118  1  0  0  0
 46119  1  0  0  0
 47120  1  0  0  0
 47121  1  0  0  0
 48 56  1  0  0  0
 48 65  1  0  0  0
 48122  1  0  0  0
 49 50  1  0  0  0
 49 53  1  0  0  0
 49 64  1  0  0  0
 49123  1  0  0  0
 50 51  1  0  0  0
 50124  1  0  0  0
 50125  1  0  0  0
 51 52  1  0  0  0
 51126  1  0  0  0
 51127  1  0  0  0
 52128  1  0  0  0
 52129  1  0  0  0
 53 54  1  0  0  0
 54 55  2  0  0  0
 54130  1  0  0  0
 55 57  1  0  0  0
 55131  1  0  0  0
 56 69  2  0  0  0
 57 58  2  0  0  0
 57132  1  0  0  0
 58133  1  0  0  0
 59 60  1  0  0  0
 59 61  1  0  0  0
 59 62  1  0  0  0
 60134  1  0  0  0
 60135  1  0  0  0
 60136  1  0  0  0
 61137  1  0  0  0
 61138  1  0  0  0
 61139  1  0  0  0
 62140  1  0  0  0
 62141  1  0  0  0
 62142  1  0  0  0
 63 65  1  0  0  0
 63143  1  0  0  0
 63144  1  0  0  0
 63145  1  0  0  0
 64146  1  0  0  0
 65147  1  0  0  0
 68 85  1  0  0  0
 71 72  3  0  0  0
 71148  1  0  0  0
 72 83  1  0  0  0
 73 75  2  0  0  0
 73 79  1  0  0  0
 73149  1  0  0  0
 74 76  1  0  0  0
 74 79  2  0  0  0
 74150  1  0  0  0
 75 81  1  0  0  0
 75151  1  0  0  0
 76 82  2  0  0  0
 76152  1  0  0  0
 77 80  1  0  0  0
 77 81  2  0  0  0
 77153  1  0  0  0
 78 80  2  0  0  0
 78 82  1  0  0  0
 78154  1  0  0  0
 79 80  1  0  0  0
 81 86  1  0  0  0
 82 88  1  0  0  0
 83155  1  0  0  0
 83156  1  0  0  0
 83 86  1  0  0  0
 84 85  1  0  0  0
 84 88  1  0  0  0
 84157  1  0  0  0
 84158  1  0  0  0
 85159  1  0  0  0
 85160  1  0  0  0
 86 87  1  0  0  0
 86161  1  0  0  0
 87162  1  0  0  0
M  ISO  4   1 100  68 101  85 101  87 100
M  END
> <chiral flag>
0

> <version>
0

> <s_m_source_file>
/data/baiqing/PycharmProjects/Reinvent-master-3.2/result/LINK_invent/BTK/process_docking_weight1_custom_product_contain_oxygen_bond_distance_aromatic_linkinvent_7_9_3/rearranged_h_0004.sdf

> <i_m_source_file_index>
45

> <r_mmod_Potential_Energy-OPLS-2005>
35.9926223754883

> <r_mmod_Stretch_Energy-OPLS-2005>
33.6162719726562

> <r_mmod_Bend_Energy-OPLS-2005>
97.0260467529297

> <r_mmod_Torsional_Energy-OPLS-2005>
329.534698486328

> <r_mmod_Improper_Torsional_Energy-OPLS-2005>
12.2904024124146

> <r_mmod_Van_der_Waal_Energy-OPLS-2005>
165.526992797852

> <r_mmod_Electrostatic_Energy-OPLS-2005>
-417.831146240234

> <r_mmod_Solvation_Energy-OPLS-2005>
-207.101089477539

> <b_mmod_Minimization_Converged-OPLS-2005>
0

> <r_mmod_RMS_Derivative-OPLS-2005>
5.30120992660522

$$$$
45
                    3D
 Structure written by MMmdl.
146154  0  0  1  0            999 V2000
  -30.4232  -15.2115   20.3779 C   0  0  0  0  0  0
  -30.4491  -12.7673   19.5207 C   0  0  0  0  0  0
  -29.5377  -12.5706   18.2822 C   0  0  0  0  0  0
  -28.0816  -12.3041   18.7059 C   0  0  0  0  0  0
  -27.6187  -13.2660   19.8285 C   0  0  2  0  0  0
  -28.6552  -13.3957   20.9648 C   0  0  0  0  0  0
  -25.2417  -13.8232   20.5723 C   0  0  0  0  0  0
  -24.1762  -13.0435   20.9255 C   0  0  0  0  0  0
  -24.6403  -11.6928   20.8762 C   0  0  0  0  0  0
  -23.9091  -10.4291   21.0408 C   0  0  0  0  0  0
  -24.3635   -9.4204   21.9186 C   0  0  0  0  0  0
  -23.6303   -8.2243   22.0755 C   0  0  0  0  0  0
  -22.4284   -8.0284   21.3545 C   0  0  0  0  0  0
  -21.9926   -9.0259   20.4647 C   0  0  0  0  0  0
  -22.7262  -10.2134   20.3057 C   0  0  0  0  0  0
  -21.6855   -6.0738   22.5279 C   0  0  0  0  0  0
  -21.4016   -6.5641   23.8212 C   0  0  0  0  0  0
  -21.3660   -5.6793   24.9174 C   0  0  0  0  0  0
  -21.6044   -4.3056   24.7224 C   0  0  0  0  0  0
  -21.8819   -3.8148   23.4345 C   0  0  0  0  0  0
  -21.9193   -4.6965   22.3401 C   0  0  0  0  0  0
  -22.7779  -13.5194   21.1901 C   0  0  0  0  0  0
  -22.1662   -4.2150   21.0979 F   0  0  0  0  0  0
  -21.5628   -3.4539   25.7737 F   0  0  0  0  0  0
  -29.8964  -13.8942   20.3506 N   0  0  0  0  0  0
  -26.2844  -12.9490   20.3215 N   0  0  0  0  0  0
  -25.9338  -11.6604   20.5722 N   0  0  0  0  0  0
  -22.0432  -12.8178   22.0453 N   0  0  0  0  0  0
  -25.4042  -15.1965   20.4119 N   0  0  0  0  0  0
  -31.6383  -15.2698   20.1392 O   0  0  0  0  0  0
  -21.6644   -6.8883   21.4242 O   0  0  0  0  0  0
  -22.3460  -14.5495   20.6738 O   0  0  0  0  0  0
  -24.6597  -31.8267   23.1726 C   0  0  0  0  0  0
  -25.9291  -32.4605   23.8183 C   0  0  1  0  0  0
  -27.2221  -26.9626   20.1813 C   0  0  0  0  0  0
  -25.5970  -33.8417   24.2091 N   0  0  0  0  0  0
  -23.4730  -30.4386   21.5214 C   0  0  2  0  0  0
  -24.9266  -28.8302   20.1133 C   0  0  0  0  0  0
  -22.7651  -29.4456   22.4796 C   0  0  0  0  0  0
  -18.0319  -28.1406   22.8469 C   0  0  0  0  0  0
  -24.1494  -36.7216   23.2648 C   0  0  0  0  0  0
  -26.0398  -30.6451   21.3971 C   0  0  0  0  0  0
  -26.1097  -29.2378   20.7422 C   0  0  0  0  0  0
  -27.2539  -28.3252   20.7502 C   0  0  0  0  0  0
  -26.0092  -26.6966   19.5081 C   0  0  0  0  0  0
  -24.8996  -27.5792   19.4764 C   0  0  0  0  0  0
  -23.7110  -29.7542   20.1475 C   0  0  0  0  0  0
  -25.4135  -36.2978   24.0301 C   0  0  1  0  0  0
  -20.5942  -28.3749   23.1196 C   0  0  2  0  0  0
  -20.6797  -26.9434   22.5402 C   0  0  0  0  0  0
  -19.5770  -26.6378   21.5214 C   0  0  0  0  0  0
  -18.1953  -26.7940   22.1625 C   0  0  0  0  0  0
  -19.1580  -28.8899   23.2820 C   0  0  0  0  0  0
  -18.9491  -30.1489   23.8854 C   0  0  0  0  0  0
  -17.6484  -30.6597   24.0556 C   0  0  0  0  0  0
  -25.9095  -34.9359   23.5017 C   0  0  0  0  0  0
  -16.5375  -29.9084   23.6341 C   0  0  0  0  0  0
  -16.7302  -28.6505   23.0361 C   0  0  0  0  0  0
  -26.4554  -31.6539   25.0699 C   0  0  0  0  0  0
  -25.3689  -31.3777   26.1361 C   0  0  0  0  0  0
  -27.0450  -30.2912   24.6408 C   0  0  0  0  0  0
  -27.6048  -32.4344   25.7503 C   0  0  0  0  0  0
  -27.5568  -37.1772   24.8471 C   0  0  0  0  0  0
  -21.4324  -29.3043   22.3547 N   0  0  0  0  0  0
  -26.4286  -37.3706   23.9400 N   0  0  0  0  0  0
  -24.7452  -30.9962   22.0844 N   0  0  0  0  0  0
  -23.4214  -28.8025   23.3026 O   0  0  0  0  0  0
  -28.2367  -25.8814   20.2509 O   0  0  0  0  0  0
  -26.5703  -34.8888   22.4611 O   0  0  0  0  0  0
  -23.5674  -32.1222   23.6840 O   0  0  0  0  0  0
  -28.1243  -20.2869   20.4618 C   0  0  0  0  0  0
  -28.2921  -18.8074   20.5064 C   0  0  0  0  0  0
  -30.5596  -19.0141   20.2448 C   0  0  0  0  0  0
  -29.1667  -21.2922   20.3094 C   0  0  0  0  0  0
  -29.5197  -18.0148   20.4070 C   0  0  0  0  0  0
  -30.4008  -20.4948   20.2046 C   0  0  0  0  0  0
  -29.1393  -23.0154   20.3353 C   0  0  0  0  0  0
  -27.9579  -24.2668   20.1549 C   0  0  0  0  0  0
  -29.5635  -16.4024   20.4881 N   0  0  0  0  0  0
  -30.2468  -23.5291   20.5217 O   0  0  0  0  0  0
  -31.5606  -21.1770   20.0482 F   0  0  0  0  0  0
  -31.4680  -12.9780   19.1926 H   0  0  0  0  0  0
  -30.5131  -11.8488   20.1063 H   0  0  0  0  0  0
  -29.9058  -11.7502   17.6646 H   0  0  0  0  0  0
  -29.5770  -13.4652   17.6590 H   0  0  0  0  0  0
  -28.0252  -11.2744   19.0610 H   0  0  0  0  0  0
  -27.4146  -12.3680   17.8454 H   0  0  0  0  0  0
  -27.5472  -14.2434   19.3503 H   0  0  0  0  0  0
  -28.8085  -12.4437   21.4752 H   0  0  0  0  0  0
  -28.3056  -14.0993   21.7218 H   0  0  0  0  0  0
  -25.2777   -9.5678   22.4766 H   0  0  0  0  0  0
  -24.0006   -7.4634   22.7476 H   0  0  0  0  0  0
  -21.0856   -8.8784   19.8952 H   0  0  0  0  0  0
  -22.3721  -10.9676   19.6169 H   0  0  0  0  0  0
  -21.2010   -7.6149   23.9716 H   0  0  0  0  0  0
  -21.1481   -6.0523   25.9076 H   0  0  0  0  0  0
  -22.0597   -2.7610   23.2845 H   0  0  0  0  0  0
  -22.4061  -11.9848   22.4847 H   0  0  0  0  0  0
  -21.1043  -13.1187   22.2654 H   0  0  0  0  0  0
  -24.6236  -15.8371   20.5074 H   0  0  0  0  0  0
  -26.2225  -15.6312   20.0077 H   0  0  0  0  0  0
  -26.7361  -32.5156   23.0901 H   0  0  0  0  0  0
  -25.0064  -33.9501   25.0205 H   0  0  0  0  0  0
  -22.7844  -31.2690   21.3520 H   0  0  0  0  0  0
  -23.3758  -35.9546   23.3304 H   0  0  0  0  0  0
  -24.3564  -36.8865   22.2063 H   0  0  0  0  0  0
  -23.7256  -37.6407   23.6705 H   0  0  0  0  0  0
  -26.2149  -31.3881   20.6180 H   0  0  0  0  0  0
  -26.9019  -30.7024   22.0499 H   0  0  0  0  0  0
  -28.1513  -28.6361   21.2662 H   0  0  0  0  0  0
  -25.8870  -25.7403   19.0211 H   0  0  0  0  0  0
  -23.9998  -27.2611   18.9677 H   0  0  0  0  0  0
  -23.8638  -30.5225   19.3887 H   0  0  0  0  0  0
  -22.8217  -29.2062   19.8313 H   0  0  0  0  0  0
  -25.1335  -36.1783   25.0794 H   0  0  0  0  0  0
  -21.0030  -28.3354   24.1319 H   0  0  0  0  0  0
  -20.5680  -26.2367   23.3639 H   0  0  0  0  0  0
  -21.6660  -26.7415   22.1207 H   0  0  0  0  0  0
  -19.6929  -25.6278   21.1271 H   0  0  0  0  0  0
  -19.6705  -27.3164   20.6724 H   0  0  0  0  0  0
  -17.4220  -26.6680   21.4032 H   0  0  0  0  0  0
  -18.0352  -26.0094   22.9033 H   0  0  0  0  0  0
  -19.7966  -30.7318   24.2204 H   0  0  0  0  0  0
  -17.5035  -31.6272   24.5166 H   0  0  0  0  0  0
  -15.5373  -30.2972   23.7690 H   0  0  0  0  0  0
  -15.8703  -28.0807   22.7102 H   0  0  0  0  0  0
  -24.5884  -30.7114   25.7670 H   0  0  0  0  0  0
  -24.8864  -32.2974   26.4678 H   0  0  0  0  0  0
  -25.7928  -30.9015   27.0211 H   0  0  0  0  0  0
  -26.3112  -29.6591   24.1395 H   0  0  0  0  0  0
  -27.3977  -29.7269   25.5052 H   0  0  0  0  0  0
  -27.9052  -30.4104   23.9819 H   0  0  0  0  0  0
  -27.2616  -33.3683   26.1967 H   0  0  0  0  0  0
  -28.3920  -32.6845   25.0377 H   0  0  0  0  0  0
  -28.0650  -31.8547   26.5515 H   0  0  0  0  0  0
  -28.2588  -38.0063   24.7485 H   0  0  0  0  0  0
  -28.1060  -36.2587   24.6344 H   0  0  0  0  0  0
  -27.2275  -37.1470   25.8872 H   0  0  0  0  0  0
  -20.9574  -29.8732   21.6678 H   0  0  0  0  0  0
  -26.0139  -38.2772   24.1383 H   0  0  0  0  0  0
  -27.1158  -20.6592   20.5731 H   0  0  0  0  0  0
  -27.3776  -18.2457   20.6369 H   0  0  0  0  0  0
  -31.5696  -18.6431   20.1500 H   0  0  0  0  0  0
  -27.1794  -24.0469   20.8851 H   0  0  0  0  0  0
  -27.4952  -24.0909   19.1843 H   0  0  0  0  0  0
  -28.6327  -16.0503   20.6525 H   0  0  0  0  0  0
  1 25  1  0  0  0
  1 30  2  0  0  0
  1 79  1  0  0  0
  2  3  1  0  0  0
  2 25  1  0  0  0
  2 82  1  0  0  0
  2 83  1  0  0  0
  3  4  1  0  0  0
  3 84  1  0  0  0
  3 85  1  0  0  0
  4  5  1  0  0  0
  4 86  1  0  0  0
  4 87  1  0  0  0
  5  6  1  0  0  0
  5 26  1  0  0  0
  5 88  1  0  0  0
  6 25  1  0  0  0
  6 89  1  0  0  0
  6 90  1  0  0  0
  7  8  2  0  0  0
  7 26  1  0  0  0
  7 29  1  0  0  0
  8  9  1  0  0  0
  8 22  1  0  0  0
  9 10  1  0  0  0
  9 27  2  0  0  0
 10 11  2  0  0  0
 10 15  1  0  0  0
 11 12  1  0  0  0
 11 91  1  0  0  0
 12 13  2  0  0  0
 12 92  1  0  0  0
 13 14  1  0  0  0
 13 31  1  0  0  0
 14 15  2  0  0  0
 14 93  1  0  0  0
 15 94  1  0  0  0
 16 17  2  0  0  0
 16 21  1  0  0  0
 16 31  1  0  0  0
 17 18  1  0  0  0
 17 95  1  0  0  0
 18 19  2  0  0  0
 18 96  1  0  0  0
 19 20  1  0  0  0
 19 24  1  0  0  0
 20 21  2  0  0  0
 20 97  1  0  0  0
 21 23  1  0  0  0
 22 28  1  0  0  0
 22 32  2  0  0  0
 26 27  1  0  0  0
 28 98  1  0  0  0
 28 99  1  0  0  0
 29100  1  0  0  0
 29101  1  0  0  0
 33 34  1  0  0  0
 33 66  1  0  0  0
 33 70  2  0  0  0
 34 36  1  0  0  0
 34 59  1  0  0  0
 34102  1  0  0  0
 35 44  2  0  0  0
 35 45  1  0  0  0
 35 68  1  0  0  0
 36 56  1  0  0  0
 36103  1  0  0  0
 37 39  1  0  0  0
 37 47  1  0  0  0
 37 66  1  0  0  0
 37104  1  0  0  0
 38 43  2  0  0  0
 38 46  1  0  0  0
 38 47  1  0  0  0
 39 64  1  0  0  0
 39 67  2  0  0  0
 40 52  1  0  0  0
 40 53  2  0  0  0
 40 58  1  0  0  0
 41105  1  0  0  0
 41106  1  0  0  0
 41107  1  0  0  0
 41 48  1  0  0  0
 42 43  1  0  0  0
 42 66  1  0  0  0
 42108  1  0  0  0
 42109  1  0  0  0
 43 44  1  0  0  0
 44110  1  0  0  0
 45 46  2  0  0  0
 45111  1  0  0  0
 46112  1  0  0  0
 47113  1  0  0  0
 47114  1  0  0  0
 48 56  1  0  0  0
 48 65  1  0  0  0
 48115  1  0  0  0
 49 50  1  0  0  0
 49 53  1  0  0  0
 49 64  1  0  0  0
 49116  1  0  0  0
 50 51  1  0  0  0
 50117  1  0  0  0
 50118  1  0  0  0
 51 52  1  0  0  0
 51119  1  0  0  0
 51120  1  0  0  0
 52121  1  0  0  0
 52122  1  0  0  0
 53 54  1  0  0  0
 54 55  2  0  0  0
 54123  1  0  0  0
 55 57  1  0  0  0
 55124  1  0  0  0
 56 69  2  0  0  0
 57 58  2  0  0  0
 57125  1  0  0  0
 58126  1  0  0  0
 59 60  1  0  0  0
 59 61  1  0  0  0
 59 62  1  0  0  0
 60127  1  0  0  0
 60128  1  0  0  0
 60129  1  0  0  0
 61130  1  0  0  0
 61131  1  0  0  0
 61132  1  0  0  0
 62133  1  0  0  0
 62134  1  0  0  0
 62135  1  0  0  0
 63 65  1  0  0  0
 63136  1  0  0  0
 63137  1  0  0  0
 63138  1  0  0  0
 64139  1  0  0  0
 65140  1  0  0  0
 68 78  1  0  0  0
 71 72  2  0  0  0
 71 74  1  0  0  0
 71141  1  0  0  0
 72 75  1  0  0  0
 72142  1  0  0  0
 73 75  2  0  0  0
 73 76  1  0  0  0
 73143  1  0  0  0
 74 76  2  0  0  0
 74 77  1  0  0  0
 75 79  1  0  0  0
 76 81  1  0  0  0
 77 78  1  0  0  0
 77 80  2  0  0  0
 78144  1  0  0  0
 78145  1  0  0  0
 79146  1  0  0  0
M  ISO  4   1 100  68 101  78 101  79 100
M  END
> <chiral flag>
0

> <version>
0

> <s_m_source_file>
/data/baiqing/PycharmProjects/Reinvent-master-3.2/result/LINK_invent/BTK/process_docking_weight1_custom_product_contain_oxygen_bond_distance_aromatic_linkinvent_7_9_3/rearranged_h_0004.sdf

> <i_m_source_file_index>
46

> <r_mmod_Potential_Energy-OPLS-2005>
1133.66625976562

> <r_mmod_Stretch_Energy-OPLS-2005>
481.391723632812

> <r_mmod_Bend_Energy-OPLS-2005>
412.636810302734

> <r_mmod_Torsional_Energy-OPLS-2005>
233.886047363281

> <r_mmod_Improper_Torsional_Energy-OPLS-2005>
4.28660726547241

> <r_mmod_Van_der_Waal_Energy-OPLS-2005>
127.868751525879

> <r_mmod_Electrostatic_Energy-OPLS-2005>
-292.969512939453

> <r_mmod_Solvation_Energy-OPLS-2005>
-240.079803466797

> <b_mmod_Minimization_Converged-OPLS-2005>
0

> <r_mmod_RMS_Derivative-OPLS-2005>
0.143125295639038

$$$$
46
                    3D
 Structure written by MMmdl.
181191  0  0  1  0            999 V2000
  -30.7346  -14.3438   20.6325 C   0  0  0  0  0  0
  -30.4111  -12.2438   19.3944 C   0  0  0  0  0  0
  -29.4841  -12.4857   18.1851 C   0  0  0  0  0  0
  -28.0020  -12.3593   18.5872 C   0  0  0  0  0  0
  -27.6594  -13.1748   19.8598 C   0  0  2  0  0  0
  -28.6875  -12.9109   20.9743 C   0  0  0  0  0  0
  -25.2562  -13.8098   20.5466 C   0  0  0  0  0  0
  -24.1828  -13.0430   20.9151 C   0  0  0  0  0  0
  -24.6330  -11.6880   20.8767 C   0  0  0  0  0  0
  -23.9009  -10.4248   21.0435 C   0  0  0  0  0  0
  -24.3561   -9.4142   21.9197 C   0  0  0  0  0  0
  -23.6229   -8.2180   22.0769 C   0  0  0  0  0  0
  -22.4207   -8.0234   21.3570 C   0  0  0  0  0  0
  -21.9851   -9.0200   20.4651 C   0  0  0  0  0  0
  -22.7181  -10.2080   20.3075 C   0  0  0  0  0  0
  -21.6817   -6.0673   22.5296 C   0  0  0  0  0  0
  -21.3982   -6.5583   23.8224 C   0  0  0  0  0  0
  -21.3669   -5.6754   24.9192 C   0  0  0  0  0  0
  -21.6070   -4.3025   24.7261 C   0  0  0  0  0  0
  -21.8822   -3.8100   23.4379 C   0  0  0  0  0  0
  -21.9153   -4.6905   22.3410 C   0  0  0  0  0  0
  -22.7828  -13.5235   21.1811 C   0  0  0  0  0  0
  -22.1622   -4.2091   21.0997 F   0  0  0  0  0  0
  -21.5654   -3.4508   25.7770 F   0  0  0  0  0  0
  -30.0337  -13.1963   20.4503 N   0  0  0  0  0  0
  -26.2975  -12.9195   20.3235 N   0  0  0  0  0  0
  -25.9257  -11.6416   20.5793 N   0  0  0  0  0  0
  -22.0473  -12.8193   22.0325 N   0  0  0  0  0  0
  -25.4351  -15.1748   20.3437 N   0  0  0  0  0  0
  -31.8537  -14.5499   20.1609 O   0  0  0  0  0  0
  -21.6587   -6.8823   21.4263 O   0  0  0  0  0  0
  -22.3544  -14.5577   20.6670 O   0  0  0  0  0  0
  -24.6027  -31.8755   23.2260 C   0  0  0  0  0  0
  -25.8958  -32.4883   23.8471 C   0  0  1  0  0  0
  -27.2062  -27.4799   20.0709 C   0  0  0  0  0  0
  -25.5846  -33.8670   24.2386 N   0  0  0  0  0  0
  -23.3819  -30.5072   21.5669 C   0  0  2  0  0  0
  -24.8190  -28.9877   20.1195 C   0  0  0  0  0  0
  -22.7327  -29.4651   22.5056 C   0  0  0  0  0  0
  -18.0210  -28.1318   22.8511 C   0  0  0  0  0  0
  -24.1469  -36.7346   23.2641 C   0  0  0  0  0  0
  -25.9080  -30.8461   21.3809 C   0  0  0  0  0  0
  -25.9781  -29.4857   20.7279 C   0  0  0  0  0  0
  -27.1715  -28.7315   20.7170 C   0  0  0  0  0  0
  -26.0189  -26.9881   19.4719 C   0  0  0  0  0  0
  -24.8326  -27.7364   19.4899 C   0  0  0  0  0  0
  -23.5848  -29.8582   20.1738 C   0  0  0  0  0  0
  -25.4093  -36.3164   24.0356 C   0  0  1  0  0  0
  -20.5789  -28.3582   23.1416 C   0  0  2  0  0  0
  -20.6694  -26.9356   22.5436 C   0  0  0  0  0  0
  -19.5669  -26.6337   21.5221 C   0  0  0  0  0  0
  -18.1843  -26.7859   22.1647 C   0  0  0  0  0  0
  -19.1436  -28.8778   23.2956 C   0  0  0  0  0  0
  -18.9343  -30.1380   23.8958 C   0  0  0  0  0  0
  -17.6355  -30.6524   24.0591 C   0  0  0  0  0  0
  -25.8999  -34.9518   23.5176 C   0  0  0  0  0  0
  -16.5251  -29.9034   23.6318 C   0  0  0  0  0  0
  -16.7210  -28.6456   23.0305 C   0  0  0  0  0  0
  -26.4422  -31.6642   25.0767 C   0  0  0  0  0  0
  -25.3739  -31.3695   26.1553 C   0  0  0  0  0  0
  -27.0236  -30.3094   24.6106 C   0  0  0  0  0  0
  -27.6004  -32.4371   25.7515 C   0  0  0  0  0  0
  -27.5567  -37.1844   24.8466 C   0  0  0  0  0  0
  -21.4043  -29.3024   22.3876 N   0  0  0  0  0  0
  -26.4277  -37.3844   23.9425 N   0  0  0  0  0  0
  -24.6481  -31.0881   22.1151 N   0  0  0  0  0  0
  -23.4150  -28.8093   23.2960 O   0  0  0  0  0  0
  -28.4060  -26.8048   20.0275 O   0  0  0  0  0  0
  -26.5570  -34.8934   22.4735 O   0  0  0  0  0  0
  -23.5245  -32.1468   23.7686 O   0  0  0  0  0  0
  -28.9365  -17.2873   24.6278 C   0  0  0  0  0  0
  -29.0623  -15.8864   24.5915 C   0  0  0  0  0  0
  -29.2813  -18.0469   23.4963 C   0  0  0  0  0  0
  -29.4881  -15.2392   23.4130 C   0  0  0  0  0  0
  -29.6784  -17.4161   22.2979 C   0  0  0  0  0  0
  -29.7478  -15.9936   22.2392 C   0  0  0  0  0  0
  -30.0648  -18.2647   21.1127 C   0  0  0  0  0  0
  -24.7881  -21.0647   18.0242 C   0  0  0  0  0  0
  -24.8135  -20.0858   19.2084 C   0  0  0  0  0  0
  -26.0297  -21.0529   17.1039 C   0  0  0  0  0  0
  -28.8415  -19.0618   17.7080 C   0  0  0  0  0  0
  -29.8571  -18.3501   18.6352 C   0  0  0  0  0  0
  -25.7754  -18.9023   19.0413 C   0  0  0  0  0  0
  -27.8492  -18.0723   20.0533 C   0  0  0  0  0  0
  -28.0003  -20.0333   18.5577 C   0  0  1  0  0  0
  -27.3766  -21.2435   17.8148 C   0  0  2  0  0  0
  -28.0501  -24.4526   19.4807 C   0  0  0  0  0  0
  -28.5551  -25.8232   19.0100 C   0  0  0  0  0  0
  -27.7237  -23.5629   18.2817 C   0  0  0  0  0  0
  -29.3185  -18.1219   19.9932 N   0  0  0  0  0  0
  -29.9977  -15.4018   20.9654 N   0  0  0  0  0  0
  -27.1355  -19.2640   19.5111 N   0  3  1  0  0  0
  -31.1104  -18.9219   21.1550 O   0  0  0  0  0  0
  -27.3114  -22.2957   18.7706 O   0  0  0  0  0  0
  -31.4547  -12.3339   19.0864 H   0  0  0  0  0  0
  -30.3007  -11.2173   19.7484 H   0  0  0  0  0  0
  -29.7033  -11.7732   17.3901 H   0  0  0  0  0  0
  -29.6760  -13.4735   17.7626 H   0  0  0  0  0  0
  -27.7780  -11.3020   18.7467 H   0  0  0  0  0  0
  -27.3678  -12.6743   17.7590 H   0  0  0  0  0  0
  -27.7287  -14.2251   19.5889 H   0  0  0  0  0  0
  -28.6474  -11.8755   21.3163 H   0  0  0  0  0  0
  -28.4040  -13.5133   21.8265 H   0  0  0  0  0  0
  -25.2723   -9.5586   22.4751 H   0  0  0  0  0  0
  -23.9947   -7.4526   22.7451 H   0  0  0  0  0  0
  -21.0808   -8.8662   19.8918 H   0  0  0  0  0  0
  -22.3631  -10.9598   19.6169 H   0  0  0  0  0  0
  -21.1982   -7.6092   23.9722 H   0  0  0  0  0  0
  -21.1514   -6.0481   25.9102 H   0  0  0  0  0  0
  -22.0613   -2.7568   23.2895 H   0  0  0  0  0  0
  -22.4123  -11.9919   22.4804 H   0  0  0  0  0  0
  -21.1106  -13.1233   22.2594 H   0  0  0  0  0  0
  -26.1798  -15.4485   19.7218 H   0  0  0  0  0  0
  -24.5998  -15.7385   20.2281 H   0  0  0  0  0  0
  -26.7002  -32.5597   23.1206 H   0  0  0  0  0  0
  -25.0010  -33.9857   25.0540 H   0  0  0  0  0  0
  -22.6654  -31.3258   21.4477 H   0  0  0  0  0  0
  -23.3732  -35.9670   23.3330 H   0  0  0  0  0  0
  -24.3551  -36.8927   22.2041 H   0  0  0  0  0  0
  -23.7206  -37.6555   23.6629 H   0  0  0  0  0  0
  -26.0218  -31.6156   20.6171 H   0  0  0  0  0  0
  -26.7941  -30.8871   22.0020 H   0  0  0  0  0  0
  -28.0657  -29.1128   21.1869 H   0  0  0  0  0  0
  -25.9776  -26.0398   18.9588 H   0  0  0  0  0  0
  -23.9428  -27.3540   19.0089 H   0  0  0  0  0  0
  -23.6916  -30.6451   19.4262 H   0  0  0  0  0  0
  -22.7029  -29.2905   19.8718 H   0  0  0  0  0  0
  -25.1265  -36.2045   25.0846 H   0  0  0  0  0  0
  -20.9841  -28.3146   24.1535 H   0  0  0  0  0  0
  -21.6561  -26.7483   22.1195 H   0  0  0  0  0  0
  -20.5637  -26.2134   23.3534 H   0  0  0  0  0  0
  -19.6840  -25.6304   21.1182 H   0  0  0  0  0  0
  -19.6572  -27.3176   20.6769 H   0  0  0  0  0  0
  -17.4083  -26.6557   21.4087 H   0  0  0  0  0  0
  -18.0261  -26.0000   22.9052 H   0  0  0  0  0  0
  -19.7805  -30.7195   24.2380 H   0  0  0  0  0  0
  -17.4921  -31.6176   24.5266 H   0  0  0  0  0  0
  -15.5267  -30.2947   23.7685 H   0  0  0  0  0  0
  -15.8607  -28.0815   22.6954 H   0  0  0  0  0  0
  -24.5897  -30.7054   25.7900 H   0  0  0  0  0  0
  -24.8937  -32.2814   26.5103 H   0  0  0  0  0  0
  -25.8137  -30.8797   27.0252 H   0  0  0  0  0  0
  -26.2745  -29.6915   24.1133 H   0  0  0  0  0  0
  -27.3967  -29.7286   25.4549 H   0  0  0  0  0  0
  -27.8616  -30.4428   23.9269 H   0  0  0  0  0  0
  -27.2609  -33.3645   26.2152 H   0  0  0  0  0  0
  -28.3770  -32.6994   25.0317 H   0  0  0  0  0  0
  -28.0720  -31.8476   26.5387 H   0  0  0  0  0  0
  -28.2625  -38.0109   24.7508 H   0  0  0  0  0  0
  -28.1043  -36.2651   24.6318 H   0  0  0  0  0  0
  -27.2297  -37.1521   25.8874 H   0  0  0  0  0  0
  -20.9157  -29.8934   21.7323 H   0  0  0  0  0  0
  -26.0190  -38.2924   24.1447 H   0  0  0  0  0  0
  -28.5933  -17.7810   25.5270 H   0  0  0  0  0  0
  -28.8205  -15.3095   25.4740 H   0  0  0  0  0  0
  -29.2251  -19.1261   23.5402 H   0  0  0  0  0  0
  -29.5782  -14.1628   23.4326 H   0  0  0  0  0  0
  -24.6395  -22.0692   18.4181 H   0  0  0  0  0  0
  -23.9098  -20.8593   17.4140 H   0  0  0  0  0  0
  -23.8042  -19.7044   19.3754 H   0  0  0  0  0  0
  -25.0617  -20.6232   20.1262 H   0  0  0  0  0  0
  -25.9123  -21.8613   16.3805 H   0  0  0  0  0  0
  -26.0722  -20.1408   16.5044 H   0  0  0  0  0  0
  -28.1900  -18.3402   17.2149 H   0  0  0  0  0  0
  -29.3816  -19.5765   16.9116 H   0  0  0  0  0  0
  -30.7564  -18.9682   18.6869 H   0  0  0  0  0  0
  -30.1642  -17.4018   18.1892 H   0  0  0  0  0  0
  -25.7911  -18.4955   18.0277 H   0  0  0  0  0  0
  -25.3986  -18.0909   19.6682 H   0  0  0  0  0  0
  -27.4655  -17.8660   21.0513 H   0  0  0  0  0  0
  -27.5631  -17.1958   19.4681 H   0  0  0  0  0  0
  -28.7433  -20.5302   19.1880 H   0  0  0  0  0  0
  -28.1033  -21.5054   17.0435 H   0  0  0  0  0  0
  -27.1715  -24.5556   20.1160 H   0  0  0  0  0  0
  -28.8092  -23.9821   20.1061 H   0  0  0  0  0  0
  -28.0530  -26.1401   18.0920 H   0  0  0  0  0  0
  -29.6081  -25.7524   18.7457 H   0  0  0  0  0  0
  -28.6238  -23.4910   17.6681 H   0  0  0  0  0  0
  -26.9392  -24.0059   17.6616 H   0  0  0  0  0  0
  -30.2399  -16.1098   20.2938 H   0  0  0  0  0  0
  -26.9683  -19.8773   20.2972 H   0  0  0  0  0  0
  1 25  1  0  0  0
  1 30  2  0  0  0
  1 91  1  0  0  0
  2  3  1  0  0  0
  2 25  1  0  0  0
  2 95  1  0  0  0
  2 96  1  0  0  0
  3  4  1  0  0  0
  3 97  1  0  0  0
  3 98  1  0  0  0
  4  5  1  0  0  0
  4 99  1  0  0  0
  4100  1  0  0  0
  5  6  1  0  0  0
  5 26  1  0  0  0
  5101  1  0  0  0
  6 25  1  0  0  0
  6102  1  0  0  0
  6103  1  0  0  0
  7  8  2  0  0  0
  7 26  1  0  0  0
  7 29  1  0  0  0
  8  9  1  0  0  0
  8 22  1  0  0  0
  9 10  1  0  0  0
  9 27  2  0  0  0
 10 11  2  0  0  0
 10 15  1  0  0  0
 11 12  1  0  0  0
 11104  1  0  0  0
 12 13  2  0  0  0
 12105  1  0  0  0
 13 14  1  0  0  0
 13 31  1  0  0  0
 14 15  2  0  0  0
 14106  1  0  0  0
 15107  1  0  0  0
 16 17  2  0  0  0
 16 21  1  0  0  0
 16 31  1  0  0  0
 17 18  1  0  0  0
 17108  1  0  0  0
 18 19  2  0  0  0
 18109  1  0  0  0
 19 20  1  0  0  0
 19 24  1  0  0  0
 20 21  2  0  0  0
 20110  1  0  0  0
 21 23  1  0  0  0
 22 28  1  0  0  0
 22 32  2  0  0  0
 26 27  1  0  0  0
 28111  1  0  0  0
 28112  1  0  0  0
 29113  1  0  0  0
 29114  1  0  0  0
 33 34  1  0  0  0
 33 66  1  0  0  0
 33 70  2  0  0  0
 34 36  1  0  0  0
 34 59  1  0  0  0
 34115  1  0  0  0
 35 44  2  0  0  0
 35 45  1  0  0  0
 35 68  1  0  0  0
 36 56  1  0  0  0
 36116  1  0  0  0
 37 39  1  0  0  0
 37 47  1  0  0  0
 37 66  1  0  0  0
 37117  1  0  0  0
 38 43  2  0  0  0
 38 46  1  0  0  0
 38 47  1  0  0  0
 39 64  1  0  0  0
 39 67  2  0  0  0
 40 52  1  0  0  0
 40 53  2  0  0  0
 40 58  1  0  0  0
 41118  1  0  0  0
 41119  1  0  0  0
 41120  1  0  0  0
 41 48  1  0  0  0
 42 43  1  0  0  0
 42 66  1  0  0  0
 42121  1  0  0  0
 42122  1  0  0  0
 43 44  1  0  0  0
 44123  1  0  0  0
 45 46  2  0  0  0
 45124  1  0  0  0
 46125  1  0  0  0
 47126  1  0  0  0
 47127  1  0  0  0
 48 56  1  0  0  0
 48 65  1  0  0  0
 48128  1  0  0  0
 49 50  1  0  0  0
 49 53  1  0  0  0
 49 64  1  0  0  0
 49129  1  0  0  0
 50 51  1  0  0  0
 50130  1  0  0  0
 50131  1  0  0  0
 51 52  1  0  0  0
 51132  1  0  0  0
 51133  1  0  0  0
 52134  1  0  0  0
 52135  1  0  0  0
 53 54  1  0  0  0
 54 55  2  0  0  0
 54136  1  0  0  0
 55 57  1  0  0  0
 55137  1  0  0  0
 56 69  2  0  0  0
 57 58  2  0  0  0
 57138  1  0  0  0
 58139  1  0  0  0
 59 60  1  0  0  0
 59 61  1  0  0  0
 59 62  1  0  0  0
 60140  1  0  0  0
 60141  1  0  0  0
 60142  1  0  0  0
 61143  1  0  0  0
 61144  1  0  0  0
 61145  1  0  0  0
 62146  1  0  0  0
 62147  1  0  0  0
 62148  1  0  0  0
 63 65  1  0  0  0
 63149  1  0  0  0
 63150  1  0  0  0
 63151  1  0  0  0
 64152  1  0  0  0
 65153  1  0  0  0
 68 88  1  0  0  0
 71 72  2  0  0  0
 71 73  1  0  0  0
 71154  1  0  0  0
 72 74  1  0  0  0
 72155  1  0  0  0
 73 75  2  0  0  0
 73156  1  0  0  0
 74 76  2  0  0  0
 74157  1  0  0  0
 75 76  1  0  0  0
 75 77  1  0  0  0
 76 91  1  0  0  0
 77 90  1  0  0  0
 77 93  2  0  0  0
 78 79  1  0  0  0
 78 80  1  0  0  0
 78158  1  0  0  0
 78159  1  0  0  0
 79 83  1  0  0  0
 79160  1  0  0  0
 79161  1  0  0  0
 80 86  1  0  0  0
 80162  1  0  0  0
 80163  1  0  0  0
 81 82  1  0  0  0
 81164  1  0  0  0
 81165  1  0  0  0
 81 85  1  0  0  0
 82 90  1  0  0  0
 82166  1  0  0  0
 82167  1  0  0  0
 83168  1  0  0  0
 83169  1  0  0  0
 83 92  1  0  0  0
 84 90  1  0  0  0
 84 92  1  0  0  0
 84170  1  0  0  0
 84171  1  0  0  0
 85 86  1  0  0  0
 85 92  1  0  0  0
 85172  1  0  0  0
 86 94  1  0  0  0
 86173  1  0  0  0
 87 88  1  0  0  0
 87 89  1  0  0  0
 87174  1  0  0  0
 87175  1  0  0  0
 88176  1  0  0  0
 88177  1  0  0  0
 89 94  1  0  0  0
 89178  1  0  0  0
 89179  1  0  0  0
 91180  1  0  0  0
 92181  1  0  0  0
M  CHG  1  92   1
M  ISO  4   1 100  68 101  88 101  91 100
M  END
> <chiral flag>
0

> <version>
0

> <s_m_source_file>
/data/baiqing/PycharmProjects/Reinvent-master-3.2/result/LINK_invent/BTK/process_docking_weight1_custom_product_contain_oxygen_bond_distance_aromatic_linkinvent_7_9_3/rearranged_h_0004.sdf

> <i_m_source_file_index>
47

> <r_mmod_Potential_Energy-OPLS-2005>
183.822250366211

> <r_mmod_Stretch_Energy-OPLS-2005>
38.6644248962402

> <r_mmod_Bend_Energy-OPLS-2005>
143.452484130859

> <r_mmod_Torsional_Energy-OPLS-2005>
431.903289794922

> <r_mmod_Improper_Torsional_Energy-OPLS-2005>
23.0523872375488

> <r_mmod_Van_der_Waal_Energy-OPLS-2005>
181.569137573242

> <r_mmod_Electrostatic_Energy-OPLS-2005>
-205.847885131836

> <r_mmod_Solvation_Energy-OPLS-2005>
-442.360137939453

> <b_mmod_Minimization_Converged-OPLS-2005>
0

> <r_mmod_RMS_Derivative-OPLS-2005>
6.23420143127441

$$$$
47
                    3D
 Structure written by MMmdl.
191200  0  0  1  0            999 V2000
  -30.7361  -14.3931   20.6639 C   0  0  0  0  0  0
  -30.4254  -12.2916   19.4030 C   0  0  0  0  0  0
  -29.4888  -12.5214   18.2006 C   0  0  0  0  0  0
  -28.0114  -12.3805   18.6145 C   0  0  0  0  0  0
  -27.6693  -13.1981   19.8871 C   0  0  2  0  0  0
  -28.7085  -12.9306   20.9992 C   0  0  0  0  0  0
  -25.2636  -13.8146   20.5713 C   0  0  0  0  0  0
  -24.1870  -13.0440   20.9193 C   0  0  0  0  0  0
  -24.6411  -11.6900   20.8768 C   0  0  0  0  0  0
  -23.9077  -10.4296   21.0429 C   0  0  0  0  0  0
  -24.3627   -9.4212   21.9198 C   0  0  0  0  0  0
  -23.6308   -8.2245   22.0752 C   0  0  0  0  0  0
  -22.4290   -8.0288   21.3539 C   0  0  0  0  0  0
  -21.9928   -9.0270   20.4647 C   0  0  0  0  0  0
  -22.7253  -10.2152   20.3075 C   0  0  0  0  0  0
  -21.6853   -6.0756   22.5287 C   0  0  0  0  0  0
  -21.4007   -6.5659   23.8218 C   0  0  0  0  0  0
  -21.3663   -5.6808   24.9180 C   0  0  0  0  0  0
  -21.6047   -4.3069   24.7232 C   0  0  0  0  0  0
  -21.8807   -3.8167   23.4347 C   0  0  0  0  0  0
  -21.9190   -4.6985   22.3411 C   0  0  0  0  0  0
  -22.7893  -13.5241   21.1862 C   0  0  0  0  0  0
  -22.1658   -4.2172   21.0988 F   0  0  0  0  0  0
  -21.5635   -3.4548   25.7742 F   0  0  0  0  0  0
  -30.0515  -13.2368   20.4643 N   0  0  0  0  0  0
  -26.3071  -12.9301   20.3434 N   0  0  0  0  0  0
  -25.9336  -11.6465   20.5806 N   0  0  0  0  0  0
  -22.0533  -12.8239   22.0412 N   0  0  0  0  0  0
  -25.4380  -15.1863   20.4108 N   0  0  0  0  0  0
  -31.7834  -14.6816   20.0768 O   0  0  0  0  0  0
  -21.6633   -6.8904   21.4247 O   0  0  0  0  0  0
  -22.3598  -14.5573   20.6745 O   0  0  0  0  0  0
  -24.6115  -31.8691   23.2162 C   0  0  0  0  0  0
  -25.9017  -32.4824   23.8457 C   0  0  1  0  0  0
  -27.2469  -27.4870   20.0662 C   0  0  0  0  0  0
  -25.5890  -33.8630   24.2369 N   0  0  0  0  0  0
  -23.3977  -30.4937   21.5577 C   0  0  2  0  0  0
  -24.8432  -28.9545   20.1343 C   0  0  0  0  0  0
  -22.7408  -29.4658   22.5055 C   0  0  0  0  0  0
  -18.0287  -28.1378   22.8507 C   0  0  0  0  0  0
  -24.1481  -36.7293   23.2645 C   0  0  0  0  0  0
  -25.9240  -30.8469   21.3638 C   0  0  0  0  0  0
  -26.0032  -29.4819   20.7166 C   0  0  0  0  0  0
  -27.2090  -28.7519   20.6875 C   0  0  0  0  0  0
  -26.0706  -26.9545   19.4994 C   0  0  0  0  0  0
  -24.8640  -27.6794   19.5413 C   0  0  0  0  0  0
  -23.6049  -29.8197   20.1771 C   0  0  0  0  0  0
  -25.4101  -36.3119   24.0357 C   0  0  1  0  0  0
  -20.5874  -28.3671   23.1371 C   0  0  2  0  0  0
  -20.6807  -26.9416   22.5473 C   0  0  0  0  0  0
  -19.5802  -26.6397   21.5262 C   0  0  0  0  0  0
  -18.1969  -26.7923   22.1647 C   0  0  0  0  0  0
  -19.1527  -28.8839   23.2930 C   0  0  0  0  0  0
  -18.9470  -30.1452   23.8936 C   0  0  0  0  0  0
  -17.6474  -30.6610   24.0565 C   0  0  0  0  0  0
  -25.9030  -34.9483   23.5158 C   0  0  0  0  0  0
  -16.5366  -29.9112   23.6323 C   0  0  0  0  0  0
  -16.7272  -28.6519   23.0355 C   0  0  0  0  0  0
  -26.4461  -31.6569   25.0751 C   0  0  0  0  0  0
  -25.3714  -31.3686   26.1493 C   0  0  0  0  0  0
  -27.0301  -30.3014   24.6096 C   0  0  0  0  0  0
  -27.6071  -32.4256   25.7480 C   0  0  0  0  0  0
  -27.5585  -37.1803   24.8480 C   0  0  0  0  0  0
  -21.4142  -29.3037   22.3785 N   0  0  0  0  0  0
  -26.4293  -37.3798   23.9426 N   0  0  0  0  0  0
  -24.6630  -31.0814   22.1054 N   0  0  0  0  0  0
  -23.4199  -28.8148   23.3056 O   0  0  0  0  0  0
  -28.4348  -26.8139   19.9379 O   0  0  0  0  0  0
  -26.5586  -34.8922   22.4710 O   0  0  0  0  0  0
  -23.5307  -32.1447   23.7543 O   0  0  0  0  0  0
  -28.6612  -21.4875   25.2572 C   0  0  0  0  0  0
  -29.0235  -20.3494   24.9869 C   0  0  0  0  0  0
  -28.7650  -25.2131   25.8184 C   0  0  0  0  0  0
  -29.1273  -23.9134   25.4163 C   0  0  0  0  0  0
  -27.5396  -25.4311   26.4762 C   0  0  0  0  0  0
  -27.0223  -23.0507   26.2993 C   0  0  0  0  0  0
  -28.2608  -22.8283   25.6549 C   0  0  0  0  0  0
  -26.6582  -24.3540   26.7137 C   0  0  0  0  0  0
  -24.0643  -22.9794   22.4722 C   0  0  0  0  0  0
  -25.5927  -22.8407   22.5633 C   0  0  0  0  0  0
  -26.0911  -25.2076   23.1571 C   0  0  0  0  0  0
  -23.4147  -23.3999   23.8033 C   0  0  0  0  0  0
  -24.6541  -25.5375   23.6002 C   0  0  0  0  0  0
  -29.4342  -18.9510   24.7693 C   0  0  0  0  0  0
  -25.3574  -24.5992   27.4670 C   0  0  0  0  0  0
  -29.9186  -18.6038   23.3461 C   0  0  0  0  0  0
  -24.3910  -25.5849   26.7730 C   0  0  0  0  0  0
  -30.0057  -17.0784   23.1436 C   0  0  0  0  0  0
  -28.2411  -24.5474   20.7750 C   0  0  0  0  0  0
  -27.6944  -23.8398   22.0200 C   0  0  0  0  0  0
  -30.4845  -16.6442   21.7451 C   0  0  0  0  0  0
  -23.4539  -24.9546   25.7188 C   0  0  0  0  0  0
  -28.7712  -25.9705   21.0258 C   0  0  0  0  0  0
  -26.2579  -24.0993   22.2005 N   0  0  0  0  0  0
  -30.1501  -15.2405   21.5182 N   0  0  0  0  0  0
  -24.1634  -24.4719   24.5078 N   0  3  1  0  0  0
  -31.4661  -12.4031   19.0968 H   0  0  0  0  0  0
  -30.3313  -11.2671   19.7702 H   0  0  0  0  0  0
  -29.7223  -11.8168   17.4019 H   0  0  0  0  0  0
  -29.6588  -13.5161   17.7886 H   0  0  0  0  0  0
  -27.8164  -11.3229   18.7941 H   0  0  0  0  0  0
  -27.3566  -12.6710   17.7926 H   0  0  0  0  0  0
  -27.7295  -14.2524   19.6191 H   0  0  0  0  0  0
  -28.6755  -11.8847   21.3091 H   0  0  0  0  0  0
  -28.4550  -13.4925   21.8980 H   0  0  0  0  0  0
  -25.2760   -9.5694   22.4777 H   0  0  0  0  0  0
  -24.0013   -7.4639   22.7471 H   0  0  0  0  0  0
  -21.0854   -8.8811   19.8956 H   0  0  0  0  0  0
  -22.3714  -10.9710   19.6208 H   0  0  0  0  0  0
  -21.1984   -7.6164   23.9738 H   0  0  0  0  0  0
  -21.1503   -6.0533   25.9090 H   0  0  0  0  0  0
  -22.0582   -2.7630   23.2842 H   0  0  0  0  0  0
  -22.4122  -11.9861   22.4760 H   0  0  0  0  0  0
  -21.1176  -13.1313   22.2655 H   0  0  0  0  0  0
  -24.6747  -15.8454   20.5202 H   0  0  0  0  0  0
  -26.2988  -15.6249   20.1106 H   0  0  0  0  0  0
  -26.7098  -32.5550   23.1252 H   0  0  0  0  0  0
  -25.0084  -33.9808   25.0546 H   0  0  0  0  0  0
  -22.6832  -31.3075   21.4189 H   0  0  0  0  0  0
  -23.3752  -35.9616   23.3330 H   0  0  0  0  0  0
  -24.3579  -36.8847   22.2052 H   0  0  0  0  0  0
  -23.7238  -37.6514   23.6623 H   0  0  0  0  0  0
  -26.0354  -31.6139   20.5965 H   0  0  0  0  0  0
  -26.8146  -30.9006   21.9786 H   0  0  0  0  0  0
  -28.1128  -29.1711   21.1076 H   0  0  0  0  0  0
  -26.0853  -25.9906   19.0102 H   0  0  0  0  0  0
  -23.9678  -27.2550   19.1085 H   0  0  0  0  0  0
  -23.7092  -30.5903   19.4128 H   0  0  0  0  0  0
  -22.7302  -29.2344   19.8890 H   0  0  0  0  0  0
  -25.1276  -36.2007   25.0853 H   0  0  0  0  0  0
  -20.9939  -28.3225   24.1506 H   0  0  0  0  0  0
  -20.5722  -26.2279   23.3645 H   0  0  0  0  0  0
  -21.6690  -26.7497   22.1275 H   0  0  0  0  0  0
  -19.6970  -25.6316   21.1292 H   0  0  0  0  0  0
  -19.6773  -27.3202   20.6794 H   0  0  0  0  0  0
  -17.4268  -26.6668   21.4026 H   0  0  0  0  0  0
  -18.0332  -26.0076   22.9051 H   0  0  0  0  0  0
  -19.7950  -30.7241   24.2347 H   0  0  0  0  0  0
  -17.5064  -31.6312   24.5138 H   0  0  0  0  0  0
  -15.5380  -30.3042   23.7656 H   0  0  0  0  0  0
  -15.8667  -28.0851   22.7055 H   0  0  0  0  0  0
  -24.5860  -30.7058   25.7838 H   0  0  0  0  0  0
  -24.8939  -32.2854   26.4956 H   0  0  0  0  0  0
  -25.8032  -30.8849   27.0257 H   0  0  0  0  0  0
  -26.2867  -29.6783   24.1100 H   0  0  0  0  0  0
  -27.4072  -29.7241   25.4556 H   0  0  0  0  0  0
  -27.8703  -30.4388   23.9274 H   0  0  0  0  0  0
  -27.2719  -33.3532   26.2131 H   0  0  0  0  0  0
  -28.3827  -32.6814   25.0247 H   0  0  0  0  0  0
  -28.0796  -31.8323   26.5321 H   0  0  0  0  0  0
  -28.2638  -38.0067   24.7478 H   0  0  0  0  0  0
  -28.1055  -36.2604   24.6357 H   0  0  0  0  0  0
  -27.2300  -37.1471   25.8883 H   0  0  0  0  0  0
  -20.9295  -29.8751   21.7008 H   0  0  0  0  0  0
  -26.0197  -38.2899   24.1368 H   0  0  0  0  0  0
  -29.4311  -26.0429   25.6294 H   0  0  0  0  0  0
  -30.0763  -23.7512   24.9238 H   0  0  0  0  0  0
  -27.2832  -26.4323   26.7971 H   0  0  0  0  0  0
  -26.3650  -22.2143   26.4990 H   0  0  0  0  0  0
  -23.6330  -22.0221   22.1770 H   0  0  0  0  0  0
  -23.7882  -23.6619   21.6657 H   0  0  0  0  0  0
  -25.8790  -22.0698   21.8455 H   0  0  0  0  0  0
  -25.9165  -22.4730   23.5393 H   0  0  0  0  0  0
  -26.6922  -25.0190   24.0424 H   0  0  0  0  0  0
  -26.4932  -26.1137   22.7082 H   0  0  0  0  0  0
  -23.3574  -22.5342   24.4645 H   0  0  0  0  0  0
  -22.3869  -23.7187   23.6183 H   0  0  0  0  0  0
  -23.9843  -25.7158   22.7575 H   0  0  0  0  0  0
  -24.6931  -26.4873   24.1349 H   0  0  0  0  0  0
  -28.5730  -18.3363   25.0293 H   0  0  0  0  0  0
  -30.2116  -18.7190   25.4986 H   0  0  0  0  0  0
  -25.6324  -25.0071   28.4418 H   0  0  0  0  0  0
  -24.8531  -23.6567   27.6823 H   0  0  0  0  0  0
  -30.8882  -19.0682   23.1553 H   0  0  0  0  0  0
  -29.2278  -19.0172   22.6105 H   0  0  0  0  0  0
  -24.9182  -26.4584   26.3895 H   0  0  0  0  0  0
  -23.7386  -25.9822   27.5507 H   0  0  0  0  0  0
  -29.0150  -16.6599   23.3292 H   0  0  0  0  0  0
  -30.6633  -16.6438   23.8970 H   0  0  0  0  0  0
  -27.5000  -24.5271   19.9788 H   0  0  0  0  0  0
  -29.0710  -23.9534   20.3893 H   0  0  0  0  0  0
  -28.2833  -24.0951   22.9004 H   0  0  0  0  0  0
  -27.8701  -22.7737   21.8714 H   0  0  0  0  0  0
  -29.9840  -17.2328   20.9738 H   0  0  0  0  0  0
  -31.5571  -16.8196   21.6329 H   0  0  0  0  0  0
  -22.6783  -25.6656   25.4282 H   0  0  0  0  0  0
  -22.9315  -24.1186   26.1885 H   0  0  0  0  0  0
  -29.8584  -25.9416   21.1011 H   0  0  0  0  0  0
  -28.4329  -26.3897   21.9717 H   0  0  0  0  0  0
  -29.3063  -14.8985   21.9532 H   0  0  0  0  0  0
  -25.0055  -24.0300   24.8470 H   0  0  0  0  0  0
  1 25  1  0  0  0
  1 30  2  0  0  0
  1 95  1  0  0  0
  2  3  1  0  0  0
  2 25  1  0  0  0
  2 97  1  0  0  0
  2 98  1  0  0  0
  3  4  1  0  0  0
  3 99  1  0  0  0
  3100  1  0  0  0
  4  5  1  0  0  0
  4101  1  0  0  0
  4102  1  0  0  0
  5  6  1  0  0  0
  5 26  1  0  0  0
  5103  1  0  0  0
  6 25  1  0  0  0
  6104  1  0  0  0
  6105  1  0  0  0
  7  8  2  0  0  0
  7 26  1  0  0  0
  7 29  1  0  0  0
  8  9  1  0  0  0
  8 22  1  0  0  0
  9 10  1  0  0  0
  9 27  2  0  0  0
 10 11  2  0  0  0
 10 15  1  0  0  0
 11 12  1  0  0  0
 11106  1  0  0  0
 12 13  2  0  0  0
 12107  1  0  0  0
 13 14  1  0  0  0
 13 31  1  0  0  0
 14 15  2  0  0  0
 14108  1  0  0  0
 15109  1  0  0  0
 16 17  2  0  0  0
 16 21  1  0  0  0
 16 31  1  0  0  0
 17 18  1  0  0  0
 17110  1  0  0  0
 18 19  2  0  0  0
 18111  1  0  0  0
 19 20  1  0  0  0
 19 24  1  0  0  0
 20 21  2  0  0  0
 20112  1  0  0  0
 21 23  1  0  0  0
 22 28  1  0  0  0
 22 32  2  0  0  0
 26 27  1  0  0  0
 28113  1  0  0  0
 28114  1  0  0  0
 29115  1  0  0  0
 29116  1  0  0  0
 33 34  1  0  0  0
 33 66  1  0  0  0
 33 70  2  0  0  0
 34 36  1  0  0  0
 34 59  1  0  0  0
 34117  1  0  0  0
 35 44  2  0  0  0
 35 45  1  0  0  0
 35 68  1  0  0  0
 36 56  1  0  0  0
 36118  1  0  0  0
 37 39  1  0  0  0
 37 47  1  0  0  0
 37 66  1  0  0  0
 37119  1  0  0  0
 38 43  2  0  0  0
 38 46  1  0  0  0
 38 47  1  0  0  0
 39 64  1  0  0  0
 39 67  2  0  0  0
 40 52  1  0  0  0
 40 53  2  0  0  0
 40 58  1  0  0  0
 41120  1  0  0  0
 41121  1  0  0  0
 41122  1  0  0  0
 41 48  1  0  0  0
 42 43  1  0  0  0
 42 66  1  0  0  0
 42123  1  0  0  0
 42124  1  0  0  0
 43 44  1  0  0  0
 44125  1  0  0  0
 45 46  2  0  0  0
 45126  1  0  0  0
 46127  1  0  0  0
 47128  1  0  0  0
 47129  1  0  0  0
 48 56  1  0  0  0
 48 65  1  0  0  0
 48130  1  0  0  0
 49 50  1  0  0  0
 49 53  1  0  0  0
 49 64  1  0  0  0
 49131  1  0  0  0
 50 51  1  0  0  0
 50132  1  0  0  0
 50133  1  0  0  0
 51 52  1  0  0  0
 51134  1  0  0  0
 51135  1  0  0  0
 52136  1  0  0  0
 52137  1  0  0  0
 53 54  1  0  0  0
 54 55  2  0  0  0
 54138  1  0  0  0
 55 57  1  0  0  0
 55139  1  0  0  0
 56 69  2  0  0  0
 57 58  2  0  0  0
 57140  1  0  0  0
 58141  1  0  0  0
 59 60  1  0  0  0
 59 61  1  0  0  0
 59 62  1  0  0  0
 60142  1  0  0  0
 60143  1  0  0  0
 60144  1  0  0  0
 61145  1  0  0  0
 61146  1  0  0  0
 61147  1  0  0  0
 62148  1  0  0  0
 62149  1  0  0  0
 62150  1  0  0  0
 63 65  1  0  0  0
 63151  1  0  0  0
 63152  1  0  0  0
 63153  1  0  0  0
 64154  1  0  0  0
 65155  1  0  0  0
 68 93  1  0  0  0
 71 72  3  0  0  0
 71 77  1  0  0  0
 72 84  1  0  0  0
 73 74  2  0  0  0
 73 75  1  0  0  0
 73156  1  0  0  0
 74 77  1  0  0  0
 74157  1  0  0  0
 75 78  2  0  0  0
 75158  1  0  0  0
 76 77  2  0  0  0
 76 78  1  0  0  0
 76159  1  0  0  0
 78 85  1  0  0  0
 79 80  1  0  0  0
 79 82  1  0  0  0
 79160  1  0  0  0
 79161  1  0  0  0
 80 94  1  0  0  0
 80162  1  0  0  0
 80163  1  0  0  0
 81 83  1  0  0  0
 81 94  1  0  0  0
 81164  1  0  0  0
 81165  1  0  0  0
 82 96  1  0  0  0
 82166  1  0  0  0
 82167  1  0  0  0
 83 96  1  0  0  0
 83168  1  0  0  0
 83169  1  0  0  0
 84 86  1  0  0  0
 84170  1  0  0  0
 84171  1  0  0  0
 85 87  1  0  0  0
 85172  1  0  0  0
 85173  1  0  0  0
 86 88  1  0  0  0
 86174  1  0  0  0
 86175  1  0  0  0
 87 92  1  0  0  0
 87176  1  0  0  0
 87177  1  0  0  0
 88 91  1  0  0  0
 88178  1  0  0  0
 88179  1  0  0  0
 89 90  1  0  0  0
 89 93  1  0  0  0
 89180  1  0  0  0
 89181  1  0  0  0
 90 94  1  0  0  0
 90182  1  0  0  0
 90183  1  0  0  0
 91 95  1  0  0  0
 91184  1  0  0  0
 91185  1  0  0  0
 92186  1  0  0  0
 92187  1  0  0  0
 92 96  1  0  0  0
 93188  1  0  0  0
 93189  1  0  0  0
 95190  1  0  0  0
 96191  1  0  0  0
M  CHG  1  96   1
M  ISO  4   1 100  68 101  93 101  95 100
M  END
> <chiral flag>
0

> <version>
0

> <s_m_source_file>
/data/baiqing/PycharmProjects/Reinvent-master-3.2/result/LINK_invent/BTK/process_docking_weight1_custom_product_contain_oxygen_bond_distance_aromatic_linkinvent_7_9_3/rearranged_h_0004.sdf

> <i_m_source_file_index>
48

> <r_mmod_Potential_Energy-OPLS-2005>
-94.1560745239258

> <r_mmod_Stretch_Energy-OPLS-2005>
35.4710006713867

> <r_mmod_Bend_Energy-OPLS-2005>
112.912315368652

> <r_mmod_Torsional_Energy-OPLS-2005>
296.568084716797

> <r_mmod_Improper_Torsional_Energy-OPLS-2005>
2.52787446975708

> <r_mmod_Van_der_Waal_Energy-OPLS-2005>
124.488067626953

> <r_mmod_Electrostatic_Energy-OPLS-2005>
-275.077270507812

> <r_mmod_Solvation_Energy-OPLS-2005>
-399.072052001953

> <b_mmod_Minimization_Converged-OPLS-2005>
0

> <r_mmod_RMS_Derivative-OPLS-2005>
3.29431748390198

$$$$
48
                    3D
 Structure written by MMmdl.
159167  0  0  1  0            999 V2000
  -30.7307  -14.4645   20.6637 C   0  0  0  0  0  0
  -30.4275  -12.3220   19.4502 C   0  0  0  0  0  0
  -29.5082  -12.5096   18.2255 C   0  0  0  0  0  0
  -28.0278  -12.3571   18.6343 C   0  0  0  0  0  0
  -27.6610  -13.2038   19.8840 C   0  0  2  0  0  0
  -28.7001  -12.9873   21.0109 C   0  0  0  0  0  0
  -25.2526  -13.8117   20.5677 C   0  0  0  0  0  0
  -24.1804  -13.0408   20.9165 C   0  0  0  0  0  0
  -24.6359  -11.6860   20.8712 C   0  0  0  0  0  0
  -23.9030  -10.4263   21.0378 C   0  0  0  0  0  0
  -24.3575   -9.4183   21.9177 C   0  0  0  0  0  0
  -23.6249   -8.2224   22.0751 C   0  0  0  0  0  0
  -22.4239   -8.0258   21.3535 C   0  0  0  0  0  0
  -21.9873   -9.0238   20.4651 C   0  0  0  0  0  0
  -22.7194  -10.2105   20.3061 C   0  0  0  0  0  0
  -21.6830   -6.0700   22.5273 C   0  0  0  0  0  0
  -21.4007   -6.5612   23.8197 C   0  0  0  0  0  0
  -21.3682   -5.6777   24.9178 C   0  0  0  0  0  0
  -21.6058   -4.3047   24.7235 C   0  0  0  0  0  0
  -21.8818   -3.8122   23.4362 C   0  0  0  0  0  0
  -21.9184   -4.6930   22.3402 C   0  0  0  0  0  0
  -22.7842  -13.5189   21.1834 C   0  0  0  0  0  0
  -22.1631   -4.2105   21.0983 F   0  0  0  0  0  0
  -21.5649   -3.4542   25.7752 F   0  0  0  0  0  0
  -30.0306  -13.3086   20.4713 N   0  0  0  0  0  0
  -26.3001  -12.9309   20.3413 N   0  0  0  0  0  0
  -25.9293  -11.6466   20.5790 N   0  0  0  0  0  0
  -22.0474  -12.8241   22.0424 N   0  0  0  0  0  0
  -25.4164  -15.1849   20.4013 N   0  0  0  0  0  0
  -31.8170  -14.6760   20.1228 O   0  0  0  0  0  0
  -21.6603   -6.8862   21.4242 O   0  0  0  0  0  0
  -22.3552  -14.5524   20.6666 O   0  0  0  0  0  0
  -24.6117  -31.8711   23.2082 C   0  0  0  0  0  0
  -25.9019  -32.4833   23.8361 C   0  0  1  0  0  0
  -27.2310  -27.4477   20.1318 C   0  0  0  0  0  0
  -25.5889  -33.8619   24.2325 N   0  0  0  0  0  0
  -23.4016  -30.4908   21.5462 C   0  0  2  0  0  0
  -24.8503  -28.9596   20.1103 C   0  0  0  0  0  0
  -22.7433  -29.4658   22.4983 C   0  0  0  0  0  0
  -18.0222  -28.1378   22.8450 C   0  0  0  0  0  0
  -24.1487  -36.7339   23.2648 C   0  0  0  0  0  0
  -25.9236  -30.8462   21.3521 C   0  0  0  0  0  0
  -26.0040  -29.4756   20.7134 C   0  0  0  0  0  0
  -27.1988  -28.7272   20.7263 C   0  0  0  0  0  0
  -26.0749  -26.9436   19.5113 C   0  0  0  0  0  0
  -24.8812  -27.6921   19.4984 C   0  0  0  0  0  0
  -23.6119  -29.8278   20.1575 C   0  0  0  0  0  0
  -25.4082  -36.3131   24.0390 C   0  0  1  0  0  0
  -20.5824  -28.3652   23.1296 C   0  0  2  0  0  0
  -20.6741  -26.9389   22.5411 C   0  0  0  0  0  0
  -19.5712  -26.6389   21.5209 C   0  0  0  0  0  0
  -18.1871  -26.7909   22.1591 C   0  0  0  0  0  0
  -19.1485  -28.8801   23.2874 C   0  0  0  0  0  0
  -18.9448  -30.1396   23.8886 C   0  0  0  0  0  0
  -17.6470  -30.6576   24.0530 C   0  0  0  0  0  0
  -25.9023  -34.9502   23.5164 C   0  0  0  0  0  0
  -16.5339  -29.9098   23.6327 C   0  0  0  0  0  0
  -16.7222  -28.6527   23.0321 C   0  0  0  0  0  0
  -26.4420  -31.6584   25.0691 C   0  0  0  0  0  0
  -25.3730  -31.3694   26.1498 C   0  0  0  0  0  0
  -27.0222  -30.3023   24.6030 C   0  0  0  0  0  0
  -27.5988  -32.4282   25.7453 C   0  0  0  0  0  0
  -27.5584  -37.1794   24.8473 C   0  0  0  0  0  0
  -21.4159  -29.3048   22.3769 N   0  0  0  0  0  0
  -26.4274  -37.3816   23.9465 N   0  0  0  0  0  0
  -24.6630  -31.0881   22.0921 N   0  0  0  0  0  0
  -23.4227  -28.8212   23.3021 O   0  0  0  0  0  0
  -28.3708  -26.6854   20.1159 O   0  0  0  0  0  0
  -26.5596  -34.8978   22.4734 O   0  0  0  0  0  0
  -23.5321  -32.1392   23.7520 O   0  0  0  0  0  0
  -28.1428  -17.7567   23.0842 C   0  0  0  0  0  0
  -29.9217  -18.5934   21.6466 C   0  0  0  0  0  0
  -28.0042  -19.0406   23.6576 C   0  0  0  0  0  0
  -29.8022  -19.8682   22.2420 C   0  0  0  0  0  0
  -29.0698  -17.5372   22.0376 C   0  0  0  0  0  0
  -28.8092  -20.1160   23.2171 C   0  0  0  0  0  0
  -29.0812  -16.2032   21.2868 C   0  0  0  0  0  0
  -28.5997  -21.5365   23.7480 C   0  0  0  0  0  0
  -27.9173  -24.6652   21.5162 C   0  0  0  0  0  0
  -28.5043  -23.8064   22.6699 C   0  0  0  0  0  0
  -28.6694  -26.0095   21.3457 C   0  0  0  0  0  0
  -30.2540  -15.3612   21.5490 N   0  0  0  0  0  0
  -28.0387  -22.3951   22.6764 N   0  3  0  0  0  0
  -31.4753  -12.4183   19.1623 H   0  0  0  0  0  0
  -30.3358  -11.3131   19.8599 H   0  0  0  0  0  0
  -29.7618  -11.7729   17.4613 H   0  0  0  0  0  0
  -29.6801  -13.4963   17.7831 H   0  0  0  0  0  0
  -27.8539  -11.3024   18.8539 H   0  0  0  0  0  0
  -27.3758  -12.6086   17.7955 H   0  0  0  0  0  0
  -27.7020  -14.2473   19.5736 H   0  0  0  0  0  0
  -28.6841  -11.9515   21.3481 H   0  0  0  0  0  0
  -28.4558  -13.5644   21.9014 H   0  0  0  0  0  0
  -25.2715   -9.5654   22.4746 H   0  0  0  0  0  0
  -23.9954   -7.4629   22.7499 H   0  0  0  0  0  0
  -21.0793   -8.8793   19.8953 H   0  0  0  0  0  0
  -22.3688  -10.9652   19.6172 H   0  0  0  0  0  0
  -21.1974   -7.6122   23.9689 H   0  0  0  0  0  0
  -21.1509   -6.0513   25.9070 H   0  0  0  0  0  0
  -22.0571   -2.7577   23.2888 H   0  0  0  0  0  0
  -22.4042  -11.9899   22.4855 H   0  0  0  0  0  0
  -21.1086  -13.1293   22.2572 H   0  0  0  0  0  0
  -24.6280  -15.8189   20.4776 H   0  0  0  0  0  0
  -26.2486  -15.6283   20.0337 H   0  0  0  0  0  0
  -26.7125  -32.5568   23.1151 H   0  0  0  0  0  0
  -24.9998  -33.9682   25.0441 H   0  0  0  0  0  0
  -22.6872  -31.3033   21.4051 H   0  0  0  0  0  0
  -23.3748  -35.9667   23.3279 H   0  0  0  0  0  0
  -24.3619  -36.8963   22.2070 H   0  0  0  0  0  0
  -23.7222  -37.6544   23.6634 H   0  0  0  0  0  0
  -26.0404  -31.6089   20.5786 H   0  0  0  0  0  0
  -26.8089  -30.9019   21.9746 H   0  0  0  0  0  0
  -28.0881  -29.1296   21.1872 H   0  0  0  0  0  0
  -26.1114  -25.9665   19.0497 H   0  0  0  0  0  0
  -24.0033  -27.2875   19.0121 H   0  0  0  0  0  0
  -23.7198  -30.6045   19.3966 H   0  0  0  0  0  0
  -22.7313  -29.2581   19.8605 H   0  0  0  0  0  0
  -25.1227  -36.2011   25.0882 H   0  0  0  0  0  0
  -20.9830  -28.3201   24.1443 H   0  0  0  0  0  0
  -20.5623  -26.2267   23.3604 H   0  0  0  0  0  0
  -21.6617  -26.7449   22.1202 H   0  0  0  0  0  0
  -19.6931  -25.6337   21.1172 H   0  0  0  0  0  0
  -19.6648  -27.3227   20.6769 H   0  0  0  0  0  0
  -17.4167  -26.6588   21.3991 H   0  0  0  0  0  0
  -18.0268  -26.0056   22.8983 H   0  0  0  0  0  0
  -19.7948  -30.7164   24.2296 H   0  0  0  0  0  0
  -17.5061  -31.6242   24.5144 H   0  0  0  0  0  0
  -15.5344  -30.3006   23.7716 H   0  0  0  0  0  0
  -15.8605  -28.0886   22.7039 H   0  0  0  0  0  0
  -24.5894  -30.7005   25.7932 H   0  0  0  0  0  0
  -24.8900  -32.2828   26.4963 H   0  0  0  0  0  0
  -25.8150  -30.8902   27.0251 H   0  0  0  0  0  0
  -26.2736  -29.6815   24.1078 H   0  0  0  0  0  0
  -27.3977  -29.7229   25.4474 H   0  0  0  0  0  0
  -27.8592  -30.4322   23.9168 H   0  0  0  0  0  0
  -27.2591  -33.3568   26.2052 H   0  0  0  0  0  0
  -28.3777  -32.6866   25.0279 H   0  0  0  0  0  0
  -28.0677  -31.8404   26.5348 H   0  0  0  0  0  0
  -28.2588  -38.0111   24.7571 H   0  0  0  0  0  0
  -28.1082  -36.2634   24.6189 H   0  0  0  0  0  0
  -27.2334  -37.1385   25.8890 H   0  0  0  0  0  0
  -20.9345  -29.8848   21.7040 H   0  0  0  0  0  0
  -26.0185  -38.2919   24.1418 H   0  0  0  0  0  0
  -27.5018  -16.9526   23.4261 H   0  0  0  0  0  0
  -30.6518  -18.4454   20.8619 H   0  0  0  0  0  0
  -27.2589  -19.1995   24.4264 H   0  0  0  0  0  0
  -30.4570  -20.6660   21.9156 H   0  0  0  0  0  0
  -29.0148  -16.4281   20.2199 H   0  0  0  0  0  0
  -28.1613  -15.6744   21.5300 H   0  0  0  0  0  0
  -29.5584  -21.9192   24.1062 H   0  0  0  0  0  0
  -27.9274  -21.5443   24.6110 H   0  0  0  0  0  0
  -26.8552  -24.8541   21.6878 H   0  0  0  0  0  0
  -27.9805  -24.1048   20.5820 H   0  0  0  0  0  0
  -28.3059  -24.2766   23.6352 H   0  0  0  0  0  0
  -29.5880  -23.7755   22.5602 H   0  0  0  0  0  0
  -29.7393  -25.8020   21.3286 H   0  0  0  0  0  0
  -28.5041  -26.6538   22.2125 H   0  0  0  0  0  0
  -30.9989  -15.9293   21.9242 H   0  0  0  0  0  0
  -27.0338  -22.3414   22.7161 H   0  0  0  0  0  0
  -28.3240  -21.9712   21.8106 H   0  0  0  0  0  0
  1 25  1  0  0  0
  1 30  2  0  0  0
  1 82  1  0  0  0
  2  3  1  0  0  0
  2 25  1  0  0  0
  2 84  1  0  0  0
  2 85  1  0  0  0
  3  4  1  0  0  0
  3 86  1  0  0  0
  3 87  1  0  0  0
  4  5  1  0  0  0
  4 88  1  0  0  0
  4 89  1  0  0  0
  5  6  1  0  0  0
  5 26  1  0  0  0
  5 90  1  0  0  0
  6 25  1  0  0  0
  6 91  1  0  0  0
  6 92  1  0  0  0
  7  8  2  0  0  0
  7 26  1  0  0  0
  7 29  1  0  0  0
  8  9  1  0  0  0
  8 22  1  0  0  0
  9 10  1  0  0  0
  9 27  2  0  0  0
 10 11  2  0  0  0
 10 15  1  0  0  0
 11 12  1  0  0  0
 11 93  1  0  0  0
 12 13  2  0  0  0
 12 94  1  0  0  0
 13 14  1  0  0  0
 13 31  1  0  0  0
 14 15  2  0  0  0
 14 95  1  0  0  0
 15 96  1  0  0  0
 16 17  2  0  0  0
 16 21  1  0  0  0
 16 31  1  0  0  0
 17 18  1  0  0  0
 17 97  1  0  0  0
 18 19  2  0  0  0
 18 98  1  0  0  0
 19 20  1  0  0  0
 19 24  1  0  0  0
 20 21  2  0  0  0
 20 99  1  0  0  0
 21 23  1  0  0  0
 22 28  1  0  0  0
 22 32  2  0  0  0
 26 27  1  0  0  0
 28100  1  0  0  0
 28101  1  0  0  0
 29102  1  0  0  0
 29103  1  0  0  0
 33 34  1  0  0  0
 33 66  1  0  0  0
 33 70  2  0  0  0
 34 36  1  0  0  0
 34 59  1  0  0  0
 34104  1  0  0  0
 35 44  2  0  0  0
 35 45  1  0  0  0
 35 68  1  0  0  0
 36 56  1  0  0  0
 36105  1  0  0  0
 37 39  1  0  0  0
 37 47  1  0  0  0
 37 66  1  0  0  0
 37106  1  0  0  0
 38 43  2  0  0  0
 38 46  1  0  0  0
 38 47  1  0  0  0
 39 64  1  0  0  0
 39 67  2  0  0  0
 40 52  1  0  0  0
 40 53  2  0  0  0
 40 58  1  0  0  0
 41107  1  0  0  0
 41108  1  0  0  0
 41109  1  0  0  0
 41 48  1  0  0  0
 42 43  1  0  0  0
 42 66  1  0  0  0
 42110  1  0  0  0
 42111  1  0  0  0
 43 44  1  0  0  0
 44112  1  0  0  0
 45 46  2  0  0  0
 45113  1  0  0  0
 46114  1  0  0  0
 47115  1  0  0  0
 47116  1  0  0  0
 48 56  1  0  0  0
 48 65  1  0  0  0
 48117  1  0  0  0
 49 50  1  0  0  0
 49 53  1  0  0  0
 49 64  1  0  0  0
 49118  1  0  0  0
 50 51  1  0  0  0
 50119  1  0  0  0
 50120  1  0  0  0
 51 52  1  0  0  0
 51121  1  0  0  0
 51122  1  0  0  0
 52123  1  0  0  0
 52124  1  0  0  0
 53 54  1  0  0  0
 54 55  2  0  0  0
 54125  1  0  0  0
 55 57  1  0  0  0
 55126  1  0  0  0
 56 69  2  0  0  0
 57 58  2  0  0  0
 57127  1  0  0  0
 58128  1  0  0  0
 59 60  1  0  0  0
 59 61  1  0  0  0
 59 62  1  0  0  0
 60129  1  0  0  0
 60130  1  0  0  0
 60131  1  0  0  0
 61132  1  0  0  0
 61133  1  0  0  0
 61134  1  0  0  0
 62135  1  0  0  0
 62136  1  0  0  0
 62137  1  0  0  0
 63 65  1  0  0  0
 63138  1  0  0  0
 63139  1  0  0  0
 63140  1  0  0  0
 64141  1  0  0  0
 65142  1  0  0  0
 68 81  1  0  0  0
 71 73  2  0  0  0
 71 75  1  0  0  0
 71143  1  0  0  0
 72 74  1  0  0  0
 72 75  2  0  0  0
 72144  1  0  0  0
 73 76  1  0  0  0
 73145  1  0  0  0
 74 76  2  0  0  0
 74146  1  0  0  0
 75 77  1  0  0  0
 76 78  1  0  0  0
 77 82  1  0  0  0
 77147  1  0  0  0
 77148  1  0  0  0
 78 83  1  0  0  0
 78149  1  0  0  0
 78150  1  0  0  0
 79 80  1  0  0  0
 79 81  1  0  0  0
 79151  1  0  0  0
 79152  1  0  0  0
 80 83  1  0  0  0
 80153  1  0  0  0
 80154  1  0  0  0
 81155  1  0  0  0
 81156  1  0  0  0
 82157  1  0  0  0
 83158  1  0  0  0
 83159  1  0  0  0
M  CHG  1  83   1
M  ISO  4   1 100  68 101  81 101  82 100
M  END
> <chiral flag>
0

> <version>
0

> <s_m_source_file>
/data/baiqing/PycharmProjects/Reinvent-master-3.2/result/LINK_invent/BTK/process_docking_weight1_custom_product_contain_oxygen_bond_distance_aromatic_linkinvent_7_9_3/rearranged_h_0004.sdf

> <i_m_source_file_index>
49

> <r_mmod_Potential_Energy-OPLS-2005>
-253.584945678711

> <r_mmod_Stretch_Energy-OPLS-2005>
36.0759010314941

> <r_mmod_Bend_Energy-OPLS-2005>
100.944160461426

> <r_mmod_Torsional_Energy-OPLS-2005>
274.878662109375

> <r_mmod_Improper_Torsional_Energy-OPLS-2005>
7.184645652771

> <r_mmod_Van_der_Waal_Energy-OPLS-2005>
138.176147460938

> <r_mmod_Electrostatic_Energy-OPLS-2005>
-354.543304443359

> <r_mmod_Solvation_Energy-OPLS-2005>
-468.359924316406

> <b_mmod_Minimization_Converged-OPLS-2005>
0

> <r_mmod_RMS_Derivative-OPLS-2005>
5.10478639602661

$$$$
49
                    3D
 Structure written by MMmdl.
144152  0  0  1  0            999 V2000
  -30.2529  -15.7698   20.3172 C   0  0  0  0  0  0
  -30.4156  -13.1818   19.5395 C   0  0  0  0  0  0
  -29.5560  -12.6887   18.3365 C   0  0  0  0  0  0
  -28.1397  -12.3034   18.7864 C   0  0  0  0  0  0
  -27.5914  -13.3212   19.8098 C   0  0  2  0  0  0
  -28.5993  -13.7122   20.9195 C   0  0  0  0  0  0
  -25.2303  -13.8301   20.5813 C   0  0  0  0  0  0
  -24.1706  -13.0433   20.9299 C   0  0  0  0  0  0
  -24.6426  -11.6950   20.8762 C   0  0  0  0  0  0
  -23.9129  -10.4293   21.0393 C   0  0  0  0  0  0
  -24.3660   -9.4205   21.9177 C   0  0  0  0  0  0
  -23.6317   -8.2249   22.0754 C   0  0  0  0  0  0
  -22.4296   -8.0291   21.3546 C   0  0  0  0  0  0
  -21.9945   -9.0266   20.4644 C   0  0  0  0  0  0
  -22.7293  -10.2136   20.3047 C   0  0  0  0  0  0
  -21.6860   -6.0743   22.5279 C   0  0  0  0  0  0
  -21.4020   -6.5643   23.8213 C   0  0  0  0  0  0
  -21.3661   -5.6794   24.9174 C   0  0  0  0  0  0
  -21.6044   -4.3057   24.7224 C   0  0  0  0  0  0
  -21.8818   -3.8151   23.4344 C   0  0  0  0  0  0
  -21.9195   -4.6969   22.3401 C   0  0  0  0  0  0
  -22.7713  -13.5153   21.1927 C   0  0  0  0  0  0
  -22.1662   -4.2153   21.0978 F   0  0  0  0  0  0
  -21.5627   -3.4539   25.7736 F   0  0  0  0  0  0
  -29.7506  -14.3777   20.2532 N   0  0  0  0  0  0
  -26.2766  -12.9659   20.3245 N   0  0  0  0  0  0
  -25.9378  -11.6715   20.5690 N   0  0  0  0  0  0
  -22.0380  -12.8129   22.0479 N   0  0  0  0  0  0
  -25.3868  -15.2046   20.4255 N   0  0  0  0  0  0
  -31.4914  -15.6775   20.1826 O   0  0  0  0  0  0
  -21.6650   -6.8892   21.4244 O   0  0  0  0  0  0
  -22.3385  -14.5450   20.6760 O   0  0  0  0  0  0
  -24.6936  -31.7881   23.1430 C   0  0  0  0  0  0
  -25.9467  -32.4408   23.8015 C   0  0  1  0  0  0
  -27.2306  -26.6008   20.2257 C   0  0  0  0  0  0
  -25.6003  -33.8239   24.1890 N   0  0  0  0  0  0
  -23.5245  -30.3856   21.4993 C   0  0  2  0  0  0
  -24.9833  -28.7050   20.1217 C   0  0  0  0  0  0
  -22.7811  -29.4253   22.4682 C   0  0  0  0  0  0
  -18.0345  -28.1428   22.8448 C   0  0  0  0  0  0
  -24.1496  -36.7129   23.2655 C   0  0  0  0  0  0
  -26.1097  -30.4876   21.4229 C   0  0  0  0  0  0
  -26.1746  -29.0411   20.7751 C   0  0  0  0  0  0
  -27.2790  -28.0207   20.7900 C   0  0  0  0  0  0
  -26.0043  -26.4997   19.5135 C   0  0  0  0  0  0
  -24.9433  -27.4613   19.4662 C   0  0  0  0  0  0
  -23.7845  -29.6730   20.1393 C   0  0  0  0  0  0
  -25.4151  -36.2860   24.0272 C   0  0  1  0  0  0
  -20.5985  -28.3793   23.1122 C   0  0  2  0  0  0
  -20.6806  -26.9442   22.5406 C   0  0  0  0  0  0
  -19.5784  -26.6367   21.5218 C   0  0  0  0  0  0
  -18.1966  -26.7952   22.1618 C   0  0  0  0  0  0
  -19.1614  -28.8937   23.2762 C   0  0  0  0  0  0
  -18.9517  -30.1518   23.8813 C   0  0  0  0  0  0
  -17.6506  -30.6607   24.0547 C   0  0  0  0  0  0
  -25.9138  -34.9253   23.4926 C   0  0  0  0  0  0
  -16.5395  -29.9086   23.6353 C   0  0  0  0  0  0
  -16.7324  -28.6510   23.0368 C   0  0  0  0  0  0
  -26.4611  -31.6488   25.0682 C   0  0  0  0  0  0
  -25.3648  -31.3837   26.1277 C   0  0  0  0  0  0
  -27.0560  -30.2813   24.6660 C   0  0  0  0  0  0
  -27.6036  -32.4376   25.7509 C   0  0  0  0  0  0
  -27.5561  -37.1722   24.8466 C   0  0  0  0  0  0
  -21.4448  -29.3019   22.3429 N   0  0  0  0  0  0
  -26.4268  -37.3633   23.9406 N   0  0  0  0  0  0
  -24.8005  -30.9227   22.0739 N   0  0  0  0  0  0
  -23.4206  -28.7869   23.3074 O   0  0  0  0  0  0
  -28.1805  -25.3349   20.2906 O   0  0  0  0  0  0
  -26.5792  -34.8851   22.4554 O   0  0  0  0  0  0
  -23.5932  -32.1004   23.6319 O   0  0  0  0  0  0
  -30.3274  -21.9796   20.3511 C   0  0  0  0  0  0
  -31.2245  -20.8578   20.3986 C   0  0  0  0  0  0
  -28.6531  -20.2670   20.2747 C   0  0  0  0  0  0
  -28.9167  -21.8872   20.2824 C   0  0  0  0  0  0
  -29.5941  -18.9235   20.3247 C   0  0  0  0  0  0
  -30.9099  -19.4553   20.3878 C   0  0  0  0  0  0
  -27.9526  -23.5416   20.1988 C   0  0  0  0  0  0
  -29.4730  -17.1598   20.3360 N   0  0  0  0  0  0
  -31.9487  -18.5900   20.4485 F   0  0  0  0  0  0
  -31.3976  -13.4640   19.1583 H   0  0  0  0  0  0
  -30.6119  -12.3647   20.2359 H   0  0  0  0  0  0
  -30.0381  -11.8453   17.8405 H   0  0  0  0  0  0
  -29.4942  -13.4862   17.5945 H   0  0  0  0  0  0
  -28.1911  -11.3167   19.2484 H   0  0  0  0  0  0
  -27.4720  -12.2107   17.9289 H   0  0  0  0  0  0
  -27.4349  -14.2240   19.2175 H   0  0  0  0  0  0
  -28.8914  -12.8534   21.5259 H   0  0  0  0  0  0
  -28.1399  -14.4260   21.6048 H   0  0  0  0  0  0
  -25.2799   -9.5678   22.4761 H   0  0  0  0  0  0
  -24.0016   -7.4641   22.7479 H   0  0  0  0  0  0
  -21.0874   -8.8796   19.8951 H   0  0  0  0  0  0
  -22.3752  -10.9677   19.6158 H   0  0  0  0  0  0
  -21.2016   -7.6152   23.9718 H   0  0  0  0  0  0
  -21.1483   -6.0524   25.9076 H   0  0  0  0  0  0
  -22.0595   -2.7612   23.2843 H   0  0  0  0  0  0
  -22.4027  -11.9814   22.4884 H   0  0  0  0  0  0
  -21.0982  -13.1118   22.2668 H   0  0  0  0  0  0
  -24.6118  -15.8493   20.5377 H   0  0  0  0  0  0
  -26.2228  -15.6487   20.0703 H   0  0  0  0  0  0
  -26.7559  -32.4853   23.0731 H   0  0  0  0  0  0
  -25.0040  -33.9260   24.9970 H   0  0  0  0  0  0
  -22.8557  -31.2256   21.3004 H   0  0  0  0  0  0
  -23.3778  -35.9437   23.3260 H   0  0  0  0  0  0
  -24.3559  -36.8856   22.2081 H   0  0  0  0  0  0
  -23.7239  -37.6280   23.6780 H   0  0  0  0  0  0
  -26.3232  -31.2057   20.6301 H   0  0  0  0  0  0
  -26.9564  -30.5593   22.0929 H   0  0  0  0  0  0
  -28.1739  -28.2892   21.3336 H   0  0  0  0  0  0
  -25.8199  -25.5646   19.0038 H   0  0  0  0  0  0
  -24.0471  -27.1931   18.9237 H   0  0  0  0  0  0
  -23.9690  -30.4287   19.3749 H   0  0  0  0  0  0
  -22.8872  -29.1451   19.8121 H   0  0  0  0  0  0
  -25.1367  -36.1607   25.0762 H   0  0  0  0  0  0
  -21.0063  -28.3427   24.1251 H   0  0  0  0  0  0
  -20.5661  -26.2420   23.3677 H   0  0  0  0  0  0
  -21.6667  -26.7369   22.1230 H   0  0  0  0  0  0
  -19.6938  -25.6255   21.1304 H   0  0  0  0  0  0
  -19.6731  -27.3129   20.6710 H   0  0  0  0  0  0
  -17.4236  -26.6693   21.4021 H   0  0  0  0  0  0
  -18.0352  -26.0117   22.9035 H   0  0  0  0  0  0
  -19.7993  -30.7354   24.2146 H   0  0  0  0  0  0
  -17.5057  -31.6278   24.5166 H   0  0  0  0  0  0
  -15.5392  -30.2961   23.7726 H   0  0  0  0  0  0
  -15.8725  -28.0800   22.7131 H   0  0  0  0  0  0
  -24.5862  -30.7159   25.7573 H   0  0  0  0  0  0
  -24.8808  -32.3070   26.4471 H   0  0  0  0  0  0
  -25.7800  -30.9149   27.0208 H   0  0  0  0  0  0
  -26.3298  -29.6395   24.1665 H   0  0  0  0  0  0
  -27.3954  -29.7303   25.5442 H   0  0  0  0  0  0
  -27.9291  -30.3912   24.0227 H   0  0  0  0  0  0
  -27.2557  -33.3756   26.1847 H   0  0  0  0  0  0
  -28.3970  -32.6812   25.0430 H   0  0  0  0  0  0
  -28.0571  -31.8671   26.5624 H   0  0  0  0  0  0
  -28.2541  -38.0050   24.7510 H   0  0  0  0  0  0
  -28.1092  -36.2570   24.6298 H   0  0  0  0  0  0
  -27.2273  -37.1361   25.8867 H   0  0  0  0  0  0
  -20.9778  -29.8658   21.6465 H   0  0  0  0  0  0
  -26.0085  -38.2675   24.1419 H   0  0  0  0  0  0
  -30.7622  -22.9694   20.3646 H   0  0  0  0  0  0
  -32.2764  -21.0980   20.4490 H   0  0  0  0  0  0
  -27.6010  -20.0282   20.2210 H   0  0  0  0  0  0
  -27.1790  -23.3809   20.9497 H   0  0  0  0  0  0
  -27.4160  -23.4342   19.2562 H   0  0  0  0  0  0
  -28.4961  -16.9092   20.3628 H   0  0  0  0  0  0
  1 25  1  0  0  0
  1 30  2  0  0  0
  1 78  1  0  0  0
  2  3  1  0  0  0
  2 25  1  0  0  0
  2 80  1  0  0  0
  2 81  1  0  0  0
  3  4  1  0  0  0
  3 82  1  0  0  0
  3 83  1  0  0  0
  4  5  1  0  0  0
  4 84  1  0  0  0
  4 85  1  0  0  0
  5  6  1  0  0  0
  5 26  1  0  0  0
  5 86  1  0  0  0
  6 25  1  0  0  0
  6 87  1  0  0  0
  6 88  1  0  0  0
  7  8  2  0  0  0
  7 26  1  0  0  0
  7 29  1  0  0  0
  8  9  1  0  0  0
  8 22  1  0  0  0
  9 10  1  0  0  0
  9 27  2  0  0  0
 10 11  2  0  0  0
 10 15  1  0  0  0
 11 12  1  0  0  0
 11 89  1  0  0  0
 12 13  2  0  0  0
 12 90  1  0  0  0
 13 14  1  0  0  0
 13 31  1  0  0  0
 14 15  2  0  0  0
 14 91  1  0  0  0
 15 92  1  0  0  0
 16 17  2  0  0  0
 16 21  1  0  0  0
 16 31  1  0  0  0
 17 18  1  0  0  0
 17 93  1  0  0  0
 18 19  2  0  0  0
 18 94  1  0  0  0
 19 20  1  0  0  0
 19 24  1  0  0  0
 20 21  2  0  0  0
 20 95  1  0  0  0
 21 23  1  0  0  0
 22 28  1  0  0  0
 22 32  2  0  0  0
 26 27  1  0  0  0
 28 96  1  0  0  0
 28 97  1  0  0  0
 29 98  1  0  0  0
 29 99  1  0  0  0
 33 34  1  0  0  0
 33 66  1  0  0  0
 33 70  2  0  0  0
 34 36  1  0  0  0
 34 59  1  0  0  0
 34100  1  0  0  0
 35 44  2  0  0  0
 35 45  1  0  0  0
 35 68  1  0  0  0
 36 56  1  0  0  0
 36101  1  0  0  0
 37 39  1  0  0  0
 37 47  1  0  0  0
 37 66  1  0  0  0
 37102  1  0  0  0
 38 43  2  0  0  0
 38 46  1  0  0  0
 38 47  1  0  0  0
 39 64  1  0  0  0
 39 67  2  0  0  0
 40 52  1  0  0  0
 40 53  2  0  0  0
 40 58  1  0  0  0
 41103  1  0  0  0
 41104  1  0  0  0
 41105  1  0  0  0
 41 48  1  0  0  0
 42 43  1  0  0  0
 42 66  1  0  0  0
 42106  1  0  0  0
 42107  1  0  0  0
 43 44  1  0  0  0
 44108  1  0  0  0
 45 46  2  0  0  0
 45109  1  0  0  0
 46110  1  0  0  0
 47111  1  0  0  0
 47112  1  0  0  0
 48 56  1  0  0  0
 48 65  1  0  0  0
 48113  1  0  0  0
 49 50  1  0  0  0
 49 53  1  0  0  0
 49 64  1  0  0  0
 49114  1  0  0  0
 50 51  1  0  0  0
 50115  1  0  0  0
 50116  1  0  0  0
 51 52  1  0  0  0
 51117  1  0  0  0
 51118  1  0  0  0
 52119  1  0  0  0
 52120  1  0  0  0
 53 54  1  0  0  0
 54 55  2  0  0  0
 54121  1  0  0  0
 55 57  1  0  0  0
 55122  1  0  0  0
 56 69  2  0  0  0
 57 58  2  0  0  0
 57123  1  0  0  0
 58124  1  0  0  0
 59 60  1  0  0  0
 59 61  1  0  0  0
 59 62  1  0  0  0
 60125  1  0  0  0
 60126  1  0  0  0
 60127  1  0  0  0
 61128  1  0  0  0
 61129  1  0  0  0
 61130  1  0  0  0
 62131  1  0  0  0
 62132  1  0  0  0
 62133  1  0  0  0
 63 65  1  0  0  0
 63134  1  0  0  0
 63135  1  0  0  0
 63136  1  0  0  0
 64137  1  0  0  0
 65138  1  0  0  0
 68 77  1  0  0  0
 71 72  2  0  0  0
 71 74  1  0  0  0
 71139  1  0  0  0
 72 76  1  0  0  0
 72140  1  0  0  0
 73 74  2  0  0  0
 73 75  1  0  0  0
 73141  1  0  0  0
 74 77  1  0  0  0
 75 76  2  0  0  0
 75 78  1  0  0  0
 76 79  1  0  0  0
 77142  1  0  0  0
 77143  1  0  0  0
 78144  1  0  0  0
M  ISO  4   1 100  68 101  77 101  78 100
M  END
> <chiral flag>
0

> <version>
0

> <s_m_source_file>
/data/baiqing/PycharmProjects/Reinvent-master-3.2/result/LINK_invent/BTK/process_docking_weight1_custom_product_contain_oxygen_bond_distance_aromatic_linkinvent_7_9_3/rearranged_h_0004.sdf

> <i_m_source_file_index>
50

> <r_mmod_Potential_Energy-OPLS-2005>
2787.14575195312

> <r_mmod_Stretch_Energy-OPLS-2005>
1259.40466308594

> <r_mmod_Bend_Energy-OPLS-2005>
642.574401855469

> <r_mmod_Torsional_Energy-OPLS-2005>
222.868209838867

> <r_mmod_Improper_Torsional_Energy-OPLS-2005>
4.10439157485962

> <r_mmod_Van_der_Waal_Energy-OPLS-2005>
127.635848999023

> <r_mmod_Electrostatic_Energy-OPLS-2005>
-367.311218261719

> <r_mmod_Solvation_Energy-OPLS-2005>
-220.434646606445

> <b_mmod_Minimization_Converged-OPLS-2005>
0

> <r_mmod_RMS_Derivative-OPLS-2005>
0.217468082904816

$$$$
50
                    3D
 Structure written by MMmdl.
159167  0  0  1  0            999 V2000
  -30.7217  -14.3935   20.6351 C   0  0  0  0  0  0
  -30.4226  -12.2803   19.4008 C   0  0  0  0  0  0
  -29.4884  -12.5119   18.1945 C   0  0  0  0  0  0
  -28.0098  -12.3779   18.6089 C   0  0  0  0  0  0
  -27.6673  -13.1978   19.8814 C   0  0  2  0  0  0
  -28.7050  -12.9243   20.9926 C   0  0  0  0  0  0
  -25.2596  -13.8133   20.5638 C   0  0  0  0  0  0
  -24.1843  -13.0428   20.9166 C   0  0  0  0  0  0
  -24.6381  -11.6893   20.8727 C   0  0  0  0  0  0
  -23.9039  -10.4294   21.0400 C   0  0  0  0  0  0
  -24.3598   -9.4215   21.9180 C   0  0  0  0  0  0
  -23.6284   -8.2243   22.0747 C   0  0  0  0  0  0
  -22.4266   -8.0277   21.3540 C   0  0  0  0  0  0
  -21.9897   -9.0247   20.4640 C   0  0  0  0  0  0
  -22.7212  -10.2133   20.3049 C   0  0  0  0  0  0
  -21.6851   -6.0730   22.5279 C   0  0  0  0  0  0
  -21.4011   -6.5635   23.8211 C   0  0  0  0  0  0
  -21.3658   -5.6791   24.9174 C   0  0  0  0  0  0
  -21.6044   -4.3055   24.7229 C   0  0  0  0  0  0
  -21.8818   -3.8144   23.4351 C   0  0  0  0  0  0
  -21.9191   -4.6958   22.3404 C   0  0  0  0  0  0
  -22.7871  -13.5245   21.1847 C   0  0  0  0  0  0
  -22.1661   -4.2141   21.0981 F   0  0  0  0  0  0
  -21.5632   -3.4538   25.7742 F   0  0  0  0  0  0
  -30.0451  -13.2304   20.4573 N   0  0  0  0  0  0
  -26.3047  -12.9296   20.3393 N   0  0  0  0  0  0
  -25.9305  -11.6464   20.5770 N   0  0  0  0  0  0
  -22.0507  -12.8239   22.0406 N   0  0  0  0  0  0
  -25.4301  -15.1836   20.3963 N   0  0  0  0  0  0
  -31.7891  -14.6555   20.0710 O   0  0  0  0  0  0
  -21.6630   -6.8872   21.4240 O   0  0  0  0  0  0
  -22.3558  -14.5557   20.6705 O   0  0  0  0  0  0
  -24.6107  -31.8697   23.2137 C   0  0  0  0  0  0
  -25.9022  -32.4824   23.8419 C   0  0  1  0  0  0
  -27.2424  -27.4708   20.0958 C   0  0  0  0  0  0
  -25.5900  -33.8621   24.2374 N   0  0  0  0  0  0
  -23.3967  -30.4916   21.5520 C   0  0  2  0  0  0
  -24.8486  -28.9556   20.1210 C   0  0  0  0  0  0
  -22.7391  -29.4669   22.5023 C   0  0  0  0  0  0
  -18.0268  -28.1367   22.8501 C   0  0  0  0  0  0
  -24.1486  -36.7300   23.2631 C   0  0  0  0  0  0
  -25.9195  -30.8450   21.3604 C   0  0  0  0  0  0
  -26.0012  -29.4766   20.7216 C   0  0  0  0  0  0
  -27.2017  -28.7362   20.7179 C   0  0  0  0  0  0
  -26.0807  -26.9535   19.4895 C   0  0  0  0  0  0
  -24.8792  -27.6903   19.5058 C   0  0  0  0  0  0
  -23.6059  -29.8162   20.1693 C   0  0  0  0  0  0
  -25.4106  -36.3120   24.0347 C   0  0  1  0  0  0
  -20.5860  -28.3644   23.1345 C   0  0  2  0  0  0
  -20.6756  -26.9387   22.5422 C   0  0  0  0  0  0
  -19.5733  -26.6374   21.5216 C   0  0  0  0  0  0
  -18.1906  -26.7916   22.1621 C   0  0  0  0  0  0
  -19.1520  -28.8824   23.2914 C   0  0  0  0  0  0
  -18.9450  -30.1441   23.8916 C   0  0  0  0  0  0
  -17.6450  -30.6584   24.0564 C   0  0  0  0  0  0
  -25.9023  -34.9476   23.5160 C   0  0  0  0  0  0
  -16.5338  -29.9087   23.6340 C   0  0  0  0  0  0
  -16.7255  -28.6499   23.0367 C   0  0  0  0  0  0
  -26.4473  -31.6563   25.0717 C   0  0  0  0  0  0
  -25.3766  -31.3682   26.1492 C   0  0  0  0  0  0
  -27.0264  -30.3006   24.6023 C   0  0  0  0  0  0
  -27.6088  -32.4237   25.7475 C   0  0  0  0  0  0
  -27.5584  -37.1818   24.8463 C   0  0  0  0  0  0
  -21.4122  -29.3020   22.3764 N   0  0  0  0  0  0
  -26.4297  -37.3801   23.9402 N   0  0  0  0  0  0
  -24.6599  -31.0828   22.1020 N   0  0  0  0  0  0
  -23.4182  -28.8209   23.3052 O   0  0  0  0  0  0
  -28.4122  -26.7576   20.0315 O   0  0  0  0  0  0
  -26.5558  -34.8907   22.4705 O   0  0  0  0  0  0
  -23.5309  -32.1426   23.7563 O   0  0  0  0  0  0
  -26.9548  -18.0186   22.4430 C   0  0  0  0  0  0
  -27.9858  -17.1445   22.0505 C   0  0  0  0  0  0
  -27.2420  -19.3627   22.7467 C   0  0  0  0  0  0
  -29.5980  -18.9603   22.2649 C   0  0  0  0  0  0
  -29.3190  -17.6084   21.9614 C   0  0  0  0  0  0
  -28.5673  -19.8417   22.6590 C   0  0  0  0  0  0
  -30.4687  -16.6957   21.5397 C   0  0  0  0  0  0
  -28.8810  -21.2926   23.0045 C   0  0  0  0  0  0
  -28.5536  -24.5169   20.9225 C   0  0  0  0  0  0
  -28.8604  -23.6233   22.1415 C   0  0  0  0  0  0
  -28.7311  -26.0198   21.2079 C   0  0  0  0  0  0
  -30.1049  -15.2877   21.4142 N   0  0  0  0  0  0
  -28.6447  -22.1858   21.8531 N   0  3  0  0  0  0
  -31.4668  -12.3835   19.0984 H   0  0  0  0  0  0
  -30.3235  -11.2580   19.7682 H   0  0  0  0  0  0
  -29.7171  -11.8008   17.3993 H   0  0  0  0  0  0
  -29.6623  -13.5056   17.7767 H   0  0  0  0  0  0
  -27.8110  -11.3210   18.7892 H   0  0  0  0  0  0
  -27.3587  -12.6736   17.7855 H   0  0  0  0  0  0
  -27.7287  -14.2537   19.6165 H   0  0  0  0  0  0
  -28.6695  -11.8732   21.2824 H   0  0  0  0  0  0
  -28.4611  -13.4736   21.9023 H   0  0  0  0  0  0
  -25.2741   -9.5686   22.4758 H   0  0  0  0  0  0
  -23.9992   -7.4629   22.7467 H   0  0  0  0  0  0
  -21.0828   -8.8757   19.8950 H   0  0  0  0  0  0
  -22.3665  -10.9666   19.6162 H   0  0  0  0  0  0
  -21.1998   -7.6142   23.9709 H   0  0  0  0  0  0
  -21.1483   -6.0523   25.9075 H   0  0  0  0  0  0
  -22.0598   -2.7605   23.2849 H   0  0  0  0  0  0
  -22.4113  -11.9887   22.4782 H   0  0  0  0  0  0
  -21.1121  -13.1258   22.2612 H   0  0  0  0  0  0
  -24.6594  -15.8357   20.4893 H   0  0  0  0  0  0
  -26.2748  -15.6167   20.0459 H   0  0  0  0  0  0
  -26.7095  -32.5551   23.1190 H   0  0  0  0  0  0
  -25.0107  -33.9788   25.0560 H   0  0  0  0  0  0
  -22.6816  -31.3041   21.4093 H   0  0  0  0  0  0
  -23.3749  -35.9636   23.3310 H   0  0  0  0  0  0
  -24.3599  -36.8888   22.2044 H   0  0  0  0  0  0
  -23.7220  -37.6510   23.6608 H   0  0  0  0  0  0
  -26.0157  -31.6029   20.5821 H   0  0  0  0  0  0
  -26.8128  -30.9110   21.9678 H   0  0  0  0  0  0
  -28.0948  -29.1340   21.1792 H   0  0  0  0  0  0
  -26.1095  -25.9889   19.0013 H   0  0  0  0  0  0
  -23.9924  -27.2872   19.0359 H   0  0  0  0  0  0
  -23.7050  -30.5868   19.4046 H   0  0  0  0  0  0
  -22.7319  -29.2280   19.8832 H   0  0  0  0  0  0
  -25.1278  -36.2012   25.0837 H   0  0  0  0  0  0
  -20.9957  -28.3199   24.1466 H   0  0  0  0  0  0
  -20.5689  -26.2237   23.3605 H   0  0  0  0  0  0
  -21.6613  -26.7442   22.1182 H   0  0  0  0  0  0
  -19.6885  -25.6288   21.1228 H   0  0  0  0  0  0
  -19.6688  -27.3190   20.6755 H   0  0  0  0  0  0
  -17.4178  -26.6692   21.4017 H   0  0  0  0  0  0
  -18.0296  -26.0050   22.9011 H   0  0  0  0  0  0
  -19.7924  -30.7255   24.2289 H   0  0  0  0  0  0
  -17.4995  -31.6281   24.5134 H   0  0  0  0  0  0
  -15.5342  -30.3000   23.7652 H   0  0  0  0  0  0
  -15.8643  -28.0820   22.7103 H   0  0  0  0  0  0
  -24.5759  -30.7286   25.7767 H   0  0  0  0  0  0
  -24.9189  -32.2873   26.5157 H   0  0  0  0  0  0
  -25.8075  -30.8593   27.0120 H   0  0  0  0  0  0
  -26.2726  -29.6779   24.1195 H   0  0  0  0  0  0
  -27.4170  -29.7230   25.4404 H   0  0  0  0  0  0
  -27.8512  -30.4308   23.9021 H   0  0  0  0  0  0
  -27.2748  -33.3543   26.2063 H   0  0  0  0  0  0
  -28.3908  -32.6788   25.0312 H   0  0  0  0  0  0
  -28.0713  -31.8314   26.5377 H   0  0  0  0  0  0
  -28.2633  -38.0086   24.7519 H   0  0  0  0  0  0
  -28.1059  -36.2634   24.6291 H   0  0  0  0  0  0
  -27.2318  -37.1476   25.8871 H   0  0  0  0  0  0
  -20.9276  -29.8744   21.6996 H   0  0  0  0  0  0
  -26.0198  -38.2894   24.1367 H   0  0  0  0  0  0
  -25.9388  -17.6529   22.5090 H   0  0  0  0  0  0
  -27.7276  -16.1214   21.8193 H   0  0  0  0  0  0
  -26.4387  -20.0193   23.0514 H   0  0  0  0  0  0
  -30.6171  -19.3195   22.1990 H   0  0  0  0  0  0
  -31.2841  -16.7875   22.2583 H   0  0  0  0  0  0
  -30.8509  -17.0659   20.5858 H   0  0  0  0  0  0
  -29.9179  -21.3757   23.3329 H   0  0  0  0  0  0
  -28.2606  -21.6004   23.8478 H   0  0  0  0  0  0
  -27.5307  -24.3398   20.5911 H   0  0  0  0  0  0
  -29.1995  -24.2362   20.0895 H   0  0  0  0  0  0
  -28.2229  -23.9190   22.9760 H   0  0  0  0  0  0
  -29.8918  -23.7776   22.4636 H   0  0  0  0  0  0
  -29.7671  -26.2332   21.4727 H   0  0  0  0  0  0
  -28.1215  -26.3233   22.0617 H   0  0  0  0  0  0
  -29.2580  -14.9876   21.8693 H   0  0  0  0  0  0
  -27.6970  -22.0479   21.5444 H   0  0  0  0  0  0
  -29.2553  -21.8975   21.1068 H   0  0  0  0  0  0
  1 25  1  0  0  0
  1 30  2  0  0  0
  1 82  1  0  0  0
  2  3  1  0  0  0
  2 25  1  0  0  0
  2 84  1  0  0  0
  2 85  1  0  0  0
  3  4  1  0  0  0
  3 86  1  0  0  0
  3 87  1  0  0  0
  4  5  1  0  0  0
  4 88  1  0  0  0
  4 89  1  0  0  0
  5  6  1  0  0  0
  5 26  1  0  0  0
  5 90  1  0  0  0
  6 25  1  0  0  0
  6 91  1  0  0  0
  6 92  1  0  0  0
  7  8  2  0  0  0
  7 26  1  0  0  0
  7 29  1  0  0  0
  8  9  1  0  0  0
  8 22  1  0  0  0
  9 10  1  0  0  0
  9 27  2  0  0  0
 10 11  2  0  0  0
 10 15  1  0  0  0
 11 12  1  0  0  0
 11 93  1  0  0  0
 12 13  2  0  0  0
 12 94  1  0  0  0
 13 14  1  0  0  0
 13 31  1  0  0  0
 14 15  2  0  0  0
 14 95  1  0  0  0
 15 96  1  0  0  0
 16 17  2  0  0  0
 16 21  1  0  0  0
 16 31  1  0  0  0
 17 18  1  0  0  0
 17 97  1  0  0  0
 18 19  2  0  0  0
 18 98  1  0  0  0
 19 20  1  0  0  0
 19 24  1  0  0  0
 20 21  2  0  0  0
 20 99  1  0  0  0
 21 23  1  0  0  0
 22 28  1  0  0  0
 22 32  2  0  0  0
 26 27  1  0  0  0
 28100  1  0  0  0
 28101  1  0  0  0
 29102  1  0  0  0
 29103  1  0  0  0
 33 34  1  0  0  0
 33 66  1  0  0  0
 33 70  2  0  0  0
 34 36  1  0  0  0
 34 59  1  0  0  0
 34104  1  0  0  0
 35 44  2  0  0  0
 35 45  1  0  0  0
 35 68  1  0  0  0
 36 56  1  0  0  0
 36105  1  0  0  0
 37 39  1  0  0  0
 37 47  1  0  0  0
 37 66  1  0  0  0
 37106  1  0  0  0
 38 43  2  0  0  0
 38 46  1  0  0  0
 38 47  1  0  0  0
 39 64  1  0  0  0
 39 67  2  0  0  0
 40 52  1  0  0  0
 40 53  2  0  0  0
 40 58  1  0  0  0
 41107  1  0  0  0
 41108  1  0  0  0
 41109  1  0  0  0
 41 48  1  0  0  0
 42 43  1  0  0  0
 42 66  1  0  0  0
 42110  1  0  0  0
 42111  1  0  0  0
 43 44  1  0  0  0
 44112  1  0  0  0
 45 46  2  0  0  0
 45113  1  0  0  0
 46114  1  0  0  0
 47115  1  0  0  0
 47116  1  0  0  0
 48 56  1  0  0  0
 48 65  1  0  0  0
 48117  1  0  0  0
 49 50  1  0  0  0
 49 53  1  0  0  0
 49 64  1  0  0  0
 49118  1  0  0  0
 50 51  1  0  0  0
 50119  1  0  0  0
 50120  1  0  0  0
 51 52  1  0  0  0
 51121  1  0  0  0
 51122  1  0  0  0
 52123  1  0  0  0
 52124  1  0  0  0
 53 54  1  0  0  0
 54 55  2  0  0  0
 54125  1  0  0  0
 55 57  1  0  0  0
 55126  1  0  0  0
 56 69  2  0  0  0
 57 58  2  0  0  0
 57127  1  0  0  0
 58128  1  0  0  0
 59 60  1  0  0  0
 59 61  1  0  0  0
 59 62  1  0  0  0
 60129  1  0  0  0
 60130  1  0  0  0
 60131  1  0  0  0
 61132  1  0  0  0
 61133  1  0  0  0
 61134  1  0  0  0
 62135  1  0  0  0
 62136  1  0  0  0
 62137  1  0  0  0
 63 65  1  0  0  0
 63138  1  0  0  0
 63139  1  0  0  0
 63140  1  0  0  0
 64141  1  0  0  0
 65142  1  0  0  0
 68 81  1  0  0  0
 71 72  2  0  0  0
 71 73  1  0  0  0
 71143  1  0  0  0
 72 75  1  0  0  0
 72144  1  0  0  0
 73 76  2  0  0  0
 73145  1  0  0  0
 74 75  2  0  0  0
 74 76  1  0  0  0
 74146  1  0  0  0
 75 77  1  0  0  0
 76 78  1  0  0  0
 77 82  1  0  0  0
 77147  1  0  0  0
 77148  1  0  0  0
 78 83  1  0  0  0
 78149  1  0  0  0
 78150  1  0  0  0
 79 80  1  0  0  0
 79 81  1  0  0  0
 79151  1  0  0  0
 79152  1  0  0  0
 80 83  1  0  0  0
 80153  1  0  0  0
 80154  1  0  0  0
 81155  1  0  0  0
 81156  1  0  0  0
 82157  1  0  0  0
 83158  1  0  0  0
 83159  1  0  0  0
M  CHG  1  83   1
M  ISO  4   1 100  68 101  81 101  82 100
M  END
> <chiral flag>
0

> <version>
0

> <s_m_source_file>
/data/baiqing/PycharmProjects/Reinvent-master-3.2/result/LINK_invent/BTK/process_docking_weight1_custom_product_contain_oxygen_bond_distance_aromatic_linkinvent_7_9_3/rearranged_h_0004.sdf

> <i_m_source_file_index>
51

> <r_mmod_Potential_Energy-OPLS-2005>
-343.862945556641

> <r_mmod_Stretch_Energy-OPLS-2005>
31.9348468780518

> <r_mmod_Bend_Energy-OPLS-2005>
81.6997222900391

> <r_mmod_Torsional_Energy-OPLS-2005>
206.371826171875

> <r_mmod_Improper_Torsional_Energy-OPLS-2005>
2.6166570186615

> <r_mmod_Van_der_Waal_Energy-OPLS-2005>
145.112915039062

> <r_mmod_Electrostatic_Energy-OPLS-2005>
-348.637878417969

> <r_mmod_Solvation_Energy-OPLS-2005>
-469.449554443359

> <b_mmod_Minimization_Converged-OPLS-2005>
0

> <r_mmod_RMS_Derivative-OPLS-2005>
2.09873580932617

$$$$
51
                    3D
 Structure written by MMmdl.
156164  0  0  1  0            999 V2000
  -30.6593  -14.7069   20.4865 C   0  0  0  0  0  0
  -30.4288  -12.4348   19.4742 C   0  0  0  0  0  0
  -29.5121  -12.5166   18.2344 C   0  0  0  0  0  0
  -28.0335  -12.3618   18.6415 C   0  0  0  0  0  0
  -27.6490  -13.2388   19.8646 C   0  0  2  0  0  0
  -28.6968  -13.1503   20.9966 C   0  0  0  0  0  0
  -25.2533  -13.8209   20.5702 C   0  0  0  0  0  0
  -24.1816  -13.0437   20.9202 C   0  0  0  0  0  0
  -24.6412  -11.6922   20.8746 C   0  0  0  0  0  0
  -23.9070  -10.4287   21.0404 C   0  0  0  0  0  0
  -24.3615   -9.4207   21.9176 C   0  0  0  0  0  0
  -23.6297   -8.2239   22.0737 C   0  0  0  0  0  0
  -22.4280   -8.0264   21.3534 C   0  0  0  0  0  0
  -21.9910   -9.0238   20.4638 C   0  0  0  0  0  0
  -22.7239  -10.2124   20.3054 C   0  0  0  0  0  0
  -21.6857   -6.0730   22.5277 C   0  0  0  0  0  0
  -21.4027   -6.5634   23.8212 C   0  0  0  0  0  0
  -21.3668   -5.6794   24.9176 C   0  0  0  0  0  0
  -21.6056   -4.3051   24.7234 C   0  0  0  0  0  0
  -21.8822   -3.8138   23.4356 C   0  0  0  0  0  0
  -21.9193   -4.6958   22.3406 C   0  0  0  0  0  0
  -22.7840  -13.5224   21.1843 C   0  0  0  0  0  0
  -22.1666   -4.2136   21.0988 F   0  0  0  0  0  0
  -21.5625   -3.4534   25.7752 F   0  0  0  0  0  0
  -29.9983  -13.4993   20.4148 N   0  0  0  0  0  0
  -26.2988  -12.9435   20.3365 N   0  0  0  0  0  0
  -25.9358  -11.6566   20.5791 N   0  0  0  0  0  0
  -22.0474  -12.8218   22.0411 N   0  0  0  0  0  0
  -25.4184  -15.1928   20.4085 N   0  0  0  0  0  0
  -31.8384  -14.7439   20.1301 O   0  0  0  0  0  0
  -21.6643   -6.8867   21.4240 O   0  0  0  0  0  0
  -22.3527  -14.5513   20.6673 O   0  0  0  0  0  0
  -24.6314  -31.8564   23.2004 C   0  0  0  0  0  0
  -25.9143  -32.4757   23.8337 C   0  0  1  0  0  0
  -27.2163  -27.2584   20.1186 C   0  0  0  0  0  0
  -25.5917  -33.8550   24.2254 N   0  0  0  0  0  0
  -23.4281  -30.4819   21.5428 C   0  0  2  0  0  0
  -24.8717  -28.9302   20.1091 C   0  0  0  0  0  0
  -22.7514  -29.4628   22.4901 C   0  0  0  0  0  0
  -18.0302  -28.1422   22.8482 C   0  0  0  0  0  0
  -24.1477  -36.7252   23.2646 C   0  0  0  0  0  0
  -25.9761  -30.7626   21.3884 C   0  0  0  0  0  0
  -26.0429  -29.3890   20.7216 C   0  0  0  0  0  0
  -27.2125  -28.5648   20.7172 C   0  0  0  0  0  0
  -26.0165  -26.8692   19.4742 C   0  0  0  0  0  0
  -24.8647  -27.6793   19.4749 C   0  0  0  0  0  0
  -23.6444  -29.8193   20.1583 C   0  0  0  0  0  0
  -25.4113  -36.3066   24.0338 C   0  0  1  0  0  0
  -20.5908  -28.3719   23.1261 C   0  0  2  0  0  0
  -20.6800  -26.9433   22.5412 C   0  0  0  0  0  0
  -19.5762  -26.6399   21.5233 C   0  0  0  0  0  0
  -18.1941  -26.7960   22.1640 C   0  0  0  0  0  0
  -19.1558  -28.8889   23.2860 C   0  0  0  0  0  0
  -18.9480  -30.1496   23.8869 C   0  0  0  0  0  0
  -17.6477  -30.6609   24.0570 C   0  0  0  0  0  0
  -25.9064  -34.9439   23.5108 C   0  0  0  0  0  0
  -16.5365  -29.9103   23.6352 C   0  0  0  0  0  0
  -16.7289  -28.6537   23.0347 C   0  0  0  0  0  0
  -26.4513  -31.6598   25.0736 C   0  0  0  0  0  0
  -25.3696  -31.3755   26.1425 C   0  0  0  0  0  0
  -27.0408  -30.3018   24.6284 C   0  0  0  0  0  0
  -27.6070  -32.4360   25.7467 C   0  0  0  0  0  0
  -27.5587  -37.1758   24.8464 C   0  0  0  0  0  0
  -21.4223  -29.3057   22.3631 N   0  0  0  0  0  0
  -26.4279  -37.3777   23.9444 N   0  0  0  0  0  0
  -24.6970  -31.0526   22.0985 N   0  0  0  0  0  0
  -23.4210  -28.8172   23.3014 O   0  0  0  0  0  0
  -28.3382  -26.3991   20.2041 O   0  0  0  0  0  0
  -26.5649  -34.8924   22.4687 O   0  0  0  0  0  0
  -23.5467  -32.1391   23.7299 O   0  0  0  0  0  0
  -32.1768  -18.9940   20.5909 C   0  0  0  0  0  0
  -31.7425  -17.6568   20.6104 C   0  0  0  0  0  0
  -31.2787  -20.0761   20.6799 C   0  0  0  0  0  0
  -29.8805  -19.8389   20.7801 C   0  0  0  0  0  0
  -30.3731  -17.3085   20.7115 C   0  0  0  0  0  0
  -29.4550  -18.4377   20.8002 C   0  0  0  0  0  0
  -31.8729  -21.4795   20.7172 C   0  0  0  0  0  0
  -28.9165  -21.0858   21.0510 C   0  0  0  0  0  0
  -28.6888  -23.7303   20.7325 C   0  0  0  0  0  0
  -28.3642  -24.9656   19.7336 C   0  0  0  0  0  0
  -29.9536  -15.8733   20.7647 N   0  0  0  0  0  0
  -28.8885  -22.3171   20.1300 N   0  3  0  0  0  0
  -28.1369  -18.1616   20.9481 F   0  0  0  0  0  0
  -31.4716  -12.5347   19.1705 H   0  0  0  0  0  0
  -30.3578  -11.4517   19.9439 H   0  0  0  0  0  0
  -29.7839  -11.7496   17.5080 H   0  0  0  0  0  0
  -29.6608  -13.4760   17.7353 H   0  0  0  0  0  0
  -27.8644  -11.3087   18.8690 H   0  0  0  0  0  0
  -27.3852  -12.5979   17.7971 H   0  0  0  0  0  0
  -27.6480  -14.2695   19.5078 H   0  0  0  0  0  0
  -28.7298  -12.1400   21.4081 H   0  0  0  0  0  0
  -28.4424  -13.8089   21.8304 H   0  0  0  0  0  0
  -25.2762   -9.5695   22.4747 H   0  0  0  0  0  0
  -24.0017   -7.4645   22.7447 H   0  0  0  0  0  0
  -21.0839   -8.8751   19.8944 H   0  0  0  0  0  0
  -22.3677  -10.9659   19.6159 H   0  0  0  0  0  0
  -21.2020   -7.6136   23.9710 H   0  0  0  0  0  0
  -21.1498   -6.0522   25.9082 H   0  0  0  0  0  0
  -22.0590   -2.7596   23.2858 H   0  0  0  0  0  0
  -22.4107  -11.9931   22.4878 H   0  0  0  0  0  0
  -21.1061  -13.1213   22.2521 H   0  0  0  0  0  0
  -24.6423  -15.8393   20.5007 H   0  0  0  0  0  0
  -26.2689  -15.6402   20.0907 H   0  0  0  0  0  0
  -26.7183  -32.5400   23.1047 H   0  0  0  0  0  0
  -24.9999  -33.9669   25.0359 H   0  0  0  0  0  0
  -22.7256  -31.3050   21.4001 H   0  0  0  0  0  0
  -23.3776  -35.9544   23.3293 H   0  0  0  0  0  0
  -24.3551  -36.8900   22.2061 H   0  0  0  0  0  0
  -23.7177  -37.6427   23.6673 H   0  0  0  0  0  0
  -26.1343  -31.5265   20.6269 H   0  0  0  0  0  0
  -26.8470  -30.7941   22.0327 H   0  0  0  0  0  0
  -28.1095  -28.9070   21.2137 H   0  0  0  0  0  0
  -25.9096  -25.9249   18.9659 H   0  0  0  0  0  0
  -23.9671  -27.3280   18.9841 H   0  0  0  0  0  0
  -23.7695  -30.5979   19.4048 H   0  0  0  0  0  0
  -22.7604  -29.2559   19.8558 H   0  0  0  0  0  0
  -25.1282  -36.1908   25.0825 H   0  0  0  0  0  0
  -20.9999  -28.3324   24.1384 H   0  0  0  0  0  0
  -20.5753  -26.2327   23.3624 H   0  0  0  0  0  0
  -21.6656  -26.7491   22.1166 H   0  0  0  0  0  0
  -19.6923  -25.6311   21.1269 H   0  0  0  0  0  0
  -19.6708  -27.3208   20.6759 H   0  0  0  0  0  0
  -17.4216  -26.6723   21.4037 H   0  0  0  0  0  0
  -18.0311  -26.0121   22.9047 H   0  0  0  0  0  0
  -19.7958  -30.7325   24.2216 H   0  0  0  0  0  0
  -17.5034  -31.6282   24.5180 H   0  0  0  0  0  0
  -15.5366  -30.2985   23.7711 H   0  0  0  0  0  0
  -15.8697  -28.0855   22.7053 H   0  0  0  0  0  0
  -24.5834  -30.7185   25.7691 H   0  0  0  0  0  0
  -24.8924  -32.2932   26.4869 H   0  0  0  0  0  0
  -25.7938  -30.8854   27.0195 H   0  0  0  0  0  0
  -26.3044  -29.6697   24.1309 H   0  0  0  0  0  0
  -27.4090  -29.7353   25.4849 H   0  0  0  0  0  0
  -27.8905  -30.4320   23.9578 H   0  0  0  0  0  0
  -27.2706  -33.3674   26.2036 H   0  0  0  0  0  0
  -28.3837  -32.6915   25.0244 H   0  0  0  0  0  0
  -28.0792  -31.8498   26.5367 H   0  0  0  0  0  0
  -28.2564  -38.0097   24.7588 H   0  0  0  0  0  0
  -28.1121  -36.2631   24.6187 H   0  0  0  0  0  0
  -27.2297  -37.1273   25.8858 H   0  0  0  0  0  0
  -20.9433  -29.8702   21.6758 H   0  0  0  0  0  0
  -26.0165  -38.2842   24.1505 H   0  0  0  0  0  0
  -33.2408  -19.1890   20.5360 H   0  0  0  0  0  0
  -32.5182  -16.9095   20.5725 H   0  0  0  0  0  0
  -32.9640  -21.4489   20.7011 H   0  0  0  0  0  0
  -31.5846  -22.0140   21.6236 H   0  0  0  0  0  0
  -31.5630  -22.0621   19.8495 H   0  0  0  0  0  0
  -29.1764  -21.4391   22.0491 H   0  0  0  0  0  0
  -27.8932  -20.7197   21.1425 H   0  0  0  0  0  0
  -27.8937  -23.6784   21.4771 H   0  0  0  0  0  0
  -29.5932  -23.9728   21.2921 H   0  0  0  0  0  0
  -27.4782  -24.6894   19.1725 H   0  0  0  0  0  0
  -29.1448  -24.9576   18.9743 H   0  0  0  0  0  0
  -28.9787  -15.7327   20.9842 H   0  0  0  0  0  0
  -28.1394  -22.1440   19.4768 H   0  0  0  0  0  0
  -29.7361  -22.3121   19.5862 H   0  0  0  0  0  0
  1 25  1  0  0  0
  1 30  2  0  0  0
  1 81  1  0  0  0
  2  3  1  0  0  0
  2 25  1  0  0  0
  2 84  1  0  0  0
  2 85  1  0  0  0
  3  4  1  0  0  0
  3 86  1  0  0  0
  3 87  1  0  0  0
  4  5  1  0  0  0
  4 88  1  0  0  0
  4 89  1  0  0  0
  5  6  1  0  0  0
  5 26  1  0  0  0
  5 90  1  0  0  0
  6 25  1  0  0  0
  6 91  1  0  0  0
  6 92  1  0  0  0
  7  8  2  0  0  0
  7 26  1  0  0  0
  7 29  1  0  0  0
  8  9  1  0  0  0
  8 22  1  0  0  0
  9 10  1  0  0  0
  9 27  2  0  0  0
 10 11  2  0  0  0
 10 15  1  0  0  0
 11 12  1  0  0  0
 11 93  1  0  0  0
 12 13  2  0  0  0
 12 94  1  0  0  0
 13 14  1  0  0  0
 13 31  1  0  0  0
 14 15  2  0  0  0
 14 95  1  0  0  0
 15 96  1  0  0  0
 16 17  2  0  0  0
 16 21  1  0  0  0
 16 31  1  0  0  0
 17 18  1  0  0  0
 17 97  1  0  0  0
 18 19  2  0  0  0
 18 98  1  0  0  0
 19 20  1  0  0  0
 19 24  1  0  0  0
 20 21  2  0  0  0
 20 99  1  0  0  0
 21 23  1  0  0  0
 22 28  1  0  0  0
 22 32  2  0  0  0
 26 27  1  0  0  0
 28100  1  0  0  0
 28101  1  0  0  0
 29102  1  0  0  0
 29103  1  0  0  0
 33 34  1  0  0  0
 33 66  1  0  0  0
 33 70  2  0  0  0
 34 36  1  0  0  0
 34 59  1  0  0  0
 34104  1  0  0  0
 35 44  2  0  0  0
 35 45  1  0  0  0
 35 68  1  0  0  0
 36 56  1  0  0  0
 36105  1  0  0  0
 37 39  1  0  0  0
 37 47  1  0  0  0
 37 66  1  0  0  0
 37106  1  0  0  0
 38 43  2  0  0  0
 38 46  1  0  0  0
 38 47  1  0  0  0
 39 64  1  0  0  0
 39 67  2  0  0  0
 40 52  1  0  0  0
 40 53  2  0  0  0
 40 58  1  0  0  0
 41107  1  0  0  0
 41108  1  0  0  0
 41109  1  0  0  0
 41 48  1  0  0  0
 42 43  1  0  0  0
 42 66  1  0  0  0
 42110  1  0  0  0
 42111  1  0  0  0
 43 44  1  0  0  0
 44112  1  0  0  0
 45 46  2  0  0  0
 45113  1  0  0  0
 46114  1  0  0  0
 47115  1  0  0  0
 47116  1  0  0  0
 48 56  1  0  0  0
 48 65  1  0  0  0
 48117  1  0  0  0
 49 50  1  0  0  0
 49 53  1  0  0  0
 49 64  1  0  0  0
 49118  1  0  0  0
 50 51  1  0  0  0
 50119  1  0  0  0
 50120  1  0  0  0
 51 52  1  0  0  0
 51121  1  0  0  0
 51122  1  0  0  0
 52123  1  0  0  0
 52124  1  0  0  0
 53 54  1  0  0  0
 54 55  2  0  0  0
 54125  1  0  0  0
 55 57  1  0  0  0
 55126  1  0  0  0
 56 69  2  0  0  0
 57 58  2  0  0  0
 57127  1  0  0  0
 58128  1  0  0  0
 59 60  1  0  0  0
 59 61  1  0  0  0
 59 62  1  0  0  0
 60129  1  0  0  0
 60130  1  0  0  0
 60131  1  0  0  0
 61132  1  0  0  0
 61133  1  0  0  0
 61134  1  0  0  0
 62135  1  0  0  0
 62136  1  0  0  0
 62137  1  0  0  0
 63 65  1  0  0  0
 63138  1  0  0  0
 63139  1  0  0  0
 63140  1  0  0  0
 64141  1  0  0  0
 65142  1  0  0  0
 68 80  1  0  0  0
 71 72  2  0  0  0
 71 73  1  0  0  0
 71143  1  0  0  0
 72 75  1  0  0  0
 72144  1  0  0  0
 73 74  2  0  0  0
 73 77  1  0  0  0
 74 76  1  0  0  0
 74 78  1  0  0  0
 75 76  2  0  0  0
 75 81  1  0  0  0
 76 83  1  0  0  0
 77145  1  0  0  0
 77146  1  0  0  0
 77147  1  0  0  0
 78 82  1  0  0  0
 78148  1  0  0  0
 78149  1  0  0  0
 79 80  1  0  0  0
 79 82  1  0  0  0
 79150  1  0  0  0
 79151  1  0  0  0
 80152  1  0  0  0
 80153  1  0  0  0
 81154  1  0  0  0
 82155  1  0  0  0
 82156  1  0  0  0
M  CHG  1  82   1
M  ISO  4   1 100  68 101  80 101  81 100
M  END
> <chiral flag>
0

> <version>
0

> <s_m_source_file>
/data/baiqing/PycharmProjects/Reinvent-master-3.2/result/LINK_invent/BTK/process_docking_weight1_custom_product_contain_oxygen_bond_distance_aromatic_linkinvent_7_9_3/rearranged_h_0004.sdf

> <i_m_source_file_index>
52

> <r_mmod_Potential_Energy-OPLS-2005>
-29.40891456604

> <r_mmod_Stretch_Energy-OPLS-2005>
128.827713012695

> <r_mmod_Bend_Energy-OPLS-2005>
175.408981323242

> <r_mmod_Torsional_Energy-OPLS-2005>
206.020294189453

> <r_mmod_Improper_Torsional_Energy-OPLS-2005>
4.99736356735229

> <r_mmod_Van_der_Waal_Energy-OPLS-2005>
149.271820068359

> <r_mmod_Electrostatic_Energy-OPLS-2005>
-310.059844970703

> <r_mmod_Solvation_Energy-OPLS-2005>
-457.745788574219

> <b_mmod_Minimization_Converged-OPLS-2005>
0

> <r_mmod_RMS_Derivative-OPLS-2005>
2.981112241745

$$$$
52
                    3D
 Structure written by MMmdl.
159168  0  0  1  0            999 V2000
  -30.7043  -14.5116   20.5039 C   0  0  0  0  0  0
  -30.4123  -12.3146   19.4339 C   0  0  0  0  0  0
  -29.4888  -12.4818   18.2103 C   0  0  0  0  0  0
  -28.0118  -12.3449   18.6281 C   0  0  0  0  0  0
  -27.6495  -13.2091   19.8668 C   0  0  2  0  0  0
  -28.6985  -13.0600   20.9918 C   0  0  0  0  0  0
  -25.2550  -13.8163   20.5715 C   0  0  0  0  0  0
  -24.1804  -13.0432   20.9187 C   0  0  0  0  0  0
  -24.6368  -11.6899   20.8762 C   0  0  0  0  0  0
  -23.9045  -10.4287   21.0421 C   0  0  0  0  0  0
  -24.3602   -9.4203   21.9199 C   0  0  0  0  0  0
  -23.6282   -8.2234   22.0763 C   0  0  0  0  0  0
  -22.4268   -8.0275   21.3548 C   0  0  0  0  0  0
  -21.9900   -9.0251   20.4650 C   0  0  0  0  0  0
  -22.7223  -10.2130   20.3064 C   0  0  0  0  0  0
  -21.6846   -6.0729   22.5282 C   0  0  0  0  0  0
  -21.4013   -6.5639   23.8213 C   0  0  0  0  0  0
  -21.3656   -5.6796   24.9175 C   0  0  0  0  0  0
  -21.6040   -4.3059   24.7228 C   0  0  0  0  0  0
  -21.8819   -3.8148   23.4352 C   0  0  0  0  0  0
  -21.9191   -4.6960   22.3407 C   0  0  0  0  0  0
  -22.7831  -13.5236   21.1848 C   0  0  0  0  0  0
  -22.1658   -4.2143   21.0983 F   0  0  0  0  0  0
  -21.5626   -3.4548   25.7742 F   0  0  0  0  0  0
  -30.0188  -13.3392   20.4133 N   0  0  0  0  0  0
  -26.2973  -12.9325   20.3387 N   0  0  0  0  0  0
  -25.9296  -11.6486   20.5813 N   0  0  0  0  0  0
  -22.0466  -12.8232   22.0396 N   0  0  0  0  0  0
  -25.4284  -15.1883   20.4142 N   0  0  0  0  0  0
  -31.8932  -14.6037   20.1821 O   0  0  0  0  0  0
  -21.6637   -6.8869   21.4241 O   0  0  0  0  0  0
  -22.3519  -14.5541   20.6696 O   0  0  0  0  0  0
  -24.6148  -31.8657   23.2108 C   0  0  0  0  0  0
  -25.9041  -32.4812   23.8401 C   0  0  1  0  0  0
  -27.2311  -27.4166   20.1086 C   0  0  0  0  0  0
  -25.5901  -33.8614   24.2334 N   0  0  0  0  0  0
  -23.4043  -30.4894   21.5485 C   0  0  2  0  0  0
  -24.8524  -28.9498   20.1182 C   0  0  0  0  0  0
  -22.7410  -29.4649   22.4971 C   0  0  0  0  0  0
  -18.0265  -28.1376   22.8490 C   0  0  0  0  0  0
  -24.1484  -36.7311   23.2646 C   0  0  0  0  0  0
  -25.9347  -30.8228   21.3708 C   0  0  0  0  0  0
  -26.0102  -29.4539   20.7245 C   0  0  0  0  0  0
  -27.2022  -28.6906   20.7235 C   0  0  0  0  0  0
  -26.0623  -26.9347   19.4812 C   0  0  0  0  0  0
  -24.8724  -27.6891   19.4956 C   0  0  0  0  0  0
  -23.6164  -29.8201   20.1641 C   0  0  0  0  0  0
  -25.4108  -36.3104   24.0339 C   0  0  1  0  0  0
  -20.5857  -28.3666   23.1307 C   0  0  2  0  0  0
  -20.6752  -26.9400   22.5410 C   0  0  0  0  0  0
  -19.5734  -26.6384   21.5202 C   0  0  0  0  0  0
  -18.1911  -26.7923   22.1614 C   0  0  0  0  0  0
  -19.1516  -28.8836   23.2902 C   0  0  0  0  0  0
  -18.9448  -30.1444   23.8917 C   0  0  0  0  0  0
  -17.6452  -30.6585   24.0565 C   0  0  0  0  0  0
  -25.9033  -34.9465   23.5129 C   0  0  0  0  0  0
  -16.5340  -29.9085   23.6336 C   0  0  0  0  0  0
  -16.7256  -28.6498   23.0359 C   0  0  0  0  0  0
  -26.4479  -31.6605   25.0739 C   0  0  0  0  0  0
  -25.3748  -31.3691   26.1491 C   0  0  0  0  0  0
  -27.0335  -30.3055   24.6132 C   0  0  0  0  0  0
  -27.6056  -32.4333   25.7487 C   0  0  0  0  0  0
  -27.5577  -37.1805   24.8469 C   0  0  0  0  0  0
  -21.4137  -29.3035   22.3713 N   0  0  0  0  0  0
  -26.4293  -37.3785   23.9411 N   0  0  0  0  0  0
  -24.6688  -31.0751   22.1010 N   0  0  0  0  0  0
  -23.4176  -28.8195   23.3020 O   0  0  0  0  0  0
  -28.3952  -26.6782   20.0763 O   0  0  0  0  0  0
  -26.5590  -34.8905   22.4686 O   0  0  0  0  0  0
  -23.5336  -32.1414   23.7495 O   0  0  0  0  0  0
  -29.6764  -20.7585   19.0007 C   0  0  0  0  0  0
  -28.9699  -20.9474   21.3098 C   0  0  0  0  0  0
  -29.4667  -22.1396   18.8187 C   0  0  0  0  0  0
  -28.7665  -22.3437   21.1286 C   0  0  0  0  0  0
  -29.4417  -20.1357   20.2466 C   0  0  0  0  0  0
  -29.0204  -22.9585   19.8766 C   0  0  0  0  0  0
  -29.7019  -17.9781   21.7677 C   0  0  0  0  0  0
  -29.0141  -17.7140   19.4426 C   0  0  0  0  0  0
  -30.3283  -16.5496   21.7705 C   0  0  0  0  0  0
  -29.7006  -16.3352   19.3516 C   0  0  0  0  0  0
  -29.7986  -18.6367   20.3826 C   0  0  0  0  0  0
  -28.8927  -24.4677   19.5962 C   0  0  0  0  0  0
  -29.9641  -15.6497   20.6431 N   0  0  0  0  0  0
  -28.1987  -25.3135   20.5677 N   0  0  0  0  0  0
  -31.4584  -12.3986   19.1323 H   0  0  0  0  0  0
  -30.3045  -11.3189   19.8666 H   0  0  0  0  0  0
  -29.7306  -11.7374   17.4504 H   0  0  0  0  0  0
  -29.6545  -13.4555   17.7467 H   0  0  0  0  0  0
  -27.8314  -11.2923   18.8479 H   0  0  0  0  0  0
  -27.3580  -12.5942   17.7917 H   0  0  0  0  0  0
  -27.6619  -14.2452   19.5364 H   0  0  0  0  0  0
  -28.6803  -12.0516   21.4078 H   0  0  0  0  0  0
  -28.4777  -13.7370   21.8194 H   0  0  0  0  0  0
  -25.2743   -9.5679   22.4776 H   0  0  0  0  0  0
  -23.9991   -7.4623   22.7479 H   0  0  0  0  0  0
  -21.0833   -8.8760   19.8957 H   0  0  0  0  0  0
  -22.3679  -10.9669   19.6171 H   0  0  0  0  0  0
  -21.2008   -7.6149   23.9711 H   0  0  0  0  0  0
  -21.1475   -6.0530   25.9072 H   0  0  0  0  0  0
  -22.0601   -2.7611   23.2858 H   0  0  0  0  0  0
  -22.4085  -11.9888   22.4779 H   0  0  0  0  0  0
  -21.1086  -13.1261   22.2611 H   0  0  0  0  0  0
  -24.6693  -15.8494   20.5388 H   0  0  0  0  0  0
  -26.2981  -15.6285   20.1416 H   0  0  0  0  0  0
  -26.7104  -32.5519   23.1155 H   0  0  0  0  0  0
  -25.0076  -33.9781   25.0496 H   0  0  0  0  0  0
  -22.6943  -31.3068   21.4060 H   0  0  0  0  0  0
  -23.3735  -35.9654   23.3315 H   0  0  0  0  0  0
  -24.3573  -36.8917   22.2058 H   0  0  0  0  0  0
  -23.7240  -37.6523   23.6651 H   0  0  0  0  0  0
  -26.0516  -31.5865   20.6002 H   0  0  0  0  0  0
  -26.8220  -30.8765   21.9904 H   0  0  0  0  0  0
  -28.0987  -29.0741   21.1902 H   0  0  0  0  0  0
  -26.0679  -25.9805   18.9734 H   0  0  0  0  0  0
  -23.9848  -27.2996   19.0161 H   0  0  0  0  0  0
  -23.7288  -30.5935   19.4032 H   0  0  0  0  0  0
  -22.7403  -29.2414   19.8676 H   0  0  0  0  0  0
  -25.1277  -36.1978   25.0830 H   0  0  0  0  0  0
  -20.9944  -28.3225   24.1432 H   0  0  0  0  0  0
  -20.5641  -26.2275   23.3595 H   0  0  0  0  0  0
  -21.6623  -26.7432   22.1211 H   0  0  0  0  0  0
  -19.6897  -25.6295   21.1225 H   0  0  0  0  0  0
  -19.6677  -27.3202   20.6732 H   0  0  0  0  0  0
  -17.4179  -26.6679   21.4015 H   0  0  0  0  0  0
  -18.0317  -26.0064   22.9009 H   0  0  0  0  0  0
  -19.7928  -30.7250   24.2294 H   0  0  0  0  0  0
  -17.5008  -31.6268   24.5159 H   0  0  0  0  0  0
  -15.5341  -30.2991   23.7651 H   0  0  0  0  0  0
  -15.8657  -28.0819   22.7077 H   0  0  0  0  0  0
  -24.5924  -30.7036   25.7822 H   0  0  0  0  0  0
  -24.8936  -32.2831   26.4978 H   0  0  0  0  0  0
  -25.8112  -30.8837   27.0228 H   0  0  0  0  0  0
  -26.2893  -29.6784   24.1211 H   0  0  0  0  0  0
  -27.4135  -29.7329   25.4603 H   0  0  0  0  0  0
  -27.8703  -30.4387   23.9271 H   0  0  0  0  0  0
  -27.2693  -33.3630   26.2084 H   0  0  0  0  0  0
  -28.3849  -32.6895   25.0298 H   0  0  0  0  0  0
  -28.0743  -31.8448   26.5385 H   0  0  0  0  0  0
  -28.2599  -38.0097   24.7512 H   0  0  0  0  0  0
  -28.1063  -36.2625   24.6299 H   0  0  0  0  0  0
  -27.2291  -37.1470   25.8871 H   0  0  0  0  0  0
  -20.9295  -29.8781   21.6959 H   0  0  0  0  0  0
  -26.0182  -38.2860   24.1415 H   0  0  0  0  0  0
  -30.0490  -20.1757   18.1696 H   0  0  0  0  0  0
  -28.7870  -20.5164   22.2846 H   0  0  0  0  0  0
  -29.6764  -22.5798   17.8528 H   0  0  0  0  0  0
  -28.4338  -22.9435   21.9640 H   0  0  0  0  0  0
  -30.2232  -18.5868   22.5074 H   0  0  0  0  0  0
  -28.6601  -17.9315   22.0876 H   0  0  0  0  0  0
  -27.9802  -17.6128   19.7763 H   0  0  0  0  0  0
  -28.9659  -18.1356   18.4385 H   0  0  0  0  0  0
  -30.0760  -16.0520   22.7084 H   0  0  0  0  0  0
  -31.4143  -16.6679   21.7831 H   0  0  0  0  0  0
  -30.6468  -16.4769   18.8237 H   0  0  0  0  0  0
  -29.1076  -15.6919   18.7027 H   0  0  0  0  0  0
  -30.8488  -18.5954   20.0886 H   0  0  0  0  0  0
  -28.4163  -24.6006   18.6240 H   0  0  0  0  0  0
  -29.9090  -24.8516   19.4923 H   0  0  0  0  0  0
  -27.2014  -25.1518   20.4734 H   0  0  0  0  0  0
  1 25  1  0  0  0
  1 30  2  0  0  0
  1 83  1  0  0  0
  2  3  1  0  0  0
  2 25  1  0  0  0
  2 85  1  0  0  0
  2 86  1  0  0  0
  3  4  1  0  0  0
  3 87  1  0  0  0
  3 88  1  0  0  0
  4  5  1  0  0  0
  4 89  1  0  0  0
  4 90  1  0  0  0
  5  6  1  0  0  0
  5 26  1  0  0  0
  5 91  1  0  0  0
  6 25  1  0  0  0
  6 92  1  0  0  0
  6 93  1  0  0  0
  7  8  2  0  0  0
  7 26  1  0  0  0
  7 29  1  0  0  0
  8  9  1  0  0  0
  8 22  1  0  0  0
  9 10  1  0  0  0
  9 27  2  0  0  0
 10 11  2  0  0  0
 10 15  1  0  0  0
 11 12  1  0  0  0
 11 94  1  0  0  0
 12 13  2  0  0  0
 12 95  1  0  0  0
 13 14  1  0  0  0
 13 31  1  0  0  0
 14 15  2  0  0  0
 14 96  1  0  0  0
 15 97  1  0  0  0
 16 17  2  0  0  0
 16 21  1  0  0  0
 16 31  1  0  0  0
 17 18  1  0  0  0
 17 98  1  0  0  0
 18 19  2  0  0  0
 18 99  1  0  0  0
 19 20  1  0  0  0
 19 24  1  0  0  0
 20 21  2  0  0  0
 20100  1  0  0  0
 21 23  1  0  0  0
 22 28  1  0  0  0
 22 32  2  0  0  0
 26 27  1  0  0  0
 28101  1  0  0  0
 28102  1  0  0  0
 29103  1  0  0  0
 29104  1  0  0  0
 33 34  1  0  0  0
 33 66  1  0  0  0
 33 70  2  0  0  0
 34 36  1  0  0  0
 34 59  1  0  0  0
 34105  1  0  0  0
 35 44  2  0  0  0
 35 45  1  0  0  0
 35 68  1  0  0  0
 36 56  1  0  0  0
 36106  1  0  0  0
 37 39  1  0  0  0
 37 47  1  0  0  0
 37 66  1  0  0  0
 37107  1  0  0  0
 38 43  2  0  0  0
 38 46  1  0  0  0
 38 47  1  0  0  0
 39 64  1  0  0  0
 39 67  2  0  0  0
 40 52  1  0  0  0
 40 53  2  0  0  0
 40 58  1  0  0  0
 41108  1  0  0  0
 41109  1  0  0  0
 41110  1  0  0  0
 41 48  1  0  0  0
 42 43  1  0  0  0
 42 66  1  0  0  0
 42111  1  0  0  0
 42112  1  0  0  0
 43 44  1  0  0  0
 44113  1  0  0  0
 45 46  2  0  0  0
 45114  1  0  0  0
 46115  1  0  0  0
 47116  1  0  0  0
 47117  1  0  0  0
 48 56  1  0  0  0
 48 65  1  0  0  0
 48118  1  0  0  0
 49 50  1  0  0  0
 49 53  1  0  0  0
 49 64  1  0  0  0
 49119  1  0  0  0
 50 51  1  0  0  0
 50120  1  0  0  0
 50121  1  0  0  0
 51 52  1  0  0  0
 51122  1  0  0  0
 51123  1  0  0  0
 52124  1  0  0  0
 52125  1  0  0  0
 53 54  1  0  0  0
 54 55  2  0  0  0
 54126  1  0  0  0
 55 57  1  0  0  0
 55127  1  0  0  0
 56 69  2  0  0  0
 57 58  2  0  0  0
 57128  1  0  0  0
 58129  1  0  0  0
 59 60  1  0  0  0
 59 61  1  0  0  0
 59 62  1  0  0  0
 60130  1  0  0  0
 60131  1  0  0  0
 60132  1  0  0  0
 61133  1  0  0  0
 61134  1  0  0  0
 61135  1  0  0  0
 62136  1  0  0  0
 62137  1  0  0  0
 62138  1  0  0  0
 63 65  1  0  0  0
 63139  1  0  0  0
 63140  1  0  0  0
 63141  1  0  0  0
 64142  1  0  0  0
 65143  1  0  0  0
 68 84  1  0  0  0
 71 73  2  0  0  0
 71 75  1  0  0  0
 71144  1  0  0  0
 72 74  1  0  0  0
 72 75  2  0  0  0
 72145  1  0  0  0
 73 76  1  0  0  0
 73146  1  0  0  0
 74 76  2  0  0  0
 74147  1  0  0  0
 75 81  1  0  0  0
 76 82  1  0  0  0
 77 79  1  0  0  0
 77 81  1  0  0  0
 77148  1  0  0  0
 77149  1  0  0  0
 78 80  1  0  0  0
 78 81  1  0  0  0
 78150  1  0  0  0
 78151  1  0  0  0
 79 83  1  0  0  0
 79152  1  0  0  0
 79153  1  0  0  0
 80 83  1  0  0  0
 80154  1  0  0  0
 80155  1  0  0  0
 81156  1  0  0  0
 82 84  1  0  0  0
 82157  1  0  0  0
 82158  1  0  0  0
 84159  1  0  0  0
M  ISO  4   1 100  68 101  83 100  84 101
M  END
> <chiral flag>
0

> <version>
0

> <s_m_source_file>
/data/baiqing/PycharmProjects/Reinvent-master-3.2/result/LINK_invent/BTK/process_docking_weight1_custom_product_contain_oxygen_bond_distance_aromatic_linkinvent_7_9_3/rearranged_h_0004.sdf

> <i_m_source_file_index>
53

> <r_mmod_Potential_Energy-OPLS-2005>
192.912857055664

> <r_mmod_Stretch_Energy-OPLS-2005>
44.448184967041

> <r_mmod_Bend_Energy-OPLS-2005>
119.779724121094

> <r_mmod_Torsional_Energy-OPLS-2005>
329.556091308594

> <r_mmod_Improper_Torsional_Energy-OPLS-2005>
11.9926729202271

> <r_mmod_Van_der_Waal_Energy-OPLS-2005>
150.572677612305

> <r_mmod_Electrostatic_Energy-OPLS-2005>
-288.060150146484

> <r_mmod_Solvation_Energy-OPLS-2005>
-196.844192504883

> <b_mmod_Minimization_Converged-OPLS-2005>
0

> <r_mmod_RMS_Derivative-OPLS-2005>
1.34854304790497

$$$$
53
                    3D
 Structure written by MMmdl.
151160  0  0  1  0            999 V2000
  -30.4926  -15.0962   20.4008 C   0  0  0  0  0  0
  -30.4435  -12.6909   19.5066 C   0  0  0  0  0  0
  -29.5290  -12.5522   18.2660 C   0  0  0  0  0  0
  -28.0681  -12.3087   18.6890 C   0  0  0  0  0  0
  -27.6214  -13.2596   19.8295 C   0  0  2  0  0  0
  -28.6628  -13.3547   20.9638 C   0  0  0  0  0  0
  -25.2427  -13.8224   20.5723 C   0  0  0  0  0  0
  -24.1763  -13.0430   20.9238 C   0  0  0  0  0  0
  -24.6399  -11.6923   20.8753 C   0  0  0  0  0  0
  -23.9090  -10.4288   21.0406 C   0  0  0  0  0  0
  -24.3636   -9.4203   21.9188 C   0  0  0  0  0  0
  -23.6304   -8.2242   22.0759 C   0  0  0  0  0  0
  -22.4285   -8.0283   21.3547 C   0  0  0  0  0  0
  -21.9926   -9.0257   20.4646 C   0  0  0  0  0  0
  -22.7260  -10.2133   20.3058 C   0  0  0  0  0  0
  -21.6857   -6.0738   22.5281 C   0  0  0  0  0  0
  -21.4017   -6.5641   23.8215 C   0  0  0  0  0  0
  -21.3662   -5.6792   24.9175 C   0  0  0  0  0  0
  -21.6044   -4.3055   24.7226 C   0  0  0  0  0  0
  -21.8819   -3.8149   23.4347 C   0  0  0  0  0  0
  -21.9193   -4.6965   22.3402 C   0  0  0  0  0  0
  -22.7781  -13.5192   21.1890 C   0  0  0  0  0  0
  -22.1661   -4.2154   21.0978 F   0  0  0  0  0  0
  -21.5631   -3.4538   25.7739 F   0  0  0  0  0  0
  -29.9157  -13.8131   20.3475 N   0  0  0  0  0  0
  -26.2856  -12.9477   20.3227 N   0  0  0  0  0  0
  -25.9336  -11.6596   20.5732 N   0  0  0  0  0  0
  -22.0433  -12.8180   22.0442 N   0  0  0  0  0  0
  -25.4049  -15.1963   20.4155 N   0  0  0  0  0  0
  -31.7124  -15.1341   20.1906 O   0  0  0  0  0  0
  -21.6645   -6.8884   21.4244 O   0  0  0  0  0  0
  -22.3463  -14.5493   20.6729 O   0  0  0  0  0  0
  -24.6539  -31.8342   23.1802 C   0  0  0  0  0  0
  -25.9264  -32.4646   23.8227 C   0  0  1  0  0  0
  -27.2115  -27.0230   20.1723 C   0  0  0  0  0  0
  -25.5971  -33.8454   24.2143 N   0  0  0  0  0  0
  -23.4627  -30.4509   21.5281 C   0  0  2  0  0  0
  -24.9133  -28.8575   20.1154 C   0  0  0  0  0  0
  -22.7613  -29.4500   22.4823 C   0  0  0  0  0  0
  -18.0311  -28.1407   22.8473 C   0  0  0  0  0  0
  -24.1494  -36.7231   23.2643 C   0  0  0  0  0  0
  -26.0272  -30.6702   21.3978 C   0  0  0  0  0  0
  -26.0949  -29.2696   20.7444 C   0  0  0  0  0  0
  -27.2430  -28.3715   20.7516 C   0  0  0  0  0  0
  -26.0081  -26.7508   19.4869 C   0  0  0  0  0  0
  -24.8896  -27.6148   19.4671 C   0  0  0  0  0  0
  -23.6965  -29.7742   20.1514 C   0  0  0  0  0  0
  -25.4129  -36.3003   24.0309 C   0  0  1  0  0  0
  -20.5930  -28.3743   23.1210 C   0  0  2  0  0  0
  -20.6795  -26.9435   22.5402 C   0  0  0  0  0  0
  -19.5768  -26.6383   21.5213 C   0  0  0  0  0  0
  -18.1949  -26.7941   22.1622 C   0  0  0  0  0  0
  -19.1570  -28.8894   23.2833 C   0  0  0  0  0  0
  -18.9482  -30.1485   23.8867 C   0  0  0  0  0  0
  -17.6477  -30.6598   24.0558 C   0  0  0  0  0  0
  -25.9085  -34.9379   23.5041 C   0  0  0  0  0  0
  -16.5369  -29.9087   23.6342 C   0  0  0  0  0  0
  -16.7293  -28.6506   23.0363 C   0  0  0  0  0  0
  -26.4545  -31.6550   25.0713 C   0  0  0  0  0  0
  -25.3697  -31.3770   26.1386 C   0  0  0  0  0  0
  -27.0420  -30.2930   24.6374 C   0  0  0  0  0  0
  -27.6060  -32.4334   25.7506 C   0  0  0  0  0  0
  -27.5578  -37.1773   24.8463 C   0  0  0  0  0  0
  -21.4294  -29.3051   22.3571 N   0  0  0  0  0  0
  -26.4287  -37.3728   23.9407 N   0  0  0  0  0  0
  -24.7354  -31.0091   22.0899 N   0  0  0  0  0  0
  -23.4207  -28.8051   23.3016 O   0  0  0  0  0  0
  -28.2410  -25.9752   20.2091 O   0  0  0  0  0  0
  -26.5677  -34.8893   22.4624 O   0  0  0  0  0  0
  -23.5630  -32.1273   23.6951 O   0  0  0  0  0  0
  -31.1256  -22.1966   21.4847 C   0  0  0  0  0  0
  -30.7265  -20.8673   21.1602 C   0  0  0  0  0  0
  -30.3216  -23.3415   21.2466 C   0  0  0  0  0  0
  -29.4871  -20.5382   20.5520 C   0  0  0  0  0  0
  -29.0690  -23.1949   20.6312 C   0  0  0  0  0  0
  -28.6986  -21.8127   20.2837 C   0  0  0  0  0  0
  -29.2181  -18.9183   20.3544 C   0  0  0  0  0  0
  -27.3538  -21.9900   19.5977 C   0  0  0  0  0  0
  -27.1042  -23.5565   19.3980 C   0  0  0  0  0  0
  -27.9756  -24.3955   20.3937 C   0  0  2  0  0  0
  -30.0335  -17.8232   20.5049 N   0  0  0  0  0  0
  -29.6997  -16.3161   20.4588 N   0  0  0  0  0  0
  -31.4704  -12.8750   19.1878 H   0  0  0  0  0  0
  -30.4728  -11.7599   20.0756 H   0  0  0  0  0  0
  -29.8754  -11.7405   17.6250 H   0  0  0  0  0  0
  -29.5894  -13.4628   17.6675 H   0  0  0  0  0  0
  -27.9920  -11.2734   19.0236 H   0  0  0  0  0  0
  -27.4020  -12.4017   17.8303 H   0  0  0  0  0  0
  -27.5604  -14.2467   19.3706 H   0  0  0  0  0  0
  -28.7899  -12.3955   21.4684 H   0  0  0  0  0  0
  -28.3378  -14.0668   21.7238 H   0  0  0  0  0  0
  -25.2783   -9.5673   22.4762 H   0  0  0  0  0  0
  -24.0009   -7.4632   22.7481 H   0  0  0  0  0  0
  -21.0859   -8.8777   19.8951 H   0  0  0  0  0  0
  -22.3723  -10.9672   19.6165 H   0  0  0  0  0  0
  -21.2009   -7.6149   23.9721 H   0  0  0  0  0  0
  -21.1486   -6.0522   25.9078 H   0  0  0  0  0  0
  -22.0595   -2.7610   23.2847 H   0  0  0  0  0  0
  -22.4063  -11.9858   22.4842 H   0  0  0  0  0  0
  -21.1046  -13.1200   22.2643 H   0  0  0  0  0  0
  -24.6285  -15.8405   20.5246 H   0  0  0  0  0  0
  -26.2379  -15.6414   20.0544 H   0  0  0  0  0  0
  -26.7325  -32.5219   23.0940 H   0  0  0  0  0  0
  -25.0091  -33.9555   25.0275 H   0  0  0  0  0  0
  -22.7717  -31.2805   21.3653 H   0  0  0  0  0  0
  -23.3767  -35.9552   23.3283 H   0  0  0  0  0  0
  -24.3573  -36.8891   22.2061 H   0  0  0  0  0  0
  -23.7240  -37.6414   23.6699 H   0  0  0  0  0  0
  -26.1943  -31.4158   20.6193 H   0  0  0  0  0  0
  -26.8932  -30.7258   22.0454 H   0  0  0  0  0  0
  -28.1416  -28.6851   21.2640 H   0  0  0  0  0  0
  -25.9037  -25.8252   18.9486 H   0  0  0  0  0  0
  -23.9970  -27.3000   18.9446 H   0  0  0  0  0  0
  -23.8450  -30.5460   19.3956 H   0  0  0  0  0  0
  -22.8087  -29.2238   19.8348 H   0  0  0  0  0  0
  -25.1324  -36.1819   25.0803 H   0  0  0  0  0  0
  -21.0019  -28.3345   24.1331 H   0  0  0  0  0  0
  -20.5685  -26.2359   23.3632 H   0  0  0  0  0  0
  -21.6660  -26.7428   22.1201 H   0  0  0  0  0  0
  -19.6930  -25.6282   21.1271 H   0  0  0  0  0  0
  -19.6713  -27.3170   20.6724 H   0  0  0  0  0  0
  -17.4220  -26.6684   21.4027 H   0  0  0  0  0  0
  -18.0348  -26.0094   22.9029 H   0  0  0  0  0  0
  -19.7954  -30.7310   24.2231 H   0  0  0  0  0  0
  -17.5023  -31.6275   24.5161 H   0  0  0  0  0  0
  -15.5366  -30.2977   23.7682 H   0  0  0  0  0  0
  -15.8693  -28.0810   22.7105 H   0  0  0  0  0  0
  -24.5890  -30.7110   25.7694 H   0  0  0  0  0  0
  -24.8876  -32.2962   26.4725 H   0  0  0  0  0  0
  -25.7951  -30.8994   27.0221 H   0  0  0  0  0  0
  -26.3059  -29.6632   24.1367 H   0  0  0  0  0  0
  -27.3967  -29.7261   25.4992 H   0  0  0  0  0  0
  -27.8997  -30.4132   23.9755 H   0  0  0  0  0  0
  -27.2648  -33.3666   26.1997 H   0  0  0  0  0  0
  -28.3916  -32.6841   25.0367 H   0  0  0  0  0  0
  -28.0674  -31.8515   26.5496 H   0  0  0  0  0  0
  -28.2573  -38.0089   24.7516 H   0  0  0  0  0  0
  -28.1095  -36.2616   24.6283 H   0  0  0  0  0  0
  -27.2290  -37.1406   25.8863 H   0  0  0  0  0  0
  -20.9527  -29.8759   21.6730 H   0  0  0  0  0  0
  -26.0145  -38.2791   24.1419 H   0  0  0  0  0  0
  -32.0860  -22.3403   21.9605 H   0  0  0  0  0  0
  -31.4075  -20.0659   21.4123 H   0  0  0  0  0  0
  -30.6635  -24.3219   21.5481 H   0  0  0  0  0  0
  -28.1894  -18.6951   20.0683 H   0  0  0  0  0  0
  -26.5824  -21.5595   20.2373 H   0  0  0  0  0  0
  -27.3305  -21.4563   18.6471 H   0  0  0  0  0  0
  -26.0405  -23.7802   19.4635 H   0  0  0  0  0  0
  -27.4241  -23.8148   18.3882 H   0  0  0  0  0  0
  -27.4213  -24.3833   21.3331 H   0  0  0  0  0  0
  -28.7051  -16.1402   20.4820 H   0  0  0  0  0  0
  1 25  1  0  0  0
  1 30  2  0  0  0
  1 82  1  0  0  0
  2  3  1  0  0  0
  2 25  1  0  0  0
  2 83  1  0  0  0
  2 84  1  0  0  0
  3  4  1  0  0  0
  3 85  1  0  0  0
  3 86  1  0  0  0
  4  5  1  0  0  0
  4 87  1  0  0  0
  4 88  1  0  0  0
  5  6  1  0  0  0
  5 26  1  0  0  0
  5 89  1  0  0  0
  6 25  1  0  0  0
  6 90  1  0  0  0
  6 91  1  0  0  0
  7  8  2  0  0  0
  7 26  1  0  0  0
  7 29  1  0  0  0
  8  9  1  0  0  0
  8 22  1  0  0  0
  9 10  1  0  0  0
  9 27  2  0  0  0
 10 11  2  0  0  0
 10 15  1  0  0  0
 11 12  1  0  0  0
 11 92  1  0  0  0
 12 13  2  0  0  0
 12 93  1  0  0  0
 13 14  1  0  0  0
 13 31  1  0  0  0
 14 15  2  0  0  0
 14 94  1  0  0  0
 15 95  1  0  0  0
 16 17  2  0  0  0
 16 21  1  0  0  0
 16 31  1  0  0  0
 17 18  1  0  0  0
 17 96  1  0  0  0
 18 19  2  0  0  0
 18 97  1  0  0  0
 19 20  1  0  0  0
 19 24  1  0  0  0
 20 21  2  0  0  0
 20 98  1  0  0  0
 21 23  1  0  0  0
 22 28  1  0  0  0
 22 32  2  0  0  0
 26 27  1  0  0  0
 28 99  1  0  0  0
 28100  1  0  0  0
 29101  1  0  0  0
 29102  1  0  0  0
 33 34  1  0  0  0
 33 66  1  0  0  0
 33 70  2  0  0  0
 34 36  1  0  0  0
 34 59  1  0  0  0
 34103  1  0  0  0
 35 44  2  0  0  0
 35 45  1  0  0  0
 35 68  1  0  0  0
 36 56  1  0  0  0
 36104  1  0  0  0
 37 39  1  0  0  0
 37 47  1  0  0  0
 37 66  1  0  0  0
 37105  1  0  0  0
 38 43  2  0  0  0
 38 46  1  0  0  0
 38 47  1  0  0  0
 39 64  1  0  0  0
 39 67  2  0  0  0
 40 52  1  0  0  0
 40 53  2  0  0  0
 40 58  1  0  0  0
 41106  1  0  0  0
 41107  1  0  0  0
 41108  1  0  0  0
 41 48  1  0  0  0
 42 43  1  0  0  0
 42 66  1  0  0  0
 42109  1  0  0  0
 42110  1  0  0  0
 43 44  1  0  0  0
 44111  1  0  0  0
 45 46  2  0  0  0
 45112  1  0  0  0
 46113  1  0  0  0
 47114  1  0  0  0
 47115  1  0  0  0
 48 56  1  0  0  0
 48 65  1  0  0  0
 48116  1  0  0  0
 49 50  1  0  0  0
 49 53  1  0  0  0
 49 64  1  0  0  0
 49117  1  0  0  0
 50 51  1  0  0  0
 50118  1  0  0  0
 50119  1  0  0  0
 51 52  1  0  0  0
 51120  1  0  0  0
 51121  1  0  0  0
 52122  1  0  0  0
 52123  1  0  0  0
 53 54  1  0  0  0
 54 55  2  0  0  0
 54124  1  0  0  0
 55 57  1  0  0  0
 55125  1  0  0  0
 56 69  2  0  0  0
 57 58  2  0  0  0
 57126  1  0  0  0
 58127  1  0  0  0
 59 60  1  0  0  0
 59 61  1  0  0  0
 59 62  1  0  0  0
 60128  1  0  0  0
 60129  1  0  0  0
 60130  1  0  0  0
 61131  1  0  0  0
 61132  1  0  0  0
 61133  1  0  0  0
 62134  1  0  0  0
 62135  1  0  0  0
 62136  1  0  0  0
 63 65  1  0  0  0
 63137  1  0  0  0
 63138  1  0  0  0
 63139  1  0  0  0
 64140  1  0  0  0
 65141  1  0  0  0
 68 80  1  0  0  0
 71 72  2  0  0  0
 71 73  1  0  0  0
 71142  1  0  0  0
 72 74  1  0  0  0
 72143  1  0  0  0
 73 75  2  0  0  0
 73144  1  0  0  0
 74 76  2  0  0  0
 74 77  1  0  0  0
 75 76  1  0  0  0
 75 80  1  0  0  0
 76 78  1  0  0  0
 77 81  2  0  0  0
 77145  1  0  0  0
 78 79  1  0  0  0
 78146  1  0  0  0
 78147  1  0  0  0
 79 80  1  0  0  0
 79148  1  0  0  0
 79149  1  0  0  0
 80150  1  0  0  0
 81 82  1  0  0  0
 82151  1  0  0  0
M  ISO  4   1 100  68 101  80 101  82 100
M  END
> <chiral flag>
0

> <version>
0

> <s_m_source_file>
/data/baiqing/PycharmProjects/Reinvent-master-3.2/result/LINK_invent/BTK/process_docking_weight1_custom_product_contain_oxygen_bond_distance_aromatic_linkinvent_7_9_3/rearranged_h_0004.sdf

> <i_m_source_file_index>
54

> <r_mmod_Potential_Energy-OPLS-2005>
873.005126953125

> <r_mmod_Stretch_Energy-OPLS-2005>
368.757690429688

> <r_mmod_Bend_Energy-OPLS-2005>
359.948608398438

> <r_mmod_Torsional_Energy-OPLS-2005>
222.502578735352

> <r_mmod_Improper_Torsional_Energy-OPLS-2005>
5.18089628219604

> <r_mmod_Van_der_Waal_Energy-OPLS-2005>
123.449272155762

> <r_mmod_Electrostatic_Energy-OPLS-2005>
-288.909729003906

> <r_mmod_Solvation_Energy-OPLS-2005>
-225.891860961914

> <b_mmod_Minimization_Converged-OPLS-2005>
0

> <r_mmod_RMS_Derivative-OPLS-2005>
0.781360864639282

$$$$
54
                    3D
 Structure written by MMmdl.
156165  0  0  1  0            999 V2000
  -30.6368  -14.4802   20.4374 C   0  0  0  0  0  0
  -30.4212  -12.2660   19.4285 C   0  0  0  0  0  0
  -29.4852  -12.4356   18.2092 C   0  0  0  0  0  0
  -28.0070  -12.2951   18.6303 C   0  0  0  0  0  0
  -27.6397  -13.1775   19.8533 C   0  0  2  0  0  0
  -28.6912  -13.0274   20.9826 C   0  0  0  0  0  0
  -25.2506  -13.8069   20.5706 C   0  0  0  0  0  0
  -24.1750  -13.0392   20.9232 C   0  0  0  0  0  0
  -24.6284  -11.6857   20.8788 C   0  0  0  0  0  0
  -23.8954  -10.4262   21.0439 C   0  0  0  0  0  0
  -24.3548   -9.4179   21.9191 C   0  0  0  0  0  0
  -23.6249   -8.2199   22.0744 C   0  0  0  0  0  0
  -22.4229   -8.0239   21.3534 C   0  0  0  0  0  0
  -21.9838   -9.0201   20.4646 C   0  0  0  0  0  0
  -22.7143  -10.2094   20.3069 C   0  0  0  0  0  0
  -21.6838   -6.0715   22.5274 C   0  0  0  0  0  0
  -21.4007   -6.5628   23.8204 C   0  0  0  0  0  0
  -21.3670   -5.6786   24.9173 C   0  0  0  0  0  0
  -21.6047   -4.3046   24.7225 C   0  0  0  0  0  0
  -21.8822   -3.8129   23.4350 C   0  0  0  0  0  0
  -21.9180   -4.6944   22.3402 C   0  0  0  0  0  0
  -22.7787  -13.5200   21.1902 C   0  0  0  0  0  0
  -22.1660   -4.2128   21.0979 F   0  0  0  0  0  0
  -21.5629   -3.4542   25.7741 F   0  0  0  0  0  0
  -30.0224  -13.2761   20.4110 N   0  0  0  0  0  0
  -26.2894  -12.9182   20.3328 N   0  0  0  0  0  0
  -25.9195  -11.6379   20.5791 N   0  0  0  0  0  0
  -22.0444  -12.8200   22.0489 N   0  0  0  0  0  0
  -25.4225  -15.1783   20.4140 N   0  0  0  0  0  0
  -31.8527  -14.6389   20.3239 O   0  0  0  0  0  0
  -21.6612   -6.8839   21.4230 O   0  0  0  0  0  0
  -22.3462  -14.5481   20.6726 O   0  0  0  0  0  0
  -24.6107  -31.8701   23.2216 C   0  0  0  0  0  0
  -25.9014  -32.4870   23.8418 C   0  0  1  0  0  0
  -27.2077  -27.4771   20.0649 C   0  0  0  0  0  0
  -25.5884  -33.8659   24.2358 N   0  0  0  0  0  0
  -23.3935  -30.4982   21.5622 C   0  0  2  0  0  0
  -24.8298  -28.9807   20.1077 C   0  0  0  0  0  0
  -22.7365  -29.4611   22.5008 C   0  0  0  0  0  0
  -18.0233  -28.1403   22.8482 C   0  0  0  0  0  0
  -24.1501  -36.7347   23.2628 C   0  0  0  0  0  0
  -25.9166  -30.8468   21.3619 C   0  0  0  0  0  0
  -25.9897  -29.4824   20.7149 C   0  0  0  0  0  0
  -27.1834  -28.7329   20.7007 C   0  0  0  0  0  0
  -26.0412  -26.9875   19.4404 C   0  0  0  0  0  0
  -24.8483  -27.7326   19.4668 C   0  0  0  0  0  0
  -23.5970  -29.8512   20.1655 C   0  0  0  0  0  0
  -25.4123  -36.3142   24.0324 C   0  0  1  0  0  0
  -20.5828  -28.3627   23.1374 C   0  0  2  0  0  0
  -20.6740  -26.9386   22.5429 C   0  0  0  0  0  0
  -19.5727  -26.6387   21.5207 C   0  0  0  0  0  0
  -18.1900  -26.7954   22.1620 C   0  0  0  0  0  0
  -19.1490  -28.8832   23.2935 C   0  0  0  0  0  0
  -18.9427  -30.1451   23.8934 C   0  0  0  0  0  0
  -17.6440  -30.6620   24.0568 C   0  0  0  0  0  0
  -25.9011  -34.9503   23.5142 C   0  0  0  0  0  0
  -16.5330  -29.9123   23.6332 C   0  0  0  0  0  0
  -16.7225  -28.6546   23.0333 C   0  0  0  0  0  0
  -26.4445  -31.6655   25.0728 C   0  0  0  0  0  0
  -25.3729  -31.3762   26.1500 C   0  0  0  0  0  0
  -27.0265  -30.3103   24.6065 C   0  0  0  0  0  0
  -27.6058  -32.4331   25.7469 C   0  0  0  0  0  0
  -27.5565  -37.1863   24.8499 C   0  0  0  0  0  0
  -21.4085  -29.3026   22.3815 N   0  0  0  0  0  0
  -26.4338  -37.3789   23.9352 N   0  0  0  0  0  0
  -24.6609  -31.0786   22.1119 N   0  0  0  0  0  0
  -23.4159  -28.8100   23.2991 O   0  0  0  0  0  0
  -28.3688  -26.7571   20.0026 O   0  0  0  0  0  0
  -26.5585  -34.8944   22.4703 O   0  0  0  0  0  0
  -23.5323  -32.1425   23.7659 O   0  0  0  0  0  0
  -26.2007  -20.7948   21.4506 C   0  0  0  0  0  0
  -26.4328  -19.6022   21.3374 C   0  0  0  0  0  0
  -26.8622  -22.8879   22.5893 C   0  0  0  0  0  0
  -26.6903  -22.8123   20.1510 C   0  0  0  0  0  0
  -27.2336  -17.9666   19.6966 C   0  0  0  0  0  0
  -27.4862  -24.1509   22.5035 C   0  0  0  0  0  0
  -27.3432  -24.0561   20.0690 C   0  0  0  0  0  0
  -28.1393  -16.9598   19.3316 C   0  0  0  0  0  0
  -28.9230  -16.7943   21.6396 C   0  0  0  0  0  0
  -26.4970  -22.2076   21.4086 C   0  0  0  0  0  0
  -27.1828  -18.4050   21.0321 C   0  0  0  0  0  0
  -27.7668  -24.7187   21.2436 C   0  0  0  0  0  0
  -28.9943  -16.3773   20.2917 C   0  0  0  0  0  0
  -28.0154  -17.8121   22.0107 C   0  0  0  0  0  0
  -28.6218  -25.9749   21.1610 C   0  0  0  0  0  0
  -29.8708  -15.3789   19.8043 N   0  0  0  0  0  0
  -27.9900  -18.2537   23.2957 F   0  0  0  0  0  0
  -31.4672  -12.3725   19.1326 H   0  0  0  0  0  0
  -30.3239  -11.2676   19.8626 H   0  0  0  0  0  0
  -29.7288  -11.6974   17.4456 H   0  0  0  0  0  0
  -29.6413  -13.4119   17.7472 H   0  0  0  0  0  0
  -27.8358  -11.2465   18.8755 H   0  0  0  0  0  0
  -27.3479  -12.5198   17.7931 H   0  0  0  0  0  0
  -27.6351  -14.1990   19.4883 H   0  0  0  0  0  0
  -28.6528  -12.0245   21.4093 H   0  0  0  0  0  0
  -28.4806  -13.7225   21.7991 H   0  0  0  0  0  0
  -25.2702   -9.5679   22.4760 H   0  0  0  0  0  0
  -23.9987   -7.4586   22.7457 H   0  0  0  0  0  0
  -21.0760   -8.8698   19.8959 H   0  0  0  0  0  0
  -22.3578  -10.9632   19.6183 H   0  0  0  0  0  0
  -21.2006   -7.6142   23.9699 H   0  0  0  0  0  0
  -21.1499   -6.0527   25.9077 H   0  0  0  0  0  0
  -22.0591   -2.7590   23.2847 H   0  0  0  0  0  0
  -22.4073  -11.9870   22.4890 H   0  0  0  0  0  0
  -21.1077  -13.1226   22.2785 H   0  0  0  0  0  0
  -24.6536  -15.8302   20.5266 H   0  0  0  0  0  0
  -26.2729  -15.6128   20.0796 H   0  0  0  0  0  0
  -26.7114  -32.5548   23.1189 H   0  0  0  0  0  0
  -25.0123  -33.9881   25.0556 H   0  0  0  0  0  0
  -22.6808  -31.3143   21.4422 H   0  0  0  0  0  0
  -23.3711  -35.9750   23.3500 H   0  0  0  0  0  0
  -24.3499  -36.8749   22.1989 H   0  0  0  0  0  0
  -23.7381  -37.6654   23.6527 H   0  0  0  0  0  0
  -26.0107  -31.6161   20.5944 H   0  0  0  0  0  0
  -26.8148  -30.9045   21.9664 H   0  0  0  0  0  0
  -28.0891  -29.1170   21.1500 H   0  0  0  0  0  0
  -26.0470  -26.0479   18.9080 H   0  0  0  0  0  0
  -23.9613  -27.3694   18.9609 H   0  0  0  0  0  0
  -23.7087  -30.6407   19.4220 H   0  0  0  0  0  0
  -22.7213  -29.2798   19.8585 H   0  0  0  0  0  0
  -25.1344  -36.2024   25.0828 H   0  0  0  0  0  0
  -20.9879  -28.3202   24.1519 H   0  0  0  0  0  0
  -20.5601  -26.2222   23.3571 H   0  0  0  0  0  0
  -21.6625  -26.7432   22.1238 H   0  0  0  0  0  0
  -19.6862  -25.6275   21.1281 H   0  0  0  0  0  0
  -19.6745  -27.3168   20.6727 H   0  0  0  0  0  0
  -17.4149  -26.6648   21.4062 H   0  0  0  0  0  0
  -18.0361  -26.0103   22.9039 H   0  0  0  0  0  0
  -19.7896  -30.7247   24.2350 H   0  0  0  0  0  0
  -17.5000  -31.6307   24.5158 H   0  0  0  0  0  0
  -15.5342  -30.3052   23.7662 H   0  0  0  0  0  0
  -15.8598  -28.0906   22.7032 H   0  0  0  0  0  0
  -24.5872  -30.7158   25.7840 H   0  0  0  0  0  0
  -24.8945  -32.2943   26.4941 H   0  0  0  0  0  0
  -25.8054  -30.8909   27.0266 H   0  0  0  0  0  0
  -26.2802  -29.6863   24.1142 H   0  0  0  0  0  0
  -27.4112  -29.7318   25.4475 H   0  0  0  0  0  0
  -27.8612  -30.4441   23.9168 H   0  0  0  0  0  0
  -27.2710  -33.3592   26.2144 H   0  0  0  0  0  0
  -28.3807  -32.6940   25.0261 H   0  0  0  0  0  0
  -28.0814  -31.8387   26.5278 H   0  0  0  0  0  0
  -28.2786  -37.9952   24.7294 H   0  0  0  0  0  0
  -28.0858  -36.2493   24.6711 H   0  0  0  0  0  0
  -27.2231  -37.2016   25.8886 H   0  0  0  0  0  0
  -20.9205  -29.8785   21.7106 H   0  0  0  0  0  0
  -26.0268  -38.2908   24.1223 H   0  0  0  0  0  0
  -26.7608  -22.4052   23.5495 H   0  0  0  0  0  0
  -26.4450  -22.2801   19.2419 H   0  0  0  0  0  0
  -26.6168  -18.4396   18.9440 H   0  0  0  0  0  0
  -27.8222  -24.6463   23.4059 H   0  0  0  0  0  0
  -27.5747  -24.4656   19.0945 H   0  0  0  0  0  0
  -28.1765  -16.6548   18.2907 H   0  0  0  0  0  0
  -29.5698  -16.3728   22.3962 H   0  0  0  0  0  0
  -28.5207  -26.5696   22.0702 H   0  0  0  0  0  0
  -29.6621  -25.6625   21.1274 H   0  0  0  0  0  0
  -29.7064  -15.1178   18.8452 H   0  0  0  0  0  0
  1 25  1  0  0  0
  1 30  2  0  0  0
  1 86  1  0  0  0
  2  3  1  0  0  0
  2 25  1  0  0  0
  2 88  1  0  0  0
  2 89  1  0  0  0
  3  4  1  0  0  0
  3 90  1  0  0  0
  3 91  1  0  0  0
  4  5  1  0  0  0
  4 92  1  0  0  0
  4 93  1  0  0  0
  5  6  1  0  0  0
  5 26  1  0  0  0
  5 94  1  0  0  0
  6 25  1  0  0  0
  6 95  1  0  0  0
  6 96  1  0  0  0
  7  8  2  0  0  0
  7 26  1  0  0  0
  7 29  1  0  0  0
  8  9  1  0  0  0
  8 22  1  0  0  0
  9 10  1  0  0  0
  9 27  2  0  0  0
 10 11  2  0  0  0
 10 15  1  0  0  0
 11 12  1  0  0  0
 11 97  1  0  0  0
 12 13  2  0  0  0
 12 98  1  0  0  0
 13 14  1  0  0  0
 13 31  1  0  0  0
 14 15  2  0  0  0
 14 99  1  0  0  0
 15100  1  0  0  0
 16 17  2  0  0  0
 16 21  1  0  0  0
 16 31  1  0  0  0
 17 18  1  0  0  0
 17101  1  0  0  0
 18 19  2  0  0  0
 18102  1  0  0  0
 19 20  1  0  0  0
 19 24  1  0  0  0
 20 21  2  0  0  0
 20103  1  0  0  0
 21 23  1  0  0  0
 22 28  1  0  0  0
 22 32  2  0  0  0
 26 27  1  0  0  0
 28104  1  0  0  0
 28105  1  0  0  0
 29106  1  0  0  0
 29107  1  0  0  0
 33 34  1  0  0  0
 33 66  1  0  0  0
 33 70  2  0  0  0
 34 36  1  0  0  0
 34 59  1  0  0  0
 34108  1  0  0  0
 35 44  2  0  0  0
 35 45  1  0  0  0
 35 68  1  0  0  0
 36 56  1  0  0  0
 36109  1  0  0  0
 37 39  1  0  0  0
 37 47  1  0  0  0
 37 66  1  0  0  0
 37110  1  0  0  0
 38 43  2  0  0  0
 38 46  1  0  0  0
 38 47  1  0  0  0
 39 64  1  0  0  0
 39 67  2  0  0  0
 40 52  1  0  0  0
 40 53  2  0  0  0
 40 58  1  0  0  0
 41111  1  0  0  0
 41112  1  0  0  0
 41113  1  0  0  0
 41 48  1  0  0  0
 42 43  1  0  0  0
 42 66  1  0  0  0
 42114  1  0  0  0
 42115  1  0  0  0
 43 44  1  0  0  0
 44116  1  0  0  0
 45 46  2  0  0  0
 45117  1  0  0  0
 46118  1  0  0  0
 47119  1  0  0  0
 47120  1  0  0  0
 48 56  1  0  0  0
 48 65  1  0  0  0
 48121  1  0  0  0
 49 50  1  0  0  0
 49 53  1  0  0  0
 49 64  1  0  0  0
 49122  1  0  0  0
 50 51  1  0  0  0
 50123  1  0  0  0
 50124  1  0  0  0
 51 52  1  0  0  0
 51125  1  0  0  0
 51126  1  0  0  0
 52127  1  0  0  0
 52128  1  0  0  0
 53 54  1  0  0  0
 54 55  2  0  0  0
 54129  1  0  0  0
 55 57  1  0  0  0
 55130  1  0  0  0
 56 69  2  0  0  0
 57 58  2  0  0  0
 57131  1  0  0  0
 58132  1  0  0  0
 59 60  1  0  0  0
 59 61  1  0  0  0
 59 62  1  0  0  0
 60133  1  0  0  0
 60134  1  0  0  0
 60135  1  0  0  0
 61136  1  0  0  0
 61137  1  0  0  0
 61138  1  0  0  0
 62139  1  0  0  0
 62140  1  0  0  0
 62141  1  0  0  0
 63 65  1  0  0  0
 63142  1  0  0  0
 63143  1  0  0  0
 63144  1  0  0  0
 64145  1  0  0  0
 65146  1  0  0  0
 68 85  1  0  0  0
 71 72  3  0  0  0
 71 80  1  0  0  0
 72 81  1  0  0  0
 73 76  2  0  0  0
 73 80  1  0  0  0
 73147  1  0  0  0
 74 77  1  0  0  0
 74 80  2  0  0  0
 74148  1  0  0  0
 75 78  2  0  0  0
 75 81  1  0  0  0
 75149  1  0  0  0
 76 82  1  0  0  0
 76150  1  0  0  0
 77 82  2  0  0  0
 77151  1  0  0  0
 78 83  1  0  0  0
 78152  1  0  0  0
 79 83  2  0  0  0
 79 84  1  0  0  0
 79153  1  0  0  0
 81 84  2  0  0  0
 82 85  1  0  0  0
 83 86  1  0  0  0
 84 87  1  0  0  0
 85154  1  0  0  0
 85155  1  0  0  0
 86156  1  0  0  0
M  ISO  4   1 100  68 101  85 101  86 100
M  END
> <chiral flag>
0

> <version>
0

> <s_m_source_file>
/data/baiqing/PycharmProjects/Reinvent-master-3.2/result/LINK_invent/BTK/process_docking_weight1_custom_product_contain_oxygen_bond_distance_aromatic_linkinvent_7_9_3/rearranged_h_0004.sdf

> <i_m_source_file_index>
55

> <r_mmod_Potential_Energy-OPLS-2005>
163.0625

> <r_mmod_Stretch_Energy-OPLS-2005>
30.0188007354736

> <r_mmod_Bend_Energy-OPLS-2005>
135.518951416016

> <r_mmod_Torsional_Energy-OPLS-2005>
321.650451660156

> <r_mmod_Improper_Torsional_Energy-OPLS-2005>
34.5406341552734

> <r_mmod_Van_der_Waal_Energy-OPLS-2005>
157.930725097656

> <r_mmod_Electrostatic_Energy-OPLS-2005>
-341.280426025391

> <r_mmod_Solvation_Energy-OPLS-2005>
-203.428512573242

> <b_mmod_Minimization_Converged-OPLS-2005>
0

> <r_mmod_RMS_Derivative-OPLS-2005>
6.57467699050903

$$$$
55
                    3D
 Structure written by MMmdl.
160169  0  0  1  0            999 V2000
  -30.5817  -14.7339   20.4893 C   0  0  0  0  0  0
  -30.4368  -12.4545   19.4553 C   0  0  0  0  0  0
  -29.5027  -12.4969   18.2256 C   0  0  0  0  0  0
  -28.0311  -12.3116   18.6458 C   0  0  0  0  0  0
  -27.6364  -13.2175   19.8440 C   0  0  2  0  0  0
  -28.6817  -13.1303   20.9750 C   0  0  0  0  0  0
  -25.2470  -13.8154   20.5619 C   0  0  0  0  0  0
  -24.1772  -13.0429   20.9209 C   0  0  0  0  0  0
  -24.6351  -11.6901   20.8772 C   0  0  0  0  0  0
  -23.9043  -10.4282   21.0432 C   0  0  0  0  0  0
  -24.3604   -9.4193   21.9207 C   0  0  0  0  0  0
  -23.6282   -8.2230   22.0767 C   0  0  0  0  0  0
  -22.4270   -8.0280   21.3548 C   0  0  0  0  0  0
  -21.9901   -9.0251   20.4653 C   0  0  0  0  0  0
  -22.7221  -10.2124   20.3069 C   0  0  0  0  0  0
  -21.6853   -6.0739   22.5283 C   0  0  0  0  0  0
  -21.4005   -6.5638   23.8223 C   0  0  0  0  0  0
  -21.3661   -5.6791   24.9178 C   0  0  0  0  0  0
  -21.6031   -4.3056   24.7227 C   0  0  0  0  0  0
  -21.8830   -3.8143   23.4357 C   0  0  0  0  0  0
  -21.9184   -4.6961   22.3397 C   0  0  0  0  0  0
  -22.7801  -13.5221   21.1889 C   0  0  0  0  0  0
  -22.1653   -4.2156   21.0980 F   0  0  0  0  0  0
  -21.5629   -3.4527   25.7739 F   0  0  0  0  0  0
  -29.9767  -13.5035   20.3915 N   0  0  0  0  0  0
  -26.2884  -12.9338   20.3230 N   0  0  0  0  0  0
  -25.9260  -11.6512   20.5753 N   0  0  0  0  0  0
  -22.0421  -12.8204   22.0439 N   0  0  0  0  0  0
  -25.4107  -15.1874   20.3931 N   0  0  0  0  0  0
  -31.7838  -14.8541   20.2288 O   0  0  0  0  0  0
  -21.6627   -6.8872   21.4258 O   0  0  0  0  0  0
  -22.3488  -14.5539   20.6755 O   0  0  0  0  0  0
  -24.6337  -31.8535   23.1942 C   0  0  0  0  0  0
  -25.9144  -32.4766   23.8310 C   0  0  1  0  0  0
  -27.2296  -27.2664   20.1405 C   0  0  0  0  0  0
  -25.5931  -33.8580   24.2244 N   0  0  0  0  0  0
  -23.4308  -30.4737   21.5340 C   0  0  2  0  0  0
  -24.8782  -28.9139   20.1107 C   0  0  0  0  0  0
  -22.7509  -29.4609   22.4853 C   0  0  0  0  0  0
  -18.0299  -28.1434   22.8511 C   0  0  0  0  0  0
  -24.1487  -36.7265   23.2638 C   0  0  0  0  0  0
  -25.9750  -30.7701   21.3689 C   0  0  0  0  0  0
  -26.0481  -29.3917   20.7165 C   0  0  0  0  0  0
  -27.2279  -28.5838   20.7122 C   0  0  0  0  0  0
  -26.0380  -26.8433   19.5187 C   0  0  0  0  0  0
  -24.8770  -27.6463   19.5034 C   0  0  0  0  0  0
  -23.6505  -29.8034   20.1507 C   0  0  0  0  0  0
  -25.4120  -36.3080   24.0332 C   0  0  1  0  0  0
  -20.5904  -28.3744   23.1262 C   0  0  2  0  0  0
  -20.6810  -26.9448   22.5415 C   0  0  0  0  0  0
  -19.5769  -26.6415   21.5245 C   0  0  0  0  0  0
  -18.1933  -26.7991   22.1636 C   0  0  0  0  0  0
  -19.1549  -28.8896   23.2898 C   0  0  0  0  0  0
  -18.9494  -30.1506   23.8917 C   0  0  0  0  0  0
  -17.6510  -30.6625   24.0608 C   0  0  0  0  0  0
  -25.9067  -34.9465   23.5090 C   0  0  0  0  0  0
  -16.5389  -29.9145   23.6357 C   0  0  0  0  0  0
  -16.7290  -28.6568   23.0369 C   0  0  0  0  0  0
  -26.4507  -31.6606   25.0703 C   0  0  0  0  0  0
  -25.3723  -31.3794   26.1410 C   0  0  0  0  0  0
  -27.0360  -30.3029   24.6175 C   0  0  0  0  0  0
  -27.6029  -32.4360   25.7479 C   0  0  0  0  0  0
  -27.5587  -37.1770   24.8464 C   0  0  0  0  0  0
  -21.4202  -29.3088   22.3625 N   0  0  0  0  0  0
  -26.4287  -37.3787   23.9442 N   0  0  0  0  0  0
  -24.6985  -31.0513   22.0900 N   0  0  0  0  0  0
  -23.4189  -28.8150   23.2955 O   0  0  0  0  0  0
  -28.3485  -26.4070   20.1366 O   0  0  0  0  0  0
  -26.5642  -34.8934   22.4662 O   0  0  0  0  0  0
  -23.5461  -32.1330   23.7236 O   0  0  0  0  0  0
  -30.7545  -17.4558   22.1656 C   0  0  0  0  0  0
  -30.8211  -18.7305   22.7623 C   0  0  0  0  0  0
  -29.3529  -18.4256   20.4262 C   0  0  0  0  0  0
  -29.4579  -19.7716   20.9844 C   0  0  0  0  0  0
  -29.9842  -17.2425   21.0026 C   0  0  0  0  0  0
  -30.1669  -19.8585   22.2137 C   0  0  0  0  0  0
  -31.1489  -23.7933   19.4384 C   0  0  0  0  0  0
  -29.8512  -24.1997   18.7603 C   0  0  0  0  0  0
  -30.7999  -22.4088   19.9732 C   0  0  0  0  0  0
  -28.7555  -23.7146   19.7304 C   0  0  2  0  0  0
  -28.7342  -21.0710   20.3633 C   0  0  0  0  0  0
  -28.2431  -24.9813   20.6200 C   0  0  0  0  0  0
  -29.7490  -15.8457   20.5700 N   0  0  0  0  0  0
  -29.3862  -22.4715   20.4367 N   0  3  1  0  0  0
  -30.2206  -21.3255   23.1292 Cl  0  0  0  0  0  0
  -31.4714  -12.6074   19.1411 H   0  0  0  0  0  0
  -30.4050  -11.4738   19.9304 H   0  0  0  0  0  0
  -29.7835  -11.7197   17.5128 H   0  0  0  0  0  0
  -29.6190  -13.4499   17.7096 H   0  0  0  0  0  0
  -27.8985  -11.2647   18.9191 H   0  0  0  0  0  0
  -27.3694  -12.4852   17.7967 H   0  0  0  0  0  0
  -27.6338  -14.2394   19.4691 H   0  0  0  0  0  0
  -28.7199  -12.1166   21.3798 H   0  0  0  0  0  0
  -28.4164  -13.7836   21.8078 H   0  0  0  0  0  0
  -25.2756   -9.5673   22.4776 H   0  0  0  0  0  0
  -23.9996   -7.4619   22.7482 H   0  0  0  0  0  0
  -21.0834   -8.8771   19.8947 H   0  0  0  0  0  0
  -22.3697  -10.9673   19.6171 H   0  0  0  0  0  0
  -21.1999   -7.6150   23.9730 H   0  0  0  0  0  0
  -21.1468   -6.0513   25.9085 H   0  0  0  0  0  0
  -22.0604   -2.7612   23.2842 H   0  0  0  0  0  0
  -22.4016  -11.9846   22.4801 H   0  0  0  0  0  0
  -21.1060  -13.1272   22.2684 H   0  0  0  0  0  0
  -24.6307  -15.8299   20.4838 H   0  0  0  0  0  0
  -26.2277  -15.6204   19.9829 H   0  0  0  0  0  0
  -26.7234  -32.5387   23.1051 H   0  0  0  0  0  0
  -25.0132  -33.9793   25.0411 H   0  0  0  0  0  0
  -22.7271  -31.2945   21.3841 H   0  0  0  0  0  0
  -23.3769  -35.9577   23.3315 H   0  0  0  0  0  0
  -24.3563  -36.8849   22.2047 H   0  0  0  0  0  0
  -23.7197  -37.6449   23.6659 H   0  0  0  0  0  0
  -26.1133  -31.5275   20.5965 H   0  0  0  0  0  0
  -26.8539  -30.8162   22.0010 H   0  0  0  0  0  0
  -28.1255  -28.9580   21.1843 H   0  0  0  0  0  0
  -25.9961  -25.8723   19.0471 H   0  0  0  0  0  0
  -23.9786  -27.2703   19.0303 H   0  0  0  0  0  0
  -23.7792  -30.5789   19.3942 H   0  0  0  0  0  0
  -22.7701  -29.2360   19.8394 H   0  0  0  0  0  0
  -25.1279  -36.1912   25.0819 H   0  0  0  0  0  0
  -21.0028  -28.3352   24.1374 H   0  0  0  0  0  0
  -20.5747  -26.2341   23.3625 H   0  0  0  0  0  0
  -21.6675  -26.7496   22.1173 H   0  0  0  0  0  0
  -19.6951  -25.6326   21.1266 H   0  0  0  0  0  0
  -19.6763  -27.3253   20.6801 H   0  0  0  0  0  0
  -17.4237  -26.6784   21.4002 H   0  0  0  0  0  0
  -18.0291  -26.0137   22.9017 H   0  0  0  0  0  0
  -19.7982  -30.7294   24.2278 H   0  0  0  0  0  0
  -17.5091  -31.6305   24.5203 H   0  0  0  0  0  0
  -15.5406  -30.3077   23.7706 H   0  0  0  0  0  0
  -15.8677  -28.0914   22.7071 H   0  0  0  0  0  0
  -24.5933  -30.7096   25.7751 H   0  0  0  0  0  0
  -24.8890  -32.2991   26.4729 H   0  0  0  0  0  0
  -25.8033  -30.9068   27.0239 H   0  0  0  0  0  0
  -26.2962  -29.6784   24.1164 H   0  0  0  0  0  0
  -27.4013  -29.7265   25.4676 H   0  0  0  0  0  0
  -27.8837  -30.4295   23.9444 H   0  0  0  0  0  0
  -27.2613  -33.3676   26.1997 H   0  0  0  0  0  0
  -28.3884  -32.6883   25.0354 H   0  0  0  0  0  0
  -28.0654  -31.8521   26.5448 H   0  0  0  0  0  0
  -28.2548  -38.0118   24.7569 H   0  0  0  0  0  0
  -28.1133  -36.2646   24.6205 H   0  0  0  0  0  0
  -27.2321  -37.1269   25.8864 H   0  0  0  0  0  0
  -20.9384  -29.8805   21.6840 H   0  0  0  0  0  0
  -26.0160  -38.2837   24.1509 H   0  0  0  0  0  0
  -31.2371  -16.6254   22.6636 H   0  0  0  0  0  0
  -31.3553  -18.8374   23.6975 H   0  0  0  0  0  0
  -28.7306  -18.2880   19.5530 H   0  0  0  0  0  0
  -31.3887  -24.4687   20.2617 H   0  0  0  0  0  0
  -31.9983  -23.7776   18.7513 H   0  0  0  0  0  0
  -29.7622  -23.6685   17.8111 H   0  0  0  0  0  0
  -29.8095  -25.2653   18.5281 H   0  0  0  0  0  0
  -31.4972  -22.0785   20.7437 H   0  0  0  0  0  0
  -30.8777  -21.6969   19.1502 H   0  0  0  0  0  0
  -27.9122  -23.3814   19.1257 H   0  0  0  0  0  0
  -27.7462  -21.1442   20.8212 H   0  0  0  0  0  0
  -28.5422  -20.8594   19.3089 H   0  0  0  0  0  0
  -28.8083  -24.9677   21.5500 H   0  0  0  0  0  0
  -27.2157  -24.7842   20.9310 H   0  0  0  0  0  0
  -28.7775  -15.6203   20.4258 H   0  0  0  0  0  0
  -29.4306  -22.6796   21.4259 H   0  0  0  0  0  0
  1 25  1  0  0  0
  1 30  2  0  0  0
  1 83  1  0  0  0
  2  3  1  0  0  0
  2 25  1  0  0  0
  2 86  1  0  0  0
  2 87  1  0  0  0
  3  4  1  0  0  0
  3 88  1  0  0  0
  3 89  1  0  0  0
  4  5  1  0  0  0
  4 90  1  0  0  0
  4 91  1  0  0  0
  5  6  1  0  0  0
  5 26  1  0  0  0
  5 92  1  0  0  0
  6 25  1  0  0  0
  6 93  1  0  0  0
  6 94  1  0  0  0
  7  8  2  0  0  0
  7 26  1  0  0  0
  7 29  1  0  0  0
  8  9  1  0  0  0
  8 22  1  0  0  0
  9 10  1  0  0  0
  9 27  2  0  0  0
 10 11  2  0  0  0
 10 15  1  0  0  0
 11 12  1  0  0  0
 11 95  1  0  0  0
 12 13  2  0  0  0
 12 96  1  0  0  0
 13 14  1  0  0  0
 13 31  1  0  0  0
 14 15  2  0  0  0
 14 97  1  0  0  0
 15 98  1  0  0  0
 16 17  2  0  0  0
 16 21  1  0  0  0
 16 31  1  0  0  0
 17 18  1  0  0  0
 17 99  1  0  0  0
 18 19  2  0  0  0
 18100  1  0  0  0
 19 20  1  0  0  0
 19 24  1  0  0  0
 20 21  2  0  0  0
 20101  1  0  0  0
 21 23  1  0  0  0
 22 28  1  0  0  0
 22 32  2  0  0  0
 26 27  1  0  0  0
 28102  1  0  0  0
 28103  1  0  0  0
 29104  1  0  0  0
 29105  1  0  0  0
 33 34  1  0  0  0
 33 66  1  0  0  0
 33 70  2  0  0  0
 34 36  1  0  0  0
 34 59  1  0  0  0
 34106  1  0  0  0
 35 44  2  0  0  0
 35 45  1  0  0  0
 35 68  1  0  0  0
 36 56  1  0  0  0
 36107  1  0  0  0
 37 39  1  0  0  0
 37 47  1  0  0  0
 37 66  1  0  0  0
 37108  1  0  0  0
 38 43  2  0  0  0
 38 46  1  0  0  0
 38 47  1  0  0  0
 39 64  1  0  0  0
 39 67  2  0  0  0
 40 52  1  0  0  0
 40 53  2  0  0  0
 40 58  1  0  0  0
 41109  1  0  0  0
 41110  1  0  0  0
 41111  1  0  0  0
 41 48  1  0  0  0
 42 43  1  0  0  0
 42 66  1  0  0  0
 42112  1  0  0  0
 42113  1  0  0  0
 43 44  1  0  0  0
 44114  1  0  0  0
 45 46  2  0  0  0
 45115  1  0  0  0
 46116  1  0  0  0
 47117  1  0  0  0
 47118  1  0  0  0
 48 56  1  0  0  0
 48 65  1  0  0  0
 48119  1  0  0  0
 49 50  1  0  0  0
 49 53  1  0  0  0
 49 64  1  0  0  0
 49120  1  0  0  0
 50 51  1  0  0  0
 50121  1  0  0  0
 50122  1  0  0  0
 51 52  1  0  0  0
 51123  1  0  0  0
 51124  1  0  0  0
 52125  1  0  0  0
 52126  1  0  0  0
 53 54  1  0  0  0
 54 55  2  0  0  0
 54127  1  0  0  0
 55 57  1  0  0  0
 55128  1  0  0  0
 56 69  2  0  0  0
 57 58  2  0  0  0
 57129  1  0  0  0
 58130  1  0  0  0
 59 60  1  0  0  0
 59 61  1  0  0  0
 59 62  1  0  0  0
 60131  1  0  0  0
 60132  1  0  0  0
 60133  1  0  0  0
 61134  1  0  0  0
 61135  1  0  0  0
 61136  1  0  0  0
 62137  1  0  0  0
 62138  1  0  0  0
 62139  1  0  0  0
 63 65  1  0  0  0
 63140  1  0  0  0
 63141  1  0  0  0
 63142  1  0  0  0
 64143  1  0  0  0
 65144  1  0  0  0
 68 82  1  0  0  0
 71 72  2  0  0  0
 71 75  1  0  0  0
 71145  1  0  0  0
 72 76  1  0  0  0
 72146  1  0  0  0
 73 74  1  0  0  0
 73 75  2  0  0  0
 73147  1  0  0  0
 74 76  2  0  0  0
 74 81  1  0  0  0
 75 83  1  0  0  0
 76 85  1  0  0  0
 77 78  1  0  0  0
 77 79  1  0  0  0
 77148  1  0  0  0
 77149  1  0  0  0
 78 80  1  0  0  0
 78150  1  0  0  0
 78151  1  0  0  0
 79 84  1  0  0  0
 79152  1  0  0  0
 79153  1  0  0  0
 80 82  1  0  0  0
 80 84  1  0  0  0
 80154  1  0  0  0
 81155  1  0  0  0
 81156  1  0  0  0
 81 84  1  0  0  0
 82157  1  0  0  0
 82158  1  0  0  0
 83159  1  0  0  0
 84160  1  0  0  0
M  CHG  1  84   1
M  ISO  4   1 100  68 101  82 101  83 100
M  END
> <chiral flag>
0

> <version>
0

> <s_m_source_file>
/data/baiqing/PycharmProjects/Reinvent-master-3.2/result/LINK_invent/BTK/process_docking_weight1_custom_product_contain_oxygen_bond_distance_aromatic_linkinvent_7_9_3/rearranged_h_0004.sdf

> <i_m_source_file_index>
56

> <r_mmod_Potential_Energy-OPLS-2005>
173.895324707031

> <r_mmod_Stretch_Energy-OPLS-2005>
133.657531738281

> <r_mmod_Bend_Energy-OPLS-2005>
192.479202270508

> <r_mmod_Torsional_Energy-OPLS-2005>
316.299835205078

> <r_mmod_Improper_Torsional_Energy-OPLS-2005>
9.31971549987793

> <r_mmod_Van_der_Waal_Energy-OPLS-2005>
131.565490722656

> <r_mmod_Electrostatic_Energy-OPLS-2005>
-265.103637695312

> <r_mmod_Solvation_Energy-OPLS-2005>
-424.957855224609

> <b_mmod_Minimization_Converged-OPLS-2005>
0

> <r_mmod_RMS_Derivative-OPLS-2005>
4.51198196411133

$$$$
56
                    3D
 Structure written by MMmdl.
164173  0  0  1  0            999 V2000
  -30.6590  -14.5168   20.6100 C   0  0  0  0  0  0
  -30.4420  -12.3475   19.4133 C   0  0  0  0  0  0
  -29.4977  -12.5128   18.2018 C   0  0  0  0  0  0
  -28.0196  -12.3540   18.6194 C   0  0  0  0  0  0
  -27.6617  -13.1971   19.8713 C   0  0  2  0  0  0
  -28.7059  -12.9603   20.9853 C   0  0  0  0  0  0
  -25.2568  -13.8102   20.5631 C   0  0  0  0  0  0
  -24.1819  -13.0406   20.9172 C   0  0  0  0  0  0
  -24.6370  -11.6872   20.8738 C   0  0  0  0  0  0
  -23.9035  -10.4268   21.0415 C   0  0  0  0  0  0
  -24.3595   -9.4185   21.9192 C   0  0  0  0  0  0
  -23.6273   -8.2219   22.0761 C   0  0  0  0  0  0
  -22.4259   -8.0268   21.3550 C   0  0  0  0  0  0
  -21.9883   -9.0243   20.4659 C   0  0  0  0  0  0
  -22.7212  -10.2118   20.3069 C   0  0  0  0  0  0
  -21.6828   -6.0736   22.5295 C   0  0  0  0  0  0
  -21.4001   -6.5648   23.8230 C   0  0  0  0  0  0
  -21.3657   -5.6793   24.9187 C   0  0  0  0  0  0
  -21.6039   -4.3064   24.7227 C   0  0  0  0  0  0
  -21.8821   -3.8153   23.4344 C   0  0  0  0  0  0
  -21.9186   -4.6960   22.3408 C   0  0  0  0  0  0
  -22.7859  -13.5222   21.1823 C   0  0  0  0  0  0
  -22.1655   -4.2157   21.0975 F   0  0  0  0  0  0
  -21.5628   -3.4548   25.7737 F   0  0  0  0  0  0
  -30.0303  -13.3155   20.4421 N   0  0  0  0  0  0
  -26.3008  -12.9266   20.3321 N   0  0  0  0  0  0
  -25.9292  -11.6433   20.5756 N   0  0  0  0  0  0
  -22.0484  -12.8253   22.0396 N   0  0  0  0  0  0
  -25.4227  -15.1806   20.3960 N   0  0  0  0  0  0
  -31.7742  -14.7545   20.1383 O   0  0  0  0  0  0
  -21.6607   -6.8885   21.4261 O   0  0  0  0  0  0
  -22.3560  -14.5527   20.6647 O   0  0  0  0  0  0
  -24.6215  -31.8656   23.2118 C   0  0  0  0  0  0
  -25.9091  -32.4812   23.8430 C   0  0  1  0  0  0
  -27.2369  -27.3834   20.1075 C   0  0  0  0  0  0
  -25.5936  -33.8619   24.2346 N   0  0  0  0  0  0
  -23.4151  -30.4942   21.5493 C   0  0  2  0  0  0
  -24.8613  -28.9555   20.1186 C   0  0  0  0  0  0
  -22.7464  -29.4669   22.4928 C   0  0  0  0  0  0
  -18.0300  -28.1395   22.8489 C   0  0  0  0  0  0
  -24.1489  -36.7294   23.2636 C   0  0  0  0  0  0
  -25.9556  -30.8095   21.3847 C   0  0  0  0  0  0
  -26.0274  -29.4487   20.7152 C   0  0  0  0  0  0
  -27.2195  -28.6757   20.6969 C   0  0  0  0  0  0
  -26.0410  -26.9208   19.5020 C   0  0  0  0  0  0
  -24.8659  -27.6924   19.5074 C   0  0  0  0  0  0
  -23.6318  -29.8363   20.1621 C   0  0  0  0  0  0
  -25.4109  -36.3112   24.0349 C   0  0  1  0  0  0
  -20.5898  -28.3710   23.1270 C   0  0  2  0  0  0
  -20.6783  -26.9427   22.5416 C   0  0  0  0  0  0
  -19.5765  -26.6388   21.5216 C   0  0  0  0  0  0
  -18.1941  -26.7948   22.1609 C   0  0  0  0  0  0
  -19.1550  -28.8865   23.2882 C   0  0  0  0  0  0
  -18.9472  -30.1459   23.8911 C   0  0  0  0  0  0
  -17.6472  -30.6594   24.0571 C   0  0  0  0  0  0
  -25.9047  -34.9472   23.5140 C   0  0  0  0  0  0
  -16.5364  -29.9095   23.6330 C   0  0  0  0  0  0
  -16.7287  -28.6507   23.0361 C   0  0  0  0  0  0
  -26.4488  -31.6635   25.0810 C   0  0  0  0  0  0
  -25.3739  -31.3811   26.1565 C   0  0  0  0  0  0
  -27.0314  -30.3044   24.6304 C   0  0  0  0  0  0
  -27.6073  -32.4389   25.7523 C   0  0  0  0  0  0
  -27.5602  -37.1787   24.8455 C   0  0  0  0  0  0
  -21.4183  -29.3061   22.3654 N   0  0  0  0  0  0
  -26.4292  -37.3802   23.9435 N   0  0  0  0  0  0
  -24.6814  -31.0724   22.1040 N   0  0  0  0  0  0
  -23.4202  -28.8199   23.2990 O   0  0  0  0  0  0
  -28.3873  -26.5981   20.1425 O   0  0  0  0  0  0
  -26.5592  -34.8919   22.4694 O   0  0  0  0  0  0
  -23.5390  -32.1428   23.7469 O   0  0  0  0  0  0
  -28.1493  -17.7644   20.1466 C   0  0  0  0  0  0
  -27.6049  -18.8872   19.4923 C   0  0  0  0  0  0
  -29.3438  -17.9217   20.8602 C   0  0  0  0  0  0
  -29.9764  -19.1688   20.9364 C   0  0  0  0  0  0
  -29.4191  -20.3377   20.3307 C   0  0  0  0  0  0
  -28.2313  -20.1637   19.5644 C   0  0  0  0  0  0
  -31.2737  -19.0249   21.7050 C   0  0  0  0  0  0
  -31.4617  -17.4839   21.8850 C   0  0  0  0  0  0
  -30.0640  -16.8555   21.6680 C   0  0  2  0  0  0
  -26.7891  -21.0618   17.8672 C   0  0  0  0  0  0
  -30.0608  -21.7491   20.4230 C   0  0  0  0  0  0
  -29.4417  -24.2584   20.4630 C   0  0  0  0  0  0
  -28.1863  -25.1566   20.2095 C   0  0  0  0  0  0
  -29.9049  -15.4396   21.2478 N   0  0  0  0  0  0
  -29.0676  -22.8249   20.7294 N   0  3  0  0  0  0
  -27.7278  -21.2729   18.9159 O   0  0  0  0  0  0
  -31.4797  -12.4865   19.1068 H   0  0  0  0  0  0
  -30.3853  -11.3330   19.8116 H   0  0  0  0  0  0
  -29.7476  -11.7844   17.4290 H   0  0  0  0  0  0
  -29.6455  -13.4963   17.7532 H   0  0  0  0  0  0
  -27.8500  -11.2976   18.8318 H   0  0  0  0  0  0
  -27.3593  -12.6065   17.7896 H   0  0  0  0  0  0
  -27.7109  -14.2443   19.5714 H   0  0  0  0  0  0
  -28.7068  -11.9087   21.2774 H   0  0  0  0  0  0
  -28.4507  -13.5070   21.8927 H   0  0  0  0  0  0
  -25.2740   -9.5653   22.4758 H   0  0  0  0  0  0
  -23.9985   -7.4610   22.7476 H   0  0  0  0  0  0
  -21.0816   -8.8761   19.8971 H   0  0  0  0  0  0
  -22.3685  -10.9651   19.6175 H   0  0  0  0  0  0
  -21.1996   -7.6157   23.9746 H   0  0  0  0  0  0
  -21.1477   -6.0513   25.9093 H   0  0  0  0  0  0
  -22.0599   -2.7612   23.2833 H   0  0  0  0  0  0
  -22.4075  -11.9923   22.4824 H   0  0  0  0  0  0
  -21.1117  -13.1322   22.2610 H   0  0  0  0  0  0
  -24.6477  -15.8258   20.5040 H   0  0  0  0  0  0
  -26.2498  -15.6106   20.0081 H   0  0  0  0  0  0
  -26.7167  -32.5476   23.1188 H   0  0  0  0  0  0
  -25.0150  -33.9784   25.0538 H   0  0  0  0  0  0
  -22.7083  -31.3150   21.4103 H   0  0  0  0  0  0
  -23.3777  -35.9595   23.3278 H   0  0  0  0  0  0
  -24.3591  -36.8920   22.2053 H   0  0  0  0  0  0
  -23.7194  -37.6479   23.6645 H   0  0  0  0  0  0
  -26.1120  -31.5864   20.6353 H   0  0  0  0  0  0
  -26.8244  -30.8287   22.0315 H   0  0  0  0  0  0
  -28.1181  -29.0558   21.1631 H   0  0  0  0  0  0
  -25.9826  -25.9591   19.0158 H   0  0  0  0  0  0
  -23.9695  -27.3043   19.0427 H   0  0  0  0  0  0
  -23.7695  -30.6198   19.4156 H   0  0  0  0  0  0
  -22.7497  -29.2789   19.8433 H   0  0  0  0  0  0
  -25.1274  -36.1979   25.0839 H   0  0  0  0  0  0
  -21.0009  -28.3304   24.1382 H   0  0  0  0  0  0
  -20.5674  -26.2337   23.3631 H   0  0  0  0  0  0
  -21.6657  -26.7448   22.1219 H   0  0  0  0  0  0
  -19.6925  -25.6289   21.1267 H   0  0  0  0  0  0
  -19.6713  -27.3178   20.6730 H   0  0  0  0  0  0
  -17.4225  -26.6736   21.3988 H   0  0  0  0  0  0
  -18.0305  -26.0071   22.8979 H   0  0  0  0  0  0
  -19.7947  -30.7270   24.2296 H   0  0  0  0  0  0
  -17.5029  -31.6270   24.5180 H   0  0  0  0  0  0
  -15.5365  -30.3003   23.7641 H   0  0  0  0  0  0
  -15.8688  -28.0817   22.7086 H   0  0  0  0  0  0
  -24.5888  -30.7168   25.7940 H   0  0  0  0  0  0
  -24.8957  -32.2990   26.4997 H   0  0  0  0  0  0
  -25.8081  -30.9009   27.0346 H   0  0  0  0  0  0
  -26.2892  -29.6818   24.1300 H   0  0  0  0  0  0
  -27.3933  -29.7302   25.4847 H   0  0  0  0  0  0
  -27.8811  -30.4305   23.9594 H   0  0  0  0  0  0
  -27.2692  -33.3670   26.2144 H   0  0  0  0  0  0
  -28.3816  -32.7004   25.0300 H   0  0  0  0  0  0
  -28.0828  -31.8522   26.5393 H   0  0  0  0  0  0
  -28.2600  -38.0110   24.7566 H   0  0  0  0  0  0
  -28.1123  -36.2654   24.6185 H   0  0  0  0  0  0
  -27.2346  -37.1325   25.8863 H   0  0  0  0  0  0
  -20.9367  -29.8780   21.6857 H   0  0  0  0  0  0
  -26.0191  -38.2876   24.1477 H   0  0  0  0  0  0
  -27.6569  -16.8057   20.1028 H   0  0  0  0  0  0
  -26.6864  -18.7415   18.9423 H   0  0  0  0  0  0
  -31.1753  -19.5170   22.6750 H   0  0  0  0  0  0
  -32.1100  -19.4777   21.1730 H   0  0  0  0  0  0
  -31.9044  -17.2210   22.8468 H   0  0  0  0  0  0
  -32.1414  -17.1387   21.1068 H   0  0  0  0  0  0
  -29.5677  -16.8841   22.6395 H   0  0  0  0  0  0
  -26.6740  -21.9852   17.2991 H   0  0  0  0  0  0
  -25.8093  -20.7891   18.2606 H   0  0  0  0  0  0
  -27.1254  -20.2915   17.1705 H   0  0  0  0  0  0
  -30.5271  -21.9567   19.4588 H   0  0  0  0  0  0
  -30.8578  -21.7670   21.1666 H   0  0  0  0  0  0
  -30.0134  -24.6355   21.3121 H   0  0  0  0  0  0
  -30.0991  -24.3191   19.5948 H   0  0  0  0  0  0
  -27.4562  -24.9583   20.9964 H   0  0  0  0  0  0
  -27.7450  -24.8116   19.2745 H   0  0  0  0  0  0
  -29.0137  -15.0565   21.5216 H   0  0  0  0  0  0
  -28.7755  -22.7237   21.6892 H   0  0  0  0  0  0
  -28.2753  -22.5886   20.1474 H   0  0  0  0  0  0
  1 25  1  0  0  0
  1 30  2  0  0  0
  1 84  1  0  0  0
  2  3  1  0  0  0
  2 25  1  0  0  0
  2 87  1  0  0  0
  2 88  1  0  0  0
  3  4  1  0  0  0
  3 89  1  0  0  0
  3 90  1  0  0  0
  4  5  1  0  0  0
  4 91  1  0  0  0
  4 92  1  0  0  0
  5  6  1  0  0  0
  5 26  1  0  0  0
  5 93  1  0  0  0
  6 25  1  0  0  0
  6 94  1  0  0  0
  6 95  1  0  0  0
  7  8  2  0  0  0
  7 26  1  0  0  0
  7 29  1  0  0  0
  8  9  1  0  0  0
  8 22  1  0  0  0
  9 10  1  0  0  0
  9 27  2  0  0  0
 10 11  2  0  0  0
 10 15  1  0  0  0
 11 12  1  0  0  0
 11 96  1  0  0  0
 12 13  2  0  0  0
 12 97  1  0  0  0
 13 14  1  0  0  0
 13 31  1  0  0  0
 14 15  2  0  0  0
 14 98  1  0  0  0
 15 99  1  0  0  0
 16 17  2  0  0  0
 16 21  1  0  0  0
 16 31  1  0  0  0
 17 18  1  0  0  0
 17100  1  0  0  0
 18 19  2  0  0  0
 18101  1  0  0  0
 19 20  1  0  0  0
 19 24  1  0  0  0
 20 21  2  0  0  0
 20102  1  0  0  0
 21 23  1  0  0  0
 22 28  1  0  0  0
 22 32  2  0  0  0
 26 27  1  0  0  0
 28103  1  0  0  0
 28104  1  0  0  0
 29105  1  0  0  0
 29106  1  0  0  0
 33 34  1  0  0  0
 33 66  1  0  0  0
 33 70  2  0  0  0
 34 36  1  0  0  0
 34 59  1  0  0  0
 34107  1  0  0  0
 35 44  2  0  0  0
 35 45  1  0  0  0
 35 68  1  0  0  0
 36 56  1  0  0  0
 36108  1  0  0  0
 37 39  1  0  0  0
 37 47  1  0  0  0
 37 66  1  0  0  0
 37109  1  0  0  0
 38 43  2  0  0  0
 38 46  1  0  0  0
 38 47  1  0  0  0
 39 64  1  0  0  0
 39 67  2  0  0  0
 40 52  1  0  0  0
 40 53  2  0  0  0
 40 58  1  0  0  0
 41110  1  0  0  0
 41111  1  0  0  0
 41112  1  0  0  0
 41 48  1  0  0  0
 42 43  1  0  0  0
 42 66  1  0  0  0
 42113  1  0  0  0
 42114  1  0  0  0
 43 44  1  0  0  0
 44115  1  0  0  0
 45 46  2  0  0  0
 45116  1  0  0  0
 46117  1  0  0  0
 47118  1  0  0  0
 47119  1  0  0  0
 48 56  1  0  0  0
 48 65  1  0  0  0
 48120  1  0  0  0
 49 50  1  0  0  0
 49 53  1  0  0  0
 49 64  1  0  0  0
 49121  1  0  0  0
 50 51  1  0  0  0
 50122  1  0  0  0
 50123  1  0  0  0
 51 52  1  0  0  0
 51124  1  0  0  0
 51125  1  0  0  0
 52126  1  0  0  0
 52127  1  0  0  0
 53 54  1  0  0  0
 54 55  2  0  0  0
 54128  1  0  0  0
 55 57  1  0  0  0
 55129  1  0  0  0
 56 69  2  0  0  0
 57 58  2  0  0  0
 57130  1  0  0  0
 58131  1  0  0  0
 59 60  1  0  0  0
 59 61  1  0  0  0
 59 62  1  0  0  0
 60132  1  0  0  0
 60133  1  0  0  0
 60134  1  0  0  0
 61135  1  0  0  0
 61136  1  0  0  0
 61137  1  0  0  0
 62138  1  0  0  0
 62139  1  0  0  0
 62140  1  0  0  0
 63 65  1  0  0  0
 63141  1  0  0  0
 63142  1  0  0  0
 63143  1  0  0  0
 64144  1  0  0  0
 65145  1  0  0  0
 68 83  1  0  0  0
 71 72  2  0  0  0
 71 73  1  0  0  0
 71146  1  0  0  0
 72 76  1  0  0  0
 72147  1  0  0  0
 73 74  2  0  0  0
 73 79  1  0  0  0
 74 75  1  0  0  0
 74 77  1  0  0  0
 75 76  2  0  0  0
 75 81  1  0  0  0
 76 86  1  0  0  0
 77 78  1  0  0  0
 77148  1  0  0  0
 77149  1  0  0  0
 78 79  1  0  0  0
 78150  1  0  0  0
 78151  1  0  0  0
 79 84  1  0  0  0
 79152  1  0  0  0
 80 86  1  0  0  0
 80153  1  0  0  0
 80154  1  0  0  0
 80155  1  0  0  0
 81 85  1  0  0  0
 81156  1  0  0  0
 81157  1  0  0  0
 82 83  1  0  0  0
 82 85  1  0  0  0
 82158  1  0  0  0
 82159  1  0  0  0
 83160  1  0  0  0
 83161  1  0  0  0
 84162  1  0  0  0
 85163  1  0  0  0
 85164  1  0  0  0
M  CHG  1  85   1
M  ISO  4   1 100  68 101  83 101  84 100
M  END
> <chiral flag>
0

> <version>
0

> <s_m_source_file>
/data/baiqing/PycharmProjects/Reinvent-master-3.2/result/LINK_invent/BTK/process_docking_weight1_custom_product_contain_oxygen_bond_distance_aromatic_linkinvent_7_9_3/rearranged_h_0004.sdf

> <i_m_source_file_index>
57

> <r_mmod_Potential_Energy-OPLS-2005>
-191.076477050781

> <r_mmod_Stretch_Energy-OPLS-2005>
51.9910163879395

> <r_mmod_Bend_Energy-OPLS-2005>
181.204360961914

> <r_mmod_Torsional_Energy-OPLS-2005>
200.657653808594

> <r_mmod_Improper_Torsional_Energy-OPLS-2005>
2.80198192596436

> <r_mmod_Van_der_Waal_Energy-OPLS-2005>
151.439971923828

> <r_mmod_Electrostatic_Energy-OPLS-2005>
-371.112457275391

> <r_mmod_Solvation_Energy-OPLS-2005>
-430.223815917969

> <b_mmod_Minimization_Converged-OPLS-2005>
0

> <r_mmod_RMS_Derivative-OPLS-2005>
2.52318167686462

$$$$
57
                    3D
 Structure written by MMmdl.
165174  0  0  1  0            999 V2000
  -30.7553  -14.3747   20.6763 C   0  0  0  0  0  0
  -30.4200  -12.2896   19.3951 C   0  0  0  0  0  0
  -29.4839  -12.5193   18.1934 C   0  0  0  0  0  0
  -28.0090  -12.3736   18.6126 C   0  0  0  0  0  0
  -27.6666  -13.1988   19.8805 C   0  0  2  0  0  0
  -28.7044  -12.9352   20.9934 C   0  0  0  0  0  0
  -25.2608  -13.8149   20.5671 C   0  0  0  0  0  0
  -24.1847  -13.0438   20.9160 C   0  0  0  0  0  0
  -24.6389  -11.6901   20.8725 C   0  0  0  0  0  0
  -23.9052  -10.4291   21.0402 C   0  0  0  0  0  0
  -24.3606   -9.4208   21.9180 C   0  0  0  0  0  0
  -23.6285   -8.2242   22.0754 C   0  0  0  0  0  0
  -22.4269   -8.0276   21.3544 C   0  0  0  0  0  0
  -21.9900   -9.0251   20.4647 C   0  0  0  0  0  0
  -22.7224  -10.2132   20.3055 C   0  0  0  0  0  0
  -21.6850   -6.0733   22.5276 C   0  0  0  0  0  0
  -21.4011   -6.5638   23.8209 C   0  0  0  0  0  0
  -21.3659   -5.6790   24.9174 C   0  0  0  0  0  0
  -21.6045   -4.3054   24.7224 C   0  0  0  0  0  0
  -21.8820   -3.8146   23.4345 C   0  0  0  0  0  0
  -21.9191   -4.6961   22.3401 C   0  0  0  0  0  0
  -22.7869  -13.5240   21.1833 C   0  0  0  0  0  0
  -22.1660   -4.2145   21.0979 F   0  0  0  0  0  0
  -21.5631   -3.4537   25.7738 F   0  0  0  0  0  0
  -30.0466  -13.2359   20.4565 N   0  0  0  0  0  0
  -26.3045  -12.9307   20.3384 N   0  0  0  0  0  0
  -25.9310  -11.6474   20.5763 N   0  0  0  0  0  0
  -22.0514  -12.8236   22.0397 N   0  0  0  0  0  0
  -25.4356  -15.1865   20.4082 N   0  0  0  0  0  0
  -31.7915  -14.6456   20.0611 O   0  0  0  0  0  0
  -21.6637   -6.8873   21.4239 O   0  0  0  0  0  0
  -22.3554  -14.5551   20.6689 O   0  0  0  0  0  0
  -24.6071  -31.8727   23.2129 C   0  0  0  0  0  0
  -25.8992  -32.4850   23.8417 C   0  0  1  0  0  0
  -27.2629  -27.4840   20.0977 C   0  0  0  0  0  0
  -25.5883  -33.8651   24.2355 N   0  0  0  0  0  0
  -23.3931  -30.4918   21.5509 C   0  0  2  0  0  0
  -24.8455  -28.9595   20.1187 C   0  0  0  0  0  0
  -22.7369  -29.4655   22.5010 C   0  0  0  0  0  0
  -18.0264  -28.1354   22.8496 C   0  0  0  0  0  0
  -24.1492  -36.7326   23.2637 C   0  0  0  0  0  0
  -25.9128  -30.8517   21.3586 C   0  0  0  0  0  0
  -25.9940  -29.4835   20.7205 C   0  0  0  0  0  0
  -27.1965  -28.7517   20.7256 C   0  0  0  0  0  0
  -26.0958  -26.9674   19.4973 C   0  0  0  0  0  0
  -24.8870  -27.6918   19.5100 C   0  0  0  0  0  0
  -23.6021  -29.8182   20.1661 C   0  0  0  0  0  0
  -25.4103  -36.3132   24.0348 C   0  0  1  0  0  0
  -20.5845  -28.3630   23.1334 C   0  0  2  0  0  0
  -20.6757  -26.9381   22.5412 C   0  0  0  0  0  0
  -19.5742  -26.6375   21.5200 C   0  0  0  0  0  0
  -18.1917  -26.7904   22.1615 C   0  0  0  0  0  0
  -19.1512  -28.8811   23.2914 C   0  0  0  0  0  0
  -18.9445  -30.1424   23.8915 C   0  0  0  0  0  0
  -17.6452  -30.6576   24.0556 C   0  0  0  0  0  0
  -25.9028  -34.9495   23.5148 C   0  0  0  0  0  0
  -16.5345  -29.9078   23.6313 C   0  0  0  0  0  0
  -16.7253  -28.6487   23.0344 C   0  0  0  0  0  0
  -26.4444  -31.6597   25.0712 C   0  0  0  0  0  0
  -25.3730  -31.3682   26.1474 C   0  0  0  0  0  0
  -27.0258  -30.3056   24.6011 C   0  0  0  0  0  0
  -27.6041  -32.4293   25.7473 C   0  0  0  0  0  0
  -27.5581  -37.1820   24.8467 C   0  0  0  0  0  0
  -21.4101  -29.3012   22.3755 N   0  0  0  0  0  0
  -26.4293  -37.3810   23.9413 N   0  0  0  0  0  0
  -24.6552  -31.0862   22.1007 N   0  0  0  0  0  0
  -23.4168  -28.8205   23.3035 O   0  0  0  0  0  0
  -28.4041  -26.7144   19.9976 O   0  0  0  0  0  0
  -26.5593  -34.8933   22.4708 O   0  0  0  0  0  0
  -23.5279  -32.1448   23.7559 O   0  0  0  0  0  0
  -29.0830  -19.3985   23.7636 C   0  0  0  0  0  0
  -32.3720  -18.1501   22.5256 C   0  0  0  0  0  0
  -29.4516  -20.6575   24.2795 C   0  0  0  0  0  0
  -32.0070  -16.8906   22.0129 C   0  0  0  0  0  0
  -31.7688  -20.2421   23.6365 C   0  0  0  0  0  0
  -29.6935  -17.2944   22.6674 C   0  0  0  0  0  0
  -31.4020  -18.9860   23.1127 C   0  0  0  0  0  0
  -30.0545  -18.5582   23.1800 C   0  0  0  0  0  0
  -30.7957  -21.0832   24.2200 C   0  0  0  0  0  0
  -30.6613  -16.4539   22.0744 C   0  0  0  0  0  0
  -31.2020  -22.4419   24.7682 C   0  0  0  0  0  0
  -30.4113  -25.1779   22.2040 C   0  0  0  0  0  0
  -29.5534  -26.4546   22.1296 C   0  0  0  0  0  0
  -30.2946  -24.4174   23.5375 C   0  0  0  0  0  0
  -29.5764  -27.0814   20.7236 C   0  0  0  0  0  0
  -30.2258  -15.1819   21.6108 N   0  0  0  0  0  0
  -31.3667  -23.4081   23.6686 N   0  3  0  0  0  0
  -31.4617  -12.3942   19.0867 H   0  0  0  0  0  0
  -30.3247  -11.2669   19.7634 H   0  0  0  0  0  0
  -29.7159  -11.8129   17.3951 H   0  0  0  0  0  0
  -29.6518  -13.5146   17.7799 H   0  0  0  0  0  0
  -27.8192  -11.3157   18.7985 H   0  0  0  0  0  0
  -27.3529  -12.6585   17.7895 H   0  0  0  0  0  0
  -27.7268  -14.2526   19.6078 H   0  0  0  0  0  0
  -28.6697  -11.8880   21.2985 H   0  0  0  0  0  0
  -28.4470  -13.4961   21.8921 H   0  0  0  0  0  0
  -25.2753   -9.5683   22.4751 H   0  0  0  0  0  0
  -23.9994   -7.4635   22.7473 H   0  0  0  0  0  0
  -21.0828   -8.8766   19.8955 H   0  0  0  0  0  0
  -22.3678  -10.9669   19.6163 H   0  0  0  0  0  0
  -21.2004   -7.6145   23.9710 H   0  0  0  0  0  0
  -21.1482   -6.0523   25.9075 H   0  0  0  0  0  0
  -22.0601   -2.7606   23.2846 H   0  0  0  0  0  0
  -22.4125  -11.9888   22.4768 H   0  0  0  0  0  0
  -21.1139  -13.1274   22.2628 H   0  0  0  0  0  0
  -24.6731  -15.8468   20.5152 H   0  0  0  0  0  0
  -26.2962  -15.6223   20.0998 H   0  0  0  0  0  0
  -26.7071  -32.5587   23.1201 H   0  0  0  0  0  0
  -25.0053  -33.9839   25.0510 H   0  0  0  0  0  0
  -22.6776  -31.3047   21.4113 H   0  0  0  0  0  0
  -23.3754  -35.9664   23.3310 H   0  0  0  0  0  0
  -24.3588  -36.8917   22.2049 H   0  0  0  0  0  0
  -23.7244  -37.6536   23.6635 H   0  0  0  0  0  0
  -26.0087  -31.6116   20.5815 H   0  0  0  0  0  0
  -26.8061  -30.9208   21.9669 H   0  0  0  0  0  0
  -28.0514  -29.1975   21.2079 H   0  0  0  0  0  0
  -26.1290  -26.0021   19.0116 H   0  0  0  0  0  0
  -24.0056  -27.2757   19.0425 H   0  0  0  0  0  0
  -23.7055  -30.5921   19.4043 H   0  0  0  0  0  0
  -22.7296  -29.2303   19.8752 H   0  0  0  0  0  0
  -25.1272  -36.2008   25.0842 H   0  0  0  0  0  0
  -20.9932  -28.3193   24.1455 H   0  0  0  0  0  0
  -20.5644  -26.2245   23.3590 H   0  0  0  0  0  0
  -21.6632  -26.7435   22.1217 H   0  0  0  0  0  0
  -19.6909  -25.6288   21.1223 H   0  0  0  0  0  0
  -19.6684  -27.3194   20.6737 H   0  0  0  0  0  0
  -17.4186  -26.6656   21.4021 H   0  0  0  0  0  0
  -18.0324  -26.0031   22.8999 H   0  0  0  0  0  0
  -19.7933  -30.7224   24.2295 H   0  0  0  0  0  0
  -17.5018  -31.6259   24.5155 H   0  0  0  0  0  0
  -15.5347  -30.2992   23.7621 H   0  0  0  0  0  0
  -15.8652  -28.0817   22.7046 H   0  0  0  0  0  0
  -24.5922  -30.7001   25.7820 H   0  0  0  0  0  0
  -24.8899  -32.2834   26.4918 H   0  0  0  0  0  0
  -25.8113  -30.8868   27.0228 H   0  0  0  0  0  0
  -26.2774  -29.6848   24.1077 H   0  0  0  0  0  0
  -27.4071  -29.7247   25.4416 H   0  0  0  0  0  0
  -27.8583  -30.4397   23.9101 H   0  0  0  0  0  0
  -27.2685  -33.3590   26.2079 H   0  0  0  0  0  0
  -28.3847  -32.6851   25.0298 H   0  0  0  0  0  0
  -28.0707  -31.8387   26.5366 H   0  0  0  0  0  0
  -28.2614  -38.0106   24.7513 H   0  0  0  0  0  0
  -28.1068  -36.2642   24.6297 H   0  0  0  0  0  0
  -27.2307  -37.1468   25.8874 H   0  0  0  0  0  0
  -20.9244  -29.8722   21.6981 H   0  0  0  0  0  0
  -26.0187  -38.2895   24.1403 H   0  0  0  0  0  0
  -28.0502  -19.0817   23.8189 H   0  0  0  0  0  0
  -33.4049  -18.4654   22.4715 H   0  0  0  0  0  0
  -28.6968  -21.2915   24.7243 H   0  0  0  0  0  0
  -32.7836  -16.2716   21.5887 H   0  0  0  0  0  0
  -32.8014  -20.5608   23.5883 H   0  0  0  0  0  0
  -28.6629  -16.9733   22.7279 H   0  0  0  0  0  0
  -32.1562  -22.3356   25.2864 H   0  0  0  0  0  0
  -30.4884  -22.7986   25.5130 H   0  0  0  0  0  0
  -31.4508  -25.4607   22.0331 H   0  0  0  0  0  0
  -30.1408  -24.5076   21.3861 H   0  0  0  0  0  0
  -29.9348  -27.1790   22.8506 H   0  0  0  0  0  0
  -28.5263  -26.2462   22.4315 H   0  0  0  0  0  0
  -29.3174  -23.9350   23.5980 H   0  0  0  0  0  0
  -30.3606  -25.1081   24.3796 H   0  0  0  0  0  0
  -30.4322  -26.7008   20.1648 H   0  0  0  0  0  0
  -29.7547  -28.1540   20.7579 H   0  0  0  0  0  0
  -29.3444  -14.8561   21.9768 H   0  0  0  0  0  0
  -31.4422  -22.8802   22.8156 H   0  0  0  0  0  0
  -32.2409  -23.8862   23.8122 H   0  0  0  0  0  0
  1 25  1  0  0  0
  1 30  2  0  0  0
  1 86  1  0  0  0
  2  3  1  0  0  0
  2 25  1  0  0  0
  2 88  1  0  0  0
  2 89  1  0  0  0
  3  4  1  0  0  0
  3 90  1  0  0  0
  3 91  1  0  0  0
  4  5  1  0  0  0
  4 92  1  0  0  0
  4 93  1  0  0  0
  5  6  1  0  0  0
  5 26  1  0  0  0
  5 94  1  0  0  0
  6 25  1  0  0  0
  6 95  1  0  0  0
  6 96  1  0  0  0
  7  8  2  0  0  0
  7 26  1  0  0  0
  7 29  1  0  0  0
  8  9  1  0  0  0
  8 22  1  0  0  0
  9 10  1  0  0  0
  9 27  2  0  0  0
 10 11  2  0  0  0
 10 15  1  0  0  0
 11 12  1  0  0  0
 11 97  1  0  0  0
 12 13  2  0  0  0
 12 98  1  0  0  0
 13 14  1  0  0  0
 13 31  1  0  0  0
 14 15  2  0  0  0
 14 99  1  0  0  0
 15100  1  0  0  0
 16 17  2  0  0  0
 16 21  1  0  0  0
 16 31  1  0  0  0
 17 18  1  0  0  0
 17101  1  0  0  0
 18 19  2  0  0  0
 18102  1  0  0  0
 19 20  1  0  0  0
 19 24  1  0  0  0
 20 21  2  0  0  0
 20103  1  0  0  0
 21 23  1  0  0  0
 22 28  1  0  0  0
 22 32  2  0  0  0
 26 27  1  0  0  0
 28104  1  0  0  0
 28105  1  0  0  0
 29106  1  0  0  0
 29107  1  0  0  0
 33 34  1  0  0  0
 33 66  1  0  0  0
 33 70  2  0  0  0
 34 36  1  0  0  0
 34 59  1  0  0  0
 34108  1  0  0  0
 35 44  2  0  0  0
 35 45  1  0  0  0
 35 68  1  0  0  0
 36 56  1  0  0  0
 36109  1  0  0  0
 37 39  1  0  0  0
 37 47  1  0  0  0
 37 66  1  0  0  0
 37110  1  0  0  0
 38 43  2  0  0  0
 38 46  1  0  0  0
 38 47  1  0  0  0
 39 64  1  0  0  0
 39 67  2  0  0  0
 40 52  1  0  0  0
 40 53  2  0  0  0
 40 58  1  0  0  0
 41111  1  0  0  0
 41112  1  0  0  0
 41113  1  0  0  0
 41 48  1  0  0  0
 42 43  1  0  0  0
 42 66  1  0  0  0
 42114  1  0  0  0
 42115  1  0  0  0
 43 44  1  0  0  0
 44116  1  0  0  0
 45 46  2  0  0  0
 45117  1  0  0  0
 46118  1  0  0  0
 47119  1  0  0  0
 47120  1  0  0  0
 48 56  1  0  0  0
 48 65  1  0  0  0
 48121  1  0  0  0
 49 50  1  0  0  0
 49 53  1  0  0  0
 49 64  1  0  0  0
 49122  1  0  0  0
 50 51  1  0  0  0
 50123  1  0  0  0
 50124  1  0  0  0
 51 52  1  0  0  0
 51125  1  0  0  0
 51126  1  0  0  0
 52127  1  0  0  0
 52128  1  0  0  0
 53 54  1  0  0  0
 54 55  2  0  0  0
 54129  1  0  0  0
 55 57  1  0  0  0
 55130  1  0  0  0
 56 69  2  0  0  0
 57 58  2  0  0  0
 57131  1  0  0  0
 58132  1  0  0  0
 59 60  1  0  0  0
 59 61  1  0  0  0
 59 62  1  0  0  0
 60133  1  0  0  0
 60134  1  0  0  0
 60135  1  0  0  0
 61136  1  0  0  0
 61137  1  0  0  0
 61138  1  0  0  0
 62139  1  0  0  0
 62140  1  0  0  0
 62141  1  0  0  0
 63 65  1  0  0  0
 63142  1  0  0  0
 63143  1  0  0  0
 63144  1  0  0  0
 64145  1  0  0  0
 65146  1  0  0  0
 68 85  1  0  0  0
 71 73  2  0  0  0
 71 78  1  0  0  0
 71147  1  0  0  0
 72 74  1  0  0  0
 72 77  2  0  0  0
 72148  1  0  0  0
 73 79  1  0  0  0
 73149  1  0  0  0
 74 80  2  0  0  0
 74150  1  0  0  0
 75 77  1  0  0  0
 75 79  2  0  0  0
 75151  1  0  0  0
 76 78  2  0  0  0
 76 80  1  0  0  0
 76152  1  0  0  0
 77 78  1  0  0  0
 79 81  1  0  0  0
 80 86  1  0  0  0
 81 87  1  0  0  0
 81153  1  0  0  0
 81154  1  0  0  0
 82 83  1  0  0  0
 82 84  1  0  0  0
 82155  1  0  0  0
 82156  1  0  0  0
 83 85  1  0  0  0
 83157  1  0  0  0
 83158  1  0  0  0
 84 87  1  0  0  0
 84159  1  0  0  0
 84160  1  0  0  0
 85161  1  0  0  0
 85162  1  0  0  0
 86163  1  0  0  0
 87164  1  0  0  0
 87165  1  0  0  0
M  CHG  1  87   1
M  ISO  4   1 100  68 101  85 101  86 100
M  END
> <chiral flag>
0

> <version>
0

> <s_m_source_file>
/data/baiqing/PycharmProjects/Reinvent-master-3.2/result/LINK_invent/BTK/process_docking_weight1_custom_product_contain_oxygen_bond_distance_aromatic_linkinvent_7_9_3/rearranged_h_0004.sdf

> <i_m_source_file_index>
58

> <r_mmod_Potential_Energy-OPLS-2005>
-257.299743652344

> <r_mmod_Stretch_Energy-OPLS-2005>
33.7184867858887

> <r_mmod_Bend_Energy-OPLS-2005>
101.720314025879

> <r_mmod_Torsional_Energy-OPLS-2005>
206.798812866211

> <r_mmod_Improper_Torsional_Energy-OPLS-2005>
1.82524406909943

> <r_mmod_Van_der_Waal_Energy-OPLS-2005>
176.04833984375

> <r_mmod_Electrostatic_Energy-OPLS-2005>
-309.822540283203

> <r_mmod_Solvation_Energy-OPLS-2005>
-473.154418945312

> <b_mmod_Minimization_Converged-OPLS-2005>
0

> <r_mmod_RMS_Derivative-OPLS-2005>
1.1821596622467

$$$$
58
                    3D
 Structure written by MMmdl.
169178  0  0  1  0            999 V2000
  -30.7652  -14.3367   20.7236 C   0  0  0  0  0  0
  -30.4214  -12.2899   19.3789 C   0  0  0  0  0  0
  -29.4794  -12.5279   18.1846 C   0  0  0  0  0  0
  -28.0056  -12.3748   18.6075 C   0  0  0  0  0  0
  -27.6667  -13.1938   19.8791 C   0  0  2  0  0  0
  -28.7027  -12.9105   20.9871 C   0  0  0  0  0  0
  -25.2608  -13.8159   20.5664 C   0  0  0  0  0  0
  -24.1844  -13.0452   20.9159 C   0  0  0  0  0  0
  -24.6377  -11.6912   20.8722 C   0  0  0  0  0  0
  -23.9046  -10.4305   21.0400 C   0  0  0  0  0  0
  -24.3608   -9.4229   21.9181 C   0  0  0  0  0  0
  -23.6285   -8.2263   22.0760 C   0  0  0  0  0  0
  -22.4268   -8.0286   21.3545 C   0  0  0  0  0  0
  -21.9903   -9.0261   20.4640 C   0  0  0  0  0  0
  -22.7226  -10.2140   20.3043 C   0  0  0  0  0  0
  -21.6844   -6.0729   22.5272 C   0  0  0  0  0  0
  -21.4008   -6.5631   23.8203 C   0  0  0  0  0  0
  -21.3670   -5.6786   24.9170 C   0  0  0  0  0  0
  -21.6049   -4.3048   24.7215 C   0  0  0  0  0  0
  -21.8819   -3.8140   23.4330 C   0  0  0  0  0  0
  -21.9195   -4.6959   22.3386 C   0  0  0  0  0  0
  -22.7870  -13.5258   21.1838 C   0  0  0  0  0  0
  -22.1668   -4.2143   21.0970 F   0  0  0  0  0  0
  -21.5642   -3.4540   25.7743 F   0  0  0  0  0  0
  -30.0496  -13.2133   20.4587 N   0  0  0  0  0  0
  -26.3033  -12.9300   20.3366 N   0  0  0  0  0  0
  -25.9291  -11.6468   20.5734 N   0  0  0  0  0  0
  -22.0499  -12.8228   22.0368 N   0  0  0  0  0  0
  -25.4368  -15.1870   20.4107 N   0  0  0  0  0  0
  -31.7646  -14.6735   20.0794 O   0  0  0  0  0  0
  -21.6635   -6.8880   21.4244 O   0  0  0  0  0  0
  -22.3565  -14.5582   20.6711 O   0  0  0  0  0  0
  -24.6123  -31.8705   23.2103 C   0  0  0  0  0  0
  -25.9031  -32.4836   23.8393 C   0  0  1  0  0  0
  -27.2356  -27.4449   20.0901 C   0  0  0  0  0  0
  -25.5909  -33.8633   24.2333 N   0  0  0  0  0  0
  -23.3981  -30.4958   21.5517 C   0  0  2  0  0  0
  -24.8426  -28.9631   20.1170 C   0  0  0  0  0  0
  -22.7387  -29.4689   22.4995 C   0  0  0  0  0  0
  -18.0275  -28.1380   22.8502 C   0  0  0  0  0  0
  -24.1488  -36.7302   23.2631 C   0  0  0  0  0  0
  -25.9259  -30.8381   21.3626 C   0  0  0  0  0  0
  -26.0028  -29.4729   20.7109 C   0  0  0  0  0  0
  -27.1982  -28.7203   20.6989 C   0  0  0  0  0  0
  -26.0488  -26.9476   19.4938 C   0  0  0  0  0  0
  -24.8600  -27.6975   19.5094 C   0  0  0  0  0  0
  -23.6041  -29.8280   20.1665 C   0  0  0  0  0  0
  -25.4112  -36.3118   24.0335 C   0  0  1  0  0  0
  -20.5858  -28.3672   23.1324 C   0  0  2  0  0  0
  -20.6760  -26.9406   22.5426 C   0  0  0  0  0  0
  -19.5747  -26.6396   21.5205 C   0  0  0  0  0  0
  -18.1920  -26.7937   22.1608 C   0  0  0  0  0  0
  -19.1522  -28.8844   23.2917 C   0  0  0  0  0  0
  -18.9450  -30.1449   23.8926 C   0  0  0  0  0  0
  -17.6453  -30.6592   24.0579 C   0  0  0  0  0  0
  -25.9050  -34.9485   23.5138 C   0  0  0  0  0  0
  -16.5348  -29.9099   23.6316 C   0  0  0  0  0  0
  -16.7266  -28.6504   23.0362 C   0  0  0  0  0  0
  -26.4452  -31.6596   25.0716 C   0  0  0  0  0  0
  -25.3724  -31.3688   26.1466 C   0  0  0  0  0  0
  -27.0266  -30.3041   24.6066 C   0  0  0  0  0  0
  -27.6044  -32.4284   25.7481 C   0  0  0  0  0  0
  -27.5598  -37.1802   24.8448 C   0  0  0  0  0  0
  -21.4118  -29.3049   22.3725 N   0  0  0  0  0  0
  -26.4292  -37.3815   23.9423 N   0  0  0  0  0  0
  -24.6638  -31.0821   22.1000 N   0  0  0  0  0  0
  -23.4167  -28.8224   23.3026 O   0  0  0  0  0  0
  -28.4234  -26.7384   20.1070 O   0  0  0  0  0  0
  -26.5608  -34.8937   22.4697 O   0  0  0  0  0  0
  -23.5324  -32.1449   23.7510 O   0  0  0  0  0  0
  -29.9619  -18.3454   23.3669 C   0  0  0  0  0  0
  -32.3199  -18.0084   22.8461 C   0  0  0  0  0  0
  -29.6627  -17.0804   22.8330 C   0  0  0  0  0  0
  -32.0191  -16.7439   22.2998 C   0  0  0  0  0  0
  -31.2910  -18.8175   23.3756 C   0  0  0  0  0  0
  -30.6846  -16.2809   22.2821 C   0  0  0  0  0  0
  -32.0812  -23.6991   22.6676 C   0  0  0  0  0  0
  -29.7552  -22.8534   23.1677 C   0  0  0  0  0  0
  -31.6151  -24.0293   21.2355 C   0  0  0  0  0  0
  -29.3513  -23.2160   21.7188 C   0  0  0  0  0  0
  -31.2665  -22.5787   23.3447 C   0  0  1  0  0  0
  -31.5988  -20.1844   23.9648 C   0  0  0  0  0  0
  -29.7809  -24.7161   19.7655 C   0  0  0  0  0  0
  -28.4055  -25.3963   19.6133 C   0  0  0  0  0  0
  -30.3138  -15.0067   21.7940 N   0  0  0  0  0  0
  -30.1606  -24.3379   21.1597 N   0  3  2  0  0  0
  -31.6669  -21.2134   22.9065 N   0  3  0  0  0  0
  -31.4611  -12.4084   19.0677 H   0  0  0  0  0  0
  -30.3327  -11.2616   19.7304 H   0  0  0  0  0  0
  -29.7126  -11.8292   17.3794 H   0  0  0  0  0  0
  -29.6414  -13.5277   17.7779 H   0  0  0  0  0  0
  -27.8199  -11.3156   18.7895 H   0  0  0  0  0  0
  -27.3460  -12.6590   17.7869 H   0  0  0  0  0  0
  -27.7332  -14.2489   19.6148 H   0  0  0  0  0  0
  -28.6648  -11.8591   21.2746 H   0  0  0  0  0  0
  -28.4328  -13.4551   21.8923 H   0  0  0  0  0  0
  -25.2763   -9.5719   22.4738 H   0  0  0  0  0  0
  -24.0003   -7.4660   22.7495 H   0  0  0  0  0  0
  -21.0841   -8.8773   19.8937 H   0  0  0  0  0  0
  -22.3695  -10.9674   19.6137 H   0  0  0  0  0  0
  -21.1983   -7.6135   23.9711 H   0  0  0  0  0  0
  -21.1500   -6.0507   25.9077 H   0  0  0  0  0  0
  -22.0581   -2.7592   23.2829 H   0  0  0  0  0  0
  -22.4108  -11.9865   22.4716 H   0  0  0  0  0  0
  -21.1105  -13.1230   22.2570 H   0  0  0  0  0  0
  -24.6776  -15.8498   20.5265 H   0  0  0  0  0  0
  -26.3004  -15.6234   20.1114 H   0  0  0  0  0  0
  -26.7110  -32.5557   23.1160 H   0  0  0  0  0  0
  -25.0076  -33.9800   25.0494 H   0  0  0  0  0  0
  -22.6852  -31.3119   21.4131 H   0  0  0  0  0  0
  -23.3802  -35.9576   23.3212 H   0  0  0  0  0  0
  -24.3595  -36.9005   22.2059 H   0  0  0  0  0  0
  -23.7163  -37.6447   23.6704 H   0  0  0  0  0  0
  -26.0374  -31.6044   20.5950 H   0  0  0  0  0  0
  -26.8156  -30.8912   21.9781 H   0  0  0  0  0  0
  -28.0923  -29.1126   21.1637 H   0  0  0  0  0  0
  -26.0067  -25.9837   19.0085 H   0  0  0  0  0  0
  -23.9668  -27.2962   19.0511 H   0  0  0  0  0  0
  -23.7071  -30.6016   19.4062 H   0  0  0  0  0  0
  -22.7275  -29.2467   19.8745 H   0  0  0  0  0  0
  -25.1269  -36.1984   25.0828 H   0  0  0  0  0  0
  -20.9966  -28.3256   24.1436 H   0  0  0  0  0  0
  -20.5649  -26.2276   23.3601 H   0  0  0  0  0  0
  -21.6638  -26.7440   22.1237 H   0  0  0  0  0  0
  -19.6915  -25.6315   21.1207 H   0  0  0  0  0  0
  -19.6695  -27.3212   20.6734 H   0  0  0  0  0  0
  -17.4198  -26.6728   21.3991 H   0  0  0  0  0  0
  -18.0295  -26.0050   22.8972 H   0  0  0  0  0  0
  -19.7930  -30.7250   24.2313 H   0  0  0  0  0  0
  -17.5016  -31.6271   24.5195 H   0  0  0  0  0  0
  -15.5350  -30.3021   23.7618 H   0  0  0  0  0  0
  -15.8668  -28.0826   22.7073 H   0  0  0  0  0  0
  -24.5887  -30.7039   25.7798 H   0  0  0  0  0  0
  -24.8921  -32.2839   26.4944 H   0  0  0  0  0  0
  -25.8086  -30.8828   27.0203 H   0  0  0  0  0  0
  -26.2792  -29.6819   24.1127 H   0  0  0  0  0  0
  -27.4043  -29.7255   25.4507 H   0  0  0  0  0  0
  -27.8624  -30.4363   23.9196 H   0  0  0  0  0  0
  -27.2718  -33.3633   26.2007 H   0  0  0  0  0  0
  -28.3894  -32.6745   25.0318 H   0  0  0  0  0  0
  -28.0643  -31.8407   26.5434 H   0  0  0  0  0  0
  -28.2560  -38.0157   24.7613 H   0  0  0  0  0  0
  -28.1157  -36.2703   24.6143 H   0  0  0  0  0  0
  -27.2327  -37.1296   25.8847 H   0  0  0  0  0  0
  -20.9258  -29.8784   21.6967 H   0  0  0  0  0  0
  -26.0180  -38.2875   24.1504 H   0  0  0  0  0  0
  -29.1613  -18.9440   23.7797 H   0  0  0  0  0  0
  -33.3468  -18.3465   22.8629 H   0  0  0  0  0  0
  -28.6385  -16.7327   22.8480 H   0  0  0  0  0  0
  -32.8262  -16.1344   21.9179 H   0  0  0  0  0  0
  -31.9948  -24.6017   23.2744 H   0  0  0  0  0  0
  -33.1436  -23.4533   22.6687 H   0  0  0  0  0  0
  -29.1670  -22.0028   23.5170 H   0  0  0  0  0  0
  -29.4763  -23.6816   23.8208 H   0  0  0  0  0  0
  -31.8436  -23.1940   20.5723 H   0  0  0  0  0  0
  -32.1917  -24.8783   20.8665 H   0  0  0  0  0  0
  -28.2922  -23.4708   21.7175 H   0  0  0  0  0  0
  -29.4536  -22.3401   21.0770 H   0  0  0  0  0  0
  -31.4994  -22.6435   24.4105 H   0  0  0  0  0  0
  -32.5397  -20.1549   24.5167 H   0  0  0  0  0  0
  -30.8223  -20.4267   24.6916 H   0  0  0  0  0  0
  -30.5295  -25.3877   19.3433 H   0  0  0  0  0  0
  -29.8017  -23.8173   19.1464 H   0  0  0  0  0  0
  -27.6247  -24.8073   20.0941 H   0  0  0  0  0  0
  -28.1705  -25.4296   18.5478 H   0  0  0  0  0  0
  -29.4806  -14.6065   22.1975 H   0  0  0  0  0  0
  -29.9953  -25.1567   21.7325 H   0  0  0  0  0  0
  -32.6267  -21.2258   22.6016 H   0  0  0  0  0  0
  -31.1083  -20.8957   22.1323 H   0  0  0  0  0  0
  1 25  1  0  0  0
  1 30  2  0  0  0
  1 85  1  0  0  0
  2  3  1  0  0  0
  2 25  1  0  0  0
  2 88  1  0  0  0
  2 89  1  0  0  0
  3  4  1  0  0  0
  3 90  1  0  0  0
  3 91  1  0  0  0
  4  5  1  0  0  0
  4 92  1  0  0  0
  4 93  1  0  0  0
  5  6  1  0  0  0
  5 26  1  0  0  0
  5 94  1  0  0  0
  6 25  1  0  0  0
  6 95  1  0  0  0
  6 96  1  0  0  0
  7  8  2  0  0  0
  7 26  1  0  0  0
  7 29  1  0  0  0
  8  9  1  0  0  0
  8 22  1  0  0  0
  9 10  1  0  0  0
  9 27  2  0  0  0
 10 11  2  0  0  0
 10 15  1  0  0  0
 11 12  1  0  0  0
 11 97  1  0  0  0
 12 13  2  0  0  0
 12 98  1  0  0  0
 13 14  1  0  0  0
 13 31  1  0  0  0
 14 15  2  0  0  0
 14 99  1  0  0  0
 15100  1  0  0  0
 16 17  2  0  0  0
 16 21  1  0  0  0
 16 31  1  0  0  0
 17 18  1  0  0  0
 17101  1  0  0  0
 18 19  2  0  0  0
 18102  1  0  0  0
 19 20  1  0  0  0
 19 24  1  0  0  0
 20 21  2  0  0  0
 20103  1  0  0  0
 21 23  1  0  0  0
 22 28  1  0  0  0
 22 32  2  0  0  0
 26 27  1  0  0  0
 28104  1  0  0  0
 28105  1  0  0  0
 29106  1  0  0  0
 29107  1  0  0  0
 33 34  1  0  0  0
 33 66  1  0  0  0
 33 70  2  0  0  0
 34 36  1  0  0  0
 34 59  1  0  0  0
 34108  1  0  0  0
 35 44  2  0  0  0
 35 45  1  0  0  0
 35 68  1  0  0  0
 36 56  1  0  0  0
 36109  1  0  0  0
 37 39  1  0  0  0
 37 47  1  0  0  0
 37 66  1  0  0  0
 37110  1  0  0  0
 38 43  2  0  0  0
 38 46  1  0  0  0
 38 47  1  0  0  0
 39 64  1  0  0  0
 39 67  2  0  0  0
 40 52  1  0  0  0
 40 53  2  0  0  0
 40 58  1  0  0  0
 41111  1  0  0  0
 41112  1  0  0  0
 41113  1  0  0  0
 41 48  1  0  0  0
 42 43  1  0  0  0
 42 66  1  0  0  0
 42114  1  0  0  0
 42115  1  0  0  0
 43 44  1  0  0  0
 44116  1  0  0  0
 45 46  2  0  0  0
 45117  1  0  0  0
 46118  1  0  0  0
 47119  1  0  0  0
 47120  1  0  0  0
 48 56  1  0  0  0
 48 65  1  0  0  0
 48121  1  0  0  0
 49 50  1  0  0  0
 49 53  1  0  0  0
 49 64  1  0  0  0
 49122  1  0  0  0
 50 51  1  0  0  0
 50123  1  0  0  0
 50124  1  0  0  0
 51 52  1  0  0  0
 51125  1  0  0  0
 51126  1  0  0  0
 52127  1  0  0  0
 52128  1  0  0  0
 53 54  1  0  0  0
 54 55  2  0  0  0
 54129  1  0  0  0
 55 57  1  0  0  0
 55130  1  0  0  0
 56 69  2  0  0  0
 57 58  2  0  0  0
 57131  1  0  0  0
 58132  1  0  0  0
 59 60  1  0  0  0
 59 61  1  0  0  0
 59 62  1  0  0  0
 60133  1  0  0  0
 60134  1  0  0  0
 60135  1  0  0  0
 61136  1  0  0  0
 61137  1  0  0  0
 61138  1  0  0  0
 62139  1  0  0  0
 62140  1  0  0  0
 62141  1  0  0  0
 63 65  1  0  0  0
 63142  1  0  0  0
 63143  1  0  0  0
 63144  1  0  0  0
 64145  1  0  0  0
 65146  1  0  0  0
 68 84  1  0  0  0
 71 73  2  0  0  0
 71 75  1  0  0  0
 71147  1  0  0  0
 72 74  1  0  0  0
 72 75  2  0  0  0
 72148  1  0  0  0
 73 76  1  0  0  0
 73149  1  0  0  0
 74 76  2  0  0  0
 74150  1  0  0  0
 75 82  1  0  0  0
 76 85  1  0  0  0
 77 79  1  0  0  0
 77 81  1  0  0  0
 77151  1  0  0  0
 77152  1  0  0  0
 78 80  1  0  0  0
 78 81  1  0  0  0
 78153  1  0  0  0
 78154  1  0  0  0
 79 86  1  0  0  0
 79155  1  0  0  0
 79156  1  0  0  0
 80 86  1  0  0  0
 80157  1  0  0  0
 80158  1  0  0  0
 81 87  1  0  0  0
 81159  1  0  0  0
 82 87  1  0  0  0
 82160  1  0  0  0
 82161  1  0  0  0
 83 84  1  0  0  0
 83162  1  0  0  0
 83163  1  0  0  0
 83 86  1  0  0  0
 84164  1  0  0  0
 84165  1  0  0  0
 85166  1  0  0  0
 86167  1  0  0  0
 87168  1  0  0  0
 87169  1  0  0  0
M  CHG  2  86   1  87   1
M  ISO  4   1 100  68 101  84 101  85 100
M  END
> <chiral flag>
0

> <version>
0

> <s_m_source_file>
/data/baiqing/PycharmProjects/Reinvent-master-3.2/result/LINK_invent/BTK/process_docking_weight1_custom_product_contain_oxygen_bond_distance_aromatic_linkinvent_7_9_3/rearranged_h_0004.sdf

> <i_m_source_file_index>
59

> <r_mmod_Potential_Energy-OPLS-2005>
-308.81396484375

> <r_mmod_Stretch_Energy-OPLS-2005>
35.4885330200195

> <r_mmod_Bend_Energy-OPLS-2005>
103.581909179688

> <r_mmod_Torsional_Energy-OPLS-2005>
260.600555419922

> <r_mmod_Improper_Torsional_Energy-OPLS-2005>
2.26946544647217

> <r_mmod_Van_der_Waal_Energy-OPLS-2005>
163.558807373047

> <r_mmod_Electrostatic_Energy-OPLS-2005>
90.1035385131836

> <r_mmod_Solvation_Energy-OPLS-2005>
-973.024780273438

> <b_mmod_Minimization_Converged-OPLS-2005>
0

> <r_mmod_RMS_Derivative-OPLS-2005>
2.08794736862183

$$$$
59
                    3D
 Structure written by MMmdl.
160169  0  0  1  0            999 V2000
  -30.6541  -14.5388   20.5346 C   0  0  0  0  0  0
  -30.4328  -12.3354   19.4339 C   0  0  0  0  0  0
  -29.5021  -12.5111   18.2135 C   0  0  0  0  0  0
  -28.0231  -12.3641   18.6234 C   0  0  0  0  0  0
  -27.6620  -13.2080   19.8743 C   0  0  2  0  0  0
  -28.7046  -13.0029   20.9977 C   0  0  0  0  0  0
  -25.2600  -13.8157   20.5662 C   0  0  0  0  0  0
  -24.1856  -13.0436   20.9186 C   0  0  0  0  0  0
  -24.6411  -11.6903   20.8743 C   0  0  0  0  0  0
  -23.9073  -10.4290   21.0410 C   0  0  0  0  0  0
  -24.3622   -9.4204   21.9187 C   0  0  0  0  0  0
  -23.6301   -8.2235   22.0750 C   0  0  0  0  0  0
  -22.4278   -8.0283   21.3544 C   0  0  0  0  0  0
  -21.9916   -9.0254   20.4642 C   0  0  0  0  0  0
  -22.7246  -10.2134   20.3056 C   0  0  0  0  0  0
  -21.6849   -6.0738   22.5279 C   0  0  0  0  0  0
  -21.4008   -6.5639   23.8212 C   0  0  0  0  0  0
  -21.3666   -5.6791   24.9177 C   0  0  0  0  0  0
  -21.6048   -4.3055   24.7228 C   0  0  0  0  0  0
  -21.8821   -3.8146   23.4346 C   0  0  0  0  0  0
  -21.9191   -4.6963   22.3403 C   0  0  0  0  0  0
  -22.7876  -13.5231   21.1854 C   0  0  0  0  0  0
  -22.1662   -4.2146   21.0982 F   0  0  0  0  0  0
  -21.5636   -3.4543   25.7743 F   0  0  0  0  0  0
  -30.0315  -13.3274   20.4467 N   0  0  0  0  0  0
  -26.3033  -12.9329   20.3351 N   0  0  0  0  0  0
  -25.9340  -11.6486   20.5765 N   0  0  0  0  0  0
  -22.0503  -12.8230   22.0405 N   0  0  0  0  0  0
  -25.4322  -15.1869   20.4041 N   0  0  0  0  0  0
  -31.7958  -14.7206   20.1004 O   0  0  0  0  0  0
  -21.6636   -6.8884   21.4243 O   0  0  0  0  0  0
  -22.3571  -14.5541   20.6699 O   0  0  0  0  0  0
  -24.6183  -31.8642   23.2070 C   0  0  0  0  0  0
  -25.9061  -32.4799   23.8379 C   0  0  1  0  0  0
  -27.2376  -27.3911   20.1002 C   0  0  0  0  0  0
  -25.5901  -33.8602   24.2303 N   0  0  0  0  0  0
  -23.4082  -30.4868   21.5480 C   0  0  2  0  0  0
  -24.8542  -28.9453   20.1138 C   0  0  0  0  0  0
  -22.7427  -29.4645   22.4979 C   0  0  0  0  0  0
  -18.0269  -28.1385   22.8491 C   0  0  0  0  0  0
  -24.1484  -36.7312   23.2638 C   0  0  0  0  0  0
  -25.9404  -30.8157   21.3661 C   0  0  0  0  0  0
  -26.0158  -29.4468   20.7124 C   0  0  0  0  0  0
  -27.2063  -28.6776   20.7012 C   0  0  0  0  0  0
  -26.0512  -26.9155   19.4933 C   0  0  0  0  0  0
  -24.8692  -27.6810   19.5013 C   0  0  0  0  0  0
  -23.6173  -29.8155   20.1639 C   0  0  0  0  0  0
  -25.4105  -36.3102   24.0334 C   0  0  1  0  0  0
  -20.5862  -28.3674   23.1309 C   0  0  2  0  0  0
  -20.6758  -26.9408   22.5417 C   0  0  0  0  0  0
  -19.5740  -26.6386   21.5214 C   0  0  0  0  0  0
  -18.1918  -26.7932   22.1620 C   0  0  0  0  0  0
  -19.1521  -28.8847   23.2894 C   0  0  0  0  0  0
  -18.9446  -30.1451   23.8906 C   0  0  0  0  0  0
  -17.6448  -30.6587   24.0570 C   0  0  0  0  0  0
  -25.9045  -34.9466   23.5123 C   0  0  0  0  0  0
  -16.5340  -29.9089   23.6333 C   0  0  0  0  0  0
  -16.7258  -28.6509   23.0351 C   0  0  0  0  0  0
  -26.4474  -31.6598   25.0727 C   0  0  0  0  0  0
  -25.3729  -31.3714   26.1467 C   0  0  0  0  0  0
  -27.0308  -30.3033   24.6141 C   0  0  0  0  0  0
  -27.6049  -32.4319   25.7487 C   0  0  0  0  0  0
  -27.5585  -37.1799   24.8453 C   0  0  0  0  0  0
  -21.4149  -29.3036   22.3715 N   0  0  0  0  0  0
  -26.4283  -37.3792   23.9418 N   0  0  0  0  0  0
  -24.6741  -31.0708   22.0985 N   0  0  0  0  0  0
  -23.4181  -28.8191   23.3040 O   0  0  0  0  0  0
  -28.4163  -26.6530   20.1365 O   0  0  0  0  0  0
  -26.5615  -34.8923   22.4691 O   0  0  0  0  0  0
  -23.5367  -32.1411   23.7445 O   0  0  0  0  0  0
  -30.8476  -19.0301   19.7808 C   0  0  0  0  0  0
  -28.4918  -18.9893   20.3296 C   0  0  0  0  0  0
  -30.9783  -17.6820   20.2028 C   0  0  0  0  0  0
  -28.6246  -17.6445   20.7624 C   0  0  0  0  0  0
  -29.5950  -19.6942   19.7938 C   0  0  0  0  0  0
  -29.8548  -16.9471   20.6607 C   0  0  0  0  0  0
  -29.9377  -24.8414   19.5463 C   0  0  0  0  0  0
  -27.8266  -24.2362   20.6211 C   0  0  0  0  0  0
  -30.0748  -23.4017   18.9843 C   0  0  0  0  0  0
  -27.9522  -22.7772   20.0770 C   0  0  0  0  0  0
  -28.4683  -25.2771   19.6718 C   0  0  1  0  0  0
  -29.4108  -21.0282   19.0257 C   0  0  0  0  0  0
  -29.8799  -15.5467   21.0131 N   0  0  0  0  0  0
  -29.3517  -22.3430   19.7609 N   0  3  1  0  0  0
  -31.4762  -12.4488   19.1333 H   0  0  0  0  0  0
  -30.3479  -11.3263   19.8395 H   0  0  0  0  0  0
  -29.7501  -11.7813   17.4413 H   0  0  0  0  0  0
  -29.6614  -13.4948   17.7684 H   0  0  0  0  0  0
  -27.8407  -11.3084   18.8260 H   0  0  0  0  0  0
  -27.3714  -12.6300   17.7902 H   0  0  0  0  0  0
  -27.7000  -14.2538   19.5692 H   0  0  0  0  0  0
  -28.6938  -11.9682   21.3423 H   0  0  0  0  0  0
  -28.4599  -13.6031   21.8751 H   0  0  0  0  0  0
  -25.2762   -9.5682   22.4772 H   0  0  0  0  0  0
  -24.0008   -7.4625   22.7471 H   0  0  0  0  0  0
  -21.0839   -8.8780   19.8957 H   0  0  0  0  0  0
  -22.3703  -10.9678   19.6172 H   0  0  0  0  0  0
  -21.1992   -7.6145   23.9725 H   0  0  0  0  0  0
  -21.1490   -6.0514   25.9083 H   0  0  0  0  0  0
  -22.0594   -2.7609   23.2843 H   0  0  0  0  0  0
  -22.4096  -11.9881   22.4792 H   0  0  0  0  0  0
  -21.1127  -13.1282   22.2603 H   0  0  0  0  0  0
  -24.6603  -15.8384   20.4969 H   0  0  0  0  0  0
  -26.2706  -15.6152   20.0339 H   0  0  0  0  0  0
  -26.7127  -32.5488   23.1134 H   0  0  0  0  0  0
  -25.0024  -33.9753   25.0428 H   0  0  0  0  0  0
  -22.6999  -31.3056   21.4059 H   0  0  0  0  0  0
  -23.3751  -35.9638   23.3275 H   0  0  0  0  0  0
  -24.3590  -36.8964   22.2061 H   0  0  0  0  0  0
  -23.7220  -37.6501   23.6673 H   0  0  0  0  0  0
  -26.0587  -31.5796   20.5964 H   0  0  0  0  0  0
  -26.8260  -30.8678   21.9880 H   0  0  0  0  0  0
  -28.1021  -29.0617   21.1697 H   0  0  0  0  0  0
  -26.0088  -25.9498   19.0137 H   0  0  0  0  0  0
  -23.9761  -27.2877   19.0356 H   0  0  0  0  0  0
  -23.7257  -30.5874   19.4013 H   0  0  0  0  0  0
  -22.7402  -29.2352   19.8709 H   0  0  0  0  0  0
  -25.1278  -36.1962   25.0824 H   0  0  0  0  0  0
  -20.9947  -28.3238   24.1431 H   0  0  0  0  0  0
  -20.5650  -26.2288   23.3611 H   0  0  0  0  0  0
  -21.6632  -26.7448   22.1214 H   0  0  0  0  0  0
  -19.6902  -25.6296   21.1244 H   0  0  0  0  0  0
  -19.6682  -27.3199   20.6748 H   0  0  0  0  0  0
  -17.4190  -26.6681   21.4021 H   0  0  0  0  0  0
  -18.0317  -26.0070   22.9010 H   0  0  0  0  0  0
  -19.7924  -30.7267   24.2275 H   0  0  0  0  0  0
  -17.5006  -31.6274   24.5165 H   0  0  0  0  0  0
  -15.5342  -30.2999   23.7654 H   0  0  0  0  0  0
  -15.8656  -28.0837   22.7060 H   0  0  0  0  0  0
  -24.5894  -30.7076   25.7794 H   0  0  0  0  0  0
  -24.8924  -32.2869   26.4929 H   0  0  0  0  0  0
  -25.8068  -30.8865   27.0222 H   0  0  0  0  0  0
  -26.2865  -29.6792   24.1178 H   0  0  0  0  0  0
  -27.4036  -29.7283   25.4630 H   0  0  0  0  0  0
  -27.8721  -30.4337   23.9327 H   0  0  0  0  0  0
  -27.2670  -33.3607   26.2097 H   0  0  0  0  0  0
  -28.3840  -32.6902   25.0301 H   0  0  0  0  0  0
  -28.0738  -31.8422   26.5375 H   0  0  0  0  0  0
  -28.2570  -38.0129   24.7557 H   0  0  0  0  0  0
  -28.1112  -36.2666   24.6200 H   0  0  0  0  0  0
  -27.2320  -37.1354   25.8858 H   0  0  0  0  0  0
  -20.9316  -29.8764   21.6937 H   0  0  0  0  0  0
  -26.0172  -38.2863   24.1448 H   0  0  0  0  0  0
  -31.7154  -19.5284   19.3698 H   0  0  0  0  0  0
  -27.5138  -19.4504   20.3487 H   0  0  0  0  0  0
  -31.9494  -17.2148   20.1294 H   0  0  0  0  0  0
  -27.7441  -17.1319   21.1247 H   0  0  0  0  0  0
  -30.4661  -25.5314   18.8879 H   0  0  0  0  0  0
  -30.4342  -24.9108   20.5152 H   0  0  0  0  0  0
  -28.2909  -24.3003   21.6062 H   0  0  0  0  0  0
  -26.7729  -24.4669   20.7755 H   0  0  0  0  0  0
  -31.1333  -23.1436   18.9277 H   0  0  0  0  0  0
  -29.7061  -23.3977   17.9567 H   0  0  0  0  0  0
  -27.3465  -22.7058   19.1724 H   0  0  0  0  0  0
  -27.5151  -22.0776   20.7909 H   0  0  0  0  0  0
  -28.0211  -25.2167   18.6788 H   0  0  0  0  0  0
  -28.5388  -20.9306   18.3783 H   0  0  0  0  0  0
  -30.2459  -21.0647   18.3252 H   0  0  0  0  0  0
  -29.0217  -15.2042   21.4161 H   0  0  0  0  0  0
  -29.8497  -22.2167   20.6297 H   0  0  0  0  0  0
  1 25  1  0  0  0
  1 30  2  0  0  0
  1 83  1  0  0  0
  2  3  1  0  0  0
  2 25  1  0  0  0
  2 85  1  0  0  0
  2 86  1  0  0  0
  3  4  1  0  0  0
  3 87  1  0  0  0
  3 88  1  0  0  0
  4  5  1  0  0  0
  4 89  1  0  0  0
  4 90  1  0  0  0
  5  6  1  0  0  0
  5 26  1  0  0  0
  5 91  1  0  0  0
  6 25  1  0  0  0
  6 92  1  0  0  0
  6 93  1  0  0  0
  7  8  2  0  0  0
  7 26  1  0  0  0
  7 29  1  0  0  0
  8  9  1  0  0  0
  8 22  1  0  0  0
  9 10  1  0  0  0
  9 27  2  0  0  0
 10 11  2  0  0  0
 10 15  1  0  0  0
 11 12  1  0  0  0
 11 94  1  0  0  0
 12 13  2  0  0  0
 12 95  1  0  0  0
 13 14  1  0  0  0
 13 31  1  0  0  0
 14 15  2  0  0  0
 14 96  1  0  0  0
 15 97  1  0  0  0
 16 17  2  0  0  0
 16 21  1  0  0  0
 16 31  1  0  0  0
 17 18  1  0  0  0
 17 98  1  0  0  0
 18 19  2  0  0  0
 18 99  1  0  0  0
 19 20  1  0  0  0
 19 24  1  0  0  0
 20 21  2  0  0  0
 20100  1  0  0  0
 21 23  1  0  0  0
 22 28  1  0  0  0
 22 32  2  0  0  0
 26 27  1  0  0  0
 28101  1  0  0  0
 28102  1  0  0  0
 29103  1  0  0  0
 29104  1  0  0  0
 33 34  1  0  0  0
 33 66  1  0  0  0
 33 70  2  0  0  0
 34 36  1  0  0  0
 34 59  1  0  0  0
 34105  1  0  0  0
 35 44  2  0  0  0
 35 45  1  0  0  0
 35 68  1  0  0  0
 36 56  1  0  0  0
 36106  1  0  0  0
 37 39  1  0  0  0
 37 47  1  0  0  0
 37 66  1  0  0  0
 37107  1  0  0  0
 38 43  2  0  0  0
 38 46  1  0  0  0
 38 47  1  0  0  0
 39 64  1  0  0  0
 39 67  2  0  0  0
 40 52  1  0  0  0
 40 53  2  0  0  0
 40 58  1  0  0  0
 41108  1  0  0  0
 41109  1  0  0  0
 41110  1  0  0  0
 41 48  1  0  0  0
 42 43  1  0  0  0
 42 66  1  0  0  0
 42111  1  0  0  0
 42112  1  0  0  0
 43 44  1  0  0  0
 44113  1  0  0  0
 45 46  2  0  0  0
 45114  1  0  0  0
 46115  1  0  0  0
 47116  1  0  0  0
 47117  1  0  0  0
 48 56  1  0  0  0
 48 65  1  0  0  0
 48118  1  0  0  0
 49 50  1  0  0  0
 49 53  1  0  0  0
 49 64  1  0  0  0
 49119  1  0  0  0
 50 51  1  0  0  0
 50120  1  0  0  0
 50121  1  0  0  0
 51 52  1  0  0  0
 51122  1  0  0  0
 51123  1  0  0  0
 52124  1  0  0  0
 52125  1  0  0  0
 53 54  1  0  0  0
 54 55  2  0  0  0
 54126  1  0  0  0
 55 57  1  0  0  0
 55127  1  0  0  0
 56 69  2  0  0  0
 57 58  2  0  0  0
 57128  1  0  0  0
 58129  1  0  0  0
 59 60  1  0  0  0
 59 61  1  0  0  0
 59 62  1  0  0  0
 60130  1  0  0  0
 60131  1  0  0  0
 60132  1  0  0  0
 61133  1  0  0  0
 61134  1  0  0  0
 61135  1  0  0  0
 62136  1  0  0  0
 62137  1  0  0  0
 62138  1  0  0  0
 63 65  1  0  0  0
 63139  1  0  0  0
 63140  1  0  0  0
 63141  1  0  0  0
 64142  1  0  0  0
 65143  1  0  0  0
 68 81  1  0  0  0
 71 73  2  0  0  0
 71 75  1  0  0  0
 71144  1  0  0  0
 72 74  1  0  0  0
 72 75  2  0  0  0
 72145  1  0  0  0
 73 76  1  0  0  0
 73146  1  0  0  0
 74 76  2  0  0  0
 74147  1  0  0  0
 75 82  1  0  0  0
 76 83  1  0  0  0
 77 79  1  0  0  0
 77 81  1  0  0  0
 77148  1  0  0  0
 77149  1  0  0  0
 78 80  1  0  0  0
 78 81  1  0  0  0
 78150  1  0  0  0
 78151  1  0  0  0
 79 84  1  0  0  0
 79152  1  0  0  0
 79153  1  0  0  0
 80 84  1  0  0  0
 80154  1  0  0  0
 80155  1  0  0  0
 81156  1  0  0  0
 82157  1  0  0  0
 82158  1  0  0  0
 82 84  1  0  0  0
 83159  1  0  0  0
 84160  1  0  0  0
M  CHG  1  84   1
M  ISO  4   1 100  68 101  81 101  83 100
M  END
> <chiral flag>
0

> <version>
0

> <s_m_source_file>
/data/baiqing/PycharmProjects/Reinvent-master-3.2/result/LINK_invent/BTK/process_docking_weight1_custom_product_contain_oxygen_bond_distance_aromatic_linkinvent_7_9_3/rearranged_h_0004.sdf

> <i_m_source_file_index>
60

> <r_mmod_Potential_Energy-OPLS-2005>
-133.233779907227

> <r_mmod_Stretch_Energy-OPLS-2005>
51.148120880127

> <r_mmod_Bend_Energy-OPLS-2005>
127.580101013184

> <r_mmod_Torsional_Energy-OPLS-2005>
239.631591796875

> <r_mmod_Improper_Torsional_Energy-OPLS-2005>
5.96680116653442

> <r_mmod_Van_der_Waal_Energy-OPLS-2005>
152.691436767578

> <r_mmod_Electrostatic_Energy-OPLS-2005>
-278.277984619141

> <r_mmod_Solvation_Energy-OPLS-2005>
-453.074432373047

> <b_mmod_Minimization_Converged-OPLS-2005>
0

> <r_mmod_RMS_Derivative-OPLS-2005>
1.15981495380402

$$$$
60
                    3D
 Structure written by MMmdl.
164173  0  0  1  0            999 V2000
  -30.7147  -14.4646   20.5323 C   0  0  0  0  0  0
  -30.4120  -12.2859   19.4425 C   0  0  0  0  0  0
  -29.4945  -12.4918   18.2191 C   0  0  0  0  0  0
  -28.0136  -12.3645   18.6272 C   0  0  0  0  0  0
  -27.6598  -13.2112   19.8793 C   0  0  2  0  0  0
  -28.7017  -13.0161   21.0085 C   0  0  0  0  0  0
  -25.2566  -13.8180   20.5696 C   0  0  0  0  0  0
  -24.1836  -13.0448   20.9200 C   0  0  0  0  0  0
  -24.6393  -11.6917   20.8746 C   0  0  0  0  0  0
  -23.9063  -10.4295   21.0394 C   0  0  0  0  0  0
  -24.3615   -9.4210   21.9167 C   0  0  0  0  0  0
  -23.6293   -8.2244   22.0740 C   0  0  0  0  0  0
  -22.4264   -8.0282   21.3550 C   0  0  0  0  0  0
  -21.9908   -9.0246   20.4643 C   0  0  0  0  0  0
  -22.7235  -10.2129   20.3042 C   0  0  0  0  0  0
  -21.6847   -6.0738   22.5278 C   0  0  0  0  0  0
  -21.4006   -6.5639   23.8213 C   0  0  0  0  0  0
  -21.3673   -5.6787   24.9178 C   0  0  0  0  0  0
  -21.6052   -4.3049   24.7222 C   0  0  0  0  0  0
  -21.8821   -3.8147   23.4342 C   0  0  0  0  0  0
  -21.9196   -4.6969   22.3399 C   0  0  0  0  0  0
  -22.7851  -13.5228   21.1863 C   0  0  0  0  0  0
  -22.1658   -4.2158   21.0981 F   0  0  0  0  0  0
  -21.5639   -3.4532   25.7733 F   0  0  0  0  0  0
  -30.0350  -13.2897   20.4511 N   0  0  0  0  0  0
  -26.3013  -12.9355   20.3407 N   0  0  0  0  0  0
  -25.9323  -11.6511   20.5808 N   0  0  0  0  0  0
  -22.0508  -12.8201   22.0429 N   0  0  0  0  0  0
  -25.4281  -15.1897   20.4050 N   0  0  0  0  0  0
  -31.8659  -14.5956   20.1101 O   0  0  0  0  0  0
  -21.6644   -6.8869   21.4232 O   0  0  0  0  0  0
  -22.3520  -14.5519   20.6708 O   0  0  0  0  0  0
  -24.6107  -31.8704   23.2122 C   0  0  0  0  0  0
  -25.9009  -32.4838   23.8415 C   0  0  1  0  0  0
  -27.2508  -27.4632   20.1038 C   0  0  0  0  0  0
  -25.5879  -33.8638   24.2351 N   0  0  0  0  0  0
  -23.3994  -30.4923   21.5509 C   0  0  2  0  0  0
  -24.8513  -28.9619   20.1178 C   0  0  0  0  0  0
  -22.7399  -29.4666   22.5003 C   0  0  0  0  0  0
  -18.0268  -28.1378   22.8492 C   0  0  0  0  0  0
  -24.1481  -36.7327   23.2639 C   0  0  0  0  0  0
  -25.9234  -30.8484   21.3597 C   0  0  0  0  0  0
  -26.0072  -29.4820   20.7142 C   0  0  0  0  0  0
  -27.2101  -28.7429   20.7077 C   0  0  0  0  0  0
  -26.0811  -26.9586   19.5010 C   0  0  0  0  0  0
  -24.8815  -27.6962   19.5077 C   0  0  0  0  0  0
  -23.6084  -29.8216   20.1663 C   0  0  0  0  0  0
  -25.4098  -36.3131   24.0345 C   0  0  1  0  0  0
  -20.5858  -28.3660   23.1324 C   0  0  2  0  0  0
  -20.6760  -26.9401   22.5419 C   0  0  0  0  0  0
  -19.5743  -26.6387   21.5211 C   0  0  0  0  0  0
  -18.1920  -26.7925   22.1622 C   0  0  0  0  0  0
  -19.1518  -28.8836   23.2907 C   0  0  0  0  0  0
  -18.9446  -30.1442   23.8917 C   0  0  0  0  0  0
  -17.6449  -30.6585   24.0565 C   0  0  0  0  0  0
  -25.9022  -34.9488   23.5145 C   0  0  0  0  0  0
  -16.5340  -29.9089   23.6324 C   0  0  0  0  0  0
  -16.7257  -28.6506   23.0345 C   0  0  0  0  0  0
  -26.4458  -31.6603   25.0724 C   0  0  0  0  0  0
  -25.3746  -31.3685   26.1487 C   0  0  0  0  0  0
  -27.0284  -30.3054   24.6060 C   0  0  0  0  0  0
  -27.6046  -32.4312   25.7474 C   0  0  0  0  0  0
  -27.5584  -37.1813   24.8465 C   0  0  0  0  0  0
  -21.4129  -29.3031   22.3736 N   0  0  0  0  0  0
  -26.4296  -37.3807   23.9411 N   0  0  0  0  0  0
  -24.6625  -31.0834   22.1005 N   0  0  0  0  0  0
  -23.4175  -28.8214   23.3044 O   0  0  0  0  0  0
  -28.3656  -26.6549   20.0497 O   0  0  0  0  0  0
  -26.5583  -34.8932   22.4705 O   0  0  0  0  0  0
  -23.5303  -32.1440   23.7533 O   0  0  0  0  0  0
  -30.6969  -19.8399   22.5361 C   0  0  0  0  0  0
  -28.6759  -20.1984   21.2317 C   0  0  0  0  0  0
  -30.8525  -18.5639   21.9503 C   0  0  0  0  0  0
  -28.8281  -18.9223   20.6492 C   0  0  0  0  0  0
  -29.6256  -20.6858   22.1603 C   0  0  0  0  0  0
  -29.9348  -18.1091   20.9799 C   0  0  0  0  0  0
  -30.0543  -23.2112   21.7965 C   0  0  0  0  0  0
  -28.1464  -23.8326   23.9195 C   0  0  0  0  0  0
  -28.1270  -22.4363   23.3018 C   0  0  0  0  0  0
  -28.5365  -24.8898   22.8737 C   0  0  0  0  0  0
  -29.5230  -22.1039   22.7507 C   0  0  1  0  0  0
  -30.2191  -16.8429   20.1771 C   0  0  0  0  0  0
  -30.2461  -25.5799   21.1460 C   0  0  0  0  0  0
  -29.4380  -26.8893   20.9562 C   0  0  0  0  0  0
  -29.6170  -24.4957   21.9448 N   0  0  0  0  0  0
  -29.9756  -15.5479   20.8323 N   0  0  0  0  0  0
  -30.9135  -22.9121   20.9586 O   0  0  0  0  0  0
  -31.4594  -12.3572   19.1468 H   0  0  0  0  0  0
  -30.2898  -11.2807   19.8491 H   0  0  0  0  0  0
  -29.7270  -11.7604   17.4445 H   0  0  0  0  0  0
  -29.6757  -13.4736   17.7790 H   0  0  0  0  0  0
  -27.8170  -11.3099   18.8255 H   0  0  0  0  0  0
  -27.3658  -12.6399   17.7928 H   0  0  0  0  0  0
  -27.6964  -14.2565   19.5703 H   0  0  0  0  0  0
  -28.6689  -11.9944   21.3898 H   0  0  0  0  0  0
  -28.4806  -13.6574   21.8635 H   0  0  0  0  0  0
  -25.2758   -9.5677   22.4753 H   0  0  0  0  0  0
  -24.0012   -7.4618   22.7430 H   0  0  0  0  0  0
  -21.0857   -8.8751   19.8931 H   0  0  0  0  0  0
  -22.3685  -10.9665   19.6151 H   0  0  0  0  0  0
  -21.1988   -7.6138   23.9719 H   0  0  0  0  0  0
  -21.1494   -6.0516   25.9080 H   0  0  0  0  0  0
  -22.0591   -2.7609   23.2836 H   0  0  0  0  0  0
  -22.4119  -11.9860   22.4820 H   0  0  0  0  0  0
  -21.1120  -13.1199   22.2633 H   0  0  0  0  0  0
  -24.6634  -15.8472   20.5107 H   0  0  0  0  0  0
  -26.2840  -15.6284   20.0888 H   0  0  0  0  0  0
  -26.7091  -32.5581   23.1200 H   0  0  0  0  0  0
  -25.0033  -33.9811   25.0498 H   0  0  0  0  0  0
  -22.6870  -31.3077   21.4108 H   0  0  0  0  0  0
  -23.3745  -35.9664   23.3317 H   0  0  0  0  0  0
  -24.3582  -36.8919   22.2054 H   0  0  0  0  0  0
  -23.7236  -37.6537   23.6636 H   0  0  0  0  0  0
  -26.0258  -31.6135   20.5884 H   0  0  0  0  0  0
  -26.8134  -30.9100   21.9736 H   0  0  0  0  0  0
  -28.0953  -29.1697   21.1577 H   0  0  0  0  0  0
  -26.0999  -25.9855   19.0316 H   0  0  0  0  0  0
  -23.9949  -27.2881   19.0421 H   0  0  0  0  0  0
  -23.7101  -30.5948   19.4041 H   0  0  0  0  0  0
  -22.7359  -29.2346   19.8731 H   0  0  0  0  0  0
  -25.1275  -36.2007   25.0842 H   0  0  0  0  0  0
  -20.9948  -28.3222   24.1445 H   0  0  0  0  0  0
  -20.5663  -26.2270   23.3602 H   0  0  0  0  0  0
  -21.6631  -26.7449   22.1208 H   0  0  0  0  0  0
  -19.6904  -25.6303   21.1231 H   0  0  0  0  0  0
  -19.6685  -27.3207   20.6751 H   0  0  0  0  0  0
  -17.4191  -26.6677   21.4021 H   0  0  0  0  0  0
  -18.0321  -26.0060   22.9010 H   0  0  0  0  0  0
  -19.7926  -30.7250   24.2297 H   0  0  0  0  0  0
  -17.5008  -31.6266   24.5163 H   0  0  0  0  0  0
  -15.5343  -30.2997   23.7638 H   0  0  0  0  0  0
  -15.8657  -28.0830   22.7050 H   0  0  0  0  0  0
  -24.5912  -30.7038   25.7824 H   0  0  0  0  0  0
  -24.8947  -32.2832   26.4975 H   0  0  0  0  0  0
  -25.8117  -30.8825   27.0220 H   0  0  0  0  0  0
  -26.2813  -29.6817   24.1135 H   0  0  0  0  0  0
  -27.4100  -29.7273   25.4486 H   0  0  0  0  0  0
  -27.8626  -30.4387   23.9168 H   0  0  0  0  0  0
  -27.2677  -33.3597   26.2091 H   0  0  0  0  0  0
  -28.3829  -32.6892   25.0282 H   0  0  0  0  0  0
  -28.0748  -31.8416   26.5354 H   0  0  0  0  0  0
  -28.2604  -38.0107   24.7517 H   0  0  0  0  0  0
  -28.1075  -36.2642   24.6279 H   0  0  0  0  0  0
  -27.2307  -37.1451   25.8868 H   0  0  0  0  0  0
  -20.9293  -29.8748   21.6954 H   0  0  0  0  0  0
  -26.0193  -38.2887   24.1413 H   0  0  0  0  0  0
  -31.4344  -20.1853   23.2479 H   0  0  0  0  0  0
  -27.8403  -20.8143   20.9290 H   0  0  0  0  0  0
  -31.7145  -17.9605   22.2050 H   0  0  0  0  0  0
  -28.1171  -18.5955   19.9013 H   0  0  0  0  0  0
  -28.8559  -23.8570   24.7493 H   0  0  0  0  0  0
  -27.1736  -24.0735   24.3497 H   0  0  0  0  0  0
  -27.3753  -22.3936   22.5135 H   0  0  0  0  0  0
  -27.8364  -21.7042   24.0557 H   0  0  0  0  0  0
  -28.8183  -25.7925   23.4171 H   0  0  0  0  0  0
  -27.6587  -25.1345   22.2737 H   0  0  0  0  0  0
  -30.2039  -22.1314   23.6033 H   0  0  0  0  0  0
  -31.2513  -16.9306   19.8321 H   0  0  0  0  0  0
  -29.6208  -16.8637   19.2646 H   0  0  0  0  0  0
  -31.1911  -25.8271   21.6298 H   0  0  0  0  0  0
  -30.5105  -25.2168   20.1515 H   0  0  0  0  0  0
  -30.0872  -27.6441   20.5109 H   0  0  0  0  0  0
  -29.1084  -27.3001   21.9093 H   0  0  0  0  0  0
  -29.0455  -15.3837   21.1851 H   0  0  0  0  0  0
  1 25  1  0  0  0
  1 30  2  0  0  0
  1 86  1  0  0  0
  2  3  1  0  0  0
  2 25  1  0  0  0
  2 88  1  0  0  0
  2 89  1  0  0  0
  3  4  1  0  0  0
  3 90  1  0  0  0
  3 91  1  0  0  0
  4  5  1  0  0  0
  4 92  1  0  0  0
  4 93  1  0  0  0
  5  6  1  0  0  0
  5 26  1  0  0  0
  5 94  1  0  0  0
  6 25  1  0  0  0
  6 95  1  0  0  0
  6 96  1  0  0  0
  7  8  2  0  0  0
  7 26  1  0  0  0
  7 29  1  0  0  0
  8  9  1  0  0  0
  8 22  1  0  0  0
  9 10  1  0  0  0
  9 27  2  0  0  0
 10 11  2  0  0  0
 10 15  1  0  0  0
 11 12  1  0  0  0
 11 97  1  0  0  0
 12 13  2  0  0  0
 12 98  1  0  0  0
 13 14  1  0  0  0
 13 31  1  0  0  0
 14 15  2  0  0  0
 14 99  1  0  0  0
 15100  1  0  0  0
 16 17  2  0  0  0
 16 21  1  0  0  0
 16 31  1  0  0  0
 17 18  1  0  0  0
 17101  1  0  0  0
 18 19  2  0  0  0
 18102  1  0  0  0
 19 20  1  0  0  0
 19 24  1  0  0  0
 20 21  2  0  0  0
 20103  1  0  0  0
 21 23  1  0  0  0
 22 28  1  0  0  0
 22 32  2  0  0  0
 26 27  1  0  0  0
 28104  1  0  0  0
 28105  1  0  0  0
 29106  1  0  0  0
 29107  1  0  0  0
 33 34  1  0  0  0
 33 66  1  0  0  0
 33 70  2  0  0  0
 34 36  1  0  0  0
 34 59  1  0  0  0
 34108  1  0  0  0
 35 44  2  0  0  0
 35 45  1  0  0  0
 35 68  1  0  0  0
 36 56  1  0  0  0
 36109  1  0  0  0
 37 39  1  0  0  0
 37 47  1  0  0  0
 37 66  1  0  0  0
 37110  1  0  0  0
 38 43  2  0  0  0
 38 46  1  0  0  0
 38 47  1  0  0  0
 39 64  1  0  0  0
 39 67  2  0  0  0
 40 52  1  0  0  0
 40 53  2  0  0  0
 40 58  1  0  0  0
 41111  1  0  0  0
 41112  1  0  0  0
 41113  1  0  0  0
 41 48  1  0  0  0
 42 43  1  0  0  0
 42 66  1  0  0  0
 42114  1  0  0  0
 42115  1  0  0  0
 43 44  1  0  0  0
 44116  1  0  0  0
 45 46  2  0  0  0
 45117  1  0  0  0
 46118  1  0  0  0
 47119  1  0  0  0
 47120  1  0  0  0
 48 56  1  0  0  0
 48 65  1  0  0  0
 48121  1  0  0  0
 49 50  1  0  0  0
 49 53  1  0  0  0
 49 64  1  0  0  0
 49122  1  0  0  0
 50 51  1  0  0  0
 50123  1  0  0  0
 50124  1  0  0  0
 51 52  1  0  0  0
 51125  1  0  0  0
 51126  1  0  0  0
 52127  1  0  0  0
 52128  1  0  0  0
 53 54  1  0  0  0
 54 55  2  0  0  0
 54129  1  0  0  0
 55 57  1  0  0  0
 55130  1  0  0  0
 56 69  2  0  0  0
 57 58  2  0  0  0
 57131  1  0  0  0
 58132  1  0  0  0
 59 60  1  0  0  0
 59 61  1  0  0  0
 59 62  1  0  0  0
 60133  1  0  0  0
 60134  1  0  0  0
 60135  1  0  0  0
 61136  1  0  0  0
 61137  1  0  0  0
 61138  1  0  0  0
 62139  1  0  0  0
 62140  1  0  0  0
 62141  1  0  0  0
 63 65  1  0  0  0
 63142  1  0  0  0
 63143  1  0  0  0
 63144  1  0  0  0
 64145  1  0  0  0
 65146  1  0  0  0
 68 84  1  0  0  0
 71 73  2  0  0  0
 71 75  1  0  0  0
 71147  1  0  0  0
 72 74  1  0  0  0
 72 75  2  0  0  0
 72148  1  0  0  0
 73 76  1  0  0  0
 73149  1  0  0  0
 74 76  2  0  0  0
 74150  1  0  0  0
 75 81  1  0  0  0
 76 82  1  0  0  0
 77 81  1  0  0  0
 77 85  1  0  0  0
 77 87  2  0  0  0
 78 79  1  0  0  0
 78 80  1  0  0  0
 78151  1  0  0  0
 78152  1  0  0  0
 79 81  1  0  0  0
 79153  1  0  0  0
 79154  1  0  0  0
 80 85  1  0  0  0
 80155  1  0  0  0
 80156  1  0  0  0
 81157  1  0  0  0
 82 86  1  0  0  0
 82158  1  0  0  0
 82159  1  0  0  0
 83 84  1  0  0  0
 83 85  1  0  0  0
 83160  1  0  0  0
 83161  1  0  0  0
 84162  1  0  0  0
 84163  1  0  0  0
 86164  1  0  0  0
M  ISO  4   1 100  68 101  84 101  86 100
M  END
> <chiral flag>
0

> <version>
0

> <s_m_source_file>
/data/baiqing/PycharmProjects/Reinvent-master-3.2/result/LINK_invent/BTK/process_docking_weight1_custom_product_contain_oxygen_bond_distance_aromatic_linkinvent_7_9_3/rearranged_h_0004.sdf

> <i_m_source_file_index>
61

> <r_mmod_Potential_Energy-OPLS-2005>
-5.31425142288208

> <r_mmod_Stretch_Energy-OPLS-2005>
41.1682929992676

> <r_mmod_Bend_Energy-OPLS-2005>
109.152496337891

> <r_mmod_Torsional_Energy-OPLS-2005>
261.674072265625

> <r_mmod_Improper_Torsional_Energy-OPLS-2005>
9.32164669036865

> <r_mmod_Van_der_Waal_Energy-OPLS-2005>
168.124221801758

> <r_mmod_Electrostatic_Energy-OPLS-2005>
-372.006896972656

> <r_mmod_Solvation_Energy-OPLS-2005>
-235.687591552734

> <b_mmod_Minimization_Converged-OPLS-2005>
0

> <r_mmod_RMS_Derivative-OPLS-2005>
1.6365259885788

$$$$
61
                    3D
 Structure written by MMmdl.
154162  0  0  1  0            999 V2000
  -30.6577  -14.5618   20.4841 C   0  0  0  0  0  0
  -30.4160  -12.3289   19.4443 C   0  0  0  0  0  0
  -29.5052  -12.5044   18.2116 C   0  0  0  0  0  0
  -28.0210  -12.3704   18.6142 C   0  0  0  0  0  0
  -27.6503  -13.2279   19.8584 C   0  0  2  0  0  0
  -28.6928  -13.0622   20.9848 C   0  0  0  0  0  0
  -25.2494  -13.8194   20.5752 C   0  0  0  0  0  0
  -24.1792  -13.0439   20.9263 C   0  0  0  0  0  0
  -24.6417  -11.6933   20.8776 C   0  0  0  0  0  0
  -23.9115  -10.4299   21.0402 C   0  0  0  0  0  0
  -24.3662   -9.4196   21.9169 C   0  0  0  0  0  0
  -23.6349   -8.2234   22.0739 C   0  0  0  0  0  0
  -22.4304   -8.0323   21.3570 C   0  0  0  0  0  0
  -21.9951   -9.0279   20.4648 C   0  0  0  0  0  0
  -22.7282  -10.2152   20.3046 C   0  0  0  0  0  0
  -21.6853   -6.0774   22.5307 C   0  0  0  0  0  0
  -21.4012   -6.5653   23.8245 C   0  0  0  0  0  0
  -21.3678   -5.6790   24.9199 C   0  0  0  0  0  0
  -21.6028   -4.3060   24.7224 C   0  0  0  0  0  0
  -21.8811   -3.8174   23.4335 C   0  0  0  0  0  0
  -21.9178   -4.6999   22.3410 C   0  0  0  0  0  0
  -22.7799  -13.5220   21.1874 C   0  0  0  0  0  0
  -22.1636   -4.2203   21.0982 F   0  0  0  0  0  0
  -21.5635   -3.4527   25.7729 F   0  0  0  0  0  0
  -30.0161  -13.3594   20.4189 N   0  0  0  0  0  0
  -26.2978  -12.9440   20.3316 N   0  0  0  0  0  0
  -25.9334  -11.6580   20.5732 N   0  0  0  0  0  0
  -22.0419  -12.8256   22.0432 N   0  0  0  0  0  0
  -25.4023  -15.1910   20.4159 N   0  0  0  0  0  0
  -31.8317  -14.6945   20.1292 O   0  0  0  0  0  0
  -21.6648   -6.8934   21.4280 O   0  0  0  0  0  0
  -22.3497  -14.5519   20.6717 O   0  0  0  0  0  0
  -24.6184  -31.8673   23.2040 C   0  0  0  0  0  0
  -25.9063  -32.4811   23.8371 C   0  0  1  0  0  0
  -27.2216  -27.3677   20.1002 C   0  0  0  0  0  0
  -25.5916  -33.8610   24.2298 N   0  0  0  0  0  0
  -23.4086  -30.4891   21.5482 C   0  0  2  0  0  0
  -24.8543  -28.9525   20.1045 C   0  0  0  0  0  0
  -22.7446  -29.4648   22.4958 C   0  0  0  0  0  0
  -18.0293  -28.1347   22.8491 C   0  0  0  0  0  0
  -24.1501  -36.7296   23.2640 C   0  0  0  0  0  0
  -25.9437  -30.8073   21.3744 C   0  0  0  0  0  0
  -26.0159  -29.4389   20.7107 C   0  0  0  0  0  0
  -27.1984  -28.6521   20.7078 C   0  0  0  0  0  0
  -26.0356  -26.9113   19.4823 C   0  0  0  0  0  0
  -24.8615  -27.6915   19.4849 C   0  0  0  0  0  0
  -23.6192  -29.8281   20.1592 C   0  0  0  0  0  0
  -25.4110  -36.3098   24.0340 C   0  0  1  0  0  0
  -20.5883  -28.3665   23.1291 C   0  0  2  0  0  0
  -20.6770  -26.9392   22.5405 C   0  0  0  0  0  0
  -19.5747  -26.6364   21.5204 C   0  0  0  0  0  0
  -18.1925  -26.7898   22.1615 C   0  0  0  0  0  0
  -19.1535  -28.8812   23.2893 C   0  0  0  0  0  0
  -18.9462  -30.1413   23.8914 C   0  0  0  0  0  0
  -17.6471  -30.6567   24.0536 C   0  0  0  0  0  0
  -25.9060  -34.9464   23.5128 C   0  0  0  0  0  0
  -16.5364  -29.9049   23.6296 C   0  0  0  0  0  0
  -16.7275  -28.6456   23.0354 C   0  0  0  0  0  0
  -26.4456  -31.6579   25.0714 C   0  0  0  0  0  0
  -25.3703  -31.3712   26.1467 C   0  0  0  0  0  0
  -27.0291  -30.3010   24.6114 C   0  0  0  0  0  0
  -27.6031  -32.4293   25.7473 C   0  0  0  0  0  0
  -27.5590  -37.1797   24.8450 C   0  0  0  0  0  0
  -21.4162  -29.3025   22.3688 N   0  0  0  0  0  0
  -26.4287  -37.3779   23.9426 N   0  0  0  0  0  0
  -24.6750  -31.0692   22.1006 N   0  0  0  0  0  0
  -23.4206  -28.8229   23.3039 O   0  0  0  0  0  0
  -28.3803  -26.5959   20.1454 O   0  0  0  0  0  0
  -26.5629  -34.8924   22.4701 O   0  0  0  0  0  0
  -23.5357  -32.1481   23.7377 O   0  0  0  0  0  0
  -26.9639  -19.0178   20.5049 C   0  0  0  0  0  0
  -27.8947  -17.9577   20.5572 C   0  0  0  0  0  0
  -27.3951  -20.3632   20.4639 C   0  0  0  0  0  0
  -29.7007  -19.5821   20.4714 C   0  0  0  0  0  0
  -29.2832  -18.2145   20.5547 C   0  0  0  0  0  0
  -28.7774  -20.6700   20.4396 C   0  0  0  0  0  0
  -30.3352  -17.0706   20.6577 C   0  0  0  0  0  0
  -27.7294  -24.0882   20.3348 C   0  0  0  0  0  0
  -28.4303  -25.2596   19.5634 C   0  0  0  0  0  0
  -28.6174  -23.0449   21.1005 C   0  0  0  0  0  0
  -29.8859  -15.6514   20.7481 N   0  0  0  0  0  0
  -29.2433  -21.9807   20.3337 O   0  0  0  0  0  0
  -31.4681  -12.4023   19.1609 H   0  0  0  0  0  0
  -30.2999  -11.3292   19.8700 H   0  0  0  0  0  0
  -29.7544  -11.7694   17.4442 H   0  0  0  0  0  0
  -29.6822  -13.4836   17.7617 H   0  0  0  0  0  0
  -27.8322  -11.3196   18.8256 H   0  0  0  0  0  0
  -27.3779  -12.6209   17.7698 H   0  0  0  0  0  0
  -27.6724  -14.2668   19.5287 H   0  0  0  0  0  0
  -28.6737  -12.0475   21.3795 H   0  0  0  0  0  0
  -28.4697  -13.7160   21.8283 H   0  0  0  0  0  0
  -25.2815   -9.5676   22.4736 H   0  0  0  0  0  0
  -24.0050   -7.4626   22.7476 H   0  0  0  0  0  0
  -21.0863   -8.8841   19.8995 H   0  0  0  0  0  0
  -22.3765  -10.9694   19.6164 H   0  0  0  0  0  0
  -21.2019   -7.6170   23.9776 H   0  0  0  0  0  0
  -21.1492   -6.0509   25.9102 H   0  0  0  0  0  0
  -22.0567   -2.7639   23.2799 H   0  0  0  0  0  0
  -22.4001  -11.9949   22.4938 H   0  0  0  0  0  0
  -21.1047  -13.1302   22.2619 H   0  0  0  0  0  0
  -24.6244  -15.8285   20.5374 H   0  0  0  0  0  0
  -26.2144  -15.6281   20.0038 H   0  0  0  0  0  0
  -26.7136  -32.5493   23.1129 H   0  0  0  0  0  0
  -25.0036  -33.9773   25.0435 H   0  0  0  0  0  0
  -22.6966  -31.3050   21.4103 H   0  0  0  0  0  0
  -23.3778  -35.9613   23.3272 H   0  0  0  0  0  0
  -24.3610  -36.8959   22.2065 H   0  0  0  0  0  0
  -23.7247  -37.6482   23.6694 H   0  0  0  0  0  0
  -26.0810  -31.5778   20.6173 H   0  0  0  0  0  0
  -26.8224  -30.8480   22.0047 H   0  0  0  0  0  0
  -28.0890  -29.0189   21.1991 H   0  0  0  0  0  0
  -25.9864  -25.9477   19.0033 H   0  0  0  0  0  0
  -23.9699  -27.3103   19.0089 H   0  0  0  0  0  0
  -23.7300  -30.6125   19.4094 H   0  0  0  0  0  0
  -22.7405  -29.2580   19.8554 H   0  0  0  0  0  0
  -25.1285  -36.1933   25.0822 H   0  0  0  0  0  0
  -20.9963  -28.3233   24.1417 H   0  0  0  0  0  0
  -20.5675  -26.2273   23.3599 H   0  0  0  0  0  0
  -21.6650  -26.7429   22.1205 H   0  0  0  0  0  0
  -19.6913  -25.6279   21.1221 H   0  0  0  0  0  0
  -19.6672  -27.3177   20.6735 H   0  0  0  0  0  0
  -17.4203  -26.6659   21.4001 H   0  0  0  0  0  0
  -18.0323  -26.0022   22.8993 H   0  0  0  0  0  0
  -19.7956  -30.7193   24.2309 H   0  0  0  0  0  0
  -17.5041  -31.6251   24.5141 H   0  0  0  0  0  0
  -15.5366  -30.2958   23.7599 H   0  0  0  0  0  0
  -15.8687  -28.0751   22.7080 H   0  0  0  0  0  0
  -24.5800  -30.7162   25.7783 H   0  0  0  0  0  0
  -24.8989  -32.2891   26.4980 H   0  0  0  0  0  0
  -25.8020  -30.8783   27.0195 H   0  0  0  0  0  0
  -26.2851  -29.6785   24.1129 H   0  0  0  0  0  0
  -27.4030  -29.7210   25.4567 H   0  0  0  0  0  0
  -27.8710  -30.4323   23.9309 H   0  0  0  0  0  0
  -27.2650  -33.3563   26.2104 H   0  0  0  0  0  0
  -28.3802  -32.6906   25.0284 H   0  0  0  0  0  0
  -28.0760  -31.8401   26.5345 H   0  0  0  0  0  0
  -28.2557  -38.0142   24.7552 H   0  0  0  0  0  0
  -28.1140  -36.2679   24.6184 H   0  0  0  0  0  0
  -27.2339  -37.1335   25.8859 H   0  0  0  0  0  0
  -20.9318  -29.8737   21.6911 H   0  0  0  0  0  0
  -26.0168  -38.2861   24.1420 H   0  0  0  0  0  0
  -25.9013  -18.7957   20.4978 H   0  0  0  0  0  0
  -27.5238  -16.9431   20.6068 H   0  0  0  0  0  0
  -26.6529  -21.1480   20.4219 H   0  0  0  0  0  0
  -30.7618  -19.8051   20.4570 H   0  0  0  0  0  0
  -30.9501  -17.2711   21.5389 H   0  0  0  0  0  0
  -31.0067  -17.1733   19.8042 H   0  0  0  0  0  0
  -27.0922  -23.5386   19.6420 H   0  0  0  0  0  0
  -27.0393  -24.5270   21.0575 H   0  0  0  0  0  0
  -28.0495  -25.3112   18.5440 H   0  0  0  0  0  0
  -29.4810  -25.0083   19.4223 H   0  0  0  0  0  0
  -28.0320  -22.6163   21.9146 H   0  0  0  0  0  0
  -29.4164  -23.5925   21.6037 H   0  0  0  0  0  0
  -28.9294  -15.4769   21.0005 H   0  0  0  0  0  0
  1 25  1  0  0  0
  1 30  2  0  0  0
  1 81  1  0  0  0
  2  3  1  0  0  0
  2 25  1  0  0  0
  2 83  1  0  0  0
  2 84  1  0  0  0
  3  4  1  0  0  0
  3 85  1  0  0  0
  3 86  1  0  0  0
  4  5  1  0  0  0
  4 87  1  0  0  0
  4 88  1  0  0  0
  5  6  1  0  0  0
  5 26  1  0  0  0
  5 89  1  0  0  0
  6 25  1  0  0  0
  6 90  1  0  0  0
  6 91  1  0  0  0
  7  8  2  0  0  0
  7 26  1  0  0  0
  7 29  1  0  0  0
  8  9  1  0  0  0
  8 22  1  0  0  0
  9 10  1  0  0  0
  9 27  2  0  0  0
 10 11  2  0  0  0
 10 15  1  0  0  0
 11 12  1  0  0  0
 11 92  1  0  0  0
 12 13  2  0  0  0
 12 93  1  0  0  0
 13 14  1  0  0  0
 13 31  1  0  0  0
 14 15  2  0  0  0
 14 94  1  0  0  0
 15 95  1  0  0  0
 16 17  2  0  0  0
 16 21  1  0  0  0
 16 31  1  0  0  0
 17 18  1  0  0  0
 17 96  1  0  0  0
 18 19  2  0  0  0
 18 97  1  0  0  0
 19 20  1  0  0  0
 19 24  1  0  0  0
 20 21  2  0  0  0
 20 98  1  0  0  0
 21 23  1  0  0  0
 22 28  1  0  0  0
 22 32  2  0  0  0
 26 27  1  0  0  0
 28 99  1  0  0  0
 28100  1  0  0  0
 29101  1  0  0  0
 29102  1  0  0  0
 33 34  1  0  0  0
 33 66  1  0  0  0
 33 70  2  0  0  0
 34 36  1  0  0  0
 34 59  1  0  0  0
 34103  1  0  0  0
 35 44  2  0  0  0
 35 45  1  0  0  0
 35 68  1  0  0  0
 36 56  1  0  0  0
 36104  1  0  0  0
 37 39  1  0  0  0
 37 47  1  0  0  0
 37 66  1  0  0  0
 37105  1  0  0  0
 38 43  2  0  0  0
 38 46  1  0  0  0
 38 47  1  0  0  0
 39 64  1  0  0  0
 39 67  2  0  0  0
 40 52  1  0  0  0
 40 53  2  0  0  0
 40 58  1  0  0  0
 41106  1  0  0  0
 41107  1  0  0  0
 41108  1  0  0  0
 41 48  1  0  0  0
 42 43  1  0  0  0
 42 66  1  0  0  0
 42109  1  0  0  0
 42110  1  0  0  0
 43 44  1  0  0  0
 44111  1  0  0  0
 45 46  2  0  0  0
 45112  1  0  0  0
 46113  1  0  0  0
 47114  1  0  0  0
 47115  1  0  0  0
 48 56  1  0  0  0
 48 65  1  0  0  0
 48116  1  0  0  0
 49 50  1  0  0  0
 49 53  1  0  0  0
 49 64  1  0  0  0
 49117  1  0  0  0
 50 51  1  0  0  0
 50118  1  0  0  0
 50119  1  0  0  0
 51 52  1  0  0  0
 51120  1  0  0  0
 51121  1  0  0  0
 52122  1  0  0  0
 52123  1  0  0  0
 53 54  1  0  0  0
 54 55  2  0  0  0
 54124  1  0  0  0
 55 57  1  0  0  0
 55125  1  0  0  0
 56 69  2  0  0  0
 57 58  2  0  0  0
 57126  1  0  0  0
 58127  1  0  0  0
 59 60  1  0  0  0
 59 61  1  0  0  0
 59 62  1  0  0  0
 60128  1  0  0  0
 60129  1  0  0  0
 60130  1  0  0  0
 61131  1  0  0  0
 61132  1  0  0  0
 61133  1  0  0  0
 62134  1  0  0  0
 62135  1  0  0  0
 62136  1  0  0  0
 63 65  1  0  0  0
 63137  1  0  0  0
 63138  1  0  0  0
 63139  1  0  0  0
 64140  1  0  0  0
 65141  1  0  0  0
 68 79  1  0  0  0
 71 72  2  0  0  0
 71 73  1  0  0  0
 71142  1  0  0  0
 72 75  1  0  0  0
 72143  1  0  0  0
 73 76  2  0  0  0
 73144  1  0  0  0
 74 75  2  0  0  0
 74 76  1  0  0  0
 74145  1  0  0  0
 75 77  1  0  0  0
 76 82  1  0  0  0
 77 81  1  0  0  0
 77146  1  0  0  0
 77147  1  0  0  0
 78 79  1  0  0  0
 78 80  1  0  0  0
 78148  1  0  0  0
 78149  1  0  0  0
 79150  1  0  0  0
 79151  1  0  0  0
 80 82  1  0  0  0
 80152  1  0  0  0
 80153  1  0  0  0
 81154  1  0  0  0
M  ISO  4   1 100  68 101  79 101  81 100
M  END
> <chiral flag>
0

> <version>
0

> <s_m_source_file>
/data/baiqing/PycharmProjects/Reinvent-master-3.2/result/LINK_invent/BTK/process_docking_weight1_custom_product_contain_oxygen_bond_distance_aromatic_linkinvent_7_9_3/rearranged_h_0004.sdf

> <i_m_source_file_index>
62

> <r_mmod_Potential_Energy-OPLS-2005>
-50.6910629272461

> <r_mmod_Stretch_Energy-OPLS-2005>
55.6032676696777

> <r_mmod_Bend_Energy-OPLS-2005>
126.554336547852

> <r_mmod_Torsional_Energy-OPLS-2005>
215.807098388672

> <r_mmod_Improper_Torsional_Energy-OPLS-2005>
5.35020971298218

> <r_mmod_Van_der_Waal_Energy-OPLS-2005>
142.424987792969

> <r_mmod_Electrostatic_Energy-OPLS-2005>
-414.575347900391

> <r_mmod_Solvation_Energy-OPLS-2005>
-211.39289855957

> <b_mmod_Minimization_Converged-OPLS-2005>
0

> <r_mmod_RMS_Derivative-OPLS-2005>
5.73570251464844

$$$$
62
                    3D
 Structure written by MMmdl.
152160  0  0  1  0            999 V2000
  -30.6493  -14.6606   20.4945 C   0  0  0  0  0  0
  -30.4246  -12.4107   19.4514 C   0  0  0  0  0  0
  -29.4996  -12.4989   18.2197 C   0  0  0  0  0  0
  -28.0249  -12.3364   18.6369 C   0  0  0  0  0  0
  -27.6430  -13.2255   19.8510 C   0  0  2  0  0  0
  -28.6890  -13.1264   20.9814 C   0  0  0  0  0  0
  -25.2514  -13.8189   20.5681 C   0  0  0  0  0  0
  -24.1801  -13.0441   20.9200 C   0  0  0  0  0  0
  -24.6386  -11.6916   20.8746 C   0  0  0  0  0  0
  -23.9064  -10.4291   21.0408 C   0  0  0  0  0  0
  -24.3616   -9.4207   21.9185 C   0  0  0  0  0  0
  -23.6292   -8.2242   22.0754 C   0  0  0  0  0  0
  -22.4275   -8.0278   21.3544 C   0  0  0  0  0  0
  -21.9910   -9.0251   20.4646 C   0  0  0  0  0  0
  -22.7236  -10.2132   20.3057 C   0  0  0  0  0  0
  -21.6854   -6.0733   22.5277 C   0  0  0  0  0  0
  -21.4014   -6.5637   23.8209 C   0  0  0  0  0  0
  -21.3660   -5.6791   24.9173 C   0  0  0  0  0  0
  -21.6046   -4.3053   24.7224 C   0  0  0  0  0  0
  -21.8819   -3.8144   23.4346 C   0  0  0  0  0  0
  -21.9193   -4.6961   22.3401 C   0  0  0  0  0  0
  -22.7823  -13.5225   21.1865 C   0  0  0  0  0  0
  -22.1661   -4.2144   21.0980 F   0  0  0  0  0  0
  -21.5632   -3.4538   25.7739 F   0  0  0  0  0  0
  -29.9936  -13.4603   20.3979 N   0  0  0  0  0  0
  -26.2938  -12.9386   20.3281 N   0  0  0  0  0  0
  -25.9314  -11.6534   20.5751 N   0  0  0  0  0  0
  -22.0475  -12.8210   22.0422 N   0  0  0  0  0  0
  -25.4206  -15.1911   20.4079 N   0  0  0  0  0  0
  -31.8354  -14.7519   20.1689 O   0  0  0  0  0  0
  -21.6640   -6.8874   21.4239 O   0  0  0  0  0  0
  -22.3506  -14.5532   20.6716 O   0  0  0  0  0  0
  -24.6261  -31.8588   23.2004 C   0  0  0  0  0  0
  -25.9105  -32.4774   23.8341 C   0  0  1  0  0  0
  -27.2245  -27.3179   20.1278 C   0  0  0  0  0  0
  -25.5923  -33.8574   24.2272 N   0  0  0  0  0  0
  -23.4203  -30.4801   21.5429 C   0  0  2  0  0  0
  -24.8670  -28.9256   20.1172 C   0  0  0  0  0  0
  -22.7473  -29.4620   22.4939 C   0  0  0  0  0  0
  -18.0286  -28.1394   22.8491 C   0  0  0  0  0  0
  -24.1486  -36.7290   23.2641 C   0  0  0  0  0  0
  -25.9596  -30.7903   21.3685 C   0  0  0  0  0  0
  -26.0354  -29.4144   20.7169 C   0  0  0  0  0  0
  -27.2215  -28.6234   20.7070 C   0  0  0  0  0  0
  -26.0366  -26.8695   19.5177 C   0  0  0  0  0  0
  -24.8687  -27.6588   19.5083 C   0  0  0  0  0  0
  -23.6356  -29.8083   20.1608 C   0  0  0  0  0  0
  -25.4112  -36.3081   24.0330 C   0  0  1  0  0  0
  -20.5887  -28.3693   23.1291 C   0  0  2  0  0  0
  -20.6776  -26.9417   22.5415 C   0  0  0  0  0  0
  -19.5750  -26.6393   21.5218 C   0  0  0  0  0  0
  -18.1930  -26.7937   22.1630 C   0  0  0  0  0  0
  -19.1539  -28.8861   23.2888 C   0  0  0  0  0  0
  -18.9462  -30.1465   23.8899 C   0  0  0  0  0  0
  -17.6461  -30.6595   24.0570 C   0  0  0  0  0  0
  -25.9050  -34.9450   23.5104 C   0  0  0  0  0  0
  -16.5353  -29.9094   23.6336 C   0  0  0  0  0  0
  -16.7274  -28.6516   23.0351 C   0  0  0  0  0  0
  -26.4493  -31.6585   25.0710 C   0  0  0  0  0  0
  -25.3729  -31.3720   26.1440 C   0  0  0  0  0  0
  -27.0336  -30.3013   24.6154 C   0  0  0  0  0  0
  -27.6053  -32.4317   25.7482 C   0  0  0  0  0  0
  -27.5577  -37.1803   24.8467 C   0  0  0  0  0  0
  -21.4187  -29.3043   22.3679 N   0  0  0  0  0  0
  -26.4289  -37.3776   23.9410 N   0  0  0  0  0  0
  -24.6876  -31.0603   22.0946 N   0  0  0  0  0  0
  -23.4194  -28.8171   23.3029 O   0  0  0  0  0  0
  -28.3440  -26.4807   20.1114 O   0  0  0  0  0  0
  -26.5619  -34.8920   22.4670 O   0  0  0  0  0  0
  -23.5425  -32.1378   23.7338 O   0  0  0  0  0  0
  -28.7360  -19.1166   20.9649 C   0  0  0  0  0  0
  -31.0018  -19.4483   20.2542 C   0  0  0  0  0  0
  -28.4748  -20.5207   20.7753 C   0  0  0  0  0  0
  -30.7474  -20.8370   20.0821 C   0  0  0  0  0  0
  -30.0234  -18.5443   20.7403 C   0  0  0  0  0  0
  -29.4937  -21.4321   20.3690 C   0  0  0  0  0  0
  -30.4966  -17.1145   21.2294 C   0  0  0  0  0  0
  -28.2290  -23.7675   20.0806 C   0  0  0  0  0  0
  -28.2645  -25.1877   20.8266 C   0  0  0  0  0  0
  -29.4064  -22.8683   20.2987 N   0  0  0  0  0  0
  -29.9223  -15.7872   20.8039 N   0  0  0  0  0  0
  -31.4664  -12.5243   19.1470 H   0  0  0  0  0  0
  -30.3552  -11.4269   19.9184 H   0  0  0  0  0  0
  -29.7673  -11.7339   17.4896 H   0  0  0  0  0  0
  -29.6376  -13.4598   17.7213 H   0  0  0  0  0  0
  -27.8691  -11.2860   18.8856 H   0  0  0  0  0  0
  -27.3675  -12.5480   17.7926 H   0  0  0  0  0  0
  -27.6481  -14.2533   19.4877 H   0  0  0  0  0  0
  -28.7092  -12.1210   21.4044 H   0  0  0  0  0  0
  -28.4364  -13.7971   21.8043 H   0  0  0  0  0  0
  -25.2763   -9.5683   22.4756 H   0  0  0  0  0  0
  -24.0002   -7.4634   22.7473 H   0  0  0  0  0  0
  -21.0841   -8.8770   19.8951 H   0  0  0  0  0  0
  -22.3695  -10.9670   19.6163 H   0  0  0  0  0  0
  -21.2005   -7.6145   23.9710 H   0  0  0  0  0  0
  -21.1484   -6.0523   25.9075 H   0  0  0  0  0  0
  -22.0598   -2.7606   23.2848 H   0  0  0  0  0  0
  -22.4098  -11.9870   22.4803 H   0  0  0  0  0  0
  -21.1094  -13.1230   22.2638 H   0  0  0  0  0  0
  -24.6514  -15.8435   20.5126 H   0  0  0  0  0  0
  -26.2635  -15.6290   20.0588 H   0  0  0  0  0  0
  -26.7173  -32.5447   23.1092 H   0  0  0  0  0  0
  -25.0066  -33.9713   25.0416 H   0  0  0  0  0  0
  -22.7144  -31.3004   21.3971 H   0  0  0  0  0  0
  -23.3746  -35.9626   23.3308 H   0  0  0  0  0  0
  -24.3576  -36.8905   22.2055 H   0  0  0  0  0  0
  -23.7237  -37.6494   23.6656 H   0  0  0  0  0  0
  -26.0864  -31.5498   20.5960 H   0  0  0  0  0  0
  -26.8418  -30.8448   21.9945 H   0  0  0  0  0  0
  -28.1240  -28.9973   21.1701 H   0  0  0  0  0  0
  -26.0118  -25.8950   19.0507 H   0  0  0  0  0  0
  -23.9721  -27.2787   19.0379 H   0  0  0  0  0  0
  -23.7567  -30.5810   19.4007 H   0  0  0  0  0  0
  -22.7551  -29.2377   19.8601 H   0  0  0  0  0  0
  -25.1293  -36.1933   25.0821 H   0  0  0  0  0  0
  -20.9985  -28.3271   24.1410 H   0  0  0  0  0  0
  -20.5689  -26.2302   23.3613 H   0  0  0  0  0  0
  -21.6646  -26.7455   22.1202 H   0  0  0  0  0  0
  -19.6909  -25.6304   21.1247 H   0  0  0  0  0  0
  -19.6689  -27.3207   20.6751 H   0  0  0  0  0  0
  -17.4202  -26.6693   21.4027 H   0  0  0  0  0  0
  -18.0328  -26.0080   22.9028 H   0  0  0  0  0  0
  -19.7934  -30.7290   24.2264 H   0  0  0  0  0  0
  -17.5012  -31.6273   24.5177 H   0  0  0  0  0  0
  -15.5352  -30.2998   23.7656 H   0  0  0  0  0  0
  -15.8675  -28.0839   22.7056 H   0  0  0  0  0  0
  -24.5901  -30.7071   25.7769 H   0  0  0  0  0  0
  -24.8921  -32.2886   26.4869 H   0  0  0  0  0  0
  -25.8056  -30.8894   27.0212 H   0  0  0  0  0  0
  -26.2905  -29.6762   24.1184 H   0  0  0  0  0  0
  -27.4051  -29.7268   25.4651 H   0  0  0  0  0  0
  -27.8767  -30.4309   23.9361 H   0  0  0  0  0  0
  -27.2664  -33.3615   26.2064 H   0  0  0  0  0  0
  -28.3861  -32.6883   25.0310 H   0  0  0  0  0  0
  -28.0722  -31.8437   26.5393 H   0  0  0  0  0  0
  -28.2603  -38.0092   24.7511 H   0  0  0  0  0  0
  -28.1064  -36.2625   24.6299 H   0  0  0  0  0  0
  -27.2297  -37.1462   25.8871 H   0  0  0  0  0  0
  -20.9368  -29.8751   21.6875 H   0  0  0  0  0  0
  -26.0171  -38.2851   24.1407 H   0  0  0  0  0  0
  -27.9472  -18.4921   21.3606 H   0  0  0  0  0  0
  -32.0071  -19.0934   20.0753 H   0  0  0  0  0  0
  -27.4911  -20.8984   21.0147 H   0  0  0  0  0  0
  -31.5699  -21.4607   19.7601 H   0  0  0  0  0  0
  -30.3855  -17.1352   22.3143 H   0  0  0  0  0  0
  -31.5775  -17.0775   21.0843 H   0  0  0  0  0  0
  -28.1131  -23.9332   19.0088 H   0  0  0  0  0  0
  -27.3292  -23.2355   20.3921 H   0  0  0  0  0  0
  -29.1096  -25.1825   21.5157 H   0  0  0  0  0  0
  -27.3970  -25.2245   21.4881 H   0  0  0  0  0  0
  -30.2922  -23.3330   20.1129 H   0  0  0  0  0  0
  -28.9353  -15.6543   20.9601 H   0  0  0  0  0  0
  1 25  1  0  0  0
  1 30  2  0  0  0
  1 81  1  0  0  0
  2  3  1  0  0  0
  2 25  1  0  0  0
  2 82  1  0  0  0
  2 83  1  0  0  0
  3  4  1  0  0  0
  3 84  1  0  0  0
  3 85  1  0  0  0
  4  5  1  0  0  0
  4 86  1  0  0  0
  4 87  1  0  0  0
  5  6  1  0  0  0
  5 26  1  0  0  0
  5 88  1  0  0  0
  6 25  1  0  0  0
  6 89  1  0  0  0
  6 90  1  0  0  0
  7  8  2  0  0  0
  7 26  1  0  0  0
  7 29  1  0  0  0
  8  9  1  0  0  0
  8 22  1  0  0  0
  9 10  1  0  0  0
  9 27  2  0  0  0
 10 11  2  0  0  0
 10 15  1  0  0  0
 11 12  1  0  0  0
 11 91  1  0  0  0
 12 13  2  0  0  0
 12 92  1  0  0  0
 13 14  1  0  0  0
 13 31  1  0  0  0
 14 15  2  0  0  0
 14 93  1  0  0  0
 15 94  1  0  0  0
 16 17  2  0  0  0
 16 21  1  0  0  0
 16 31  1  0  0  0
 17 18  1  0  0  0
 17 95  1  0  0  0
 18 19  2  0  0  0
 18 96  1  0  0  0
 19 20  1  0  0  0
 19 24  1  0  0  0
 20 21  2  0  0  0
 20 97  1  0  0  0
 21 23  1  0  0  0
 22 28  1  0  0  0
 22 32  2  0  0  0
 26 27  1  0  0  0
 28 98  1  0  0  0
 28 99  1  0  0  0
 29100  1  0  0  0
 29101  1  0  0  0
 33 34  1  0  0  0
 33 66  1  0  0  0
 33 70  2  0  0  0
 34 36  1  0  0  0
 34 59  1  0  0  0
 34102  1  0  0  0
 35 44  2  0  0  0
 35 45  1  0  0  0
 35 68  1  0  0  0
 36 56  1  0  0  0
 36103  1  0  0  0
 37 39  1  0  0  0
 37 47  1  0  0  0
 37 66  1  0  0  0
 37104  1  0  0  0
 38 43  2  0  0  0
 38 46  1  0  0  0
 38 47  1  0  0  0
 39 64  1  0  0  0
 39 67  2  0  0  0
 40 52  1  0  0  0
 40 53  2  0  0  0
 40 58  1  0  0  0
 41105  1  0  0  0
 41106  1  0  0  0
 41107  1  0  0  0
 41 48  1  0  0  0
 42 43  1  0  0  0
 42 66  1  0  0  0
 42108  1  0  0  0
 42109  1  0  0  0
 43 44  1  0  0  0
 44110  1  0  0  0
 45 46  2  0  0  0
 45111  1  0  0  0
 46112  1  0  0  0
 47113  1  0  0  0
 47114  1  0  0  0
 48 56  1  0  0  0
 48 65  1  0  0  0
 48115  1  0  0  0
 49 50  1  0  0  0
 49 53  1  0  0  0
 49 64  1  0  0  0
 49116  1  0  0  0
 50 51  1  0  0  0
 50117  1  0  0  0
 50118  1  0  0  0
 51 52  1  0  0  0
 51119  1  0  0  0
 51120  1  0  0  0
 52121  1  0  0  0
 52122  1  0  0  0
 53 54  1  0  0  0
 54 55  2  0  0  0
 54123  1  0  0  0
 55 57  1  0  0  0
 55124  1  0  0  0
 56 69  2  0  0  0
 57 58  2  0  0  0
 57125  1  0  0  0
 58126  1  0  0  0
 59 60  1  0  0  0
 59 61  1  0  0  0
 59 62  1  0  0  0
 60127  1  0  0  0
 60128  1  0  0  0
 60129  1  0  0  0
 61130  1  0  0  0
 61131  1  0  0  0
 61132  1  0  0  0
 62133  1  0  0  0
 62134  1  0  0  0
 62135  1  0  0  0
 63 65  1  0  0  0
 63136  1  0  0  0
 63137  1  0  0  0
 63138  1  0  0  0
 64139  1  0  0  0
 65140  1  0  0  0
 68 79  1  0  0  0
 71 73  2  0  0  0
 71 75  1  0  0  0
 71141  1  0  0  0
 72 74  1  0  0  0
 72 75  2  0  0  0
 72142  1  0  0  0
 73 76  1  0  0  0
 73143  1  0  0  0
 74 76  2  0  0  0
 74144  1  0  0  0
 75 77  1  0  0  0
 76 80  1  0  0  0
 77 81  1  0  0  0
 77145  1  0  0  0
 77146  1  0  0  0
 78 79  1  0  0  0
 78 80  1  0  0  0
 78147  1  0  0  0
 78148  1  0  0  0
 79149  1  0  0  0
 79150  1  0  0  0
 80151  1  0  0  0
 81152  1  0  0  0
M  ISO  4   1 100  68 101  79 101  81 100
M  END
> <chiral flag>
0

> <version>
0

> <s_m_source_file>
/data/baiqing/PycharmProjects/Reinvent-master-3.2/result/LINK_invent/BTK/process_docking_weight1_custom_product_contain_oxygen_bond_distance_aromatic_linkinvent_7_9_3/rearranged_h_0004.sdf

> <i_m_source_file_index>
63

> <r_mmod_Potential_Energy-OPLS-2005>
63.0585403442383

> <r_mmod_Stretch_Energy-OPLS-2005>
81.1610641479492

> <r_mmod_Bend_Energy-OPLS-2005>
174.89680480957

> <r_mmod_Torsional_Energy-OPLS-2005>
241.982162475586

> <r_mmod_Improper_Torsional_Energy-OPLS-2005>
6.58746862411499

> <r_mmod_Van_der_Waal_Energy-OPLS-2005>
138.201919555664

> <r_mmod_Electrostatic_Energy-OPLS-2005>
-409.924652099609

> <r_mmod_Solvation_Energy-OPLS-2005>
-222.65576171875

> <b_mmod_Minimization_Converged-OPLS-2005>
0

> <r_mmod_RMS_Derivative-OPLS-2005>
0.500587821006775

$$$$
63
                    3D
 Structure written by MMmdl.
180190  0  0  1  0            999 V2000
  -30.7331  -14.4161   20.6638 C   0  0  0  0  0  0
  -30.4082  -12.3104   19.4154 C   0  0  0  0  0  0
  -29.4879  -12.5543   18.2031 C   0  0  0  0  0  0
  -28.0089  -12.3991   18.6110 C   0  0  0  0  0  0
  -27.6558  -13.2153   19.8825 C   0  0  2  0  0  0
  -28.6892  -12.9634   20.9998 C   0  0  0  0  0  0
  -25.2528  -13.8167   20.5665 C   0  0  0  0  0  0
  -24.1777  -13.0435   20.9134 C   0  0  0  0  0  0
  -24.6330  -11.6901   20.8680 C   0  0  0  0  0  0
  -23.9017  -10.4274   21.0375 C   0  0  0  0  0  0
  -24.3551   -9.4243   21.9189 C   0  0  0  0  0  0
  -23.6232   -8.2270   22.0777 C   0  0  0  0  0  0
  -22.4257   -8.0264   21.3520 C   0  0  0  0  0  0
  -21.9883   -9.0225   20.4605 C   0  0  0  0  0  0
  -22.7203  -10.2099   20.2981 C   0  0  0  0  0  0
  -21.6838   -6.0724   22.5257 C   0  0  0  0  0  0
  -21.3985   -6.5638   23.8185 C   0  0  0  0  0  0
  -21.3638   -5.6793   24.9145 C   0  0  0  0  0  0
  -21.6040   -4.3050   24.7192 C   0  0  0  0  0  0
  -21.8845   -3.8146   23.4317 C   0  0  0  0  0  0
  -21.9211   -4.6960   22.3380 C   0  0  0  0  0  0
  -22.7792  -13.5229   21.1818 C   0  0  0  0  0  0
  -22.1677   -4.2151   21.0951 F   0  0  0  0  0  0
  -21.5642   -3.4528   25.7697 F   0  0  0  0  0  0
  -30.0263  -13.2715   20.4647 N   0  0  0  0  0  0
  -26.2963  -12.9358   20.3366 N   0  0  0  0  0  0
  -25.9264  -11.6488   20.5727 N   0  0  0  0  0  0
  -22.0419  -12.8187   22.0351 N   0  0  0  0  0  0
  -25.4275  -15.1898   20.4105 N   0  0  0  0  0  0
  -31.8248  -14.6175   20.1243 O   0  0  0  0  0  0
  -21.6629   -6.8857   21.4209 O   0  0  0  0  0  0
  -22.3494  -14.5587   20.6748 O   0  0  0  0  0  0
  -24.6177  -31.8756   23.2165 C   0  0  0  0  0  0
  -25.9129  -32.4792   23.8473 C   0  0  1  0  0  0
  -27.2314  -27.4769   20.0676 C   0  0  0  0  0  0
  -25.6056  -33.8571   24.2494 N   0  0  0  0  0  0
  -23.3995  -30.4972   21.5651 C   0  0  2  0  0  0
  -24.8366  -28.9796   20.1121 C   0  0  0  0  0  0
  -22.7409  -29.4658   22.5083 C   0  0  0  0  0  0
  -18.0242  -28.1423   22.8493 C   0  0  0  0  0  0
  -24.1450  -36.7088   23.2684 C   0  0  0  0  0  0
  -25.9241  -30.8469   21.3698 C   0  0  0  0  0  0
  -25.9978  -29.4886   20.7066 C   0  0  0  0  0  0
  -27.2013  -28.7507   20.6832 C   0  0  0  0  0  0
  -26.0454  -26.9583   19.5108 C   0  0  0  0  0  0
  -24.8551  -27.7097   19.5079 C   0  0  0  0  0  0
  -23.5986  -29.8444   20.1722 C   0  0  0  0  0  0
  -25.4133  -36.3053   24.0399 C   0  0  1  0  0  0
  -20.5842  -28.3609   23.1292 C   0  0  2  0  0  0
  -20.6690  -26.9359   22.5356 C   0  0  0  0  0  0
  -19.5633  -26.6355   21.5185 C   0  0  0  0  0  0
  -18.1836  -26.8002   22.1593 C   0  0  0  0  0  0
  -19.1522  -28.8856   23.2889 C   0  0  0  0  0  0
  -18.9446  -30.1469   23.8913 C   0  0  0  0  0  0
  -17.6441  -30.6616   24.0517 C   0  0  0  0  0  0
  -25.9065  -34.9411   23.5225 C   0  0  0  0  0  0
  -16.5315  -29.9090   23.6340 C   0  0  0  0  0  0
  -16.7224  -28.6508   23.0404 C   0  0  0  0  0  0
  -26.4546  -31.6456   25.0727 C   0  0  0  0  0  0
  -25.3737  -31.3348   26.1310 C   0  0  0  0  0  0
  -27.0427  -30.2954   24.5973 C   0  0  0  0  0  0
  -27.6012  -32.4130   25.7773 C   0  0  0  0  0  0
  -27.5522  -37.1845   24.8644 C   0  0  0  0  0  0
  -21.4171  -29.2940   22.3700 N   0  0  0  0  0  0
  -26.4344  -37.3698   23.9382 N   0  0  0  0  0  0
  -24.6638  -31.0871   22.1074 N   0  0  0  0  0  0
  -23.4166  -28.8246   23.3185 O   0  0  0  0  0  0
  -28.3586  -26.6920   19.9721 O   0  0  0  0  0  0
  -26.5509  -34.8851   22.4722 O   0  0  0  0  0  0
  -23.5398  -32.1541   23.7582 O   0  0  0  0  0  0
  -33.0099  -21.9966   19.4005 C   0  0  0  0  0  0
  -33.3975  -23.3122   19.7282 C   0  0  0  0  0  0
  -32.0746  -19.8338   20.0813 C   0  0  0  0  0  0
  -31.6633  -20.8250   22.6748 C   0  0  0  0  0  0
  -32.5983  -22.9873   22.0096 C   0  0  0  0  0  0
  -32.4302  -21.1653   20.3819 C   0  0  0  0  0  0
  -32.2184  -21.6640   21.6872 C   0  0  0  0  0  0
  -31.5565  -18.9737   21.0773 C   0  0  0  0  0  0
  -31.3815  -19.4628   22.4014 C   0  0  0  0  0  0
  -33.1902  -23.8169   21.0318 C   0  0  0  0  0  0
  -31.2012  -17.5413   20.6846 C   0  0  0  0  0  0
  -30.9542  -18.5264   23.5439 C   0  0  1  0  0  0
  -30.8187  -16.6091   21.8628 C   0  0  1  0  0  0
  -30.0371  -17.4081   22.9339 C   0  0  0  0  0  0
  -31.8284  -17.1693   25.4429 C   0  0  0  0  0  0
  -33.1064  -18.9958   24.6914 C   0  0  0  0  0  0
  -33.6032  -25.2433   21.3849 C   0  0  0  0  0  0
  -30.6505  -26.2734   19.4840 C   0  0  0  0  0  0
  -32.1184  -26.5701   19.8754 C   0  0  0  0  0  0
  -29.6346  -27.3319   19.9503 C   0  0  0  0  0  0
  -30.1647  -15.3537   21.4464 N   0  0  0  0  0  0
  -32.1432  -17.9726   24.2548 N   0  0  0  0  0  0
  -32.4722  -26.1951   21.2737 N   0  3  0  0  0  0
  -29.5242  -16.5948   23.8571 F   0  0  0  0  0  0
  -28.9832  -17.9802   22.3434 F   0  0  0  0  0  0
  -31.4577  -12.3991   19.1297 H   0  0  0  0  0  0
  -30.2884  -11.2892   19.7795 H   0  0  0  0  0  0
  -29.7342  -11.8630   17.3964 H   0  0  0  0  0  0
  -29.6502  -13.5593   17.8069 H   0  0  0  0  0  0
  -27.8237  -11.3384   18.7881 H   0  0  0  0  0  0
  -27.3580  -12.6880   17.7853 H   0  0  0  0  0  0
  -27.7085  -14.2709   19.6119 H   0  0  0  0  0  0
  -28.6509  -11.9163   21.3058 H   0  0  0  0  0  0
  -28.4424  -13.5302   21.8975 H   0  0  0  0  0  0
  -25.2668   -9.5773   22.4792 H   0  0  0  0  0  0
  -23.9916   -7.4709   22.7557 H   0  0  0  0  0  0
  -21.0812   -8.8718   19.8893 H   0  0  0  0  0  0
  -22.3690  -10.9602   19.6042 H   0  0  0  0  0  0
  -21.1928   -7.6142   23.9677 H   0  0  0  0  0  0
  -21.1422   -6.0514   25.9046 H   0  0  0  0  0  0
  -22.0650   -2.7603   23.2811 H   0  0  0  0  0  0
  -22.3944  -11.9745   22.4604 H   0  0  0  0  0  0
  -21.1055  -13.1254   22.2594 H   0  0  0  0  0  0
  -24.6639  -15.8515   20.4997 H   0  0  0  0  0  0
  -26.2951  -15.6297   20.1261 H   0  0  0  0  0  0
  -26.7208  -32.5533   23.1252 H   0  0  0  0  0  0
  -25.0430  -33.9729   25.0793 H   0  0  0  0  0  0
  -22.6804  -31.3082   21.4408 H   0  0  0  0  0  0
  -23.3818  -35.9323   23.3407 H   0  0  0  0  0  0
  -24.3500  -36.8601   22.2084 H   0  0  0  0  0  0
  -23.7031  -37.6236   23.6603 H   0  0  0  0  0  0
  -26.0515  -31.6190   20.6100 H   0  0  0  0  0  0
  -26.8026  -30.8843   22.0011 H   0  0  0  0  0  0
  -28.0873  -29.1657   21.1375 H   0  0  0  0  0  0
  -26.0424  -25.9769   19.0579 H   0  0  0  0  0  0
  -23.9623  -27.3100   19.0470 H   0  0  0  0  0  0
  -23.7039  -30.6312   19.4237 H   0  0  0  0  0  0
  -22.7195  -29.2699   19.8779 H   0  0  0  0  0  0
  -25.1357  -36.1928   25.0904 H   0  0  0  0  0  0
  -20.9887  -28.3088   24.1429 H   0  0  0  0  0  0
  -20.5578  -26.2214   23.3539 H   0  0  0  0  0  0
  -21.6509  -26.7390   22.1040 H   0  0  0  0  0  0
  -19.6619  -25.6227   21.1257 H   0  0  0  0  0  0
  -19.6602  -27.3107   20.6677 H   0  0  0  0  0  0
  -17.4106  -26.6892   21.3966 H   0  0  0  0  0  0
  -18.0095  -26.0153   22.8965 H   0  0  0  0  0  0
  -19.7932  -30.7293   24.2262 H   0  0  0  0  0  0
  -17.4990  -31.6329   24.5037 H   0  0  0  0  0  0
  -15.5305  -30.2977   23.7707 H   0  0  0  0  0  0
  -15.8608  -28.0761   22.7195 H   0  0  0  0  0  0
  -24.6055  -30.6669   25.7413 H   0  0  0  0  0  0
  -24.8800  -32.2399   26.4832 H   0  0  0  0  0  0
  -25.8013  -30.8352   27.0014 H   0  0  0  0  0  0
  -26.2995  -29.6737   24.0952 H   0  0  0  0  0  0
  -27.4212  -29.7093   25.4370 H   0  0  0  0  0  0
  -27.8812  -30.4344   23.9137 H   0  0  0  0  0  0
  -27.2584  -33.3429   26.2304 H   0  0  0  0  0  0
  -28.4094  -32.6625   25.0905 H   0  0  0  0  0  0
  -28.0334  -31.8198   26.5826 H   0  0  0  0  0  0
  -28.2753  -37.9891   24.7323 H   0  0  0  0  0  0
  -28.0825  -36.2426   24.7107 H   0  0  0  0  0  0
  -27.2146  -37.2185   25.9019 H   0  0  0  0  0  0
  -20.9388  -29.8495   21.6747 H   0  0  0  0  0  0
  -26.0239  -38.2836   24.1126 H   0  0  0  0  0  0
  -33.1728  -21.6276   18.3987 H   0  0  0  0  0  0
  -33.8687  -23.9263   18.9716 H   0  0  0  0  0  0
  -32.2275  -19.4498   19.0821 H   0  0  0  0  0  0
  -31.5237  -21.2083   23.6764 H   0  0  0  0  0  0
  -32.4540  -23.3623   23.0143 H   0  0  0  0  0  0
  -32.0557  -17.1323   20.1487 H   0  0  0  0  0  0
  -30.3773  -17.5827   19.9695 H   0  0  0  0  0  0
  -30.3676  -19.1123   24.2567 H   0  0  0  0  0  0
  -31.7479  -16.2945   22.3388 H   0  0  0  0  0  0
  -31.2257  -16.2832   25.2366 H   0  0  0  0  0  0
  -31.3260  -17.7600   26.2151 H   0  0  0  0  0  0
  -32.7469  -16.7790   25.8878 H   0  0  0  0  0  0
  -33.5425  -19.5443   23.8539 H   0  0  0  0  0  0
  -33.9583  -18.5439   25.2021 H   0  0  0  0  0  0
  -32.6633  -19.7208   25.3776 H   0  0  0  0  0  0
  -34.4212  -25.5611   20.7341 H   0  0  0  0  0  0
  -34.0191  -25.2642   22.3954 H   0  0  0  0  0  0
  -30.3662  -25.2743   19.8175 H   0  0  0  0  0  0
  -30.5880  -26.2275   18.3934 H   0  0  0  0  0  0
  -32.3612  -27.6173   19.7042 H   0  0  0  0  0  0
  -32.7548  -26.0204   19.1794 H   0  0  0  0  0  0
  -29.6394  -28.1694   19.2446 H   0  0  0  0  0  0
  -29.8973  -27.7034   20.9437 H   0  0  0  0  0  0
  -29.2634  -15.1494   21.8537 H   0  0  0  0  0  0
  -32.7669  -27.0278   21.7647 H   0  0  0  0  0  0
  -31.6723  -25.8357   21.7750 H   0  0  0  0  0  0
  1 25  1  0  0  0
  1 30  2  0  0  0
  1 91  1  0  0  0
  2  3  1  0  0  0
  2 25  1  0  0  0
  2 96  1  0  0  0
  2 97  1  0  0  0
  3  4  1  0  0  0
  3 98  1  0  0  0
  3 99  1  0  0  0
  4  5  1  0  0  0
  4100  1  0  0  0
  4101  1  0  0  0
  5  6  1  0  0  0
  5 26  1  0  0  0
  5102  1  0  0  0
  6 25  1  0  0  0
  6103  1  0  0  0
  6104  1  0  0  0
  7  8  2  0  0  0
  7 26  1  0  0  0
  7 29  1  0  0  0
  8  9  1  0  0  0
  8 22  1  0  0  0
  9 10  1  0  0  0
  9 27  2  0  0  0
 10 11  2  0  0  0
 10 15  1  0  0  0
 11 12  1  0  0  0
 11105  1  0  0  0
 12 13  2  0  0  0
 12106  1  0  0  0
 13 14  1  0  0  0
 13 31  1  0  0  0
 14 15  2  0  0  0
 14107  1  0  0  0
 15108  1  0  0  0
 16 17  2  0  0  0
 16 21  1  0  0  0
 16 31  1  0  0  0
 17 18  1  0  0  0
 17109  1  0  0  0
 18 19  2  0  0  0
 18110  1  0  0  0
 19 20  1  0  0  0
 19 24  1  0  0  0
 20 21  2  0  0  0
 20111  1  0  0  0
 21 23  1  0  0  0
 22 28  1  0  0  0
 22 32  2  0  0  0
 26 27  1  0  0  0
 28112  1  0  0  0
 28113  1  0  0  0
 29114  1  0  0  0
 29115  1  0  0  0
 33 34  1  0  0  0
 33 66  1  0  0  0
 33 70  2  0  0  0
 34 36  1  0  0  0
 34 59  1  0  0  0
 34116  1  0  0  0
 35 44  2  0  0  0
 35 45  1  0  0  0
 35 68  1  0  0  0
 36 56  1  0  0  0
 36117  1  0  0  0
 37 39  1  0  0  0
 37 47  1  0  0  0
 37 66  1  0  0  0
 37118  1  0  0  0
 38 43  2  0  0  0
 38 46  1  0  0  0
 38 47  1  0  0  0
 39 64  1  0  0  0
 39 67  2  0  0  0
 40 52  1  0  0  0
 40 53  2  0  0  0
 40 58  1  0  0  0
 41119  1  0  0  0
 41120  1  0  0  0
 41121  1  0  0  0
 41 48  1  0  0  0
 42 43  1  0  0  0
 42 66  1  0  0  0
 42122  1  0  0  0
 42123  1  0  0  0
 43 44  1  0  0  0
 44124  1  0  0  0
 45 46  2  0  0  0
 45125  1  0  0  0
 46126  1  0  0  0
 47127  1  0  0  0
 47128  1  0  0  0
 48 56  1  0  0  0
 48 65  1  0  0  0
 48129  1  0  0  0
 49 50  1  0  0  0
 49 53  1  0  0  0
 49 64  1  0  0  0
 49130  1  0  0  0
 50 51  1  0  0  0
 50131  1  0  0  0
 50132  1  0  0  0
 51 52  1  0  0  0
 51133  1  0  0  0
 51134  1  0  0  0
 52135  1  0  0  0
 52136  1  0  0  0
 53 54  1  0  0  0
 54 55  2  0  0  0
 54137  1  0  0  0
 55 57  1  0  0  0
 55138  1  0  0  0
 56 69  2  0  0  0
 57 58  2  0  0  0
 57139  1  0  0  0
 58140  1  0  0  0
 59 60  1  0  0  0
 59 61  1  0  0  0
 59 62  1  0  0  0
 60141  1  0  0  0
 60142  1  0  0  0
 60143  1  0  0  0
 61144  1  0  0  0
 61145  1  0  0  0
 61146  1  0  0  0
 62147  1  0  0  0
 62148  1  0  0  0
 62149  1  0  0  0
 63 65  1  0  0  0
 63150  1  0  0  0
 63151  1  0  0  0
 63152  1  0  0  0
 64153  1  0  0  0
 65154  1  0  0  0
 68 90  1  0  0  0
 71 72  2  0  0  0
 71 76  1  0  0  0
 71155  1  0  0  0
 72 80  1  0  0  0
 72156  1  0  0  0
 73 76  2  0  0  0
 73 78  1  0  0  0
 73157  1  0  0  0
 74 77  2  0  0  0
 74 79  1  0  0  0
 74158  1  0  0  0
 75 77  1  0  0  0
 75 80  2  0  0  0
 75159  1  0  0  0
 76 77  1  0  0  0
 78 79  2  0  0  0
 78 81  1  0  0  0
 79 82  1  0  0  0
 80 87  1  0  0  0
 81 83  1  0  0  0
 81160  1  0  0  0
 81161  1  0  0  0
 82 84  1  0  0  0
 82 92  1  0  0  0
 82162  1  0  0  0
 83 84  1  0  0  0
 83 91  1  0  0  0
 83163  1  0  0  0
 84 94  1  0  0  0
 84 95  1  0  0  0
 85 92  1  0  0  0
 85164  1  0  0  0
 85165  1  0  0  0
 85166  1  0  0  0
 86 92  1  0  0  0
 86167  1  0  0  0
 86168  1  0  0  0
 86169  1  0  0  0
 87 93  1  0  0  0
 87170  1  0  0  0
 87171  1  0  0  0
 88 89  1  0  0  0
 88 90  1  0  0  0
 88172  1  0  0  0
 88173  1  0  0  0
 89 93  1  0  0  0
 89174  1  0  0  0
 89175  1  0  0  0
 90176  1  0  0  0
 90177  1  0  0  0
 91178  1  0  0  0
 93179  1  0  0  0
 93180  1  0  0  0
M  CHG  1  93   1
M  ISO  4   1 100  68 101  90 101  91 100
M  END
> <chiral flag>
0

> <version>
0

> <s_m_source_file>
/data/baiqing/PycharmProjects/Reinvent-master-3.2/result/LINK_invent/BTK/process_docking_weight1_custom_product_contain_oxygen_bond_distance_aromatic_linkinvent_7_9_3/rearranged_h_0004.sdf

> <i_m_source_file_index>
64

> <r_mmod_Potential_Energy-OPLS-2005>
-168.621932983398

> <r_mmod_Stretch_Energy-OPLS-2005>
45.2497329711914

> <r_mmod_Bend_Energy-OPLS-2005>
117.208969116211

> <r_mmod_Torsional_Energy-OPLS-2005>
246.381225585938

> <r_mmod_Improper_Torsional_Energy-OPLS-2005>
2.04275679588318

> <r_mmod_Van_der_Waal_Energy-OPLS-2005>
191.053649902344

> <r_mmod_Electrostatic_Energy-OPLS-2005>
-306.107513427734

> <r_mmod_Solvation_Energy-OPLS-2005>
-473.876617431641

> <b_mmod_Minimization_Converged-OPLS-2005>
0

> <r_mmod_RMS_Derivative-OPLS-2005>
7.16388034820557

$$$$
64
                    3D
 Structure written by MMmdl.
151159  0  0  1  0            999 V2000
  -30.6183  -14.6884   20.5139 C   0  0  0  0  0  0
  -30.4359  -12.4337   19.4638 C   0  0  0  0  0  0
  -29.5135  -12.5566   18.2311 C   0  0  0  0  0  0
  -28.0372  -12.3840   18.6297 C   0  0  0  0  0  0
  -27.6555  -13.2329   19.8715 C   0  0  2  0  0  0
  -28.6981  -13.0967   21.0054 C   0  0  0  0  0  0
  -25.2556  -13.8210   20.5713 C   0  0  0  0  0  0
  -24.1819  -13.0449   20.9188 C   0  0  0  0  0  0
  -24.6435  -11.6934   20.8744 C   0  0  0  0  0  0
  -23.9092  -10.4291   21.0363 C   0  0  0  0  0  0
  -24.3651   -9.4206   21.9131 C   0  0  0  0  0  0
  -23.6309   -8.2257   22.0720 C   0  0  0  0  0  0
  -22.4288   -8.0293   21.3541 C   0  0  0  0  0  0
  -21.9934   -9.0258   20.4628 C   0  0  0  0  0  0
  -22.7273  -10.2129   20.3016 C   0  0  0  0  0  0
  -21.6874   -6.0737   22.5277 C   0  0  0  0  0  0
  -21.4030   -6.5634   23.8203 C   0  0  0  0  0  0
  -21.3679   -5.6772   24.9165 C   0  0  0  0  0  0
  -21.6040   -4.3054   24.7207 C   0  0  0  0  0  0
  -21.8837   -3.8139   23.4323 C   0  0  0  0  0  0
  -21.9204   -4.6962   22.3389 C   0  0  0  0  0  0
  -22.7831  -13.5241   21.1808 C   0  0  0  0  0  0
  -22.1651   -4.2152   21.0969 F   0  0  0  0  0  0
  -21.5636   -3.4527   25.7714 F   0  0  0  0  0  0
  -30.0159  -13.4528   20.4529 N   0  0  0  0  0  0
  -26.3007  -12.9411   20.3353 N   0  0  0  0  0  0
  -25.9377  -11.6563   20.5761 N   0  0  0  0  0  0
  -22.0454  -12.8264   22.0419 N   0  0  0  0  0  0
  -25.4261  -15.1926   20.4188 N   0  0  0  0  0  0
  -31.7466  -14.8581   20.0396 O   0  0  0  0  0  0
  -21.6664   -6.8882   21.4224 O   0  0  0  0  0  0
  -22.3495  -14.5516   20.6631 O   0  0  0  0  0  0
  -24.6263  -31.8598   23.1996 C   0  0  0  0  0  0
  -25.9118  -32.4779   23.8327 C   0  0  1  0  0  0
  -27.2440  -27.3066   20.1323 C   0  0  0  0  0  0
  -25.5949  -33.8587   24.2276 N   0  0  0  0  0  0
  -23.4204  -30.4782   21.5458 C   0  0  2  0  0  0
  -24.8716  -28.9196   20.1219 C   0  0  0  0  0  0
  -22.7472  -29.4642   22.4998 C   0  0  0  0  0  0
  -18.0303  -28.1373   22.8479 C   0  0  0  0  0  0
  -24.1504  -36.7279   23.2632 C   0  0  0  0  0  0
  -25.9629  -30.7810   21.3774 C   0  0  0  0  0  0
  -26.0393  -29.4068   20.7226 C   0  0  0  0  0  0
  -27.2260  -28.6130   20.7158 C   0  0  0  0  0  0
  -26.0486  -26.8692   19.5151 C   0  0  0  0  0  0
  -24.8787  -27.6550   19.5111 C   0  0  0  0  0  0
  -23.6351  -29.7970   20.1681 C   0  0  0  0  0  0
  -25.4137  -36.3092   24.0332 C   0  0  1  0  0  0
  -20.5892  -28.3685   23.1288 C   0  0  2  0  0  0
  -20.6825  -26.9422   22.5401 C   0  0  0  0  0  0
  -19.5800  -26.6366   21.5226 C   0  0  0  0  0  0
  -18.1971  -26.7919   22.1604 C   0  0  0  0  0  0
  -19.1543  -28.8850   23.2867 C   0  0  0  0  0  0
  -18.9471  -30.1464   23.8859 C   0  0  0  0  0  0
  -17.6464  -30.6574   24.0553 C   0  0  0  0  0  0
  -25.9078  -34.9468   23.5103 C   0  0  0  0  0  0
  -16.5364  -29.9063   23.6332 C   0  0  0  0  0  0
  -16.7285  -28.6480   23.0351 C   0  0  0  0  0  0
  -26.4481  -31.6589   25.0709 C   0  0  0  0  0  0
  -25.3699  -31.3732   26.1424 C   0  0  0  0  0  0
  -27.0354  -30.3025   24.6179 C   0  0  0  0  0  0
  -27.6045  -32.4320   25.7470 C   0  0  0  0  0  0
  -27.5609  -37.1794   24.8455 C   0  0  0  0  0  0
  -21.4202  -29.3019   22.3689 N   0  0  0  0  0  0
  -26.4304  -37.3797   23.9413 N   0  0  0  0  0  0
  -24.6886  -31.0584   22.0967 N   0  0  0  0  0  0
  -23.4166  -28.8224   23.3136 O   0  0  0  0  0  0
  -28.3839  -26.4785   20.1614 O   0  0  0  0  0  0
  -26.5641  -34.8918   22.4668 O   0  0  0  0  0  0
  -23.5438  -32.1430   23.7307 O   0  0  0  0  0  0
  -30.3063  -17.7857   19.5591 C   0  0  0  0  0  0
  -29.3834  -18.0960   21.7608 C   0  0  0  0  0  0
  -30.1503  -19.1846   19.3131 C   0  0  0  0  0  0
  -29.2632  -19.5058   21.5264 C   0  0  0  0  0  0
  -29.9033  -17.1873   20.7885 C   0  0  0  0  0  0
  -29.6223  -20.0930   20.2781 C   0  0  0  0  0  0
  -29.4960  -24.0739   20.3620 C   0  0  0  0  0  0
  -29.4037  -22.5508   20.8796 C   0  0  0  0  0  0
  -28.2090  -25.0020   20.2058 C   0  0  0  0  0  0
  -29.8978  -15.7332   21.0433 N   0  0  0  0  0  0
  -29.4531  -21.4503   19.9079 O   0  0  0  0  0  0
  -31.4753  -12.5568   19.1615 H   0  0  0  0  0  0
  -30.3658  -11.4324   19.8887 H   0  0  0  0  0  0
  -29.7913  -11.8247   17.4695 H   0  0  0  0  0  0
  -29.6525  -13.5380   17.7753 H   0  0  0  0  0  0
  -27.8735  -11.3263   18.8296 H   0  0  0  0  0  0
  -27.3910  -12.6356   17.7882 H   0  0  0  0  0  0
  -27.6693  -14.2727   19.5484 H   0  0  0  0  0  0
  -28.7155  -12.0734   21.3863 H   0  0  0  0  0  0
  -28.4291  -13.7289   21.8511 H   0  0  0  0  0  0
  -25.2775   -9.5720   22.4711 H   0  0  0  0  0  0
  -24.0047   -7.4666   22.7467 H   0  0  0  0  0  0
  -21.0850   -8.8770   19.8950 H   0  0  0  0  0  0
  -22.3685  -10.9673   19.6153 H   0  0  0  0  0  0
  -21.2008   -7.6126   23.9721 H   0  0  0  0  0  0
  -21.1483   -6.0488   25.9079 H   0  0  0  0  0  0
  -22.0594   -2.7597   23.2816 H   0  0  0  0  0  0
  -22.4062  -11.9965   22.4895 H   0  0  0  0  0  0
  -21.1051  -13.1241   22.2523 H   0  0  0  0  0  0
  -24.6665  -15.8532   20.5436 H   0  0  0  0  0  0
  -26.2856  -15.6363   20.1247 H   0  0  0  0  0  0
  -26.7180  -32.5417   23.1067 H   0  0  0  0  0  0
  -25.0177  -33.9724   25.0473 H   0  0  0  0  0  0
  -22.7144  -31.2989   21.3978 H   0  0  0  0  0  0
  -23.3803  -35.9568   23.3274 H   0  0  0  0  0  0
  -24.3602  -36.8921   22.2046 H   0  0  0  0  0  0
  -23.7201  -37.6453   23.6661 H   0  0  0  0  0  0
  -26.1067  -31.5404   20.6075 H   0  0  0  0  0  0
  -26.8363  -30.8237   22.0166 H   0  0  0  0  0  0
  -28.1177  -28.9868   21.2001 H   0  0  0  0  0  0
  -25.9934  -25.9038   19.0360 H   0  0  0  0  0  0
  -23.9843  -27.2690   19.0415 H   0  0  0  0  0  0
  -23.7403  -30.5632   19.4004 H   0  0  0  0  0  0
  -22.7556  -29.2188   19.8770 H   0  0  0  0  0  0
  -25.1316  -36.1953   25.0827 H   0  0  0  0  0  0
  -20.9965  -28.3272   24.1415 H   0  0  0  0  0  0
  -20.5799  -26.2308   23.3595 H   0  0  0  0  0  0
  -21.6692  -26.7520   22.1159 H   0  0  0  0  0  0
  -19.6998  -25.6281   21.1261 H   0  0  0  0  0  0
  -19.6737  -27.3157   20.6745 H   0  0  0  0  0  0
  -17.4273  -26.6667   21.3983 H   0  0  0  0  0  0
  -18.0346  -26.0029   22.8950 H   0  0  0  0  0  0
  -19.7957  -30.7303   24.2150 H   0  0  0  0  0  0
  -17.5032  -31.6249   24.5162 H   0  0  0  0  0  0
  -15.5365  -30.2946   23.7697 H   0  0  0  0  0  0
  -15.8687  -28.0785   22.7088 H   0  0  0  0  0  0
  -24.5841  -30.7139   25.7725 H   0  0  0  0  0  0
  -24.8923  -32.2906   26.4872 H   0  0  0  0  0  0
  -25.7975  -30.8855   27.0188 H   0  0  0  0  0  0
  -26.2957  -29.6747   24.1210 H   0  0  0  0  0  0
  -27.4094  -29.7292   25.4666 H   0  0  0  0  0  0
  -27.8785  -30.4337   23.9399 H   0  0  0  0  0  0
  -27.2672  -33.3616   26.2050 H   0  0  0  0  0  0
  -28.3834  -32.6889   25.0286 H   0  0  0  0  0  0
  -28.0734  -31.8453   26.5370 H   0  0  0  0  0  0
  -28.2593  -38.0129   24.7612 H   0  0  0  0  0  0
  -28.1151  -36.2687   24.6170 H   0  0  0  0  0  0
  -27.2338  -37.1292   25.8850 H   0  0  0  0  0  0
  -20.9436  -29.8639   21.6781 H   0  0  0  0  0  0
  -26.0207  -38.2871   24.1430 H   0  0  0  0  0  0
  -30.7036  -17.1789   18.7545 H   0  0  0  0  0  0
  -29.0400  -17.7192   22.7203 H   0  0  0  0  0  0
  -30.4406  -19.5683   18.3432 H   0  0  0  0  0  0
  -28.8440  -20.1135   22.3196 H   0  0  0  0  0  0
  -30.0759  -24.0950   19.4386 H   0  0  0  0  0  0
  -30.1279  -24.5954   21.0820 H   0  0  0  0  0  0
  -28.5720  -22.4378   21.5775 H   0  0  0  0  0  0
  -30.3014  -22.3971   21.4825 H   0  0  0  0  0  0
  -27.5390  -24.7864   21.0384 H   0  0  0  0  0  0
  -27.7049  -24.6696   19.3012 H   0  0  0  0  0  0
  -29.1493  -15.4223   21.6469 H   0  0  0  0  0  0
  1 25  1  0  0  0
  1 30  2  0  0  0
  1 80  1  0  0  0
  2  3  1  0  0  0
  2 25  1  0  0  0
  2 82  1  0  0  0
  2 83  1  0  0  0
  3  4  1  0  0  0
  3 84  1  0  0  0
  3 85  1  0  0  0
  4  5  1  0  0  0
  4 86  1  0  0  0
  4 87  1  0  0  0
  5  6  1  0  0  0
  5 26  1  0  0  0
  5 88  1  0  0  0
  6 25  1  0  0  0
  6 89  1  0  0  0
  6 90  1  0  0  0
  7  8  2  0  0  0
  7 26  1  0  0  0
  7 29  1  0  0  0
  8  9  1  0  0  0
  8 22  1  0  0  0
  9 10  1  0  0  0
  9 27  2  0  0  0
 10 11  2  0  0  0
 10 15  1  0  0  0
 11 12  1  0  0  0
 11 91  1  0  0  0
 12 13  2  0  0  0
 12 92  1  0  0  0
 13 14  1  0  0  0
 13 31  1  0  0  0
 14 15  2  0  0  0
 14 93  1  0  0  0
 15 94  1  0  0  0
 16 17  2  0  0  0
 16 21  1  0  0  0
 16 31  1  0  0  0
 17 18  1  0  0  0
 17 95  1  0  0  0
 18 19  2  0  0  0
 18 96  1  0  0  0
 19 20  1  0  0  0
 19 24  1  0  0  0
 20 21  2  0  0  0
 20 97  1  0  0  0
 21 23  1  0  0  0
 22 28  1  0  0  0
 22 32  2  0  0  0
 26 27  1  0  0  0
 28 98  1  0  0  0
 28 99  1  0  0  0
 29100  1  0  0  0
 29101  1  0  0  0
 33 34  1  0  0  0
 33 66  1  0  0  0
 33 70  2  0  0  0
 34 36  1  0  0  0
 34 59  1  0  0  0
 34102  1  0  0  0
 35 44  2  0  0  0
 35 45  1  0  0  0
 35 68  1  0  0  0
 36 56  1  0  0  0
 36103  1  0  0  0
 37 39  1  0  0  0
 37 47  1  0  0  0
 37 66  1  0  0  0
 37104  1  0  0  0
 38 43  2  0  0  0
 38 46  1  0  0  0
 38 47  1  0  0  0
 39 64  1  0  0  0
 39 67  2  0  0  0
 40 52  1  0  0  0
 40 53  2  0  0  0
 40 58  1  0  0  0
 41105  1  0  0  0
 41106  1  0  0  0
 41107  1  0  0  0
 41 48  1  0  0  0
 42 43  1  0  0  0
 42 66  1  0  0  0
 42108  1  0  0  0
 42109  1  0  0  0
 43 44  1  0  0  0
 44110  1  0  0  0
 45 46  2  0  0  0
 45111  1  0  0  0
 46112  1  0  0  0
 47113  1  0  0  0
 47114  1  0  0  0
 48 56  1  0  0  0
 48 65  1  0  0  0
 48115  1  0  0  0
 49 50  1  0  0  0
 49 53  1  0  0  0
 49 64  1  0  0  0
 49116  1  0  0  0
 50 51  1  0  0  0
 50117  1  0  0  0
 50118  1  0  0  0
 51 52  1  0  0  0
 51119  1  0  0  0
 51120  1  0  0  0
 52121  1  0  0  0
 52122  1  0  0  0
 53 54  1  0  0  0
 54 55  2  0  0  0
 54123  1  0  0  0
 55 57  1  0  0  0
 55124  1  0  0  0
 56 69  2  0  0  0
 57 58  2  0  0  0
 57125  1  0  0  0
 58126  1  0  0  0
 59 60  1  0  0  0
 59 61  1  0  0  0
 59 62  1  0  0  0
 60127  1  0  0  0
 60128  1  0  0  0
 60129  1  0  0  0
 61130  1  0  0  0
 61131  1  0  0  0
 61132  1  0  0  0
 62133  1  0  0  0
 62134  1  0  0  0
 62135  1  0  0  0
 63 65  1  0  0  0
 63136  1  0  0  0
 63137  1  0  0  0
 63138  1  0  0  0
 64139  1  0  0  0
 65140  1  0  0  0
 68 79  1  0  0  0
 71 73  2  0  0  0
 71 75  1  0  0  0
 71141  1  0  0  0
 72 74  1  0  0  0
 72 75  2  0  0  0
 72142  1  0  0  0
 73 76  1  0  0  0
 73143  1  0  0  0
 74 76  2  0  0  0
 74144  1  0  0  0
 75 80  1  0  0  0
 76 81  1  0  0  0
 77 78  1  0  0  0
 77 79  1  0  0  0
 77145  1  0  0  0
 77146  1  0  0  0
 78 81  1  0  0  0
 78147  1  0  0  0
 78148  1  0  0  0
 79149  1  0  0  0
 79150  1  0  0  0
 80151  1  0  0  0
M  ISO  4   1 100  68 101  79 101  80 100
M  END
> <chiral flag>
0

> <version>
0

> <s_m_source_file>
/data/baiqing/PycharmProjects/Reinvent-master-3.2/result/LINK_invent/BTK/process_docking_weight1_custom_product_contain_oxygen_bond_distance_aromatic_linkinvent_7_9_3/rearranged_h_0004.sdf

> <i_m_source_file_index>
65

> <r_mmod_Potential_Energy-OPLS-2005>
87.3086853027344

> <r_mmod_Stretch_Energy-OPLS-2005>
91.08984375

> <r_mmod_Bend_Energy-OPLS-2005>
159.319290161133

> <r_mmod_Torsional_Energy-OPLS-2005>
236.013916015625

> <r_mmod_Improper_Torsional_Energy-OPLS-2005>
3.05807876586914

> <r_mmod_Van_der_Waal_Energy-OPLS-2005>
138.714782714844

> <r_mmod_Electrostatic_Energy-OPLS-2005>
-383.976654052734

> <r_mmod_Solvation_Energy-OPLS-2005>
-214.270523071289

> <b_mmod_Minimization_Converged-OPLS-2005>
0

> <r_mmod_RMS_Derivative-OPLS-2005>
5.72391843795776

$$$$
65
                    3D
 Structure written by MMmdl.
175185  0  0  1  0            999 V2000
  -29.4123  -15.4147   20.8737 C   0  0  0  0  0  0
  -30.3433  -13.2181   19.6663 C   0  0  0  0  0  0
  -29.5663  -12.6352   18.4264 C   0  0  0  0  0  0
  -28.1898  -12.0914   18.8251 C   0  0  0  0  0  0
  -27.5309  -13.1071   19.7787 C   0  0  2  0  0  0
  -28.3601  -13.2292   21.0507 C   0  0  0  0  0  0
  -25.1423  -13.6838   20.3559 C   0  0  0  0  0  0
  -24.1108  -12.9815   20.8559 C   0  0  0  0  0  0
  -24.5867  -11.6361   20.8792 C   0  0  0  0  0  0
  -23.8730  -10.3927   21.0764 C   0  0  0  0  0  0
  -24.3353   -9.3871   21.9523 C   0  0  0  0  0  0
  -23.6071   -8.1903   22.0851 C   0  0  0  0  0  0
  -22.4134   -7.9996   21.3592 C   0  0  0  0  0  0
  -21.9733   -8.9971   20.4761 C   0  0  0  0  0  0
  -22.6967  -10.1842   20.3349 C   0  0  0  0  0  0
  -21.6681   -6.0557   22.5291 C   0  0  0  0  0  0
  -21.3913   -6.5531   23.8201 C   0  0  0  0  0  0
  -21.3638   -5.6736   24.9214 C   0  0  0  0  0  0
  -21.6042   -4.2995   24.7289 C   0  0  0  0  0  0
  -21.8833   -3.8033   23.4416 C   0  0  0  0  0  0
  -21.9125   -4.6821   22.3445 C   0  0  0  0  0  0
  -22.7309  -13.4918   21.1677 C   0  0  0  0  0  0
  -22.1643   -4.2003   21.1025 F   0  0  0  0  0  0
  -21.5642   -3.4512   25.7816 F   0  0  0  0  0  0
  -29.4372  -14.0269   20.6108 N   0  0  0  0  0  0
  -26.1903  -12.8106   20.1912 N   0  0  0  0  0  0
  -25.8811  -11.5658   20.5883 N   0  0  0  0  0  0
  -22.0313  -12.8118   22.0508 N   0  0  0  0  0  0
  -25.2826  -14.9475   19.9286 N   0  0  0  0  0  0
  -30.6300  -15.7888   20.5860 O   0  0  0  0  0  0
  -21.6442   -6.8653   21.4235 O   0  0  0  0  0  0
  -22.3106  -14.5525   20.6850 O   0  0  0  0  0  0
  -24.5898  -31.8565   23.2346 C   0  0  0  0  0  0
  -25.8974  -32.4799   23.8589 C   0  0  1  0  0  0
  -27.0741  -27.3948   20.0438 C   0  0  0  0  0  0
  -25.5890  -33.8585   24.2284 N   0  0  0  0  0  0
  -23.3284  -30.4966   21.5856 C   0  0  2  0  0  0
  -24.7891  -29.0220   20.1205 C   0  0  0  0  0  0
  -22.6468  -29.4245   22.4985 C   0  0  0  0  0  0
  -17.9142  -28.2965   22.8996 C   0  0  0  0  0  0
  -24.1516  -36.7298   23.2610 C   0  0  0  0  0  0
  -25.9039  -30.7990   21.4100 C   0  0  0  0  0  0
  -25.9776  -29.4518   20.7386 C   0  0  0  0  0  0
  -27.1343  -28.6412   20.7201 C   0  0  0  0  0  0
  -25.9276  -27.1050   19.2865 C   0  0  0  0  0  0
  -24.7665  -27.8381   19.3880 C   0  0  0  0  0  0
  -23.5542  -29.8958   20.1863 C   0  0  0  0  0  0
  -25.4122  -36.3041   24.0309 C   0  0  1  0  0  0
  -20.5007  -28.3483   23.2854 C   0  0  2  0  0  0
  -20.4842  -26.8514   22.8223 C   0  0  0  0  0  0
  -19.3351  -26.5117   21.8552 C   0  0  0  0  0  0
  -17.9355  -26.8382   22.4215 C   0  0  0  0  0  0
  -19.0768  -28.9557   23.4492 C   0  0  0  0  0  0
  -18.8953  -30.2346   24.0361 C   0  0  0  0  0  0
  -17.6586  -30.8807   23.7635 C   0  0  0  0  0  0
  -25.8997  -34.9406   23.5055 C   0  0  0  0  0  0
  -16.5053  -30.1018   23.3046 C   0  0  0  0  0  0
  -16.6701  -28.8408   22.8234 C   0  0  0  0  0  0
  -26.4467  -31.6590   25.0834 C   0  0  0  0  0  0
  -25.3742  -31.3802   26.1563 C   0  0  0  0  0  0
  -27.0366  -30.3029   24.6343 C   0  0  0  0  0  0
  -27.6013  -32.4314   25.7631 C   0  0  0  0  0  0
  -27.5594  -37.1812   24.8448 C   0  0  0  0  0  0
  -21.3022  -29.2337   22.4311 N   0  0  0  0  0  0
  -26.4293  -37.3746   23.9406 N   0  0  0  0  0  0
  -24.6085  -31.0819   22.1507 N   0  0  0  0  0  0
  -23.3546  -28.8131   23.2865 O   0  0  0  0  0  0
  -28.0270  -26.4063   20.2437 O   0  0  0  0  0  0
  -26.5519  -34.8808   22.4610 O   0  0  0  0  0  0
  -23.5025  -32.1518   23.7826 O   0  0  0  0  0  0
  -22.4064  -22.4679   24.5741 C   0  0  0  0  0  0
  -23.3492  -21.6678   23.8314 C   0  0  0  0  0  0
  -21.1580  -19.9604   21.4794 C   0  0  0  0  0  0
  -20.7664  -19.6506   22.7571 C   0  0  0  0  0  0
  -21.1070  -21.9429   24.8024 C   0  0  0  0  0  0
  -23.0665  -20.3276   23.3941 C   0  0  0  0  0  0
  -22.5610  -20.2690   21.1892 C   0  0  0  0  0  0
  -23.6168  -19.7524   22.0925 C   0  0  0  0  0  0
  -21.6797  -20.0409   23.7507 C   0  0  0  0  0  0
  -22.5709  -21.6279   20.4168 C   0  0  0  0  0  0
  -26.6499  -18.8914   21.9172 C   0  0  0  0  0  0
  -25.3278  -17.2095   21.4706 C   0  0  0  0  0  0
  -27.9208  -17.9238   21.1769 C   0  0  0  0  0  0
  -26.7353  -16.2600   21.8983 C   0  0  0  0  0  0
  -25.0538  -18.8564   21.5399 C   0  0  0  0  0  0
  -25.0510  -24.2524   21.0072 C   0  0  0  0  0  0
  -26.5451  -23.9041   20.7267 C   0  0  0  0  0  0
  -24.0819  -23.4067   20.1673 C   0  0  0  0  0  0
  -27.5454  -24.9963   20.1330 C   0  0  0  0  0  0
  -20.8841  -20.6307   24.6685 N   0  0  0  0  0  0
  -28.1892  -16.3251   21.2070 N   0  0  0  0  0  0
  -23.1540  -22.7059   20.9830 N   0  0  0  0  0  0
  -21.7508  -21.8717   19.5638 O   0  0  0  0  0  0
  -31.0694  -13.9121   19.2342 H   0  0  0  0  0  0
  -30.9696  -12.5149   20.2161 H   0  0  0  0  0  0
  -30.1833  -11.8944   17.8970 H   0  0  0  0  0  0
  -29.4067  -13.4450   17.7065 H   0  0  0  0  0  0
  -28.3543  -11.1566   19.3533 H   0  0  0  0  0  0
  -27.5797  -11.8593   17.9597 H   0  0  0  0  0  0
  -27.4917  -14.0532   19.2110 H   0  0  0  0  0  0
  -28.6683  -12.3020   21.5342 H   0  0  0  0  0  0
  -27.7803  -13.7482   21.8057 H   0  0  0  0  0  0
  -25.2477   -9.5196   22.5168 H   0  0  0  0  0  0
  -23.9677   -7.4148   22.7464 H   0  0  0  0  0  0
  -21.0709   -8.8462   19.9016 H   0  0  0  0  0  0
  -22.3488  -10.9385   19.6455 H   0  0  0  0  0  0
  -21.1918   -7.6041   23.9661 H   0  0  0  0  0  0
  -21.1478   -6.0504   25.9098 H   0  0  0  0  0  0
  -22.0651   -2.7498   23.2960 H   0  0  0  0  0  0
  -22.3511  -11.9567   22.4960 H   0  0  0  0  0  0
  -21.1123  -13.1463   22.2945 H   0  0  0  0  0  0
  -24.5855  -15.6703   20.1543 H   0  0  0  0  0  0
  -26.1336  -15.3601   19.5678 H   0  0  0  0  0  0
  -26.6830  -32.5262   23.1097 H   0  0  0  0  0  0
  -25.0474  -33.9840   25.0682 H   0  0  0  0  0  0
  -22.6209  -31.3180   21.4548 H   0  0  0  0  0  0
  -23.3734  -35.9676   23.3254 H   0  0  0  0  0  0
  -24.3629  -36.8942   22.2025 H   0  0  0  0  0  0
  -23.7300  -37.6522   23.6642 H   0  0  0  0  0  0
  -26.0234  -31.6122   20.6870 H   0  0  0  0  0  0
  -26.7627  -30.8060   22.0728 H   0  0  0  0  0  0
  -28.0196  -28.9363   21.2569 H   0  0  0  0  0  0
  -25.8119  -26.2605   18.6156 H   0  0  0  0  0  0
  -23.8918  -27.5205   18.8464 H   0  0  0  0  0  0
  -23.7073  -30.7094   19.4649 H   0  0  0  0  0  0
  -22.6724  -29.3554   19.8205 H   0  0  0  0  0  0
  -25.1279  -36.1927   25.0813 H   0  0  0  0  0  0
  -20.9850  -28.3467   24.3045 H   0  0  0  0  0  0
  -20.2566  -26.3054   23.7562 H   0  0  0  0  0  0
  -21.4033  -26.4899   22.4573 H   0  0  0  0  0  0
  -19.3140  -25.4371   21.5486 H   0  0  0  0  0  0
  -19.3675  -27.1277   20.9708 H   0  0  0  0  0  0
  -17.1948  -26.7329   21.5896 H   0  0  0  0  0  0
  -17.5693  -26.0867   23.1792 H   0  0  0  0  0  0
  -19.6007  -30.7437   24.7285 H   0  0  0  0  0  0
  -17.5542  -31.9224   23.9513 H   0  0  0  0  0  0
  -15.6501  -30.6741   23.0833 H   0  0  0  0  0  0
  -15.8786  -28.3447   22.2887 H   0  0  0  0  0  0
  -24.5858  -30.7180   25.7952 H   0  0  0  0  0  0
  -24.8997  -32.3025   26.4938 H   0  0  0  0  0  0
  -25.8058  -30.9036   27.0358 H   0  0  0  0  0  0
  -26.3050  -29.6752   24.1246 H   0  0  0  0  0  0
  -27.3898  -29.7318   25.4932 H   0  0  0  0  0  0
  -27.8928  -30.4286   23.9708 H   0  0  0  0  0  0
  -27.2646  -33.3582   26.2294 H   0  0  0  0  0  0
  -28.3938  -32.6899   25.0592 H   0  0  0  0  0  0
  -28.0589  -31.8397   26.5567 H   0  0  0  0  0  0
  -28.2512  -38.0191   24.7522 H   0  0  0  0  0  0
  -28.1181  -36.2711   24.6219 H   0  0  0  0  0  0
  -27.2326  -37.1369   25.8851 H   0  0  0  0  0  0
  -20.7144  -29.8037   21.8276 H   0  0  0  0  0  0
  -26.0141  -38.2818   24.1447 H   0  0  0  0  0  0
  -22.4314  -23.5695   24.6437 H   0  0  0  0  0  0
  -24.2478  -22.0696   23.5143 H   0  0  0  0  0  0
  -20.3575  -20.2447   20.7922 H   0  0  0  0  0  0
  -19.6662  -19.6386   22.9384 H   0  0  0  0  0  0
  -20.2547  -22.6550   25.0689 H   0  0  0  0  0  0
  -26.9430  -19.9574   21.8404 H   0  0  0  0  0  0
  -26.5711  -18.7226   22.9963 H   0  0  0  0  0  0
  -24.3928  -16.8049   21.8255 H   0  0  0  0  0  0
  -25.2490  -17.0532   20.3721 H   0  0  0  0  0  0
  -28.9024  -18.3494   21.5539 H   0  0  0  0  0  0
  -27.8596  -18.1511   20.1050 H   0  0  0  0  0  0
  -26.5351  -15.1846   22.1455 H   0  0  0  0  0  0
  -26.8830  -16.6095   22.9241 H   0  0  0  0  0  0
  -25.1305  -19.2213   20.4465 H   0  0  0  0  0  0
  -24.7639  -25.2454   20.7169 H   0  0  0  0  0  0
  -24.8125  -24.2314   22.0331 H   0  0  0  0  0  0
  -26.5062  -23.1828   19.9207 H   0  0  0  0  0  0
  -26.9487  -23.3329   21.5441 H   0  0  0  0  0  0
  -24.5752  -22.7159   19.4611 H   0  0  0  0  0  0
  -23.5174  -24.1052   19.5228 H   0  0  0  0  0  0
  -27.0005  -25.4099   20.9720 H   0  0  0  0  0  0
  -27.1598  -24.9246   19.1211 H   0  0  0  0  0  0
  -22.4701  -23.3744   21.2344 H   0  0  0  0  0  0
  1 25  1  0  0  0
  1 30  2  0  0  0
  1 91  1  0  0  0
  2  3  1  0  0  0
  2 25  1  0  0  0
  2 94  1  0  0  0
  2 95  1  0  0  0
  3  4  1  0  0  0
  3 96  1  0  0  0
  3 97  1  0  0  0
  4  5  1  0  0  0
  4 98  1  0  0  0
  4 99  1  0  0  0
  5  6  1  0  0  0
  5 26  1  0  0  0
  5100  1  0  0  0
  6 25  1  0  0  0
  6101  1  0  0  0
  6102  1  0  0  0
  7  8  2  0  0  0
  7 26  1  0  0  0
  7 29  1  0  0  0
  8  9  1  0  0  0
  8 22  1  0  0  0
  9 10  1  0  0  0
  9 27  2  0  0  0
 10 11  2  0  0  0
 10 15  1  0  0  0
 11 12  1  0  0  0
 11103  1  0  0  0
 12 13  2  0  0  0
 12104  1  0  0  0
 13 14  1  0  0  0
 13 31  1  0  0  0
 14 15  2  0  0  0
 14105  1  0  0  0
 15106  1  0  0  0
 16 17  2  0  0  0
 16 21  1  0  0  0
 16 31  1  0  0  0
 17 18  1  0  0  0
 17107  1  0  0  0
 18 19  2  0  0  0
 18108  1  0  0  0
 19 20  1  0  0  0
 19 24  1  0  0  0
 20 21  2  0  0  0
 20109  1  0  0  0
 21 23  1  0  0  0
 22 28  1  0  0  0
 22 32  2  0  0  0
 26 27  1  0  0  0
 28110  1  0  0  0
 28111  1  0  0  0
 29112  1  0  0  0
 29113  1  0  0  0
 33 34  1  0  0  0
 33 66  1  0  0  0
 33 70  2  0  0  0
 34 36  1  0  0  0
 34 59  1  0  0  0
 34114  1  0  0  0
 35 44  2  0  0  0
 35 45  1  0  0  0
 35 68  1  0  0  0
 36 56  1  0  0  0
 36115  1  0  0  0
 37 39  1  0  0  0
 37 47  1  0  0  0
 37 66  1  0  0  0
 37116  1  0  0  0
 38 43  2  0  0  0
 38 46  1  0  0  0
 38 47  1  0  0  0
 39 64  1  0  0  0
 39 67  2  0  0  0
 40 52  1  0  0  0
 40 53  2  0  0  0
 40 58  1  0  0  0
 41117  1  0  0  0
 41118  1  0  0  0
 41119  1  0  0  0
 41 48  1  0  0  0
 42 43  1  0  0  0
 42 66  1  0  0  0
 42120  1  0  0  0
 42121  1  0  0  0
 43 44  1  0  0  0
 44122  1  0  0  0
 45 46  2  0  0  0
 45123  1  0  0  0
 46124  1  0  0  0
 47125  1  0  0  0
 47126  1  0  0  0
 48 56  1  0  0  0
 48 65  1  0  0  0
 48127  1  0  0  0
 49 50  1  0  0  0
 49 53  1  0  0  0
 49 64  1  0  0  0
 49128  1  0  0  0
 50 51  1  0  0  0
 50129  1  0  0  0
 50130  1  0  0  0
 51 52  1  0  0  0
 51131  1  0  0  0
 51132  1  0  0  0
 52133  1  0  0  0
 52134  1  0  0  0
 53 54  1  0  0  0
 54 55  2  0  0  0
 54135  1  0  0  0
 55 57  1  0  0  0
 55136  1  0  0  0
 56 69  2  0  0  0
 57 58  2  0  0  0
 57137  1  0  0  0
 58138  1  0  0  0
 59 60  1  0  0  0
 59 61  1  0  0  0
 59 62  1  0  0  0
 60139  1  0  0  0
 60140  1  0  0  0
 60141  1  0  0  0
 61142  1  0  0  0
 61143  1  0  0  0
 61144  1  0  0  0
 62145  1  0  0  0
 62146  1  0  0  0
 62147  1  0  0  0
 63 65  1  0  0  0
 63148  1  0  0  0
 63149  1  0  0  0
 63150  1  0  0  0
 64151  1  0  0  0
 65152  1  0  0  0
 68 89  1  0  0  0
 71 72  2  0  0  0
 71 75  1  0  0  0
 71153  1  0  0  0
 72 76  1  0  0  0
 72154  1  0  0  0
 73 74  1  0  0  0
 73 77  2  0  0  0
 73155  1  0  0  0
 74 79  2  0  0  0
 74156  1  0  0  0
 75 90  2  0  0  0
 75157  1  0  0  0
 76 78  2  0  0  0
 76 79  1  0  0  0
 77 78  1  0  0  0
 77 80  1  0  0  0
 78 85  1  0  0  0
 79 90  1  0  0  0
 80 92  1  0  0  0
 80 93  2  0  0  0
 81 83  1  0  0  0
 81 85  1  0  0  0
 81158  1  0  0  0
 81159  1  0  0  0
 82 84  1  0  0  0
 82 85  1  0  0  0
 82160  1  0  0  0
 82161  1  0  0  0
 83 91  1  0  0  0
 83162  1  0  0  0
 83163  1  0  0  0
 84 91  1  0  0  0
 84164  1  0  0  0
 84165  1  0  0  0
 85166  1  0  0  0
 86 87  1  0  0  0
 86 88  1  0  0  0
 86167  1  0  0  0
 86168  1  0  0  0
 87 89  1  0  0  0
 87169  1  0  0  0
 87170  1  0  0  0
 88 92  1  0  0  0
 88171  1  0  0  0
 88172  1  0  0  0
 89173  1  0  0  0
 89174  1  0  0  0
 92175  1  0  0  0
M  ISO  4   1 100  68 101  89 101  91 100
M  END
> <chiral flag>
0

> <version>
0

> <s_m_source_file>
/data/baiqing/PycharmProjects/Reinvent-master-3.2/result/LINK_invent/BTK/process_docking_weight1_custom_product_contain_oxygen_bond_distance_aromatic_linkinvent_7_9_3/rearranged_h_0004.sdf

> <i_m_source_file_index>
66

> <r_mmod_Potential_Energy-OPLS-2005>
3379.38061523438

> <r_mmod_Stretch_Energy-OPLS-2005>
679.068725585938

> <r_mmod_Bend_Energy-OPLS-2005>
1070.7353515625

> <r_mmod_Torsional_Energy-OPLS-2005>
864.391845703125

> <r_mmod_Improper_Torsional_Energy-OPLS-2005>
63.4149017333984

> <r_mmod_Van_der_Waal_Energy-OPLS-2005>
324.930450439453

> <r_mmod_Electrostatic_Energy-OPLS-2005>
-434.087921142578

> <r_mmod_Solvation_Energy-OPLS-2005>
-239.034866333008

> <b_mmod_Minimization_Converged-OPLS-2005>
0

> <r_mmod_RMS_Derivative-OPLS-2005>
91.3103713989258

$$$$
66
                    3D
 Structure written by MMmdl.
158167  0  0  1  0            999 V2000
  -30.4904  -15.0342   20.4718 C   0  0  0  0  0  0
  -30.4545  -12.6705   19.4913 C   0  0  0  0  0  0
  -29.5193  -12.5480   18.2605 C   0  0  0  0  0  0
  -28.0462  -12.3417   18.6696 C   0  0  0  0  0  0
  -27.6290  -13.2482   19.8521 C   0  0  2  0  0  0
  -28.6807  -13.1880   20.9720 C   0  0  0  0  0  0
  -25.2345  -13.8065   20.5564 C   0  0  0  0  0  0
  -24.1716  -13.0322   20.9183 C   0  0  0  0  0  0
  -24.6399  -11.6841   20.8782 C   0  0  0  0  0  0
  -23.9100  -10.4232   21.0427 C   0  0  0  0  0  0
  -24.3642   -9.4140   21.9198 C   0  0  0  0  0  0
  -23.6284   -8.2203   22.0755 C   0  0  0  0  0  0
  -22.4269   -8.0272   21.3534 C   0  0  0  0  0  0
  -21.9928   -9.0262   20.4648 C   0  0  0  0  0  0
  -22.7278  -10.2114   20.3063 C   0  0  0  0  0  0
  -21.6842   -6.0748   22.5272 C   0  0  0  0  0  0
  -21.3999   -6.5637   23.8212 C   0  0  0  0  0  0
  -21.3640   -5.6777   24.9168 C   0  0  0  0  0  0
  -21.6038   -4.3046   24.7209 C   0  0  0  0  0  0
  -21.8820   -3.8143   23.4328 C   0  0  0  0  0  0
  -21.9188   -4.6974   22.3386 C   0  0  0  0  0  0
  -22.7741  -13.5102   21.1877 C   0  0  0  0  0  0
  -22.1659   -4.2168   21.0966 F   0  0  0  0  0  0
  -21.5635   -3.4519   25.7721 F   0  0  0  0  0  0
  -29.9273  -13.7396   20.4055 N   0  0  0  0  0  0
  -26.2870  -12.9394   20.3298 N   0  0  0  0  0  0
  -25.9353  -11.6528   20.5835 N   0  0  0  0  0  0
  -22.0448  -12.8117   22.0489 N   0  0  0  0  0  0
  -25.3822  -15.1720   20.3740 N   0  0  0  0  0  0
  -31.6579  -15.1053   20.0639 O   0  0  0  0  0  0
  -21.6604   -6.8891   21.4244 O   0  0  0  0  0  0
  -22.3405  -14.5413   20.6740 O   0  0  0  0  0  0
  -24.6431  -31.8444   23.1894 C   0  0  0  0  0  0
  -25.9158  -32.4729   23.8328 C   0  0  1  0  0  0
  -27.2345  -27.1379   20.1391 C   0  0  0  0  0  0
  -25.5930  -33.8550   24.2266 N   0  0  0  0  0  0
  -23.4515  -30.4598   21.5340 C   0  0  2  0  0  0
  -24.9025  -28.8748   20.1213 C   0  0  0  0  0  0
  -22.7588  -29.4495   22.4837 C   0  0  0  0  0  0
  -18.0356  -28.1310   22.8458 C   0  0  0  0  0  0
  -24.1500  -36.7244   23.2659 C   0  0  0  0  0  0
  -26.0093  -30.7105   21.3897 C   0  0  0  0  0  0
  -26.0804  -29.3203   20.7327 C   0  0  0  0  0  0
  -27.2486  -28.4685   20.7187 C   0  0  0  0  0  0
  -26.0272  -26.7823   19.5035 C   0  0  0  0  0  0
  -24.8847  -27.6158   19.4964 C   0  0  0  0  0  0
  -23.6829  -29.7846   20.1562 C   0  0  0  0  0  0
  -25.4128  -36.3072   24.0372 C   0  0  1  0  0  0
  -20.5993  -28.3635   23.1242 C   0  0  2  0  0  0
  -20.6856  -26.9351   22.5384 C   0  0  0  0  0  0
  -19.5828  -26.6306   21.5204 C   0  0  0  0  0  0
  -18.2000  -26.7861   22.1594 C   0  0  0  0  0  0
  -19.1619  -28.8786   23.2843 C   0  0  0  0  0  0
  -18.9522  -30.1393   23.8860 C   0  0  0  0  0  0
  -17.6525  -30.6519   24.0514 C   0  0  0  0  0  0
  -25.9055  -34.9446   23.5129 C   0  0  0  0  0  0
  -16.5412  -29.8991   23.6333 C   0  0  0  0  0  0
  -16.7346  -28.6408   23.0350 C   0  0  0  0  0  0
  -26.4518  -31.6598   25.0754 C   0  0  0  0  0  0
  -25.3720  -31.3763   26.1461 C   0  0  0  0  0  0
  -27.0435  -30.3060   24.6250 C   0  0  0  0  0  0
  -27.6073  -32.4351   25.7512 C   0  0  0  0  0  0
  -27.5601  -37.1771   24.8485 C   0  0  0  0  0  0
  -21.4296  -29.2973   22.3584 N   0  0  0  0  0  0
  -26.4315  -37.3768   23.9441 N   0  0  0  0  0  0
  -24.7220  -31.0272   22.0925 N   0  0  0  0  0  0
  -23.4227  -28.8049   23.3003 O   0  0  0  0  0  0
  -28.3249  -26.1969   20.0982 O   0  0  0  0  0  0
  -26.5621  -34.8934   22.4690 O   0  0  0  0  0  0
  -23.5542  -32.1314   23.7079 O   0  0  0  0  0  0
  -25.5313  -18.2455   21.1850 C   0  0  0  0  0  0
  -25.8375  -18.6781   19.8751 C   0  0  0  0  0  0
  -26.4740  -17.5010   21.9301 C   0  0  0  0  0  0
  -27.1163  -18.4356   19.3254 C   0  0  0  0  0  0
  -27.7280  -17.2443   21.3440 C   0  0  0  0  0  0
  -28.0917  -17.7755   20.1115 C   0  0  0  0  0  0
  -29.9276  -19.1821   20.4542 C   0  0  0  0  0  0
  -28.8604  -16.4196   21.8979 C   0  0  0  0  0  0
  -29.5594  -17.6306   19.9162 C   0  0  1  0  0  0
  -28.7809  -23.2908   19.8034 C   0  0  0  0  0  0
  -29.2427  -21.8747   20.6117 C   0  0  0  0  0  0
  -28.2143  -24.7072   20.5411 C   0  0  0  0  0  0
  -29.7400  -16.2504   20.7194 N   0  0  0  0  0  0
  -29.2980  -20.3975   20.0291 N   0  0  0  0  0  0
  -30.8003  -19.2671   21.3213 O   0  0  0  0  0  0
  -31.4610  -12.8894   19.1374 H   0  0  0  0  0  0
  -30.5474  -11.7184   20.0137 H   0  0  0  0  0  0
  -29.8414  -11.7275   17.6171 H   0  0  0  0  0  0
  -29.5997  -13.4548   17.6624 H   0  0  0  0  0  0
  -27.9236  -11.2959   18.9540 H   0  0  0  0  0  0
  -27.3888  -12.5025   17.8165 H   0  0  0  0  0  0
  -27.6090  -14.2713   19.4718 H   0  0  0  0  0  0
  -28.8201  -12.1522   21.2840 H   0  0  0  0  0  0
  -28.3366  -13.6625   21.8782 H   0  0  0  0  0  0
  -25.2793   -9.5604   22.4774 H   0  0  0  0  0  0
  -23.9951   -7.4604   22.7494 H   0  0  0  0  0  0
  -21.0839   -8.8827   19.8979 H   0  0  0  0  0  0
  -22.3752  -10.9683   19.6178 H   0  0  0  0  0  0
  -21.1980   -7.6143   23.9731 H   0  0  0  0  0  0
  -21.1459   -6.0497   25.9075 H   0  0  0  0  0  0
  -22.0618   -2.7614   23.2812 H   0  0  0  0  0  0
  -22.4033  -11.9689   22.4736 H   0  0  0  0  0  0
  -21.1134  -13.1241   22.2881 H   0  0  0  0  0  0
  -24.6377  -15.8248   20.5866 H   0  0  0  0  0  0
  -26.2597  -15.6502   20.2070 H   0  0  0  0  0  0
  -26.7204  -32.5300   23.1032 H   0  0  0  0  0  0
  -25.0160  -33.9716   25.0478 H   0  0  0  0  0  0
  -22.7567  -31.2878   21.3766 H   0  0  0  0  0  0
  -23.3825  -35.9506   23.3293 H   0  0  0  0  0  0
  -24.3622  -36.8869   22.2080 H   0  0  0  0  0  0
  -23.7179  -37.6416   23.6671 H   0  0  0  0  0  0
  -26.1831  -31.4618   20.6171 H   0  0  0  0  0  0
  -26.8733  -30.7520   22.0410 H   0  0  0  0  0  0
  -28.1579  -28.8088   21.1927 H   0  0  0  0  0  0
  -25.9645  -25.8268   19.0031 H   0  0  0  0  0  0
  -23.9816  -27.2702   19.0107 H   0  0  0  0  0  0
  -23.8412  -30.5655   19.4117 H   0  0  0  0  0  0
  -22.7953  -29.2405   19.8300 H   0  0  0  0  0  0
  -25.1296  -36.1956   25.0869 H   0  0  0  0  0  0
  -21.0106  -28.3189   24.1357 H   0  0  0  0  0  0
  -20.5822  -26.2209   23.3561 H   0  0  0  0  0  0
  -21.6702  -26.7343   22.1147 H   0  0  0  0  0  0
  -19.7023  -25.6222   21.1231 H   0  0  0  0  0  0
  -19.6826  -27.3086   20.6724 H   0  0  0  0  0  0
  -17.4302  -26.6659   21.3956 H   0  0  0  0  0  0
  -18.0364  -25.9968   22.8966 H   0  0  0  0  0  0
  -19.7999  -30.7199   24.2210 H   0  0  0  0  0  0
  -17.5075  -31.6223   24.5051 H   0  0  0  0  0  0
  -15.5399  -30.2865   23.7649 H   0  0  0  0  0  0
  -15.8759  -28.0676   22.7097 H   0  0  0  0  0  0
  -24.5893  -30.7115   25.7810 H   0  0  0  0  0  0
  -24.8905  -32.2933   26.4870 H   0  0  0  0  0  0
  -25.8009  -30.8979   27.0275 H   0  0  0  0  0  0
  -26.3063  -29.6770   24.1233 H   0  0  0  0  0  0
  -27.4182  -29.7363   25.4751 H   0  0  0  0  0  0
  -27.8908  -30.4468   23.9524 H   0  0  0  0  0  0
  -27.2709  -33.3710   26.2001 H   0  0  0  0  0  0
  -28.3887  -32.6779   25.0300 H   0  0  0  0  0  0
  -28.0700  -31.8508   26.5486 H   0  0  0  0  0  0
  -28.2565  -38.0117   24.7564 H   0  0  0  0  0  0
  -28.1157  -36.2644   24.6258 H   0  0  0  0  0  0
  -27.2340  -37.1335   25.8893 H   0  0  0  0  0  0
  -20.9490  -29.8673   21.6766 H   0  0  0  0  0  0
  -26.0222  -38.2866   24.1438 H   0  0  0  0  0  0
  -24.5564  -18.4538   21.6033 H   0  0  0  0  0  0
  -25.0968  -19.2210   19.2995 H   0  0  0  0  0  0
  -26.2236  -17.1139   22.9070 H   0  0  0  0  0  0
  -27.3630  -18.8183   18.3432 H   0  0  0  0  0  0
  -28.4684  -15.5436   22.3888 H   0  0  0  0  0  0
  -29.3858  -16.9908   22.6657 H   0  0  0  0  0  0
  -29.8273  -17.5171   18.8640 H   0  0  0  0  0  0
  -28.0178  -23.0088   19.0786 H   0  0  0  0  0  0
  -29.6293  -23.5845   19.1860 H   0  0  0  0  0  0
  -28.5734  -21.8033   21.4699 H   0  0  0  0  0  0
  -30.2231  -22.0749   21.0470 H   0  0  0  0  0  0
  -28.7128  -24.7223   21.5096 H   0  0  0  0  0  0
  -27.1704  -24.5260   20.7972 H   0  0  0  0  0  0
  -28.5972  -20.2246   19.3185 H   0  0  0  0  0  0
  1 25  1  0  0  0
  1 30  2  0  0  0
  1 83  1  0  0  0
  2  3  1  0  0  0
  2 25  1  0  0  0
  2 86  1  0  0  0
  2 87  1  0  0  0
  3  4  1  0  0  0
  3 88  1  0  0  0
  3 89  1  0  0  0
  4  5  1  0  0  0
  4 90  1  0  0  0
  4 91  1  0  0  0
  5  6  1  0  0  0
  5 26  1  0  0  0
  5 92  1  0  0  0
  6 25  1  0  0  0
  6 93  1  0  0  0
  6 94  1  0  0  0
  7  8  2  0  0  0
  7 26  1  0  0  0
  7 29  1  0  0  0
  8  9  1  0  0  0
  8 22  1  0  0  0
  9 10  1  0  0  0
  9 27  2  0  0  0
 10 11  2  0  0  0
 10 15  1  0  0  0
 11 12  1  0  0  0
 11 95  1  0  0  0
 12 13  2  0  0  0
 12 96  1  0  0  0
 13 14  1  0  0  0
 13 31  1  0  0  0
 14 15  2  0  0  0
 14 97  1  0  0  0
 15 98  1  0  0  0
 16 17  2  0  0  0
 16 21  1  0  0  0
 16 31  1  0  0  0
 17 18  1  0  0  0
 17 99  1  0  0  0
 18 19  2  0  0  0
 18100  1  0  0  0
 19 20  1  0  0  0
 19 24  1  0  0  0
 20 21  2  0  0  0
 20101  1  0  0  0
 21 23  1  0  0  0
 22 28  1  0  0  0
 22 32  2  0  0  0
 26 27  1  0  0  0
 28102  1  0  0  0
 28103  1  0  0  0
 29104  1  0  0  0
 29105  1  0  0  0
 33 34  1  0  0  0
 33 66  1  0  0  0
 33 70  2  0  0  0
 34 36  1  0  0  0
 34 59  1  0  0  0
 34106  1  0  0  0
 35 44  2  0  0  0
 35 45  1  0  0  0
 35 68  1  0  0  0
 36 56  1  0  0  0
 36107  1  0  0  0
 37 39  1  0  0  0
 37 47  1  0  0  0
 37 66  1  0  0  0
 37108  1  0  0  0
 38 43  2  0  0  0
 38 46  1  0  0  0
 38 47  1  0  0  0
 39 64  1  0  0  0
 39 67  2  0  0  0
 40 52  1  0  0  0
 40 53  2  0  0  0
 40 58  1  0  0  0
 41109  1  0  0  0
 41110  1  0  0  0
 41111  1  0  0  0
 41 48  1  0  0  0
 42 43  1  0  0  0
 42 66  1  0  0  0
 42112  1  0  0  0
 42113  1  0  0  0
 43 44  1  0  0  0
 44114  1  0  0  0
 45 46  2  0  0  0
 45115  1  0  0  0
 46116  1  0  0  0
 47117  1  0  0  0
 47118  1  0  0  0
 48 56  1  0  0  0
 48 65  1  0  0  0
 48119  1  0  0  0
 49 50  1  0  0  0
 49 53  1  0  0  0
 49 64  1  0  0  0
 49120  1  0  0  0
 50 51  1  0  0  0
 50121  1  0  0  0
 50122  1  0  0  0
 51 52  1  0  0  0
 51123  1  0  0  0
 51124  1  0  0  0
 52125  1  0  0  0
 52126  1  0  0  0
 53 54  1  0  0  0
 54 55  2  0  0  0
 54127  1  0  0  0
 55 57  1  0  0  0
 55128  1  0  0  0
 56 69  2  0  0  0
 57 58  2  0  0  0
 57129  1  0  0  0
 58130  1  0  0  0
 59 60  1  0  0  0
 59 61  1  0  0  0
 59 62  1  0  0  0
 60131  1  0  0  0
 60132  1  0  0  0
 60133  1  0  0  0
 61134  1  0  0  0
 61135  1  0  0  0
 61136  1  0  0  0
 62137  1  0  0  0
 62138  1  0  0  0
 62139  1  0  0  0
 63 65  1  0  0  0
 63140  1  0  0  0
 63141  1  0  0  0
 63142  1  0  0  0
 64143  1  0  0  0
 65144  1  0  0  0
 68 82  1  0  0  0
 71 72  2  0  0  0
 71 73  1  0  0  0
 71145  1  0  0  0
 72 74  1  0  0  0
 72146  1  0  0  0
 73 75  2  0  0  0
 73147  1  0  0  0
 74 76  2  0  0  0
 74148  1  0  0  0
 75 76  1  0  0  0
 75 78  1  0  0  0
 76 79  1  0  0  0
 77 84  1  0  0  0
 77 85  2  0  0  0
 77 79  1  0  0  0
 78 83  1  0  0  0
 78149  1  0  0  0
 78150  1  0  0  0
 79 83  1  0  0  0
 79151  1  0  0  0
 80 81  1  0  0  0
 80 82  1  0  0  0
 80152  1  0  0  0
 80153  1  0  0  0
 81 84  1  0  0  0
 81154  1  0  0  0
 81155  1  0  0  0
 82156  1  0  0  0
 82157  1  0  0  0
 84158  1  0  0  0
M  ISO  4   1 100  68 101  82 101  83 100
M  END
> <chiral flag>
0

> <version>
0

> <s_m_source_file>
/data/baiqing/PycharmProjects/Reinvent-master-3.2/result/LINK_invent/BTK/process_docking_weight1_custom_product_contain_oxygen_bond_distance_aromatic_linkinvent_7_9_3/rearranged_h_0004.sdf

> <i_m_source_file_index>
67

> <r_mmod_Potential_Energy-OPLS-2005>
701.679809570312

> <r_mmod_Stretch_Energy-OPLS-2005>
307.611175537109

> <r_mmod_Bend_Energy-OPLS-2005>
372.390258789062

> <r_mmod_Torsional_Energy-OPLS-2005>
281.316192626953

> <r_mmod_Improper_Torsional_Energy-OPLS-2005>
7.51035690307617

> <r_mmod_Van_der_Waal_Energy-OPLS-2005>
136.445175170898

> <r_mmod_Electrostatic_Energy-OPLS-2005>
-389.690246582031

> <r_mmod_Solvation_Energy-OPLS-2005>
-224.1298828125

> <b_mmod_Minimization_Converged-OPLS-2005>
0

> <r_mmod_RMS_Derivative-OPLS-2005>
4.02620077133179

$$$$
67
                    3D
 Structure written by MMmdl.
169179  0  0  1  0            999 V2000
  -30.7171  -14.3792   20.7315 C   0  0  0  0  0  0
  -30.4371  -12.3157   19.3783 C   0  0  0  0  0  0
  -29.4876  -12.5320   18.1841 C   0  0  0  0  0  0
  -28.0136  -12.3700   18.6036 C   0  0  0  0  0  0
  -27.6669  -13.1870   19.8748 C   0  0  2  0  0  0
  -28.6990  -12.8856   20.9793 C   0  0  0  0  0  0
  -25.2613  -13.8102   20.5630 C   0  0  0  0  0  0
  -24.1834  -13.0405   20.9123 C   0  0  0  0  0  0
  -24.6362  -11.6865   20.8686 C   0  0  0  0  0  0
  -23.9019  -10.4267   21.0382 C   0  0  0  0  0  0
  -24.3572   -9.4189   21.9170 C   0  0  0  0  0  0
  -23.6253   -8.2224   22.0744 C   0  0  0  0  0  0
  -22.4247   -8.0255   21.3525 C   0  0  0  0  0  0
  -21.9863   -9.0225   20.4638 C   0  0  0  0  0  0
  -22.7182  -10.2112   20.3040 C   0  0  0  0  0  0
  -21.6842   -6.0707   22.5257 C   0  0  0  0  0  0
  -21.4016   -6.5619   23.8188 C   0  0  0  0  0  0
  -21.3667   -5.6780   24.9157 C   0  0  0  0  0  0
  -21.6046   -4.3040   24.7216 C   0  0  0  0  0  0
  -21.8822   -3.8123   23.4341 C   0  0  0  0  0  0
  -21.9193   -4.6935   22.3392 C   0  0  0  0  0  0
  -22.7874  -13.5220   21.1839 C   0  0  0  0  0  0
  -22.1653   -4.2105   21.0974 F   0  0  0  0  0  0
  -21.5634   -3.4540   25.7741 F   0  0  0  0  0  0
  -30.0414  -13.2308   20.4597 N   0  0  0  0  0  0
  -26.3029  -12.9234   20.3308 N   0  0  0  0  0  0
  -25.9270  -11.6410   20.5657 N   0  0  0  0  0  0
  -22.0513  -12.8226   22.0420 N   0  0  0  0  0  0
  -25.4394  -15.1814   20.4074 N   0  0  0  0  0  0
  -31.7526  -14.7225   20.1436 O   0  0  0  0  0  0
  -21.6624   -6.8847   21.4220 O   0  0  0  0  0  0
  -22.3543  -14.5514   20.6691 O   0  0  0  0  0  0
  -24.6174  -31.8673   23.2042 C   0  0  0  0  0  0
  -25.9081  -32.4790   23.8330 C   0  0  1  0  0  0
  -27.2388  -27.4315   20.1007 C   0  0  0  0  0  0
  -25.5929  -33.8569   24.2281 N   0  0  0  0  0  0
  -23.4052  -30.4919   21.5427 C   0  0  2  0  0  0
  -24.8499  -28.9569   20.1091 C   0  0  0  0  0  0
  -22.7415  -29.4689   22.4914 C   0  0  0  0  0  0
  -18.0283  -28.1379   22.8448 C   0  0  0  0  0  0
  -24.1497  -36.7313   23.2640 C   0  0  0  0  0  0
  -25.9343  -30.8317   21.3597 C   0  0  0  0  0  0
  -26.0100  -29.4684   20.7053 C   0  0  0  0  0  0
  -27.2038  -28.7117   20.6986 C   0  0  0  0  0  0
  -26.0616  -26.9435   19.4840 C   0  0  0  0  0  0
  -24.8712  -27.6928   19.4957 C   0  0  0  0  0  0
  -23.6092  -29.8200   20.1583 C   0  0  0  0  0  0
  -25.4118  -36.3090   24.0339 C   0  0  1  0  0  0
  -20.5870  -28.3693   23.1249 C   0  0  2  0  0  0
  -20.6772  -26.9410   22.5376 C   0  0  0  0  0  0
  -19.5758  -26.6368   21.5171 C   0  0  0  0  0  0
  -18.1930  -26.7911   22.1585 C   0  0  0  0  0  0
  -19.1531  -28.8846   23.2843 C   0  0  0  0  0  0
  -18.9471  -30.1445   23.8872 C   0  0  0  0  0  0
  -17.6474  -30.6573   24.0557 C   0  0  0  0  0  0
  -25.9050  -34.9452   23.5112 C   0  0  0  0  0  0
  -16.5358  -29.9076   23.6308 C   0  0  0  0  0  0
  -16.7269  -28.6497   23.0310 C   0  0  0  0  0  0
  -26.4463  -31.6588   25.0687 C   0  0  0  0  0  0
  -25.3666  -31.3730   26.1408 C   0  0  0  0  0  0
  -27.0341  -30.3029   24.6130 C   0  0  0  0  0  0
  -27.6045  -32.4298   25.7429 C   0  0  0  0  0  0
  -27.5596  -37.1799   24.8464 C   0  0  0  0  0  0
  -21.4156  -29.3060   22.3643 N   0  0  0  0  0  0
  -26.4310  -37.3771   23.9404 N   0  0  0  0  0  0
  -24.6701  -31.0792   22.0919 N   0  0  0  0  0  0
  -23.4181  -28.8242   23.2971 O   0  0  0  0  0  0
  -28.4122  -26.7003   20.1382 O   0  0  0  0  0  0
  -26.5595  -34.8938   22.4672 O   0  0  0  0  0  0
  -23.5374  -32.1407   23.7440 O   0  0  0  0  0  0
  -30.9435  -17.0091   24.7808 C   0  0  0  0  0  0
  -30.5077  -15.9982   23.9079 C   0  0  0  0  0  0
  -31.9063  -19.2147   25.1257 C   0  0  0  0  0  0
  -32.0551  -19.6214   22.3560 C   0  0  0  0  0  0
  -31.2166  -17.3291   21.9852 C   0  0  0  0  0  0
  -31.4858  -18.1979   24.2555 C   0  0  0  0  0  0
  -31.5972  -18.3796   22.8559 C   0  0  0  0  0  0
  -32.3881  -20.4396   24.6272 C   0  0  0  0  0  0
  -32.4160  -20.6844   23.2270 C   0  0  0  0  0  0
  -30.6656  -16.1369   22.5132 C   0  0  0  0  0  0
  -31.9469  -22.6655   21.6021 C   0  0  0  0  0  0
  -32.8822  -21.4623   25.6333 C   0  0  0  0  0  0
  -33.8828  -22.4382   25.0156 C   0  0  0  0  0  0
  -33.2728  -23.0725   23.7623 C   0  0  0  0  0  0
  -32.8894  -22.0430   22.6577 C   0  0  1  0  0  0
  -29.3216  -24.6021   21.0973 C   0  0  0  0  0  0
  -30.7291  -24.3769   20.5083 C   0  0  0  0  0  0
  -28.2970  -25.2663   20.1487 C   0  0  0  0  0  0
  -31.6465  -23.9086   21.5444 N   0  0  0  0  0  0
  -30.1402  -15.0992   21.7058 N   0  0  0  0  0  0
  -31.4714  -12.4692   19.0657 H   0  0  0  0  0  0
  -30.3823  -11.2790   19.7165 H   0  0  0  0  0  0
  -29.7255  -11.8243   17.3906 H   0  0  0  0  0  0
  -29.6426  -13.5290   17.7700 H   0  0  0  0  0  0
  -27.8446  -11.3109   18.7974 H   0  0  0  0  0  0
  -27.3534  -12.6399   17.7789 H   0  0  0  0  0  0
  -27.7373  -14.2450   19.6221 H   0  0  0  0  0  0
  -28.6729  -11.8220   21.2270 H   0  0  0  0  0  0
  -28.4205  -13.3850   21.9079 H   0  0  0  0  0  0
  -25.2709   -9.5658   22.4756 H   0  0  0  0  0  0
  -23.9950   -7.4609   22.7466 H   0  0  0  0  0  0
  -21.0783   -8.8718   19.8956 H   0  0  0  0  0  0
  -22.3600  -10.9644   19.6147 H   0  0  0  0  0  0
  -21.2006   -7.6124   23.9668 H   0  0  0  0  0  0
  -21.1495   -6.0521   25.9054 H   0  0  0  0  0  0
  -22.0605   -2.7582   23.2853 H   0  0  0  0  0  0
  -22.4111  -11.9886   22.4819 H   0  0  0  0  0  0
  -21.1123  -13.1249   22.2615 H   0  0  0  0  0  0
  -24.6844  -15.8480   20.5294 H   0  0  0  0  0  0
  -26.3069  -15.6164   20.1148 H   0  0  0  0  0  0
  -26.7162  -32.5478   23.1096 H   0  0  0  0  0  0
  -25.0045  -33.9635   25.0410 H   0  0  0  0  0  0
  -22.6951  -31.3080   21.3974 H   0  0  0  0  0  0
  -23.3739  -35.9665   23.3313 H   0  0  0  0  0  0
  -24.3600  -36.8913   22.2049 H   0  0  0  0  0  0
  -23.7267  -37.6538   23.6652 H   0  0  0  0  0  0
  -26.0587  -31.5963   20.5908 H   0  0  0  0  0  0
  -26.8176  -30.8736   21.9852 H   0  0  0  0  0  0
  -28.0953  -29.0993   21.1709 H   0  0  0  0  0  0
  -26.0467  -25.9832   18.9906 H   0  0  0  0  0  0
  -23.9819  -27.2923   19.0261 H   0  0  0  0  0  0
  -23.7049  -30.5934   19.3946 H   0  0  0  0  0  0
  -22.7334  -29.2363   19.8683 H   0  0  0  0  0  0
  -25.1285  -36.1943   25.0826 H   0  0  0  0  0  0
  -20.9963  -28.3293   24.1371 H   0  0  0  0  0  0
  -20.5663  -26.2305   23.3572 H   0  0  0  0  0  0
  -21.6635  -26.7408   22.1185 H   0  0  0  0  0  0
  -19.6940  -25.6280   21.1201 H   0  0  0  0  0  0
  -19.6741  -27.3160   20.6687 H   0  0  0  0  0  0
  -17.4188  -26.6626   21.3996 H   0  0  0  0  0  0
  -18.0401  -26.0041   22.8989 H   0  0  0  0  0  0
  -19.7962  -30.7244   24.2236 H   0  0  0  0  0  0
  -17.5043  -31.6247   24.5177 H   0  0  0  0  0  0
  -15.5369  -30.2982   23.7659 H   0  0  0  0  0  0
  -15.8661  -28.0836   22.7014 H   0  0  0  0  0  0
  -24.5807  -30.7128   25.7722 H   0  0  0  0  0  0
  -24.8863  -32.2899   26.4827 H   0  0  0  0  0  0
  -25.7919  -30.8876   27.0185 H   0  0  0  0  0  0
  -26.2946  -29.6746   24.1163 H   0  0  0  0  0  0
  -27.4097  -29.7317   25.4623 H   0  0  0  0  0  0
  -27.8764  -30.4354   23.9333 H   0  0  0  0  0  0
  -27.2708  -33.3597   26.2042 H   0  0  0  0  0  0
  -28.3832  -32.6856   25.0230 H   0  0  0  0  0  0
  -28.0770  -31.8401   26.5291 H   0  0  0  0  0  0
  -28.2595  -38.0104   24.7503 H   0  0  0  0  0  0
  -28.1097  -36.2626   24.6299 H   0  0  0  0  0  0
  -27.2303  -37.1460   25.8863 H   0  0  0  0  0  0
  -20.9348  -29.8776   21.6837 H   0  0  0  0  0  0
  -26.0205  -38.2866   24.1357 H   0  0  0  0  0  0
  -30.8293  -16.8776   25.8502 H   0  0  0  0  0  0
  -30.0461  -15.1111   24.3193 H   0  0  0  0  0  0
  -31.8583  -19.0496   26.1925 H   0  0  0  0  0  0
  -32.1145  -19.7595   21.2856 H   0  0  0  0  0  0
  -31.3116  -17.4503   20.9167 H   0  0  0  0  0  0
  -31.5507  -21.9498   20.8745 H   0  0  0  0  0  0
  -33.3434  -20.9452   26.4753 H   0  0  0  0  0  0
  -32.0195  -21.9936   26.0361 H   0  0  0  0  0  0
  -34.8084  -21.9161   24.7658 H   0  0  0  0  0  0
  -34.1493  -23.2057   25.7449 H   0  0  0  0  0  0
  -33.9538  -23.8247   23.3602 H   0  0  0  0  0  0
  -32.3837  -23.6183   24.0820 H   0  0  0  0  0  0
  -33.8109  -21.7990   22.1277 H   0  0  0  0  0  0
  -29.3719  -25.1849   22.0179 H   0  0  0  0  0  0
  -28.9364  -23.6238   21.3922 H   0  0  0  0  0  0
  -31.1021  -25.3194   20.1019 H   0  0  0  0  0  0
  -30.6646  -23.6867   19.6626 H   0  0  0  0  0  0
  -27.3158  -24.9531   20.5129 H   0  0  0  0  0  0
  -28.3916  -24.8842   19.1326 H   0  0  0  0  0  0
  -29.3202  -14.6415   22.0772 H   0  0  0  0  0  0
  1 25  1  0  0  0
  1 30  2  0  0  0
  1 90  1  0  0  0
  2  3  1  0  0  0
  2 25  1  0  0  0
  2 91  1  0  0  0
  2 92  1  0  0  0
  3  4  1  0  0  0
  3 93  1  0  0  0
  3 94  1  0  0  0
  4  5  1  0  0  0
  4 95  1  0  0  0
  4 96  1  0  0  0
  5  6  1  0  0  0
  5 26  1  0  0  0
  5 97  1  0  0  0
  6 25  1  0  0  0
  6 98  1  0  0  0
  6 99  1  0  0  0
  7  8  2  0  0  0
  7 26  1  0  0  0
  7 29  1  0  0  0
  8  9  1  0  0  0
  8 22  1  0  0  0
  9 10  1  0  0  0
  9 27  2  0  0  0
 10 11  2  0  0  0
 10 15  1  0  0  0
 11 12  1  0  0  0
 11100  1  0  0  0
 12 13  2  0  0  0
 12101  1  0  0  0
 13 14  1  0  0  0
 13 31  1  0  0  0
 14 15  2  0  0  0
 14102  1  0  0  0
 15103  1  0  0  0
 16 17  2  0  0  0
 16 21  1  0  0  0
 16 31  1  0  0  0
 17 18  1  0  0  0
 17104  1  0  0  0
 18 19  2  0  0  0
 18105  1  0  0  0
 19 20  1  0  0  0
 19 24  1  0  0  0
 20 21  2  0  0  0
 20106  1  0  0  0
 21 23  1  0  0  0
 22 28  1  0  0  0
 22 32  2  0  0  0
 26 27  1  0  0  0
 28107  1  0  0  0
 28108  1  0  0  0
 29109  1  0  0  0
 29110  1  0  0  0
 33 34  1  0  0  0
 33 66  1  0  0  0
 33 70  2  0  0  0
 34 36  1  0  0  0
 34 59  1  0  0  0
 34111  1  0  0  0
 35 44  2  0  0  0
 35 45  1  0  0  0
 35 68  1  0  0  0
 36 56  1  0  0  0
 36112  1  0  0  0
 37 39  1  0  0  0
 37 47  1  0  0  0
 37 66  1  0  0  0
 37113  1  0  0  0
 38 43  2  0  0  0
 38 46  1  0  0  0
 38 47  1  0  0  0
 39 64  1  0  0  0
 39 67  2  0  0  0
 40 52  1  0  0  0
 40 53  2  0  0  0
 40 58  1  0  0  0
 41114  1  0  0  0
 41115  1  0  0  0
 41116  1  0  0  0
 41 48  1  0  0  0
 42 43  1  0  0  0
 42 66  1  0  0  0
 42117  1  0  0  0
 42118  1  0  0  0
 43 44  1  0  0  0
 44119  1  0  0  0
 45 46  2  0  0  0
 45120  1  0  0  0
 46121  1  0  0  0
 47122  1  0  0  0
 47123  1  0  0  0
 48 56  1  0  0  0
 48 65  1  0  0  0
 48124  1  0  0  0
 49 50  1  0  0  0
 49 53  1  0  0  0
 49 64  1  0  0  0
 49125  1  0  0  0
 50 51  1  0  0  0
 50126  1  0  0  0
 50127  1  0  0  0
 51 52  1  0  0  0
 51128  1  0  0  0
 51129  1  0  0  0
 52130  1  0  0  0
 52131  1  0  0  0
 53 54  1  0  0  0
 54 55  2  0  0  0
 54132  1  0  0  0
 55 57  1  0  0  0
 55133  1  0  0  0
 56 69  2  0  0  0
 57 58  2  0  0  0
 57134  1  0  0  0
 58135  1  0  0  0
 59 60  1  0  0  0
 59 61  1  0  0  0
 59 62  1  0  0  0
 60136  1  0  0  0
 60137  1  0  0  0
 60138  1  0  0  0
 61139  1  0  0  0
 61140  1  0  0  0
 61141  1  0  0  0
 62142  1  0  0  0
 62143  1  0  0  0
 62144  1  0  0  0
 63 65  1  0  0  0
 63145  1  0  0  0
 63146  1  0  0  0
 63147  1  0  0  0
 64148  1  0  0  0
 65149  1  0  0  0
 68 88  1  0  0  0
 71 72  2  0  0  0
 71 76  1  0  0  0
 71150  1  0  0  0
 72 80  1  0  0  0
 72151  1  0  0  0
 73 76  2  0  0  0
 73 78  1  0  0  0
 73152  1  0  0  0
 74 77  2  0  0  0
 74 79  1  0  0  0
 74153  1  0  0  0
 75 77  1  0  0  0
 75 80  2  0  0  0
 75154  1  0  0  0
 76 77  1  0  0  0
 78 79  2  0  0  0
 78 82  1  0  0  0
 79 85  1  0  0  0
 80 90  1  0  0  0
 81 89  2  0  0  0
 81155  1  0  0  0
 81 85  1  0  0  0
 82 83  1  0  0  0
 82156  1  0  0  0
 82157  1  0  0  0
 83 84  1  0  0  0
 83158  1  0  0  0
 83159  1  0  0  0
 84 85  1  0  0  0
 84160  1  0  0  0
 84161  1  0  0  0
 85162  1  0  0  0
 86 87  1  0  0  0
 86 88  1  0  0  0
 86163  1  0  0  0
 86164  1  0  0  0
 87 89  1  0  0  0
 87165  1  0  0  0
 87166  1  0  0  0
 88167  1  0  0  0
 88168  1  0  0  0
 90169  1  0  0  0
M  ISO  4   1 100  68 101  88 101  90 100
M  END
> <chiral flag>
0

> <version>
0

> <s_m_source_file>
/data/baiqing/PycharmProjects/Reinvent-master-3.2/result/LINK_invent/BTK/process_docking_weight1_custom_product_contain_oxygen_bond_distance_aromatic_linkinvent_7_9_3/rearranged_h_0004.sdf

> <i_m_source_file_index>
68

> <r_mmod_Potential_Energy-OPLS-2005>
27.8168201446533

> <r_mmod_Stretch_Energy-OPLS-2005>
42.5500526428223

> <r_mmod_Bend_Energy-OPLS-2005>
107.814414978027

> <r_mmod_Torsional_Energy-OPLS-2005>
230.931198120117

> <r_mmod_Improper_Torsional_Energy-OPLS-2005>
2.99129009246826

> <r_mmod_Van_der_Waal_Energy-OPLS-2005>
185.631134033203

> <r_mmod_Electrostatic_Energy-OPLS-2005>
-330.725311279297

> <r_mmod_Solvation_Energy-OPLS-2005>
-223.630615234375

> <b_mmod_Minimization_Converged-OPLS-2005>
0

> <r_mmod_RMS_Derivative-OPLS-2005>
4.13173294067383

$$$$
68
                    3D
 Structure written by MMmdl.
178187  0  0  1  0            999 V2000
  -30.7784  -14.3480   20.6769 C   0  0  0  0  0  0
  -30.4115  -12.2781   19.3908 C   0  0  0  0  0  0
  -29.4795  -12.5258   18.1907 C   0  0  0  0  0  0
  -28.0037  -12.3889   18.6087 C   0  0  0  0  0  0
  -27.6669  -13.2052   19.8847 C   0  0  2  0  0  0
  -28.7062  -12.9375   20.9959 C   0  0  0  0  0  0
  -25.2600  -13.8170   20.5691 C   0  0  0  0  0  0
  -24.1838  -13.0447   20.9154 C   0  0  0  0  0  0
  -24.6394  -11.6914   20.8725 C   0  0  0  0  0  0
  -23.9064  -10.4297   21.0399 C   0  0  0  0  0  0
  -24.3611   -9.4213   21.9179 C   0  0  0  0  0  0
  -23.6287   -8.2245   22.0751 C   0  0  0  0  0  0
  -22.4271   -8.0280   21.3543 C   0  0  0  0  0  0
  -21.9905   -9.0254   20.4643 C   0  0  0  0  0  0
  -22.7233  -10.2136   20.3051 C   0  0  0  0  0  0
  -21.6852   -6.0734   22.5281 C   0  0  0  0  0  0
  -21.4013   -6.5640   23.8215 C   0  0  0  0  0  0
  -21.3661   -5.6792   24.9175 C   0  0  0  0  0  0
  -21.6045   -4.3052   24.7222 C   0  0  0  0  0  0
  -21.8820   -3.8148   23.4344 C   0  0  0  0  0  0
  -21.9191   -4.6966   22.3402 C   0  0  0  0  0  0
  -22.7863  -13.5242   21.1835 C   0  0  0  0  0  0
  -22.1660   -4.2149   21.0978 F   0  0  0  0  0  0
  -21.5630   -3.4539   25.7737 F   0  0  0  0  0  0
  -30.0507  -13.2225   20.4576 N   0  0  0  0  0  0
  -26.3047  -12.9342   20.3424 N   0  0  0  0  0  0
  -25.9324  -11.6497   20.5778 N   0  0  0  0  0  0
  -22.0509  -12.8222   22.0387 N   0  0  0  0  0  0
  -25.4331  -15.1884   20.4117 N   0  0  0  0  0  0
  -31.7947  -14.6282   20.0341 O   0  0  0  0  0  0
  -21.6638   -6.8877   21.4242 O   0  0  0  0  0  0
  -22.3539  -14.5550   20.6698 O   0  0  0  0  0  0
  -24.6099  -31.8697   23.2111 C   0  0  0  0  0  0
  -25.8992  -32.4853   23.8391 C   0  0  1  0  0  0
  -27.2349  -27.4759   20.0933 C   0  0  0  0  0  0
  -25.5846  -33.8655   24.2325 N   0  0  0  0  0  0
  -23.3961  -30.4930   21.5508 C   0  0  2  0  0  0
  -24.8429  -28.9636   20.1154 C   0  0  0  0  0  0
  -22.7398  -29.4636   22.4985 C   0  0  0  0  0  0
  -18.0264  -28.1365   22.8490 C   0  0  0  0  0  0
  -24.1486  -36.7332   23.2640 C   0  0  0  0  0  0
  -25.9210  -30.8519   21.3577 C   0  0  0  0  0  0
  -26.0006  -29.4911   20.7010 C   0  0  0  0  0  0
  -27.2049  -28.7592   20.6748 C   0  0  0  0  0  0
  -26.0651  -26.9507   19.5059 C   0  0  0  0  0  0
  -24.8678  -27.6920   19.5144 C   0  0  0  0  0  0
  -23.6036  -29.8265   20.1642 C   0  0  0  0  0  0
  -25.4104  -36.3140   24.0342 C   0  0  1  0  0  0
  -20.5855  -28.3622   23.1351 C   0  0  2  0  0  0
  -20.6767  -26.9370   22.5422 C   0  0  0  0  0  0
  -19.5752  -26.6395   21.5205 C   0  0  0  0  0  0
  -18.1923  -26.7920   22.1604 C   0  0  0  0  0  0
  -19.1516  -28.8806   23.2920 C   0  0  0  0  0  0
  -18.9451  -30.1421   23.8917 C   0  0  0  0  0  0
  -17.6457  -30.6576   24.0569 C   0  0  0  0  0  0
  -25.9019  -34.9503   23.5133 C   0  0  0  0  0  0
  -16.5343  -29.9083   23.6332 C   0  0  0  0  0  0
  -16.7251  -28.6503   23.0342 C   0  0  0  0  0  0
  -26.4465  -31.6634   25.0702 C   0  0  0  0  0  0
  -25.3755  -31.3710   26.1461 C   0  0  0  0  0  0
  -27.0301  -30.3102   24.6050 C   0  0  0  0  0  0
  -27.6024  -32.4369   25.7463 C   0  0  0  0  0  0
  -27.5587  -37.1821   24.8459 C   0  0  0  0  0  0
  -21.4123  -29.3003   22.3764 N   0  0  0  0  0  0
  -26.4302  -37.3813   23.9408 N   0  0  0  0  0  0
  -24.6604  -31.0837   22.0990 N   0  0  0  0  0  0
  -23.4216  -28.8150   23.2970 O   0  0  0  0  0  0
  -28.4072  -26.7648   20.0904 O   0  0  0  0  0  0
  -26.5621  -34.8940   22.4711 O   0  0  0  0  0  0
  -23.5310  -32.1393   23.7555 O   0  0  0  0  0  0
  -30.4343  -22.4490   25.3515 C   0  0  0  0  0  0
  -32.1519  -24.1531   25.0629 C   0  0  0  0  0  0
  -29.4523  -23.4545   25.4377 C   0  0  0  0  0  0
  -31.1751  -25.1597   25.1810 C   0  0  0  0  0  0
  -32.6663  -17.9283   22.5419 C   0  0  0  0  0  0
  -32.1897  -16.6533   22.1891 C   0  0  0  0  0  0
  -30.3760  -18.7548   22.6022 C   0  0  0  0  0  0
  -31.7947  -22.7915   25.1634 C   0  0  0  0  0  0
  -29.8208  -24.8147   25.3729 C   0  0  0  0  0  0
  -31.7600  -18.9876   22.7505 C   0  0  0  0  0  0
  -29.8828  -17.4785   22.2398 C   0  0  0  0  0  0
  -30.8029  -16.4203   22.0173 C   0  0  0  0  0  0
  -32.8985  -21.7356   25.1411 C   0  0  0  0  0  0
  -28.7729  -25.8986   25.5737 C   0  0  0  0  0  0
  -32.2706  -20.3647   23.1496 C   0  0  0  0  0  0
  -28.9447  -25.6598   22.2048 C   0  0  0  0  0  0
  -27.9791  -26.3146   23.2173 C   0  0  0  0  0  0
  -28.3765  -25.5124   20.7781 C   0  0  0  0  0  0
  -28.3770  -17.2687   22.0657 C   0  0  0  0  0  0
  -30.3271  -15.1264   21.6691 N   0  0  0  0  0  0
  -32.4847  -20.4237   24.6068 N   0  3  0  0  0  0
  -28.6584  -26.8234   24.4299 N   0  3  0  0  0  0
  -27.6726  -18.3316   22.4584 F   0  0  0  0  0  0
  -28.1034  -17.0369   20.7809 F   0  0  0  0  0  0
  -27.9710  -16.2182   22.7808 F   0  0  0  0  0  0
  -31.4550  -12.3691   19.0838 H   0  0  0  0  0  0
  -30.3016  -11.2546   19.7524 H   0  0  0  0  0  0
  -29.7055  -11.8239   17.3869 H   0  0  0  0  0  0
  -29.6552  -13.5236   17.7857 H   0  0  0  0  0  0
  -27.8033  -11.3308   18.7810 H   0  0  0  0  0  0
  -27.3507  -12.6907   17.7887 H   0  0  0  0  0  0
  -27.7278  -14.2615   19.6203 H   0  0  0  0  0  0
  -28.6616  -11.8922   21.3052 H   0  0  0  0  0  0
  -28.4575  -13.5082   21.8904 H   0  0  0  0  0  0
  -25.2760   -9.5688   22.4746 H   0  0  0  0  0  0
  -24.0003   -7.4638   22.7468 H   0  0  0  0  0  0
  -21.0837   -8.8768   19.8945 H   0  0  0  0  0  0
  -22.3694  -10.9668   19.6152 H   0  0  0  0  0  0
  -21.2005   -7.6147   23.9718 H   0  0  0  0  0  0
  -21.1482   -6.0519   25.9076 H   0  0  0  0  0  0
  -22.0598   -2.7609   23.2844 H   0  0  0  0  0  0
  -22.4121  -11.9866   22.4744 H   0  0  0  0  0  0
  -21.1130  -13.1245   22.2612 H   0  0  0  0  0  0
  -24.6779  -15.8500   20.5483 H   0  0  0  0  0  0
  -26.3122  -15.6341   20.1792 H   0  0  0  0  0  0
  -26.7041  -32.5598   23.1148 H   0  0  0  0  0  0
  -24.9982  -33.9806   25.0464 H   0  0  0  0  0  0
  -22.6832  -31.3084   21.4149 H   0  0  0  0  0  0
  -23.3759  -35.9654   23.3323 H   0  0  0  0  0  0
  -24.3573  -36.8938   22.2048 H   0  0  0  0  0  0
  -23.7247  -37.6538   23.6657 H   0  0  0  0  0  0
  -26.0324  -31.6258   20.5967 H   0  0  0  0  0  0
  -26.8090  -30.9019   21.9764 H   0  0  0  0  0  0
  -28.1046  -29.1688   21.1128 H   0  0  0  0  0  0
  -26.0842  -25.9762   19.0387 H   0  0  0  0  0  0
  -23.9751  -27.2832   19.0598 H   0  0  0  0  0  0
  -23.7154  -30.6042   19.4081 H   0  0  0  0  0  0
  -22.7282  -29.2484   19.8624 H   0  0  0  0  0  0
  -25.1311  -36.1999   25.0846 H   0  0  0  0  0  0
  -20.9928  -28.3157   24.1478 H   0  0  0  0  0  0
  -20.5669  -26.2205   23.3578 H   0  0  0  0  0  0
  -21.6635  -26.7433   22.1196 H   0  0  0  0  0  0
  -19.6921  -25.6329   21.1179 H   0  0  0  0  0  0
  -19.6709  -27.3247   20.6766 H   0  0  0  0  0  0
  -17.4200  -26.6672   21.3997 H   0  0  0  0  0  0
  -18.0313  -26.0061   22.8995 H   0  0  0  0  0  0
  -19.7932  -30.7239   24.2282 H   0  0  0  0  0  0
  -17.5019  -31.6255   24.5172 H   0  0  0  0  0  0
  -15.5351  -30.3003   23.7648 H   0  0  0  0  0  0
  -15.8644  -28.0845   22.7031 H   0  0  0  0  0  0
  -24.5896  -30.7102   25.7794 H   0  0  0  0  0  0
  -24.8978  -32.2858   26.4985 H   0  0  0  0  0  0
  -25.8104  -30.8818   27.0180 H   0  0  0  0  0  0
  -26.2781  -29.6801   24.1284 H   0  0  0  0  0  0
  -27.4278  -29.7473   25.4494 H   0  0  0  0  0  0
  -27.8535  -30.4492   23.9045 H   0  0  0  0  0  0
  -27.2601  -33.3639   26.2074 H   0  0  0  0  0  0
  -28.3795  -32.6982   25.0277 H   0  0  0  0  0  0
  -28.0746  -31.8502   26.5350 H   0  0  0  0  0  0
  -28.2603  -38.0126   24.7535 H   0  0  0  0  0  0
  -28.1095  -36.2654   24.6279 H   0  0  0  0  0  0
  -27.2299  -37.1473   25.8860 H   0  0  0  0  0  0
  -20.9246  -29.8740   21.7023 H   0  0  0  0  0  0
  -26.0206  -38.2895   24.1427 H   0  0  0  0  0  0
  -30.1223  -21.4197   25.4553 H   0  0  0  0  0  0
  -33.1881  -24.4381   24.9365 H   0  0  0  0  0  0
  -28.4182  -23.1768   25.5941 H   0  0  0  0  0  0
  -31.4793  -26.1971   25.1470 H   0  0  0  0  0  0
  -33.7312  -18.0832   22.6560 H   0  0  0  0  0  0
  -32.9037  -15.8535   22.0492 H   0  0  0  0  0  0
  -29.6799  -19.5658   22.7627 H   0  0  0  0  0  0
  -33.2492  -21.6007   26.1649 H   0  0  0  0  0  0
  -33.7530  -22.1026   24.5707 H   0  0  0  0  0  0
  -29.0541  -26.4763   26.4552 H   0  0  0  0  0  0
  -27.8009  -25.4581   25.7983 H   0  0  0  0  0  0
  -31.5567  -21.1274   22.8346 H   0  0  0  0  0  0
  -33.2058  -20.5752   22.6288 H   0  0  0  0  0  0
  -29.2092  -24.6684   22.5747 H   0  0  0  0  0  0
  -29.8781  -26.2192   22.1478 H   0  0  0  0  0  0
  -27.1576  -25.6433   23.4748 H   0  0  0  0  0  0
  -27.5114  -27.1855   22.7675 H   0  0  0  0  0  0
  -27.3864  -25.0557   20.8036 H   0  0  0  0  0  0
  -29.0098  -24.8278   20.2136 H   0  0  0  0  0  0
  -29.4453  -14.8426   22.0721 H   0  0  0  0  0  0
  -31.6515  -20.1296   25.0841 H   0  0  0  0  0  0
  -33.2097  -19.7644   24.8345 H   0  0  0  0  0  0
  -29.5629  -27.1970   24.1981 H   0  0  0  0  0  0
  -28.1040  -27.5926   24.7677 H   0  0  0  0  0  0
  1 25  1  0  0  0
  1 30  2  0  0  0
  1 90  1  0  0  0
  2  3  1  0  0  0
  2 25  1  0  0  0
  2 96  1  0  0  0
  2 97  1  0  0  0
  3  4  1  0  0  0
  3 98  1  0  0  0
  3 99  1  0  0  0
  4  5  1  0  0  0
  4100  1  0  0  0
  4101  1  0  0  0
  5  6  1  0  0  0
  5 26  1  0  0  0
  5102  1  0  0  0
  6 25  1  0  0  0
  6103  1  0  0  0
  6104  1  0  0  0
  7  8  2  0  0  0
  7 26  1  0  0  0
  7 29  1  0  0  0
  8  9  1  0  0  0
  8 22  1  0  0  0
  9 10  1  0  0  0
  9 27  2  0  0  0
 10 11  2  0  0  0
 10 15  1  0  0  0
 11 12  1  0  0  0
 11105  1  0  0  0
 12 13  2  0  0  0
 12106  1  0  0  0
 13 14  1  0  0  0
 13 31  1  0  0  0
 14 15  2  0  0  0
 14107  1  0  0  0
 15108  1  0  0  0
 16 17  2  0  0  0
 16 21  1  0  0  0
 16 31  1  0  0  0
 17 18  1  0  0  0
 17109  1  0  0  0
 18 19  2  0  0  0
 18110  1  0  0  0
 19 20  1  0  0  0
 19 24  1  0  0  0
 20 21  2  0  0  0
 20111  1  0  0  0
 21 23  1  0  0  0
 22 28  1  0  0  0
 22 32  2  0  0  0
 26 27  1  0  0  0
 28112  1  0  0  0
 28113  1  0  0  0
 29114  1  0  0  0
 29115  1  0  0  0
 33 34  1  0  0  0
 33 66  1  0  0  0
 33 70  2  0  0  0
 34 36  1  0  0  0
 34 59  1  0  0  0
 34116  1  0  0  0
 35 44  2  0  0  0
 35 45  1  0  0  0
 35 68  1  0  0  0
 36 56  1  0  0  0
 36117  1  0  0  0
 37 39  1  0  0  0
 37 47  1  0  0  0
 37 66  1  0  0  0
 37118  1  0  0  0
 38 43  2  0  0  0
 38 46  1  0  0  0
 38 47  1  0  0  0
 39 64  1  0  0  0
 39 67  2  0  0  0
 40 52  1  0  0  0
 40 53  2  0  0  0
 40 58  1  0  0  0
 41119  1  0  0  0
 41120  1  0  0  0
 41121  1  0  0  0
 41 48  1  0  0  0
 42 43  1  0  0  0
 42 66  1  0  0  0
 42122  1  0  0  0
 42123  1  0  0  0
 43 44  1  0  0  0
 44124  1  0  0  0
 45 46  2  0  0  0
 45125  1  0  0  0
 46126  1  0  0  0
 47127  1  0  0  0
 47128  1  0  0  0
 48 56  1  0  0  0
 48 65  1  0  0  0
 48129  1  0  0  0
 49 50  1  0  0  0
 49 53  1  0  0  0
 49 64  1  0  0  0
 49130  1  0  0  0
 50 51  1  0  0  0
 50131  1  0  0  0
 50132  1  0  0  0
 51 52  1  0  0  0
 51133  1  0  0  0
 51134  1  0  0  0
 52135  1  0  0  0
 52136  1  0  0  0
 53 54  1  0  0  0
 54 55  2  0  0  0
 54137  1  0  0  0
 55 57  1  0  0  0
 55138  1  0  0  0
 56 69  2  0  0  0
 57 58  2  0  0  0
 57139  1  0  0  0
 58140  1  0  0  0
 59 60  1  0  0  0
 59 61  1  0  0  0
 59 62  1  0  0  0
 60141  1  0  0  0
 60142  1  0  0  0
 60143  1  0  0  0
 61144  1  0  0  0
 61145  1  0  0  0
 61146  1  0  0  0
 62147  1  0  0  0
 62148  1  0  0  0
 62149  1  0  0  0
 63 65  1  0  0  0
 63150  1  0  0  0
 63151  1  0  0  0
 63152  1  0  0  0
 64153  1  0  0  0
 65154  1  0  0  0
 68 88  1  0  0  0
 71 73  2  0  0  0
 71 78  1  0  0  0
 71155  1  0  0  0
 72 74  1  0  0  0
 72 78  2  0  0  0
 72156  1  0  0  0
 73 79  1  0  0  0
 73157  1  0  0  0
 74 79  2  0  0  0
 74158  1  0  0  0
 75 76  2  0  0  0
 75 80  1  0  0  0
 75159  1  0  0  0
 76 82  1  0  0  0
 76160  1  0  0  0
 77 80  2  0  0  0
 77 81  1  0  0  0
 77161  1  0  0  0
 78 83  1  0  0  0
 79 84  1  0  0  0
 80 85  1  0  0  0
 81 82  2  0  0  0
 81 89  1  0  0  0
 82 90  1  0  0  0
 83 91  1  0  0  0
 83162  1  0  0  0
 83163  1  0  0  0
 84 92  1  0  0  0
 84164  1  0  0  0
 84165  1  0  0  0
 85 91  1  0  0  0
 85166  1  0  0  0
 85167  1  0  0  0
 86 87  1  0  0  0
 86 88  1  0  0  0
 86168  1  0  0  0
 86169  1  0  0  0
 87 92  1  0  0  0
 87170  1  0  0  0
 87171  1  0  0  0
 88172  1  0  0  0
 88173  1  0  0  0
 89 93  1  0  0  0
 89 94  1  0  0  0
 89 95  1  0  0  0
 90174  1  0  0  0
 91175  1  0  0  0
 91176  1  0  0  0
 92177  1  0  0  0
 92178  1  0  0  0
M  CHG  2  91   1  92   1
M  ISO  4   1 100  68 101  88 101  90 100
M  END
> <chiral flag>
0

> <version>
0

> <s_m_source_file>
/data/baiqing/PycharmProjects/Reinvent-master-3.2/result/LINK_invent/BTK/process_docking_weight1_custom_product_contain_oxygen_bond_distance_aromatic_linkinvent_7_9_3/rearranged_h_0004.sdf

> <i_m_source_file_index>
69

> <r_mmod_Potential_Energy-OPLS-2005>
-447.030090332031

> <r_mmod_Stretch_Energy-OPLS-2005>
35.129508972168

> <r_mmod_Bend_Energy-OPLS-2005>
94.4532928466797

> <r_mmod_Torsional_Energy-OPLS-2005>
226.669143676758

> <r_mmod_Improper_Torsional_Energy-OPLS-2005>
2.39372277259827

> <r_mmod_Van_der_Waal_Energy-OPLS-2005>
160.305480957031

> <r_mmod_Electrostatic_Energy-OPLS-2005>
-58.9029846191406

> <r_mmod_Solvation_Energy-OPLS-2005>
-914.093688964844

> <b_mmod_Minimization_Converged-OPLS-2005>
0

> <r_mmod_RMS_Derivative-OPLS-2005>
1.96786057949066

$$$$
69
                    3D
 Structure written by MMmdl.
182192  0  0  1  0            999 V2000
  -30.7406  -14.4038   20.6242 C   0  0  0  0  0  0
  -30.4151  -12.2852   19.4138 C   0  0  0  0  0  0
  -29.4887  -12.5135   18.2035 C   0  0  0  0  0  0
  -28.0113  -12.3741   18.6168 C   0  0  0  0  0  0
  -27.6637  -13.2054   19.8808 C   0  0  2  0  0  0
  -28.7019  -12.9650   21.0005 C   0  0  0  0  0  0
  -25.2566  -13.8134   20.5646 C   0  0  0  0  0  0
  -24.1822  -13.0420   20.9157 C   0  0  0  0  0  0
  -24.6386  -11.6893   20.8737 C   0  0  0  0  0  0
  -23.9055  -10.4282   21.0405 C   0  0  0  0  0  0
  -24.3610   -9.4199   21.9182 C   0  0  0  0  0  0
  -23.6285   -8.2237   22.0752 C   0  0  0  0  0  0
  -22.4266   -8.0277   21.3545 C   0  0  0  0  0  0
  -21.9902   -9.0248   20.4646 C   0  0  0  0  0  0
  -22.7230  -10.2126   20.3053 C   0  0  0  0  0  0
  -21.6849   -6.0733   22.5280 C   0  0  0  0  0  0
  -21.4010   -6.5638   23.8213 C   0  0  0  0  0  0
  -21.3659   -5.6789   24.9174 C   0  0  0  0  0  0
  -21.6047   -4.3053   24.7225 C   0  0  0  0  0  0
  -21.8819   -3.8145   23.4346 C   0  0  0  0  0  0
  -21.9190   -4.6961   22.3402 C   0  0  0  0  0  0
  -22.7853  -13.5229   21.1838 C   0  0  0  0  0  0
  -22.1660   -4.2149   21.0980 F   0  0  0  0  0  0
  -21.5630   -3.4537   25.7737 F   0  0  0  0  0  0
  -30.0420  -13.2517   20.4577 N   0  0  0  0  0  0
  -26.3026  -12.9323   20.3389 N   0  0  0  0  0  0
  -25.9317  -11.6483   20.5784 N   0  0  0  0  0  0
  -22.0495  -12.8224   22.0400 N   0  0  0  0  0  0
  -25.4258  -15.1830   20.4004 N   0  0  0  0  0  0
  -31.8189  -14.6257   20.0662 O   0  0  0  0  0  0
  -21.6633   -6.8875   21.4241 O   0  0  0  0  0  0
  -22.3540  -14.5539   20.6695 O   0  0  0  0  0  0
  -24.6097  -31.8704   23.2112 C   0  0  0  0  0  0
  -25.8999  -32.4840   23.8402 C   0  0  1  0  0  0
  -27.2459  -27.4697   20.1058 C   0  0  0  0  0  0
  -25.5872  -33.8637   24.2338 N   0  0  0  0  0  0
  -23.3961  -30.4917   21.5495 C   0  0  2  0  0  0
  -24.8469  -28.9545   20.1233 C   0  0  0  0  0  0
  -22.7386  -29.4662   22.4998 C   0  0  0  0  0  0
  -18.0274  -28.1369   22.8489 C   0  0  0  0  0  0
  -24.1492  -36.7316   23.2642 C   0  0  0  0  0  0
  -25.9200  -30.8493   21.3565 C   0  0  0  0  0  0
  -26.0021  -29.4820   20.7146 C   0  0  0  0  0  0
  -27.2045  -28.7469   20.6996 C   0  0  0  0  0  0
  -26.0764  -26.9415   19.5168 C   0  0  0  0  0  0
  -24.8772  -27.6815   19.5246 C   0  0  0  0  0  0
  -23.6060  -29.8165   20.1667 C   0  0  0  0  0  0
  -25.4108  -36.3121   24.0348 C   0  0  1  0  0  0
  -20.5860  -28.3636   23.1338 C   0  0  2  0  0  0
  -20.6769  -26.9382   22.5423 C   0  0  0  0  0  0
  -19.5753  -26.6380   21.5217 C   0  0  0  0  0  0
  -18.1921  -26.7924   22.1614 C   0  0  0  0  0  0
  -19.1522  -28.8821   23.2917 C   0  0  0  0  0  0
  -18.9458  -30.1430   23.8923 C   0  0  0  0  0  0
  -17.6457  -30.6579   24.0560 C   0  0  0  0  0  0
  -25.9023  -34.9486   23.5143 C   0  0  0  0  0  0
  -16.5344  -29.9085   23.6320 C   0  0  0  0  0  0
  -16.7265  -28.6501   23.0338 C   0  0  0  0  0  0
  -26.4455  -31.6602   25.0704 C   0  0  0  0  0  0
  -25.3736  -31.3695   26.1462 C   0  0  0  0  0  0
  -27.0272  -30.3061   24.6012 C   0  0  0  0  0  0
  -27.6041  -32.4306   25.7466 C   0  0  0  0  0  0
  -27.5585  -37.1811   24.8471 C   0  0  0  0  0  0
  -21.4121  -29.3019   22.3749 N   0  0  0  0  0  0
  -26.4297  -37.3798   23.9415 N   0  0  0  0  0  0
  -24.6598  -31.0837   22.0990 N   0  0  0  0  0  0
  -23.4181  -28.8206   23.3024 O   0  0  0  0  0  0
  -28.4471  -26.8085   20.0422 O   0  0  0  0  0  0
  -26.5589  -34.8930   22.4702 O   0  0  0  0  0  0
  -23.5294  -32.1438   23.7528 O   0  0  0  0  0  0
  -25.9896  -17.7812   23.4907 C   0  0  0  0  0  0
  -26.8432  -17.5309   24.5796 C   0  0  0  0  0  0
  -26.5187  -17.8643   22.1896 C   0  0  0  0  0  0
  -28.2258  -17.3749   24.3672 C   0  0  0  0  0  0
  -33.0297  -20.8237   24.1628 C   0  0  0  0  0  0
  -32.7574  -23.2268   23.8309 C   0  0  0  0  0  0
  -30.7937  -21.7970   24.0591 C   0  0  0  0  0  0
  -27.9020  -17.7016   21.9654 C   0  0  0  0  0  0
  -28.7691  -17.4743   23.0665 C   0  0  0  0  0  0
  -33.5954  -22.1023   23.9795 C   0  0  0  0  0  0
  -31.6280  -20.6650   24.1942 C   0  0  0  0  0  0
  -31.3532  -23.0794   23.8694 C   0  0  0  0  0  0
  -28.4071  -17.7220   20.5251 C   0  0  0  0  0  0
  -29.9323  -17.5810   20.3606 C   0  0  0  0  0  0
  -30.2795  -17.3467   22.8628 C   0  0  1  0  0  0
  -30.5968  -16.7396   21.4744 C   0  0  1  0  0  0
  -35.1025  -22.2594   23.9355 C   0  0  0  0  0  0
  -31.0180  -19.2773   24.3198 C   0  0  0  0  0  0
  -30.4511  -24.2937   23.6906 C   0  0  0  0  0  0
  -29.1462  -25.5523   21.9802 C   0  0  0  0  0  0
  -28.5115  -25.4888   20.5755 C   0  0  0  0  0  0
  -30.1427  -15.3456   21.3672 N   0  0  0  0  0  0
  -30.9247  -18.6744   22.9771 N   0  3  0  0  0  0
  -29.8299  -24.2885   22.3511 N   0  3  0  0  0  0
  -31.4605  -12.3736   19.1124 H   0  0  0  0  0  0
  -30.3040  -11.2684   19.7938 H   0  0  0  0  0  0
  -29.7235  -11.8031   17.4099 H   0  0  0  0  0  0
  -29.6624  -13.5072   17.7873 H   0  0  0  0  0  0
  -27.8185  -11.3171   18.8047 H   0  0  0  0  0  0
  -27.3603  -12.6573   17.7892 H   0  0  0  0  0  0
  -27.7154  -14.2569   19.5968 H   0  0  0  0  0  0
  -28.6634  -11.9265   21.3330 H   0  0  0  0  0  0
  -28.4590  -13.5576   21.8832 H   0  0  0  0  0  0
  -25.2755   -9.5676   22.4754 H   0  0  0  0  0  0
  -23.9996   -7.4627   22.7467 H   0  0  0  0  0  0
  -21.0835   -8.8765   19.8950 H   0  0  0  0  0  0
  -22.3690  -10.9664   19.6162 H   0  0  0  0  0  0
  -21.2000   -7.6146   23.9717 H   0  0  0  0  0  0
  -21.1482   -6.0519   25.9078 H   0  0  0  0  0  0
  -22.0599   -2.7607   23.2845 H   0  0  0  0  0  0
  -22.4102  -11.9876   22.4777 H   0  0  0  0  0  0
  -21.1117  -13.1259   22.2610 H   0  0  0  0  0  0
  -24.6678  -15.8402   20.5439 H   0  0  0  0  0  0
  -26.2989  -15.6281   20.1550 H   0  0  0  0  0  0
  -26.7061  -32.5588   23.1168 H   0  0  0  0  0  0
  -25.0055  -33.9815   25.0501 H   0  0  0  0  0  0
  -22.6827  -31.3067   21.4070 H   0  0  0  0  0  0
  -23.3758  -35.9648   23.3322 H   0  0  0  0  0  0
  -24.3589  -36.8900   22.2053 H   0  0  0  0  0  0
  -23.7247  -37.6528   23.6633 H   0  0  0  0  0  0
  -26.0194  -31.6113   20.5814 H   0  0  0  0  0  0
  -26.8125  -30.9138   21.9672 H   0  0  0  0  0  0
  -28.1031  -29.1599   21.1375 H   0  0  0  0  0  0
  -26.0958  -25.9761   19.0303 H   0  0  0  0  0  0
  -23.9890  -27.2708   19.0648 H   0  0  0  0  0  0
  -23.7118  -30.5869   19.4019 H   0  0  0  0  0  0
  -22.7332  -29.2317   19.8712 H   0  0  0  0  0  0
  -25.1289  -36.2000   25.0843 H   0  0  0  0  0  0
  -20.9949  -28.3195   24.1459 H   0  0  0  0  0  0
  -20.5673  -26.2241   23.3594 H   0  0  0  0  0  0
  -21.6638  -26.7437   22.1207 H   0  0  0  0  0  0
  -19.6916  -25.6307   21.1217 H   0  0  0  0  0  0
  -19.6703  -27.3205   20.6764 H   0  0  0  0  0  0
  -17.4197  -26.6672   21.4008 H   0  0  0  0  0  0
  -18.0318  -26.0068   22.9013 H   0  0  0  0  0  0
  -19.7934  -30.7236   24.2300 H   0  0  0  0  0  0
  -17.5021  -31.6267   24.5146 H   0  0  0  0  0  0
  -15.5346  -30.2994   23.7645 H   0  0  0  0  0  0
  -15.8662  -28.0834   22.7035 H   0  0  0  0  0  0
  -24.5908  -30.7043   25.7796 H   0  0  0  0  0  0
  -24.8932  -32.2851   26.4924 H   0  0  0  0  0  0
  -25.8106  -30.8854   27.0206 H   0  0  0  0  0  0
  -26.2785  -29.6841   24.1089 H   0  0  0  0  0  0
  -27.4115  -29.7274   25.4422 H   0  0  0  0  0  0
  -27.8590  -30.4418   23.9095 H   0  0  0  0  0  0
  -27.2661  -33.3592   26.2083 H   0  0  0  0  0  0
  -28.3836  -32.6878   25.0279 H   0  0  0  0  0  0
  -28.0724  -31.8401   26.5353 H   0  0  0  0  0  0
  -28.2608  -38.0102   24.7504 H   0  0  0  0  0  0
  -28.1074  -36.2628   24.6314 H   0  0  0  0  0  0
  -27.2300  -37.1485   25.8874 H   0  0  0  0  0  0
  -20.9269  -29.8747   21.6981 H   0  0  0  0  0  0
  -26.0202  -38.2886   24.1401 H   0  0  0  0  0  0
  -24.9267  -17.8978   23.6512 H   0  0  0  0  0  0
  -26.4368  -17.4606   25.5792 H   0  0  0  0  0  0
  -25.8497  -18.0374   21.3578 H   0  0  0  0  0  0
  -28.8680  -17.1871   25.2168 H   0  0  0  0  0  0
  -33.6769  -19.9629   24.2675 H   0  0  0  0  0  0
  -33.1966  -24.2056   23.6878 H   0  0  0  0  0  0
  -29.7183  -21.6790   24.0867 H   0  0  0  0  0  0
  -28.0621  -18.6315   20.0305 H   0  0  0  0  0  0
  -27.9241  -16.8963   20.0019 H   0  0  0  0  0  0
  -30.3700  -18.5797   20.3601 H   0  0  0  0  0  0
  -30.1642  -17.1818   19.3720 H   0  0  0  0  0  0
  -30.6966  -16.6935   23.6319 H   0  0  0  0  0  0
  -31.6799  -16.7657   21.3375 H   0  0  0  0  0  0
  -35.5466  -21.5129   23.2766 H   0  0  0  0  0  0
  -35.5304  -22.1354   24.9305 H   0  0  0  0  0  0
  -35.3914  -23.2426   23.5627 H   0  0  0  0  0  0
  -30.0335  -19.3650   24.7796 H   0  0  0  0  0  0
  -31.6269  -18.6540   24.9771 H   0  0  0  0  0  0
  -31.0396  -25.2032   23.8242 H   0  0  0  0  0  0
  -29.6806  -24.3017   24.4628 H   0  0  0  0  0  0
  -28.3839  -25.8043   22.7185 H   0  0  0  0  0  0
  -29.8848  -26.3548   22.0048 H   0  0  0  0  0  0
  -27.5458  -24.9810   20.6052 H   0  0  0  0  0  0
  -29.1456  -24.9123   19.9014 H   0  0  0  0  0  0
  -29.2619  -15.1056   21.7988 H   0  0  0  0  0  0
  -30.4278  -19.3161   22.3842 H   0  0  0  0  0  0
  -31.8641  -18.5953   22.6259 H   0  0  0  0  0  0
  -29.1788  -23.5210   22.3143 H   0  0  0  0  0  0
  -30.5618  -24.1005   21.6835 H   0  0  0  0  0  0
  1 25  1  0  0  0
  1 30  2  0  0  0
  1 92  1  0  0  0
  2  3  1  0  0  0
  2 25  1  0  0  0
  2 95  1  0  0  0
  2 96  1  0  0  0
  3  4  1  0  0  0
  3 97  1  0  0  0
  3 98  1  0  0  0
  4  5  1  0  0  0
  4 99  1  0  0  0
  4100  1  0  0  0
  5  6  1  0  0  0
  5 26  1  0  0  0
  5101  1  0  0  0
  6 25  1  0  0  0
  6102  1  0  0  0
  6103  1  0  0  0
  7  8  2  0  0  0
  7 26  1  0  0  0
  7 29  1  0  0  0
  8  9  1  0  0  0
  8 22  1  0  0  0
  9 10  1  0  0  0
  9 27  2  0  0  0
 10 11  2  0  0  0
 10 15  1  0  0  0
 11 12  1  0  0  0
 11104  1  0  0  0
 12 13  2  0  0  0
 12105  1  0  0  0
 13 14  1  0  0  0
 13 31  1  0  0  0
 14 15  2  0  0  0
 14106  1  0  0  0
 15107  1  0  0  0
 16 17  2  0  0  0
 16 21  1  0  0  0
 16 31  1  0  0  0
 17 18  1  0  0  0
 17108  1  0  0  0
 18 19  2  0  0  0
 18109  1  0  0  0
 19 20  1  0  0  0
 19 24  1  0  0  0
 20 21  2  0  0  0
 20110  1  0  0  0
 21 23  1  0  0  0
 22 28  1  0  0  0
 22 32  2  0  0  0
 26 27  1  0  0  0
 28111  1  0  0  0
 28112  1  0  0  0
 29113  1  0  0  0
 29114  1  0  0  0
 33 34  1  0  0  0
 33 66  1  0  0  0
 33 70  2  0  0  0
 34 36  1  0  0  0
 34 59  1  0  0  0
 34115  1  0  0  0
 35 44  2  0  0  0
 35 45  1  0  0  0
 35 68  1  0  0  0
 36 56  1  0  0  0
 36116  1  0  0  0
 37 39  1  0  0  0
 37 47  1  0  0  0
 37 66  1  0  0  0
 37117  1  0  0  0
 38 43  2  0  0  0
 38 46  1  0  0  0
 38 47  1  0  0  0
 39 64  1  0  0  0
 39 67  2  0  0  0
 40 52  1  0  0  0
 40 53  2  0  0  0
 40 58  1  0  0  0
 41118  1  0  0  0
 41119  1  0  0  0
 41120  1  0  0  0
 41 48  1  0  0  0
 42 43  1  0  0  0
 42 66  1  0  0  0
 42121  1  0  0  0
 42122  1  0  0  0
 43 44  1  0  0  0
 44123  1  0  0  0
 45 46  2  0  0  0
 45124  1  0  0  0
 46125  1  0  0  0
 47126  1  0  0  0
 47127  1  0  0  0
 48 56  1  0  0  0
 48 65  1  0  0  0
 48128  1  0  0  0
 49 50  1  0  0  0
 49 53  1  0  0  0
 49 64  1  0  0  0
 49129  1  0  0  0
 50 51  1  0  0  0
 50130  1  0  0  0
 50131  1  0  0  0
 51 52  1  0  0  0
 51132  1  0  0  0
 51133  1  0  0  0
 52134  1  0  0  0
 52135  1  0  0  0
 53 54  1  0  0  0
 54 55  2  0  0  0
 54136  1  0  0  0
 55 57  1  0  0  0
 55137  1  0  0  0
 56 69  2  0  0  0
 57 58  2  0  0  0
 57138  1  0  0  0
 58139  1  0  0  0
 59 60  1  0  0  0
 59 61  1  0  0  0
 59 62  1  0  0  0
 60140  1  0  0  0
 60141  1  0  0  0
 60142  1  0  0  0
 61143  1  0  0  0
 61144  1  0  0  0
 61145  1  0  0  0
 62146  1  0  0  0
 62147  1  0  0  0
 62148  1  0  0  0
 63 65  1  0  0  0
 63149  1  0  0  0
 63150  1  0  0  0
 63151  1  0  0  0
 64152  1  0  0  0
 65153  1  0  0  0
 68 91  1  0  0  0
 71 72  2  0  0  0
 71 73  1  0  0  0
 71154  1  0  0  0
 72 74  1  0  0  0
 72155  1  0  0  0
 73 78  2  0  0  0
 73156  1  0  0  0
 74 79  2  0  0  0
 74157  1  0  0  0
 75 80  2  0  0  0
 75 81  1  0  0  0
 75158  1  0  0  0
 76 80  1  0  0  0
 76 82  2  0  0  0
 76159  1  0  0  0
 77 81  2  0  0  0
 77 82  1  0  0  0
 77160  1  0  0  0
 78 79  1  0  0  0
 78 83  1  0  0  0
 79 85  1  0  0  0
 80 87  1  0  0  0
 81 88  1  0  0  0
 82 89  1  0  0  0
 83 84  1  0  0  0
 83161  1  0  0  0
 83162  1  0  0  0
 84 86  1  0  0  0
 84163  1  0  0  0
 84164  1  0  0  0
 85 86  1  0  0  0
 85 93  1  0  0  0
 85165  1  0  0  0
 86 92  1  0  0  0
 86166  1  0  0  0
 87167  1  0  0  0
 87168  1  0  0  0
 87169  1  0  0  0
 88 93  1  0  0  0
 88170  1  0  0  0
 88171  1  0  0  0
 89 94  1  0  0  0
 89172  1  0  0  0
 89173  1  0  0  0
 90 91  1  0  0  0
 90 94  1  0  0  0
 90174  1  0  0  0
 90175  1  0  0  0
 91176  1  0  0  0
 91177  1  0  0  0
 92178  1  0  0  0
 93179  1  0  0  0
 93180  1  0  0  0
 94181  1  0  0  0
 94182  1  0  0  0
M  CHG  2  93   1  94   1
M  ISO  4   1 100  68 101  91 101  92 100
M  END
> <chiral flag>
0

> <version>
0

> <s_m_source_file>
/data/baiqing/PycharmProjects/Reinvent-master-3.2/result/LINK_invent/BTK/process_docking_weight1_custom_product_contain_oxygen_bond_distance_aromatic_linkinvent_7_9_3/rearranged_h_0004.sdf

> <i_m_source_file_index>
70

> <r_mmod_Potential_Energy-OPLS-2005>
-522.270568847656

> <r_mmod_Stretch_Energy-OPLS-2005>
35.4769592285156

> <r_mmod_Bend_Energy-OPLS-2005>
93.9630737304688

> <r_mmod_Torsional_Energy-OPLS-2005>
211.375640869141

> <r_mmod_Improper_Torsional_Energy-OPLS-2005>
2.70721173286438

> <r_mmod_Van_der_Waal_Energy-OPLS-2005>
160.97639465332

> <r_mmod_Electrostatic_Energy-OPLS-2005>
-123.954025268555

> <r_mmod_Solvation_Energy-OPLS-2005>
-910.486267089844

> <b_mmod_Minimization_Converged-OPLS-2005>
0

> <r_mmod_RMS_Derivative-OPLS-2005>
1.31904757022858

$$$$
70
                    3D
 Structure written by MMmdl.
166176  0  0  1  0            999 V2000
  -30.6258  -14.7328   20.5647 C   0  0  0  0  0  0
  -30.4380  -12.4732   19.4758 C   0  0  0  0  0  0
  -29.5156  -12.5408   18.2364 C   0  0  0  0  0  0
  -28.0394  -12.3535   18.6363 C   0  0  0  0  0  0
  -27.6459  -13.2287   19.8532 C   0  0  2  0  0  0
  -28.6803  -13.1062   20.9874 C   0  0  0  0  0  0
  -25.2537  -13.8176   20.5689 C   0  0  0  0  0  0
  -24.1813  -13.0436   20.9176 C   0  0  0  0  0  0
  -24.6399  -11.6909   20.8713 C   0  0  0  0  0  0
  -23.9068  -10.4293   21.0390 C   0  0  0  0  0  0
  -24.3620   -9.4211   21.9170 C   0  0  0  0  0  0
  -23.6293   -8.2245   22.0757 C   0  0  0  0  0  0
  -22.4271   -8.0283   21.3551 C   0  0  0  0  0  0
  -21.9904   -9.0253   20.4650 C   0  0  0  0  0  0
  -22.7237  -10.2128   20.3044 C   0  0  0  0  0  0
  -21.6846   -6.0733   22.5285 C   0  0  0  0  0  0
  -21.4017   -6.5640   23.8217 C   0  0  0  0  0  0
  -21.3663   -5.6795   24.9176 C   0  0  0  0  0  0
  -21.6045   -4.3058   24.7232 C   0  0  0  0  0  0
  -21.8821   -3.8148   23.4353 C   0  0  0  0  0  0
  -21.9197   -4.6964   22.3407 C   0  0  0  0  0  0
  -22.7836  -13.5222   21.1849 C   0  0  0  0  0  0
  -22.1665   -4.2150   21.0986 F   0  0  0  0  0  0
  -21.5622   -3.4545   25.7744 F   0  0  0  0  0  0
  -29.9910  -13.5063   20.4465 N   0  0  0  0  0  0
  -26.2951  -12.9379   20.3232 N   0  0  0  0  0  0
  -25.9322  -11.6524   20.5684 N   0  0  0  0  0  0
  -22.0486  -12.8212   22.0409 N   0  0  0  0  0  0
  -25.4280  -15.1885   20.4197 N   0  0  0  0  0  0
  -31.7388  -14.8785   20.0447 O   0  0  0  0  0  0
  -21.6639   -6.8876   21.4246 O   0  0  0  0  0  0
  -22.3517  -14.5532   20.6708 O   0  0  0  0  0  0
  -24.6331  -31.8546   23.1984 C   0  0  0  0  0  0
  -25.9150  -32.4750   23.8338 C   0  0  1  0  0  0
  -27.2209  -27.2518   20.1277 C   0  0  0  0  0  0
  -25.5942  -33.8551   24.2253 N   0  0  0  0  0  0
  -23.4308  -30.4773   21.5403 C   0  0  2  0  0  0
  -24.8802  -28.9274   20.1058 C   0  0  0  0  0  0
  -22.7495  -29.4609   22.4891 C   0  0  0  0  0  0
  -18.0305  -28.1387   22.8474 C   0  0  0  0  0  0
  -24.1491  -36.7282   23.2640 C   0  0  0  0  0  0
  -25.9785  -30.7628   21.3826 C   0  0  0  0  0  0
  -26.0510  -29.3859   20.7229 C   0  0  0  0  0  0
  -27.2232  -28.5605   20.7245 C   0  0  0  0  0  0
  -26.0305  -26.8762   19.4629 C   0  0  0  0  0  0
  -24.8767  -27.6833   19.4621 C   0  0  0  0  0  0
  -23.6505  -29.8129   20.1556 C   0  0  0  0  0  0
  -25.4121  -36.3065   24.0318 C   0  0  1  0  0  0
  -20.5904  -28.3706   23.1233 C   0  0  2  0  0  0
  -20.6788  -26.9432   22.5339 C   0  0  0  0  0  0
  -19.5746  -26.6416   21.5166 C   0  0  0  0  0  0
  -18.1945  -26.7923   22.1621 C   0  0  0  0  0  0
  -19.1556  -28.8862   23.2856 C   0  0  0  0  0  0
  -18.9469  -30.1455   23.8883 C   0  0  0  0  0  0
  -17.6476  -30.6575   24.0571 C   0  0  0  0  0  0
  -25.9058  -34.9435   23.5092 C   0  0  0  0  0  0
  -16.5366  -29.9078   23.6334 C   0  0  0  0  0  0
  -16.7292  -28.6497   23.0358 C   0  0  0  0  0  0
  -26.4513  -31.6579   25.0731 C   0  0  0  0  0  0
  -25.3713  -31.3736   26.1434 C   0  0  0  0  0  0
  -27.0367  -30.2992   24.6231 C   0  0  0  0  0  0
  -27.6054  -32.4329   25.7509 C   0  0  0  0  0  0
  -27.5580  -37.1794   24.8462 C   0  0  0  0  0  0
  -21.4209  -29.3041   22.3608 N   0  0  0  0  0  0
  -26.4294  -37.3764   23.9401 N   0  0  0  0  0  0
  -24.6996  -31.0502   22.0970 N   0  0  0  0  0  0
  -23.4165  -28.8171   23.3031 O   0  0  0  0  0  0
  -28.3048  -26.3378   20.2161 O   0  0  0  0  0  0
  -26.5624  -34.8913   22.4661 O   0  0  0  0  0  0
  -23.5478  -32.1367   23.7268 O   0  0  0  0  0  0
  -25.0588  -18.4227   17.9578 C   0  0  0  0  0  0
  -25.0331  -19.6681   18.6106 C   0  0  0  0  0  0
  -26.1624  -17.5655   18.1327 C   0  0  0  0  0  0
  -26.1305  -20.0822   19.3901 C   0  0  0  0  0  0
  -27.2570  -17.9581   18.9304 C   0  0  0  0  0  0
  -27.2762  -19.2584   19.5099 C   0  0  0  0  0  0
  -29.0254  -18.0441   20.1058 C   0  0  0  0  0  0
  -30.4857  -16.8287   23.2542 C   0  0  0  0  0  0
  -30.3817  -17.9785   22.2703 C   0  0  0  0  0  0
  -29.6922  -15.7141   22.5837 C   0  0  0  0  0  0
  -30.1830  -17.3343   20.8841 C   0  0  1  0  0  0
  -28.6413  -22.1418   19.9497 C   0  0  0  0  0  0
  -28.9675  -23.6393   20.4989 C   0  0  0  0  0  0
  -29.0635  -20.7271   20.6755 C   0  0  0  0  0  0
  -28.0683  -24.8729   19.9346 C   0  0  0  0  0  0
  -28.3451  -17.2197   19.3069 N   0  0  0  0  0  0
  -28.5490  -19.3880   20.1095 N   0  0  0  0  0  0
  -29.9625  -15.8192   21.1420 N   0  0  0  0  0  0
  -31.4776  -12.6113   19.1721 H   0  0  0  0  0  0
  -30.3979  -11.4825   19.9311 H   0  0  0  0  0  0
  -29.8074  -11.7850   17.5062 H   0  0  0  0  0  0
  -29.6392  -13.5067   17.7437 H   0  0  0  0  0  0
  -27.8899  -11.2995   18.8725 H   0  0  0  0  0  0
  -27.3877  -12.5697   17.7886 H   0  0  0  0  0  0
  -27.6555  -14.2631   19.5084 H   0  0  0  0  0  0
  -28.7196  -12.0812   21.3585 H   0  0  0  0  0  0
  -28.3571  -13.7052   21.8318 H   0  0  0  0  0  0
  -25.2764   -9.5694   22.4739 H   0  0  0  0  0  0
  -24.0017   -7.4640   22.7475 H   0  0  0  0  0  0
  -21.0829   -8.8757   19.8953 H   0  0  0  0  0  0
  -22.3686  -10.9661   19.6147 H   0  0  0  0  0  0
  -21.2009   -7.6149   23.9721 H   0  0  0  0  0  0
  -21.1479   -6.0524   25.9080 H   0  0  0  0  0  0
  -22.0596   -2.7612   23.2853 H   0  0  0  0  0  0
  -22.4117  -11.9886   22.4800 H   0  0  0  0  0  0
  -21.1107  -13.1241   22.2628 H   0  0  0  0  0  0
  -24.6581  -15.8435   20.5026 H   0  0  0  0  0  0
  -26.2874  -15.6239   20.1056 H   0  0  0  0  0  0
  -26.7214  -32.5400   23.1082 H   0  0  0  0  0  0
  -25.0097  -33.9683   25.0401 H   0  0  0  0  0  0
  -22.7283  -31.3004   21.3945 H   0  0  0  0  0  0
  -23.3753  -35.9614   23.3298 H   0  0  0  0  0  0
  -24.3579  -36.8909   22.2053 H   0  0  0  0  0  0
  -23.7241  -37.6481   23.6671 H   0  0  0  0  0  0
  -26.1218  -31.5228   20.6126 H   0  0  0  0  0  0
  -26.8556  -30.8097   22.0175 H   0  0  0  0  0  0
  -28.1166  -28.9036   21.2258 H   0  0  0  0  0  0
  -25.9541  -25.9326   18.9437 H   0  0  0  0  0  0
  -23.9834  -27.3343   18.9619 H   0  0  0  0  0  0
  -23.7732  -30.5886   19.3986 H   0  0  0  0  0  0
  -22.7697  -29.2409   19.8554 H   0  0  0  0  0  0
  -25.1303  -36.1919   25.0807 H   0  0  0  0  0  0
  -20.9986  -28.3282   24.1354 H   0  0  0  0  0  0
  -20.5702  -26.2301   23.3530 H   0  0  0  0  0  0
  -21.6649  -26.7501   22.1101 H   0  0  0  0  0  0
  -19.6899  -25.6361   21.1132 H   0  0  0  0  0  0
  -19.6635  -27.3254   20.6713 H   0  0  0  0  0  0
  -17.4178  -26.6633   21.4070 H   0  0  0  0  0  0
  -18.0392  -26.0073   22.9033 H   0  0  0  0  0  0
  -19.7925  -30.7304   24.2231 H   0  0  0  0  0  0
  -17.5045  -31.6261   24.5174 H   0  0  0  0  0  0
  -15.5373  -30.2998   23.7661 H   0  0  0  0  0  0
  -15.8697  -28.0794   22.7084 H   0  0  0  0  0  0
  -24.5900  -30.7085   25.7746 H   0  0  0  0  0  0
  -24.8903  -32.2911   26.4834 H   0  0  0  0  0  0
  -25.8008  -30.8921   27.0230 H   0  0  0  0  0  0
  -26.2963  -29.6734   24.1238 H   0  0  0  0  0  0
  -27.4024  -29.7270   25.4772 H   0  0  0  0  0  0
  -27.8859  -30.4274   23.9510 H   0  0  0  0  0  0
  -27.2655  -33.3639   26.2074 H   0  0  0  0  0  0
  -28.3878  -32.6875   25.0338 H   0  0  0  0  0  0
  -28.0721  -31.8465   26.5439 H   0  0  0  0  0  0
  -28.2590  -38.0096   24.7510 H   0  0  0  0  0  0
  -28.1081  -36.2623   24.6296 H   0  0  0  0  0  0
  -27.2289  -37.1451   25.8862 H   0  0  0  0  0  0
  -20.9420  -29.8686   21.6727 H   0  0  0  0  0  0
  -26.0172  -38.2837   24.1406 H   0  0  0  0  0  0
  -24.2159  -18.1073   17.3551 H   0  0  0  0  0  0
  -24.1637  -20.3090   18.5198 H   0  0  0  0  0  0
  -26.1615  -16.5822   17.6831 H   0  0  0  0  0  0
  -26.0243  -21.0097   19.9219 H   0  0  0  0  0  0
  -30.0988  -17.0837   24.2422 H   0  0  0  0  0  0
  -31.5283  -16.5279   23.3694 H   0  0  0  0  0  0
  -31.2468  -18.6413   22.3038 H   0  0  0  0  0  0
  -29.5086  -18.5713   22.5462 H   0  0  0  0  0  0
  -28.6234  -15.8593   22.7510 H   0  0  0  0  0  0
  -29.9624  -14.7514   23.0240 H   0  0  0  0  0  0
  -31.0990  -17.4517   20.3018 H   0  0  0  0  0  0
  -28.9795  -22.0927   18.9140 H   0  0  0  0  0  0
  -27.5692  -22.1884   19.8718 H   0  0  0  0  0  0
  -30.0189  -23.8549   20.3085 H   0  0  0  0  0  0
  -28.8676  -23.6310   21.5856 H   0  0  0  0  0  0
  -28.7428  -20.7697   21.7158 H   0  0  0  0  0  0
  -30.1527  -20.6662   20.7073 H   0  0  0  0  0  0
  -27.0636  -24.6317   20.2812 H   0  0  0  0  0  0
  -28.0418  -24.7755   18.8486 H   0  0  0  0  0  0
  1 25  1  0  0  0
  1 30  2  0  0  0
  1 88  1  0  0  0
  2  3  1  0  0  0
  2 25  1  0  0  0
  2 89  1  0  0  0
  2 90  1  0  0  0
  3  4  1  0  0  0
  3 91  1  0  0  0
  3 92  1  0  0  0
  4  5  1  0  0  0
  4 93  1  0  0  0
  4 94  1  0  0  0
  5  6  1  0  0  0
  5 26  1  0  0  0
  5 95  1  0  0  0
  6 25  1  0  0  0
  6 96  1  0  0  0
  6 97  1  0  0  0
  7  8  2  0  0  0
  7 26  1  0  0  0
  7 29  1  0  0  0
  8  9  1  0  0  0
  8 22  1  0  0  0
  9 10  1  0  0  0
  9 27  2  0  0  0
 10 11  2  0  0  0
 10 15  1  0  0  0
 11 12  1  0  0  0
 11 98  1  0  0  0
 12 13  2  0  0  0
 12 99  1  0  0  0
 13 14  1  0  0  0
 13 31  1  0  0  0
 14 15  2  0  0  0
 14100  1  0  0  0
 15101  1  0  0  0
 16 17  2  0  0  0
 16 21  1  0  0  0
 16 31  1  0  0  0
 17 18  1  0  0  0
 17102  1  0  0  0
 18 19  2  0  0  0
 18103  1  0  0  0
 19 20  1  0  0  0
 19 24  1  0  0  0
 20 21  2  0  0  0
 20104  1  0  0  0
 21 23  1  0  0  0
 22 28  1  0  0  0
 22 32  2  0  0  0
 26 27  1  0  0  0
 28105  1  0  0  0
 28106  1  0  0  0
 29107  1  0  0  0
 29108  1  0  0  0
 33 34  1  0  0  0
 33 66  1  0  0  0
 33 70  2  0  0  0
 34 36  1  0  0  0
 34 59  1  0  0  0
 34109  1  0  0  0
 35 44  2  0  0  0
 35 45  1  0  0  0
 35 68  1  0  0  0
 36 56  1  0  0  0
 36110  1  0  0  0
 37 39  1  0  0  0
 37 47  1  0  0  0
 37 66  1  0  0  0
 37111  1  0  0  0
 38 43  2  0  0  0
 38 46  1  0  0  0
 38 47  1  0  0  0
 39 64  1  0  0  0
 39 67  2  0  0  0
 40 52  1  0  0  0
 40 53  2  0  0  0
 40 58  1  0  0  0
 41112  1  0  0  0
 41113  1  0  0  0
 41114  1  0  0  0
 41 48  1  0  0  0
 42 43  1  0  0  0
 42 66  1  0  0  0
 42115  1  0  0  0
 42116  1  0  0  0
 43 44  1  0  0  0
 44117  1  0  0  0
 45 46  2  0  0  0
 45118  1  0  0  0
 46119  1  0  0  0
 47120  1  0  0  0
 47121  1  0  0  0
 48 56  1  0  0  0
 48 65  1  0  0  0
 48122  1  0  0  0
 49 50  1  0  0  0
 49 53  1  0  0  0
 49 64  1  0  0  0
 49123  1  0  0  0
 50 51  1  0  0  0
 50124  1  0  0  0
 50125  1  0  0  0
 51 52  1  0  0  0
 51126  1  0  0  0
 51127  1  0  0  0
 52128  1  0  0  0
 52129  1  0  0  0
 53 54  1  0  0  0
 54 55  2  0  0  0
 54130  1  0  0  0
 55 57  1  0  0  0
 55131  1  0  0  0
 56 69  2  0  0  0
 57 58  2  0  0  0
 57132  1  0  0  0
 58133  1  0  0  0
 59 60  1  0  0  0
 59 61  1  0  0  0
 59 62  1  0  0  0
 60134  1  0  0  0
 60135  1  0  0  0
 60136  1  0  0  0
 61137  1  0  0  0
 61138  1  0  0  0
 61139  1  0  0  0
 62140  1  0  0  0
 62141  1  0  0  0
 62142  1  0  0  0
 63 65  1  0  0  0
 63143  1  0  0  0
 63144  1  0  0  0
 63145  1  0  0  0
 64146  1  0  0  0
 65147  1  0  0  0
 68 85  1  0  0  0
 71 72  2  0  0  0
 71 73  1  0  0  0
 71148  1  0  0  0
 72 74  1  0  0  0
 72149  1  0  0  0
 73 75  2  0  0  0
 73150  1  0  0  0
 74 76  2  0  0  0
 74151  1  0  0  0
 75 76  1  0  0  0
 75 86  1  0  0  0
 76 87  1  0  0  0
 77 86  2  0  0  0
 77 87  1  0  0  0
 77 81  1  0  0  0
 78 79  1  0  0  0
 78 80  1  0  0  0
 78152  1  0  0  0
 78153  1  0  0  0
 79 81  1  0  0  0
 79154  1  0  0  0
 79155  1  0  0  0
 80 88  1  0  0  0
 80156  1  0  0  0
 80157  1  0  0  0
 81 88  1  0  0  0
 81158  1  0  0  0
 82 83  1  0  0  0
 82 84  1  0  0  0
 82159  1  0  0  0
 82160  1  0  0  0
 83 85  1  0  0  0
 83161  1  0  0  0
 83162  1  0  0  0
 84 87  1  0  0  0
 84163  1  0  0  0
 84164  1  0  0  0
 85165  1  0  0  0
 85166  1  0  0  0
M  ISO  4   1 100  68 101  85 101  88 100
M  END
> <chiral flag>
0

> <version>
0

> <s_m_source_file>
/data/baiqing/PycharmProjects/Reinvent-master-3.2/result/LINK_invent/BTK/process_docking_weight1_custom_product_contain_oxygen_bond_distance_aromatic_linkinvent_7_9_3/rearranged_h_0004.sdf

> <i_m_source_file_index>
71

> <r_mmod_Potential_Energy-OPLS-2005>
434.212066650391

> <r_mmod_Stretch_Energy-OPLS-2005>
159.957733154297

> <r_mmod_Bend_Energy-OPLS-2005>
227.49494934082

> <r_mmod_Torsional_Energy-OPLS-2005>
346.181793212891

> <r_mmod_Improper_Torsional_Energy-OPLS-2005>
7.08674001693726

> <r_mmod_Van_der_Waal_Energy-OPLS-2005>
135.859359741211

> <r_mmod_Electrostatic_Energy-OPLS-2005>
-334.158782958984

> <r_mmod_Solvation_Energy-OPLS-2005>
-192.379852294922

> <b_mmod_Minimization_Converged-OPLS-2005>
0

> <r_mmod_RMS_Derivative-OPLS-2005>
2.0713951587677

$$$$
71
                    3D
 Structure written by MMmdl.
184193  0  0  1  0            999 V2000
  -29.7060  -12.4266   21.4394 C   0  0  0  0  0  0
  -30.2686  -12.2434   19.0752 C   0  0  0  0  0  0
  -29.4774  -12.6846   17.8419 C   0  0  0  0  0  0
  -27.9286  -12.8867   18.0111 C   0  0  0  0  0  0
  -27.5361  -13.8337   19.2201 C   0  0  2  0  0  0
  -28.5845  -13.7259   20.2306 C   0  0  0  0  0  0
  -25.2146  -14.4684   20.3302 C   0  0  0  0  0  0
  -24.3485  -13.6533   20.9840 C   0  0  0  0  0  0
  -25.2013  -12.4550   20.9773 C   0  0  0  0  0  0
  -24.7843   -9.6669   20.9239 C   0  0  0  0  0  0
  -24.7762   -8.6983   21.9940 C   0  0  0  0  0  0
  -23.6767   -7.8758   22.3104 C   0  0  0  0  0  0
  -22.5191   -7.8396   21.5040 C   0  0  0  0  0  0
  -22.5076   -8.5626   20.3547 C   0  0  0  0  0  0
  -23.7958   -8.9718   19.9975 C   0  0  0  0  0  0
  -21.5745   -6.0392   22.6109 C   0  0  0  0  0  0
  -21.3049   -6.5078   23.9077 C   0  0  0  0  0  0
  -21.3244   -5.6130   24.9826 C   0  0  0  0  0  0
  -21.6004   -4.2552   24.7521 C   0  0  0  0  0  0
  -21.8898   -3.7876   23.4572 C   0  0  0  0  0  0
  -21.8805   -4.6836   22.3747 C   0  0  0  0  0  0
  -22.8644  -13.9834   21.2534 C   0  0  0  0  0  0
  -22.1508   -4.2359   21.1238 F   0  0  0  0  0  0
  -21.5741   -3.3940   25.7921 F   0  0  0  0  0  0
  -29.5819  -12.7682   20.2190 N   0  0  0  0  0  0
  -26.2333  -13.6752   19.9224 N   0  0  0  0  0  0
  -26.2287  -13.1523   21.1022 N   0  0  0  0  0  0
  -22.0807  -13.3241   22.1045 N   0  0  0  0  0  0
  -25.2839  -15.8063   20.1131 N   0  0  0  0  0  0
  -30.7507  -13.1106   21.7624 O   0  0  0  0  0  0
  -21.5177   -6.9290   21.5953 O   0  0  0  0  0  0
  -22.3517  -14.9355   20.7073 O   0  0  0  0  0  0
  -24.6155  -31.8686   23.2110 C   0  0  0  0  0  0
  -25.9046  -32.4833   23.8408 C   0  0  1  0  0  0
  -27.2560  -27.4672   20.0343 C   0  0  0  0  0  0
  -25.5919  -33.8630   24.2350 N   0  0  0  0  0  0
  -23.4003  -30.4919   21.5549 C   0  0  2  0  0  0
  -24.8433  -28.9512   20.1247 C   0  0  0  0  0  0
  -22.7399  -29.4664   22.5026 C   0  0  0  0  0  0
  -18.0270  -28.1377   22.8489 C   0  0  0  0  0  0
  -24.1513  -36.7350   23.2636 C   0  0  0  0  0  0
  -25.9263  -30.8386   21.3561 C   0  0  0  0  0  0
  -26.0064  -29.4711   20.7052 C   0  0  0  0  0  0
  -27.2125  -28.7342   20.6620 C   0  0  0  0  0  0
  -26.0578  -26.9337   19.5059 C   0  0  0  0  0  0
  -24.8584  -27.6714   19.5433 C   0  0  0  0  0  0
  -23.6077  -29.8223   20.1717 C   0  0  0  0  0  0
  -25.4125  -36.3125   24.0340 C   0  0  1  0  0  0
  -20.5859  -28.3664   23.1340 C   0  0  2  0  0  0
  -20.6767  -26.9406   22.5430 C   0  0  0  0  0  0
  -19.5753  -26.6398   21.5213 C   0  0  0  0  0  0
  -18.1921  -26.7933   22.1607 C   0  0  0  0  0  0
  -19.1517  -28.8830   23.2919 C   0  0  0  0  0  0
  -18.9442  -30.1433   23.8936 C   0  0  0  0  0  0
  -17.6443  -30.6576   24.0573 C   0  0  0  0  0  0
  -25.9032  -34.9480   23.5132 C   0  0  0  0  0  0
  -16.5339  -29.9082   23.6317 C   0  0  0  0  0  0
  -16.7260  -28.6504   23.0333 C   0  0  0  0  0  0
  -26.4479  -31.6602   25.0720 C   0  0  0  0  0  0
  -25.3765  -31.3725   26.1494 C   0  0  0  0  0  0
  -27.0268  -30.3039   24.6048 C   0  0  0  0  0  0
  -27.6096  -32.4288   25.7439 C   0  0  0  0  0  0
  -27.5599  -37.1835   24.8469 C   0  0  0  0  0  0
  -21.4129  -29.3040   22.3761 N   0  0  0  0  0  0
  -26.4327  -37.3794   23.9387 N   0  0  0  0  0  0
  -24.6664  -31.0791   22.1006 N   0  0  0  0  0  0
  -23.4178  -28.8193   23.3049 O   0  0  0  0  0  0
  -28.4612  -26.7941   19.9619 O   0  0  0  0  0  0
  -26.5568  -34.8925   22.4678 O   0  0  0  0  0  0
  -23.5355  -32.1421   23.7521 O   0  0  0  0  0  0
  -24.5442  -13.5119   16.3739 C   0  0  0  0  0  0
  -24.8745  -11.1470   19.1381 C   0  0  0  0  0  0
  -23.6833  -11.2255   22.1283 C   0  0  0  0  0  0
  -23.4949  -12.7550   16.9418 C   0  0  0  0  0  0
  -26.5044  -10.8302   19.8597 C   0  0  0  0  0  0
  -25.4679  -11.0243   22.7274 C   0  0  0  0  0  0
  -23.5355  -15.5483   17.2220 C   0  0  0  0  0  0
  -24.6298  -14.9063   16.6016 C   0  0  0  0  0  0
  -23.3656  -11.3621   20.2301 C   0  0  0  0  0  0
  -26.9095  -10.8745   21.5776 C   0  0  0  0  0  0
  -22.5511  -13.3644   17.7846 C   0  0  0  0  0  0
  -22.4926  -14.7786   17.7801 C   0  0  0  0  0  0
  -25.8434  -15.6788   16.1732 C   0  0  0  0  0  0
  -21.9894  -11.4982   19.4851 C   0  0  0  0  0  0
  -28.5606  -21.0069   17.4650 C   0  0  0  0  0  0
  -29.0166  -22.0193   18.5383 C   0  0  0  0  0  0
  -28.3349  -19.5525   17.9320 C   0  0  0  0  0  0
  -28.8442  -23.4883   18.0642 C   0  0  0  0  0  0
  -27.6934  -18.7076   16.8048 C   0  0  0  0  0  0
  -29.0516  -24.5422   19.1803 C   0  0  0  0  0  0
  -27.6025  -17.1920   17.0974 C   0  0  0  0  0  0
  -28.7431  -26.0078   18.7896 C   0  0  0  0  0  0
  -28.5217  -11.4966   21.9575 N   0  0  0  0  0  0
  -21.6475  -12.6409   18.5953 N   0  0  0  0  0  0
  -26.2483  -16.6332   17.0254 N   0  0  0  0  0  0
  -26.4840  -15.3551   15.1714 O   0  0  0  0  0  0
  -21.4201  -15.4060   18.3228 F   0  0  0  0  0  0
  -31.3109  -12.5790   19.0422 H   0  0  0  0  0  0
  -30.2734  -11.1513   19.1292 H   0  0  0  0  0  0
  -29.6832  -12.0063   17.0125 H   0  0  0  0  0  0
  -29.9038  -13.6438   17.5307 H   0  0  0  0  0  0
  -27.3921  -11.9669   17.8909 H   0  0  0  0  0  0
  -27.5945  -13.4116   17.1153 H   0  0  0  0  0  0
  -27.5535  -14.8479   18.8333 H   0  0  0  0  0  0
  -28.1066  -12.7672   20.1253 H   0  0  0  0  0  0
  -28.3663  -14.2988   21.1514 H   0  0  0  0  0  0
  -25.5493   -8.6654   22.7414 H   0  0  0  0  0  0
  -23.7725   -7.2450   23.1775 H   0  0  0  0  0  0
  -21.7257   -8.4122   19.6223 H   0  0  0  0  0  0
  -23.7631   -9.1765   18.9376 H   0  0  0  0  0  0
  -21.0768   -7.5492   24.0800 H   0  0  0  0  0  0
  -21.1075   -5.9560   25.9861 H   0  0  0  0  0  0
  -22.1237   -2.7458   23.2988 H   0  0  0  0  0  0
  -22.4677  -12.5220   22.5752 H   0  0  0  0  0  0
  -21.1333  -13.6198   22.2715 H   0  0  0  0  0  0
  -24.6271  -16.4192   20.5834 H   0  0  0  0  0  0
  -26.2090  -16.2017   20.0211 H   0  0  0  0  0  0
  -26.7110  -32.5540   23.1174 H   0  0  0  0  0  0
  -25.0145  -33.9803   25.0546 H   0  0  0  0  0  0
  -22.6892  -31.3089   21.4177 H   0  0  0  0  0  0
  -23.3747  -35.9715   23.3326 H   0  0  0  0  0  0
  -24.3616  -36.8922   22.2043 H   0  0  0  0  0  0
  -23.7295  -37.6586   23.6617 H   0  0  0  0  0  0
  -26.0262  -31.6041   20.5852 H   0  0  0  0  0  0
  -26.8203  -30.8995   21.9652 H   0  0  0  0  0  0
  -28.1192  -29.1509   21.0799 H   0  0  0  0  0  0
  -26.0392  -25.9460   19.0683 H   0  0  0  0  0  0
  -23.9554  -27.2450   19.1303 H   0  0  0  0  0  0
  -23.7264  -30.6000   19.4167 H   0  0  0  0  0  0
  -22.7282  -29.2527   19.8681 H   0  0  0  0  0  0
  -25.1303  -36.2018   25.0835 H   0  0  0  0  0  0
  -20.9938  -28.3221   24.1466 H   0  0  0  0  0  0
  -20.5669  -26.2269   23.3609 H   0  0  0  0  0  0
  -21.6642  -26.7454   22.1228 H   0  0  0  0  0  0
  -19.6923  -25.6315   21.1225 H   0  0  0  0  0  0
  -19.6705  -27.3226   20.6757 H   0  0  0  0  0  0
  -17.4210  -26.6702   21.3990 H   0  0  0  0  0  0
  -18.0303  -26.0056   22.8977 H   0  0  0  0  0  0
  -19.7914  -30.7237   24.2336 H   0  0  0  0  0  0
  -17.4996  -31.6253   24.5183 H   0  0  0  0  0  0
  -15.5341  -30.2995   23.7616 H   0  0  0  0  0  0
  -15.8667  -28.0836   22.7019 H   0  0  0  0  0  0
  -24.5981  -30.6989   25.7891 H   0  0  0  0  0  0
  -24.8899  -32.2876   26.4870 H   0  0  0  0  0  0
  -25.8159  -30.9004   27.0289 H   0  0  0  0  0  0
  -26.2766  -29.6809   24.1155 H   0  0  0  0  0  0
  -27.4109  -29.7261   25.4468 H   0  0  0  0  0  0
  -27.8583  -30.4362   23.9115 H   0  0  0  0  0  0
  -27.2747  -33.3544   26.2124 H   0  0  0  0  0  0
  -28.3827  -32.6909   25.0205 H   0  0  0  0  0  0
  -28.0856  -31.8345   26.5245 H   0  0  0  0  0  0
  -28.2687  -38.0061   24.7412 H   0  0  0  0  0  0
  -28.1022  -36.2591   24.6418 H   0  0  0  0  0  0
  -27.2317  -37.1646   25.8877 H   0  0  0  0  0  0
  -20.9280  -29.8799   21.7024 H   0  0  0  0  0  0
  -26.0237  -38.2900   24.1314 H   0  0  0  0  0  0
  -25.3145  -13.0025   15.8130 H   0  0  0  0  0  0
  -24.8251  -11.0515   18.0730 H   0  0  0  0  0  0
  -22.8767  -11.1585   22.8493 H   0  0  0  0  0  0
  -23.4492  -11.6916   16.7656 H   0  0  0  0  0  0
  -27.3620  -10.5985   19.2493 H   0  0  0  0  0  0
  -25.6602  -11.0680   23.7901 H   0  0  0  0  0  0
  -23.5053  -16.6275   17.3021 H   0  0  0  0  0  0
  -21.1902  -11.4454   20.2230 H   0  0  0  0  0  0
  -21.8826  -10.6184   18.8495 H   0  0  0  0  0  0
  -29.2815  -21.0103   16.6448 H   0  0  0  0  0  0
  -27.6187  -21.3538   17.0446 H   0  0  0  0  0  0
  -30.0587  -21.8282   18.8014 H   0  0  0  0  0  0
  -28.4415  -21.8648   19.4522 H   0  0  0  0  0  0
  -27.6744  -19.5377   18.7985 H   0  0  0  0  0  0
  -29.2776  -19.1062   18.2567 H   0  0  0  0  0  0
  -27.8309  -23.6045   17.6760 H   0  0  0  0  0  0
  -29.5096  -23.6903   17.2238 H   0  0  0  0  0  0
  -28.3084  -18.8356   15.9142 H   0  0  0  0  0  0
  -26.7161  -19.1163   16.5403 H   0  0  0  0  0  0
  -30.0745  -24.4880   19.5519 H   0  0  0  0  0  0
  -28.4070  -24.2758   20.0163 H   0  0  0  0  0  0
  -27.9792  -16.9835   18.0979 H   0  0  0  0  0  0
  -28.2769  -16.6577   16.4254 H   0  0  0  0  0  0
  -27.9620  -26.0648   18.0324 H   0  0  0  0  0  0
  -29.6151  -26.4429   18.2995 H   0  0  0  0  0  0
  -28.7236  -11.3316   22.9337 H   0  0  0  0  0  0
  -20.9566  -13.2679   19.0005 H   0  0  0  0  0  0
  -25.6484  -16.7671   17.8320 H   0  0  0  0  0  0
  1 25  1  0  0  0
  1 30  2  0  0  0
  1 93  1  0  0  0
  2  3  1  0  0  0
  2 25  1  0  0  0
  2 98  1  0  0  0
  2 99  1  0  0  0
  3  4  1  0  0  0
  3100  1  0  0  0
  3101  1  0  0  0
  4  5  1  0  0  0
  4102  1  0  0  0
  4103  1  0  0  0
  5  6  1  0  0  0
  5 26  1  0  0  0
  5104  1  0  0  0
  6 25  1  0  0  0
  6105  1  0  0  0
  6106  1  0  0  0
  7  8  2  0  0  0
  7 26  1  0  0  0
  7 29  1  0  0  0
  8  9  1  0  0  0
  8 22  1  0  0  0
  9 10  1  0  0  0
  9 27  2  0  0  0
 10 11  2  0  0  0
 10 15  1  0  0  0
 11 12  1  0  0  0
 11107  1  0  0  0
 12 13  2  0  0  0
 12108  1  0  0  0
 13 14  1  0  0  0
 13 31  1  0  0  0
 14 15  2  0  0  0
 14109  1  0  0  0
 15110  1  0  0  0
 16 17  2  0  0  0
 16 21  1  0  0  0
 16 31  1  0  0  0
 17 18  1  0  0  0
 17111  1  0  0  0
 18 19  2  0  0  0
 18112  1  0  0  0
 19 20  1  0  0  0
 19 24  1  0  0  0
 20 21  2  0  0  0
 20113  1  0  0  0
 21 23  1  0  0  0
 22 28  1  0  0  0
 22 32  2  0  0  0
 26 27  1  0  0  0
 28114  1  0  0  0
 28115  1  0  0  0
 29116  1  0  0  0
 29117  1  0  0  0
 33 34  1  0  0  0
 33 66  1  0  0  0
 33 70  2  0  0  0
 34 36  1  0  0  0
 34 59  1  0  0  0
 34118  1  0  0  0
 35 44  2  0  0  0
 35 45  1  0  0  0
 35 68  1  0  0  0
 36 56  1  0  0  0
 36119  1  0  0  0
 37 39  1  0  0  0
 37 47  1  0  0  0
 37 66  1  0  0  0
 37120  1  0  0  0
 38 43  2  0  0  0
 38 46  1  0  0  0
 38 47  1  0  0  0
 39 64  1  0  0  0
 39 67  2  0  0  0
 40 52  1  0  0  0
 40 53  2  0  0  0
 40 58  1  0  0  0
 41121  1  0  0  0
 41122  1  0  0  0
 41123  1  0  0  0
 41 48  1  0  0  0
 42 43  1  0  0  0
 42 66  1  0  0  0
 42124  1  0  0  0
 42125  1  0  0  0
 43 44  1  0  0  0
 44126  1  0  0  0
 45 46  2  0  0  0
 45127  1  0  0  0
 46128  1  0  0  0
 47129  1  0  0  0
 47130  1  0  0  0
 48 56  1  0  0  0
 48 65  1  0  0  0
 48131  1  0  0  0
 49 50  1  0  0  0
 49 53  1  0  0  0
 49 64  1  0  0  0
 49132  1  0  0  0
 50 51  1  0  0  0
 50133  1  0  0  0
 50134  1  0  0  0
 51 52  1  0  0  0
 51135  1  0  0  0
 51136  1  0  0  0
 52137  1  0  0  0
 52138  1  0  0  0
 53 54  1  0  0  0
 54 55  2  0  0  0
 54139  1  0  0  0
 55 57  1  0  0  0
 55140  1  0  0  0
 56 69  2  0  0  0
 57 58  2  0  0  0
 57141  1  0  0  0
 58142  1  0  0  0
 59 60  1  0  0  0
 59 61  1  0  0  0
 59 62  1  0  0  0
 60143  1  0  0  0
 60144  1  0  0  0
 60145  1  0  0  0
 61146  1  0  0  0
 61147  1  0  0  0
 61148  1  0  0  0
 62149  1  0  0  0
 62150  1  0  0  0
 62151  1  0  0  0
 63 65  1  0  0  0
 63152  1  0  0  0
 63153  1  0  0  0
 63154  1  0  0  0
 64155  1  0  0  0
 65156  1  0  0  0
 68 92  1  0  0  0
 71 74  2  0  0  0
 71 78  1  0  0  0
 71157  1  0  0  0
 72 75  2  0  0  0
 72 79  1  0  0  0
 72158  1  0  0  0
 73 76  1  0  0  0
 73 79  2  0  0  0
 73159  1  0  0  0
 74 81  1  0  0  0
 74160  1  0  0  0
 75 80  1  0  0  0
 75161  1  0  0  0
 76 80  2  0  0  0
 76162  1  0  0  0
 77 78  2  0  0  0
 77 82  1  0  0  0
 77163  1  0  0  0
 78 83  1  0  0  0
 79 84  1  0  0  0
 80 93  1  0  0  0
 81 82  2  0  0  0
 81 94  1  0  0  0
 82 97  1  0  0  0
 83 95  1  0  0  0
 83 96  2  0  0  0
 84 94  1  0  0  0
 84164  1  0  0  0
 84165  1  0  0  0
 85 86  1  0  0  0
 85 87  1  0  0  0
 85166  1  0  0  0
 85167  1  0  0  0
 86 88  1  0  0  0
 86168  1  0  0  0
 86169  1  0  0  0
 87 89  1  0  0  0
 87170  1  0  0  0
 87171  1  0  0  0
 88 90  1  0  0  0
 88172  1  0  0  0
 88173  1  0  0  0
 89 91  1  0  0  0
 89174  1  0  0  0
 89175  1  0  0  0
 90 92  1  0  0  0
 90176  1  0  0  0
 90177  1  0  0  0
 91 95  1  0  0  0
 91178  1  0  0  0
 91179  1  0  0  0
 92180  1  0  0  0
 92181  1  0  0  0
 93182  1  0  0  0
 94183  1  0  0  0
 95184  1  0  0  0
M  ISO  4   1 100  68 101  92 101  93 100
M  END
> <chiral flag>
0

> <version>
0

> <s_m_source_file>
/data/baiqing/PycharmProjects/Reinvent-master-3.2/result/LINK_invent/BTK/process_docking_weight1_custom_product_contain_oxygen_bond_distance_aromatic_linkinvent_7_9_3/rearranged_h_0004.sdf

> <i_m_source_file_index>
72

> <r_mmod_Potential_Energy-OPLS-2005>
12081.0849609375

> <r_mmod_Stretch_Energy-OPLS-2005>
5512.78662109375

> <r_mmod_Bend_Energy-OPLS-2005>
738.861083984375

> <r_mmod_Torsional_Energy-OPLS-2005>
734.262451171875

> <r_mmod_Improper_Torsional_Energy-OPLS-2005>
48.6092796325684

> <r_mmod_Van_der_Waal_Energy-OPLS-2005>
3006.00048828125

> <r_mmod_Electrostatic_Energy-OPLS-2005>
-463.396087646484

> <r_mmod_Solvation_Energy-OPLS-2005>
-211.018768310547

> <b_mmod_Minimization_Converged-OPLS-2005>
0

> <r_mmod_RMS_Derivative-OPLS-2005>
13.2860269546509

$$$$
72
                    3D
 Structure written by MMmdl.
159168  0  0  1  0            999 V2000
  -30.5557  -14.6343   20.5815 C   0  0  0  0  0  0
  -30.4794  -12.4190   19.4218 C   0  0  0  0  0  0
  -29.5192  -12.5401   18.2121 C   0  0  0  0  0  0
  -28.0381  -12.3695   18.6223 C   0  0  0  0  0  0
  -27.6692  -13.1918   19.8827 C   0  0  2  0  0  0
  -28.7197  -12.9454   20.9913 C   0  0  0  0  0  0
  -25.2626  -13.8084   20.5658 C   0  0  0  0  0  0
  -24.1860  -13.0396   20.9152 C   0  0  0  0  0  0
  -24.6392  -11.6853   20.8757 C   0  0  0  0  0  0
  -23.9044  -10.4282   21.0408 C   0  0  0  0  0  0
  -24.3630   -9.4204   21.9174 C   0  0  0  0  0  0
  -23.6320   -8.2238   22.0756 C   0  0  0  0  0  0
  -22.4301   -8.0267   21.3540 C   0  0  0  0  0  0
  -21.9913   -9.0230   20.4621 C   0  0  0  0  0  0
  -22.7229  -10.2110   20.3043 C   0  0  0  0  0  0
  -21.6842   -6.0724   22.5287 C   0  0  0  0  0  0
  -21.4000   -6.5626   23.8217 C   0  0  0  0  0  0
  -21.3678   -5.6780   24.9185 C   0  0  0  0  0  0
  -21.6073   -4.3053   24.7235 C   0  0  0  0  0  0
  -21.8836   -3.8143   23.4350 C   0  0  0  0  0  0
  -21.9193   -4.6966   22.3398 C   0  0  0  0  0  0
  -22.7890  -13.5203   21.1815 C   0  0  0  0  0  0
  -22.1672   -4.2144   21.0977 F   0  0  0  0  0  0
  -21.5624   -3.4540   25.7742 F   0  0  0  0  0  0
  -30.0354  -13.3675   20.4591 N   0  0  0  0  0  0
  -26.3075  -12.9230   20.3410 N   0  0  0  0  0  0
  -25.9336  -11.6410   20.5831 N   0  0  0  0  0  0
  -22.0523  -12.8227   22.0380 N   0  0  0  0  0  0
  -25.4314  -15.1811   20.4056 N   0  0  0  0  0  0
  -31.6538  -14.9449   20.1093 O   0  0  0  0  0  0
  -21.6631   -6.8881   21.4251 O   0  0  0  0  0  0
  -22.3605  -14.5517   20.6666 O   0  0  0  0  0  0
  -24.6222  -31.8614   23.2050 C   0  0  0  0  0  0
  -25.9087  -32.4796   23.8370 C   0  0  1  0  0  0
  -27.2375  -27.3539   20.1195 C   0  0  0  0  0  0
  -25.5915  -33.8603   24.2314 N   0  0  0  0  0  0
  -23.4141  -30.4794   21.5473 C   0  0  2  0  0  0
  -24.8617  -28.9250   20.1288 C   0  0  0  0  0  0
  -22.7457  -29.4614   22.4995 C   0  0  0  0  0  0
  -18.0280  -28.1367   22.8502 C   0  0  0  0  0  0
  -24.1492  -36.7288   23.2634 C   0  0  0  0  0  0
  -25.9489  -30.8020   21.3683 C   0  0  0  0  0  0
  -26.0261  -29.4249   20.7253 C   0  0  0  0  0  0
  -27.2165  -28.6494   20.7116 C   0  0  0  0  0  0
  -26.0526  -26.8791   19.5239 C   0  0  0  0  0  0
  -24.8731  -27.6552   19.5222 C   0  0  0  0  0  0
  -23.6286  -29.8044   20.1673 C   0  0  0  0  0  0
  -25.4108  -36.3110   24.0351 C   0  0  1  0  0  0
  -20.5876  -28.3653   23.1324 C   0  0  2  0  0  0
  -20.6796  -26.9386   22.5420 C   0  0  0  0  0  0
  -19.5783  -26.6376   21.5205 C   0  0  0  0  0  0
  -18.1943  -26.7919   22.1606 C   0  0  0  0  0  0
  -19.1536  -28.8823   23.2906 C   0  0  0  0  0  0
  -18.9448  -30.1420   23.8934 C   0  0  0  0  0  0
  -17.6456  -30.6584   24.0549 C   0  0  0  0  0  0
  -25.9055  -34.9468   23.5128 C   0  0  0  0  0  0
  -16.5345  -29.9089   23.6309 C   0  0  0  0  0  0
  -16.7269  -28.6490   23.0360 C   0  0  0  0  0  0
  -26.4473  -31.6580   25.0719 C   0  0  0  0  0  0
  -25.3704  -31.3681   26.1432 C   0  0  0  0  0  0
  -27.0298  -30.3036   24.6079 C   0  0  0  0  0  0
  -27.6080  -32.4240   25.7466 C   0  0  0  0  0  0
  -27.5585  -37.1796   24.8463 C   0  0  0  0  0  0
  -21.4184  -29.3008   22.3736 N   0  0  0  0  0  0
  -26.4303  -37.3788   23.9415 N   0  0  0  0  0  0
  -24.6806  -31.0645   22.0978 N   0  0  0  0  0  0
  -23.4190  -28.8146   23.3064 O   0  0  0  0  0  0
  -28.4073  -26.6102   20.0067 O   0  0  0  0  0  0
  -26.5618  -34.8932   22.4696 O   0  0  0  0  0  0
  -23.5402  -32.1365   23.7412 O   0  0  0  0  0  0
  -29.2207  -18.9634   20.0741 C   0  0  0  0  0  0
  -30.0142  -18.0550   20.8627 C   0  0  0  0  0  0
  -29.7812  -20.2233   20.1734 C   0  0  0  0  0  0
  -29.3632  -16.7725   21.3960 C   0  0  0  0  0  0
  -29.3145  -21.5691   19.5501 C   0  0  0  0  0  0
  -31.2248  -22.4280   21.9400 C   0  0  0  0  0  0
  -31.8193  -21.0351   21.5515 C   0  0  0  0  0  0
  -29.7013  -22.6299   21.7794 C   0  0  0  0  0  0
  -28.3793  -23.9528   20.0214 C   0  0  0  0  0  0
  -28.5741  -25.3559   20.7422 C   0  0  0  0  0  0
  -31.0230  -18.7393   21.4055 N   0  0  0  0  0  0
  -30.8676  -20.0491   21.0280 N   0  0  0  0  0  0
  -29.6598  -15.4624   21.1817 N   0  0  0  0  0  0
  -29.3978  -22.8575   20.3461 N   0  3  2  0  0  0
  -28.3640  -16.9702   22.0959 O   0  0  0  0  0  0
  -31.5059  -12.6214   19.1125 H   0  0  0  0  0  0
  -30.4843  -11.4010   19.8131 H   0  0  0  0  0  0
  -29.7807  -11.8108   17.4439 H   0  0  0  0  0  0
  -29.6462  -13.5196   17.7435 H   0  0  0  0  0  0
  -27.8589  -11.3089   18.8127 H   0  0  0  0  0  0
  -27.3887  -12.6384   17.7871 H   0  0  0  0  0  0
  -27.7063  -14.2429   19.5951 H   0  0  0  0  0  0
  -28.7417  -11.8892   21.2573 H   0  0  0  0  0  0
  -28.4484  -13.4463   21.9226 H   0  0  0  0  0  0
  -25.2773   -9.5669   22.4723 H   0  0  0  0  0  0
  -24.0017   -7.4625   22.7474 H   0  0  0  0  0  0
  -21.0827   -8.8718   19.8935 H   0  0  0  0  0  0
  -22.3657  -10.9648   19.6143 H   0  0  0  0  0  0
  -21.1981   -7.6136   23.9724 H   0  0  0  0  0  0
  -21.1498   -6.0495   25.9077 H   0  0  0  0  0  0
  -22.0607   -2.7599   23.2834 H   0  0  0  0  0  0
  -22.4147  -11.9900   22.4815 H   0  0  0  0  0  0
  -21.1138  -13.1260   22.2534 H   0  0  0  0  0  0
  -24.6578  -15.8297   20.5125 H   0  0  0  0  0  0
  -26.2879  -15.6342   20.1185 H   0  0  0  0  0  0
  -26.7159  -32.5506   23.1133 H   0  0  0  0  0  0
  -25.0105  -33.9743   25.0478 H   0  0  0  0  0  0
  -22.7071  -31.2975   21.4006 H   0  0  0  0  0  0
  -23.3796  -35.9574   23.3295 H   0  0  0  0  0  0
  -24.3602  -36.8902   22.2050 H   0  0  0  0  0  0
  -23.7189  -37.6471   23.6644 H   0  0  0  0  0  0
  -26.0650  -31.5610   20.5944 H   0  0  0  0  0  0
  -26.8369  -30.8625   21.9882 H   0  0  0  0  0  0
  -28.1229  -29.0412   21.1507 H   0  0  0  0  0  0
  -26.0418  -25.9112   19.0431 H   0  0  0  0  0  0
  -23.9805  -27.2693   19.0512 H   0  0  0  0  0  0
  -23.7512  -30.5747   19.4050 H   0  0  0  0  0  0
  -22.7509  -29.2316   19.8680 H   0  0  0  0  0  0
  -25.1274  -36.1988   25.0848 H   0  0  0  0  0  0
  -20.9930  -28.3221   24.1464 H   0  0  0  0  0  0
  -20.5696  -26.2252   23.3605 H   0  0  0  0  0  0
  -21.6659  -26.7451   22.1186 H   0  0  0  0  0  0
  -19.6946  -25.6283   21.1245 H   0  0  0  0  0  0
  -19.6744  -27.3188   20.6740 H   0  0  0  0  0  0
  -17.4207  -26.6671   21.4009 H   0  0  0  0  0  0
  -18.0348  -26.0039   22.8989 H   0  0  0  0  0  0
  -19.7916  -30.7213   24.2358 H   0  0  0  0  0  0
  -17.5007  -31.6281   24.5114 H   0  0  0  0  0  0
  -15.5348  -30.3000   23.7610 H   0  0  0  0  0  0
  -15.8673  -28.0807   22.7097 H   0  0  0  0  0  0
  -24.5878  -30.7050   25.7727 H   0  0  0  0  0  0
  -24.8882  -32.2847   26.4868 H   0  0  0  0  0  0
  -25.7995  -30.8825   27.0209 H   0  0  0  0  0  0
  -26.2846  -29.6818   24.1119 H   0  0  0  0  0  0
  -27.4084  -29.7246   25.4509 H   0  0  0  0  0  0
  -27.8678  -30.4384   23.9231 H   0  0  0  0  0  0
  -27.2763  -33.3529   26.2101 H   0  0  0  0  0  0
  -28.3869  -32.6786   25.0273 H   0  0  0  0  0  0
  -28.0769  -31.8305   26.5321 H   0  0  0  0  0  0
  -28.2591  -38.0110   24.7553 H   0  0  0  0  0  0
  -28.1105  -36.2651   24.6242 H   0  0  0  0  0  0
  -27.2325  -37.1373   25.8872 H   0  0  0  0  0  0
  -20.9379  -29.8726   21.6934 H   0  0  0  0  0  0
  -26.0219  -38.2870   24.1458 H   0  0  0  0  0  0
  -28.2920  -18.7335   19.5745 H   0  0  0  0  0  0
  -28.2881  -21.4350   19.2040 H   0  0  0  0  0  0
  -29.8930  -21.7411   18.6396 H   0  0  0  0  0  0
  -31.7398  -23.1953   21.3574 H   0  0  0  0  0  0
  -31.4913  -22.6559   22.9759 H   0  0  0  0  0  0
  -32.2909  -20.6076   22.4415 H   0  0  0  0  0  0
  -32.6337  -21.1456   20.8253 H   0  0  0  0  0  0
  -29.4062  -23.4942   22.3750 H   0  0  0  0  0  0
  -29.1234  -21.8029   22.1949 H   0  0  0  0  0  0
  -28.4134  -24.1229   18.9440 H   0  0  0  0  0  0
  -27.3687  -23.5947   20.2311 H   0  0  0  0  0  0
  -29.6150  -25.4049   21.0604 H   0  0  0  0  0  0
  -28.0016  -25.3859   21.6705 H   0  0  0  0  0  0
  -28.9251  -14.9066   21.5804 H   0  0  0  0  0  0
  -30.2606  -23.2616   20.0064 H   0  0  0  0  0  0
  1 25  1  0  0  0
  1 30  2  0  0  0
  1 83  1  0  0  0
  2  3  1  0  0  0
  2 25  1  0  0  0
  2 86  1  0  0  0
  2 87  1  0  0  0
  3  4  1  0  0  0
  3 88  1  0  0  0
  3 89  1  0  0  0
  4  5  1  0  0  0
  4 90  1  0  0  0
  4 91  1  0  0  0
  5  6  1  0  0  0
  5 26  1  0  0  0
  5 92  1  0  0  0
  6 25  1  0  0  0
  6 93  1  0  0  0
  6 94  1  0  0  0
  7  8  2  0  0  0
  7 26  1  0  0  0
  7 29  1  0  0  0
  8  9  1  0  0  0
  8 22  1  0  0  0
  9 10  1  0  0  0
  9 27  2  0  0  0
 10 11  2  0  0  0
 10 15  1  0  0  0
 11 12  1  0  0  0
 11 95  1  0  0  0
 12 13  2  0  0  0
 12 96  1  0  0  0
 13 14  1  0  0  0
 13 31  1  0  0  0
 14 15  2  0  0  0
 14 97  1  0  0  0
 15 98  1  0  0  0
 16 17  2  0  0  0
 16 21  1  0  0  0
 16 31  1  0  0  0
 17 18  1  0  0  0
 17 99  1  0  0  0
 18 19  2  0  0  0
 18100  1  0  0  0
 19 20  1  0  0  0
 19 24  1  0  0  0
 20 21  2  0  0  0
 20101  1  0  0  0
 21 23  1  0  0  0
 22 28  1  0  0  0
 22 32  2  0  0  0
 26 27  1  0  0  0
 28102  1  0  0  0
 28103  1  0  0  0
 29104  1  0  0  0
 29105  1  0  0  0
 33 34  1  0  0  0
 33 66  1  0  0  0
 33 70  2  0  0  0
 34 36  1  0  0  0
 34 59  1  0  0  0
 34106  1  0  0  0
 35 44  2  0  0  0
 35 45  1  0  0  0
 35 68  1  0  0  0
 36 56  1  0  0  0
 36107  1  0  0  0
 37 39  1  0  0  0
 37 47  1  0  0  0
 37 66  1  0  0  0
 37108  1  0  0  0
 38 43  2  0  0  0
 38 46  1  0  0  0
 38 47  1  0  0  0
 39 64  1  0  0  0
 39 67  2  0  0  0
 40 52  1  0  0  0
 40 53  2  0  0  0
 40 58  1  0  0  0
 41109  1  0  0  0
 41110  1  0  0  0
 41111  1  0  0  0
 41 48  1  0  0  0
 42 43  1  0  0  0
 42 66  1  0  0  0
 42112  1  0  0  0
 42113  1  0  0  0
 43 44  1  0  0  0
 44114  1  0  0  0
 45 46  2  0  0  0
 45115  1  0  0  0
 46116  1  0  0  0
 47117  1  0  0  0
 47118  1  0  0  0
 48 56  1  0  0  0
 48 65  1  0  0  0
 48119  1  0  0  0
 49 50  1  0  0  0
 49 53  1  0  0  0
 49 64  1  0  0  0
 49120  1  0  0  0
 50 51  1  0  0  0
 50121  1  0  0  0
 50122  1  0  0  0
 51 52  1  0  0  0
 51123  1  0  0  0
 51124  1  0  0  0
 52125  1  0  0  0
 52126  1  0  0  0
 53 54  1  0  0  0
 54 55  2  0  0  0
 54127  1  0  0  0
 55 57  1  0  0  0
 55128  1  0  0  0
 56 69  2  0  0  0
 57 58  2  0  0  0
 57129  1  0  0  0
 58130  1  0  0  0
 59 60  1  0  0  0
 59 61  1  0  0  0
 59 62  1  0  0  0
 60131  1  0  0  0
 60132  1  0  0  0
 60133  1  0  0  0
 61134  1  0  0  0
 61135  1  0  0  0
 61136  1  0  0  0
 62137  1  0  0  0
 62138  1  0  0  0
 62139  1  0  0  0
 63 65  1  0  0  0
 63140  1  0  0  0
 63141  1  0  0  0
 63142  1  0  0  0
 64143  1  0  0  0
 65144  1  0  0  0
 68 80  1  0  0  0
 71 72  1  0  0  0
 71 73  2  0  0  0
 71145  1  0  0  0
 72 74  1  0  0  0
 72 81  2  0  0  0
 73 75  1  0  0  0
 73 82  1  0  0  0
 74 83  1  0  0  0
 74 85  2  0  0  0
 75 84  1  0  0  0
 75146  1  0  0  0
 75147  1  0  0  0
 76 77  1  0  0  0
 76 78  1  0  0  0
 76148  1  0  0  0
 76149  1  0  0  0
 77 82  1  0  0  0
 77150  1  0  0  0
 77151  1  0  0  0
 78 84  1  0  0  0
 78152  1  0  0  0
 78153  1  0  0  0
 79 80  1  0  0  0
 79154  1  0  0  0
 79155  1  0  0  0
 79 84  1  0  0  0
 80156  1  0  0  0
 80157  1  0  0  0
 81 82  1  0  0  0
 83158  1  0  0  0
 84159  1  0  0  0
M  CHG  1  84   1
M  ISO  4   1 100  68 101  80 101  83 100
M  END
> <chiral flag>
0

> <version>
0

> <s_m_source_file>
/data/baiqing/PycharmProjects/Reinvent-master-3.2/result/LINK_invent/BTK/process_docking_weight1_custom_product_contain_oxygen_bond_distance_aromatic_linkinvent_7_9_3/rearranged_h_0004.sdf

> <i_m_source_file_index>
73

> <r_mmod_Potential_Energy-OPLS-2005>
-19.5960521697998

> <r_mmod_Stretch_Energy-OPLS-2005>
69.3810729980469

> <r_mmod_Bend_Energy-OPLS-2005>
233.944274902344

> <r_mmod_Torsional_Energy-OPLS-2005>
310.008483886719

> <r_mmod_Improper_Torsional_Energy-OPLS-2005>
10.3197050094604

> <r_mmod_Van_der_Waal_Energy-OPLS-2005>
123.632194519043

> <r_mmod_Electrostatic_Energy-OPLS-2005>
-347.997924804688

> <r_mmod_Solvation_Energy-OPLS-2005>
-461.216552734375

> <b_mmod_Minimization_Converged-OPLS-2005>
0

> <r_mmod_RMS_Derivative-OPLS-2005>
5.45584058761597

$$$$
73
                    3D
 Structure written by MMmdl.
147155  0  0  1  0            999 V2000
  -30.4751  -15.1823   20.3805 C   0  0  0  0  0  0
  -30.4354  -12.7503   19.5208 C   0  0  0  0  0  0
  -29.5293  -12.5597   18.2802 C   0  0  0  0  0  0
  -28.0737  -12.3019   18.7063 C   0  0  0  0  0  0
  -27.6140  -13.2691   19.8262 C   0  0  2  0  0  0
  -28.6501  -13.4142   20.9608 C   0  0  0  0  0  0
  -25.2396  -13.8243   20.5741 C   0  0  0  0  0  0
  -24.1743  -13.0438   20.9256 C   0  0  0  0  0  0
  -24.6391  -11.6934   20.8765 C   0  0  0  0  0  0
  -23.9084  -10.4293   21.0410 C   0  0  0  0  0  0
  -24.3633   -9.4206   21.9185 C   0  0  0  0  0  0
  -23.6307   -8.2242   22.0750 C   0  0  0  0  0  0
  -22.4286   -8.0281   21.3544 C   0  0  0  0  0  0
  -21.9928   -9.0255   20.4643 C   0  0  0  0  0  0
  -22.7259  -10.2134   20.3055 C   0  0  0  0  0  0
  -21.6855   -6.0739   22.5281 C   0  0  0  0  0  0
  -21.4015   -6.5642   23.8214 C   0  0  0  0  0  0
  -21.3659   -5.6794   24.9175 C   0  0  0  0  0  0
  -21.6045   -4.3055   24.7226 C   0  0  0  0  0  0
  -21.8819   -3.8149   23.4346 C   0  0  0  0  0  0
  -21.9196   -4.6968   22.3404 C   0  0  0  0  0  0
  -22.7761  -13.5192   21.1912 C   0  0  0  0  0  0
  -22.1663   -4.2153   21.0981 F   0  0  0  0  0  0
  -21.5631   -3.4538   25.7738 F   0  0  0  0  0  0
  -29.8927  -13.8922   20.3375 N   0  0  0  0  0  0
  -26.2822  -12.9509   20.3229 N   0  0  0  0  0  0
  -25.9325  -11.6618   20.5732 N   0  0  0  0  0  0
  -22.0426  -12.8163   22.0464 N   0  0  0  0  0  0
  -25.4030  -15.1977   20.4173 N   0  0  0  0  0  0
  -31.6935  -15.1828   20.1597 O   0  0  0  0  0  0
  -21.6644   -6.8882   21.4241 O   0  0  0  0  0  0
  -22.3438  -14.5497   20.6759 O   0  0  0  0  0  0
  -24.6588  -31.8286   23.1761 C   0  0  0  0  0  0
  -25.9293  -32.4618   23.8201 C   0  0  1  0  0  0
  -27.2114  -26.9740   20.1745 C   0  0  0  0  0  0
  -25.5981  -33.8429   24.2108 N   0  0  0  0  0  0
  -23.4707  -30.4443   21.5237 C   0  0  2  0  0  0
  -24.9232  -28.8455   20.1093 C   0  0  0  0  0  0
  -22.7642  -29.4472   22.4790 C   0  0  0  0  0  0
  -18.0320  -28.1410   22.8475 C   0  0  0  0  0  0
  -24.1486  -36.7203   23.2645 C   0  0  0  0  0  0
  -26.0381  -30.6502   21.4006 C   0  0  0  0  0  0
  -26.1063  -29.2463   20.7427 C   0  0  0  0  0  0
  -27.2474  -28.3300   20.7549 C   0  0  0  0  0  0
  -26.0015  -26.7223   19.4877 C   0  0  0  0  0  0
  -24.8939  -27.6023   19.4623 C   0  0  0  0  0  0
  -23.7077  -29.7672   20.1472 C   0  0  0  0  0  0
  -25.4125  -36.2979   24.0306 C   0  0  1  0  0  0
  -20.5944  -28.3749   23.1193 C   0  0  2  0  0  0
  -20.6796  -26.9435   22.5401 C   0  0  0  0  0  0
  -19.5767  -26.6385   21.5213 C   0  0  0  0  0  0
  -18.1950  -26.7945   22.1627 C   0  0  0  0  0  0
  -19.1582  -28.8900   23.2826 C   0  0  0  0  0  0
  -18.9495  -30.1489   23.8861 C   0  0  0  0  0  0
  -17.6490  -30.6605   24.0555 C   0  0  0  0  0  0
  -25.9093  -34.9366   23.5024 C   0  0  0  0  0  0
  -16.5377  -29.9094   23.6348 C   0  0  0  0  0  0
  -16.7304  -28.6512   23.0375 C   0  0  0  0  0  0
  -26.4558  -31.6552   25.0712 C   0  0  0  0  0  0
  -25.3702  -31.3799   26.1381 C   0  0  0  0  0  0
  -27.0443  -30.2921   24.6420 C   0  0  0  0  0  0
  -27.6054  -32.4355   25.7514 C   0  0  0  0  0  0
  -27.5563  -37.1755   24.8468 C   0  0  0  0  0  0
  -21.4319  -29.3048   22.3543 N   0  0  0  0  0  0
  -26.4267  -37.3717   23.9420 N   0  0  0  0  0  0
  -24.7433  -30.9997   22.0872 N   0  0  0  0  0  0
  -23.4214  -28.8031   23.3007 O   0  0  0  0  0  0
  -28.1962  -25.8671   20.2637 O   0  0  0  0  0  0
  -26.5687  -34.8895   22.4609 O   0  0  0  0  0  0
  -23.5671  -32.1232   23.6885 O   0  0  0  0  0  0
  -28.2774  -20.1783   20.9076 C   0  0  0  0  0  0
  -30.1456  -20.7584   19.6963 C   0  0  0  0  0  0
  -27.8545  -21.6057   20.8710 C   0  0  0  0  0  0
  -29.7223  -22.1796   19.6571 C   0  0  0  0  0  0
  -29.4725  -19.6132   20.3050 C   0  0  0  0  0  0
  -28.5298  -22.7500   20.2537 C   0  0  0  0  0  0
  -30.1825  -18.0265   20.3361 C   0  0  0  0  0  0
  -27.8040  -24.3101   20.0193 C   0  0  0  0  0  0
  -29.7353  -16.4509   20.4631 N   0  0  0  0  0  0
  -31.4594  -12.9371   19.1947 H   0  0  0  0  0  0
  -30.4796  -11.8355   20.1142 H   0  0  0  0  0  0
  -29.8932  -11.7354   17.6652 H   0  0  0  0  0  0
  -29.5747  -13.4531   17.6556 H   0  0  0  0  0  0
  -28.0144  -11.2735   19.0644 H   0  0  0  0  0  0
  -27.4061  -12.3652   17.8463 H   0  0  0  0  0  0
  -27.5393  -14.2436   19.3423 H   0  0  0  0  0  0
  -28.7973  -12.4727   21.4919 H   0  0  0  0  0  0
  -28.3051  -14.1392   21.6999 H   0  0  0  0  0  0
  -25.2775   -9.5686   22.4766 H   0  0  0  0  0  0
  -24.0018   -7.4629   22.7465 H   0  0  0  0  0  0
  -21.0861   -8.8777   19.8943 H   0  0  0  0  0  0
  -22.3716  -10.9677   19.6168 H   0  0  0  0  0  0
  -21.2001   -7.6149   23.9719 H   0  0  0  0  0  0
  -21.1482   -6.0522   25.9080 H   0  0  0  0  0  0
  -22.0598   -2.7611   23.2844 H   0  0  0  0  0  0
  -22.4066  -11.9826   22.4836 H   0  0  0  0  0  0
  -21.1039  -13.1162   22.2684 H   0  0  0  0  0  0
  -24.6307  -15.8462   20.5268 H   0  0  0  0  0  0
  -26.2426  -15.6401   20.0678 H   0  0  0  0  0  0
  -26.7360  -32.5170   23.0915 H   0  0  0  0  0  0
  -25.0108  -33.9519   25.0247 H   0  0  0  0  0  0
  -22.7817  -31.2753   21.3586 H   0  0  0  0  0  0
  -23.3765  -35.9516   23.3288 H   0  0  0  0  0  0
  -24.3561  -36.8862   22.2063 H   0  0  0  0  0  0
  -23.7225  -37.6381   23.6704 H   0  0  0  0  0  0
  -26.2147  -31.3959   20.6243 H   0  0  0  0  0  0
  -26.8998  -30.7033   22.0539 H   0  0  0  0  0  0
  -28.1398  -28.6311   21.2848 H   0  0  0  0  0  0
  -25.8646  -25.7763   18.9864 H   0  0  0  0  0  0
  -23.9957  -27.2900   18.9472 H   0  0  0  0  0  0
  -23.8604  -30.5388   19.3918 H   0  0  0  0  0  0
  -22.8182  -29.2207   19.8291 H   0  0  0  0  0  0
  -25.1322  -36.1770   25.0795 H   0  0  0  0  0  0
  -21.0038  -28.3354   24.1314 H   0  0  0  0  0  0
  -20.5671  -26.2370   23.3639 H   0  0  0  0  0  0
  -21.6659  -26.7417   22.1202 H   0  0  0  0  0  0
  -19.6920  -25.6286   21.1269 H   0  0  0  0  0  0
  -19.6698  -27.3172   20.6723 H   0  0  0  0  0  0
  -17.4213  -26.6691   21.4036 H   0  0  0  0  0  0
  -18.0346  -26.0100   22.9037 H   0  0  0  0  0  0
  -19.7970  -30.7314   24.2214 H   0  0  0  0  0  0
  -17.5045  -31.6283   24.5161 H   0  0  0  0  0  0
  -15.5376  -30.2985   23.7697 H   0  0  0  0  0  0
  -15.8703  -28.0812   22.7124 H   0  0  0  0  0  0
  -24.5887  -30.7140   25.7706 H   0  0  0  0  0  0
  -24.8887  -32.3001   26.4697 H   0  0  0  0  0  0
  -25.7949  -30.9045   27.0232 H   0  0  0  0  0  0
  -26.3101  -29.6613   24.1393 H   0  0  0  0  0  0
  -27.3950  -29.7270   25.5066 H   0  0  0  0  0  0
  -27.9059  -30.4114   23.9849 H   0  0  0  0  0  0
  -27.2623  -33.3701   26.1969 H   0  0  0  0  0  0
  -28.3933  -32.6842   25.0392 H   0  0  0  0  0  0
  -28.0644  -31.8559   26.5535 H   0  0  0  0  0  0
  -28.2564  -38.0066   24.7527 H   0  0  0  0  0  0
  -28.1075  -36.2596   24.6281 H   0  0  0  0  0  0
  -27.2284  -37.1386   25.8872 H   0  0  0  0  0  0
  -20.9555  -29.8749   21.6692 H   0  0  0  0  0  0
  -26.0113  -38.2769   24.1454 H   0  0  0  0  0  0
  -27.6291  -19.4927   21.4361 H   0  0  0  0  0  0
  -31.0814  -20.5404   19.1999 H   0  0  0  0  0  0
  -26.9033  -21.8209   21.3381 H   0  0  0  0  0  0
  -30.3513  -22.8578   19.0974 H   0  0  0  0  0  0
  -30.9305  -18.1209   21.1241 H   0  0  0  0  0  0
  -30.7794  -18.0194   19.4234 H   0  0  0  0  0  0
  -26.8452  -24.2068   20.5276 H   0  0  0  0  0  0
  -27.5507  -24.2802   18.9596 H   0  0  0  0  0  0
  -28.7435  -16.3219   20.5965 H   0  0  0  0  0  0
  1 25  1  0  0  0
  1 30  2  0  0  0
  1 79  1  0  0  0
  2  3  1  0  0  0
  2 25  1  0  0  0
  2 80  1  0  0  0
  2 81  1  0  0  0
  3  4  1  0  0  0
  3 82  1  0  0  0
  3 83  1  0  0  0
  4  5  1  0  0  0
  4 84  1  0  0  0
  4 85  1  0  0  0
  5  6  1  0  0  0
  5 26  1  0  0  0
  5 86  1  0  0  0
  6 25  1  0  0  0
  6 87  1  0  0  0
  6 88  1  0  0  0
  7  8  2  0  0  0
  7 26  1  0  0  0
  7 29  1  0  0  0
  8  9  1  0  0  0
  8 22  1  0  0  0
  9 10  1  0  0  0
  9 27  2  0  0  0
 10 11  2  0  0  0
 10 15  1  0  0  0
 11 12  1  0  0  0
 11 89  1  0  0  0
 12 13  2  0  0  0
 12 90  1  0  0  0
 13 14  1  0  0  0
 13 31  1  0  0  0
 14 15  2  0  0  0
 14 91  1  0  0  0
 15 92  1  0  0  0
 16 17  2  0  0  0
 16 21  1  0  0  0
 16 31  1  0  0  0
 17 18  1  0  0  0
 17 93  1  0  0  0
 18 19  2  0  0  0
 18 94  1  0  0  0
 19 20  1  0  0  0
 19 24  1  0  0  0
 20 21  2  0  0  0
 20 95  1  0  0  0
 21 23  1  0  0  0
 22 28  1  0  0  0
 22 32  2  0  0  0
 26 27  1  0  0  0
 28 96  1  0  0  0
 28 97  1  0  0  0
 29 98  1  0  0  0
 29 99  1  0  0  0
 33 34  1  0  0  0
 33 66  1  0  0  0
 33 70  2  0  0  0
 34 36  1  0  0  0
 34 59  1  0  0  0
 34100  1  0  0  0
 35 44  2  0  0  0
 35 45  1  0  0  0
 35 68  1  0  0  0
 36 56  1  0  0  0
 36101  1  0  0  0
 37 39  1  0  0  0
 37 47  1  0  0  0
 37 66  1  0  0  0
 37102  1  0  0  0
 38 43  2  0  0  0
 38 46  1  0  0  0
 38 47  1  0  0  0
 39 64  1  0  0  0
 39 67  2  0  0  0
 40 52  1  0  0  0
 40 53  2  0  0  0
 40 58  1  0  0  0
 41103  1  0  0  0
 41104  1  0  0  0
 41105  1  0  0  0
 41 48  1  0  0  0
 42 43  1  0  0  0
 42 66  1  0  0  0
 42106  1  0  0  0
 42107  1  0  0  0
 43 44  1  0  0  0
 44108  1  0  0  0
 45 46  2  0  0  0
 45109  1  0  0  0
 46110  1  0  0  0
 47111  1  0  0  0
 47112  1  0  0  0
 48 56  1  0  0  0
 48 65  1  0  0  0
 48113  1  0  0  0
 49 50  1  0  0  0
 49 53  1  0  0  0
 49 64  1  0  0  0
 49114  1  0  0  0
 50 51  1  0  0  0
 50115  1  0  0  0
 50116  1  0  0  0
 51 52  1  0  0  0
 51117  1  0  0  0
 51118  1  0  0  0
 52119  1  0  0  0
 52120  1  0  0  0
 53 54  1  0  0  0
 54 55  2  0  0  0
 54121  1  0  0  0
 55 57  1  0  0  0
 55122  1  0  0  0
 56 69  2  0  0  0
 57 58  2  0  0  0
 57123  1  0  0  0
 58124  1  0  0  0
 59 60  1  0  0  0
 59 61  1  0  0  0
 59 62  1  0  0  0
 60125  1  0  0  0
 60126  1  0  0  0
 60127  1  0  0  0
 61128  1  0  0  0
 61129  1  0  0  0
 61130  1  0  0  0
 62131  1  0  0  0
 62132  1  0  0  0
 62133  1  0  0  0
 63 65  1  0  0  0
 63134  1  0  0  0
 63135  1  0  0  0
 63136  1  0  0  0
 64137  1  0  0  0
 65138  1  0  0  0
 68 78  1  0  0  0
 71 73  2  0  0  0
 71 75  1  0  0  0
 71139  1  0  0  0
 72 74  1  0  0  0
 72 75  2  0  0  0
 72140  1  0  0  0
 73 76  1  0  0  0
 73141  1  0  0  0
 74 76  2  0  0  0
 74142  1  0  0  0
 75 77  1  0  0  0
 76 78  1  0  0  0
 77 79  1  0  0  0
 77143  1  0  0  0
 77144  1  0  0  0
 78145  1  0  0  0
 78146  1  0  0  0
 79147  1  0  0  0
M  ISO  4   1 100  68 101  78 101  79 100
M  END
> <chiral flag>
0

> <version>
0

> <s_m_source_file>
/data/baiqing/PycharmProjects/Reinvent-master-3.2/result/LINK_invent/BTK/process_docking_weight1_custom_product_contain_oxygen_bond_distance_aromatic_linkinvent_7_9_3/rearranged_h_0004.sdf

> <i_m_source_file_index>
74

> <r_mmod_Potential_Energy-OPLS-2005>
1015.4599609375

> <r_mmod_Stretch_Energy-OPLS-2005>
443.456787109375

> <r_mmod_Bend_Energy-OPLS-2005>
422.297058105469

> <r_mmod_Torsional_Energy-OPLS-2005>
215.021911621094

> <r_mmod_Improper_Torsional_Energy-OPLS-2005>
7.18429374694824

> <r_mmod_Van_der_Waal_Energy-OPLS-2005>
133.087112426758

> <r_mmod_Electrostatic_Energy-OPLS-2005>
-379.332244873047

> <r_mmod_Solvation_Energy-OPLS-2005>
-213.699493408203

> <b_mmod_Minimization_Converged-OPLS-2005>
0

> <r_mmod_RMS_Derivative-OPLS-2005>
0.623550474643707

$$$$
74
                    3D
 Structure written by MMmdl.
152160  0  0  1  0            999 V2000
  -30.5613  -14.7514   20.4347 C   0  0  0  0  0  0
  -30.4328  -12.4517   19.4623 C   0  0  0  0  0  0
  -29.5077  -12.4852   18.2258 C   0  0  0  0  0  0
  -28.0287  -12.3260   18.6325 C   0  0  0  0  0  0
  -27.6379  -13.2196   19.8439 C   0  0  2  0  0  0
  -28.6814  -13.1440   20.9759 C   0  0  0  0  0  0
  -25.2535  -13.8167   20.5648 C   0  0  0  0  0  0
  -24.1830  -13.0438   20.9216 C   0  0  0  0  0  0
  -24.6400  -11.6914   20.8796 C   0  0  0  0  0  0
  -23.9079  -10.4296   21.0443 C   0  0  0  0  0  0
  -24.3639   -9.4196   21.9188 C   0  0  0  0  0  0
  -23.6286   -8.2236   22.0745 C   0  0  0  0  0  0
  -22.4280   -8.0293   21.3521 C   0  0  0  0  0  0
  -21.9917   -9.0299   20.4647 C   0  0  0  0  0  0
  -22.7254  -10.2168   20.3075 C   0  0  0  0  0  0
  -21.6862   -6.0779   22.5285 C   0  0  0  0  0  0
  -21.4026   -6.5673   23.8225 C   0  0  0  0  0  0
  -21.3642   -5.6815   24.9178 C   0  0  0  0  0  0
  -21.6026   -4.3079   24.7215 C   0  0  0  0  0  0
  -21.8819   -3.8182   23.4345 C   0  0  0  0  0  0
  -21.9194   -4.6999   22.3405 C   0  0  0  0  0  0
  -22.7869  -13.5265   21.1859 C   0  0  0  0  0  0
  -22.1665   -4.2187   21.0971 F   0  0  0  0  0  0
  -21.5603   -3.4553   25.7712 F   0  0  0  0  0  0
  -29.9731  -13.5100   20.3867 N   0  0  0  0  0  0
  -26.2930  -12.9321   20.3232 N   0  0  0  0  0  0
  -25.9322  -11.6493   20.5765 N   0  0  0  0  0  0
  -22.0506  -12.8298   22.0406 N   0  0  0  0  0  0
  -25.4246  -15.1887   20.4033 N   0  0  0  0  0  0
  -31.7713  -14.8583   20.1957 O   0  0  0  0  0  0
  -21.6620   -6.8916   21.4233 O   0  0  0  0  0  0
  -22.3570  -14.5559   20.6670 O   0  0  0  0  0  0
  -24.6352  -31.8520   23.1969 C   0  0  0  0  0  0
  -25.9150  -32.4750   23.8338 C   0  0  1  0  0  0
  -27.2222  -27.2570   20.1083 C   0  0  0  0  0  0
  -25.5940  -33.8559   24.2261 N   0  0  0  0  0  0
  -23.4319  -30.4784   21.5405 C   0  0  2  0  0  0
  -24.8738  -28.9200   20.1134 C   0  0  0  0  0  0
  -22.7515  -29.4617   22.4903 C   0  0  0  0  0  0
  -18.0291  -28.1350   22.8458 C   0  0  0  0  0  0
  -24.1475  -36.7301   23.2633 C   0  0  0  0  0  0
  -25.9799  -30.7652   21.3736 C   0  0  0  0  0  0
  -26.0490  -29.3894   20.7108 C   0  0  0  0  0  0
  -27.2230  -28.5695   20.6964 C   0  0  0  0  0  0
  -26.0089  -26.8437   19.5131 C   0  0  0  0  0  0
  -24.8568  -27.6539   19.5106 C   0  0  0  0  0  0
  -23.6491  -29.8110   20.1582 C   0  0  0  0  0  0
  -25.4102  -36.3092   24.0338 C   0  0  1  0  0  0
  -20.5891  -28.3700   23.1228 C   0  0  2  0  0  0
  -20.6772  -26.9410   22.5387 C   0  0  0  0  0  0
  -19.5755  -26.6359   21.5180 C   0  0  0  0  0  0
  -18.1943  -26.7888   22.1606 C   0  0  0  0  0  0
  -19.1536  -28.8840   23.2840 C   0  0  0  0  0  0
  -18.9464  -30.1432   23.8868 C   0  0  0  0  0  0
  -17.6465  -30.6565   24.0544 C   0  0  0  0  0  0
  -25.9049  -34.9457   23.5109 C   0  0  0  0  0  0
  -16.5357  -29.9063   23.6304 C   0  0  0  0  0  0
  -16.7281  -28.6473   23.0339 C   0  0  0  0  0  0
  -26.4492  -31.6599   25.0761 C   0  0  0  0  0  0
  -25.3756  -31.3785   26.1540 C   0  0  0  0  0  0
  -27.0302  -30.2994   24.6270 C   0  0  0  0  0  0
  -27.6021  -32.4373   25.7539 C   0  0  0  0  0  0
  -27.5583  -37.1801   24.8452 C   0  0  0  0  0  0
  -21.4218  -29.3058   22.3633 N   0  0  0  0  0  0
  -26.4275  -37.3799   23.9430 N   0  0  0  0  0  0
  -24.7023  -31.0503   22.0914 N   0  0  0  0  0  0
  -23.4204  -28.8151   23.3012 O   0  0  0  0  0  0
  -28.3290  -26.3764   20.1844 O   0  0  0  0  0  0
  -26.5614  -34.8932   22.4675 O   0  0  0  0  0  0
  -23.5506  -32.1342   23.7285 O   0  0  0  0  0  0
  -28.5558  -23.7220   19.9006 C   0  0  0  0  0  0
  -28.5865  -22.4790   20.0239 C   0  0  0  0  0  0
  -31.3408  -19.1112   21.6184 C   0  0  0  0  0  0
  -30.4568  -20.1184   21.1729 C   0  0  0  0  0  0
  -31.1130  -17.7428   21.3458 C   0  0  0  0  0  0
  -29.0911  -18.3778   20.1648 C   0  0  0  0  0  0
  -29.3046  -19.8012   20.4250 C   0  0  0  0  0  0
  -29.9754  -17.3147   20.6257 C   0  0  0  0  0  0
  -26.8754  -20.6882   20.3676 C   0  0  0  0  0  0
  -28.4620  -25.1528   19.3288 C   0  0  0  0  0  0
  -28.3260  -20.9572   19.9107 C   0  0  1  0  0  0
  -29.7168  -15.8570   20.4730 N   0  0  0  0  0  0
  -31.4714  -12.5974   19.1565 H   0  0  0  0  0  0
  -30.3971  -11.4777   19.9529 H   0  0  0  0  0  0
  -29.7934  -11.6973   17.5301 H   0  0  0  0  0  0
  -29.6385  -13.4289   17.6941 H   0  0  0  0  0  0
  -27.8729  -11.2764   18.8808 H   0  0  0  0  0  0
  -27.3771  -12.5254   17.7814 H   0  0  0  0  0  0
  -27.6286  -14.2425   19.4709 H   0  0  0  0  0  0
  -28.7207  -12.1368   21.3945 H   0  0  0  0  0  0
  -28.4110  -13.8041   21.8014 H   0  0  0  0  0  0
  -25.2789   -9.5651   22.4758 H   0  0  0  0  0  0
  -24.0000   -7.4628   22.7492 H   0  0  0  0  0  0
  -21.0836   -8.8834   19.8983 H   0  0  0  0  0  0
  -22.3717  -10.9715   19.6214 H   0  0  0  0  0  0
  -21.2027   -7.6179   23.9739 H   0  0  0  0  0  0
  -21.1460   -6.0530   25.9061 H   0  0  0  0  0  0
  -22.0612   -2.7649   23.2813 H   0  0  0  0  0  0
  -22.4106  -11.9941   22.4799 H   0  0  0  0  0  0
  -21.1141  -13.1341   22.2624 H   0  0  0  0  0  0
  -24.6563  -15.8404   20.5102 H   0  0  0  0  0  0
  -26.2605  -15.6215   20.0351 H   0  0  0  0  0  0
  -26.7230  -32.5375   23.1100 H   0  0  0  0  0  0
  -25.0147  -33.9682   25.0456 H   0  0  0  0  0  0
  -22.7313  -31.3039   21.3930 H   0  0  0  0  0  0
  -23.3756  -35.9606   23.3264 H   0  0  0  0  0  0
  -24.3584  -36.8943   22.2052 H   0  0  0  0  0  0
  -23.7184  -37.6486   23.6665 H   0  0  0  0  0  0
  -26.1321  -31.5278   20.6097 H   0  0  0  0  0  0
  -26.8520  -30.8036   22.0152 H   0  0  0  0  0  0
  -28.1288  -28.9328   21.1610 H   0  0  0  0  0  0
  -25.9019  -25.8582   19.0873 H   0  0  0  0  0  0
  -23.9483  -27.2749   19.0649 H   0  0  0  0  0  0
  -23.7826  -30.5869   19.4035 H   0  0  0  0  0  0
  -22.7642  -29.2527   19.8479 H   0  0  0  0  0  0
  -25.1274  -36.1947   25.0825 H   0  0  0  0  0  0
  -20.9987  -28.3282   24.1350 H   0  0  0  0  0  0
  -20.5608  -26.2339   23.3620 H   0  0  0  0  0  0
  -21.6649  -26.7403   22.1214 H   0  0  0  0  0  0
  -19.6929  -25.6264   21.1221 H   0  0  0  0  0  0
  -19.6677  -27.3149   20.6693 H   0  0  0  0  0  0
  -17.4211  -26.6609   21.4013 H   0  0  0  0  0  0
  -18.0372  -26.0020   22.8997 H   0  0  0  0  0  0
  -19.7955  -30.7215   24.2256 H   0  0  0  0  0  0
  -17.5043  -31.6241   24.5157 H   0  0  0  0  0  0
  -15.5361  -30.2966   23.7646 H   0  0  0  0  0  0
  -15.8682  -28.0789   22.7077 H   0  0  0  0  0  0
  -24.5887  -30.7138   25.7963 H   0  0  0  0  0  0
  -24.9015  -32.2965   26.5016 H   0  0  0  0  0  0
  -25.8149  -30.8981   27.0303 H   0  0  0  0  0  0
  -26.2864  -29.6793   24.1246 H   0  0  0  0  0  0
  -27.3873  -29.7223   25.4818 H   0  0  0  0  0  0
  -27.8813  -30.4235   23.9573 H   0  0  0  0  0  0
  -27.2569  -33.3679   26.2079 H   0  0  0  0  0  0
  -28.3853  -32.6939   25.0390 H   0  0  0  0  0  0
  -28.0665  -31.8535   26.5511 H   0  0  0  0  0  0
  -28.2587  -38.0115   24.7558 H   0  0  0  0  0  0
  -28.1085  -36.2658   24.6192 H   0  0  0  0  0  0
  -27.2329  -37.1365   25.8856 H   0  0  0  0  0  0
  -20.9416  -29.8860   21.6896 H   0  0  0  0  0  0
  -26.0162  -38.2874   24.1432 H   0  0  0  0  0  0
  -32.2092  -19.3947   22.1967 H   0  0  0  0  0  0
  -30.6819  -21.1473   21.4153 H   0  0  0  0  0  0
  -31.8114  -17.0154   21.7314 H   0  0  0  0  0  0
  -28.2165  -18.0993   19.5954 H   0  0  0  0  0  0
  -26.1772  -21.3484   19.8527 H   0  0  0  0  0  0
  -26.7504  -20.8659   21.4371 H   0  0  0  0  0  0
  -26.5421  -19.6710   20.1599 H   0  0  0  0  0  0
  -27.7316  -25.1191   18.5251 H   0  0  0  0  0  0
  -29.4050  -25.2899   18.8006 H   0  0  0  0  0  0
  -28.3350  -20.8098   18.8289 H   0  0  0  0  0  0
  -28.7421  -15.6037   20.4194 H   0  0  0  0  0  0
  1 25  1  0  0  0
  1 30  2  0  0  0
  1 82  1  0  0  0
  2  3  1  0  0  0
  2 25  1  0  0  0
  2 83  1  0  0  0
  2 84  1  0  0  0
  3  4  1  0  0  0
  3 85  1  0  0  0
  3 86  1  0  0  0
  4  5  1  0  0  0
  4 87  1  0  0  0
  4 88  1  0  0  0
  5  6  1  0  0  0
  5 26  1  0  0  0
  5 89  1  0  0  0
  6 25  1  0  0  0
  6 90  1  0  0  0
  6 91  1  0  0  0
  7  8  2  0  0  0
  7 26  1  0  0  0
  7 29  1  0  0  0
  8  9  1  0  0  0
  8 22  1  0  0  0
  9 10  1  0  0  0
  9 27  2  0  0  0
 10 11  2  0  0  0
 10 15  1  0  0  0
 11 12  1  0  0  0
 11 92  1  0  0  0
 12 13  2  0  0  0
 12 93  1  0  0  0
 13 14  1  0  0  0
 13 31  1  0  0  0
 14 15  2  0  0  0
 14 94  1  0  0  0
 15 95  1  0  0  0
 16 17  2  0  0  0
 16 21  1  0  0  0
 16 31  1  0  0  0
 17 18  1  0  0  0
 17 96  1  0  0  0
 18 19  2  0  0  0
 18 97  1  0  0  0
 19 20  1  0  0  0
 19 24  1  0  0  0
 20 21  2  0  0  0
 20 98  1  0  0  0
 21 23  1  0  0  0
 22 28  1  0  0  0
 22 32  2  0  0  0
 26 27  1  0  0  0
 28 99  1  0  0  0
 28100  1  0  0  0
 29101  1  0  0  0
 29102  1  0  0  0
 33 34  1  0  0  0
 33 66  1  0  0  0
 33 70  2  0  0  0
 34 36  1  0  0  0
 34 59  1  0  0  0
 34103  1  0  0  0
 35 44  2  0  0  0
 35 45  1  0  0  0
 35 68  1  0  0  0
 36 56  1  0  0  0
 36104  1  0  0  0
 37 39  1  0  0  0
 37 47  1  0  0  0
 37 66  1  0  0  0
 37105  1  0  0  0
 38 43  2  0  0  0
 38 46  1  0  0  0
 38 47  1  0  0  0
 39 64  1  0  0  0
 39 67  2  0  0  0
 40 52  1  0  0  0
 40 53  2  0  0  0
 40 58  1  0  0  0
 41106  1  0  0  0
 41107  1  0  0  0
 41108  1  0  0  0
 41 48  1  0  0  0
 42 43  1  0  0  0
 42 66  1  0  0  0
 42109  1  0  0  0
 42110  1  0  0  0
 43 44  1  0  0  0
 44111  1  0  0  0
 45 46  2  0  0  0
 45112  1  0  0  0
 46113  1  0  0  0
 47114  1  0  0  0
 47115  1  0  0  0
 48 56  1  0  0  0
 48 65  1  0  0  0
 48116  1  0  0  0
 49 50  1  0  0  0
 49 53  1  0  0  0
 49 64  1  0  0  0
 49117  1  0  0  0
 50 51  1  0  0  0
 50118  1  0  0  0
 50119  1  0  0  0
 51 52  1  0  0  0
 51120  1  0  0  0
 51121  1  0  0  0
 52122  1  0  0  0
 52123  1  0  0  0
 53 54  1  0  0  0
 54 55  2  0  0  0
 54124  1  0  0  0
 55 57  1  0  0  0
 55125  1  0  0  0
 56 69  2  0  0  0
 57 58  2  0  0  0
 57126  1  0  0  0
 58127  1  0  0  0
 59 60  1  0  0  0
 59 61  1  0  0  0
 59 62  1  0  0  0
 60128  1  0  0  0
 60129  1  0  0  0
 60130  1  0  0  0
 61131  1  0  0  0
 61132  1  0  0  0
 61133  1  0  0  0
 62134  1  0  0  0
 62135  1  0  0  0
 62136  1  0  0  0
 63 65  1  0  0  0
 63137  1  0  0  0
 63138  1  0  0  0
 63139  1  0  0  0
 64140  1  0  0  0
 65141  1  0  0  0
 68 80  1  0  0  0
 71 72  3  0  0  0
 71 80  1  0  0  0
 72 81  1  0  0  0
 73 74  2  0  0  0
 73 75  1  0  0  0
 73142  1  0  0  0
 74 77  1  0  0  0
 74143  1  0  0  0
 75 78  2  0  0  0
 75144  1  0  0  0
 76 77  2  0  0  0
 76 78  1  0  0  0
 76145  1  0  0  0
 77 81  1  0  0  0
 78 82  1  0  0  0
 79146  1  0  0  0
 79147  1  0  0  0
 79148  1  0  0  0
 79 81  1  0  0  0
 80149  1  0  0  0
 80150  1  0  0  0
 81151  1  0  0  0
 82152  1  0  0  0
M  ISO  4   1 100  68 101  80 101  82 100
M  END
> <chiral flag>
0

> <version>
0

> <s_m_source_file>
/data/baiqing/PycharmProjects/Reinvent-master-3.2/result/LINK_invent/BTK/process_docking_weight1_custom_product_contain_oxygen_bond_distance_aromatic_linkinvent_7_9_3/rearranged_h_0004.sdf

> <i_m_source_file_index>
75

> <r_mmod_Potential_Energy-OPLS-2005>
200.62141418457

> <r_mmod_Stretch_Energy-OPLS-2005>
119.338005065918

> <r_mmod_Bend_Energy-OPLS-2005>
191.013900756836

> <r_mmod_Torsional_Energy-OPLS-2005>
218.460739135742

> <r_mmod_Improper_Torsional_Energy-OPLS-2005>
7.18206214904785

> <r_mmod_Van_der_Waal_Energy-OPLS-2005>
138.616989135742

> <r_mmod_Electrostatic_Energy-OPLS-2005>
-359.977722167969

> <r_mmod_Solvation_Energy-OPLS-2005>
-204.179138183594

> <b_mmod_Minimization_Converged-OPLS-2005>
0

> <r_mmod_RMS_Derivative-OPLS-2005>
5.4792799949646

$$$$
75
                    3D
 Structure written by MMmdl.
173183  0  0  1  0            999 V2000
  -30.7266  -14.5311   20.5147 C   0  0  0  0  0  0
  -30.4121  -12.3318   19.4342 C   0  0  0  0  0  0
  -29.4872  -12.4772   18.2093 C   0  0  0  0  0  0
  -28.0139  -12.3085   18.6278 C   0  0  0  0  0  0
  -27.6397  -13.1829   19.8506 C   0  0  2  0  0  0
  -28.6942  -13.0847   20.9820 C   0  0  0  0  0  0
  -25.2530  -13.8074   20.5686 C   0  0  0  0  0  0
  -24.1778  -13.0386   20.9209 C   0  0  0  0  0  0
  -24.6316  -11.6846   20.8768 C   0  0  0  0  0  0
  -23.8993  -10.4251   21.0427 C   0  0  0  0  0  0
  -24.3569   -9.4175   21.9196 C   0  0  0  0  0  0
  -23.6259   -8.2202   22.0752 C   0  0  0  0  0  0
  -22.4247   -8.0246   21.3539 C   0  0  0  0  0  0
  -21.9868   -9.0212   20.4644 C   0  0  0  0  0  0
  -22.7178  -10.2100   20.3060 C   0  0  0  0  0  0
  -21.6837   -6.0709   22.5279 C   0  0  0  0  0  0
  -21.4002   -6.5617   23.8211 C   0  0  0  0  0  0
  -21.3657   -5.6776   24.9172 C   0  0  0  0  0  0
  -21.6050   -4.3036   24.7231 C   0  0  0  0  0  0
  -21.8821   -3.8127   23.4346 C   0  0  0  0  0  0
  -21.9187   -4.6938   22.3402 C   0  0  0  0  0  0
  -22.7813  -13.5215   21.1874 C   0  0  0  0  0  0
  -22.1663   -4.2127   21.0978 F   0  0  0  0  0  0
  -21.5638   -3.4524   25.7741 F   0  0  0  0  0  0
  -30.0189  -13.3658   20.4077 N   0  0  0  0  0  0
  -26.2909  -12.9174   20.3308 N   0  0  0  0  0  0
  -25.9229  -11.6376   20.5781 N   0  0  0  0  0  0
  -22.0444  -12.8214   22.0428 N   0  0  0  0  0  0
  -25.4259  -15.1788   20.4079 N   0  0  0  0  0  0
  -31.8936  -14.6205   20.1244 O   0  0  0  0  0  0
  -21.6619   -6.8843   21.4237 O   0  0  0  0  0  0
  -22.3523  -14.5534   20.6719 O   0  0  0  0  0  0
  -24.6143  -31.8678   23.2068 C   0  0  0  0  0  0
  -25.9028  -32.4816   23.8386 C   0  0  1  0  0  0
  -27.2388  -27.4207   20.1023 C   0  0  0  0  0  0
  -25.5893  -33.8611   24.2325 N   0  0  0  0  0  0
  -23.4042  -30.4896   21.5463 C   0  0  2  0  0  0
  -24.8505  -28.9507   20.1149 C   0  0  0  0  0  0
  -22.7418  -29.4657   22.4962 C   0  0  0  0  0  0
  -18.0281  -28.1384   22.8487 C   0  0  0  0  0  0
  -24.1488  -36.7311   23.2641 C   0  0  0  0  0  0
  -25.9321  -30.8285   21.3607 C   0  0  0  0  0  0
  -26.0087  -29.4606   20.7120 C   0  0  0  0  0  0
  -27.2032  -28.7030   20.7010 C   0  0  0  0  0  0
  -26.0624  -26.9329   19.4876 C   0  0  0  0  0  0
  -24.8725  -27.6870   19.4997 C   0  0  0  0  0  0
  -23.6132  -29.8185   20.1627 C   0  0  0  0  0  0
  -25.4104  -36.3104   24.0343 C   0  0  1  0  0  0
  -20.5868  -28.3665   23.1308 C   0  0  2  0  0  0
  -20.6758  -26.9395   22.5414 C   0  0  0  0  0  0
  -19.5738  -26.6389   21.5208 C   0  0  0  0  0  0
  -18.1921  -26.7932   22.1620 C   0  0  0  0  0  0
  -19.1531  -28.8840   23.2901 C   0  0  0  0  0  0
  -18.9459  -30.1447   23.8907 C   0  0  0  0  0  0
  -17.6457  -30.6581   24.0567 C   0  0  0  0  0  0
  -25.9032  -34.9470   23.5135 C   0  0  0  0  0  0
  -16.5349  -29.9081   23.6322 C   0  0  0  0  0  0
  -16.7270  -28.6506   23.0334 C   0  0  0  0  0  0
  -26.4461  -31.6597   25.0712 C   0  0  0  0  0  0
  -25.3733  -31.3691   26.1467 C   0  0  0  0  0  0
  -27.0301  -30.3048   24.6069 C   0  0  0  0  0  0
  -27.6049  -32.4313   25.7463 C   0  0  0  0  0  0
  -27.5580  -37.1809   24.8462 C   0  0  0  0  0  0
  -21.4145  -29.3035   22.3710 N   0  0  0  0  0  0
  -26.4295  -37.3782   23.9408 N   0  0  0  0  0  0
  -24.6688  -31.0773   22.0966 N   0  0  0  0  0  0
  -23.4187  -28.8195   23.3008 O   0  0  0  0  0  0
  -28.4315  -26.7185   20.1159 O   0  0  0  0  0  0
  -26.5591  -34.8920   22.4691 O   0  0  0  0  0  0
  -23.5332  -32.1439   23.7450 O   0  0  0  0  0  0
  -31.8945  -17.0569   23.8080 C   0  0  0  0  0  0
  -31.3668  -16.1582   22.8735 C   0  0  0  0  0  0
  -31.5389  -18.4172   23.7766 C   0  0  0  0  0  0
  -30.6173  -18.9047   22.8181 C   0  0  0  0  0  0
  -30.1589  -18.0006   21.8080 C   0  0  0  0  0  0
  -30.5227  -16.6101   21.8328 C   0  0  0  0  0  0
  -32.2323  -19.3537   24.7396 C   0  0  0  0  0  0
  -29.2898  -18.5251   20.6729 C   0  0  0  0  0  0
  -30.0605  -20.3505   22.9662 C   0  0  0  0  0  0
  -32.9631  -20.4492   23.9603 C   0  0  0  0  0  0
  -29.4048  -17.6516   19.4323 C   0  0  0  0  0  0
  -29.1375  -16.1930   19.7943 C   0  0  0  0  0  0
  -32.0815  -21.6695   23.6658 C   0  0  0  0  0  0
  -29.6135  -23.2220   21.2481 C   0  0  0  0  0  0
  -29.2196  -24.7293   21.2732 C   0  0  0  0  0  0
  -30.2432  -22.8095   22.6039 C   0  0  0  0  0  0
  -28.4402  -25.2780   20.0559 C   0  0  0  0  0  0
  -30.0437  -15.6720   20.8340 N   0  0  0  0  0  0
  -30.9787  -21.4983   22.6713 N   0  3  2  0  0  0
  -31.4566  -12.4131   19.1278 H   0  0  0  0  0  0
  -30.3088  -11.3402   19.8779 H   0  0  0  0  0  0
  -29.7455  -11.7351   17.4528 H   0  0  0  0  0  0
  -29.6322  -13.4532   17.7431 H   0  0  0  0  0  0
  -27.8525  -11.2562   18.8647 H   0  0  0  0  0  0
  -27.3544  -12.5334   17.7876 H   0  0  0  0  0  0
  -27.6155  -14.1888   19.4582 H   0  0  0  0  0  0
  -28.6894  -12.0883   21.4270 H   0  0  0  0  0  0
  -28.4529  -13.7803   21.7877 H   0  0  0  0  0  0
  -25.2716   -9.5656   22.4767 H   0  0  0  0  0  0
  -23.9980   -7.4581   22.7451 H   0  0  0  0  0  0
  -21.0807   -8.8709   19.8942 H   0  0  0  0  0  0
  -22.3635  -10.9632   19.6164 H   0  0  0  0  0  0
  -21.1997   -7.6127   23.9704 H   0  0  0  0  0  0
  -21.1485   -6.0508   25.9077 H   0  0  0  0  0  0
  -22.0613   -2.7588   23.2847 H   0  0  0  0  0  0
  -22.4036  -11.9867   22.4824 H   0  0  0  0  0  0
  -21.1063  -13.1253   22.2632 H   0  0  0  0  0  0
  -24.6625  -15.8372   20.5195 H   0  0  0  0  0  0
  -26.2826  -15.6146   20.0957 H   0  0  0  0  0  0
  -26.7090  -32.5526   23.1146 H   0  0  0  0  0  0
  -25.0046  -33.9772   25.0473 H   0  0  0  0  0  0
  -22.6935  -31.3064   21.4040 H   0  0  0  0  0  0
  -23.3748  -35.9646   23.3307 H   0  0  0  0  0  0
  -24.3593  -36.8921   22.2057 H   0  0  0  0  0  0
  -23.7248  -37.6521   23.6651 H   0  0  0  0  0  0
  -26.0440  -31.5897   20.5876 H   0  0  0  0  0  0
  -26.8210  -30.8859   21.9770 H   0  0  0  0  0  0
  -28.0983  -29.0956   21.1616 H   0  0  0  0  0  0
  -26.0464  -25.9819   18.9764 H   0  0  0  0  0  0
  -23.9835  -27.2943   19.0252 H   0  0  0  0  0  0
  -23.7216  -30.5908   19.4006 H   0  0  0  0  0  0
  -22.7369  -29.2380   19.8690 H   0  0  0  0  0  0
  -25.1282  -36.1973   25.0839 H   0  0  0  0  0  0
  -20.9986  -28.3234   24.1418 H   0  0  0  0  0  0
  -20.5648  -26.2273   23.3609 H   0  0  0  0  0  0
  -21.6628  -26.7417   22.1211 H   0  0  0  0  0  0
  -19.6889  -25.6307   21.1225 H   0  0  0  0  0  0
  -19.6684  -27.3214   20.6752 H   0  0  0  0  0  0
  -17.4194  -26.6697   21.4018 H   0  0  0  0  0  0
  -18.0308  -26.0075   22.9018 H   0  0  0  0  0  0
  -19.7936  -30.7267   24.2277 H   0  0  0  0  0  0
  -17.5011  -31.6257   24.5180 H   0  0  0  0  0  0
  -15.5346  -30.2982   23.7643 H   0  0  0  0  0  0
  -15.8680  -28.0837   22.7013 H   0  0  0  0  0  0
  -24.5898  -30.7045   25.7804 H   0  0  0  0  0  0
  -24.8922  -32.2838   26.4941 H   0  0  0  0  0  0
  -25.8094  -30.8845   27.0213 H   0  0  0  0  0  0
  -26.2839  -29.6798   24.1143 H   0  0  0  0  0  0
  -27.4122  -29.7284   25.4507 H   0  0  0  0  0  0
  -27.8647  -30.4391   23.9181 H   0  0  0  0  0  0
  -27.2685  -33.3605   26.2073 H   0  0  0  0  0  0
  -28.3831  -32.6895   25.0269 H   0  0  0  0  0  0
  -28.0750  -31.8422   26.5349 H   0  0  0  0  0  0
  -28.2597  -38.0105   24.7504 H   0  0  0  0  0  0
  -28.1084  -36.2641   24.6295 H   0  0  0  0  0  0
  -27.2303  -37.1456   25.8866 H   0  0  0  0  0  0
  -20.9304  -29.8785   21.6959 H   0  0  0  0  0  0
  -26.0190  -38.2865   24.1405 H   0  0  0  0  0  0
  -32.5914  -16.6885   24.5488 H   0  0  0  0  0  0
  -31.6626  -15.1218   22.9555 H   0  0  0  0  0  0
  -32.9659  -18.7955   25.3231 H   0  0  0  0  0  0
  -31.5285  -19.7649   25.4642 H   0  0  0  0  0  0
  -29.5806  -19.5374   20.3937 H   0  0  0  0  0  0
  -28.2519  -18.5657   21.0086 H   0  0  0  0  0  0
  -29.7010  -20.4570   23.9904 H   0  0  0  0  0  0
  -29.1580  -20.4650   22.3689 H   0  0  0  0  0  0
  -33.4321  -20.0561   23.0571 H   0  0  0  0  0  0
  -33.7857  -20.7999   24.5856 H   0  0  0  0  0  0
  -30.4023  -17.7480   19.0003 H   0  0  0  0  0  0
  -28.7016  -17.9872   18.6685 H   0  0  0  0  0  0
  -29.1904  -15.6110   18.8711 H   0  0  0  0  0  0
  -28.1206  -16.1227   20.1785 H   0  0  0  0  0  0
  -32.7439  -22.4583   23.3045 H   0  0  0  0  0  0
  -31.6653  -22.0356   24.6059 H   0  0  0  0  0  0
  -30.3242  -23.0531   20.4373 H   0  0  0  0  0  0
  -28.7418  -22.6016   21.0381 H   0  0  0  0  0  0
  -30.1326  -25.3161   21.3836 H   0  0  0  0  0  0
  -28.6297  -24.9317   22.1690 H   0  0  0  0  0  0
  -29.4854  -22.8421   23.3889 H   0  0  0  0  0  0
  -30.9350  -23.6148   22.8583 H   0  0  0  0  0  0
  -28.9312  -24.9778   19.1295 H   0  0  0  0  0  0
  -27.4528  -24.8203   20.0548 H   0  0  0  0  0  0
  -31.4054  -21.3322   21.7730 H   0  0  0  0  0  0
  1 25  1  0  0  0
  1 30  2  0  0  0
  1 88  1  0  0  0
  2  3  1  0  0  0
  2 25  1  0  0  0
  2 90  1  0  0  0
  2 91  1  0  0  0
  3  4  1  0  0  0
  3 92  1  0  0  0
  3 93  1  0  0  0
  4  5  1  0  0  0
  4 94  1  0  0  0
  4 95  1  0  0  0
  5  6  1  0  0  0
  5 26  1  0  0  0
  5 96  1  0  0  0
  6 25  1  0  0  0
  6 97  1  0  0  0
  6 98  1  0  0  0
  7  8  2  0  0  0
  7 26  1  0  0  0
  7 29  1  0  0  0
  8  9  1  0  0  0
  8 22  1  0  0  0
  9 10  1  0  0  0
  9 27  2  0  0  0
 10 11  2  0  0  0
 10 15  1  0  0  0
 11 12  1  0  0  0
 11 99  1  0  0  0
 12 13  2  0  0  0
 12100  1  0  0  0
 13 14  1  0  0  0
 13 31  1  0  0  0
 14 15  2  0  0  0
 14101  1  0  0  0
 15102  1  0  0  0
 16 17  2  0  0  0
 16 21  1  0  0  0
 16 31  1  0  0  0
 17 18  1  0  0  0
 17103  1  0  0  0
 18 19  2  0  0  0
 18104  1  0  0  0
 19 20  1  0  0  0
 19 24  1  0  0  0
 20 21  2  0  0  0
 20105  1  0  0  0
 21 23  1  0  0  0
 22 28  1  0  0  0
 22 32  2  0  0  0
 26 27  1  0  0  0
 28106  1  0  0  0
 28107  1  0  0  0
 29108  1  0  0  0
 29109  1  0  0  0
 33 34  1  0  0  0
 33 66  1  0  0  0
 33 70  2  0  0  0
 34 36  1  0  0  0
 34 59  1  0  0  0
 34110  1  0  0  0
 35 44  2  0  0  0
 35 45  1  0  0  0
 35 68  1  0  0  0
 36 56  1  0  0  0
 36111  1  0  0  0
 37 39  1  0  0  0
 37 47  1  0  0  0
 37 66  1  0  0  0
 37112  1  0  0  0
 38 43  2  0  0  0
 38 46  1  0  0  0
 38 47  1  0  0  0
 39 64  1  0  0  0
 39 67  2  0  0  0
 40 52  1  0  0  0
 40 53  2  0  0  0
 40 58  1  0  0  0
 41113  1  0  0  0
 41114  1  0  0  0
 41115  1  0  0  0
 41 48  1  0  0  0
 42 43  1  0  0  0
 42 66  1  0  0  0
 42116  1  0  0  0
 42117  1  0  0  0
 43 44  1  0  0  0
 44118  1  0  0  0
 45 46  2  0  0  0
 45119  1  0  0  0
 46120  1  0  0  0
 47121  1  0  0  0
 47122  1  0  0  0
 48 56  1  0  0  0
 48 65  1  0  0  0
 48123  1  0  0  0
 49 50  1  0  0  0
 49 53  1  0  0  0
 49 64  1  0  0  0
 49124  1  0  0  0
 50 51  1  0  0  0
 50125  1  0  0  0
 50126  1  0  0  0
 51 52  1  0  0  0
 51127  1  0  0  0
 51128  1  0  0  0
 52129  1  0  0  0
 52130  1  0  0  0
 53 54  1  0  0  0
 54 55  2  0  0  0
 54131  1  0  0  0
 55 57  1  0  0  0
 55132  1  0  0  0
 56 69  2  0  0  0
 57 58  2  0  0  0
 57133  1  0  0  0
 58134  1  0  0  0
 59 60  1  0  0  0
 59 61  1  0  0  0
 59 62  1  0  0  0
 60135  1  0  0  0
 60136  1  0  0  0
 60137  1  0  0  0
 61138  1  0  0  0
 61139  1  0  0  0
 61140  1  0  0  0
 62141  1  0  0  0
 62142  1  0  0  0
 62143  1  0  0  0
 63 65  1  0  0  0
 63144  1  0  0  0
 63145  1  0  0  0
 63146  1  0  0  0
 64147  1  0  0  0
 65148  1  0  0  0
 68 87  1  0  0  0
 71 72  2  0  0  0
 71 73  1  0  0  0
 71149  1  0  0  0
 72 76  1  0  0  0
 72150  1  0  0  0
 73 74  2  0  0  0
 73 77  1  0  0  0
 74 75  1  0  0  0
 74 79  1  0  0  0
 75 76  2  0  0  0
 75 78  1  0  0  0
 76 88  1  0  0  0
 77 80  1  0  0  0
 77151  1  0  0  0
 77152  1  0  0  0
 78 81  1  0  0  0
 78153  1  0  0  0
 78154  1  0  0  0
 79 89  1  0  0  0
 79155  1  0  0  0
 79156  1  0  0  0
 80 83  1  0  0  0
 80157  1  0  0  0
 80158  1  0  0  0
 81 82  1  0  0  0
 81159  1  0  0  0
 81160  1  0  0  0
 82 88  1  0  0  0
 82161  1  0  0  0
 82162  1  0  0  0
 83 89  1  0  0  0
 83163  1  0  0  0
 83164  1  0  0  0
 84 85  1  0  0  0
 84 86  1  0  0  0
 84165  1  0  0  0
 84166  1  0  0  0
 85 87  1  0  0  0
 85167  1  0  0  0
 85168  1  0  0  0
 86169  1  0  0  0
 86170  1  0  0  0
 86 89  1  0  0  0
 87171  1  0  0  0
 87172  1  0  0  0
 89173  1  0  0  0
M  CHG  1  89   1
M  ISO  4   1 100  68 101  87 101  88 100
M  END
> <chiral flag>
0

> <version>
0

> <s_m_source_file>
/data/baiqing/PycharmProjects/Reinvent-master-3.2/result/LINK_invent/BTK/process_docking_weight1_custom_product_contain_oxygen_bond_distance_aromatic_linkinvent_7_9_3/rearranged_h_0004.sdf

> <i_m_source_file_index>
76

> <r_mmod_Potential_Energy-OPLS-2005>
93.8812637329102

> <r_mmod_Stretch_Energy-OPLS-2005>
53.0650291442871

> <r_mmod_Bend_Energy-OPLS-2005>
132.81201171875

> <r_mmod_Torsional_Energy-OPLS-2005>
312.854827880859

> <r_mmod_Improper_Torsional_Energy-OPLS-2005>
7.08361339569092

> <r_mmod_Van_der_Waal_Energy-OPLS-2005>
174.561874389648

> <r_mmod_Electrostatic_Energy-OPLS-2005>
-180.397766113281

> <r_mmod_Solvation_Energy-OPLS-2005>
-429.2216796875

> <b_mmod_Minimization_Converged-OPLS-2005>
0

> <r_mmod_RMS_Derivative-OPLS-2005>
1.54258346557617

$$$$
76
                    3D
 Structure written by MMmdl.
148157  0  0  1  0            999 V2000
  -30.4500  -15.1649   20.4077 C   0  0  0  0  0  0
  -30.4485  -12.7343   19.5273 C   0  0  0  0  0  0
  -29.5380  -12.5803   18.2821 C   0  0  0  0  0  0
  -28.0779  -12.3263   18.6952 C   0  0  0  0  0  0
  -27.6240  -13.2676   19.8382 C   0  0  2  0  0  0
  -28.6619  -13.3680   20.9801 C   0  0  0  0  0  0
  -25.2438  -13.8239   20.5762 C   0  0  0  0  0  0
  -24.1771  -13.0431   20.9237 C   0  0  0  0  0  0
  -24.6405  -11.6922   20.8736 C   0  0  0  0  0  0
  -23.9100  -10.4286   21.0394 C   0  0  0  0  0  0
  -24.3639   -9.4207   21.9186 C   0  0  0  0  0  0
  -23.6298   -8.2249   22.0762 C   0  0  0  0  0  0
  -22.4279   -8.0289   21.3556 C   0  0  0  0  0  0
  -21.9910   -9.0273   20.4658 C   0  0  0  0  0  0
  -22.7261  -10.2146   20.3060 C   0  0  0  0  0  0
  -21.6866   -6.0727   22.5277 C   0  0  0  0  0  0
  -21.4016   -6.5626   23.8213 C   0  0  0  0  0  0
  -21.3667   -5.6781   24.9173 C   0  0  0  0  0  0
  -21.6057   -4.3048   24.7231 C   0  0  0  0  0  0
  -21.8809   -3.8139   23.4353 C   0  0  0  0  0  0
  -21.9193   -4.6949   22.3404 C   0  0  0  0  0  0
  -22.7784  -13.5211   21.1877 C   0  0  0  0  0  0
  -22.1663   -4.2130   21.0987 F   0  0  0  0  0  0
  -21.5637   -3.4538   25.7747 F   0  0  0  0  0  0
  -29.9142  -13.8549   20.3780 N   0  0  0  0  0  0
  -26.2866  -12.9502   20.3259 N   0  0  0  0  0  0
  -25.9344  -11.6615   20.5701 N   0  0  0  0  0  0
  -22.0433  -12.8217   22.0427 N   0  0  0  0  0  0
  -25.4074  -15.1966   20.4235 N   0  0  0  0  0  0
  -31.6547  -15.2254   20.1279 O   0  0  0  0  0  0
  -21.6658   -6.8888   21.4244 O   0  0  0  0  0  0
  -22.3471  -14.5533   20.6726 O   0  0  0  0  0  0
  -24.6581  -31.8271   23.1727 C   0  0  0  0  0  0
  -25.9287  -32.4605   23.8177 C   0  0  1  0  0  0
  -27.2358  -26.9873   20.1821 C   0  0  0  0  0  0
  -25.5983  -33.8419   24.2117 N   0  0  0  0  0  0
  -23.4703  -30.4407   21.5189 C   0  0  2  0  0  0
  -24.9269  -28.8310   20.1166 C   0  0  0  0  0  0
  -22.7641  -29.4470   22.4772 C   0  0  0  0  0  0
  -18.0325  -28.1386   22.8470 C   0  0  0  0  0  0
  -24.1497  -36.7224   23.2664 C   0  0  0  0  0  0
  -26.0367  -30.6509   21.3968 C   0  0  0  0  0  0
  -26.1081  -29.2459   20.7444 C   0  0  0  0  0  0
  -27.2564  -28.3443   20.7545 C   0  0  0  0  0  0
  -26.0295  -26.7109   19.5022 C   0  0  0  0  0  0
  -24.9104  -27.5810   19.4768 C   0  0  0  0  0  0
  -23.7089  -29.7503   20.1470 C   0  0  0  0  0  0
  -25.4149  -36.3005   24.0311 C   0  0  1  0  0  0
  -20.5950  -28.3750   23.1198 C   0  0  2  0  0  0
  -20.6807  -26.9437   22.5402 C   0  0  0  0  0  0
  -19.5781  -26.6367   21.5218 C   0  0  0  0  0  0
  -18.1964  -26.7923   22.1627 C   0  0  0  0  0  0
  -19.1581  -28.8891   23.2827 C   0  0  0  0  0  0
  -18.9498  -30.1484   23.8870 C   0  0  0  0  0  0
  -17.6491  -30.6595   24.0560 C   0  0  0  0  0  0
  -25.9085  -34.9360   23.5034 C   0  0  0  0  0  0
  -16.5386  -29.9079   23.6330 C   0  0  0  0  0  0
  -16.7315  -28.6487   23.0369 C   0  0  0  0  0  0
  -26.4544  -31.6533   25.0688 C   0  0  0  0  0  0
  -25.3683  -31.3792   26.1360 C   0  0  0  0  0  0
  -27.0429  -30.2909   24.6391 C   0  0  0  0  0  0
  -27.6054  -32.4324   25.7487 C   0  0  0  0  0  0
  -27.5538  -37.1853   24.8513 C   0  0  0  0  0  0
  -21.4314  -29.3042   22.3527 N   0  0  0  0  0  0
  -26.4343  -37.3682   23.9317 N   0  0  0  0  0  0
  -24.7422  -30.9981   22.0839 N   0  0  0  0  0  0
  -23.4209  -28.8047   23.3013 O   0  0  0  0  0  0
  -28.2731  -25.9357   20.2632 O   0  0  0  0  0  0
  -26.5671  -34.8891   22.4624 O   0  0  0  0  0  0
  -23.5674  -32.1219   23.6867 O   0  0  0  0  0  0
  -28.2017  -20.1966   20.8403 C   0  0  0  0  0  0
  -28.3864  -18.7270   20.8899 C   0  0  0  0  0  0
  -30.3268  -20.3949   19.9953 C   0  0  0  0  0  0
  -29.1585  -21.1901   20.3863 C   0  0  0  0  0  0
  -29.5564  -17.9441   20.5049 C   0  0  0  0  0  0
  -30.5282  -18.9202   20.0431 C   0  0  0  0  0  0
  -29.0874  -23.7433   19.1745 C   0  0  0  0  0  0
  -29.0952  -22.9314   20.4543 C   0  0  1  0  0  0
  -28.0778  -24.3226   20.1468 C   0  0  1  0  0  0
  -29.6047  -16.3435   20.6046 N   0  0  0  0  0  0
  -31.7297  -18.4521   19.6273 F   0  0  0  0  0  0
  -31.4743  -12.9255   19.2108 H   0  0  0  0  0  0
  -30.4846  -11.8005   20.0917 H   0  0  0  0  0  0
  -29.8939  -11.7733   17.6417 H   0  0  0  0  0  0
  -29.5918  -13.4896   17.6829 H   0  0  0  0  0  0
  -27.9991  -11.2879   19.0168 H   0  0  0  0  0  0
  -27.4194  -12.4339   17.8329 H   0  0  0  0  0  0
  -27.5624  -14.2557   19.3802 H   0  0  0  0  0  0
  -28.8011  -12.4056   21.4733 H   0  0  0  0  0  0
  -28.3201  -14.0629   21.7502 H   0  0  0  0  0  0
  -25.2774   -9.5678   22.4774 H   0  0  0  0  0  0
  -23.9994   -7.4638   22.7481 H   0  0  0  0  0  0
  -21.0836   -8.8822   19.8963 H   0  0  0  0  0  0
  -22.3722  -10.9697   19.6185 H   0  0  0  0  0  0
  -21.1998   -7.6134   23.9713 H   0  0  0  0  0  0
  -21.1510   -6.0519   25.9088 H   0  0  0  0  0  0
  -22.0576   -2.7595   23.2870 H   0  0  0  0  0  0
  -22.4037  -11.9887   22.4838 H   0  0  0  0  0  0
  -21.1056  -13.1268   22.2646 H   0  0  0  0  0  0
  -24.6322  -15.8408   20.5384 H   0  0  0  0  0  0
  -26.2476  -15.6444   20.0832 H   0  0  0  0  0  0
  -26.7350  -32.5155   23.0882 H   0  0  0  0  0  0
  -25.0109  -33.9486   25.0261 H   0  0  0  0  0  0
  -22.7817  -31.2710   21.3458 H   0  0  0  0  0  0
  -23.3691  -35.9637   23.3495 H   0  0  0  0  0  0
  -24.3521  -36.8661   22.2038 H   0  0  0  0  0  0
  -23.7353  -37.6525   23.6574 H   0  0  0  0  0  0
  -26.2115  -31.3924   20.6167 H   0  0  0  0  0  0
  -26.9015  -30.7128   22.0446 H   0  0  0  0  0  0
  -28.1513  -28.6649   21.2690 H   0  0  0  0  0  0
  -25.9210  -25.7602   19.0003 H   0  0  0  0  0  0
  -24.0166  -27.2522   18.9641 H   0  0  0  0  0  0
  -23.8639  -30.5151   19.3860 H   0  0  0  0  0  0
  -22.8212  -29.1975   19.8307 H   0  0  0  0  0  0
  -25.1363  -36.1871   25.0810 H   0  0  0  0  0  0
  -21.0064  -28.3382   24.1315 H   0  0  0  0  0  0
  -20.5706  -26.2375   23.3638 H   0  0  0  0  0  0
  -21.6674  -26.7416   22.1210 H   0  0  0  0  0  0
  -19.6961  -25.6265   21.1281 H   0  0  0  0  0  0
  -19.6735  -27.3143   20.6720 H   0  0  0  0  0  0
  -17.4239  -26.6678   21.4024 H   0  0  0  0  0  0
  -18.0371  -26.0063   22.9023 H   0  0  0  0  0  0
  -19.7979  -30.7302   24.2232 H   0  0  0  0  0  0
  -17.5046  -31.6285   24.5150 H   0  0  0  0  0  0
  -15.5389  -30.2983   23.7653 H   0  0  0  0  0  0
  -15.8704  -28.0795   22.7110 H   0  0  0  0  0  0
  -24.5859  -30.7152   25.7652 H   0  0  0  0  0  0
  -24.8889  -32.3010   26.4685 H   0  0  0  0  0  0
  -25.7930  -30.9012   27.0202 H   0  0  0  0  0  0
  -26.3094  -29.6595   24.1372 H   0  0  0  0  0  0
  -27.3931  -29.7266   25.5038 H   0  0  0  0  0  0
  -27.9032  -30.4053   23.9798 H   0  0  0  0  0  0
  -27.2621  -33.3621   26.2028 H   0  0  0  0  0  0
  -28.3891  -32.6894   25.0349 H   0  0  0  0  0  0
  -28.0703  -31.8496   26.5445 H   0  0  0  0  0  0
  -28.2776  -37.9909   24.7219 H   0  0  0  0  0  0
  -28.0809  -36.2455   24.6822 H   0  0  0  0  0  0
  -27.2209  -37.2081   25.8905 H   0  0  0  0  0  0
  -20.9576  -29.8720   21.6634 H   0  0  0  0  0  0
  -26.0231  -38.2809   24.1078 H   0  0  0  0  0  0
  -27.2544  -20.5710   21.2045 H   0  0  0  0  0  0
  -27.5445  -18.1698   21.2743 H   0  0  0  0  0  0
  -31.1801  -20.9582   19.6431 H   0  0  0  0  0  0
  -28.6626  -23.2786   18.2868 H   0  0  0  0  0  0
  -29.9909  -24.3176   18.9794 H   0  0  0  0  0  0
  -29.8896  -23.1778   21.1565 H   0  0  0  0  0  0
  -27.0281  -24.0817   19.9973 H   0  0  0  0  0  0
  -28.7033  -15.9952   20.8888 H   0  0  0  0  0  0
  1 25  1  0  0  0
  1 30  2  0  0  0
  1 80  1  0  0  0
  2  3  1  0  0  0
  2 25  1  0  0  0
  2 82  1  0  0  0
  2 83  1  0  0  0
  3  4  1  0  0  0
  3 84  1  0  0  0
  3 85  1  0  0  0
  4  5  1  0  0  0
  4 86  1  0  0  0
  4 87  1  0  0  0
  5  6  1  0  0  0
  5 26  1  0  0  0
  5 88  1  0  0  0
  6 25  1  0  0  0
  6 89  1  0  0  0
  6 90  1  0  0  0
  7  8  2  0  0  0
  7 26  1  0  0  0
  7 29  1  0  0  0
  8  9  1  0  0  0
  8 22  1  0  0  0
  9 10  1  0  0  0
  9 27  2  0  0  0
 10 11  2  0  0  0
 10 15  1  0  0  0
 11 12  1  0  0  0
 11 91  1  0  0  0
 12 13  2  0  0  0
 12 92  1  0  0  0
 13 14  1  0  0  0
 13 31  1  0  0  0
 14 15  2  0  0  0
 14 93  1  0  0  0
 15 94  1  0  0  0
 16 17  2  0  0  0
 16 21  1  0  0  0
 16 31  1  0  0  0
 17 18  1  0  0  0
 17 95  1  0  0  0
 18 19  2  0  0  0
 18 96  1  0  0  0
 19 20  1  0  0  0
 19 24  1  0  0  0
 20 21  2  0  0  0
 20 97  1  0  0  0
 21 23  1  0  0  0
 22 28  1  0  0  0
 22 32  2  0  0  0
 26 27  1  0  0  0
 28 98  1  0  0  0
 28 99  1  0  0  0
 29100  1  0  0  0
 29101  1  0  0  0
 33 34  1  0  0  0
 33 66  1  0  0  0
 33 70  2  0  0  0
 34 36  1  0  0  0
 34 59  1  0  0  0
 34102  1  0  0  0
 35 44  2  0  0  0
 35 45  1  0  0  0
 35 68  1  0  0  0
 36 56  1  0  0  0
 36103  1  0  0  0
 37 39  1  0  0  0
 37 47  1  0  0  0
 37 66  1  0  0  0
 37104  1  0  0  0
 38 43  2  0  0  0
 38 46  1  0  0  0
 38 47  1  0  0  0
 39 64  1  0  0  0
 39 67  2  0  0  0
 40 52  1  0  0  0
 40 53  2  0  0  0
 40 58  1  0  0  0
 41105  1  0  0  0
 41106  1  0  0  0
 41107  1  0  0  0
 41 48  1  0  0  0
 42 43  1  0  0  0
 42 66  1  0  0  0
 42108  1  0  0  0
 42109  1  0  0  0
 43 44  1  0  0  0
 44110  1  0  0  0
 45 46  2  0  0  0
 45111  1  0  0  0
 46112  1  0  0  0
 47113  1  0  0  0
 47114  1  0  0  0
 48 56  1  0  0  0
 48 65  1  0  0  0
 48115  1  0  0  0
 49 50  1  0  0  0
 49 53  1  0  0  0
 49 64  1  0  0  0
 49116  1  0  0  0
 50 51  1  0  0  0
 50117  1  0  0  0
 50118  1  0  0  0
 51 52  1  0  0  0
 51119  1  0  0  0
 51120  1  0  0  0
 52121  1  0  0  0
 52122  1  0  0  0
 53 54  1  0  0  0
 54 55  2  0  0  0
 54123  1  0  0  0
 55 57  1  0  0  0
 55124  1  0  0  0
 56 69  2  0  0  0
 57 58  2  0  0  0
 57125  1  0  0  0
 58126  1  0  0  0
 59 60  1  0  0  0
 59 61  1  0  0  0
 59 62  1  0  0  0
 60127  1  0  0  0
 60128  1  0  0  0
 60129  1  0  0  0
 61130  1  0  0  0
 61131  1  0  0  0
 61132  1  0  0  0
 62133  1  0  0  0
 62134  1  0  0  0
 62135  1  0  0  0
 63 65  1  0  0  0
 63136  1  0  0  0
 63137  1  0  0  0
 63138  1  0  0  0
 64139  1  0  0  0
 65140  1  0  0  0
 68 79  1  0  0  0
 71 72  2  0  0  0
 71 74  1  0  0  0
 71141  1  0  0  0
 72 75  1  0  0  0
 72142  1  0  0  0
 73 74  2  0  0  0
 73 76  1  0  0  0
 73143  1  0  0  0
 74 78  1  0  0  0
 75 76  2  0  0  0
 75 80  1  0  0  0
 76 81  1  0  0  0
 77 78  1  0  0  0
 77 79  1  0  0  0
 77144  1  0  0  0
 77145  1  0  0  0
 78 79  1  0  0  0
 78146  1  0  0  0
 79147  1  0  0  0
 80148  1  0  0  0
M  ISO  4   1 100  68 101  79 101  80 100
M  END
> <chiral flag>
0

> <version>
0

> <s_m_source_file>
/data/baiqing/PycharmProjects/Reinvent-master-3.2/result/LINK_invent/BTK/process_docking_weight1_custom_product_contain_oxygen_bond_distance_aromatic_linkinvent_7_9_3/rearranged_h_0004.sdf

> <i_m_source_file_index>
77

> <r_mmod_Potential_Energy-OPLS-2005>
976.8916015625

> <r_mmod_Stretch_Energy-OPLS-2005>
449.112457275391

> <r_mmod_Bend_Energy-OPLS-2005>
388.572631835938

> <r_mmod_Torsional_Energy-OPLS-2005>
238.883224487305

> <r_mmod_Improper_Torsional_Energy-OPLS-2005>
3.79152607917786

> <r_mmod_Van_der_Waal_Energy-OPLS-2005>
125.232765197754

> <r_mmod_Electrostatic_Energy-OPLS-2005>
-372.276947021484

> <r_mmod_Solvation_Energy-OPLS-2005>
-217.614196777344

> <b_mmod_Minimization_Converged-OPLS-2005>
0

> <r_mmod_RMS_Derivative-OPLS-2005>
3.49197864532471

$$$$
77
                    3D
 Structure written by MMmdl.
168177  0  0  1  0            999 V2000
  -30.6886  -14.4472   20.5436 C   0  0  0  0  0  0
  -30.4181  -12.2834   19.4149 C   0  0  0  0  0  0
  -29.4893  -12.5178   18.2046 C   0  0  0  0  0  0
  -28.0081  -12.3898   18.6111 C   0  0  0  0  0  0
  -27.6626  -13.2075   19.8847 C   0  0  2  0  0  0
  -28.7056  -12.9631   21.0013 C   0  0  0  0  0  0
  -25.2568  -13.8157   20.5744 C   0  0  0  0  0  0
  -24.1832  -13.0429   20.9205 C   0  0  0  0  0  0
  -24.6396  -11.6906   20.8750 C   0  0  0  0  0  0
  -23.9074  -10.4283   21.0394 C   0  0  0  0  0  0
  -24.3627   -9.4203   21.9180 C   0  0  0  0  0  0
  -23.6299   -8.2237   22.0766 C   0  0  0  0  0  0
  -22.4286   -8.0277   21.3560 C   0  0  0  0  0  0
  -21.9921   -9.0241   20.4654 C   0  0  0  0  0  0
  -22.7240  -10.2116   20.3041 C   0  0  0  0  0  0
  -21.6856   -6.0747   22.5300 C   0  0  0  0  0  0
  -21.3996   -6.5649   23.8226 C   0  0  0  0  0  0
  -21.3656   -5.6812   24.9193 C   0  0  0  0  0  0
  -21.6043   -4.3078   24.7244 C   0  0  0  0  0  0
  -21.8816   -3.8158   23.4370 C   0  0  0  0  0  0
  -21.9184   -4.6968   22.3424 C   0  0  0  0  0  0
  -22.7836  -13.5197   21.1869 C   0  0  0  0  0  0
  -22.1658   -4.2149   21.0999 F   0  0  0  0  0  0
  -21.5634   -3.4567   25.7766 F   0  0  0  0  0  0
  -30.0419  -13.2547   20.4525 N   0  0  0  0  0  0
  -26.3024  -12.9344   20.3430 N   0  0  0  0  0  0
  -25.9328  -11.6502   20.5781 N   0  0  0  0  0  0
  -22.0505  -12.8167   22.0422 N   0  0  0  0  0  0
  -25.4230  -15.1896   20.4188 N   0  0  0  0  0  0
  -31.8331  -14.6197   20.1274 O   0  0  0  0  0  0
  -21.6645   -6.8881   21.4256 O   0  0  0  0  0  0
  -22.3500  -14.5498   20.6728 O   0  0  0  0  0  0
  -24.6125  -31.8704   23.2123 C   0  0  0  0  0  0
  -25.9026  -32.4850   23.8415 C   0  0  1  0  0  0
  -27.2579  -27.4641   20.0982 C   0  0  0  0  0  0
  -25.5887  -33.8645   24.2349 N   0  0  0  0  0  0
  -23.4026  -30.4897   21.5508 C   0  0  2  0  0  0
  -24.8589  -28.9600   20.1204 C   0  0  0  0  0  0
  -22.7412  -29.4648   22.5003 C   0  0  0  0  0  0
  -18.0264  -28.1381   22.8501 C   0  0  0  0  0  0
  -24.1479  -36.7311   23.2638 C   0  0  0  0  0  0
  -25.9281  -30.8426   21.3655 C   0  0  0  0  0  0
  -26.0136  -29.4745   20.7251 C   0  0  0  0  0  0
  -27.2156  -28.7314   20.7254 C   0  0  0  0  0  0
  -26.0900  -26.9629   19.4904 C   0  0  0  0  0  0
  -24.8894  -27.6973   19.5032 C   0  0  0  0  0  0
  -23.6144  -29.8176   20.1672 C   0  0  0  0  0  0
  -25.4102  -36.3125   24.0343 C   0  0  1  0  0  0
  -20.5855  -28.3656   23.1331 C   0  0  2  0  0  0
  -20.6754  -26.9396   22.5427 C   0  0  0  0  0  0
  -19.5730  -26.6395   21.5219 C   0  0  0  0  0  0
  -18.1894  -26.7933   22.1619 C   0  0  0  0  0  0
  -19.1516  -28.8837   23.2912 C   0  0  0  0  0  0
  -18.9438  -30.1443   23.8920 C   0  0  0  0  0  0
  -17.6437  -30.6582   24.0567 C   0  0  0  0  0  0
  -25.9032  -34.9492   23.5143 C   0  0  0  0  0  0
  -16.5330  -29.9079   23.6335 C   0  0  0  0  0  0
  -16.7252  -28.6503   23.0351 C   0  0  0  0  0  0
  -26.4472  -31.6607   25.0723 C   0  0  0  0  0  0
  -25.3750  -31.3663   26.1467 C   0  0  0  0  0  0
  -27.0294  -30.3054   24.6060 C   0  0  0  0  0  0
  -27.6044  -32.4322   25.7497 C   0  0  0  0  0  0
  -27.5586  -37.1801   24.8457 C   0  0  0  0  0  0
  -21.4138  -29.3022   22.3749 N   0  0  0  0  0  0
  -26.4286  -37.3811   23.9422 N   0  0  0  0  0  0
  -24.6654  -31.0819   22.1018 N   0  0  0  0  0  0
  -23.4189  -28.8197   23.3046 O   0  0  0  0  0  0
  -28.3796  -26.6690   20.0115 O   0  0  0  0  0  0
  -26.5591  -34.8942   22.4702 O   0  0  0  0  0  0
  -23.5322  -32.1434   23.7533 O   0  0  0  0  0  0
  -30.6750  -24.8909   22.1403 C   0  0  0  0  0  0
  -31.5132  -23.7581   22.0880 C   0  0  0  0  0  0
  -32.8722  -18.3304   18.6171 C   0  0  0  0  0  0
  -33.0806  -19.4303   19.4634 C   0  0  0  0  0  0
  -30.8547  -25.1280   19.7284 C   0  0  0  0  0  0
  -31.1539  -18.7623   20.7836 C   0  0  0  0  0  0
  -30.3282  -25.5779   20.9576 C   0  0  0  0  0  0
  -31.7807  -17.4635   18.8137 C   0  0  0  0  0  0
  -32.0180  -23.2867   20.8559 C   0  0  0  0  0  0
  -31.6889  -23.9873   19.6655 C   0  0  0  0  0  0
  -30.9334  -17.6457   19.9419 C   0  0  0  0  0  0
  -32.1892  -19.6888   20.5290 C   0  0  0  0  0  0
  -31.5671  -16.3874   17.7589 C   0  0  0  0  0  0
  -32.2121  -23.5407   18.3099 C   0  0  0  0  0  0
  -32.9244  -22.0565   20.8507 C   0  0  0  0  0  0
  -29.7157  -16.7579   20.2276 C   0  0  0  0  0  0
  -29.3983  -26.7876   20.9986 C   0  0  0  0  0  0
  -32.2790  -20.8350   21.3385 N   0  0  0  0  0  0
  -29.8961  -15.4651   20.9080 N   0  0  0  0  0  0
  -31.4638  -12.3756   19.1122 H   0  0  0  0  0  0
  -30.3008  -11.2657   19.7921 H   0  0  0  0  0  0
  -29.7185  -11.8097   17.4079 H   0  0  0  0  0  0
  -29.6703  -13.5106   17.7870 H   0  0  0  0  0  0
  -27.7984  -11.3337   18.7791 H   0  0  0  0  0  0
  -27.3641  -12.6986   17.7867 H   0  0  0  0  0  0
  -27.7076  -14.2604   19.6066 H   0  0  0  0  0  0
  -28.6676  -11.9246   21.3331 H   0  0  0  0  0  0
  -28.4834  -13.5604   21.8869 H   0  0  0  0  0  0
  -25.2774   -9.5698   22.4746 H   0  0  0  0  0  0
  -24.0019   -7.4637   22.7501 H   0  0  0  0  0  0
  -21.0852   -8.8759   19.8959 H   0  0  0  0  0  0
  -22.3708  -10.9654   19.6152 H   0  0  0  0  0  0
  -21.1973   -7.6153   23.9726 H   0  0  0  0  0  0
  -21.1479   -6.0553   25.9093 H   0  0  0  0  0  0
  -22.0577   -2.7615   23.2898 H   0  0  0  0  0  0
  -22.4137  -11.9797   22.4746 H   0  0  0  0  0  0
  -21.1105  -13.1147   22.2652 H   0  0  0  0  0  0
  -24.6536  -15.8387   20.5398 H   0  0  0  0  0  0
  -26.2681  -15.6394   20.0934 H   0  0  0  0  0  0
  -26.7111  -32.5599   23.1200 H   0  0  0  0  0  0
  -25.0033  -33.9806   25.0490 H   0  0  0  0  0  0
  -22.6893  -31.3041   21.4076 H   0  0  0  0  0  0
  -23.3765  -35.9618   23.3280 H   0  0  0  0  0  0
  -24.3585  -36.8947   22.2058 H   0  0  0  0  0  0
  -23.7199  -37.6495   23.6662 H   0  0  0  0  0  0
  -26.0311  -31.6034   20.5907 H   0  0  0  0  0  0
  -26.8190  -30.9091   21.9778 H   0  0  0  0  0  0
  -28.1002  -29.1423   21.1903 H   0  0  0  0  0  0
  -26.1151  -25.9949   19.0096 H   0  0  0  0  0  0
  -24.0053  -27.2913   19.0314 H   0  0  0  0  0  0
  -23.7125  -30.5875   19.4011 H   0  0  0  0  0  0
  -22.7441  -29.2251   19.8795 H   0  0  0  0  0  0
  -25.1274  -36.1989   25.0833 H   0  0  0  0  0  0
  -20.9938  -28.3209   24.1458 H   0  0  0  0  0  0
  -20.5647  -26.2256   23.3604 H   0  0  0  0  0  0
  -21.6619  -26.7407   22.1226 H   0  0  0  0  0  0
  -19.6879  -25.6311   21.1229 H   0  0  0  0  0  0
  -19.6684  -27.3235   20.6771 H   0  0  0  0  0  0
  -17.4178  -26.6711   21.4004 H   0  0  0  0  0  0
  -18.0255  -26.0058   22.8993 H   0  0  0  0  0  0
  -19.7906  -30.7259   24.2301 H   0  0  0  0  0  0
  -17.4982  -31.6267   24.5164 H   0  0  0  0  0  0
  -15.5331  -30.2983   23.7650 H   0  0  0  0  0  0
  -15.8650  -28.0832   22.7048 H   0  0  0  0  0  0
  -24.5965  -30.6964   25.7790 H   0  0  0  0  0  0
  -24.8896  -32.2792   26.4923 H   0  0  0  0  0  0
  -25.8137  -30.8837   27.0213 H   0  0  0  0  0  0
  -26.2806  -29.6832   24.1135 H   0  0  0  0  0  0
  -27.4085  -29.7269   25.4496 H   0  0  0  0  0  0
  -27.8644  -30.4369   23.9172 H   0  0  0  0  0  0
  -27.2650  -33.3606   26.2094 H   0  0  0  0  0  0
  -28.3853  -32.6904   25.0334 H   0  0  0  0  0  0
  -28.0709  -31.8433   26.5400 H   0  0  0  0  0  0
  -28.2574  -38.0129   24.7567 H   0  0  0  0  0  0
  -28.1110  -36.2665   24.6199 H   0  0  0  0  0  0
  -27.2310  -37.1353   25.8859 H   0  0  0  0  0  0
  -20.9300  -29.8746   21.6974 H   0  0  0  0  0  0
  -26.0178  -38.2881   24.1470 H   0  0  0  0  0  0
  -30.2937  -25.2226   23.0958 H   0  0  0  0  0  0
  -31.7717  -23.2471   23.0056 H   0  0  0  0  0  0
  -33.5460  -18.1686   17.7864 H   0  0  0  0  0  0
  -33.9245  -20.0675   19.2484 H   0  0  0  0  0  0
  -30.6015  -25.6656   18.8237 H   0  0  0  0  0  0
  -30.4832  -18.9317   21.6149 H   0  0  0  0  0  0
  -32.3986  -15.6825   17.7848 H   0  0  0  0  0  0
  -31.5449  -16.8403   16.7660 H   0  0  0  0  0  0
  -30.6473  -15.8231   17.8819 H   0  0  0  0  0  0
  -31.8971  -24.2149   17.5129 H   0  0  0  0  0  0
  -31.8430  -22.5441   18.0656 H   0  0  0  0  0  0
  -33.3020  -23.5147   18.3016 H   0  0  0  0  0  0
  -33.7759  -22.2659   21.4977 H   0  0  0  0  0  0
  -33.3484  -21.9282   19.8608 H   0  0  0  0  0  0
  -29.1624  -16.5958   19.3023 H   0  0  0  0  0  0
  -29.0236  -17.3286   20.8488 H   0  0  0  0  0  0
  -29.9891  -27.6880   20.8223 H   0  0  0  0  0  0
  -28.9531  -26.8722   21.9920 H   0  0  0  0  0  0
  -31.5402  -20.9785   22.0196 H   0  0  0  0  0  0
  -29.0586  -15.1503   21.3756 H   0  0  0  0  0  0
  1 25  1  0  0  0
  1 30  2  0  0  0
  1 89  1  0  0  0
  2  3  1  0  0  0
  2 25  1  0  0  0
  2 90  1  0  0  0
  2 91  1  0  0  0
  3  4  1  0  0  0
  3 92  1  0  0  0
  3 93  1  0  0  0
  4  5  1  0  0  0
  4 94  1  0  0  0
  4 95  1  0  0  0
  5  6  1  0  0  0
  5 26  1  0  0  0
  5 96  1  0  0  0
  6 25  1  0  0  0
  6 97  1  0  0  0
  6 98  1  0  0  0
  7  8  2  0  0  0
  7 26  1  0  0  0
  7 29  1  0  0  0
  8  9  1  0  0  0
  8 22  1  0  0  0
  9 10  1  0  0  0
  9 27  2  0  0  0
 10 11  2  0  0  0
 10 15  1  0  0  0
 11 12  1  0  0  0
 11 99  1  0  0  0
 12 13  2  0  0  0
 12100  1  0  0  0
 13 14  1  0  0  0
 13 31  1  0  0  0
 14 15  2  0  0  0
 14101  1  0  0  0
 15102  1  0  0  0
 16 17  2  0  0  0
 16 21  1  0  0  0
 16 31  1  0  0  0
 17 18  1  0  0  0
 17103  1  0  0  0
 18 19  2  0  0  0
 18104  1  0  0  0
 19 20  1  0  0  0
 19 24  1  0  0  0
 20 21  2  0  0  0
 20105  1  0  0  0
 21 23  1  0  0  0
 22 28  1  0  0  0
 22 32  2  0  0  0
 26 27  1  0  0  0
 28106  1  0  0  0
 28107  1  0  0  0
 29108  1  0  0  0
 29109  1  0  0  0
 33 34  1  0  0  0
 33 66  1  0  0  0
 33 70  2  0  0  0
 34 36  1  0  0  0
 34 59  1  0  0  0
 34110  1  0  0  0
 35 44  2  0  0  0
 35 45  1  0  0  0
 35 68  1  0  0  0
 36 56  1  0  0  0
 36111  1  0  0  0
 37 39  1  0  0  0
 37 47  1  0  0  0
 37 66  1  0  0  0
 37112  1  0  0  0
 38 43  2  0  0  0
 38 46  1  0  0  0
 38 47  1  0  0  0
 39 64  1  0  0  0
 39 67  2  0  0  0
 40 52  1  0  0  0
 40 53  2  0  0  0
 40 58  1  0  0  0
 41113  1  0  0  0
 41114  1  0  0  0
 41115  1  0  0  0
 41 48  1  0  0  0
 42 43  1  0  0  0
 42 66  1  0  0  0
 42116  1  0  0  0
 42117  1  0  0  0
 43 44  1  0  0  0
 44118  1  0  0  0
 45 46  2  0  0  0
 45119  1  0  0  0
 46120  1  0  0  0
 47121  1  0  0  0
 47122  1  0  0  0
 48 56  1  0  0  0
 48 65  1  0  0  0
 48123  1  0  0  0
 49 50  1  0  0  0
 49 53  1  0  0  0
 49 64  1  0  0  0
 49124  1  0  0  0
 50 51  1  0  0  0
 50125  1  0  0  0
 50126  1  0  0  0
 51 52  1  0  0  0
 51127  1  0  0  0
 51128  1  0  0  0
 52129  1  0  0  0
 52130  1  0  0  0
 53 54  1  0  0  0
 54 55  2  0  0  0
 54131  1  0  0  0
 55 57  1  0  0  0
 55132  1  0  0  0
 56 69  2  0  0  0
 57 58  2  0  0  0
 57133  1  0  0  0
 58134  1  0  0  0
 59 60  1  0  0  0
 59 61  1  0  0  0
 59 62  1  0  0  0
 60135  1  0  0  0
 60136  1  0  0  0
 60137  1  0  0  0
 61138  1  0  0  0
 61139  1  0  0  0
 61140  1  0  0  0
 62141  1  0  0  0
 62142  1  0  0  0
 62143  1  0  0  0
 63 65  1  0  0  0
 63144  1  0  0  0
 63145  1  0  0  0
 63146  1  0  0  0
 64147  1  0  0  0
 65148  1  0  0  0
 68 87  1  0  0  0
 71 72  2  0  0  0
 71 77  1  0  0  0
 71149  1  0  0  0
 72 79  1  0  0  0
 72150  1  0  0  0
 73 74  2  0  0  0
 73 78  1  0  0  0
 73151  1  0  0  0
 74 82  1  0  0  0
 74152  1  0  0  0
 75 77  2  0  0  0
 75 80  1  0  0  0
 75153  1  0  0  0
 76 81  1  0  0  0
 76 82  2  0  0  0
 76154  1  0  0  0
 77 87  1  0  0  0
 78 81  2  0  0  0
 78 83  1  0  0  0
 79 80  2  0  0  0
 79 85  1  0  0  0
 80 84  1  0  0  0
 81 86  1  0  0  0
 82 88  1  0  0  0
 83155  1  0  0  0
 83156  1  0  0  0
 83157  1  0  0  0
 84158  1  0  0  0
 84159  1  0  0  0
 84160  1  0  0  0
 85 88  1  0  0  0
 85161  1  0  0  0
 85162  1  0  0  0
 86 89  1  0  0  0
 86163  1  0  0  0
 86164  1  0  0  0
 87165  1  0  0  0
 87166  1  0  0  0
 88167  1  0  0  0
 89168  1  0  0  0
M  ISO  4   1 100  68 101  87 101  89 100
M  END
> <chiral flag>
0

> <version>
0

> <s_m_source_file>
/data/baiqing/PycharmProjects/Reinvent-master-3.2/result/LINK_invent/BTK/process_docking_weight1_custom_product_contain_oxygen_bond_distance_aromatic_linkinvent_7_9_3/rearranged_h_0004.sdf

> <i_m_source_file_index>
78

> <r_mmod_Potential_Energy-OPLS-2005>
-76.0539474487305

> <r_mmod_Stretch_Energy-OPLS-2005>
37.4978179931641

> <r_mmod_Bend_Energy-OPLS-2005>
116.216255187988

> <r_mmod_Torsional_Energy-OPLS-2005>
236.924758911133

> <r_mmod_Improper_Torsional_Energy-OPLS-2005>
10.2347745895386

> <r_mmod_Van_der_Waal_Energy-OPLS-2005>
173.803268432617

> <r_mmod_Electrostatic_Energy-OPLS-2005>
-428.067718505859

> <r_mmod_Solvation_Energy-OPLS-2005>
-233.063842773438

> <b_mmod_Minimization_Converged-OPLS-2005>
0

> <r_mmod_RMS_Derivative-OPLS-2005>
2.70471787452698

$$$$
78
                    3D
 Structure written by MMmdl.
165173  0  0  1  0            999 V2000
  -30.0497  -16.3240   20.2639 C   0  0  0  0  0  0
  -30.3615  -13.5996   19.5519 C   0  0  0  0  0  0
  -29.5821  -12.8672   18.3964 C   0  0  0  0  0  0
  -28.2061  -12.3695   18.8518 C   0  0  0  0  0  0
  -27.5786  -13.3987   19.8091 C   0  0  2  0  0  0
  -28.5390  -14.0137   20.8813 C   0  0  0  0  0  0
  -25.2214  -13.8415   20.5906 C   0  0  0  0  0  0
  -24.1695  -13.0445   20.9336 C   0  0  0  0  0  0
  -24.6530  -11.7003   20.8742 C   0  0  0  0  0  0
  -23.9234  -10.4321   21.0355 C   0  0  0  0  0  0
  -24.3734   -9.4225   21.9149 C   0  0  0  0  0  0
  -23.6371   -8.2274   22.0744 C   0  0  0  0  0  0
  -22.4333   -8.0322   21.3553 C   0  0  0  0  0  0
  -22.0007   -9.0297   20.4632 C   0  0  0  0  0  0
  -22.7382  -10.2155   20.3021 C   0  0  0  0  0  0
  -21.6876   -6.0764   22.5279 C   0  0  0  0  0  0
  -21.4036   -6.5661   23.8214 C   0  0  0  0  0  0
  -21.3666   -5.6808   24.9172 C   0  0  0  0  0  0
  -21.6038   -4.3068   24.7218 C   0  0  0  0  0  0
  -21.8813   -3.8166   23.4336 C   0  0  0  0  0  0
  -21.9203   -4.6989   22.3398 C   0  0  0  0  0  0
  -22.7679  -13.5099   21.1944 C   0  0  0  0  0  0
  -22.1665   -4.2178   21.0974 F   0  0  0  0  0  0
  -21.5624   -3.4543   25.7727 F   0  0  0  0  0  0
  -29.6031  -14.8389   20.1899 N   0  0  0  0  0  0
  -26.2790  -12.9940   20.3345 N   0  0  0  0  0  0
  -25.9521  -11.6903   20.5654 N   0  0  0  0  0  0
  -22.0381  -12.8049   22.0495 N   0  0  0  0  0  0
  -25.3610  -15.2183   20.4387 N   0  0  0  0  0  0
  -31.2949  -16.1411   20.1632 O   0  0  0  0  0  0
  -21.6670   -6.8924   21.4251 O   0  0  0  0  0  0
  -22.3324  -14.5383   20.6773 O   0  0  0  0  0  0
  -24.7207  -31.7460   23.1275 C   0  0  0  0  0  0
  -25.9578  -32.4200   23.7921 C   0  0  1  0  0  0
  -27.2493  -26.2434   20.2253 C   0  0  0  0  0  0
  -25.5970  -33.8048   24.1728 N   0  0  0  0  0  0
  -23.5705  -30.3299   21.4889 C   0  0  2  0  0  0
  -25.0561  -28.6065   20.1076 C   0  0  0  0  0  0
  -22.7886  -29.4032   22.4598 C   0  0  0  0  0  0
  -18.0364  -28.1502   22.8418 C   0  0  0  0  0  0
  -24.1458  -36.6993   23.2668 C   0  0  0  0  0  0
  -26.1660  -30.3053   21.4986 C   0  0  0  0  0  0
  -26.2273  -28.8269   20.8403 C   0  0  0  0  0  0
  -27.2638  -27.6785   20.9016 C   0  0  0  0  0  0
  -26.1383  -26.4428   19.3269 C   0  0  0  0  0  0
  -25.0852  -27.4381   19.3163 C   0  0  0  0  0  0
  -23.8560  -29.5996   20.1359 C   0  0  0  0  0  0
  -25.4139  -36.2738   24.0247 C   0  0  1  0  0  0
  -20.5981  -28.3784   23.1117 C   0  0  2  0  0  0
  -20.6730  -26.9372   22.5582 C   0  0  0  0  0  0
  -19.5829  -26.6320   21.5278 C   0  0  0  0  0  0
  -18.1957  -26.8068   22.1496 C   0  0  0  0  0  0
  -19.1634  -28.8977   23.2742 C   0  0  0  0  0  0
  -18.9560  -30.1562   23.8776 C   0  0  0  0  0  0
  -17.6549  -30.6633   24.0574 C   0  0  0  0  0  0
  -25.9157  -34.9128   23.4879 C   0  0  0  0  0  0
  -16.5419  -29.9093   23.6465 C   0  0  0  0  0  0
  -16.7361  -28.6571   23.0389 C   0  0  0  0  0  0
  -26.4614  -31.6467   25.0741 C   0  0  0  0  0  0
  -25.3533  -31.3930   26.1249 C   0  0  0  0  0  0
  -27.0622  -30.2721   24.7117 C   0  0  0  0  0  0
  -27.5984  -32.4469   25.7525 C   0  0  0  0  0  0
  -27.5537  -37.1651   24.8487 C   0  0  0  0  0  0
  -21.4497  -29.2869   22.3283 N   0  0  0  0  0  0
  -26.4253  -37.3552   23.9402 N   0  0  0  0  0  0
  -24.8470  -30.8358   22.0890 N   0  0  0  0  0  0
  -23.4126  -28.7847   23.3225 O   0  0  0  0  0  0
  -27.8841  -24.6125   20.3672 O   0  0  0  0  0  0
  -26.5907  -34.8809   22.4571 O   0  0  0  0  0  0
  -23.6126  -32.0795   23.5914 O   0  0  0  0  0  0
  -29.1878  -23.0312   21.4471 C   0  0  0  0  0  0
  -28.2939  -24.2235   22.4357 C   0  0  0  0  0  0
  -27.0726  -22.5225   19.7573 C   0  0  0  0  0  0
  -28.5800  -21.8488   20.3243 C   0  0  0  0  0  0
  -25.9646  -23.6635   20.5852 C   0  0  0  0  0  0
  -26.5737  -24.5507   22.0462 C   0  0  0  0  0  0
  -22.1317  -23.7559   20.3259 C   0  0  0  0  0  0
  -29.3626  -19.8896   20.1191 C   0  0  0  0  0  0
  -24.5482  -23.9185   20.0637 C   0  0  0  0  0  0
  -24.4374  -21.8850   22.6266 C   0  0  0  0  0  0
  -25.8605  -22.2161   23.1492 C   0  0  0  0  0  0
  -23.5633  -23.0787   22.1942 C   0  0  0  0  0  0
  -27.0532  -22.3396   22.0781 C   0  0  0  0  0  0
  -29.3149  -17.8816   20.2823 N   0  0  0  0  0  0
  -23.4437  -23.1789   20.7200 N   0  3  1  0  0  0
  -25.8158  -25.4095   22.7688 F   0  0  0  0  0  0
  -31.3093  -13.9418   19.1320 H   0  0  0  0  0  0
  -30.6667  -12.8857   20.3194 H   0  0  0  0  0  0
  -30.1724  -12.0428   17.9938 H   0  0  0  0  0  0
  -29.4498  -13.5735   17.5760 H   0  0  0  0  0  0
  -28.3288  -11.4153   19.3663 H   0  0  0  0  0  0
  -27.5614  -12.1830   17.9926 H   0  0  0  0  0  0
  -27.3535  -14.2278   19.1357 H   0  0  0  0  0  0
  -28.9386  -13.2603   21.5632 H   0  0  0  0  0  0
  -27.9768  -14.7054   21.5105 H   0  0  0  0  0  0
  -25.2874   -9.5680   22.4732 H   0  0  0  0  0  0
  -24.0057   -7.4668   22.7481 H   0  0  0  0  0  0
  -21.0928   -8.8832   19.8951 H   0  0  0  0  0  0
  -22.3842  -10.9685   19.6119 H   0  0  0  0  0  0
  -21.2037   -7.6169   23.9728 H   0  0  0  0  0  0
  -21.1492   -6.0534   25.9078 H   0  0  0  0  0  0
  -22.0584   -2.7629   23.2823 H   0  0  0  0  0  0
  -22.4095  -11.9764   22.4898 H   0  0  0  0  0  0
  -21.0964  -13.0971   22.2673 H   0  0  0  0  0  0
  -24.5708  -15.8452   20.5470 H   0  0  0  0  0  0
  -26.1954  -15.6820   20.1055 H   0  0  0  0  0  0
  -26.7706  -32.4577   23.0654 H   0  0  0  0  0  0
  -24.9838  -33.9093   24.9677 H   0  0  0  0  0  0
  -22.9263  -31.1854   21.2704 H   0  0  0  0  0  0
  -23.3807  -35.9256   23.3288 H   0  0  0  0  0  0
  -24.3508  -36.8709   22.2111 H   0  0  0  0  0  0
  -23.7192  -37.6111   23.6816 H   0  0  0  0  0  0
  -26.4397  -31.0070   20.7116 H   0  0  0  0  0  0
  -26.9914  -30.3799   22.1894 H   0  0  0  0  0  0
  -28.0654  -27.8386   21.6135 H   0  0  0  0  0  0
  -25.9799  -25.6265   18.6395 H   0  0  0  0  0  0
  -24.2520  -27.2646   18.6469 H   0  0  0  0  0  0
  -24.0523  -30.3607   19.3793 H   0  0  0  0  0  0
  -22.9568  -29.0793   19.8010 H   0  0  0  0  0  0
  -25.1390  -36.1436   25.0747 H   0  0  0  0  0  0
  -21.0030  -28.3489   24.1257 H   0  0  0  0  0  0
  -20.5386  -26.2506   23.3945 H   0  0  0  0  0  0
  -21.6642  -26.7159   22.1654 H   0  0  0  0  0  0
  -19.6924  -25.6158   21.1487 H   0  0  0  0  0  0
  -19.6947  -27.3009   20.6739 H   0  0  0  0  0  0
  -17.4351  -26.7059   21.3743 H   0  0  0  0  0  0
  -18.0091  -26.0113   22.8729 H   0  0  0  0  0  0
  -19.8028  -30.7439   24.2044 H   0  0  0  0  0  0
  -17.5090  -31.6312   24.5177 H   0  0  0  0  0  0
  -15.5408  -30.2942   23.7867 H   0  0  0  0  0  0
  -15.8794  -28.0870   22.7108 H   0  0  0  0  0  0
  -24.5789  -30.7197   25.7555 H   0  0  0  0  0  0
  -24.8618  -32.3159   26.4311 H   0  0  0  0  0  0
  -25.7611  -30.9348   27.0259 H   0  0  0  0  0  0
  -26.3432  -29.6105   24.2255 H   0  0  0  0  0  0
  -27.3875  -29.7491   25.6121 H   0  0  0  0  0  0
  -27.9504  -30.3706   24.0878 H   0  0  0  0  0  0
  -27.2478  -33.3925   26.1669 H   0  0  0  0  0  0
  -28.3960  -32.6765   25.0451 H   0  0  0  0  0  0
  -28.0433  -31.8878   26.5757 H   0  0  0  0  0  0
  -28.2523  -37.9968   24.7504 H   0  0  0  0  0  0
  -28.1056  -36.2488   24.6345 H   0  0  0  0  0  0
  -27.2229  -37.1283   25.8883 H   0  0  0  0  0  0
  -20.9927  -29.8314   21.6099 H   0  0  0  0  0  0
  -26.0033  -38.2570   24.1455 H   0  0  0  0  0  0
  -30.1861  -22.8343   21.8138 H   0  0  0  0  0  0
  -28.7816  -24.7519   23.2454 H   0  0  0  0  0  0
  -26.6153  -21.9956   18.9317 H   0  0  0  0  0  0
  -22.0101  -23.7865   19.2429 H   0  0  0  0  0  0
  -22.0172  -24.7760   20.6969 H   0  0  0  0  0  0
  -21.3076  -23.1694   20.7301 H   0  0  0  0  0  0
  -30.3276  -20.0701   20.5908 H   0  0  0  0  0  0
  -29.6047  -19.9506   19.0589 H   0  0  0  0  0  0
  -24.5306  -23.7228   18.9927 H   0  0  0  0  0  0
  -24.3238  -24.9725   20.1977 H   0  0  0  0  0  0
  -23.9021  -21.4082   23.4482 H   0  0  0  0  0  0
  -24.4728  -21.1204   21.8480 H   0  0  0  0  0  0
  -26.1131  -21.3563   23.7754 H   0  0  0  0  0  0
  -25.8401  -23.0294   23.8720 H   0  0  0  0  0  0
  -23.8931  -24.0198   22.6259 H   0  0  0  0  0  0
  -22.5650  -22.9378   22.6167 H   0  0  0  0  0  0
  -26.7178  -21.3829   21.6423 H   0  0  0  0  0  0
  -27.7945  -21.8986   22.7696 H   0  0  0  0  0  0
  -28.3321  -17.6633   20.3756 H   0  0  0  0  0  0
  -23.4552  -22.2349   20.3589 H   0  0  0  0  0  0
  1 25  1  0  0  0
  1 30  2  0  0  0
  1 84  1  0  0  0
  2  3  1  0  0  0
  2 25  1  0  0  0
  2 87  1  0  0  0
  2 88  1  0  0  0
  3  4  1  0  0  0
  3 89  1  0  0  0
  3 90  1  0  0  0
  4  5  1  0  0  0
  4 91  1  0  0  0
  4 92  1  0  0  0
  5  6  1  0  0  0
  5 26  1  0  0  0
  5 93  1  0  0  0
  6 25  1  0  0  0
  6 94  1  0  0  0
  6 95  1  0  0  0
  7  8  2  0  0  0
  7 26  1  0  0  0
  7 29  1  0  0  0
  8  9  1  0  0  0
  8 22  1  0  0  0
  9 10  1  0  0  0
  9 27  2  0  0  0
 10 11  2  0  0  0
 10 15  1  0  0  0
 11 12  1  0  0  0
 11 96  1  0  0  0
 12 13  2  0  0  0
 12 97  1  0  0  0
 13 14  1  0  0  0
 13 31  1  0  0  0
 14 15  2  0  0  0
 14 98  1  0  0  0
 15 99  1  0  0  0
 16 17  2  0  0  0
 16 21  1  0  0  0
 16 31  1  0  0  0
 17 18  1  0  0  0
 17100  1  0  0  0
 18 19  2  0  0  0
 18101  1  0  0  0
 19 20  1  0  0  0
 19 24  1  0  0  0
 20 21  2  0  0  0
 20102  1  0  0  0
 21 23  1  0  0  0
 22 28  1  0  0  0
 22 32  2  0  0  0
 26 27  1  0  0  0
 28103  1  0  0  0
 28104  1  0  0  0
 29105  1  0  0  0
 29106  1  0  0  0
 33 34  1  0  0  0
 33 66  1  0  0  0
 33 70  2  0  0  0
 34 36  1  0  0  0
 34 59  1  0  0  0
 34107  1  0  0  0
 35 44  2  0  0  0
 35 45  1  0  0  0
 35 68  1  0  0  0
 36 56  1  0  0  0
 36108  1  0  0  0
 37 39  1  0  0  0
 37 47  1  0  0  0
 37 66  1  0  0  0
 37109  1  0  0  0
 38 43  2  0  0  0
 38 46  1  0  0  0
 38 47  1  0  0  0
 39 64  1  0  0  0
 39 67  2  0  0  0
 40 52  1  0  0  0
 40 53  2  0  0  0
 40 58  1  0  0  0
 41110  1  0  0  0
 41111  1  0  0  0
 41112  1  0  0  0
 41 48  1  0  0  0
 42 43  1  0  0  0
 42 66  1  0  0  0
 42113  1  0  0  0
 42114  1  0  0  0
 43 44  1  0  0  0
 44115  1  0  0  0
 45 46  2  0  0  0
 45116  1  0  0  0
 46117  1  0  0  0
 47118  1  0  0  0
 47119  1  0  0  0
 48 56  1  0  0  0
 48 65  1  0  0  0
 48120  1  0  0  0
 49 50  1  0  0  0
 49 53  1  0  0  0
 49 64  1  0  0  0
 49121  1  0  0  0
 50 51  1  0  0  0
 50122  1  0  0  0
 50123  1  0  0  0
 51 52  1  0  0  0
 51124  1  0  0  0
 51125  1  0  0  0
 52126  1  0  0  0
 52127  1  0  0  0
 53 54  1  0  0  0
 54 55  2  0  0  0
 54128  1  0  0  0
 55 57  1  0  0  0
 55129  1  0  0  0
 56 69  2  0  0  0
 57 58  2  0  0  0
 57130  1  0  0  0
 58131  1  0  0  0
 59 60  1  0  0  0
 59 61  1  0  0  0
 59 62  1  0  0  0
 60132  1  0  0  0
 60133  1  0  0  0
 60134  1  0  0  0
 61135  1  0  0  0
 61136  1  0  0  0
 61137  1  0  0  0
 62138  1  0  0  0
 62139  1  0  0  0
 62140  1  0  0  0
 63 65  1  0  0  0
 63141  1  0  0  0
 63142  1  0  0  0
 63143  1  0  0  0
 64144  1  0  0  0
 65145  1  0  0  0
 68 83  1  0  0  0
 71 72  2  0  0  0
 71 74  1  0  0  0
 71146  1  0  0  0
 72 76  1  0  0  0
 72147  1  0  0  0
 73 74  2  0  0  0
 73 75  1  0  0  0
 73148  1  0  0  0
 74 78  1  0  0  0
 75 76  2  0  0  0
 75 79  1  0  0  0
 76 86  1  0  0  0
 77149  1  0  0  0
 77150  1  0  0  0
 77151  1  0  0  0
 77 85  1  0  0  0
 78 84  1  0  0  0
 78152  1  0  0  0
 78153  1  0  0  0
 79 85  1  0  0  0
 79154  1  0  0  0
 79155  1  0  0  0
 80 81  1  0  0  0
 80 82  1  0  0  0
 80156  1  0  0  0
 80157  1  0  0  0
 81 83  1  0  0  0
 81158  1  0  0  0
 81159  1  0  0  0
 82 85  1  0  0  0
 82160  1  0  0  0
 82161  1  0  0  0
 83162  1  0  0  0
 83163  1  0  0  0
 84164  1  0  0  0
 85165  1  0  0  0
M  CHG  1  85   1
M  ISO  4   1 100  68 101  83 101  84 100
M  END
> <chiral flag>
0

> <version>
0

> <s_m_source_file>
/data/baiqing/PycharmProjects/Reinvent-master-3.2/result/LINK_invent/BTK/process_docking_weight1_custom_product_contain_oxygen_bond_distance_aromatic_linkinvent_7_9_3/rearranged_h_0004.sdf

> <i_m_source_file_index>
79

> <r_mmod_Potential_Energy-OPLS-2005>
11629.1259765625

> <r_mmod_Stretch_Energy-OPLS-2005>
6803.0595703125

> <r_mmod_Bend_Energy-OPLS-2005>
904.504760742188

> <r_mmod_Torsional_Energy-OPLS-2005>
343.379547119141

> <r_mmod_Improper_Torsional_Energy-OPLS-2005>
10.1842365264893

> <r_mmod_Van_der_Waal_Energy-OPLS-2005>
2025.23559570312

> <r_mmod_Electrostatic_Energy-OPLS-2005>
-282.07177734375

> <r_mmod_Solvation_Energy-OPLS-2005>
-473.301391601562

> <b_mmod_Minimization_Converged-OPLS-2005>
0

> <r_mmod_RMS_Derivative-OPLS-2005>
9.77605152130127

$$$$
79
                    3D
 Structure written by MMmdl.
140147  0  0  1  0            999 V2000
  -30.1611  -16.0041   20.3080 C   0  0  0  0  0  0
  -30.3940  -13.3709   19.5193 C   0  0  0  0  0  0
  -29.5602  -12.7495   18.3505 C   0  0  0  0  0  0
  -28.1679  -12.3098   18.8207 C   0  0  0  0  0  0
  -27.5837  -13.3431   19.8035 C   0  0  2  0  0  0
  -28.5794  -13.8362   20.8889 C   0  0  0  0  0  0
  -25.2278  -13.8329   20.5856 C   0  0  0  0  0  0
  -24.1700  -13.0433   20.9315 C   0  0  0  0  0  0
  -24.6450  -11.6960   20.8763 C   0  0  0  0  0  0
  -23.9156  -10.4295   21.0384 C   0  0  0  0  0  0
  -24.3676   -9.4207   21.9173 C   0  0  0  0  0  0
  -23.6326   -8.2253   22.0753 C   0  0  0  0  0  0
  -22.4305   -8.0296   21.3544 C   0  0  0  0  0  0
  -21.9960   -9.0273   20.4641 C   0  0  0  0  0  0
  -22.7315  -10.2138   20.3042 C   0  0  0  0  0  0
  -21.6863   -6.0747   22.5279 C   0  0  0  0  0  0
  -21.4022   -6.5646   23.8213 C   0  0  0  0  0  0
  -21.3661   -5.6796   24.9173 C   0  0  0  0  0  0
  -21.6044   -4.3059   24.7222 C   0  0  0  0  0  0
  -21.8818   -3.8153   23.4342 C   0  0  0  0  0  0
  -21.9196   -4.6972   22.3400 C   0  0  0  0  0  0
  -22.7702  -13.5137   21.1934 C   0  0  0  0  0  0
  -22.1662   -4.2158   21.0977 F   0  0  0  0  0  0
  -21.5626   -3.4540   25.7734 F   0  0  0  0  0  0
  -29.6775  -14.5802   20.1919 N   0  0  0  0  0  0
  -26.2769  -12.9729   20.3291 N   0  0  0  0  0  0
  -25.9412  -11.6758   20.5682 N   0  0  0  0  0  0
  -22.0374  -12.8106   22.0483 N   0  0  0  0  0  0
  -25.3817  -15.2078   20.4306 N   0  0  0  0  0  0
  -31.4087  -15.8722   20.2822 O   0  0  0  0  0  0
  -21.6655   -6.8899   21.4244 O   0  0  0  0  0  0
  -22.3368  -14.5432   20.6768 O   0  0  0  0  0  0
  -24.7122  -31.7741   23.1306 C   0  0  0  0  0  0
  -25.9575  -32.4339   23.7956 C   0  0  1  0  0  0
  -27.2357  -26.4414   20.2493 C   0  0  0  0  0  0
  -25.6043  -33.8173   24.1821 N   0  0  0  0  0  0
  -23.5502  -30.3697   21.4913 C   0  0  2  0  0  0
  -25.0042  -28.6446   20.1367 C   0  0  0  0  0  0
  -22.7896  -29.4343   22.4700 C   0  0  0  0  0  0
  -18.0162  -28.1569   22.8214 C   0  0  0  0  0  0
  -24.1498  -36.7093   23.2657 C   0  0  0  0  0  0
  -26.1405  -30.4200   21.4324 C   0  0  0  0  0  0
  -26.2010  -28.9529   20.7936 C   0  0  0  0  0  0
  -27.2917  -27.8910   20.8024 C   0  0  0  0  0  0
  -25.9991  -26.4075   19.5352 C   0  0  0  0  0  0
  -24.9575  -27.3998   19.4818 C   0  0  0  0  0  0
  -23.8153  -29.6344   20.1422 C   0  0  0  0  0  0
  -25.4158  -36.2817   24.0263 C   0  0  1  0  0  0
  -20.6073  -28.3875   23.0881 C   0  0  2  0  0  0
  -20.7786  -26.9756   22.4608 C   0  0  0  0  0  0
  -19.5498  -26.4216   21.7088 C   0  0  0  0  0  0
  -18.1097  -26.8638   22.0237 C   0  0  0  0  0  0
  -19.1588  -28.8842   23.2637 C   0  0  0  0  0  0
  -18.9570  -30.1345   23.8911 C   0  0  0  0  0  0
  -17.6624  -30.6560   24.0765 C   0  0  0  0  0  0
  -25.9160  -34.9216   23.4892 C   0  0  0  0  0  0
  -16.5419  -29.9202   23.6574 C   0  0  0  0  0  0
  -16.7219  -28.6723   23.0397 C   0  0  0  0  0  0
  -26.4648  -31.6466   25.0680 C   0  0  0  0  0  0
  -25.3637  -31.3855   26.1238 C   0  0  0  0  0  0
  -27.0614  -30.2776   24.6755 C   0  0  0  0  0  0
  -27.6047  -32.4377   25.7524 C   0  0  0  0  0  0
  -27.5558  -37.1705   24.8467 C   0  0  0  0  0  0
  -21.4495  -29.3435   22.3578 N   0  0  0  0  0  0
  -26.4262  -37.3606   23.9409 N   0  0  0  0  0  0
  -24.8283  -30.8941   22.0696 N   0  0  0  0  0  0
  -23.4210  -28.7802   23.3033 O   0  0  0  0  0  0
  -28.1967  -25.1262   20.2226 O   0  0  0  0  0  0
  -26.5824  -34.8842   22.4527 O   0  0  0  0  0  0
  -23.6085  -32.0940   23.6097 O   0  0  0  0  0  0
  -28.7705  -21.2825   19.9969 C   0  0  0  0  0  0
  -29.3625  -19.3536   20.6014 C   0  0  0  0  0  0
  -28.2110  -23.2498   20.5175 C   0  0  0  0  0  0
  -29.4079  -17.4693   20.2741 N   0  0  0  0  0  0
  -31.3466  -13.7011   19.1035 H   0  0  0  0  0  0
  -30.6640  -12.6081   20.2520 H   0  0  0  0  0  0
  -30.0920  -11.9085   17.9034 H   0  0  0  0  0  0
  -29.4512  -13.4961   17.5625 H   0  0  0  0  0  0
  -28.2677  -11.3481   19.3257 H   0  0  0  0  0  0
  -27.5014  -12.1499   17.9722 H   0  0  0  0  0  0
  -27.3925  -14.2099   19.1687 H   0  0  0  0  0  0
  -28.9347  -13.0208   21.5211 H   0  0  0  0  0  0
  -28.0774  -14.5353   21.5592 H   0  0  0  0  0  0
  -25.2813   -9.5677   22.4762 H   0  0  0  0  0  0
  -24.0020   -7.4647   22.7483 H   0  0  0  0  0  0
  -21.0888   -8.8807   19.8948 H   0  0  0  0  0  0
  -22.3776  -10.9680   19.6153 H   0  0  0  0  0  0
  -21.2018   -7.6155   23.9719 H   0  0  0  0  0  0
  -21.1482   -6.0525   25.9077 H   0  0  0  0  0  0
  -22.0594   -2.7615   23.2840 H   0  0  0  0  0  0
  -22.4027  -11.9789   22.4882 H   0  0  0  0  0  0
  -21.0974  -13.1085   22.2674 H   0  0  0  0  0  0
  -24.6092  -15.8546   20.5480 H   0  0  0  0  0  0
  -26.2271  -15.6547   20.1017 H   0  0  0  0  0  0
  -26.7689  -32.4750   23.0689 H   0  0  0  0  0  0
  -25.0068  -33.9166   24.9896 H   0  0  0  0  0  0
  -22.8946  -31.2157   21.2742 H   0  0  0  0  0  0
  -23.3788  -35.9392   23.3244 H   0  0  0  0  0  0
  -24.3558  -36.8846   22.2087 H   0  0  0  0  0  0
  -23.7232  -37.6231   23.6804 H   0  0  0  0  0  0
  -26.3681  -31.1235   20.6306 H   0  0  0  0  0  0
  -26.9832  -30.5006   22.1060 H   0  0  0  0  0  0
  -28.1975  -28.1537   21.3305 H   0  0  0  0  0  0
  -25.7911  -25.4872   19.0076 H   0  0  0  0  0  0
  -24.0632  -27.1495   18.9276 H   0  0  0  0  0  0
  -24.0136  -30.3783   19.3698 H   0  0  0  0  0  0
  -22.9130  -29.1146   19.8155 H   0  0  0  0  0  0
  -25.1379  -36.1542   25.0751 H   0  0  0  0  0  0
  -20.9993  -28.3319   24.1064 H   0  0  0  0  0  0
  -21.1583  -26.3040   23.2422 H   0  0  0  0  0  0
  -21.6163  -26.9721   21.7601 H   0  0  0  0  0  0
  -19.3880  -26.0269   22.7114 H   0  0  0  0  0  0
  -19.6128  -27.3462   21.1307 H   0  0  0  0  0  0
  -17.5815  -27.0283   21.0810 H   0  0  0  0  0  0
  -17.5017  -26.0951   22.5175 H   0  0  0  0  0  0
  -19.8097  -30.7074   24.2302 H   0  0  0  0  0  0
  -17.5302  -31.6181   24.5523 H   0  0  0  0  0  0
  -15.5460  -30.3152   23.8048 H   0  0  0  0  0  0
  -15.8546  -28.1225   22.6995 H   0  0  0  0  0  0
  -24.5858  -30.7178   25.7514 H   0  0  0  0  0  0
  -24.8793  -32.3100   26.4389 H   0  0  0  0  0  0
  -25.7743  -30.9184   27.0198 H   0  0  0  0  0  0
  -26.3378  -29.6321   24.1770 H   0  0  0  0  0  0
  -27.3966  -29.7315   25.5583 H   0  0  0  0  0  0
  -27.9387  -30.3845   24.0374 H   0  0  0  0  0  0
  -27.2557  -33.3779   26.1808 H   0  0  0  0  0  0
  -28.4013  -32.6778   25.0469 H   0  0  0  0  0  0
  -28.0543  -31.8704   26.5683 H   0  0  0  0  0  0
  -28.2525  -38.0046   24.7520 H   0  0  0  0  0  0
  -28.1104  -36.2565   24.6288 H   0  0  0  0  0  0
  -27.2271  -37.1326   25.8867 H   0  0  0  0  0  0
  -20.9859  -29.9264   21.6745 H   0  0  0  0  0  0
  -26.0065  -38.2641   24.1431 H   0  0  0  0  0  0
  -27.9479  -21.0312   19.3274 H   0  0  0  0  0  0
  -29.5799  -21.5046   19.3014 H   0  0  0  0  0  0
  -28.8623  -19.3135   21.5693 H   0  0  0  0  0  0
  -30.4044  -19.5229   20.8749 H   0  0  0  0  0  0
  -28.6621  -23.2870   21.5090 H   0  0  0  0  0  0
  -27.1534  -23.1048   20.7380 H   0  0  0  0  0  0
  -28.4467  -17.2150   20.0887 H   0  0  0  0  0  0
  1 25  1  0  0  0
  1 30  2  0  0  0
  1 74  1  0  0  0
  2  3  1  0  0  0
  2 25  1  0  0  0
  2 75  1  0  0  0
  2 76  1  0  0  0
  3  4  1  0  0  0
  3 77  1  0  0  0
  3 78  1  0  0  0
  4  5  1  0  0  0
  4 79  1  0  0  0
  4 80  1  0  0  0
  5  6  1  0  0  0
  5 26  1  0  0  0
  5 81  1  0  0  0
  6 25  1  0  0  0
  6 82  1  0  0  0
  6 83  1  0  0  0
  7  8  2  0  0  0
  7 26  1  0  0  0
  7 29  1  0  0  0
  8  9  1  0  0  0
  8 22  1  0  0  0
  9 10  1  0  0  0
  9 27  2  0  0  0
 10 11  2  0  0  0
 10 15  1  0  0  0
 11 12  1  0  0  0
 11 84  1  0  0  0
 12 13  2  0  0  0
 12 85  1  0  0  0
 13 14  1  0  0  0
 13 31  1  0  0  0
 14 15  2  0  0  0
 14 86  1  0  0  0
 15 87  1  0  0  0
 16 17  2  0  0  0
 16 21  1  0  0  0
 16 31  1  0  0  0
 17 18  1  0  0  0
 17 88  1  0  0  0
 18 19  2  0  0  0
 18 89  1  0  0  0
 19 20  1  0  0  0
 19 24  1  0  0  0
 20 21  2  0  0  0
 20 90  1  0  0  0
 21 23  1  0  0  0
 22 28  1  0  0  0
 22 32  2  0  0  0
 26 27  1  0  0  0
 28 91  1  0  0  0
 28 92  1  0  0  0
 29 93  1  0  0  0
 29 94  1  0  0  0
 33 34  1  0  0  0
 33 66  1  0  0  0
 33 70  2  0  0  0
 34 36  1  0  0  0
 34 59  1  0  0  0
 34 95  1  0  0  0
 35 44  2  0  0  0
 35 45  1  0  0  0
 35 68  1  0  0  0
 36 56  1  0  0  0
 36 96  1  0  0  0
 37 39  1  0  0  0
 37 47  1  0  0  0
 37 66  1  0  0  0
 37 97  1  0  0  0
 38 43  2  0  0  0
 38 46  1  0  0  0
 38 47  1  0  0  0
 39 64  1  0  0  0
 39 67  2  0  0  0
 40 52  1  0  0  0
 40 53  2  0  0  0
 40 58  1  0  0  0
 41 98  1  0  0  0
 41 99  1  0  0  0
 41100  1  0  0  0
 41 48  1  0  0  0
 42 43  1  0  0  0
 42 66  1  0  0  0
 42101  1  0  0  0
 42102  1  0  0  0
 43 44  1  0  0  0
 44103  1  0  0  0
 45 46  2  0  0  0
 45104  1  0  0  0
 46105  1  0  0  0
 47106  1  0  0  0
 47107  1  0  0  0
 48 56  1  0  0  0
 48 65  1  0  0  0
 48108  1  0  0  0
 49 50  1  0  0  0
 49 53  1  0  0  0
 49 64  1  0  0  0
 49109  1  0  0  0
 50 51  1  0  0  0
 50110  1  0  0  0
 50111  1  0  0  0
 51 52  1  0  0  0
 51112  1  0  0  0
 51113  1  0  0  0
 52114  1  0  0  0
 52115  1  0  0  0
 53 54  1  0  0  0
 54 55  2  0  0  0
 54116  1  0  0  0
 55 57  1  0  0  0
 55117  1  0  0  0
 56 69  2  0  0  0
 57 58  2  0  0  0
 57118  1  0  0  0
 58119  1  0  0  0
 59 60  1  0  0  0
 59 61  1  0  0  0
 59 62  1  0  0  0
 60120  1  0  0  0
 60121  1  0  0  0
 60122  1  0  0  0
 61123  1  0  0  0
 61124  1  0  0  0
 61125  1  0  0  0
 62126  1  0  0  0
 62127  1  0  0  0
 62128  1  0  0  0
 63 65  1  0  0  0
 63129  1  0  0  0
 63130  1  0  0  0
 63131  1  0  0  0
 64132  1  0  0  0
 65133  1  0  0  0
 68 73  1  0  0  0
 71 72  1  0  0  0
 71 73  1  0  0  0
 71134  1  0  0  0
 71135  1  0  0  0
 72 74  1  0  0  0
 72136  1  0  0  0
 72137  1  0  0  0
 73138  1  0  0  0
 73139  1  0  0  0
 74140  1  0  0  0
M  ISO  4   1 100  68 101  73 101  74 100
M  END
> <chiral flag>
0

> <version>
0

> <s_m_source_file>
/data/baiqing/PycharmProjects/Reinvent-master-3.2/result/LINK_invent/BTK/process_docking_weight1_custom_product_contain_oxygen_bond_distance_aromatic_linkinvent_7_9_3/rearranged_h_0004.sdf

> <i_m_source_file_index>
80

> <r_mmod_Potential_Energy-OPLS-2005>
4439.1796875

> <r_mmod_Stretch_Energy-OPLS-2005>
1928.78686523438

> <r_mmod_Bend_Energy-OPLS-2005>
1134.07287597656

> <r_mmod_Torsional_Energy-OPLS-2005>
253.740341186523

> <r_mmod_Improper_Torsional_Energy-OPLS-2005>
5.21059560775757

> <r_mmod_Van_der_Waal_Energy-OPLS-2005>
136.971328735352

> <r_mmod_Electrostatic_Energy-OPLS-2005>
-343.119842529297

> <r_mmod_Solvation_Energy-OPLS-2005>
-223.109710693359

> <b_mmod_Minimization_Converged-OPLS-2005>
0

> <r_mmod_RMS_Derivative-OPLS-2005>
0.0710311159491539

$$$$
80
                    3D
 Structure written by MMmdl.
166175  0  0  1  0            999 V2000
  -30.6270  -14.6121   20.5232 C   0  0  0  0  0  0
  -30.4411  -12.3761   19.4565 C   0  0  0  0  0  0
  -29.5128  -12.5138   18.2285 C   0  0  0  0  0  0
  -28.0330  -12.3577   18.6329 C   0  0  0  0  0  0
  -27.6597  -13.2142   19.8724 C   0  0  2  0  0  0
  -28.7017  -13.0416   21.0027 C   0  0  0  0  0  0
  -25.2588  -13.8168   20.5683 C   0  0  0  0  0  0
  -24.1842  -13.0442   20.9177 C   0  0  0  0  0  0
  -24.6400  -11.6911   20.8728 C   0  0  0  0  0  0
  -23.9062  -10.4297   21.0402 C   0  0  0  0  0  0
  -24.3614   -9.4213   21.9184 C   0  0  0  0  0  0
  -23.6290   -8.2250   22.0756 C   0  0  0  0  0  0
  -22.4274   -8.0283   21.3543 C   0  0  0  0  0  0
  -21.9905   -9.0259   20.4651 C   0  0  0  0  0  0
  -22.7230  -10.2139   20.3058 C   0  0  0  0  0  0
  -21.6853   -6.0735   22.5278 C   0  0  0  0  0  0
  -21.4013   -6.5641   23.8211 C   0  0  0  0  0  0
  -21.3660   -5.6796   24.9174 C   0  0  0  0  0  0
  -21.6045   -4.3058   24.7228 C   0  0  0  0  0  0
  -21.8819   -3.8145   23.4349 C   0  0  0  0  0  0
  -21.9194   -4.6961   22.3402 C   0  0  0  0  0  0
  -22.7867  -13.5243   21.1844 C   0  0  0  0  0  0
  -22.1664   -4.2145   21.0980 F   0  0  0  0  0  0
  -21.5630   -3.4542   25.7741 F   0  0  0  0  0  0
  -30.0256  -13.3828   20.4535 N   0  0  0  0  0  0
  -26.3020  -12.9346   20.3341 N   0  0  0  0  0  0
  -25.9333  -11.6500   20.5756 N   0  0  0  0  0  0
  -22.0500  -12.8239   22.0398 N   0  0  0  0  0  0
  -25.4317  -15.1886   20.4110 N   0  0  0  0  0  0
  -31.7534  -14.8091   20.0588 O   0  0  0  0  0  0
  -21.6643   -6.8877   21.4238 O   0  0  0  0  0  0
  -22.3553  -14.5551   20.6694 O   0  0  0  0  0  0
  -24.6236  -31.8618   23.2053 C   0  0  0  0  0  0
  -25.9093  -32.4792   23.8375 C   0  0  1  0  0  0
  -27.2281  -27.3385   20.1141 C   0  0  0  0  0  0
  -25.5916  -33.8593   24.2294 N   0  0  0  0  0  0
  -23.4168  -30.4858   21.5468 C   0  0  2  0  0  0
  -24.8647  -28.9439   20.1120 C   0  0  0  0  0  0
  -22.7460  -29.4632   22.4944 C   0  0  0  0  0  0
  -18.0281  -28.1384   22.8487 C   0  0  0  0  0  0
  -24.1487  -36.7304   23.2636 C   0  0  0  0  0  0
  -25.9565  -30.7946   21.3783 C   0  0  0  0  0  0
  -26.0303  -29.4220   20.7251 C   0  0  0  0  0  0
  -27.2119  -28.6257   20.7280 C   0  0  0  0  0  0
  -26.0452  -26.9184   19.4607 C   0  0  0  0  0  0
  -24.8719  -27.6945   19.4744 C   0  0  0  0  0  0
  -23.6316  -29.8217   20.1616 C   0  0  0  0  0  0
  -25.4111  -36.3095   24.0331 C   0  0  1  0  0  0
  -20.5879  -28.3688   23.1285 C   0  0  2  0  0  0
  -20.6770  -26.9413   22.5409 C   0  0  0  0  0  0
  -19.5747  -26.6386   21.5208 C   0  0  0  0  0  0
  -18.1927  -26.7928   22.1623 C   0  0  0  0  0  0
  -19.1533  -28.8852   23.2883 C   0  0  0  0  0  0
  -18.9459  -30.1453   23.8904 C   0  0  0  0  0  0
  -17.6461  -30.6588   24.0565 C   0  0  0  0  0  0
  -25.9046  -34.9462   23.5113 C   0  0  0  0  0  0
  -16.5351  -29.9090   23.6328 C   0  0  0  0  0  0
  -16.7269  -28.6504   23.0353 C   0  0  0  0  0  0
  -26.4488  -31.6597   25.0738 C   0  0  0  0  0  0
  -25.3727  -31.3735   26.1470 C   0  0  0  0  0  0
  -27.0325  -30.3019   24.6188 C   0  0  0  0  0  0
  -27.6049  -32.4334   25.7502 C   0  0  0  0  0  0
  -27.5581  -37.1808   24.8462 C   0  0  0  0  0  0
  -21.4176  -29.3046   22.3684 N   0  0  0  0  0  0
  -26.4292  -37.3788   23.9408 N   0  0  0  0  0  0
  -24.6839  -31.0641   22.1003 N   0  0  0  0  0  0
  -23.4189  -28.8170   23.3016 O   0  0  0  0  0  0
  -28.3502  -26.4992   20.1402 O   0  0  0  0  0  0
  -26.5616  -34.8925   22.4680 O   0  0  0  0  0  0
  -23.5404  -32.1412   23.7390 O   0  0  0  0  0  0
  -27.0530  -17.9223   23.2772 C   0  0  0  0  0  0
  -27.8777  -17.2298   22.3767 C   0  0  0  0  0  0
  -27.9801  -20.0236   22.4876 C   0  0  0  0  0  0
  -27.1056  -19.3287   23.3504 C   0  0  0  0  0  0
  -28.7780  -17.9144   21.5267 C   0  0  0  0  0  0
  -28.8194  -19.3563   21.5613 C   0  0  0  0  0  0
  -26.2592  -20.0968   24.3088 C   0  0  0  0  0  0
  -30.9720  -17.9211   20.3889 C   0  0  0  0  0  0
  -30.6115  -19.3513   19.8726 C   0  0  0  0  0  0
  -29.6952  -17.0869   20.5989 C   0  0  1  0  0  0
  -25.4042  -19.3092   25.2952 C   0  0  0  0  0  0
  -28.8243  -22.6249   20.3596 C   0  0  0  0  0  0
  -29.9020  -21.6030   20.9208 C   0  0  0  0  0  0
  -29.1284  -24.1812   20.5213 C   0  0  0  0  0  0
  -29.6827  -20.1256   20.7243 N   0  0  0  0  0  0
  -29.8263  -15.6254   20.9612 N   0  0  0  0  0  0
  -27.9689  -25.0504   20.1919 N   0  0  0  0  0  0
  -26.2255  -21.3300   24.3484 O   0  0  0  0  0  0
  -31.4846  -12.4965   19.1593 H   0  0  0  0  0  0
  -30.3679  -11.3737   19.8808 H   0  0  0  0  0  0
  -29.7737  -11.7714   17.4731 H   0  0  0  0  0  0
  -29.6638  -13.4888   17.7621 H   0  0  0  0  0  0
  -27.8578  -11.3024   18.8458 H   0  0  0  0  0  0
  -27.3857  -12.6089   17.7920 H   0  0  0  0  0  0
  -27.6861  -14.2548   19.5477 H   0  0  0  0  0  0
  -28.7034  -12.0123   21.3645 H   0  0  0  0  0  0
  -28.4439  -13.6525   21.8692 H   0  0  0  0  0  0
  -25.2761   -9.5691   22.4754 H   0  0  0  0  0  0
  -24.0000   -7.4645   22.7479 H   0  0  0  0  0  0
  -21.0831   -8.8777   19.8963 H   0  0  0  0  0  0
  -22.3684  -10.9678   19.6168 H   0  0  0  0  0  0
  -21.2004   -7.6151   23.9710 H   0  0  0  0  0  0
  -21.1481   -6.0531   25.9077 H   0  0  0  0  0  0
  -22.0595   -2.7605   23.2855 H   0  0  0  0  0  0
  -22.4106  -11.9894   22.4782 H   0  0  0  0  0  0
  -21.1123  -13.1278   22.2603 H   0  0  0  0  0  0
  -24.6655  -15.8427   20.5243 H   0  0  0  0  0  0
  -26.2815  -15.6291   20.0838 H   0  0  0  0  0  0
  -26.7161  -32.5471   23.1126 H   0  0  0  0  0  0
  -25.0054  -33.9743   25.0432 H   0  0  0  0  0  0
  -22.7099  -31.3059   21.4050 H   0  0  0  0  0  0
  -23.3748  -35.9639   23.3301 H   0  0  0  0  0  0
  -24.3576  -36.8921   22.2049 H   0  0  0  0  0  0
  -23.7245  -37.6510   23.6655 H   0  0  0  0  0  0
  -26.0865  -31.5561   20.6081 H   0  0  0  0  0  0
  -26.8378  -30.8447   22.0060 H   0  0  0  0  0  0
  -28.1058  -28.9851   21.2183 H   0  0  0  0  0  0
  -26.0091  -25.9710   18.9422 H   0  0  0  0  0  0
  -23.9822  -27.3250   18.9833 H   0  0  0  0  0  0
  -23.7492  -30.5986   19.4053 H   0  0  0  0  0  0
  -22.7523  -29.2499   19.8594 H   0  0  0  0  0  0
  -25.1289  -36.1953   25.0824 H   0  0  0  0  0  0
  -20.9972  -28.3264   24.1405 H   0  0  0  0  0  0
  -20.5661  -26.2302   23.3609 H   0  0  0  0  0  0
  -21.6641  -26.7438   22.1211 H   0  0  0  0  0  0
  -19.6910  -25.6297   21.1237 H   0  0  0  0  0  0
  -19.6683  -27.3195   20.6738 H   0  0  0  0  0  0
  -17.4194  -26.6670   21.4028 H   0  0  0  0  0  0
  -18.0332  -26.0067   22.9018 H   0  0  0  0  0  0
  -19.7937  -30.7262   24.2281 H   0  0  0  0  0  0
  -17.5018  -31.6267   24.5169 H   0  0  0  0  0  0
  -15.5354  -30.2998   23.7647 H   0  0  0  0  0  0
  -15.8667  -28.0826   22.7071 H   0  0  0  0  0  0
  -24.5901  -30.7081   25.7808 H   0  0  0  0  0  0
  -24.8919  -32.2901   26.4897 H   0  0  0  0  0  0
  -25.8057  -30.8918   27.0244 H   0  0  0  0  0  0
  -26.2896  -29.6779   24.1205 H   0  0  0  0  0  0
  -27.4009  -29.7270   25.4694 H   0  0  0  0  0  0
  -27.8775  -30.4302   23.9418 H   0  0  0  0  0  0
  -27.2658  -33.3632   26.2081 H   0  0  0  0  0  0
  -28.3856  -32.6898   25.0328 H   0  0  0  0  0  0
  -28.0721  -31.8460   26.5417 H   0  0  0  0  0  0
  -28.2602  -38.0103   24.7508 H   0  0  0  0  0  0
  -28.1075  -36.2635   24.6286 H   0  0  0  0  0  0
  -27.2299  -37.1457   25.8865 H   0  0  0  0  0  0
  -20.9349  -29.8777   21.6905 H   0  0  0  0  0  0
  -26.0176  -38.2865   24.1406 H   0  0  0  0  0  0
  -26.3891  -17.3507   23.9105 H   0  0  0  0  0  0
  -27.8014  -16.1536   22.3629 H   0  0  0  0  0  0
  -27.9983  -21.0987   22.5660 H   0  0  0  0  0  0
  -31.5320  -17.9910   21.3222 H   0  0  0  0  0  0
  -31.6303  -17.4371   19.6673 H   0  0  0  0  0  0
  -30.1652  -19.2713   18.8800 H   0  0  0  0  0  0
  -31.5367  -19.9127   19.7370 H   0  0  0  0  0  0
  -29.1776  -17.0722   19.6381 H   0  0  0  0  0  0
  -24.6453  -18.7341   24.7658 H   0  0  0  0  0  0
  -24.9018  -19.9843   25.9874 H   0  0  0  0  0  0
  -26.0251  -18.6269   25.8746 H   0  0  0  0  0  0
  -27.8617  -22.4163   20.8248 H   0  0  0  0  0  0
  -28.6775  -22.4186   19.2992 H   0  0  0  0  0  0
  -30.0494  -21.7918   21.9852 H   0  0  0  0  0  0
  -30.8595  -21.8636   20.4680 H   0  0  0  0  0  0
  -29.9705  -24.4499   19.8823 H   0  0  0  0  0  0
  -29.4338  -24.3921   21.5471 H   0  0  0  0  0  0
  -28.9938  -15.2637   21.3978 H   0  0  0  0  0  0
  -27.2688  -24.9806   20.9262 H   0  0  0  0  0  0
  1 25  1  0  0  0
  1 30  2  0  0  0
  1 86  1  0  0  0
  2  3  1  0  0  0
  2 25  1  0  0  0
  2 89  1  0  0  0
  2 90  1  0  0  0
  3  4  1  0  0  0
  3 91  1  0  0  0
  3 92  1  0  0  0
  4  5  1  0  0  0
  4 93  1  0  0  0
  4 94  1  0  0  0
  5  6  1  0  0  0
  5 26  1  0  0  0
  5 95  1  0  0  0
  6 25  1  0  0  0
  6 96  1  0  0  0
  6 97  1  0  0  0
  7  8  2  0  0  0
  7 26  1  0  0  0
  7 29  1  0  0  0
  8  9  1  0  0  0
  8 22  1  0  0  0
  9 10  1  0  0  0
  9 27  2  0  0  0
 10 11  2  0  0  0
 10 15  1  0  0  0
 11 12  1  0  0  0
 11 98  1  0  0  0
 12 13  2  0  0  0
 12 99  1  0  0  0
 13 14  1  0  0  0
 13 31  1  0  0  0
 14 15  2  0  0  0
 14100  1  0  0  0
 15101  1  0  0  0
 16 17  2  0  0  0
 16 21  1  0  0  0
 16 31  1  0  0  0
 17 18  1  0  0  0
 17102  1  0  0  0
 18 19  2  0  0  0
 18103  1  0  0  0
 19 20  1  0  0  0
 19 24  1  0  0  0
 20 21  2  0  0  0
 20104  1  0  0  0
 21 23  1  0  0  0
 22 28  1  0  0  0
 22 32  2  0  0  0
 26 27  1  0  0  0
 28105  1  0  0  0
 28106  1  0  0  0
 29107  1  0  0  0
 29108  1  0  0  0
 33 34  1  0  0  0
 33 66  1  0  0  0
 33 70  2  0  0  0
 34 36  1  0  0  0
 34 59  1  0  0  0
 34109  1  0  0  0
 35 44  2  0  0  0
 35 45  1  0  0  0
 35 68  1  0  0  0
 36 56  1  0  0  0
 36110  1  0  0  0
 37 39  1  0  0  0
 37 47  1  0  0  0
 37 66  1  0  0  0
 37111  1  0  0  0
 38 43  2  0  0  0
 38 46  1  0  0  0
 38 47  1  0  0  0
 39 64  1  0  0  0
 39 67  2  0  0  0
 40 52  1  0  0  0
 40 53  2  0  0  0
 40 58  1  0  0  0
 41112  1  0  0  0
 41113  1  0  0  0
 41114  1  0  0  0
 41 48  1  0  0  0
 42 43  1  0  0  0
 42 66  1  0  0  0
 42115  1  0  0  0
 42116  1  0  0  0
 43 44  1  0  0  0
 44117  1  0  0  0
 45 46  2  0  0  0
 45118  1  0  0  0
 46119  1  0  0  0
 47120  1  0  0  0
 47121  1  0  0  0
 48 56  1  0  0  0
 48 65  1  0  0  0
 48122  1  0  0  0
 49 50  1  0  0  0
 49 53  1  0  0  0
 49 64  1  0  0  0
 49123  1  0  0  0
 50 51  1  0  0  0
 50124  1  0  0  0
 50125  1  0  0  0
 51 52  1  0  0  0
 51126  1  0  0  0
 51127  1  0  0  0
 52128  1  0  0  0
 52129  1  0  0  0
 53 54  1  0  0  0
 54 55  2  0  0  0
 54130  1  0  0  0
 55 57  1  0  0  0
 55131  1  0  0  0
 56 69  2  0  0  0
 57 58  2  0  0  0
 57132  1  0  0  0
 58133  1  0  0  0
 59 60  1  0  0  0
 59 61  1  0  0  0
 59 62  1  0  0  0
 60134  1  0  0  0
 60135  1  0  0  0
 60136  1  0  0  0
 61137  1  0  0  0
 61138  1  0  0  0
 61139  1  0  0  0
 62140  1  0  0  0
 62141  1  0  0  0
 62142  1  0  0  0
 63 65  1  0  0  0
 63143  1  0  0  0
 63144  1  0  0  0
 63145  1  0  0  0
 64146  1  0  0  0
 65147  1  0  0  0
 68 87  1  0  0  0
 71 72  2  0  0  0
 71 74  1  0  0  0
 71148  1  0  0  0
 72 75  1  0  0  0
 72149  1  0  0  0
 73 74  2  0  0  0
 73 76  1  0  0  0
 73150  1  0  0  0
 74 77  1  0  0  0
 75 76  2  0  0  0
 75 80  1  0  0  0
 76 85  1  0  0  0
 77 81  1  0  0  0
 77 88  2  0  0  0
 78 79  1  0  0  0
 78 80  1  0  0  0
 78151  1  0  0  0
 78152  1  0  0  0
 79 85  1  0  0  0
 79153  1  0  0  0
 79154  1  0  0  0
 80 86  1  0  0  0
 80155  1  0  0  0
 81156  1  0  0  0
 81157  1  0  0  0
 81158  1  0  0  0
 82 83  1  0  0  0
 82 84  1  0  0  0
 82159  1  0  0  0
 82160  1  0  0  0
 83 85  1  0  0  0
 83161  1  0  0  0
 83162  1  0  0  0
 84 87  1  0  0  0
 84163  1  0  0  0
 84164  1  0  0  0
 86165  1  0  0  0
 87166  1  0  0  0
M  ISO  4   1 100  68 101  86 100  87 101
M  END
> <chiral flag>
0

> <version>
0

> <s_m_source_file>
/data/baiqing/PycharmProjects/Reinvent-master-3.2/result/LINK_invent/BTK/process_docking_weight1_custom_product_contain_oxygen_bond_distance_aromatic_linkinvent_7_9_3/rearranged_h_0004.sdf

> <i_m_source_file_index>
81

> <r_mmod_Potential_Energy-OPLS-2005>
-21.9220657348633

> <r_mmod_Stretch_Energy-OPLS-2005>
78.1988143920898

> <r_mmod_Bend_Energy-OPLS-2005>
149.044311523438

> <r_mmod_Torsional_Energy-OPLS-2005>
223.083206176758

> <r_mmod_Improper_Torsional_Energy-OPLS-2005>
5.99025726318359

> <r_mmod_Van_der_Waal_Energy-OPLS-2005>
160.471527099609

> <r_mmod_Electrostatic_Energy-OPLS-2005>
-433.214935302734

> <r_mmod_Solvation_Energy-OPLS-2005>
-245.464294433594

> <b_mmod_Minimization_Converged-OPLS-2005>
0

> <r_mmod_RMS_Derivative-OPLS-2005>
0.684129953384399

$$$$
81
                    3D
 Structure written by MMmdl.
159167  0  0  1  0            999 V2000
  -30.6949  -14.4566   20.5059 C   0  0  0  0  0  0
  -30.4201  -12.2729   19.4351 C   0  0  0  0  0  0
  -29.4999  -12.4857   18.2131 C   0  0  0  0  0  0
  -28.0175  -12.3593   18.6183 C   0  0  0  0  0  0
  -27.6627  -13.2007   19.8744 C   0  0  2  0  0  0
  -28.7054  -12.9911   21.0008 C   0  0  0  0  0  0
  -25.2602  -13.8152   20.5685 C   0  0  0  0  0  0
  -24.1848  -13.0435   20.9192 C   0  0  0  0  0  0
  -24.6397  -11.6903   20.8744 C   0  0  0  0  0  0
  -23.9061  -10.4296   21.0414 C   0  0  0  0  0  0
  -24.3616   -9.4213   21.9189 C   0  0  0  0  0  0
  -23.6295   -8.2246   22.0751 C   0  0  0  0  0  0
  -22.4276   -8.0282   21.3541 C   0  0  0  0  0  0
  -21.9908   -9.0259   20.4647 C   0  0  0  0  0  0
  -22.7235  -10.2141   20.3064 C   0  0  0  0  0  0
  -21.6854   -6.0741   22.5289 C   0  0  0  0  0  0
  -21.4009   -6.5642   23.8221 C   0  0  0  0  0  0
  -21.3660   -5.6793   24.9183 C   0  0  0  0  0  0
  -21.6048   -4.3056   24.7233 C   0  0  0  0  0  0
  -21.8815   -3.8151   23.4352 C   0  0  0  0  0  0
  -21.9194   -4.6970   22.3410 C   0  0  0  0  0  0
  -22.7875  -13.5246   21.1850 C   0  0  0  0  0  0
  -22.1661   -4.2155   21.0988 F   0  0  0  0  0  0
  -21.5632   -3.4538   25.7744 F   0  0  0  0  0  0
  -30.0421  -13.2671   20.4493 N   0  0  0  0  0  0
  -26.3028  -12.9304   20.3360 N   0  0  0  0  0  0
  -25.9319  -11.6476   20.5774 N   0  0  0  0  0  0
  -22.0503  -12.8248   22.0407 N   0  0  0  0  0  0
  -25.4312  -15.1867   20.4071 N   0  0  0  0  0  0
  -31.8511  -14.6161   20.1076 O   0  0  0  0  0  0
  -21.6634   -6.8882   21.4246 O   0  0  0  0  0  0
  -22.3576  -14.5565   20.6709 O   0  0  0  0  0  0
  -24.6142  -31.8684   23.2112 C   0  0  0  0  0  0
  -25.9043  -32.4825   23.8399 C   0  0  1  0  0  0
  -27.2323  -27.4353   20.0872 C   0  0  0  0  0  0
  -25.5896  -33.8623   24.2325 N   0  0  0  0  0  0
  -23.4015  -30.4936   21.5519 C   0  0  2  0  0  0
  -24.8462  -28.9634   20.1120 C   0  0  0  0  0  0
  -22.7405  -29.4666   22.4994 C   0  0  0  0  0  0
  -18.0269  -28.1382   22.8497 C   0  0  0  0  0  0
  -24.1488  -36.7312   23.2640 C   0  0  0  0  0  0
  -25.9307  -30.8335   21.3647 C   0  0  0  0  0  0
  -26.0059  -29.4697   20.7096 C   0  0  0  0  0  0
  -27.1992  -28.7116   20.6963 C   0  0  0  0  0  0
  -26.0526  -26.9548   19.4670 C   0  0  0  0  0  0
  -24.8641  -27.7055   19.4892 C   0  0  0  0  0  0
  -23.6080  -29.8283   20.1650 C   0  0  0  0  0  0
  -25.4111  -36.3114   24.0336 C   0  0  1  0  0  0
  -20.5862  -28.3670   23.1318 C   0  0  2  0  0  0
  -20.6761  -26.9403   22.5419 C   0  0  0  0  0  0
  -19.5739  -26.6391   21.5216 C   0  0  0  0  0  0
  -18.1917  -26.7927   22.1630 C   0  0  0  0  0  0
  -19.1520  -28.8844   23.2904 C   0  0  0  0  0  0
  -18.9448  -30.1451   23.8914 C   0  0  0  0  0  0
  -17.6451  -30.6588   24.0574 C   0  0  0  0  0  0
  -25.9040  -34.9476   23.5130 C   0  0  0  0  0  0
  -16.5341  -29.9095   23.6325 C   0  0  0  0  0  0
  -16.7258  -28.6511   23.0349 C   0  0  0  0  0  0
  -26.4463  -31.6614   25.0733 C   0  0  0  0  0  0
  -25.3718  -31.3731   26.1478 C   0  0  0  0  0  0
  -27.0293  -30.3053   24.6115 C   0  0  0  0  0  0
  -27.6041  -32.4334   25.7490 C   0  0  0  0  0  0
  -27.5577  -37.1818   24.8466 C   0  0  0  0  0  0
  -21.4133  -29.3038   22.3730 N   0  0  0  0  0  0
  -26.4297  -37.3796   23.9403 N   0  0  0  0  0  0
  -24.6674  -31.0788   22.1014 N   0  0  0  0  0  0
  -23.4175  -28.8196   23.3028 O   0  0  0  0  0  0
  -28.4105  -26.7109   20.1211 O   0  0  0  0  0  0
  -26.5598  -34.8923   22.4688 O   0  0  0  0  0  0
  -23.5335  -32.1444   23.7505 O   0  0  0  0  0  0
  -28.9758  -19.9842   21.3893 C   0  0  0  0  0  0
  -28.9505  -18.6261   21.0074 C   0  0  0  0  0  0
  -31.2340  -20.1849   20.5122 C   0  0  0  0  0  0
  -30.1066  -20.7829   21.1138 C   0  0  0  0  0  0
  -30.0546  -18.0422   20.3499 C   0  0  0  0  0  0
  -31.2231  -18.8217   20.1404 C   0  0  0  0  0  0
  -32.4666  -18.2340   19.4935 C   0  0  0  0  0  0
  -29.9046  -16.6415   19.7565 C   0  0  0  0  0  0
  -30.1178  -22.2702   21.4638 C   0  0  0  0  0  0
  -29.4418  -24.5459   20.6627 C   0  0  0  0  0  0
  -28.3505  -25.2969   19.8712 C   0  0  0  0  0  0
  -29.8878  -15.5117   20.6927 N   0  0  0  0  0  0
  -29.3536  -23.0703   20.4814 N   0  3  0  0  0  0
  -31.4692  -12.3499   19.1423 H   0  0  0  0  0  0
  -30.2968  -11.2655   19.8360 H   0  0  0  0  0  0
  -29.7347  -11.7558   17.4368 H   0  0  0  0  0  0
  -29.6833  -13.4673   17.7735 H   0  0  0  0  0  0
  -27.8177  -11.3047   18.8110 H   0  0  0  0  0  0
  -27.3742  -12.6399   17.7833 H   0  0  0  0  0  0
  -27.6997  -14.2448   19.5664 H   0  0  0  0  0  0
  -28.6690  -11.9635   21.3661 H   0  0  0  0  0  0
  -28.4865  -13.6203   21.8655 H   0  0  0  0  0  0
  -25.2761   -9.5695   22.4765 H   0  0  0  0  0  0
  -24.0013   -7.4635   22.7465 H   0  0  0  0  0  0
  -21.0840   -8.8786   19.8949 H   0  0  0  0  0  0
  -22.3699  -10.9686   19.6179 H   0  0  0  0  0  0
  -21.1987   -7.6147   23.9732 H   0  0  0  0  0  0
  -21.1486   -6.0517   25.9088 H   0  0  0  0  0  0
  -22.0590   -2.7613   23.2855 H   0  0  0  0  0  0
  -22.4085  -11.9907   22.4814 H   0  0  0  0  0  0
  -21.1119  -13.1289   22.2587 H   0  0  0  0  0  0
  -24.6587  -15.8361   20.5083 H   0  0  0  0  0  0
  -26.2737  -15.6289   20.0653 H   0  0  0  0  0  0
  -26.7112  -32.5530   23.1159 H   0  0  0  0  0  0
  -25.0058  -33.9796   25.0479 H   0  0  0  0  0  0
  -22.6908  -31.3114   21.4150 H   0  0  0  0  0  0
  -23.3744  -35.9655   23.3325 H   0  0  0  0  0  0
  -24.3575  -36.8900   22.2050 H   0  0  0  0  0  0
  -23.7247  -37.6529   23.6632 H   0  0  0  0  0  0
  -26.0448  -31.6013   20.5989 H   0  0  0  0  0  0
  -26.8176  -30.8838   21.9843 H   0  0  0  0  0  0
  -28.0933  -29.0985   21.1649 H   0  0  0  0  0  0
  -26.0229  -26.0075   18.9492 H   0  0  0  0  0  0
  -23.9737  -27.3162   19.0152 H   0  0  0  0  0  0
  -23.7133  -30.6037   19.4054 H   0  0  0  0  0  0
  -22.7324  -29.2467   19.8718 H   0  0  0  0  0  0
  -25.1291  -36.1989   25.0829 H   0  0  0  0  0  0
  -20.9954  -28.3232   24.1443 H   0  0  0  0  0  0
  -20.5677  -26.2269   23.3605 H   0  0  0  0  0  0
  -21.6630  -26.7460   22.1205 H   0  0  0  0  0  0
  -19.6898  -25.6310   21.1232 H   0  0  0  0  0  0
  -19.6676  -27.3217   20.6757 H   0  0  0  0  0  0
  -17.4187  -26.6679   21.4029 H   0  0  0  0  0  0
  -18.0316  -26.0068   22.9025 H   0  0  0  0  0  0
  -19.7926  -30.7259   24.2289 H   0  0  0  0  0  0
  -17.5012  -31.6271   24.5173 H   0  0  0  0  0  0
  -15.5347  -30.3008   23.7645 H   0  0  0  0  0  0
  -15.8654  -28.0840   22.7058 H   0  0  0  0  0  0
  -24.5889  -30.7082   25.7803 H   0  0  0  0  0  0
  -24.8918  -32.2900   26.4914 H   0  0  0  0  0  0
  -25.8067  -30.8902   27.0239 H   0  0  0  0  0  0
  -26.2848  -29.6828   24.1137 H   0  0  0  0  0  0
  -27.4023  -29.7277   25.4583 H   0  0  0  0  0  0
  -27.8692  -30.4366   23.9289 H   0  0  0  0  0  0
  -27.2661  -33.3623   26.2089 H   0  0  0  0  0  0
  -28.3834  -32.6910   25.0306 H   0  0  0  0  0  0
  -28.0720  -31.8445   26.5390 H   0  0  0  0  0  0
  -28.2620  -38.0092   24.7500 H   0  0  0  0  0  0
  -28.1051  -36.2628   24.6318 H   0  0  0  0  0  0
  -27.2287  -37.1495   25.8867 H   0  0  0  0  0  0
  -20.9290  -29.8762   21.6956 H   0  0  0  0  0  0
  -26.0189  -38.2878   24.1395 H   0  0  0  0  0  0
  -28.1089  -20.4144   21.8710 H   0  0  0  0  0  0
  -28.0556  -18.0430   21.1791 H   0  0  0  0  0  0
  -32.1143  -20.7844   20.3181 H   0  0  0  0  0  0
  -32.7080  -17.2632   19.9269 H   0  0  0  0  0  0
  -33.3360  -18.8761   19.6424 H   0  0  0  0  0  0
  -32.3217  -18.1085   18.4206 H   0  0  0  0  0  0
  -30.6206  -16.4891   18.9476 H   0  0  0  0  0  0
  -28.9440  -16.6201   19.2401 H   0  0  0  0  0  0
  -31.1476  -22.6281   21.5031 H   0  0  0  0  0  0
  -29.6995  -22.4112   22.4616 H   0  0  0  0  0  0
  -29.3310  -24.7853   21.7213 H   0  0  0  0  0  0
  -30.4319  -24.8909   20.3626 H   0  0  0  0  0  0
  -28.4570  -25.1195   18.8000 H   0  0  0  0  0  0
  -27.3940  -24.8753   20.1810 H   0  0  0  0  0  0
  -28.9892  -15.2962   21.0958 H   0  0  0  0  0  0
  -28.3914  -22.7812   20.5537 H   0  0  0  0  0  0
  -29.6722  -22.8238   19.5575 H   0  0  0  0  0  0
  1 25  1  0  0  0
  1 30  2  0  0  0
  1 82  1  0  0  0
  2  3  1  0  0  0
  2 25  1  0  0  0
  2 84  1  0  0  0
  2 85  1  0  0  0
  3  4  1  0  0  0
  3 86  1  0  0  0
  3 87  1  0  0  0
  4  5  1  0  0  0
  4 88  1  0  0  0
  4 89  1  0  0  0
  5  6  1  0  0  0
  5 26  1  0  0  0
  5 90  1  0  0  0
  6 25  1  0  0  0
  6 91  1  0  0  0
  6 92  1  0  0  0
  7  8  2  0  0  0
  7 26  1  0  0  0
  7 29  1  0  0  0
  8  9  1  0  0  0
  8 22  1  0  0  0
  9 10  1  0  0  0
  9 27  2  0  0  0
 10 11  2  0  0  0
 10 15  1  0  0  0
 11 12  1  0  0  0
 11 93  1  0  0  0
 12 13  2  0  0  0
 12 94  1  0  0  0
 13 14  1  0  0  0
 13 31  1  0  0  0
 14 15  2  0  0  0
 14 95  1  0  0  0
 15 96  1  0  0  0
 16 17  2  0  0  0
 16 21  1  0  0  0
 16 31  1  0  0  0
 17 18  1  0  0  0
 17 97  1  0  0  0
 18 19  2  0  0  0
 18 98  1  0  0  0
 19 20  1  0  0  0
 19 24  1  0  0  0
 20 21  2  0  0  0
 20 99  1  0  0  0
 21 23  1  0  0  0
 22 28  1  0  0  0
 22 32  2  0  0  0
 26 27  1  0  0  0
 28100  1  0  0  0
 28101  1  0  0  0
 29102  1  0  0  0
 29103  1  0  0  0
 33 34  1  0  0  0
 33 66  1  0  0  0
 33 70  2  0  0  0
 34 36  1  0  0  0
 34 59  1  0  0  0
 34104  1  0  0  0
 35 44  2  0  0  0
 35 45  1  0  0  0
 35 68  1  0  0  0
 36 56  1  0  0  0
 36105  1  0  0  0
 37 39  1  0  0  0
 37 47  1  0  0  0
 37 66  1  0  0  0
 37106  1  0  0  0
 38 43  2  0  0  0
 38 46  1  0  0  0
 38 47  1  0  0  0
 39 64  1  0  0  0
 39 67  2  0  0  0
 40 52  1  0  0  0
 40 53  2  0  0  0
 40 58  1  0  0  0
 41107  1  0  0  0
 41108  1  0  0  0
 41109  1  0  0  0
 41 48  1  0  0  0
 42 43  1  0  0  0
 42 66  1  0  0  0
 42110  1  0  0  0
 42111  1  0  0  0
 43 44  1  0  0  0
 44112  1  0  0  0
 45 46  2  0  0  0
 45113  1  0  0  0
 46114  1  0  0  0
 47115  1  0  0  0
 47116  1  0  0  0
 48 56  1  0  0  0
 48 65  1  0  0  0
 48117  1  0  0  0
 49 50  1  0  0  0
 49 53  1  0  0  0
 49 64  1  0  0  0
 49118  1  0  0  0
 50 51  1  0  0  0
 50119  1  0  0  0
 50120  1  0  0  0
 51 52  1  0  0  0
 51121  1  0  0  0
 51122  1  0  0  0
 52123  1  0  0  0
 52124  1  0  0  0
 53 54  1  0  0  0
 54 55  2  0  0  0
 54125  1  0  0  0
 55 57  1  0  0  0
 55126  1  0  0  0
 56 69  2  0  0  0
 57 58  2  0  0  0
 57127  1  0  0  0
 58128  1  0  0  0
 59 60  1  0  0  0
 59 61  1  0  0  0
 59 62  1  0  0  0
 60129  1  0  0  0
 60130  1  0  0  0
 60131  1  0  0  0
 61132  1  0  0  0
 61133  1  0  0  0
 61134  1  0  0  0
 62135  1  0  0  0
 62136  1  0  0  0
 62137  1  0  0  0
 63 65  1  0  0  0
 63138  1  0  0  0
 63139  1  0  0  0
 63140  1  0  0  0
 64141  1  0  0  0
 65142  1  0  0  0
 68 81  1  0  0  0
 71 72  2  0  0  0
 71 74  1  0  0  0
 71143  1  0  0  0
 72 75  1  0  0  0
 72144  1  0  0  0
 73 74  2  0  0  0
 73 76  1  0  0  0
 73145  1  0  0  0
 74 79  1  0  0  0
 75 76  2  0  0  0
 75 78  1  0  0  0
 76 77  1  0  0  0
 77146  1  0  0  0
 77147  1  0  0  0
 77148  1  0  0  0
 78 82  1  0  0  0
 78149  1  0  0  0
 78150  1  0  0  0
 79 83  1  0  0  0
 79151  1  0  0  0
 79152  1  0  0  0
 80 81  1  0  0  0
 80 83  1  0  0  0
 80153  1  0  0  0
 80154  1  0  0  0
 81155  1  0  0  0
 81156  1  0  0  0
 82157  1  0  0  0
 83158  1  0  0  0
 83159  1  0  0  0
M  CHG  1  83   1
M  ISO  4   1 100  68 101  81 101  82 100
M  END
> <chiral flag>
0

> <version>
0

> <s_m_source_file>
/data/baiqing/PycharmProjects/Reinvent-master-3.2/result/LINK_invent/BTK/process_docking_weight1_custom_product_contain_oxygen_bond_distance_aromatic_linkinvent_7_9_3/rearranged_h_0004.sdf

> <i_m_source_file_index>
82

> <r_mmod_Potential_Energy-OPLS-2005>
-261.709503173828

> <r_mmod_Stretch_Energy-OPLS-2005>
35.3366584777832

> <r_mmod_Bend_Energy-OPLS-2005>
92.126220703125

> <r_mmod_Torsional_Energy-OPLS-2005>
220.15119934082

> <r_mmod_Improper_Torsional_Energy-OPLS-2005>
12.3590898513794

> <r_mmod_Van_der_Waal_Energy-OPLS-2005>
153.624755859375

> <r_mmod_Electrostatic_Energy-OPLS-2005>
-333.5302734375

> <r_mmod_Solvation_Energy-OPLS-2005>
-456.608642578125

> <b_mmod_Minimization_Converged-OPLS-2005>
0

> <r_mmod_RMS_Derivative-OPLS-2005>
1.28803539276123

$$$$
82
                    3D
 Structure written by MMmdl.
147155  0  0  1  0            999 V2000
  -30.4075  -15.3385   20.3686 C   0  0  0  0  0  0
  -30.4394  -12.8683   19.5103 C   0  0  0  0  0  0
  -29.5353  -12.5855   18.2833 C   0  0  0  0  0  0
  -28.0893  -12.2930   18.7211 C   0  0  0  0  0  0
  -27.6063  -13.2779   19.8137 C   0  0  2  0  0  0
  -28.6417  -13.4868   20.9380 C   0  0  0  0  0  0
  -25.2377  -13.8243   20.5753 C   0  0  0  0  0  0
  -24.1737  -13.0429   20.9269 C   0  0  0  0  0  0
  -24.6398  -11.6928   20.8766 C   0  0  0  0  0  0
  -23.9094  -10.4288   21.0407 C   0  0  0  0  0  0
  -24.3638   -9.4202   21.9186 C   0  0  0  0  0  0
  -23.6304   -8.2241   22.0755 C   0  0  0  0  0  0
  -22.4285   -8.0282   21.3545 C   0  0  0  0  0  0
  -21.9928   -9.0257   20.4645 C   0  0  0  0  0  0
  -22.7265  -10.2131   20.3055 C   0  0  0  0  0  0
  -21.6855   -6.0738   22.5279 C   0  0  0  0  0  0
  -21.4016   -6.5641   23.8213 C   0  0  0  0  0  0
  -21.3660   -5.6793   24.9174 C   0  0  0  0  0  0
  -21.6044   -4.3056   24.7225 C   0  0  0  0  0  0
  -21.8819   -3.8148   23.4346 C   0  0  0  0  0  0
  -21.9193   -4.6965   22.3402 C   0  0  0  0  0  0
  -22.7753  -13.5180   21.1913 C   0  0  0  0  0  0
  -22.1661   -4.2151   21.0979 F   0  0  0  0  0  0
  -21.5628   -3.4539   25.7737 F   0  0  0  0  0  0
  -29.8534  -14.0220   20.2918 N   0  0  0  0  0  0
  -26.2801  -12.9521   20.3202 N   0  0  0  0  0  0
  -25.9334  -11.6624   20.5711 N   0  0  0  0  0  0
  -22.0412  -12.8161   22.0465 N   0  0  0  0  0  0
  -25.3993  -15.1980   20.4188 N   0  0  0  0  0  0
  -31.6420  -15.3254   20.2462 O   0  0  0  0  0  0
  -21.6644   -6.8882   21.4242 O   0  0  0  0  0  0
  -22.3433  -14.5481   20.6751 O   0  0  0  0  0  0
  -24.6676  -31.8193   23.1665 C   0  0  0  0  0  0
  -25.9335  -32.4567   23.8148 C   0  0  1  0  0  0
  -27.2191  -26.8807   20.2005 C   0  0  0  0  0  0
  -25.5984  -33.8383   24.2051 N   0  0  0  0  0  0
  -23.4844  -30.4287   21.5177 C   0  0  2  0  0  0
  -24.9377  -28.8020   20.1222 C   0  0  0  0  0  0
  -22.7687  -29.4421   22.4778 C   0  0  0  0  0  0
  -18.0326  -28.1411   22.8465 C   0  0  0  0  0  0
  -24.1494  -36.7197   23.2648 C   0  0  0  0  0  0
  -26.0566  -30.6118   21.4026 C   0  0  0  0  0  0
  -26.1252  -29.1943   20.7534 C   0  0  0  0  0  0
  -27.2630  -28.2590   20.7592 C   0  0  0  0  0  0
  -25.9986  -26.6489   19.5275 C   0  0  0  0  0  0
  -24.9018  -27.5500   19.4879 C   0  0  0  0  0  0
  -23.7278  -29.7379   20.1478 C   0  0  0  0  0  0
  -25.4137  -36.2954   24.0296 C   0  0  1  0  0  0
  -20.5953  -28.3760   23.1180 C   0  0  2  0  0  0
  -20.6801  -26.9438   22.5402 C   0  0  0  0  0  0
  -19.5775  -26.6377   21.5215 C   0  0  0  0  0  0
  -18.1957  -26.7943   22.1622 C   0  0  0  0  0  0
  -19.1588  -28.8907   23.2808 C   0  0  0  0  0  0
  -18.9497  -30.1496   23.8845 C   0  0  0  0  0  0
  -17.6489  -30.6599   24.0554 C   0  0  0  0  0  0
  -25.9105  -34.9339   23.4997 C   0  0  0  0  0  0
  -16.5379  -29.9085   23.6345 C   0  0  0  0  0  0
  -16.7307  -28.6506   23.0363 C   0  0  0  0  0  0
  -26.4569  -31.6528   25.0695 C   0  0  0  0  0  0
  -25.3682  -31.3791   26.1341 C   0  0  0  0  0  0
  -27.0475  -30.2890   24.6459 C   0  0  0  0  0  0
  -27.6050  -32.4348   25.7505 C   0  0  0  0  0  0
  -27.5568  -37.1756   24.8467 C   0  0  0  0  0  0
  -21.4353  -29.3043   22.3525 N   0  0  0  0  0  0
  -26.4278  -37.3695   23.9408 N   0  0  0  0  0  0
  -24.7582  -30.9814   22.0825 N   0  0  0  0  0  0
  -23.4213  -28.7999   23.3043 O   0  0  0  0  0  0
  -28.2246  -25.7619   20.1857 O   0  0  0  0  0  0
  -26.5721  -34.8883   22.4598 O   0  0  0  0  0  0
  -23.5734  -32.1182   23.6731 O   0  0  0  0  0  0
  -28.9453  -21.1695   17.9988 C   0  0  0  0  0  0
  -29.2196  -19.9454   18.6761 C   0  0  0  0  0  0
  -28.6601  -22.4175   18.6269 C   0  0  0  0  0  0
  -28.9239  -21.2205   20.7003 C   0  0  0  0  0  0
  -29.2567  -19.8277   20.0822 C   0  0  0  0  0  0
  -28.6045  -22.5905   20.0271 C   0  0  0  0  0  0
  -29.8038  -18.2707   20.7308 C   0  0  0  0  0  0
  -28.0097  -24.1588   20.6024 C   0  0  0  0  0  0
  -29.6295  -16.6212   20.3858 N   0  0  0  0  0  0
  -31.4482  -13.0988   19.1653 H   0  0  0  0  0  0
  -30.5387  -11.9797   20.1359 H   0  0  0  0  0  0
  -29.9296  -11.7509   17.7022 H   0  0  0  0  0  0
  -29.5454  -13.4526   17.6211 H   0  0  0  0  0  0
  -28.0631  -11.2750   19.1117 H   0  0  0  0  0  0
  -27.4172  -12.3093   17.8623 H   0  0  0  0  0  0
  -27.5076  -14.2341   19.2984 H   0  0  0  0  0  0
  -28.8363  -12.5627   21.4844 H   0  0  0  0  0  0
  -28.2690  -14.2079   21.6672 H   0  0  0  0  0  0
  -25.2779   -9.5677   22.4767 H   0  0  0  0  0  0
  -24.0008   -7.4632   22.7477 H   0  0  0  0  0  0
  -21.0859   -8.8781   19.8951 H   0  0  0  0  0  0
  -22.3724  -10.9673   19.6167 H   0  0  0  0  0  0
  -21.2010   -7.6149   23.9716 H   0  0  0  0  0  0
  -21.1482   -6.0523   25.9077 H   0  0  0  0  0  0
  -22.0597   -2.7610   23.2845 H   0  0  0  0  0  0
  -22.4047  -11.9832   22.4857 H   0  0  0  0  0  0
  -21.1022  -13.1164   22.2666 H   0  0  0  0  0  0
  -24.6265  -15.8451   20.5329 H   0  0  0  0  0  0
  -26.2357  -15.6418   20.0643 H   0  0  0  0  0  0
  -26.7408  -32.5095   23.0864 H   0  0  0  0  0  0
  -25.0072  -33.9453   25.0163 H   0  0  0  0  0  0
  -22.8002  -31.2613   21.3415 H   0  0  0  0  0  0
  -23.3771  -35.9511   23.3272 H   0  0  0  0  0  0
  -24.3570  -36.8885   22.2070 H   0  0  0  0  0  0
  -23.7237  -37.6366   23.6734 H   0  0  0  0  0  0
  -26.2389  -31.3476   20.6182 H   0  0  0  0  0  0
  -26.9157  -30.6743   22.0585 H   0  0  0  0  0  0
  -28.1689  -28.5669   21.2622 H   0  0  0  0  0  0
  -25.8699  -25.6954   19.0348 H   0  0  0  0  0  0
  -24.0014  -27.2428   18.9738 H   0  0  0  0  0  0
  -23.8906  -30.5027   19.3876 H   0  0  0  0  0  0
  -22.8360  -29.1960   19.8281 H   0  0  0  0  0  0
  -25.1338  -36.1743   25.0787 H   0  0  0  0  0  0
  -21.0037  -28.3369   24.1305 H   0  0  0  0  0  0
  -20.5680  -26.2380   23.3646 H   0  0  0  0  0  0
  -21.6664  -26.7409   22.1210 H   0  0  0  0  0  0
  -19.6934  -25.6274   21.1279 H   0  0  0  0  0  0
  -19.6713  -27.3158   20.6722 H   0  0  0  0  0  0
  -17.4226  -26.6685   21.4027 H   0  0  0  0  0  0
  -18.0352  -26.0099   22.9032 H   0  0  0  0  0  0
  -19.7972  -30.7327   24.2191 H   0  0  0  0  0  0
  -17.5039  -31.6274   24.5166 H   0  0  0  0  0  0
  -15.5377  -30.2969   23.7699 H   0  0  0  0  0  0
  -15.8708  -28.0806   22.7109 H   0  0  0  0  0  0
  -24.5883  -30.7122   25.7647 H   0  0  0  0  0  0
  -24.8852  -32.2996   26.4628 H   0  0  0  0  0  0
  -25.7902  -30.9048   27.0211 H   0  0  0  0  0  0
  -26.3154  -29.6552   24.1444 H   0  0  0  0  0  0
  -27.3969  -29.7271   25.5132 H   0  0  0  0  0  0
  -27.9108  -30.4062   23.9907 H   0  0  0  0  0  0
  -27.2610  -33.3698   26.1940 H   0  0  0  0  0  0
  -28.3937  -32.6831   25.0390 H   0  0  0  0  0  0
  -28.0634  -31.8571   26.5540 H   0  0  0  0  0  0
  -28.2565  -38.0071   24.7512 H   0  0  0  0  0  0
  -28.1085  -36.2596   24.6297 H   0  0  0  0  0  0
  -27.2284  -37.1400   25.8869 H   0  0  0  0  0  0
  -20.9620  -29.8722   21.6636 H   0  0  0  0  0  0
  -26.0121  -38.2751   24.1416 H   0  0  0  0  0  0
  -28.9516  -21.1496   16.9175 H   0  0  0  0  0  0
  -29.4437  -19.0700   18.0814 H   0  0  0  0  0  0
  -28.4390  -23.2690   17.9978 H   0  0  0  0  0  0
  -28.9082  -21.2402   21.7811 H   0  0  0  0  0  0
  -29.5077  -18.3294   21.7784 H   0  0  0  0  0  0
  -30.8867  -18.3942   20.7676 H   0  0  0  0  0  0
  -28.2486  -24.1429   21.6657 H   0  0  0  0  0  0
  -26.9275  -24.0300   20.5824 H   0  0  0  0  0  0
  -28.6486  -16.3991   20.3052 H   0  0  0  0  0  0
  1 25  1  0  0  0
  1 30  2  0  0  0
  1 79  1  0  0  0
  2  3  1  0  0  0
  2 25  1  0  0  0
  2 80  1  0  0  0
  2 81  1  0  0  0
  3  4  1  0  0  0
  3 82  1  0  0  0
  3 83  1  0  0  0
  4  5  1  0  0  0
  4 84  1  0  0  0
  4 85  1  0  0  0
  5  6  1  0  0  0
  5 26  1  0  0  0
  5 86  1  0  0  0
  6 25  1  0  0  0
  6 87  1  0  0  0
  6 88  1  0  0  0
  7  8  2  0  0  0
  7 26  1  0  0  0
  7 29  1  0  0  0
  8  9  1  0  0  0
  8 22  1  0  0  0
  9 10  1  0  0  0
  9 27  2  0  0  0
 10 11  2  0  0  0
 10 15  1  0  0  0
 11 12  1  0  0  0
 11 89  1  0  0  0
 12 13  2  0  0  0
 12 90  1  0  0  0
 13 14  1  0  0  0
 13 31  1  0  0  0
 14 15  2  0  0  0
 14 91  1  0  0  0
 15 92  1  0  0  0
 16 17  2  0  0  0
 16 21  1  0  0  0
 16 31  1  0  0  0
 17 18  1  0  0  0
 17 93  1  0  0  0
 18 19  2  0  0  0
 18 94  1  0  0  0
 19 20  1  0  0  0
 19 24  1  0  0  0
 20 21  2  0  0  0
 20 95  1  0  0  0
 21 23  1  0  0  0
 22 28  1  0  0  0
 22 32  2  0  0  0
 26 27  1  0  0  0
 28 96  1  0  0  0
 28 97  1  0  0  0
 29 98  1  0  0  0
 29 99  1  0  0  0
 33 34  1  0  0  0
 33 66  1  0  0  0
 33 70  2  0  0  0
 34 36  1  0  0  0
 34 59  1  0  0  0
 34100  1  0  0  0
 35 44  2  0  0  0
 35 45  1  0  0  0
 35 68  1  0  0  0
 36 56  1  0  0  0
 36101  1  0  0  0
 37 39  1  0  0  0
 37 47  1  0  0  0
 37 66  1  0  0  0
 37102  1  0  0  0
 38 43  2  0  0  0
 38 46  1  0  0  0
 38 47  1  0  0  0
 39 64  1  0  0  0
 39 67  2  0  0  0
 40 52  1  0  0  0
 40 53  2  0  0  0
 40 58  1  0  0  0
 41103  1  0  0  0
 41104  1  0  0  0
 41105  1  0  0  0
 41 48  1  0  0  0
 42 43  1  0  0  0
 42 66  1  0  0  0
 42106  1  0  0  0
 42107  1  0  0  0
 43 44  1  0  0  0
 44108  1  0  0  0
 45 46  2  0  0  0
 45109  1  0  0  0
 46110  1  0  0  0
 47111  1  0  0  0
 47112  1  0  0  0
 48 56  1  0  0  0
 48 65  1  0  0  0
 48113  1  0  0  0
 49 50  1  0  0  0
 49 53  1  0  0  0
 49 64  1  0  0  0
 49114  1  0  0  0
 50 51  1  0  0  0
 50115  1  0  0  0
 50116  1  0  0  0
 51 52  1  0  0  0
 51117  1  0  0  0
 51118  1  0  0  0
 52119  1  0  0  0
 52120  1  0  0  0
 53 54  1  0  0  0
 54 55  2  0  0  0
 54121  1  0  0  0
 55 57  1  0  0  0
 55122  1  0  0  0
 56 69  2  0  0  0
 57 58  2  0  0  0
 57123  1  0  0  0
 58124  1  0  0  0
 59 60  1  0  0  0
 59 61  1  0  0  0
 59 62  1  0  0  0
 60125  1  0  0  0
 60126  1  0  0  0
 60127  1  0  0  0
 61128  1  0  0  0
 61129  1  0  0  0
 61130  1  0  0  0
 62131  1  0  0  0
 62132  1  0  0  0
 62133  1  0  0  0
 63 65  1  0  0  0
 63134  1  0  0  0
 63135  1  0  0  0
 63136  1  0  0  0
 64137  1  0  0  0
 65138  1  0  0  0
 68 78  1  0  0  0
 71 72  2  0  0  0
 71 73  1  0  0  0
 71139  1  0  0  0
 72 75  1  0  0  0
 72140  1  0  0  0
 73 76  2  0  0  0
 73141  1  0  0  0
 74 75  2  0  0  0
 74 76  1  0  0  0
 74142  1  0  0  0
 75 77  1  0  0  0
 76 78  1  0  0  0
 77 79  1  0  0  0
 77143  1  0  0  0
 77144  1  0  0  0
 78145  1  0  0  0
 78146  1  0  0  0
 79147  1  0  0  0
M  ISO  4   1 100  68 101  78 101  79 100
M  END
> <chiral flag>
0

> <version>
0

> <s_m_source_file>
/data/baiqing/PycharmProjects/Reinvent-master-3.2/result/LINK_invent/BTK/process_docking_weight1_custom_product_contain_oxygen_bond_distance_aromatic_linkinvent_7_9_3/rearranged_h_0004.sdf

> <i_m_source_file_index>
83

> <r_mmod_Potential_Energy-OPLS-2005>
1401.74060058594

> <r_mmod_Stretch_Energy-OPLS-2005>
643.052795410156

> <r_mmod_Bend_Energy-OPLS-2005>
451.203063964844

> <r_mmod_Torsional_Energy-OPLS-2005>
238.437026977539

> <r_mmod_Improper_Torsional_Energy-OPLS-2005>
6.01917123794556

> <r_mmod_Van_der_Waal_Energy-OPLS-2005>
122.058601379395

> <r_mmod_Electrostatic_Energy-OPLS-2005>
-377.779266357422

> <r_mmod_Solvation_Energy-OPLS-2005>
-214.792663574219

> <b_mmod_Minimization_Converged-OPLS-2005>
1

> <r_mmod_RMS_Derivative-OPLS-2005>
0.046136412769556

$$$$
83
                    3D
 Structure written by MMmdl.
162172  0  0  1  0            999 V2000
  -30.6582  -14.5190   20.5853 C   0  0  0  0  0  0
  -30.4380  -12.3392   19.4263 C   0  0  0  0  0  0
  -29.5014  -12.5153   18.2107 C   0  0  0  0  0  0
  -28.0231  -12.3585   18.6228 C   0  0  0  0  0  0
  -27.6612  -13.2010   19.8746 C   0  0  2  0  0  0
  -28.7025  -12.9770   20.9947 C   0  0  0  0  0  0
  -25.2599  -13.8135   20.5686 C   0  0  0  0  0  0
  -24.1834  -13.0428   20.9168 C   0  0  0  0  0  0
  -24.6383  -11.6888   20.8726 C   0  0  0  0  0  0
  -23.9046  -10.4284   21.0400 C   0  0  0  0  0  0
  -24.3600   -9.4210   21.9187 C   0  0  0  0  0  0
  -23.6284   -8.2242   22.0754 C   0  0  0  0  0  0
  -22.4274   -8.0269   21.3537 C   0  0  0  0  0  0
  -21.9895   -9.0245   20.4649 C   0  0  0  0  0  0
  -22.7214  -10.2129   20.3061 C   0  0  0  0  0  0
  -21.6845   -6.0733   22.5277 C   0  0  0  0  0  0
  -21.4012   -6.5636   23.8215 C   0  0  0  0  0  0
  -21.3660   -5.6794   24.9174 C   0  0  0  0  0  0
  -21.6047   -4.3056   24.7230 C   0  0  0  0  0  0
  -21.8818   -3.8148   23.4347 C   0  0  0  0  0  0
  -21.9191   -4.6958   22.3405 C   0  0  0  0  0  0
  -22.7871  -13.5245   21.1841 C   0  0  0  0  0  0
  -22.1663   -4.2146   21.0980 F   0  0  0  0  0  0
  -21.5628   -3.4536   25.7738 F   0  0  0  0  0  0
  -30.0313  -13.3147   20.4511 N   0  0  0  0  0  0
  -26.3015  -12.9290   20.3358 N   0  0  0  0  0  0
  -25.9307  -11.6456   20.5761 N   0  0  0  0  0  0
  -22.0506  -12.8234   22.0389 N   0  0  0  0  0  0
  -25.4342  -15.1851   20.4076 N   0  0  0  0  0  0
  -31.7862  -14.7397   20.1302 O   0  0  0  0  0  0
  -21.6630   -6.8873   21.4241 O   0  0  0  0  0  0
  -22.3555  -14.5558   20.6692 O   0  0  0  0  0  0
  -24.6116  -31.8651   23.2084 C   0  0  0  0  0  0
  -25.9018  -32.4826   23.8362 C   0  0  1  0  0  0
  -27.2563  -27.4251   20.1014 C   0  0  0  0  0  0
  -25.5881  -33.8629   24.2311 N   0  0  0  0  0  0
  -23.4020  -30.4832   21.5483 C   0  0  2  0  0  0
  -24.8526  -28.9460   20.1157 C   0  0  0  0  0  0
  -22.7409  -29.4636   22.5021 C   0  0  0  0  0  0
  -18.0273  -28.1372   22.8489 C   0  0  0  0  0  0
  -24.1489  -36.7329   23.2638 C   0  0  0  0  0  0
  -25.9293  -30.8273   21.3598 C   0  0  0  0  0  0
  -26.0093  -29.4587   20.7139 C   0  0  0  0  0  0
  -27.2047  -28.7024   20.7087 C   0  0  0  0  0  0
  -26.0734  -26.9259   19.5058 C   0  0  0  0  0  0
  -24.8812  -27.6752   19.5121 C   0  0  0  0  0  0
  -23.6088  -29.8036   20.1680 C   0  0  0  0  0  0
  -25.4118  -36.3124   24.0334 C   0  0  1  0  0  0
  -20.5862  -28.3658   23.1327 C   0  0  2  0  0  0
  -20.6767  -26.9403   22.5413 C   0  0  0  0  0  0
  -19.5753  -26.6380   21.5211 C   0  0  0  0  0  0
  -18.1931  -26.7914   22.1614 C   0  0  0  0  0  0
  -19.1522  -28.8837   23.2893 C   0  0  0  0  0  0
  -18.9440  -30.1445   23.8905 C   0  0  0  0  0  0
  -17.6445  -30.6580   24.0578 C   0  0  0  0  0  0
  -25.9036  -34.9494   23.5129 C   0  0  0  0  0  0
  -16.5343  -29.9087   23.6323 C   0  0  0  0  0  0
  -16.7260  -28.6503   23.0341 C   0  0  0  0  0  0
  -26.4436  -31.6617   25.0710 C   0  0  0  0  0  0
  -25.3704  -31.3715   26.1462 C   0  0  0  0  0  0
  -27.0273  -30.3062   24.6079 C   0  0  0  0  0  0
  -27.6013  -32.4326   25.7468 C   0  0  0  0  0  0
  -27.5593  -37.1815   24.8464 C   0  0  0  0  0  0
  -21.4143  -29.3035   22.3743 N   0  0  0  0  0  0
  -26.4312  -37.3803   23.9397 N   0  0  0  0  0  0
  -24.6656  -31.0739   22.0972 N   0  0  0  0  0  0
  -23.4174  -28.8207   23.3096 O   0  0  0  0  0  0
  -28.4590  -26.7327   20.1496 O   0  0  0  0  0  0
  -26.5605  -34.8933   22.4696 O   0  0  0  0  0  0
  -23.5306  -32.1429   23.7456 O   0  0  0  0  0  0
  -29.0797  -23.2810   20.8164 C   0  0  0  0  0  0
  -28.9233  -24.3346   20.1989 C   0  0  0  0  0  0
  -29.0931  -19.1151   20.4652 C   0  0  0  0  0  0
  -29.0575  -17.6966   20.4362 C   0  0  0  0  0  0
  -31.0916  -17.5793   21.7796 C   0  0  0  0  0  0
  -31.0970  -18.9945   21.8059 C   0  0  0  0  0  0
  -30.1288  -19.7684   21.1664 C   0  0  0  0  0  0
  -30.0506  -16.9126   21.0846 C   0  0  0  0  0  0
  -33.4922  -19.8635   22.0457 C   0  0  0  0  0  0
  -33.5543  -21.0367   21.0680 C   0  0  0  0  0  0
  -32.0463  -19.8768   22.5553 C   0  0  1  0  0  0
  -31.4924  -21.2865   22.2316 C   0  0  2  0  0  0
  -29.1383  -22.0053   21.5828 C   0  0  0  0  0  0
  -28.7099  -25.5494   19.3637 C   0  0  0  0  0  0
  -30.3247  -21.1620   21.3276 N   0  0  0  0  0  0
  -29.8931  -15.4896   21.1368 N   0  0  0  0  0  0
  -32.5854  -22.0218   21.5741 N   0  3  0  0  0  0
  -31.4795  -12.4681   19.1255 H   0  0  0  0  0  0
  -30.3640  -11.3267   19.8268 H   0  0  0  0  0  0
  -29.7523  -11.7897   17.4360 H   0  0  0  0  0  0
  -29.6533  -13.5016   17.7693 H   0  0  0  0  0  0
  -27.8472  -11.3015   18.8283 H   0  0  0  0  0  0
  -27.3680  -12.6200   17.7912 H   0  0  0  0  0  0
  -27.7064  -14.2489   19.5767 H   0  0  0  0  0  0
  -28.6936  -11.9338   21.3143 H   0  0  0  0  0  0
  -28.4525  -13.5494   21.8890 H   0  0  0  0  0  0
  -25.2750   -9.5680   22.4751 H   0  0  0  0  0  0
  -23.9996   -7.4630   22.7467 H   0  0  0  0  0  0
  -21.0829   -8.8761   19.8953 H   0  0  0  0  0  0
  -22.3679  -10.9662   19.6164 H   0  0  0  0  0  0
  -21.2007   -7.6144   23.9715 H   0  0  0  0  0  0
  -21.1483   -6.0522   25.9079 H   0  0  0  0  0  0
  -22.0598   -2.7607   23.2848 H   0  0  0  0  0  0
  -22.4110  -11.9897   22.4787 H   0  0  0  0  0  0
  -21.1138  -13.1272   22.2621 H   0  0  0  0  0  0
  -24.6683  -15.8418   20.5109 H   0  0  0  0  0  0
  -26.2856  -15.6184   20.0744 H   0  0  0  0  0  0
  -26.7131  -32.5529   23.1152 H   0  0  0  0  0  0
  -25.0032  -33.9773   25.0443 H   0  0  0  0  0  0
  -22.6929  -31.3022   21.4015 H   0  0  0  0  0  0
  -23.3745  -35.9669   23.3301 H   0  0  0  0  0  0
  -24.3585  -36.8923   22.2057 H   0  0  0  0  0  0
  -23.7248  -37.6532   23.6650 H   0  0  0  0  0  0
  -26.0404  -31.5873   20.5847 H   0  0  0  0  0  0
  -26.8203  -30.8877   21.9732 H   0  0  0  0  0  0
  -28.0961  -29.0982   21.1782 H   0  0  0  0  0  0
  -26.0326  -25.9458   19.0547 H   0  0  0  0  0  0
  -23.9929  -27.2640   19.0512 H   0  0  0  0  0  0
  -23.7044  -30.5663   19.3952 H   0  0  0  0  0  0
  -22.7391  -29.2092   19.8820 H   0  0  0  0  0  0
  -25.1288  -36.1992   25.0829 H   0  0  0  0  0  0
  -20.9946  -28.3235   24.1448 H   0  0  0  0  0  0
  -20.5675  -26.2285   23.3597 H   0  0  0  0  0  0
  -21.6642  -26.7467   22.1215 H   0  0  0  0  0  0
  -19.6920  -25.6292   21.1244 H   0  0  0  0  0  0
  -19.6686  -27.3195   20.6749 H   0  0  0  0  0  0
  -17.4195  -26.6654   21.4018 H   0  0  0  0  0  0
  -18.0341  -26.0054   22.9013 H   0  0  0  0  0  0
  -19.7920  -30.7250   24.2285 H   0  0  0  0  0  0
  -17.5005  -31.6267   24.5161 H   0  0  0  0  0  0
  -15.5344  -30.2998   23.7622 H   0  0  0  0  0  0
  -15.8660  -28.0827   22.7053 H   0  0  0  0  0  0
  -24.5892  -30.7036   25.7792 H   0  0  0  0  0  0
  -24.8885  -32.2878   26.4896 H   0  0  0  0  0  0
  -25.8060  -30.8904   27.0235 H   0  0  0  0  0  0
  -26.2826  -29.6841   24.1104 H   0  0  0  0  0  0
  -27.4010  -29.7260   25.4525 H   0  0  0  0  0  0
  -27.8672  -30.4373   23.9252 H   0  0  0  0  0  0
  -27.2643  -33.3612   26.2077 H   0  0  0  0  0  0
  -28.3813  -32.6899   25.0296 H   0  0  0  0  0  0
  -28.0718  -31.8448   26.5354 H   0  0  0  0  0  0
  -28.2610  -38.0107   24.7521 H   0  0  0  0  0  0
  -28.1076  -36.2640   24.6286 H   0  0  0  0  0  0
  -27.2313  -37.1474   25.8860 H   0  0  0  0  0  0
  -20.9311  -29.8739   21.6946 H   0  0  0  0  0  0
  -26.0197  -38.2875   24.1367 H   0  0  0  0  0  0
  -28.3287  -19.6838   19.9553 H   0  0  0  0  0  0
  -28.2447  -17.2131   19.9134 H   0  0  0  0  0  0
  -31.8454  -17.0241   22.3197 H   0  0  0  0  0  0
  -34.1656  -20.0698   22.8799 H   0  0  0  0  0  0
  -33.7970  -18.9130   21.6074 H   0  0  0  0  0  0
  -33.2379  -20.7112   20.0763 H   0  0  0  0  0  0
  -34.5549  -21.4572   20.9741 H   0  0  0  0  0  0
  -31.9909  -19.6520   23.6210 H   0  0  0  0  0  0
  -31.2183  -21.8066   23.1513 H   0  0  0  0  0  0
  -28.2094  -21.4665   21.3899 H   0  0  0  0  0  0
  -29.1056  -22.2732   22.6396 H   0  0  0  0  0  0
  -27.9703  -25.3416   18.5977 H   0  0  0  0  0  0
  -29.6421  -25.7188   18.8229 H   0  0  0  0  0  0
  -28.9787  -15.1639   21.4131 H   0  0  0  0  0  0
  -32.2537  -22.6364   20.8500 H   0  0  0  0  0  0
  -33.0490  -22.5778   22.2756 H   0  0  0  0  0  0
  1 25  1  0  0  0
  1 30  2  0  0  0
  1 86  1  0  0  0
  2  3  1  0  0  0
  2 25  1  0  0  0
  2 88  1  0  0  0
  2 89  1  0  0  0
  3  4  1  0  0  0
  3 90  1  0  0  0
  3 91  1  0  0  0
  4  5  1  0  0  0
  4 92  1  0  0  0
  4 93  1  0  0  0
  5  6  1  0  0  0
  5 26  1  0  0  0
  5 94  1  0  0  0
  6 25  1  0  0  0
  6 95  1  0  0  0
  6 96  1  0  0  0
  7  8  2  0  0  0
  7 26  1  0  0  0
  7 29  1  0  0  0
  8  9  1  0  0  0
  8 22  1  0  0  0
  9 10  1  0  0  0
  9 27  2  0  0  0
 10 11  2  0  0  0
 10 15  1  0  0  0
 11 12  1  0  0  0
 11 97  1  0  0  0
 12 13  2  0  0  0
 12 98  1  0  0  0
 13 14  1  0  0  0
 13 31  1  0  0  0
 14 15  2  0  0  0
 14 99  1  0  0  0
 15100  1  0  0  0
 16 17  2  0  0  0
 16 21  1  0  0  0
 16 31  1  0  0  0
 17 18  1  0  0  0
 17101  1  0  0  0
 18 19  2  0  0  0
 18102  1  0  0  0
 19 20  1  0  0  0
 19 24  1  0  0  0
 20 21  2  0  0  0
 20103  1  0  0  0
 21 23  1  0  0  0
 22 28  1  0  0  0
 22 32  2  0  0  0
 26 27  1  0  0  0
 28104  1  0  0  0
 28105  1  0  0  0
 29106  1  0  0  0
 29107  1  0  0  0
 33 34  1  0  0  0
 33 66  1  0  0  0
 33 70  2  0  0  0
 34 36  1  0  0  0
 34 59  1  0  0  0
 34108  1  0  0  0
 35 44  2  0  0  0
 35 45  1  0  0  0
 35 68  1  0  0  0
 36 56  1  0  0  0
 36109  1  0  0  0
 37 39  1  0  0  0
 37 47  1  0  0  0
 37 66  1  0  0  0
 37110  1  0  0  0
 38 43  2  0  0  0
 38 46  1  0  0  0
 38 47  1  0  0  0
 39 64  1  0  0  0
 39 67  2  0  0  0
 40 52  1  0  0  0
 40 53  2  0  0  0
 40 58  1  0  0  0
 41111  1  0  0  0
 41112  1  0  0  0
 41113  1  0  0  0
 41 48  1  0  0  0
 42 43  1  0  0  0
 42 66  1  0  0  0
 42114  1  0  0  0
 42115  1  0  0  0
 43 44  1  0  0  0
 44116  1  0  0  0
 45 46  2  0  0  0
 45117  1  0  0  0
 46118  1  0  0  0
 47119  1  0  0  0
 47120  1  0  0  0
 48 56  1  0  0  0
 48 65  1  0  0  0
 48121  1  0  0  0
 49 50  1  0  0  0
 49 53  1  0  0  0
 49 64  1  0  0  0
 49122  1  0  0  0
 50 51  1  0  0  0
 50123  1  0  0  0
 50124  1  0  0  0
 51 52  1  0  0  0
 51125  1  0  0  0
 51126  1  0  0  0
 52127  1  0  0  0
 52128  1  0  0  0
 53 54  1  0  0  0
 54 55  2  0  0  0
 54129  1  0  0  0
 55 57  1  0  0  0
 55130  1  0  0  0
 56 69  2  0  0  0
 57 58  2  0  0  0
 57131  1  0  0  0
 58132  1  0  0  0
 59 60  1  0  0  0
 59 61  1  0  0  0
 59 62  1  0  0  0
 60133  1  0  0  0
 60134  1  0  0  0
 60135  1  0  0  0
 61136  1  0  0  0
 61137  1  0  0  0
 61138  1  0  0  0
 62139  1  0  0  0
 62140  1  0  0  0
 62141  1  0  0  0
 63 65  1  0  0  0
 63142  1  0  0  0
 63143  1  0  0  0
 63144  1  0  0  0
 64145  1  0  0  0
 65146  1  0  0  0
 68 84  1  0  0  0
 71 72  3  0  0  0
 71 83  1  0  0  0
 72 84  1  0  0  0
 73 74  2  0  0  0
 73 77  1  0  0  0
 73147  1  0  0  0
 74 78  1  0  0  0
 74148  1  0  0  0
 75 76  1  0  0  0
 75 78  2  0  0  0
 75149  1  0  0  0
 76 77  2  0  0  0
 76 81  1  0  0  0
 77 85  1  0  0  0
 78 86  1  0  0  0
 79 80  1  0  0  0
 79150  1  0  0  0
 79151  1  0  0  0
 79 81  1  0  0  0
 80 87  1  0  0  0
 80152  1  0  0  0
 80153  1  0  0  0
 81 82  1  0  0  0
 81154  1  0  0  0
 82 85  1  0  0  0
 82 87  1  0  0  0
 82155  1  0  0  0
 83 85  1  0  0  0
 83156  1  0  0  0
 83157  1  0  0  0
 84158  1  0  0  0
 84159  1  0  0  0
 86160  1  0  0  0
 87161  1  0  0  0
 87162  1  0  0  0
M  CHG  1  87   1
M  ISO  4   1 100  68 101  84 101  86 100
M  END
> <chiral flag>
0

> <version>
0

> <s_m_source_file>
/data/baiqing/PycharmProjects/Reinvent-master-3.2/result/LINK_invent/BTK/process_docking_weight1_custom_product_contain_oxygen_bond_distance_aromatic_linkinvent_7_9_3/rearranged_h_0004.sdf

> <i_m_source_file_index>
84

> <r_mmod_Potential_Energy-OPLS-2005>
-100.725105285645

> <r_mmod_Stretch_Energy-OPLS-2005>
44.9355201721191

> <r_mmod_Bend_Energy-OPLS-2005>
168.799301147461

> <r_mmod_Torsional_Energy-OPLS-2005>
307.460021972656

> <r_mmod_Improper_Torsional_Energy-OPLS-2005>
8.5974292755127

> <r_mmod_Van_der_Waal_Energy-OPLS-2005>
136.780609130859

> <r_mmod_Electrostatic_Energy-OPLS-2005>
-331.176452636719

> <r_mmod_Solvation_Energy-OPLS-2005>
-453.450988769531

> <b_mmod_Minimization_Converged-OPLS-2005>
0

> <r_mmod_RMS_Derivative-OPLS-2005>
3.67829871177673

$$$$
84
                    3D
 Structure written by MMmdl.
155164  0  0  1  0            999 V2000
  -30.5159  -14.8765   20.4419 C   0  0  0  0  0  0
  -30.4575  -12.5393   19.4837 C   0  0  0  0  0  0
  -29.5233  -12.5221   18.2491 C   0  0  0  0  0  0
  -28.0538  -12.3131   18.6678 C   0  0  0  0  0  0
  -27.6415  -13.2287   19.8494 C   0  0  2  0  0  0
  -28.6878  -13.1845   20.9856 C   0  0  0  0  0  0
  -25.2524  -13.8181   20.5710 C   0  0  0  0  0  0
  -24.1806  -13.0433   20.9209 C   0  0  0  0  0  0
  -24.6382  -11.6905   20.8752 C   0  0  0  0  0  0
  -23.9056  -10.4288   21.0403 C   0  0  0  0  0  0
  -24.3610   -9.4206   21.9182 C   0  0  0  0  0  0
  -23.6283   -8.2243   22.0759 C   0  0  0  0  0  0
  -22.4269   -8.0273   21.3537 C   0  0  0  0  0  0
  -21.9897   -9.0251   20.4649 C   0  0  0  0  0  0
  -22.7229  -10.2126   20.3052 C   0  0  0  0  0  0
  -21.6843   -6.0725   22.5274 C   0  0  0  0  0  0
  -21.4016   -6.5633   23.8212 C   0  0  0  0  0  0
  -21.3661   -5.6786   24.9175 C   0  0  0  0  0  0
  -21.6047   -4.3052   24.7222 C   0  0  0  0  0  0
  -21.8819   -3.8138   23.4346 C   0  0  0  0  0  0
  -21.9198   -4.6954   22.3402 C   0  0  0  0  0  0
  -22.7836  -13.5226   21.1875 C   0  0  0  0  0  0
  -22.1659   -4.2139   21.0981 F   0  0  0  0  0  0
  -21.5633   -3.4541   25.7738 F   0  0  0  0  0  0
  -29.9747  -13.5997   20.4061 N   0  0  0  0  0  0
  -26.2935  -12.9369   20.3280 N   0  0  0  0  0  0
  -25.9311  -11.6518   20.5753 N   0  0  0  0  0  0
  -22.0463  -12.8214   22.0420 N   0  0  0  0  0  0
  -25.4244  -15.1911   20.4129 N   0  0  0  0  0  0
  -31.6968  -15.0321   20.1091 O   0  0  0  0  0  0
  -21.6634   -6.8866   21.4229 O   0  0  0  0  0  0
  -22.3530  -14.5533   20.6721 O   0  0  0  0  0  0
  -24.6372  -31.8436   23.1896 C   0  0  0  0  0  0
  -25.9157  -32.4703   23.8255 C   0  0  1  0  0  0
  -27.2279  -27.1846   20.1548 C   0  0  0  0  0  0
  -25.5906  -33.8505   24.2173 N   0  0  0  0  0  0
  -23.4382  -30.4662   21.5300 C   0  0  2  0  0  0
  -24.8897  -28.8936   20.1133 C   0  0  0  0  0  0
  -22.7535  -29.4526   22.4816 C   0  0  0  0  0  0
  -18.0299  -28.1393   22.8471 C   0  0  0  0  0  0
  -24.1488  -36.7261   23.2647 C   0  0  0  0  0  0
  -25.9897  -30.7379   21.3753 C   0  0  0  0  0  0
  -26.0635  -29.3512   20.7230 C   0  0  0  0  0  0
  -27.2343  -28.5133   20.7256 C   0  0  0  0  0  0
  -26.0246  -26.8027   19.5248 C   0  0  0  0  0  0
  -24.8788  -27.6280   19.5029 C   0  0  0  0  0  0
  -23.6647  -29.7923   20.1497 C   0  0  0  0  0  0
  -25.4110  -36.3030   24.0317 C   0  0  1  0  0  0
  -20.5913  -28.3680   23.1247 C   0  0  2  0  0  0
  -20.6777  -26.9380   22.5406 C   0  0  0  0  0  0
  -19.5762  -26.6359   21.5209 C   0  0  0  0  0  0
  -18.1940  -26.7937   22.1619 C   0  0  0  0  0  0
  -19.1562  -28.8854   23.2862 C   0  0  0  0  0  0
  -18.9493  -30.1457   23.8875 C   0  0  0  0  0  0
  -17.6497  -30.6594   24.0554 C   0  0  0  0  0  0
  -25.9053  -34.9413   23.5059 C   0  0  0  0  0  0
  -16.5376  -29.9084   23.6343 C   0  0  0  0  0  0
  -16.7290  -28.6510   23.0338 C   0  0  0  0  0  0
  -26.4504  -31.6569   25.0682 C   0  0  0  0  0  0
  -25.3713  -31.3761   26.1396 C   0  0  0  0  0  0
  -27.0359  -30.2978   24.6199 C   0  0  0  0  0  0
  -27.6026  -32.4323   25.7482 C   0  0  0  0  0  0
  -27.5567  -37.1785   24.8465 C   0  0  0  0  0  0
  -21.4222  -29.3032   22.3614 N   0  0  0  0  0  0
  -26.4276  -37.3740   23.9415 N   0  0  0  0  0  0
  -24.7079  -31.0354   22.0881 N   0  0  0  0  0  0
  -23.4225  -28.8059   23.2911 O   0  0  0  0  0  0
  -28.3207  -26.2604   20.1867 O   0  0  0  0  0  0
  -26.5650  -34.8913   22.4644 O   0  0  0  0  0  0
  -23.5498  -32.1252   23.7163 O   0  0  0  0  0  0
  -30.0793  -19.8934   20.0521 C   0  0  0  0  0  0
  -30.3609  -18.4530   20.0251 C   0  0  0  0  0  0
  -28.4175  -18.0612   21.3063 C   0  0  0  0  0  0
  -28.1565  -19.4757   21.3565 C   0  0  0  0  0  0
  -28.9621  -20.4916   20.7427 C   0  0  0  0  0  0
  -29.5371  -17.4562   20.6648 C   0  0  0  0  0  0
  -28.0701  -22.2587   22.2101 C   0  0  0  0  0  0
  -26.9821  -19.9630   22.1667 C   0  0  0  0  0  0
  -27.4419  -21.1306   23.0378 C   0  0  0  0  0  0
  -28.9221  -23.2481   20.1119 C   0  0  0  0  0  0
  -28.1122  -24.7361   20.2770 C   0  0  0  0  0  0
  -28.6244  -21.9801   20.9907 N   0  0  0  0  0  0
  -29.6324  -15.9367   20.7172 N   0  0  0  0  0  0
  -28.0895  -23.3719   22.7440 O   0  0  0  0  0  0
  -31.4874  -12.7159   19.1701 H   0  0  0  0  0  0
  -30.4598  -11.5703   19.9842 H   0  0  0  0  0  0
  -29.8282  -11.7371   17.5558 H   0  0  0  0  0  0
  -29.6163  -13.4651   17.7077 H   0  0  0  0  0  0
  -27.9408  -11.2685   18.9616 H   0  0  0  0  0  0
  -27.3890  -12.4627   17.8157 H   0  0  0  0  0  0
  -27.6262  -14.2425   19.4489 H   0  0  0  0  0  0
  -28.7612  -12.1808   21.4059 H   0  0  0  0  0  0
  -28.3984  -13.8356   21.8115 H   0  0  0  0  0  0
  -25.2745   -9.5689   22.4769 H   0  0  0  0  0  0
  -23.9992   -7.4633   22.7476 H   0  0  0  0  0  0
  -21.0836   -8.8761   19.8953 H   0  0  0  0  0  0
  -22.3678  -10.9664   19.6172 H   0  0  0  0  0  0
  -21.1998   -7.6143   23.9708 H   0  0  0  0  0  0
  -21.1486   -6.0521   25.9077 H   0  0  0  0  0  0
  -22.0598   -2.7602   23.2851 H   0  0  0  0  0  0
  -22.4054  -11.9859   22.4795 H   0  0  0  0  0  0
  -21.1085  -13.1260   22.2635 H   0  0  0  0  0  0
  -24.6547  -15.8433   20.5186 H   0  0  0  0  0  0
  -26.2593  -15.6253   20.0426 H   0  0  0  0  0  0
  -26.7213  -32.5329   23.0978 H   0  0  0  0  0  0
  -25.0033  -33.9606   25.0306 H   0  0  0  0  0  0
  -22.7408  -31.2920   21.3751 H   0  0  0  0  0  0
  -23.3745  -35.9605   23.3295 H   0  0  0  0  0  0
  -24.3582  -36.8898   22.2070 H   0  0  0  0  0  0
  -23.7262  -37.6464   23.6688 H   0  0  0  0  0  0
  -26.1300  -31.4912   20.5991 H   0  0  0  0  0  0
  -26.8671  -30.7948   22.0084 H   0  0  0  0  0  0
  -28.1311  -28.8607   21.2193 H   0  0  0  0  0  0
  -25.9545  -25.8289   19.0601 H   0  0  0  0  0  0
  -23.9784  -27.2656   19.0284 H   0  0  0  0  0  0
  -23.8036  -30.5666   19.3938 H   0  0  0  0  0  0
  -22.7812  -29.2334   19.8348 H   0  0  0  0  0  0
  -25.1311  -36.1848   25.0809 H   0  0  0  0  0  0
  -21.0026  -28.3255   24.1355 H   0  0  0  0  0  0
  -20.5647  -26.2271   23.3605 H   0  0  0  0  0  0
  -21.6644  -26.7366   22.1215 H   0  0  0  0  0  0
  -19.6909  -25.6259   21.1243 H   0  0  0  0  0  0
  -19.6731  -27.3170   20.6747 H   0  0  0  0  0  0
  -17.4201  -26.6664   21.4023 H   0  0  0  0  0  0
  -18.0342  -26.0094   22.9034 H   0  0  0  0  0  0
  -19.7977  -30.7279   24.2211 H   0  0  0  0  0  0
  -17.5059  -31.6281   24.5152 H   0  0  0  0  0  0
  -15.5378  -30.2994   23.7690 H   0  0  0  0  0  0
  -15.8683  -28.0854   22.7034 H   0  0  0  0  0  0
  -24.5890  -30.7086   25.7754 H   0  0  0  0  0  0
  -24.8900  -32.2959   26.4748 H   0  0  0  0  0  0
  -25.8018  -30.9011   27.0223 H   0  0  0  0  0  0
  -26.2955  -29.6707   24.1217 H   0  0  0  0  0  0
  -27.4039  -29.7251   25.4729 H   0  0  0  0  0  0
  -27.8830  -30.4244   23.9447 H   0  0  0  0  0  0
  -27.2607  -33.3637   26.2000 H   0  0  0  0  0  0
  -28.3894  -32.6841   25.0362 H   0  0  0  0  0  0
  -28.0622  -31.8476   26.5461 H   0  0  0  0  0  0
  -28.2572  -38.0093   24.7490 H   0  0  0  0  0  0
  -28.1071  -36.2616   24.6310 H   0  0  0  0  0  0
  -27.2285  -37.1460   25.8870 H   0  0  0  0  0  0
  -20.9377  -29.8819   21.6893 H   0  0  0  0  0  0
  -26.0135  -38.2801   24.1440 H   0  0  0  0  0  0
  -30.7830  -20.5497   19.5590 H   0  0  0  0  0  0
  -31.2406  -18.1194   19.4922 H   0  0  0  0  0  0
  -27.7214  -17.4111   21.8197 H   0  0  0  0  0  0
  -26.5830  -19.1683   22.7978 H   0  0  0  0  0  0
  -26.1808  -20.2702   21.4921 H   0  0  0  0  0  0
  -26.5975  -21.5228   23.6059 H   0  0  0  0  0  0
  -28.1800  -20.7892   23.7652 H   0  0  0  0  0  0
  -29.9983  -23.4214   20.1703 H   0  0  0  0  0  0
  -28.7666  -22.8982   19.0900 H   0  0  0  0  0  0
  -28.2627  -24.8706   19.2051 H   0  0  0  0  0  0
  -28.8589  -24.9505   21.0419 H   0  0  0  0  0  0
  -28.7643  -15.5328   21.0354 H   0  0  0  0  0  0
  1 25  1  0  0  0
  1 30  2  0  0  0
  1 83  1  0  0  0
  2  3  1  0  0  0
  2 25  1  0  0  0
  2 85  1  0  0  0
  2 86  1  0  0  0
  3  4  1  0  0  0
  3 87  1  0  0  0
  3 88  1  0  0  0
  4  5  1  0  0  0
  4 89  1  0  0  0
  4 90  1  0  0  0
  5  6  1  0  0  0
  5 26  1  0  0  0
  5 91  1  0  0  0
  6 25  1  0  0  0
  6 92  1  0  0  0
  6 93  1  0  0  0
  7  8  2  0  0  0
  7 26  1  0  0  0
  7 29  1  0  0  0
  8  9  1  0  0  0
  8 22  1  0  0  0
  9 10  1  0  0  0
  9 27  2  0  0  0
 10 11  2  0  0  0
 10 15  1  0  0  0
 11 12  1  0  0  0
 11 94  1  0  0  0
 12 13  2  0  0  0
 12 95  1  0  0  0
 13 14  1  0  0  0
 13 31  1  0  0  0
 14 15  2  0  0  0
 14 96  1  0  0  0
 15 97  1  0  0  0
 16 17  2  0  0  0
 16 21  1  0  0  0
 16 31  1  0  0  0
 17 18  1  0  0  0
 17 98  1  0  0  0
 18 19  2  0  0  0
 18 99  1  0  0  0
 19 20  1  0  0  0
 19 24  1  0  0  0
 20 21  2  0  0  0
 20100  1  0  0  0
 21 23  1  0  0  0
 22 28  1  0  0  0
 22 32  2  0  0  0
 26 27  1  0  0  0
 28101  1  0  0  0
 28102  1  0  0  0
 29103  1  0  0  0
 29104  1  0  0  0
 33 34  1  0  0  0
 33 66  1  0  0  0
 33 70  2  0  0  0
 34 36  1  0  0  0
 34 59  1  0  0  0
 34105  1  0  0  0
 35 44  2  0  0  0
 35 45  1  0  0  0
 35 68  1  0  0  0
 36 56  1  0  0  0
 36106  1  0  0  0
 37 39  1  0  0  0
 37 47  1  0  0  0
 37 66  1  0  0  0
 37107  1  0  0  0
 38 43  2  0  0  0
 38 46  1  0  0  0
 38 47  1  0  0  0
 39 64  1  0  0  0
 39 67  2  0  0  0
 40 52  1  0  0  0
 40 53  2  0  0  0
 40 58  1  0  0  0
 41108  1  0  0  0
 41109  1  0  0  0
 41110  1  0  0  0
 41 48  1  0  0  0
 42 43  1  0  0  0
 42 66  1  0  0  0
 42111  1  0  0  0
 42112  1  0  0  0
 43 44  1  0  0  0
 44113  1  0  0  0
 45 46  2  0  0  0
 45114  1  0  0  0
 46115  1  0  0  0
 47116  1  0  0  0
 47117  1  0  0  0
 48 56  1  0  0  0
 48 65  1  0  0  0
 48118  1  0  0  0
 49 50  1  0  0  0
 49 53  1  0  0  0
 49 64  1  0  0  0
 49119  1  0  0  0
 50 51  1  0  0  0
 50120  1  0  0  0
 50121  1  0  0  0
 51 52  1  0  0  0
 51122  1  0  0  0
 51123  1  0  0  0
 52124  1  0  0  0
 52125  1  0  0  0
 53 54  1  0  0  0
 54 55  2  0  0  0
 54126  1  0  0  0
 55 57  1  0  0  0
 55127  1  0  0  0
 56 69  2  0  0  0
 57 58  2  0  0  0
 57128  1  0  0  0
 58129  1  0  0  0
 59 60  1  0  0  0
 59 61  1  0  0  0
 59 62  1  0  0  0
 60130  1  0  0  0
 60131  1  0  0  0
 60132  1  0  0  0
 61133  1  0  0  0
 61134  1  0  0  0
 61135  1  0  0  0
 62136  1  0  0  0
 62137  1  0  0  0
 62138  1  0  0  0
 63 65  1  0  0  0
 63139  1  0  0  0
 63140  1  0  0  0
 63141  1  0  0  0
 64142  1  0  0  0
 65143  1  0  0  0
 68 81  1  0  0  0
 71 72  2  0  0  0
 71 75  1  0  0  0
 71144  1  0  0  0
 72 76  1  0  0  0
 72145  1  0  0  0
 73 74  1  0  0  0
 73 76  2  0  0  0
 73146  1  0  0  0
 74 75  2  0  0  0
 74 78  1  0  0  0
 75 82  1  0  0  0
 76 83  1  0  0  0
 77 79  1  0  0  0
 77 82  1  0  0  0
 77 84  2  0  0  0
 78 79  1  0  0  0
 78147  1  0  0  0
 78148  1  0  0  0
 79149  1  0  0  0
 79150  1  0  0  0
 80 81  1  0  0  0
 80 82  1  0  0  0
 80151  1  0  0  0
 80152  1  0  0  0
 81153  1  0  0  0
 81154  1  0  0  0
 83155  1  0  0  0
M  ISO  4   1 100  68 101  81 101  83 100
M  END
> <chiral flag>
0

> <version>
0

> <s_m_source_file>
/data/baiqing/PycharmProjects/Reinvent-master-3.2/result/LINK_invent/BTK/process_docking_weight1_custom_product_contain_oxygen_bond_distance_aromatic_linkinvent_7_9_3/rearranged_h_0004.sdf

> <i_m_source_file_index>
85

> <r_mmod_Potential_Energy-OPLS-2005>
639.476989746094

> <r_mmod_Stretch_Energy-OPLS-2005>
219.515518188477

> <r_mmod_Bend_Energy-OPLS-2005>
466.559997558594

> <r_mmod_Torsional_Energy-OPLS-2005>
270.420989990234

> <r_mmod_Improper_Torsional_Energy-OPLS-2005>
4.35876083374023

> <r_mmod_Van_der_Waal_Energy-OPLS-2005>
155.261962890625

> <r_mmod_Electrostatic_Energy-OPLS-2005>
-396.790740966797

> <r_mmod_Solvation_Energy-OPLS-2005>
-225.926177978516

> <b_mmod_Minimization_Converged-OPLS-2005>
0

> <r_mmod_RMS_Derivative-OPLS-2005>
2.33578038215637

$$$$
85
                    3D
 Structure written by MMmdl.
147155  0  0  1  0            999 V2000
  -30.4751  -15.1823   20.3805 C   0  0  0  0  0  0
  -30.4354  -12.7503   19.5208 C   0  0  0  0  0  0
  -29.5293  -12.5597   18.2802 C   0  0  0  0  0  0
  -28.0737  -12.3019   18.7063 C   0  0  0  0  0  0
  -27.6140  -13.2691   19.8262 C   0  0  2  0  0  0
  -28.6501  -13.4142   20.9608 C   0  0  0  0  0  0
  -25.2396  -13.8243   20.5741 C   0  0  0  0  0  0
  -24.1743  -13.0438   20.9256 C   0  0  0  0  0  0
  -24.6391  -11.6934   20.8765 C   0  0  0  0  0  0
  -23.9084  -10.4293   21.0410 C   0  0  0  0  0  0
  -24.3633   -9.4206   21.9185 C   0  0  0  0  0  0
  -23.6307   -8.2242   22.0750 C   0  0  0  0  0  0
  -22.4286   -8.0281   21.3544 C   0  0  0  0  0  0
  -21.9928   -9.0255   20.4643 C   0  0  0  0  0  0
  -22.7259  -10.2134   20.3055 C   0  0  0  0  0  0
  -21.6855   -6.0739   22.5281 C   0  0  0  0  0  0
  -21.4015   -6.5642   23.8214 C   0  0  0  0  0  0
  -21.3659   -5.6794   24.9175 C   0  0  0  0  0  0
  -21.6045   -4.3055   24.7226 C   0  0  0  0  0  0
  -21.8819   -3.8149   23.4346 C   0  0  0  0  0  0
  -21.9196   -4.6968   22.3404 C   0  0  0  0  0  0
  -22.7761  -13.5192   21.1912 C   0  0  0  0  0  0
  -22.1663   -4.2153   21.0981 F   0  0  0  0  0  0
  -21.5631   -3.4538   25.7738 F   0  0  0  0  0  0
  -29.8927  -13.8922   20.3375 N   0  0  0  0  0  0
  -26.2822  -12.9509   20.3229 N   0  0  0  0  0  0
  -25.9325  -11.6618   20.5732 N   0  0  0  0  0  0
  -22.0426  -12.8163   22.0464 N   0  0  0  0  0  0
  -25.4030  -15.1977   20.4173 N   0  0  0  0  0  0
  -31.6935  -15.1828   20.1597 O   0  0  0  0  0  0
  -21.6644   -6.8882   21.4241 O   0  0  0  0  0  0
  -22.3438  -14.5497   20.6759 O   0  0  0  0  0  0
  -24.6588  -31.8286   23.1761 C   0  0  0  0  0  0
  -25.9293  -32.4618   23.8201 C   0  0  1  0  0  0
  -27.2114  -26.9740   20.1745 C   0  0  0  0  0  0
  -25.5981  -33.8429   24.2108 N   0  0  0  0  0  0
  -23.4707  -30.4443   21.5237 C   0  0  2  0  0  0
  -24.9232  -28.8455   20.1093 C   0  0  0  0  0  0
  -22.7642  -29.4472   22.4790 C   0  0  0  0  0  0
  -18.0320  -28.1410   22.8475 C   0  0  0  0  0  0
  -24.1486  -36.7203   23.2645 C   0  0  0  0  0  0
  -26.0381  -30.6502   21.4006 C   0  0  0  0  0  0
  -26.1063  -29.2463   20.7427 C   0  0  0  0  0  0
  -27.2474  -28.3300   20.7549 C   0  0  0  0  0  0
  -26.0015  -26.7223   19.4877 C   0  0  0  0  0  0
  -24.8939  -27.6023   19.4623 C   0  0  0  0  0  0
  -23.7077  -29.7672   20.1472 C   0  0  0  0  0  0
  -25.4125  -36.2979   24.0306 C   0  0  1  0  0  0
  -20.5944  -28.3749   23.1193 C   0  0  2  0  0  0
  -20.6796  -26.9435   22.5401 C   0  0  0  0  0  0
  -19.5767  -26.6385   21.5213 C   0  0  0  0  0  0
  -18.1950  -26.7945   22.1627 C   0  0  0  0  0  0
  -19.1582  -28.8900   23.2826 C   0  0  0  0  0  0
  -18.9495  -30.1489   23.8861 C   0  0  0  0  0  0
  -17.6490  -30.6605   24.0555 C   0  0  0  0  0  0
  -25.9093  -34.9366   23.5024 C   0  0  0  0  0  0
  -16.5377  -29.9094   23.6348 C   0  0  0  0  0  0
  -16.7304  -28.6512   23.0375 C   0  0  0  0  0  0
  -26.4558  -31.6552   25.0712 C   0  0  0  0  0  0
  -25.3702  -31.3799   26.1381 C   0  0  0  0  0  0
  -27.0443  -30.2921   24.6420 C   0  0  0  0  0  0
  -27.6054  -32.4355   25.7514 C   0  0  0  0  0  0
  -27.5563  -37.1755   24.8468 C   0  0  0  0  0  0
  -21.4319  -29.3048   22.3543 N   0  0  0  0  0  0
  -26.4267  -37.3717   23.9420 N   0  0  0  0  0  0
  -24.7433  -30.9997   22.0872 N   0  0  0  0  0  0
  -23.4214  -28.8031   23.3007 O   0  0  0  0  0  0
  -28.1962  -25.8671   20.2637 O   0  0  0  0  0  0
  -26.5687  -34.8895   22.4609 O   0  0  0  0  0  0
  -23.5671  -32.1232   23.6885 O   0  0  0  0  0  0
  -28.2774  -20.1783   20.9076 C   0  0  0  0  0  0
  -30.1456  -20.7584   19.6963 C   0  0  0  0  0  0
  -27.8545  -21.6057   20.8710 C   0  0  0  0  0  0
  -29.7223  -22.1796   19.6571 C   0  0  0  0  0  0
  -29.4725  -19.6132   20.3050 C   0  0  0  0  0  0
  -28.5298  -22.7500   20.2537 C   0  0  0  0  0  0
  -30.1825  -18.0265   20.3361 C   0  0  0  0  0  0
  -27.8040  -24.3101   20.0193 C   0  0  0  0  0  0
  -29.7353  -16.4509   20.4631 N   0  0  0  0  0  0
  -31.4594  -12.9371   19.1947 H   0  0  0  0  0  0
  -30.4796  -11.8355   20.1142 H   0  0  0  0  0  0
  -29.8932  -11.7354   17.6652 H   0  0  0  0  0  0
  -29.5747  -13.4531   17.6556 H   0  0  0  0  0  0
  -28.0144  -11.2735   19.0644 H   0  0  0  0  0  0
  -27.4061  -12.3652   17.8463 H   0  0  0  0  0  0
  -27.5393  -14.2436   19.3423 H   0  0  0  0  0  0
  -28.7973  -12.4727   21.4919 H   0  0  0  0  0  0
  -28.3051  -14.1392   21.6999 H   0  0  0  0  0  0
  -25.2775   -9.5686   22.4766 H   0  0  0  0  0  0
  -24.0018   -7.4629   22.7465 H   0  0  0  0  0  0
  -21.0861   -8.8777   19.8943 H   0  0  0  0  0  0
  -22.3716  -10.9677   19.6168 H   0  0  0  0  0  0
  -21.2001   -7.6149   23.9719 H   0  0  0  0  0  0
  -21.1482   -6.0522   25.9080 H   0  0  0  0  0  0
  -22.0598   -2.7611   23.2844 H   0  0  0  0  0  0
  -22.4066  -11.9826   22.4836 H   0  0  0  0  0  0
  -21.1039  -13.1162   22.2684 H   0  0  0  0  0  0
  -24.6307  -15.8462   20.5268 H   0  0  0  0  0  0
  -26.2426  -15.6401   20.0678 H   0  0  0  0  0  0
  -26.7360  -32.5170   23.0915 H   0  0  0  0  0  0
  -25.0108  -33.9519   25.0247 H   0  0  0  0  0  0
  -22.7817  -31.2753   21.3586 H   0  0  0  0  0  0
  -23.3765  -35.9516   23.3288 H   0  0  0  0  0  0
  -24.3561  -36.8862   22.2063 H   0  0  0  0  0  0
  -23.7225  -37.6381   23.6704 H   0  0  0  0  0  0
  -26.2147  -31.3959   20.6243 H   0  0  0  0  0  0
  -26.8998  -30.7033   22.0539 H   0  0  0  0  0  0
  -28.1398  -28.6311   21.2848 H   0  0  0  0  0  0
  -25.8646  -25.7763   18.9864 H   0  0  0  0  0  0
  -23.9957  -27.2900   18.9472 H   0  0  0  0  0  0
  -23.8604  -30.5388   19.3918 H   0  0  0  0  0  0
  -22.8182  -29.2207   19.8291 H   0  0  0  0  0  0
  -25.1322  -36.1770   25.0795 H   0  0  0  0  0  0
  -21.0038  -28.3354   24.1314 H   0  0  0  0  0  0
  -20.5671  -26.2370   23.3639 H   0  0  0  0  0  0
  -21.6659  -26.7417   22.1202 H   0  0  0  0  0  0
  -19.6920  -25.6286   21.1269 H   0  0  0  0  0  0
  -19.6698  -27.3172   20.6723 H   0  0  0  0  0  0
  -17.4213  -26.6691   21.4036 H   0  0  0  0  0  0
  -18.0346  -26.0100   22.9037 H   0  0  0  0  0  0
  -19.7970  -30.7314   24.2214 H   0  0  0  0  0  0
  -17.5045  -31.6283   24.5161 H   0  0  0  0  0  0
  -15.5376  -30.2985   23.7697 H   0  0  0  0  0  0
  -15.8703  -28.0812   22.7124 H   0  0  0  0  0  0
  -24.5887  -30.7140   25.7706 H   0  0  0  0  0  0
  -24.8887  -32.3001   26.4697 H   0  0  0  0  0  0
  -25.7949  -30.9045   27.0232 H   0  0  0  0  0  0
  -26.3101  -29.6613   24.1393 H   0  0  0  0  0  0
  -27.3950  -29.7270   25.5066 H   0  0  0  0  0  0
  -27.9059  -30.4114   23.9849 H   0  0  0  0  0  0
  -27.2623  -33.3701   26.1969 H   0  0  0  0  0  0
  -28.3933  -32.6842   25.0392 H   0  0  0  0  0  0
  -28.0644  -31.8559   26.5535 H   0  0  0  0  0  0
  -28.2564  -38.0066   24.7527 H   0  0  0  0  0  0
  -28.1075  -36.2596   24.6281 H   0  0  0  0  0  0
  -27.2284  -37.1386   25.8872 H   0  0  0  0  0  0
  -20.9555  -29.8749   21.6692 H   0  0  0  0  0  0
  -26.0113  -38.2769   24.1454 H   0  0  0  0  0  0
  -27.6291  -19.4927   21.4361 H   0  0  0  0  0  0
  -31.0814  -20.5404   19.1999 H   0  0  0  0  0  0
  -26.9033  -21.8209   21.3381 H   0  0  0  0  0  0
  -30.3513  -22.8578   19.0974 H   0  0  0  0  0  0
  -30.9305  -18.1209   21.1241 H   0  0  0  0  0  0
  -30.7794  -18.0194   19.4234 H   0  0  0  0  0  0
  -26.8452  -24.2068   20.5276 H   0  0  0  0  0  0
  -27.5507  -24.2802   18.9596 H   0  0  0  0  0  0
  -28.7435  -16.3219   20.5965 H   0  0  0  0  0  0
  1 25  1  0  0  0
  1 30  2  0  0  0
  1 79  1  0  0  0
  2  3  1  0  0  0
  2 25  1  0  0  0
  2 80  1  0  0  0
  2 81  1  0  0  0
  3  4  1  0  0  0
  3 82  1  0  0  0
  3 83  1  0  0  0
  4  5  1  0  0  0
  4 84  1  0  0  0
  4 85  1  0  0  0
  5  6  1  0  0  0
  5 26  1  0  0  0
  5 86  1  0  0  0
  6 25  1  0  0  0
  6 87  1  0  0  0
  6 88  1  0  0  0
  7  8  2  0  0  0
  7 26  1  0  0  0
  7 29  1  0  0  0
  8  9  1  0  0  0
  8 22  1  0  0  0
  9 10  1  0  0  0
  9 27  2  0  0  0
 10 11  2  0  0  0
 10 15  1  0  0  0
 11 12  1  0  0  0
 11 89  1  0  0  0
 12 13  2  0  0  0
 12 90  1  0  0  0
 13 14  1  0  0  0
 13 31  1  0  0  0
 14 15  2  0  0  0
 14 91  1  0  0  0
 15 92  1  0  0  0
 16 17  2  0  0  0
 16 21  1  0  0  0
 16 31  1  0  0  0
 17 18  1  0  0  0
 17 93  1  0  0  0
 18 19  2  0  0  0
 18 94  1  0  0  0
 19 20  1  0  0  0
 19 24  1  0  0  0
 20 21  2  0  0  0
 20 95  1  0  0  0
 21 23  1  0  0  0
 22 28  1  0  0  0
 22 32  2  0  0  0
 26 27  1  0  0  0
 28 96  1  0  0  0
 28 97  1  0  0  0
 29 98  1  0  0  0
 29 99  1  0  0  0
 33 34  1  0  0  0
 33 66  1  0  0  0
 33 70  2  0  0  0
 34 36  1  0  0  0
 34 59  1  0  0  0
 34100  1  0  0  0
 35 44  2  0  0  0
 35 45  1  0  0  0
 35 68  1  0  0  0
 36 56  1  0  0  0
 36101  1  0  0  0
 37 39  1  0  0  0
 37 47  1  0  0  0
 37 66  1  0  0  0
 37102  1  0  0  0
 38 43  2  0  0  0
 38 46  1  0  0  0
 38 47  1  0  0  0
 39 64  1  0  0  0
 39 67  2  0  0  0
 40 52  1  0  0  0
 40 53  2  0  0  0
 40 58  1  0  0  0
 41103  1  0  0  0
 41104  1  0  0  0
 41105  1  0  0  0
 41 48  1  0  0  0
 42 43  1  0  0  0
 42 66  1  0  0  0
 42106  1  0  0  0
 42107  1  0  0  0
 43 44  1  0  0  0
 44108  1  0  0  0
 45 46  2  0  0  0
 45109  1  0  0  0
 46110  1  0  0  0
 47111  1  0  0  0
 47112  1  0  0  0
 48 56  1  0  0  0
 48 65  1  0  0  0
 48113  1  0  0  0
 49 50  1  0  0  0
 49 53  1  0  0  0
 49 64  1  0  0  0
 49114  1  0  0  0
 50 51  1  0  0  0
 50115  1  0  0  0
 50116  1  0  0  0
 51 52  1  0  0  0
 51117  1  0  0  0
 51118  1  0  0  0
 52119  1  0  0  0
 52120  1  0  0  0
 53 54  1  0  0  0
 54 55  2  0  0  0
 54121  1  0  0  0
 55 57  1  0  0  0
 55122  1  0  0  0
 56 69  2  0  0  0
 57 58  2  0  0  0
 57123  1  0  0  0
 58124  1  0  0  0
 59 60  1  0  0  0
 59 61  1  0  0  0
 59 62  1  0  0  0
 60125  1  0  0  0
 60126  1  0  0  0
 60127  1  0  0  0
 61128  1  0  0  0
 61129  1  0  0  0
 61130  1  0  0  0
 62131  1  0  0  0
 62132  1  0  0  0
 62133  1  0  0  0
 63 65  1  0  0  0
 63134  1  0  0  0
 63135  1  0  0  0
 63136  1  0  0  0
 64137  1  0  0  0
 65138  1  0  0  0
 68 78  1  0  0  0
 71 73  2  0  0  0
 71 75  1  0  0  0
 71139  1  0  0  0
 72 74  1  0  0  0
 72 75  2  0  0  0
 72140  1  0  0  0
 73 76  1  0  0  0
 73141  1  0  0  0
 74 76  2  0  0  0
 74142  1  0  0  0
 75 77  1  0  0  0
 76 78  1  0  0  0
 77 79  1  0  0  0
 77143  1  0  0  0
 77144  1  0  0  0
 78145  1  0  0  0
 78146  1  0  0  0
 79147  1  0  0  0
M  ISO  4   1 100  68 101  78 101  79 100
M  END
> <chiral flag>
0

> <version>
0

> <s_m_source_file>
/data/baiqing/PycharmProjects/Reinvent-master-3.2/result/LINK_invent/BTK/process_docking_weight1_custom_product_contain_oxygen_bond_distance_aromatic_linkinvent_7_9_3/rearranged_h_0004.sdf

> <i_m_source_file_index>
86

> <r_mmod_Potential_Energy-OPLS-2005>
1015.4599609375

> <r_mmod_Stretch_Energy-OPLS-2005>
443.456787109375

> <r_mmod_Bend_Energy-OPLS-2005>
422.297058105469

> <r_mmod_Torsional_Energy-OPLS-2005>
215.021911621094

> <r_mmod_Improper_Torsional_Energy-OPLS-2005>
7.18429374694824

> <r_mmod_Van_der_Waal_Energy-OPLS-2005>
133.087112426758

> <r_mmod_Electrostatic_Energy-OPLS-2005>
-379.332244873047

> <r_mmod_Solvation_Energy-OPLS-2005>
-213.699493408203

> <b_mmod_Minimization_Converged-OPLS-2005>
0

> <r_mmod_RMS_Derivative-OPLS-2005>
0.623550474643707

$$$$
86
                    3D
 Structure written by MMmdl.
198208  0  0  1  0            999 V2000
  -29.4509  -15.6340   20.7171 C   0  0  0  0  0  0
  -30.2885  -13.2108   19.7001 C   0  0  0  0  0  0
  -29.5352  -12.7286   18.4127 C   0  0  0  0  0  0
  -28.0953  -12.2910   18.7421 C   0  0  0  0  0  0
  -27.5048  -13.2231   19.8219 C   0  0  2  0  0  0
  -28.3879  -13.3493   21.0533 C   0  0  0  0  0  0
  -25.1848  -13.8006   20.5481 C   0  0  0  0  0  0
  -24.1320  -13.0264   20.9291 C   0  0  0  0  0  0
  -24.5958  -11.6756   20.8796 C   0  0  0  0  0  0
  -23.8789  -10.4173   21.0498 C   0  0  0  0  0  0
  -24.3462   -9.4113   21.9223 C   0  0  0  0  0  0
  -23.6202   -8.2115   22.0748 C   0  0  0  0  0  0
  -22.4190   -8.0157   21.3533 C   0  0  0  0  0  0
  -21.9767   -9.0101   20.4644 C   0  0  0  0  0  0
  -22.7024  -10.2006   20.3097 C   0  0  0  0  0  0
  -21.6799   -6.0667   22.5291 C   0  0  0  0  0  0
  -21.3982   -6.5601   23.8217 C   0  0  0  0  0  0
  -21.3667   -5.6768   24.9192 C   0  0  0  0  0  0
  -21.6051   -4.3031   24.7247 C   0  0  0  0  0  0
  -21.8823   -3.8103   23.4381 C   0  0  0  0  0  0
  -21.9178   -4.6906   22.3424 C   0  0  0  0  0  0
  -22.7462  -13.5128   21.2024 C   0  0  0  0  0  0
  -22.1644   -4.2103   21.0996 F   0  0  0  0  0  0
  -21.5648   -3.4521   25.7764 F   0  0  0  0  0  0
  -29.4289  -14.1836   20.5492 N   0  0  0  0  0  0
  -26.1917  -12.9053   20.2618 N   0  0  0  0  0  0
  -25.8734  -11.6267   20.5447 N   0  0  0  0  0  0
  -22.0139  -12.8139   22.0626 N   0  0  0  0  0  0
  -25.3642  -15.1709   20.3832 N   0  0  0  0  0  0
  -30.6636  -15.9044   20.4555 O   0  0  0  0  0  0
  -21.6581   -6.8761   21.4234 O   0  0  0  0  0  0
  -22.3254  -14.5471   20.6863 O   0  0  0  0  0  0
  -24.7265  -32.1089   23.2786 C   0  0  0  0  0  0
  -26.0339  -32.5574   23.9654 C   0  0  1  0  0  0
  -27.5512  -27.4495   19.7005 C   0  0  0  0  0  0
  -25.7104  -33.9392   24.3085 N   0  0  0  0  0  0
  -23.2772  -30.7767   21.3128 C   0  0  2  0  0  0
  -25.0666  -28.0875   20.1795 C   0  0  0  0  0  0
  -22.2643  -30.2450   22.3950 C   0  0  0  0  0  0
  -18.0446  -27.0571   23.2319 C   0  0  0  0  0  0
  -24.1556  -36.7529   23.2467 C   0  0  0  0  0  0
  -26.4843  -30.3911   22.0611 C   0  0  0  0  0  0
  -26.4885  -28.6417   21.0949 C   0  0  0  0  0  0
  -27.6482  -28.0077   20.9433 C   0  0  0  0  0  0
  -26.4913  -26.6288   19.2326 C   0  0  0  0  0  0
  -25.1728  -27.0346   19.3576 C   0  0  0  0  0  0
  -23.4153  -29.1145   20.1347 C   0  0  0  0  0  0
  -25.4164  -36.3471   24.0246 C   0  0  1  0  0  0
  -21.2683  -28.0113   22.6087 C   0  0  2  0  0  0
  -21.3229  -26.6787   21.0626 C   0  0  0  0  0  0
  -19.6565  -25.5315   20.6895 C   0  0  0  0  0  0
  -18.0461  -25.7336   21.9272 C   0  0  0  0  0  0
  -19.7762  -28.1749   23.6266 C   0  0  0  0  0  0
  -19.4511  -29.7605   24.0851 C   0  0  0  0  0  0
  -17.9485  -30.3108   24.1913 C   0  0  0  0  0  0
  -25.9343  -34.9918   23.5215 C   0  0  0  0  0  0
  -16.6484  -29.4555   23.8855 C   0  0  0  0  0  0
  -16.6448  -27.9061   23.4584 C   0  0  0  0  0  0
  -26.5173  -31.7613   25.2656 C   0  0  0  0  0  0
  -25.3786  -31.4731   26.2690 C   0  0  0  0  0  0
  -27.3856  -30.4709   25.1216 C   0  0  0  0  0  0
  -27.5653  -32.6533   25.9713 C   0  0  0  0  0  0
  -27.5634  -37.2107   24.8428 C   0  0  0  0  0  0
  -21.4020  -29.3551   22.0183 N   0  0  0  0  0  0
  -26.4309  -37.4151   23.9429 N   0  0  0  0  0  0
  -24.8449  -31.3435   22.2008 N   0  0  0  0  0  0
  -22.6965  -30.0284   23.4927 O   0  0  0  0  0  0
  -27.6640  -28.5894   18.9648 O   0  0  0  0  0  0
  -26.5455  -34.9118   22.4537 O   0  0  0  0  0  0
  -23.6268  -32.4882   23.7002 O   0  0  0  0  0  0
  -25.0947  -20.4460   21.8623 C   0  0  0  0  0  0
  -26.0217  -19.4520   21.6373 C   0  0  0  0  0  0
  -23.9484  -23.2654   22.5587 C   0  0  0  0  0  0
  -22.3566  -21.9221   22.1095 C   0  0  0  0  0  0
  -22.9003  -24.4230   22.7873 C   0  0  0  0  0  0
  -21.3088  -23.0790   22.3506 C   0  0  0  0  0  0
  -23.8782  -21.7929   22.1552 C   0  0  0  0  0  0
  -21.3723  -24.5679   22.7131 C   0  0  0  0  0  0
  -17.5304  -29.7825   27.2037 C   0  0  0  0  0  0
  -17.1823  -28.4767   26.4053 C   0  0  0  0  0  0
  -18.6430  -26.3520   25.4485 C   0  0  0  0  0  0
  -18.3041  -29.0020   22.1795 C   0  0  0  0  0  0
  -19.8829  -25.6363   24.4801 C   0  0  0  0  0  0
  -19.2798  -27.6680   21.4462 C   0  0  0  0  0  0
  -18.9794  -29.8847   27.7822 C   0  0  0  0  0  0
  -19.5577  -28.1399   26.2879 C   0  0  0  0  0  0
  -18.2335  -28.0881   25.2589 C   0  0  0  0  0  0
  -27.4846  -18.3458   21.3396 C   0  0  0  0  0  0
  -23.1119  -28.6219   25.6233 C   0  0  0  0  0  0
  -22.5310  -28.2135   26.9915 C   0  0  0  0  0  0
  -24.1634  -27.8491   24.7003 C   0  0  0  0  0  0
  -21.4219  -29.2562   27.5260 C   0  0  0  0  0  0
  -25.0425  -28.6746   23.6092 C   0  0  0  0  0  0
  -25.3337  -30.3860   20.1044 C   0  0  0  0  0  0
  -26.5557  -29.7828   18.8869 C   0  0  0  0  0  0
  -20.2150  -25.8732   22.9354 N   0  0  0  0  0  0
  -28.1877  -16.6237   21.0451 N   0  0  0  0  0  0
  -20.0433  -29.3893   26.8670 N   0  3  2  0  0  0
  -24.5546  -29.0627   22.1707 N   0  3  0  0  0  0
  -31.2244  -13.6895   19.4098 H   0  0  0  0  0  0
  -30.5877  -12.3494   20.2998 H   0  0  0  0  0  0
  -30.0815  -11.9239   17.9197 H   0  0  0  0  0  0
  -29.5012  -13.5567   17.7022 H   0  0  0  0  0  0
  -28.1182  -11.2660   19.1123 H   0  0  0  0  0  0
  -27.4743  -12.2850   17.8454 H   0  0  0  0  0  0
  -27.4144  -14.1903   19.3223 H   0  0  0  0  0  0
  -28.7187  -12.3808   21.4343 H   0  0  0  0  0  0
  -27.8754  -13.8526   21.8746 H   0  0  0  0  0  0
  -25.2598   -9.5637   22.4799 H   0  0  0  0  0  0
  -23.9945   -7.4495   22.7435 H   0  0  0  0  0  0
  -21.0707   -8.8582   19.8944 H   0  0  0  0  0  0
  -22.3447  -10.9558   19.6237 H   0  0  0  0  0  0
  -21.1950   -7.6106   23.9703 H   0  0  0  0  0  0
  -21.1503   -6.0507   25.9096 H   0  0  0  0  0  0
  -22.0603   -2.7570   23.2891 H   0  0  0  0  0  0
  -22.3760  -11.9791   22.4987 H   0  0  0  0  0  0
  -21.0802  -13.1235   22.2921 H   0  0  0  0  0  0
  -24.4989  -15.7001   20.4020 H   0  0  0  0  0  0
  -25.9303  -15.4423   19.5885 H   0  0  0  0  0  0
  -26.8635  -32.5817   23.2568 H   0  0  0  0  0  0
  -25.1690  -34.0805   25.1473 H   0  0  0  0  0  0
  -22.7984  -31.6114   20.7988 H   0  0  0  0  0  0
  -23.3867  -35.9819   23.3084 H   0  0  0  0  0  0
  -24.3700  -36.9173   22.1905 H   0  0  0  0  0  0
  -23.7257  -37.6717   23.6457 H   0  0  0  0  0  0
  -27.2418  -31.0427   21.6111 H   0  0  0  0  0  0
  -26.9585  -30.1387   22.9540 H   0  0  0  0  0  0
  -28.5493  -28.5053   21.2911 H   0  0  0  0  0  0
  -26.7135  -25.9108   18.4534 H   0  0  0  0  0  0
  -24.3503  -26.6241   18.7901 H   0  0  0  0  0  0
  -23.1579  -29.3440   19.0990 H   0  0  0  0  0  0
  -22.6908  -28.4033   20.3458 H   0  0  0  0  0  0
  -25.1202  -36.2413   25.0715 H   0  0  0  0  0  0
  -22.0869  -27.7304   23.2421 H   0  0  0  0  0  0
  -22.2741  -26.1512   21.0062 H   0  0  0  0  0  0
  -21.3336  -27.1199   20.0689 H   0  0  0  0  0  0
  -19.9121  -24.4786   20.5888 H   0  0  0  0  0  0
  -19.3356  -25.7394   19.6652 H   0  0  0  0  0  0
  -17.1483  -25.8441   21.3179 H   0  0  0  0  0  0
  -17.8956  -24.7799   22.4371 H   0  0  0  0  0  0
  -20.2552  -30.4744   24.1914 H   0  0  0  0  0  0
  -17.8151  -31.3571   24.4337 H   0  0  0  0  0  0
  -15.6921  -29.9513   23.9588 H   0  0  0  0  0  0
  -15.7041  -27.4533   23.1813 H   0  0  0  0  0  0
  -25.5397  -30.5615   26.8441 H   0  0  0  0  0  0
  -24.4002  -31.4092   25.8126 H   0  0  0  0  0  0
  -25.2878  -32.2787   26.9964 H   0  0  0  0  0  0
  -26.9254  -29.5160   24.9621 H   0  0  0  0  0  0
  -27.8667  -30.2493   26.0757 H   0  0  0  0  0  0
  -28.2396  -30.6101   24.4591 H   0  0  0  0  0  0
  -27.1636  -33.6123   26.2977 H   0  0  0  0  0  0
  -28.4207  -32.8694   25.3312 H   0  0  0  0  0  0
  -27.9471  -32.2111   26.8926 H   0  0  0  0  0  0
  -28.2530  -38.0520   24.7605 H   0  0  0  0  0  0
  -28.1281  -36.3073   24.6077 H   0  0  0  0  0  0
  -27.2376  -37.1514   25.8825 H   0  0  0  0  0  0
  -20.9447  -29.4929   21.1288 H   0  0  0  0  0  0
  -26.0165  -38.3183   24.1597 H   0  0  0  0  0  0
  -24.9673  -23.5883   22.7273 H   0  0  0  0  0  0
  -21.8874  -20.9863   21.8525 H   0  0  0  0  0  0
  -23.3945  -25.3418   23.0458 H   0  0  0  0  0  0
  -20.2938  -22.7347   22.2233 H   0  0  0  0  0  0
  -16.8280  -29.8620   28.0371 H   0  0  0  0  0  0
  -17.3246  -30.6653   26.6064 H   0  0  0  0  0  0
  -16.1409  -28.4826   26.0782 H   0  0  0  0  0  0
  -17.1725  -27.6644   27.1358 H   0  0  0  0  0  0
  -18.7328  -25.9459   26.4587 H   0  0  0  0  0  0
  -17.7380  -25.7884   25.2128 H   0  0  0  0  0  0
  -17.3894  -29.0608   21.5690 H   0  0  0  0  0  0
  -18.7645  -29.9502   21.8723 H   0  0  0  0  0  0
  -19.7314  -24.5604   24.5785 H   0  0  0  0  0  0
  -20.8340  -25.8129   24.9825 H   0  0  0  0  0  0
  -19.8477  -28.2580   20.7259 H   0  0  0  0  0  0
  -18.5644  -27.4521   20.6387 H   0  0  0  0  0  0
  -19.0161  -29.2932   28.6978 H   0  0  0  0  0  0
  -19.1980  -30.9089   28.0805 H   0  0  0  0  0  0
  -20.4318  -27.6914   25.8430 H   0  0  0  0  0  0
  -19.4339  -27.5870   27.2230 H   0  0  0  0  0  0
  -28.0841  -18.6369   22.2047 H   0  0  0  0  0  0
  -27.9573  -18.8931   20.5238 H   0  0  0  0  0  0
  -23.4576  -29.6356   25.7388 H   0  0  0  0  0  0
  -22.1700  -28.6526   25.1028 H   0  0  0  0  0  0
  -23.3523  -28.1891   27.7103 H   0  0  0  0  0  0
  -22.1830  -27.1765   26.9701 H   0  0  0  0  0  0
  -23.7018  -26.9786   24.2573 H   0  0  0  0  0  0
  -24.8839  -27.4095   25.3913 H   0  0  0  0  0  0
  -21.8519  -30.2609   27.5395 H   0  0  0  0  0  0
  -21.2734  -29.0133   28.5778 H   0  0  0  0  0  0
  -25.1535  -29.6130   24.1247 H   0  0  0  0  0  0
  -26.0016  -28.1656   23.5221 H   0  0  0  0  0  0
  -24.6222  -30.8239   19.3917 H   0  0  0  0  0  0
  -25.7211  -31.4123   20.1654 H   0  0  0  0  0  0
  -27.1195  -30.6596   18.5717 H   0  0  0  0  0  0
  -25.9788  -29.5136   17.9993 H   0  0  0  0  0  0
  -27.3931  -15.9991   21.1372 H   0  0  0  0  0  0
  -20.1095  -30.0344   26.0934 H   0  0  0  0  0  0
  -23.6570  -29.4523   22.4210 H   0  0  0  0  0  0
  -24.3906  -28.1555   21.7512 H   0  0  0  0  0  0
  1 25  1  0  0  0
  1 30  2  0  0  0
  1 97  1  0  0  0
  2  3  1  0  0  0
  2 25  1  0  0  0
  2100  1  0  0  0
  2101  1  0  0  0
  3  4  1  0  0  0
  3102  1  0  0  0
  3103  1  0  0  0
  4  5  1  0  0  0
  4104  1  0  0  0
  4105  1  0  0  0
  5  6  1  0  0  0
  5 26  1  0  0  0
  5106  1  0  0  0
  6 25  1  0  0  0
  6107  1  0  0  0
  6108  1  0  0  0
  7  8  2  0  0  0
  7 26  1  0  0  0
  7 29  1  0  0  0
  8  9  1  0  0  0
  8 22  1  0  0  0
  9 10  1  0  0  0
  9 27  2  0  0  0
 10 11  2  0  0  0
 10 15  1  0  0  0
 11 12  1  0  0  0
 11109  1  0  0  0
 12 13  2  0  0  0
 12110  1  0  0  0
 13 14  1  0  0  0
 13 31  1  0  0  0
 14 15  2  0  0  0
 14111  1  0  0  0
 15112  1  0  0  0
 16 17  2  0  0  0
 16 21  1  0  0  0
 16 31  1  0  0  0
 17 18  1  0  0  0
 17113  1  0  0  0
 18 19  2  0  0  0
 18114  1  0  0  0
 19 20  1  0  0  0
 19 24  1  0  0  0
 20 21  2  0  0  0
 20115  1  0  0  0
 21 23  1  0  0  0
 22 28  1  0  0  0
 22 32  2  0  0  0
 26 27  1  0  0  0
 28116  1  0  0  0
 28117  1  0  0  0
 29118  1  0  0  0
 29119  1  0  0  0
 33 34  1  0  0  0
 33 66  1  0  0  0
 33 70  2  0  0  0
 34 36  1  0  0  0
 34 59  1  0  0  0
 34120  1  0  0  0
 35 44  2  0  0  0
 35 45  1  0  0  0
 35 68  1  0  0  0
 36 56  1  0  0  0
 36121  1  0  0  0
 37 39  1  0  0  0
 37 47  1  0  0  0
 37 66  1  0  0  0
 37122  1  0  0  0
 38 43  2  0  0  0
 38 46  1  0  0  0
 38 47  1  0  0  0
 39 64  1  0  0  0
 39 67  2  0  0  0
 40 52  1  0  0  0
 40 53  2  0  0  0
 40 58  1  0  0  0
 41123  1  0  0  0
 41124  1  0  0  0
 41125  1  0  0  0
 41 48  1  0  0  0
 42 43  1  0  0  0
 42 66  1  0  0  0
 42126  1  0  0  0
 42127  1  0  0  0
 43 44  1  0  0  0
 44128  1  0  0  0
 45 46  2  0  0  0
 45129  1  0  0  0
 46130  1  0  0  0
 47131  1  0  0  0
 47132  1  0  0  0
 48 56  1  0  0  0
 48 65  1  0  0  0
 48133  1  0  0  0
 49 50  1  0  0  0
 49 53  1  0  0  0
 49 64  1  0  0  0
 49134  1  0  0  0
 50 51  1  0  0  0
 50135  1  0  0  0
 50136  1  0  0  0
 51 52  1  0  0  0
 51137  1  0  0  0
 51138  1  0  0  0
 52139  1  0  0  0
 52140  1  0  0  0
 53 54  1  0  0  0
 54 55  2  0  0  0
 54141  1  0  0  0
 55 57  1  0  0  0
 55142  1  0  0  0
 56 69  2  0  0  0
 57 58  2  0  0  0
 57143  1  0  0  0
 58144  1  0  0  0
 59 60  1  0  0  0
 59 61  1  0  0  0
 59 62  1  0  0  0
 60145  1  0  0  0
 60146  1  0  0  0
 60147  1  0  0  0
 61148  1  0  0  0
 61149  1  0  0  0
 61150  1  0  0  0
 62151  1  0  0  0
 62152  1  0  0  0
 62153  1  0  0  0
 63 65  1  0  0  0
 63154  1  0  0  0
 63155  1  0  0  0
 63156  1  0  0  0
 64157  1  0  0  0
 65158  1  0  0  0
 68 95  1  0  0  0
 71 72  3  0  0  0
 71 77  1  0  0  0
 72 88  1  0  0  0
 73 75  2  0  0  0
 73 77  1  0  0  0
 73159  1  0  0  0
 74 76  1  0  0  0
 74 77  2  0  0  0
 74160  1  0  0  0
 75 78  1  0  0  0
 75161  1  0  0  0
 76 78  2  0  0  0
 76162  1  0  0  0
 78 96  1  0  0  0
 79 80  1  0  0  0
 79 85  1  0  0  0
 79163  1  0  0  0
 79164  1  0  0  0
 80165  1  0  0  0
 80166  1  0  0  0
 80 87  1  0  0  0
 81 83  1  0  0  0
 81 87  1  0  0  0
 81167  1  0  0  0
 81168  1  0  0  0
 82 84  1  0  0  0
 82 87  1  0  0  0
 82169  1  0  0  0
 82170  1  0  0  0
 83 96  1  0  0  0
 83171  1  0  0  0
 83172  1  0  0  0
 84 96  1  0  0  0
 84173  1  0  0  0
 84174  1  0  0  0
 85 98  1  0  0  0
 85175  1  0  0  0
 85176  1  0  0  0
 86 87  1  0  0  0
 86 98  1  0  0  0
 86177  1  0  0  0
 86178  1  0  0  0
 88 97  1  0  0  0
 88179  1  0  0  0
 88180  1  0  0  0
 89 90  1  0  0  0
 89 91  1  0  0  0
 89181  1  0  0  0
 89182  1  0  0  0
 90 92  1  0  0  0
 90183  1  0  0  0
 90184  1  0  0  0
 91 93  1  0  0  0
 91185  1  0  0  0
 91186  1  0  0  0
 92187  1  0  0  0
 92188  1  0  0  0
 92 98  1  0  0  0
 93 99  1  0  0  0
 93189  1  0  0  0
 93190  1  0  0  0
 94 95  1  0  0  0
 94 99  1  0  0  0
 94191  1  0  0  0
 94192  1  0  0  0
 95193  1  0  0  0
 95194  1  0  0  0
 97195  1  0  0  0
 98196  1  0  0  0
 99197  1  0  0  0
 99198  1  0  0  0
M  CHG  2  98   1  99   1
M  ISO  4   1 100  68 101  95 101  97 100
M  END
> <chiral flag>
0

> <version>
0

> <s_m_source_file>
/data/baiqing/PycharmProjects/Reinvent-master-3.2/result/LINK_invent/BTK/process_docking_weight1_custom_product_contain_oxygen_bond_distance_aromatic_linkinvent_7_9_3/rearranged_h_0004.sdf

> <i_m_source_file_index>
87

> <r_mmod_Potential_Energy-OPLS-2005>
24869.56640625

> <r_mmod_Stretch_Energy-OPLS-2005>
13405.3466796875

> <r_mmod_Bend_Energy-OPLS-2005>
1685.68127441406

> <r_mmod_Torsional_Energy-OPLS-2005>
764.186706542969

> <r_mmod_Improper_Torsional_Energy-OPLS-2005>
92.018928527832

> <r_mmod_Van_der_Waal_Energy-OPLS-2005>
6321.61572265625

> <r_mmod_Electrostatic_Energy-OPLS-2005>
-111.37508392334

> <r_mmod_Solvation_Energy-OPLS-2005>
-749.897094726562

> <b_mmod_Minimization_Converged-OPLS-2005>
0

> <r_mmod_RMS_Derivative-OPLS-2005>
9.99202060699463

$$$$
87
                    3D
 Structure written by MMmdl.
157166  0  0  1  0            999 V2000
  -30.6550  -14.6133   20.5131 C   0  0  0  0  0  0
  -30.4325  -12.3764   19.4578 C   0  0  0  0  0  0
  -29.5052  -12.4969   18.2283 C   0  0  0  0  0  0
  -28.0284  -12.3401   18.6400 C   0  0  0  0  0  0
  -27.6540  -13.2160   19.8647 C   0  0  2  0  0  0
  -28.6981  -13.0806   20.9966 C   0  0  0  0  0  0
  -25.2570  -13.8180   20.5702 C   0  0  0  0  0  0
  -24.1829  -13.0442   20.9187 C   0  0  0  0  0  0
  -24.6395  -11.6916   20.8737 C   0  0  0  0  0  0
  -23.9058  -10.4302   21.0403 C   0  0  0  0  0  0
  -24.3615   -9.4220   21.9182 C   0  0  0  0  0  0
  -23.6300   -8.2248   22.0750 C   0  0  0  0  0  0
  -22.4283   -8.0282   21.3537 C   0  0  0  0  0  0
  -21.9920   -9.0249   20.4634 C   0  0  0  0  0  0
  -22.7235  -10.2136   20.3049 C   0  0  0  0  0  0
  -21.6855   -6.0740   22.5280 C   0  0  0  0  0  0
  -21.4011   -6.5637   23.8210 C   0  0  0  0  0  0
  -21.3661   -5.6788   24.9172 C   0  0  0  0  0  0
  -21.6047   -4.3055   24.7226 C   0  0  0  0  0  0
  -21.8820   -3.8148   23.4344 C   0  0  0  0  0  0
  -21.9193   -4.6965   22.3403 C   0  0  0  0  0  0
  -22.7852  -13.5229   21.1852 C   0  0  0  0  0  0
  -22.1665   -4.2149   21.0982 F   0  0  0  0  0  0
  -21.5634   -3.4539   25.7741 F   0  0  0  0  0  0
  -30.0167  -13.4045   20.4323 N   0  0  0  0  0  0
  -26.2995  -12.9356   20.3337 N   0  0  0  0  0  0
  -25.9328  -11.6510   20.5772 N   0  0  0  0  0  0
  -22.0492  -12.8204   22.0399 N   0  0  0  0  0  0
  -25.4295  -15.1904   20.4152 N   0  0  0  0  0  0
  -31.8143  -14.7606   20.1190 O   0  0  0  0  0  0
  -21.6643   -6.8883   21.4240 O   0  0  0  0  0  0
  -22.3537  -14.5537   20.6711 O   0  0  0  0  0  0
  -24.6250  -31.8625   23.2061 C   0  0  0  0  0  0
  -25.9102  -32.4795   23.8380 C   0  0  1  0  0  0
  -27.2215  -27.3322   20.1080 C   0  0  0  0  0  0
  -25.5926  -33.8595   24.2307 N   0  0  0  0  0  0
  -23.4171  -30.4878   21.5493 C   0  0  2  0  0  0
  -24.8634  -28.9515   20.1065 C   0  0  0  0  0  0
  -22.7470  -29.4628   22.4955 C   0  0  0  0  0  0
  -18.0280  -28.1378   22.8484 C   0  0  0  0  0  0
  -24.1488  -36.7297   23.2640 C   0  0  0  0  0  0
  -25.9584  -30.7942   21.3789 C   0  0  0  0  0  0
  -26.0312  -29.4240   20.7180 C   0  0  0  0  0  0
  -27.2114  -28.6244   20.7157 C   0  0  0  0  0  0
  -26.0373  -26.9290   19.4429 C   0  0  0  0  0  0
  -24.8677  -27.7086   19.4602 C   0  0  0  0  0  0
  -23.6302  -29.8291   20.1621 C   0  0  0  0  0  0
  -25.4116  -36.3101   24.0338 C   0  0  1  0  0  0
  -20.5881  -28.3677   23.1291 C   0  0  2  0  0  0
  -20.6772  -26.9402   22.5418 C   0  0  0  0  0  0
  -19.5755  -26.6385   21.5213 C   0  0  0  0  0  0
  -18.1921  -26.7926   22.1609 C   0  0  0  0  0  0
  -19.1536  -28.8845   23.2876 C   0  0  0  0  0  0
  -18.9457  -30.1442   23.8898 C   0  0  0  0  0  0
  -17.6462  -30.6578   24.0563 C   0  0  0  0  0  0
  -25.9053  -34.9462   23.5125 C   0  0  0  0  0  0
  -16.5349  -29.9077   23.6330 C   0  0  0  0  0  0
  -16.7272  -28.6496   23.0352 C   0  0  0  0  0  0
  -26.4488  -31.6602   25.0747 C   0  0  0  0  0  0
  -25.3717  -31.3731   26.1473 C   0  0  0  0  0  0
  -27.0347  -30.3034   24.6208 C   0  0  0  0  0  0
  -27.6062  -32.4340   25.7495 C   0  0  0  0  0  0
  -27.5586  -37.1795   24.8460 C   0  0  0  0  0  0
  -21.4189  -29.3024   22.3688 N   0  0  0  0  0  0
  -26.4296  -37.3789   23.9407 N   0  0  0  0  0  0
  -24.6852  -31.0639   22.1016 N   0  0  0  0  0  0
  -23.4204  -28.8161   23.3021 O   0  0  0  0  0  0
  -28.3399  -26.4842   20.1862 O   0  0  0  0  0  0
  -26.5616  -34.8922   22.4688 O   0  0  0  0  0  0
  -23.5414  -32.1432   23.7392 O   0  0  0  0  0  0
  -29.3252  -19.4839   24.3219 C   0  0  0  0  0  0
  -29.4929  -18.0980   24.3313 C   0  0  0  0  0  0
  -29.4168  -20.1868   23.1111 C   0  0  0  0  0  0
  -29.7592  -17.4267   23.1304 C   0  0  0  0  0  0
  -29.6421  -19.5495   21.8598 C   0  0  0  0  0  0
  -29.8325  -18.0962   21.8800 C   0  0  0  0  0  0
  -29.9621  -23.0546   20.0950 C   0  0  0  0  0  0
  -29.6693  -20.4651   20.6166 C   0  0  0  0  0  0
  -28.2914  -22.5521   21.0542 C   0  0  0  0  0  0
  -28.9408  -23.9554   20.7675 C   0  0  2  0  0  0
  -30.1612  -17.1610   20.6712 C   0  0  0  0  0  0
  -28.1639  -25.0355   19.9192 C   0  0  0  0  0  0
  -29.5798  -21.8877   20.7585 N   0  0  0  0  0  0
  -29.8835  -15.6893   20.8447 N   0  0  0  0  0  0
  -30.6747  -23.2196   19.1011 O   0  0  0  0  0  0
  -29.9049  -19.9788   19.5083 O   0  0  0  0  0  0
  -31.4749  -12.4891   19.1553 H   0  0  0  0  0  0
  -30.3574  -11.3834   19.9033 H   0  0  0  0  0  0
  -29.7639  -11.7421   17.4844 H   0  0  0  0  0  0
  -29.6524  -13.4660   17.7482 H   0  0  0  0  0  0
  -27.8613  -11.2881   18.8743 H   0  0  0  0  0  0
  -27.3750  -12.5694   17.7979 H   0  0  0  0  0  0
  -27.6715  -14.2494   19.5181 H   0  0  0  0  0  0
  -28.7045  -12.0656   21.3970 H   0  0  0  0  0  0
  -28.4469  -13.7310   21.8366 H   0  0  0  0  0  0
  -25.2760   -9.5698   22.4753 H   0  0  0  0  0  0
  -24.0010   -7.4641   22.7474 H   0  0  0  0  0  0
  -21.0850   -8.8756   19.8943 H   0  0  0  0  0  0
  -22.3685  -10.9668   19.6160 H   0  0  0  0  0  0
  -21.1994   -7.6145   23.9709 H   0  0  0  0  0  0
  -21.1487   -6.0525   25.9072 H   0  0  0  0  0  0
  -22.0600   -2.7610   23.2845 H   0  0  0  0  0  0
  -22.4115  -11.9858   22.4762 H   0  0  0  0  0  0
  -21.1106  -13.1211   22.2605 H   0  0  0  0  0  0
  -24.6672  -15.8484   20.5369 H   0  0  0  0  0  0
  -26.2836  -15.6321   20.1000 H   0  0  0  0  0  0
  -26.7172  -32.5471   23.1132 H   0  0  0  0  0  0
  -25.0069  -33.9750   25.0448 H   0  0  0  0  0  0
  -22.7094  -31.3086   21.4116 H   0  0  0  0  0  0
  -23.3765  -35.9614   23.3298 H   0  0  0  0  0  0
  -24.3580  -36.8929   22.2054 H   0  0  0  0  0  0
  -23.7220  -37.6490   23.6670 H   0  0  0  0  0  0
  -26.0954  -31.5604   20.6140 H   0  0  0  0  0  0
  -26.8369  -30.8375   22.0109 H   0  0  0  0  0  0
  -28.1034  -28.9783   21.2135 H   0  0  0  0  0  0
  -25.9770  -26.0008   18.8957 H   0  0  0  0  0  0
  -23.9777  -27.3503   18.9607 H   0  0  0  0  0  0
  -23.7423  -30.6102   19.4092 H   0  0  0  0  0  0
  -22.7500  -29.2582   19.8621 H   0  0  0  0  0  0
  -25.1282  -36.1967   25.0830 H   0  0  0  0  0  0
  -20.9963  -28.3255   24.1422 H   0  0  0  0  0  0
  -20.5671  -26.2283   23.3613 H   0  0  0  0  0  0
  -21.6635  -26.7432   22.1207 H   0  0  0  0  0  0
  -19.6918  -25.6300   21.1231 H   0  0  0  0  0  0
  -19.6710  -27.3204   20.6752 H   0  0  0  0  0  0
  -17.4203  -26.6699   21.3991 H   0  0  0  0  0  0
  -18.0292  -26.0057   22.8992 H   0  0  0  0  0  0
  -19.7938  -30.7243   24.2283 H   0  0  0  0  0  0
  -17.5019  -31.6261   24.5156 H   0  0  0  0  0  0
  -15.5348  -30.2972   23.7665 H   0  0  0  0  0  0
  -15.8672  -28.0811   22.7076 H   0  0  0  0  0  0
  -24.5928  -30.7041   25.7800 H   0  0  0  0  0  0
  -24.8853  -32.2881   26.4869 H   0  0  0  0  0  0
  -25.8034  -30.8945   27.0275 H   0  0  0  0  0  0
  -26.2936  -29.6762   24.1248 H   0  0  0  0  0  0
  -27.4068  -29.7314   25.4716 H   0  0  0  0  0  0
  -27.8789  -30.4330   23.9435 H   0  0  0  0  0  0
  -27.2723  -33.3688   26.2018 H   0  0  0  0  0  0
  -28.3889  -32.6827   25.0312 H   0  0  0  0  0  0
  -28.0721  -31.8498   26.5449 H   0  0  0  0  0  0
  -28.2591  -38.0103   24.7523 H   0  0  0  0  0  0
  -28.1094  -36.2631   24.6266 H   0  0  0  0  0  0
  -27.2302  -37.1418   25.8863 H   0  0  0  0  0  0
  -20.9375  -29.8769   21.6910 H   0  0  0  0  0  0
  -26.0190  -38.2867   24.1428 H   0  0  0  0  0  0
  -29.1350  -20.0127   25.2465 H   0  0  0  0  0  0
  -29.4338  -17.5496   25.2616 H   0  0  0  0  0  0
  -29.3163  -21.2562   23.1863 H   0  0  0  0  0  0
  -29.9187  -16.3607   23.2029 H   0  0  0  0  0  0
  -27.5046  -22.2837   20.3431 H   0  0  0  0  0  0
  -27.9287  -22.4417   22.0754 H   0  0  0  0  0  0
  -29.3648  -24.3700   21.6830 H   0  0  0  0  0  0
  -31.2119  -17.3098   20.4160 H   0  0  0  0  0  0
  -29.5906  -17.4838   19.8015 H   0  0  0  0  0  0
  -27.1227  -24.7617   20.0701 H   0  0  0  0  0  0
  -28.3517  -24.8807   18.8562 H   0  0  0  0  0  0
  -28.9422  -15.4633   21.1264 H   0  0  0  0  0  0
  1 25  1  0  0  0
  1 30  2  0  0  0
  1 84  1  0  0  0
  2  3  1  0  0  0
  2 25  1  0  0  0
  2 87  1  0  0  0
  2 88  1  0  0  0
  3  4  1  0  0  0
  3 89  1  0  0  0
  3 90  1  0  0  0
  4  5  1  0  0  0
  4 91  1  0  0  0
  4 92  1  0  0  0
  5  6  1  0  0  0
  5 26  1  0  0  0
  5 93  1  0  0  0
  6 25  1  0  0  0
  6 94  1  0  0  0
  6 95  1  0  0  0
  7  8  2  0  0  0
  7 26  1  0  0  0
  7 29  1  0  0  0
  8  9  1  0  0  0
  8 22  1  0  0  0
  9 10  1  0  0  0
  9 27  2  0  0  0
 10 11  2  0  0  0
 10 15  1  0  0  0
 11 12  1  0  0  0
 11 96  1  0  0  0
 12 13  2  0  0  0
 12 97  1  0  0  0
 13 14  1  0  0  0
 13 31  1  0  0  0
 14 15  2  0  0  0
 14 98  1  0  0  0
 15 99  1  0  0  0
 16 17  2  0  0  0
 16 21  1  0  0  0
 16 31  1  0  0  0
 17 18  1  0  0  0
 17100  1  0  0  0
 18 19  2  0  0  0
 18101  1  0  0  0
 19 20  1  0  0  0
 19 24  1  0  0  0
 20 21  2  0  0  0
 20102  1  0  0  0
 21 23  1  0  0  0
 22 28  1  0  0  0
 22 32  2  0  0  0
 26 27  1  0  0  0
 28103  1  0  0  0
 28104  1  0  0  0
 29105  1  0  0  0
 29106  1  0  0  0
 33 34  1  0  0  0
 33 66  1  0  0  0
 33 70  2  0  0  0
 34 36  1  0  0  0
 34 59  1  0  0  0
 34107  1  0  0  0
 35 44  2  0  0  0
 35 45  1  0  0  0
 35 68  1  0  0  0
 36 56  1  0  0  0
 36108  1  0  0  0
 37 39  1  0  0  0
 37 47  1  0  0  0
 37 66  1  0  0  0
 37109  1  0  0  0
 38 43  2  0  0  0
 38 46  1  0  0  0
 38 47  1  0  0  0
 39 64  1  0  0  0
 39 67  2  0  0  0
 40 52  1  0  0  0
 40 53  2  0  0  0
 40 58  1  0  0  0
 41110  1  0  0  0
 41111  1  0  0  0
 41112  1  0  0  0
 41 48  1  0  0  0
 42 43  1  0  0  0
 42 66  1  0  0  0
 42113  1  0  0  0
 42114  1  0  0  0
 43 44  1  0  0  0
 44115  1  0  0  0
 45 46  2  0  0  0
 45116  1  0  0  0
 46117  1  0  0  0
 47118  1  0  0  0
 47119  1  0  0  0
 48 56  1  0  0  0
 48 65  1  0  0  0
 48120  1  0  0  0
 49 50  1  0  0  0
 49 53  1  0  0  0
 49 64  1  0  0  0
 49121  1  0  0  0
 50 51  1  0  0  0
 50122  1  0  0  0
 50123  1  0  0  0
 51 52  1  0  0  0
 51124  1  0  0  0
 51125  1  0  0  0
 52126  1  0  0  0
 52127  1  0  0  0
 53 54  1  0  0  0
 54 55  2  0  0  0
 54128  1  0  0  0
 55 57  1  0  0  0
 55129  1  0  0  0
 56 69  2  0  0  0
 57 58  2  0  0  0
 57130  1  0  0  0
 58131  1  0  0  0
 59 60  1  0  0  0
 59 61  1  0  0  0
 59 62  1  0  0  0
 60132  1  0  0  0
 60133  1  0  0  0
 60134  1  0  0  0
 61135  1  0  0  0
 61136  1  0  0  0
 61137  1  0  0  0
 62138  1  0  0  0
 62139  1  0  0  0
 62140  1  0  0  0
 63 65  1  0  0  0
 63141  1  0  0  0
 63142  1  0  0  0
 63143  1  0  0  0
 64144  1  0  0  0
 65145  1  0  0  0
 68 82  1  0  0  0
 71 72  2  0  0  0
 71 73  1  0  0  0
 71146  1  0  0  0
 72 74  1  0  0  0
 72147  1  0  0  0
 73 75  2  0  0  0
 73148  1  0  0  0
 74 76  2  0  0  0
 74149  1  0  0  0
 75 76  1  0  0  0
 75 78  1  0  0  0
 76 81  1  0  0  0
 77 80  1  0  0  0
 77 83  1  0  0  0
 77 85  2  0  0  0
 78 83  1  0  0  0
 78 86  2  0  0  0
 79 80  1  0  0  0
 79 83  1  0  0  0
 79150  1  0  0  0
 79151  1  0  0  0
 80 82  1  0  0  0
 80152  1  0  0  0
 81 84  1  0  0  0
 81153  1  0  0  0
 81154  1  0  0  0
 82155  1  0  0  0
 82156  1  0  0  0
 84157  1  0  0  0
M  ISO  4   1 100  68 101  82 101  84 100
M  END
> <chiral flag>
0

> <version>
0

> <s_m_source_file>
/data/baiqing/PycharmProjects/Reinvent-master-3.2/result/LINK_invent/BTK/process_docking_weight1_custom_product_contain_oxygen_bond_distance_aromatic_linkinvent_7_9_3/rearranged_h_0004.sdf

> <i_m_source_file_index>
88

> <r_mmod_Potential_Energy-OPLS-2005>
0.657147347927094

> <r_mmod_Stretch_Energy-OPLS-2005>
82.0629119873047

> <r_mmod_Bend_Energy-OPLS-2005>
183.858947753906

> <r_mmod_Torsional_Energy-OPLS-2005>
216.965713500977

> <r_mmod_Improper_Torsional_Energy-OPLS-2005>
14.9015836715698

> <r_mmod_Van_der_Waal_Energy-OPLS-2005>
160.123611450195

> <r_mmod_Electrostatic_Energy-OPLS-2005>
-455.118774414062

> <r_mmod_Solvation_Energy-OPLS-2005>
-246.155883789062

> <b_mmod_Minimization_Converged-OPLS-2005>
0

> <r_mmod_RMS_Derivative-OPLS-2005>
1.67012393474579

$$$$
88
                    3D
 Structure written by MMmdl.
169178  0  0  1  0            999 V2000
  -30.7434  -14.4820   20.5832 C   0  0  0  0  0  0
  -30.4095  -12.3237   19.4306 C   0  0  0  0  0  0
  -29.4899  -12.5081   18.2087 C   0  0  0  0  0  0
  -28.0134  -12.3680   18.6225 C   0  0  0  0  0  0
  -27.6561  -13.2195   19.8713 C   0  0  2  0  0  0
  -28.6998  -13.0425   20.9977 C   0  0  0  0  0  0
  -25.2563  -13.8188   20.5694 C   0  0  0  0  0  0
  -24.1826  -13.0450   20.9182 C   0  0  0  0  0  0
  -24.6398  -11.6923   20.8744 C   0  0  0  0  0  0
  -23.9071  -10.4302   21.0404 C   0  0  0  0  0  0
  -24.3620   -9.4216   21.9185 C   0  0  0  0  0  0
  -23.6295   -8.2248   22.0754 C   0  0  0  0  0  0
  -22.4280   -8.0284   21.3545 C   0  0  0  0  0  0
  -21.9917   -9.0256   20.4646 C   0  0  0  0  0  0
  -22.7241  -10.2136   20.3054 C   0  0  0  0  0  0
  -21.6857   -6.0741   22.5279 C   0  0  0  0  0  0
  -21.4012   -6.5644   23.8214 C   0  0  0  0  0  0
  -21.3656   -5.6799   24.9175 C   0  0  0  0  0  0
  -21.6043   -4.3058   24.7227 C   0  0  0  0  0  0
  -21.8818   -3.8151   23.4349 C   0  0  0  0  0  0
  -21.9192   -4.6971   22.3403 C   0  0  0  0  0  0
  -22.7847  -13.5237   21.1841 C   0  0  0  0  0  0
  -22.1663   -4.2155   21.0981 F   0  0  0  0  0  0
  -21.5626   -3.4541   25.7739 F   0  0  0  0  0  0
  -30.0259  -13.3332   20.4327 N   0  0  0  0  0  0
  -26.3007  -12.9383   20.3374 N   0  0  0  0  0  0
  -25.9331  -11.6529   20.5776 N   0  0  0  0  0  0
  -22.0489  -12.8228   22.0393 N   0  0  0  0  0  0
  -25.4280  -15.1907   20.4088 N   0  0  0  0  0  0
  -31.8533  -14.6261   20.0626 O   0  0  0  0  0  0
  -21.6640   -6.8883   21.4244 O   0  0  0  0  0  0
  -22.3537  -14.5547   20.6696 O   0  0  0  0  0  0
  -24.6175  -31.8680   23.2102 C   0  0  0  0  0  0
  -25.9056  -32.4826   23.8405 C   0  0  1  0  0  0
  -27.2255  -27.4171   20.1009 C   0  0  0  0  0  0
  -25.5905  -33.8622   24.2333 N   0  0  0  0  0  0
  -23.4068  -30.4912   21.5509 C   0  0  2  0  0  0
  -24.8537  -28.9626   20.1085 C   0  0  0  0  0  0
  -22.7433  -29.4655   22.4991 C   0  0  0  0  0  0
  -18.0277  -28.1377   22.8503 C   0  0  0  0  0  0
  -24.1480  -36.7310   23.2638 C   0  0  0  0  0  0
  -25.9367  -30.8297   21.3645 C   0  0  0  0  0  0
  -26.0162  -29.4639   20.7085 C   0  0  0  0  0  0
  -27.2096  -28.6995   20.7005 C   0  0  0  0  0  0
  -26.0508  -26.9421   19.4790 C   0  0  0  0  0  0
  -24.8672  -27.7018   19.4879 C   0  0  0  0  0  0
  -23.6150  -29.8291   20.1639 C   0  0  0  0  0  0
  -25.4104  -36.3112   24.0338 C   0  0  1  0  0  0
  -20.5873  -28.3679   23.1317 C   0  0  2  0  0  0
  -20.6775  -26.9415   22.5419 C   0  0  0  0  0  0
  -19.5744  -26.6394   21.5223 C   0  0  0  0  0  0
  -18.1919  -26.7925   22.1627 C   0  0  0  0  0  0
  -19.1531  -28.8843   23.2899 C   0  0  0  0  0  0
  -18.9452  -30.1444   23.8910 C   0  0  0  0  0  0
  -17.6457  -30.6590   24.0571 C   0  0  0  0  0  0
  -25.9039  -34.9471   23.5133 C   0  0  0  0  0  0
  -16.5346  -29.9088   23.6340 C   0  0  0  0  0  0
  -16.7269  -28.6503   23.0372 C   0  0  0  0  0  0
  -26.4468  -31.6602   25.0741 C   0  0  0  0  0  0
  -25.3712  -31.3690   26.1468 C   0  0  0  0  0  0
  -27.0323  -30.3060   24.6110 C   0  0  0  0  0  0
  -27.6050  -32.4323   25.7506 C   0  0  0  0  0  0
  -27.5575  -37.1802   24.8468 C   0  0  0  0  0  0
  -21.4164  -29.3040   22.3720 N   0  0  0  0  0  0
  -26.4290  -37.3796   23.9411 N   0  0  0  0  0  0
  -24.6721  -31.0764   22.1007 N   0  0  0  0  0  0
  -23.4189  -28.8198   23.3051 O   0  0  0  0  0  0
  -28.3415  -26.6028   20.1367 O   0  0  0  0  0  0
  -26.5602  -34.8920   22.4694 O   0  0  0  0  0  0
  -23.5360  -32.1446   23.7478 O   0  0  0  0  0  0
  -32.7773  -17.2642   23.2434 C   0  0  0  0  0  0
  -31.9779  -16.2794   22.6428 C   0  0  0  0  0  0
  -31.4071  -18.9742   22.2039 C   0  0  0  0  0  0
  -30.5776  -18.0028   21.5884 C   0  0  0  0  0  0
  -32.4963  -18.6192   23.0191 C   0  0  0  0  0  0
  -30.8885  -16.6155   21.7983 C   0  0  0  0  0  0
  -28.2601  -19.1077   21.6062 C   0  0  0  0  0  0
  -29.8015  -19.5668   19.6480 C   0  0  0  0  0  0
  -28.4682  -20.5837   22.0443 C   0  0  0  0  0  0
  -28.9315  -20.8616   19.6178 C   0  0  0  0  0  0
  -29.3969  -18.5227   20.7370 C   0  0  1  0  0  0
  -33.3513  -19.6928   23.6638 C   0  0  0  0  0  0
  -28.7017  -24.0634   20.2884 C   0  0  0  0  0  0
  -28.1049  -22.8138   21.0130 C   0  0  0  0  0  0
  -28.1293  -25.3823   20.8880 C   0  0  0  0  0  0
  -30.1579  -15.5195   21.2272 N   0  0  0  0  0  0
  -28.8768  -21.5263   20.9510 N   0  3  1  0  0  0
  -31.4562  -12.3995   19.1305 H   0  0  0  0  0  0
  -30.2975  -11.3226   19.8491 H   0  0  0  0  0  0
  -29.7339  -11.7760   17.4382 H   0  0  0  0  0  0
  -29.6569  -13.4903   17.7637 H   0  0  0  0  0  0
  -27.8256  -11.3133   18.8263 H   0  0  0  0  0  0
  -27.3633  -12.6355   17.7889 H   0  0  0  0  0  0
  -27.6885  -14.2626   19.5564 H   0  0  0  0  0  0
  -28.6800  -12.0207   21.3798 H   0  0  0  0  0  0
  -28.4623  -13.6812   21.8494 H   0  0  0  0  0  0
  -25.2762   -9.5693   22.4763 H   0  0  0  0  0  0
  -24.0006   -7.4641   22.7478 H   0  0  0  0  0  0
  -21.0850   -8.8775   19.8949 H   0  0  0  0  0  0
  -22.3705  -10.9675   19.6162 H   0  0  0  0  0  0
  -21.2006   -7.6150   23.9719 H   0  0  0  0  0  0
  -21.1477   -6.0525   25.9076 H   0  0  0  0  0  0
  -22.0600   -2.7615   23.2847 H   0  0  0  0  0  0
  -22.4100  -11.9886   22.4773 H   0  0  0  0  0  0
  -21.1104  -13.1248   22.2592 H   0  0  0  0  0  0
  -24.6600  -15.8462   20.5040 H   0  0  0  0  0  0
  -26.2819  -15.6253   20.0829 H   0  0  0  0  0  0
  -26.7126  -32.5543   23.1167 H   0  0  0  0  0  0
  -25.0091  -33.9791   25.0505 H   0  0  0  0  0  0
  -22.6967  -31.3089   21.4134 H   0  0  0  0  0  0
  -23.3745  -35.9640   23.3323 H   0  0  0  0  0  0
  -24.3569  -36.8916   22.2048 H   0  0  0  0  0  0
  -23.7238  -37.6516   23.6655 H   0  0  0  0  0  0
  -26.0470  -31.5963   20.5954 H   0  0  0  0  0  0
  -26.8238  -30.8860   21.9831 H   0  0  0  0  0  0
  -28.1039  -29.0765   21.1778 H   0  0  0  0  0  0
  -26.0480  -25.9709   19.0048 H   0  0  0  0  0  0
  -23.9759  -27.3116   19.0161 H   0  0  0  0  0  0
  -23.7202  -30.6074   19.4073 H   0  0  0  0  0  0
  -22.7384  -29.2486   19.8699 H   0  0  0  0  0  0
  -25.1272  -36.1983   25.0829 H   0  0  0  0  0  0
  -20.9947  -28.3244   24.1449 H   0  0  0  0  0  0
  -20.5718  -26.2276   23.3605 H   0  0  0  0  0  0
  -21.6635  -26.7496   22.1172 H   0  0  0  0  0  0
  -19.6915  -25.6310   21.1246 H   0  0  0  0  0  0
  -19.6681  -27.3212   20.6757 H   0  0  0  0  0  0
  -17.4199  -26.6707   21.4014 H   0  0  0  0  0  0
  -18.0292  -26.0059   22.9006 H   0  0  0  0  0  0
  -19.7929  -30.7250   24.2292 H   0  0  0  0  0  0
  -17.5020  -31.6278   24.5153 H   0  0  0  0  0  0
  -15.5347  -30.2990   23.7672 H   0  0  0  0  0  0
  -15.8668  -28.0819   22.7100 H   0  0  0  0  0  0
  -24.5901  -30.7031   25.7778 H   0  0  0  0  0  0
  -24.8862  -32.2823   26.4927 H   0  0  0  0  0  0
  -25.8028  -30.8847   27.0238 H   0  0  0  0  0  0
  -26.2873  -29.6790   24.1198 H   0  0  0  0  0  0
  -27.4146  -29.7326   25.4566 H   0  0  0  0  0  0
  -27.8673  -30.4401   23.9232 H   0  0  0  0  0  0
  -27.2695  -33.3633   26.2092 H   0  0  0  0  0  0
  -28.3857  -32.6869   25.0324 H   0  0  0  0  0  0
  -28.0715  -31.8436   26.5413 H   0  0  0  0  0  0
  -28.2590  -38.0096   24.7535 H   0  0  0  0  0  0
  -28.1072  -36.2636   24.6286 H   0  0  0  0  0  0
  -27.2294  -37.1452   25.8867 H   0  0  0  0  0  0
  -20.9336  -29.8764   21.6941 H   0  0  0  0  0  0
  -26.0184  -38.2877   24.1411 H   0  0  0  0  0  0
  -33.6074  -16.9707   23.8713 H   0  0  0  0  0  0
  -32.2271  -15.2448   22.8336 H   0  0  0  0  0  0
  -31.2185  -20.0247   22.0508 H   0  0  0  0  0  0
  -27.3326  -19.0631   21.0330 H   0  0  0  0  0  0
  -28.0796  -18.4760   22.4764 H   0  0  0  0  0  0
  -30.8461  -19.8574   19.7575 H   0  0  0  0  0  0
  -29.7575  -19.0892   18.6683 H   0  0  0  0  0  0
  -29.2096  -20.6430   22.8402 H   0  0  0  0  0  0
  -27.5360  -20.9146   22.5038 H   0  0  0  0  0  0
  -27.9191  -20.6213   19.2887 H   0  0  0  0  0  0
  -29.3350  -21.5551   18.8787 H   0  0  0  0  0  0
  -28.9815  -17.6589   20.2166 H   0  0  0  0  0  0
  -34.3619  -19.3287   23.8521 H   0  0  0  0  0  0
  -32.9166  -19.9989   24.6157 H   0  0  0  0  0  0
  -33.4289  -20.5733   23.0258 H   0  0  0  0  0  0
  -28.4713  -24.0101   19.2241 H   0  0  0  0  0  0
  -29.7879  -24.0777   20.3738 H   0  0  0  0  0  0
  -27.0826  -22.6407   20.6741 H   0  0  0  0  0  0
  -28.0234  -23.0757   22.0690 H   0  0  0  0  0  0
  -28.5729  -25.5364   21.8728 H   0  0  0  0  0  0
  -27.0704  -25.2181   21.0957 H   0  0  0  0  0  0
  -29.1830  -15.4310   21.4711 H   0  0  0  0  0  0
  -29.8291  -21.7791   21.1669 H   0  0  0  0  0  0
  1 25  1  0  0  0
  1 30  2  0  0  0
  1 86  1  0  0  0
  2  3  1  0  0  0
  2 25  1  0  0  0
  2 88  1  0  0  0
  2 89  1  0  0  0
  3  4  1  0  0  0
  3 90  1  0  0  0
  3 91  1  0  0  0
  4  5  1  0  0  0
  4 92  1  0  0  0
  4 93  1  0  0  0
  5  6  1  0  0  0
  5 26  1  0  0  0
  5 94  1  0  0  0
  6 25  1  0  0  0
  6 95  1  0  0  0
  6 96  1  0  0  0
  7  8  2  0  0  0
  7 26  1  0  0  0
  7 29  1  0  0  0
  8  9  1  0  0  0
  8 22  1  0  0  0
  9 10  1  0  0  0
  9 27  2  0  0  0
 10 11  2  0  0  0
 10 15  1  0  0  0
 11 12  1  0  0  0
 11 97  1  0  0  0
 12 13  2  0  0  0
 12 98  1  0  0  0
 13 14  1  0  0  0
 13 31  1  0  0  0
 14 15  2  0  0  0
 14 99  1  0  0  0
 15100  1  0  0  0
 16 17  2  0  0  0
 16 21  1  0  0  0
 16 31  1  0  0  0
 17 18  1  0  0  0
 17101  1  0  0  0
 18 19  2  0  0  0
 18102  1  0  0  0
 19 20  1  0  0  0
 19 24  1  0  0  0
 20 21  2  0  0  0
 20103  1  0  0  0
 21 23  1  0  0  0
 22 28  1  0  0  0
 22 32  2  0  0  0
 26 27  1  0  0  0
 28104  1  0  0  0
 28105  1  0  0  0
 29106  1  0  0  0
 29107  1  0  0  0
 33 34  1  0  0  0
 33 66  1  0  0  0
 33 70  2  0  0  0
 34 36  1  0  0  0
 34 59  1  0  0  0
 34108  1  0  0  0
 35 44  2  0  0  0
 35 45  1  0  0  0
 35 68  1  0  0  0
 36 56  1  0  0  0
 36109  1  0  0  0
 37 39  1  0  0  0
 37 47  1  0  0  0
 37 66  1  0  0  0
 37110  1  0  0  0
 38 43  2  0  0  0
 38 46  1  0  0  0
 38 47  1  0  0  0
 39 64  1  0  0  0
 39 67  2  0  0  0
 40 52  1  0  0  0
 40 53  2  0  0  0
 40 58  1  0  0  0
 41111  1  0  0  0
 41112  1  0  0  0
 41113  1  0  0  0
 41 48  1  0  0  0
 42 43  1  0  0  0
 42 66  1  0  0  0
 42114  1  0  0  0
 42115  1  0  0  0
 43 44  1  0  0  0
 44116  1  0  0  0
 45 46  2  0  0  0
 45117  1  0  0  0
 46118  1  0  0  0
 47119  1  0  0  0
 47120  1  0  0  0
 48 56  1  0  0  0
 48 65  1  0  0  0
 48121  1  0  0  0
 49 50  1  0  0  0
 49 53  1  0  0  0
 49 64  1  0  0  0
 49122  1  0  0  0
 50 51  1  0  0  0
 50123  1  0  0  0
 50124  1  0  0  0
 51 52  1  0  0  0
 51125  1  0  0  0
 51126  1  0  0  0
 52127  1  0  0  0
 52128  1  0  0  0
 53 54  1  0  0  0
 54 55  2  0  0  0
 54129  1  0  0  0
 55 57  1  0  0  0
 55130  1  0  0  0
 56 69  2  0  0  0
 57 58  2  0  0  0
 57131  1  0  0  0
 58132  1  0  0  0
 59 60  1  0  0  0
 59 61  1  0  0  0
 59 62  1  0  0  0
 60133  1  0  0  0
 60134  1  0  0  0
 60135  1  0  0  0
 61136  1  0  0  0
 61137  1  0  0  0
 61138  1  0  0  0
 62139  1  0  0  0
 62140  1  0  0  0
 62141  1  0  0  0
 63 65  1  0  0  0
 63142  1  0  0  0
 63143  1  0  0  0
 63144  1  0  0  0
 64145  1  0  0  0
 65146  1  0  0  0
 68 85  1  0  0  0
 71 72  2  0  0  0
 71 75  1  0  0  0
 71147  1  0  0  0
 72 76  1  0  0  0
 72148  1  0  0  0
 73 74  1  0  0  0
 73 75  2  0  0  0
 73149  1  0  0  0
 74 76  2  0  0  0
 74 81  1  0  0  0
 75 82  1  0  0  0
 76 86  1  0  0  0
 77 79  1  0  0  0
 77 81  1  0  0  0
 77150  1  0  0  0
 77151  1  0  0  0
 78 80  1  0  0  0
 78 81  1  0  0  0
 78152  1  0  0  0
 78153  1  0  0  0
 79 87  1  0  0  0
 79154  1  0  0  0
 79155  1  0  0  0
 80 87  1  0  0  0
 80156  1  0  0  0
 80157  1  0  0  0
 81158  1  0  0  0
 82159  1  0  0  0
 82160  1  0  0  0
 82161  1  0  0  0
 83 84  1  0  0  0
 83 85  1  0  0  0
 83162  1  0  0  0
 83163  1  0  0  0
 84164  1  0  0  0
 84165  1  0  0  0
 84 87  1  0  0  0
 85166  1  0  0  0
 85167  1  0  0  0
 86168  1  0  0  0
 87169  1  0  0  0
M  CHG  1  87   1
M  ISO  4   1 100  68 101  85 101  86 100
M  END
> <chiral flag>
0

> <version>
0

> <s_m_source_file>
/data/baiqing/PycharmProjects/Reinvent-master-3.2/result/LINK_invent/BTK/process_docking_weight1_custom_product_contain_oxygen_bond_distance_aromatic_linkinvent_7_9_3/rearranged_h_0004.sdf

> <i_m_source_file_index>
89

> <r_mmod_Potential_Energy-OPLS-2005>
-46.1408576965332

> <r_mmod_Stretch_Energy-OPLS-2005>
49.450382232666

> <r_mmod_Bend_Energy-OPLS-2005>
114.320663452148

> <r_mmod_Torsional_Energy-OPLS-2005>
314.517822265625

> <r_mmod_Improper_Torsional_Energy-OPLS-2005>
2.87552571296692

> <r_mmod_Van_der_Waal_Energy-OPLS-2005>
164.610733032227

> <r_mmod_Electrostatic_Energy-OPLS-2005>
-259.074493408203

> <r_mmod_Solvation_Energy-OPLS-2005>
-450.711395263672

> <b_mmod_Minimization_Converged-OPLS-2005>
0

> <r_mmod_RMS_Derivative-OPLS-2005>
1.59891498088837

$$$$
89
                    3D
 Structure written by MMmdl.
157165  0  0  1  0            999 V2000
  -30.7178  -14.3867   20.5931 C   0  0  0  0  0  0
  -30.4178  -12.2595   19.4070 C   0  0  0  0  0  0
  -29.4879  -12.5007   18.2001 C   0  0  0  0  0  0
  -28.0084  -12.3684   18.6141 C   0  0  0  0  0  0
  -27.6662  -13.1955   19.8823 C   0  0  2  0  0  0
  -28.7046  -12.9310   20.9979 C   0  0  0  0  0  0
  -25.2597  -13.8157   20.5657 C   0  0  0  0  0  0
  -24.1835  -13.0453   20.9168 C   0  0  0  0  0  0
  -24.6378  -11.6913   20.8737 C   0  0  0  0  0  0
  -23.9046  -10.4302   21.0404 C   0  0  0  0  0  0
  -24.3608   -9.4215   21.9177 C   0  0  0  0  0  0
  -23.6289   -8.2251   22.0758 C   0  0  0  0  0  0
  -22.4273   -8.0287   21.3545 C   0  0  0  0  0  0
  -21.9901   -9.0260   20.4647 C   0  0  0  0  0  0
  -22.7224  -10.2141   20.3052 C   0  0  0  0  0  0
  -21.6853   -6.0737   22.5273 C   0  0  0  0  0  0
  -21.4012   -6.5638   23.8207 C   0  0  0  0  0  0
  -21.3661   -5.6786   24.9167 C   0  0  0  0  0  0
  -21.6047   -4.3051   24.7214 C   0  0  0  0  0  0
  -21.8817   -3.8148   23.4333 C   0  0  0  0  0  0
  -21.9194   -4.6968   22.3390 C   0  0  0  0  0  0
  -22.7856  -13.5258   21.1819 C   0  0  0  0  0  0
  -22.1659   -4.2155   21.0968 F   0  0  0  0  0  0
  -21.5635   -3.4533   25.7726 F   0  0  0  0  0  0
  -30.0445  -13.2182   20.4548 N   0  0  0  0  0  0
  -26.3035  -12.9308   20.3387 N   0  0  0  0  0  0
  -25.9302  -11.6480   20.5780 N   0  0  0  0  0  0
  -22.0483  -12.8270   22.0380 N   0  0  0  0  0  0
  -25.4323  -15.1869   20.3996 N   0  0  0  0  0  0
  -31.8393  -14.5944   20.1131 O   0  0  0  0  0  0
  -21.6637   -6.8887   21.4238 O   0  0  0  0  0  0
  -22.3547  -14.5561   20.6656 O   0  0  0  0  0  0
  -24.6082  -31.8718   23.2140 C   0  0  0  0  0  0
  -25.8998  -32.4843   23.8418 C   0  0  1  0  0  0
  -27.2433  -27.4931   20.0739 C   0  0  0  0  0  0
  -25.5876  -33.8642   24.2350 N   0  0  0  0  0  0
  -23.3937  -30.4941   21.5531 C   0  0  2  0  0  0
  -24.8408  -28.9617   20.1188 C   0  0  0  0  0  0
  -22.7376  -29.4665   22.5019 C   0  0  0  0  0  0
  -18.0264  -28.1365   22.8498 C   0  0  0  0  0  0
  -24.1483  -36.7327   23.2635 C   0  0  0  0  0  0
  -25.9159  -30.8492   21.3619 C   0  0  0  0  0  0
  -25.9943  -29.4839   20.7175 C   0  0  0  0  0  0
  -27.1948  -28.7478   20.7091 C   0  0  0  0  0  0
  -26.0730  -26.9602   19.4913 C   0  0  0  0  0  0
  -24.8701  -27.6925   19.5115 C   0  0  0  0  0  0
  -23.6000  -29.8235   20.1676 C   0  0  0  0  0  0
  -25.4100  -36.3126   24.0343 C   0  0  1  0  0  0
  -20.5847  -28.3641   23.1338 C   0  0  2  0  0  0
  -20.6749  -26.9385   22.5421 C   0  0  0  0  0  0
  -19.5731  -26.6380   21.5210 C   0  0  0  0  0  0
  -18.1910  -26.7915   22.1623 C   0  0  0  0  0  0
  -19.1511  -28.8821   23.2914 C   0  0  0  0  0  0
  -18.9441  -30.1431   23.8920 C   0  0  0  0  0  0
  -17.6444  -30.6576   24.0566 C   0  0  0  0  0  0
  -25.9027  -34.9488   23.5144 C   0  0  0  0  0  0
  -16.5337  -29.9082   23.6318 C   0  0  0  0  0  0
  -16.7254  -28.6496   23.0344 C   0  0  0  0  0  0
  -26.4454  -31.6607   25.0725 C   0  0  0  0  0  0
  -25.3747  -31.3694   26.1495 C   0  0  0  0  0  0
  -27.0268  -30.3057   24.6055 C   0  0  0  0  0  0
  -27.6046  -32.4315   25.7471 C   0  0  0  0  0  0
  -27.5588  -37.1804   24.8456 C   0  0  0  0  0  0
  -21.4110  -29.3019   22.3757 N   0  0  0  0  0  0
  -26.4288  -37.3808   23.9422 N   0  0  0  0  0  0
  -24.6569  -31.0856   22.1020 N   0  0  0  0  0  0
  -23.4172  -28.8210   23.3044 O   0  0  0  0  0  0
  -28.4345  -26.8186   20.0335 O   0  0  0  0  0  0
  -26.5591  -34.8931   22.4705 O   0  0  0  0  0  0
  -23.5290  -32.1447   23.7567 O   0  0  0  0  0  0
  -30.2658  -19.1693   19.3100 C   0  0  0  0  0  0
  -27.8944  -19.4033   19.8046 C   0  0  0  0  0  0
  -30.2350  -20.3672   18.5739 C   0  0  0  0  0  0
  -27.8648  -20.6032   19.0686 C   0  0  0  0  0  0
  -29.0946  -18.6747   19.9291 C   0  0  0  0  0  0
  -29.0305  -21.0989   18.4519 C   0  0  0  0  0  0
  -29.0872  -17.3871   20.6373 C   0  0  0  0  0  0
  -29.7291  -24.4787   17.3729 C   0  0  0  0  0  0
  -29.1954  -24.9774   18.7244 C   0  0  0  0  0  0
  -30.1028  -22.9969   17.4386 C   0  0  0  0  0  0
  -28.8952  -26.4730   18.7323 C   0  0  0  0  0  0
  -30.1407  -16.6536   20.6857 N   0  0  0  0  0  0
  -29.9971  -15.3825   21.1256 N   0  0  0  0  0  0
  -28.9154  -22.2751   17.7498 O   0  0  0  0  0  0
  -31.4625  -12.3526   19.1045 H   0  0  0  0  0  0
  -30.3059  -11.2396   19.7786 H   0  0  0  0  0  0
  -29.7170  -11.7942   17.4013 H   0  0  0  0  0  0
  -29.6650  -13.4956   17.7881 H   0  0  0  0  0  0
  -27.8076  -11.3118   18.7972 H   0  0  0  0  0  0
  -27.3592  -12.6600   17.7876 H   0  0  0  0  0  0
  -27.7251  -14.2474   19.6033 H   0  0  0  0  0  0
  -28.6620  -11.8865   21.3100 H   0  0  0  0  0  0
  -28.4775  -13.5059   21.8972 H   0  0  0  0  0  0
  -25.2760   -9.5697   22.4746 H   0  0  0  0  0  0
  -24.0001   -7.4650   22.7485 H   0  0  0  0  0  0
  -21.0829   -8.8781   19.8957 H   0  0  0  0  0  0
  -22.3687  -10.9681   19.6163 H   0  0  0  0  0  0
  -21.1995   -7.6147   23.9711 H   0  0  0  0  0  0
  -21.1489   -6.0513   25.9071 H   0  0  0  0  0  0
  -22.0598   -2.7615   23.2824 H   0  0  0  0  0  0
  -22.4087  -11.9938   22.4787 H   0  0  0  0  0  0
  -21.1103  -13.1315   22.2577 H   0  0  0  0  0  0
  -24.6583  -15.8372   20.4840 H   0  0  0  0  0  0
  -26.2665  -15.6128   20.0179 H   0  0  0  0  0  0
  -26.7073  -32.5578   23.1194 H   0  0  0  0  0  0
  -25.0026  -33.9814   25.0493 H   0  0  0  0  0  0
  -22.6794  -31.3085   21.4159 H   0  0  0  0  0  0
  -23.3751  -35.9653   23.3282 H   0  0  0  0  0  0
  -24.3589  -36.8954   22.2052 H   0  0  0  0  0  0
  -23.7223  -37.6523   23.6656 H   0  0  0  0  0  0
  -26.0195  -31.6131   20.5900 H   0  0  0  0  0  0
  -26.8073  -30.9080   21.9740 H   0  0  0  0  0  0
  -28.0894  -29.1513   21.1625 H   0  0  0  0  0  0
  -26.0938  -25.9884   19.0186 H   0  0  0  0  0  0
  -23.9812  -27.2810   19.0534 H   0  0  0  0  0  0
  -23.7025  -30.5969   19.4057 H   0  0  0  0  0  0
  -22.7258  -29.2387   19.8758 H   0  0  0  0  0  0
  -25.1268  -36.1995   25.0835 H   0  0  0  0  0  0
  -20.9938  -28.3197   24.1458 H   0  0  0  0  0  0
  -20.5642  -26.2248   23.3601 H   0  0  0  0  0  0
  -21.6623  -26.7424   22.1223 H   0  0  0  0  0  0
  -19.6891  -25.6299   21.1219 H   0  0  0  0  0  0
  -19.6670  -27.3208   20.6754 H   0  0  0  0  0  0
  -17.4180  -26.6670   21.4022 H   0  0  0  0  0  0
  -18.0306  -26.0046   22.9009 H   0  0  0  0  0  0
  -19.7918  -30.7238   24.2301 H   0  0  0  0  0  0
  -17.5001  -31.6257   24.5163 H   0  0  0  0  0  0
  -15.5340  -30.2993   23.7621 H   0  0  0  0  0  0
  -15.8654  -28.0821   22.7046 H   0  0  0  0  0  0
  -24.5911  -30.7045   25.7840 H   0  0  0  0  0  0
  -24.8952  -32.2845   26.4979 H   0  0  0  0  0  0
  -25.8130  -30.8843   27.0225 H   0  0  0  0  0  0
  -26.2781  -29.6829   24.1142 H   0  0  0  0  0  0
  -27.4090  -29.7277   25.4477 H   0  0  0  0  0  0
  -27.8596  -30.4387   23.9145 H   0  0  0  0  0  0
  -27.2681  -33.3608   26.2075 H   0  0  0  0  0  0
  -28.3835  -32.6881   25.0280 H   0  0  0  0  0  0
  -28.0733  -31.8420   26.5360 H   0  0  0  0  0  0
  -28.2582  -38.0126   24.7557 H   0  0  0  0  0  0
  -28.1110  -36.2664   24.6211 H   0  0  0  0  0  0
  -27.2322  -37.1370   25.8861 H   0  0  0  0  0  0
  -20.9262  -29.8758   21.7000 H   0  0  0  0  0  0
  -26.0182  -38.2880   24.1457 H   0  0  0  0  0  0
  -31.1975  -18.6245   19.3731 H   0  0  0  0  0  0
  -26.9835  -19.0376   20.2577 H   0  0  0  0  0  0
  -31.1480  -20.6940   18.0979 H   0  0  0  0  0  0
  -26.9357  -21.1479   18.9762 H   0  0  0  0  0  0
  -28.1504  -17.0479   21.0845 H   0  0  0  0  0  0
  -30.6090  -25.0566   17.0871 H   0  0  0  0  0  0
  -28.9849  -24.6387   16.5919 H   0  0  0  0  0  0
  -29.9215  -24.7573   19.5079 H   0  0  0  0  0  0
  -28.2872  -24.4331   18.9861 H   0  0  0  0  0  0
  -30.8784  -22.8776   18.1969 H   0  0  0  0  0  0
  -30.5089  -22.6554   16.4855 H   0  0  0  0  0  0
  -28.1919  -26.7263   17.9365 H   0  0  0  0  0  0
  -29.8047  -27.0394   18.5286 H   0  0  0  0  0  0
  -29.0859  -15.1442   21.4920 H   0  0  0  0  0  0
  1 25  1  0  0  0
  1 30  2  0  0  0
  1 83  1  0  0  0
  2  3  1  0  0  0
  2 25  1  0  0  0
  2 85  1  0  0  0
  2 86  1  0  0  0
  3  4  1  0  0  0
  3 87  1  0  0  0
  3 88  1  0  0  0
  4  5  1  0  0  0
  4 89  1  0  0  0
  4 90  1  0  0  0
  5  6  1  0  0  0
  5 26  1  0  0  0
  5 91  1  0  0  0
  6 25  1  0  0  0
  6 92  1  0  0  0
  6 93  1  0  0  0
  7  8  2  0  0  0
  7 26  1  0  0  0
  7 29  1  0  0  0
  8  9  1  0  0  0
  8 22  1  0  0  0
  9 10  1  0  0  0
  9 27  2  0  0  0
 10 11  2  0  0  0
 10 15  1  0  0  0
 11 12  1  0  0  0
 11 94  1  0  0  0
 12 13  2  0  0  0
 12 95  1  0  0  0
 13 14  1  0  0  0
 13 31  1  0  0  0
 14 15  2  0  0  0
 14 96  1  0  0  0
 15 97  1  0  0  0
 16 17  2  0  0  0
 16 21  1  0  0  0
 16 31  1  0  0  0
 17 18  1  0  0  0
 17 98  1  0  0  0
 18 19  2  0  0  0
 18 99  1  0  0  0
 19 20  1  0  0  0
 19 24  1  0  0  0
 20 21  2  0  0  0
 20100  1  0  0  0
 21 23  1  0  0  0
 22 28  1  0  0  0
 22 32  2  0  0  0
 26 27  1  0  0  0
 28101  1  0  0  0
 28102  1  0  0  0
 29103  1  0  0  0
 29104  1  0  0  0
 33 34  1  0  0  0
 33 66  1  0  0  0
 33 70  2  0  0  0
 34 36  1  0  0  0
 34 59  1  0  0  0
 34105  1  0  0  0
 35 44  2  0  0  0
 35 45  1  0  0  0
 35 68  1  0  0  0
 36 56  1  0  0  0
 36106  1  0  0  0
 37 39  1  0  0  0
 37 47  1  0  0  0
 37 66  1  0  0  0
 37107  1  0  0  0
 38 43  2  0  0  0
 38 46  1  0  0  0
 38 47  1  0  0  0
 39 64  1  0  0  0
 39 67  2  0  0  0
 40 52  1  0  0  0
 40 53  2  0  0  0
 40 58  1  0  0  0
 41108  1  0  0  0
 41109  1  0  0  0
 41110  1  0  0  0
 41 48  1  0  0  0
 42 43  1  0  0  0
 42 66  1  0  0  0
 42111  1  0  0  0
 42112  1  0  0  0
 43 44  1  0  0  0
 44113  1  0  0  0
 45 46  2  0  0  0
 45114  1  0  0  0
 46115  1  0  0  0
 47116  1  0  0  0
 47117  1  0  0  0
 48 56  1  0  0  0
 48 65  1  0  0  0
 48118  1  0  0  0
 49 50  1  0  0  0
 49 53  1  0  0  0
 49 64  1  0  0  0
 49119  1  0  0  0
 50 51  1  0  0  0
 50120  1  0  0  0
 50121  1  0  0  0
 51 52  1  0  0  0
 51122  1  0  0  0
 51123  1  0  0  0
 52124  1  0  0  0
 52125  1  0  0  0
 53 54  1  0  0  0
 54 55  2  0  0  0
 54126  1  0  0  0
 55 57  1  0  0  0
 55127  1  0  0  0
 56 69  2  0  0  0
 57 58  2  0  0  0
 57128  1  0  0  0
 58129  1  0  0  0
 59 60  1  0  0  0
 59 61  1  0  0  0
 59 62  1  0  0  0
 60130  1  0  0  0
 60131  1  0  0  0
 60132  1  0  0  0
 61133  1  0  0  0
 61134  1  0  0  0
 61135  1  0  0  0
 62136  1  0  0  0
 62137  1  0  0  0
 62138  1  0  0  0
 63 65  1  0  0  0
 63139  1  0  0  0
 63140  1  0  0  0
 63141  1  0  0  0
 64142  1  0  0  0
 65143  1  0  0  0
 68 81  1  0  0  0
 71 73  2  0  0  0
 71 75  1  0  0  0
 71144  1  0  0  0
 72 74  1  0  0  0
 72 75  2  0  0  0
 72145  1  0  0  0
 73 76  1  0  0  0
 73146  1  0  0  0
 74 76  2  0  0  0
 74147  1  0  0  0
 75 77  1  0  0  0
 76 84  1  0  0  0
 77 82  2  0  0  0
 77148  1  0  0  0
 78 79  1  0  0  0
 78 80  1  0  0  0
 78149  1  0  0  0
 78150  1  0  0  0
 79 81  1  0  0  0
 79151  1  0  0  0
 79152  1  0  0  0
 80 84  1  0  0  0
 80153  1  0  0  0
 80154  1  0  0  0
 81155  1  0  0  0
 81156  1  0  0  0
 82 83  1  0  0  0
 83157  1  0  0  0
M  ISO  4   1 100  68 101  81 101  83 100
M  END
> <chiral flag>
0

> <version>
0

> <s_m_source_file>
/data/baiqing/PycharmProjects/Reinvent-master-3.2/result/LINK_invent/BTK/process_docking_weight1_custom_product_contain_oxygen_bond_distance_aromatic_linkinvent_7_9_3/rearranged_h_0004.sdf

> <i_m_source_file_index>
90

> <r_mmod_Potential_Energy-OPLS-2005>
-7.24738597869873

> <r_mmod_Stretch_Energy-OPLS-2005>
30.3947277069092

> <r_mmod_Bend_Energy-OPLS-2005>
89.8549880981445

> <r_mmod_Torsional_Energy-OPLS-2005>
227.241241455078

> <r_mmod_Improper_Torsional_Energy-OPLS-2005>
6.86082983016968

> <r_mmod_Van_der_Waal_Energy-OPLS-2005>
161.735107421875

> <r_mmod_Electrostatic_Energy-OPLS-2005>
-307.157348632812

> <r_mmod_Solvation_Energy-OPLS-2005>
-224.924682617188

> <b_mmod_Minimization_Converged-OPLS-2005>
0

> <r_mmod_RMS_Derivative-OPLS-2005>
0.876927316188812

$$$$
90
                    3D
 Structure written by MMmdl.
157165  0  0  1  0            999 V2000
  -30.7042  -14.4151   20.5460 C   0  0  0  0  0  0
  -30.4181  -12.2571   19.4234 C   0  0  0  0  0  0
  -29.4938  -12.4858   18.2081 C   0  0  0  0  0  0
  -28.0131  -12.3567   18.6182 C   0  0  0  0  0  0
  -27.6638  -13.1956   19.8765 C   0  0  2  0  0  0
  -28.7027  -12.9613   21.0000 C   0  0  0  0  0  0
  -25.2602  -13.8142   20.5670 C   0  0  0  0  0  0
  -24.1838  -13.0430   20.9171 C   0  0  0  0  0  0
  -24.6379  -11.6898   20.8748 C   0  0  0  0  0  0
  -23.9045  -10.4284   21.0401 C   0  0  0  0  0  0
  -24.3599   -9.4203   21.9173 C   0  0  0  0  0  0
  -23.6280   -8.2241   22.0749 C   0  0  0  0  0  0
  -22.4263   -8.0275   21.3546 C   0  0  0  0  0  0
  -21.9897   -9.0246   20.4649 C   0  0  0  0  0  0
  -22.7222  -10.2126   20.3049 C   0  0  0  0  0  0
  -21.6855   -6.0733   22.5278 C   0  0  0  0  0  0
  -21.4016   -6.5637   23.8211 C   0  0  0  0  0  0
  -21.3656   -5.6793   24.9173 C   0  0  0  0  0  0
  -21.6043   -4.3055   24.7228 C   0  0  0  0  0  0
  -21.8819   -3.8146   23.4349 C   0  0  0  0  0  0
  -21.9192   -4.6962   22.3404 C   0  0  0  0  0  0
  -22.7867  -13.5244   21.1837 C   0  0  0  0  0  0
  -22.1661   -4.2147   21.0984 F   0  0  0  0  0  0
  -21.5626   -3.4539   25.7738 F   0  0  0  0  0  0
  -30.0427  -13.2352   20.4531 N   0  0  0  0  0  0
  -26.3027  -12.9291   20.3366 N   0  0  0  0  0  0
  -25.9300  -11.6465   20.5771 N   0  0  0  0  0  0
  -22.0512  -12.8240   22.0401 N   0  0  0  0  0  0
  -25.4340  -15.1863   20.4079 N   0  0  0  0  0  0
  -31.8448  -14.5941   20.1106 O   0  0  0  0  0  0
  -21.6637   -6.8871   21.4238 O   0  0  0  0  0  0
  -22.3557  -14.5550   20.6685 O   0  0  0  0  0  0
  -24.6104  -31.8716   23.2116 C   0  0  0  0  0  0
  -25.9020  -32.4838   23.8406 C   0  0  1  0  0  0
  -27.2353  -27.4778   20.0888 C   0  0  0  0  0  0
  -25.5898  -33.8635   24.2346 N   0  0  0  0  0  0
  -23.3961  -30.4964   21.5500 C   0  0  2  0  0  0
  -24.8425  -28.9683   20.1134 C   0  0  0  0  0  0
  -22.7386  -29.4686   22.4988 C   0  0  0  0  0  0
  -18.0269  -28.1373   22.8486 C   0  0  0  0  0  0
  -24.1490  -36.7320   23.2636 C   0  0  0  0  0  0
  -25.9212  -30.8514   21.3583 C   0  0  0  0  0  0
  -26.0001  -29.4910   20.7023 C   0  0  0  0  0  0
  -27.2017  -28.7539   20.6834 C   0  0  0  0  0  0
  -26.0610  -26.9596   19.4952 C   0  0  0  0  0  0
  -24.8651  -27.6997   19.5080 C   0  0  0  0  0  0
  -23.6021  -29.8290   20.1642 C   0  0  0  0  0  0
  -25.4106  -36.3123   24.0344 C   0  0  1  0  0  0
  -20.5859  -28.3657   23.1317 C   0  0  2  0  0  0
  -20.6766  -26.9403   22.5403 C   0  0  0  0  0  0
  -19.5749  -26.6387   21.5197 C   0  0  0  0  0  0
  -18.1928  -26.7924   22.1611 C   0  0  0  0  0  0
  -19.1519  -28.8827   23.2903 C   0  0  0  0  0  0
  -18.9453  -30.1431   23.8915 C   0  0  0  0  0  0
  -17.6458  -30.6582   24.0565 C   0  0  0  0  0  0
  -25.9025  -34.9486   23.5140 C   0  0  0  0  0  0
  -16.5346  -29.9092   23.6323 C   0  0  0  0  0  0
  -16.7259  -28.6501   23.0351 C   0  0  0  0  0  0
  -26.4460  -31.6603   25.0721 C   0  0  0  0  0  0
  -25.3743  -31.3704   26.1481 C   0  0  0  0  0  0
  -27.0283  -30.3052   24.6069 C   0  0  0  0  0  0
  -27.6050  -32.4307   25.7482 C   0  0  0  0  0  0
  -27.5582  -37.1817   24.8465 C   0  0  0  0  0  0
  -21.4119  -29.3039   22.3730 N   0  0  0  0  0  0
  -26.4298  -37.3803   23.9406 N   0  0  0  0  0  0
  -24.6603  -31.0868   22.0986 N   0  0  0  0  0  0
  -23.4177  -28.8238   23.3022 O   0  0  0  0  0  0
  -28.4101  -26.7670   20.1125 O   0  0  0  0  0  0
  -26.5581  -34.8932   22.4699 O   0  0  0  0  0  0
  -23.5302  -32.1437   23.7535 O   0  0  0  0  0  0
  -29.2167  -19.3265   22.9445 C   0  0  0  0  0  0
  -31.0724  -20.1543   21.5975 C   0  0  0  0  0  0
  -29.2308  -18.1156   22.2222 C   0  0  0  0  0  0
  -31.0875  -18.9475   20.8775 C   0  0  0  0  0  0
  -30.0984  -20.3756   22.5977 C   0  0  0  0  0  0
  -30.1409  -17.9425   21.1585 C   0  0  0  0  0  0
  -29.9419  -21.7311   23.2255 C   0  0  0  0  0  0
  -30.0462  -16.7492   20.2292 C   0  0  0  0  0  0
  -29.5317  -24.7904   21.1009 C   0  0  0  0  0  0
  -29.6437  -24.1000   22.4973 C   0  0  0  0  0  0
  -28.2638  -25.3788   20.4173 C   0  0  0  0  0  0
  -30.1753  -22.7422   22.3823 N   0  0  0  0  0  0
  -29.9235  -15.4484   20.8805 N   0  0  0  0  0  0
  -29.4886  -21.8809   24.3623 O   0  0  0  0  0  0
  -31.4652  -12.3402   19.1262 H   0  0  0  0  0  0
  -30.2988  -11.2436   19.8109 H   0  0  0  0  0  0
  -29.7258  -11.7694   17.4190 H   0  0  0  0  0  0
  -29.6749  -13.4747   17.7839 H   0  0  0  0  0  0
  -27.8182  -11.3017   18.8140 H   0  0  0  0  0  0
  -27.3634  -12.6334   17.7864 H   0  0  0  0  0  0
  -27.7121  -14.2434   19.5798 H   0  0  0  0  0  0
  -28.6581  -11.9280   21.3479 H   0  0  0  0  0  0
  -28.4795  -13.5740   21.8753 H   0  0  0  0  0  0
  -25.2742   -9.5696   22.4746 H   0  0  0  0  0  0
  -24.0001   -7.4641   22.7468 H   0  0  0  0  0  0
  -21.0829   -8.8758   19.8957 H   0  0  0  0  0  0
  -22.3668  -10.9662   19.6164 H   0  0  0  0  0  0
  -21.2009   -7.6147   23.9715 H   0  0  0  0  0  0
  -21.1480   -6.0523   25.9078 H   0  0  0  0  0  0
  -22.0602   -2.7608   23.2848 H   0  0  0  0  0  0
  -22.4121  -11.9896   22.4785 H   0  0  0  0  0  0
  -21.1133  -13.1273   22.2610 H   0  0  0  0  0  0
  -24.6667  -15.8417   20.5104 H   0  0  0  0  0  0
  -26.2866  -15.6249   20.0828 H   0  0  0  0  0  0
  -26.7098  -32.5564   23.1181 H   0  0  0  0  0  0
  -25.0104  -33.9809   25.0530 H   0  0  0  0  0  0
  -22.6832  -31.3120   21.4121 H   0  0  0  0  0  0
  -23.3749  -35.9658   23.3310 H   0  0  0  0  0  0
  -24.3577  -36.8909   22.2046 H   0  0  0  0  0  0
  -23.7243  -37.6535   23.6625 H   0  0  0  0  0  0
  -26.0302  -31.6214   20.5938 H   0  0  0  0  0  0
  -26.8098  -30.9017   21.9761 H   0  0  0  0  0  0
  -28.0972  -29.1527   21.1392 H   0  0  0  0  0  0
  -26.0609  -25.9896   19.0192 H   0  0  0  0  0  0
  -23.9738  -27.2916   19.0512 H   0  0  0  0  0  0
  -23.7044  -30.6029   19.4019 H   0  0  0  0  0  0
  -22.7283  -29.2436   19.8718 H   0  0  0  0  0  0
  -25.1289  -36.1991   25.0838 H   0  0  0  0  0  0
  -20.9947  -28.3207   24.1439 H   0  0  0  0  0  0
  -20.5664  -26.2269   23.3585 H   0  0  0  0  0  0
  -21.6646  -26.7461   22.1209 H   0  0  0  0  0  0
  -19.6922  -25.6303   21.1220 H   0  0  0  0  0  0
  -19.6690  -27.3204   20.6733 H   0  0  0  0  0  0
  -17.4202  -26.6659   21.4012 H   0  0  0  0  0  0
  -18.0336  -26.0065   22.9004 H   0  0  0  0  0  0
  -19.7930  -30.7236   24.2302 H   0  0  0  0  0  0
  -17.5020  -31.6270   24.5162 H   0  0  0  0  0  0
  -15.5351  -30.3012   23.7631 H   0  0  0  0  0  0
  -15.8654  -28.0828   22.7072 H   0  0  0  0  0  0
  -24.5918  -30.7041   25.7829 H   0  0  0  0  0  0
  -24.8929  -32.2860   26.4928 H   0  0  0  0  0  0
  -25.8110  -30.8880   27.0237 H   0  0  0  0  0  0
  -26.2818  -29.6839   24.1103 H   0  0  0  0  0  0
  -27.4053  -29.7252   25.4503 H   0  0  0  0  0  0
  -27.8654  -30.4387   23.9211 H   0  0  0  0  0  0
  -27.2684  -33.3595   26.2102 H   0  0  0  0  0  0
  -28.3849  -32.6882   25.0304 H   0  0  0  0  0  0
  -28.0739  -31.8403   26.5364 H   0  0  0  0  0  0
  -28.2623  -38.0096   24.7518 H   0  0  0  0  0  0
  -28.1067  -36.2637   24.6300 H   0  0  0  0  0  0
  -27.2302  -37.1478   25.8870 H   0  0  0  0  0  0
  -20.9260  -29.8754   21.6959 H   0  0  0  0  0  0
  -26.0194  -38.2890   24.1393 H   0  0  0  0  0  0
  -28.4783  -19.4746   23.7208 H   0  0  0  0  0  0
  -31.7797  -20.9264   21.3296 H   0  0  0  0  0  0
  -28.5012  -17.3503   22.4511 H   0  0  0  0  0  0
  -31.7959  -18.8217   20.0692 H   0  0  0  0  0  0
  -30.8730  -16.7773   19.5160 H   0  0  0  0  0  0
  -29.1520  -16.8876   19.6194 H   0  0  0  0  0  0
  -29.3800  -25.6634   21.7388 H   0  0  0  0  0  0
  -28.9757  -23.8861   20.8476 H   0  0  0  0  0  0
  -28.6672  -24.0775   22.9910 H   0  0  0  0  0  0
  -30.3153  -24.6443   23.1686 H   0  0  0  0  0  0
  -27.3937  -25.2187   21.0636 H   0  0  0  0  0  0
  -28.0442  -24.8791   19.4678 H   0  0  0  0  0  0
  -30.5529  -22.4787   21.4830 H   0  0  0  0  0  0
  -29.0177  -15.2131   21.2548 H   0  0  0  0  0  0
  1 25  1  0  0  0
  1 30  2  0  0  0
  1 83  1  0  0  0
  2  3  1  0  0  0
  2 25  1  0  0  0
  2 85  1  0  0  0
  2 86  1  0  0  0
  3  4  1  0  0  0
  3 87  1  0  0  0
  3 88  1  0  0  0
  4  5  1  0  0  0
  4 89  1  0  0  0
  4 90  1  0  0  0
  5  6  1  0  0  0
  5 26  1  0  0  0
  5 91  1  0  0  0
  6 25  1  0  0  0
  6 92  1  0  0  0
  6 93  1  0  0  0
  7  8  2  0  0  0
  7 26  1  0  0  0
  7 29  1  0  0  0
  8  9  1  0  0  0
  8 22  1  0  0  0
  9 10  1  0  0  0
  9 27  2  0  0  0
 10 11  2  0  0  0
 10 15  1  0  0  0
 11 12  1  0  0  0
 11 94  1  0  0  0
 12 13  2  0  0  0
 12 95  1  0  0  0
 13 14  1  0  0  0
 13 31  1  0  0  0
 14 15  2  0  0  0
 14 96  1  0  0  0
 15 97  1  0  0  0
 16 17  2  0  0  0
 16 21  1  0  0  0
 16 31  1  0  0  0
 17 18  1  0  0  0
 17 98  1  0  0  0
 18 19  2  0  0  0
 18 99  1  0  0  0
 19 20  1  0  0  0
 19 24  1  0  0  0
 20 21  2  0  0  0
 20100  1  0  0  0
 21 23  1  0  0  0
 22 28  1  0  0  0
 22 32  2  0  0  0
 26 27  1  0  0  0
 28101  1  0  0  0
 28102  1  0  0  0
 29103  1  0  0  0
 29104  1  0  0  0
 33 34  1  0  0  0
 33 66  1  0  0  0
 33 70  2  0  0  0
 34 36  1  0  0  0
 34 59  1  0  0  0
 34105  1  0  0  0
 35 44  2  0  0  0
 35 45  1  0  0  0
 35 68  1  0  0  0
 36 56  1  0  0  0
 36106  1  0  0  0
 37 39  1  0  0  0
 37 47  1  0  0  0
 37 66  1  0  0  0
 37107  1  0  0  0
 38 43  2  0  0  0
 38 46  1  0  0  0
 38 47  1  0  0  0
 39 64  1  0  0  0
 39 67  2  0  0  0
 40 52  1  0  0  0
 40 53  2  0  0  0
 40 58  1  0  0  0
 41108  1  0  0  0
 41109  1  0  0  0
 41110  1  0  0  0
 41 48  1  0  0  0
 42 43  1  0  0  0
 42 66  1  0  0  0
 42111  1  0  0  0
 42112  1  0  0  0
 43 44  1  0  0  0
 44113  1  0  0  0
 45 46  2  0  0  0
 45114  1  0  0  0
 46115  1  0  0  0
 47116  1  0  0  0
 47117  1  0  0  0
 48 56  1  0  0  0
 48 65  1  0  0  0
 48118  1  0  0  0
 49 50  1  0  0  0
 49 53  1  0  0  0
 49 64  1  0  0  0
 49119  1  0  0  0
 50 51  1  0  0  0
 50120  1  0  0  0
 50121  1  0  0  0
 51 52  1  0  0  0
 51122  1  0  0  0
 51123  1  0  0  0
 52124  1  0  0  0
 52125  1  0  0  0
 53 54  1  0  0  0
 54 55  2  0  0  0
 54126  1  0  0  0
 55 57  1  0  0  0
 55127  1  0  0  0
 56 69  2  0  0  0
 57 58  2  0  0  0
 57128  1  0  0  0
 58129  1  0  0  0
 59 60  1  0  0  0
 59 61  1  0  0  0
 59 62  1  0  0  0
 60130  1  0  0  0
 60131  1  0  0  0
 60132  1  0  0  0
 61133  1  0  0  0
 61134  1  0  0  0
 61135  1  0  0  0
 62136  1  0  0  0
 62137  1  0  0  0
 62138  1  0  0  0
 63 65  1  0  0  0
 63139  1  0  0  0
 63140  1  0  0  0
 63141  1  0  0  0
 64142  1  0  0  0
 65143  1  0  0  0
 68 81  1  0  0  0
 71 73  2  0  0  0
 71 75  1  0  0  0
 71144  1  0  0  0
 72 74  1  0  0  0
 72 75  2  0  0  0
 72145  1  0  0  0
 73 76  1  0  0  0
 73146  1  0  0  0
 74 76  2  0  0  0
 74147  1  0  0  0
 75 77  1  0  0  0
 76 78  1  0  0  0
 77 82  1  0  0  0
 77 84  2  0  0  0
 78 83  1  0  0  0
 78148  1  0  0  0
 78149  1  0  0  0
 79 80  1  0  0  0
 79 81  1  0  0  0
 79150  1  0  0  0
 79151  1  0  0  0
 80 82  1  0  0  0
 80152  1  0  0  0
 80153  1  0  0  0
 81154  1  0  0  0
 81155  1  0  0  0
 82156  1  0  0  0
 83157  1  0  0  0
M  ISO  4   1 100  68 101  81 101  83 100
M  END
> <chiral flag>
0

> <version>
0

> <s_m_source_file>
/data/baiqing/PycharmProjects/Reinvent-master-3.2/result/LINK_invent/BTK/process_docking_weight1_custom_product_contain_oxygen_bond_distance_aromatic_linkinvent_7_9_3/rearranged_h_0004.sdf

> <i_m_source_file_index>
91

> <r_mmod_Potential_Energy-OPLS-2005>
124.734222412109

> <r_mmod_Stretch_Energy-OPLS-2005>
32.8520812988281

> <r_mmod_Bend_Energy-OPLS-2005>
309.670074462891

> <r_mmod_Torsional_Energy-OPLS-2005>
254.103790283203

> <r_mmod_Improper_Torsional_Energy-OPLS-2005>
11.8010683059692

> <r_mmod_Van_der_Waal_Energy-OPLS-2005>
183.453552246094

> <r_mmod_Electrostatic_Energy-OPLS-2005>
-441.299743652344

> <r_mmod_Solvation_Energy-OPLS-2005>
-236.940963745117

> <b_mmod_Minimization_Converged-OPLS-2005>
0

> <r_mmod_RMS_Derivative-OPLS-2005>
1.39747333526611

$$$$
91
                    3D
 Structure written by MMmdl.
154162  0  0  1  0            999 V2000
  -30.6896  -14.5241   20.4615 C   0  0  0  0  0  0
  -30.4107  -12.3048   19.4464 C   0  0  0  0  0  0
  -29.4970  -12.4872   18.2177 C   0  0  0  0  0  0
  -28.0192  -12.3515   18.6274 C   0  0  0  0  0  0
  -27.6549  -13.2133   19.8688 C   0  0  2  0  0  0
  -28.7011  -13.0559   20.9987 C   0  0  0  0  0  0
  -25.2557  -13.8159   20.5697 C   0  0  0  0  0  0
  -24.1849  -13.0405   20.9178 C   0  0  0  0  0  0
  -24.6400  -11.6877   20.8709 C   0  0  0  0  0  0
  -23.9110  -10.4263   21.0369 C   0  0  0  0  0  0
  -24.3667   -9.4188   21.9158 C   0  0  0  0  0  0
  -23.6336   -8.2237   22.0748 C   0  0  0  0  0  0
  -22.4298   -8.0290   21.3555 C   0  0  0  0  0  0
  -21.9942   -9.0248   20.4636 C   0  0  0  0  0  0
  -22.7269  -10.2128   20.3026 C   0  0  0  0  0  0
  -21.6854   -6.0765   22.5285 C   0  0  0  0  0  0
  -21.4017   -6.5653   23.8217 C   0  0  0  0  0  0
  -21.3662   -5.6801   24.9175 C   0  0  0  0  0  0
  -21.6040   -4.3061   24.7224 C   0  0  0  0  0  0
  -21.8818   -3.8183   23.4335 C   0  0  0  0  0  0
  -21.9196   -4.7005   22.3400 C   0  0  0  0  0  0
  -22.7862  -13.5187   21.1842 C   0  0  0  0  0  0
  -22.1643   -4.2187   21.0973 F   0  0  0  0  0  0
  -21.5643   -3.4527   25.7734 F   0  0  0  0  0  0
  -30.0268  -13.3344   20.4286 N   0  0  0  0  0  0
  -26.3009  -12.9357   20.3368 N   0  0  0  0  0  0
  -25.9332  -11.6500   20.5772 N   0  0  0  0  0  0
  -22.0576  -12.8163   22.0414 N   0  0  0  0  0  0
  -25.4180  -15.1909   20.4087 N   0  0  0  0  0  0
  -31.8746  -14.6200   20.1361 O   0  0  0  0  0  0
  -21.6644   -6.8905   21.4247 O   0  0  0  0  0  0
  -22.3499  -14.5465   20.6687 O   0  0  0  0  0  0
  -24.6098  -31.8696   23.2106 C   0  0  0  0  0  0
  -25.8981  -32.4847   23.8441 C   0  0  1  0  0  0
  -27.2370  -27.4122   20.1334 C   0  0  0  0  0  0
  -25.5852  -33.8650   24.2362 N   0  0  0  0  0  0
  -23.4009  -30.4895   21.5506 C   0  0  2  0  0  0
  -24.8510  -28.9477   20.1178 C   0  0  0  0  0  0
  -22.7369  -29.4678   22.5015 C   0  0  0  0  0  0
  -18.0263  -28.1366   22.8488 C   0  0  0  0  0  0
  -24.1482  -36.7316   23.2653 C   0  0  0  0  0  0
  -25.9280  -30.8318   21.3624 C   0  0  0  0  0  0
  -26.0088  -29.4633   20.7117 C   0  0  0  0  0  0
  -27.2029  -28.7060   20.7081 C   0  0  0  0  0  0
  -26.0630  -26.9134   19.5246 C   0  0  0  0  0  0
  -24.8754  -27.6752   19.5172 C   0  0  0  0  0  0
  -23.6100  -29.8127   20.1678 C   0  0  0  0  0  0
  -25.4097  -36.3127   24.0364 C   0  0  1  0  0  0
  -20.5842  -28.3653   23.1328 C   0  0  2  0  0  0
  -20.6744  -26.9392   22.5408 C   0  0  0  0  0  0
  -19.5739  -26.6370   21.5190 C   0  0  0  0  0  0
  -18.1916  -26.7926   22.1601 C   0  0  0  0  0  0
  -19.1511  -28.8824   23.2910 C   0  0  0  0  0  0
  -18.9438  -30.1440   23.8911 C   0  0  0  0  0  0
  -17.6441  -30.6583   24.0554 C   0  0  0  0  0  0
  -25.9006  -34.9493   23.5148 C   0  0  0  0  0  0
  -16.5333  -29.9067   23.6324 C   0  0  0  0  0  0
  -16.7251  -28.6479   23.0346 C   0  0  0  0  0  0
  -26.4419  -31.6641   25.0773 C   0  0  0  0  0  0
  -25.3740  -31.3716   26.1569 C   0  0  0  0  0  0
  -27.0235  -30.3102   24.6104 C   0  0  0  0  0  0
  -27.5995  -32.4401   25.7510 C   0  0  0  0  0  0
  -27.5579  -37.1815   24.8474 C   0  0  0  0  0  0
  -21.4106  -29.3036   22.3739 N   0  0  0  0  0  0
  -26.4291  -37.3794   23.9418 N   0  0  0  0  0  0
  -24.6645  -31.0779   22.1003 N   0  0  0  0  0  0
  -23.4142  -28.8244   23.3077 O   0  0  0  0  0  0
  -28.4200  -26.6996   20.1958 O   0  0  0  0  0  0
  -26.5565  -34.8938   22.4710 O   0  0  0  0  0  0
  -23.5283  -32.1471   23.7508 O   0  0  0  0  0  0
  -30.0827  -19.2296   19.0166 C   0  0  0  0  0  0
  -28.9154  -18.5990   21.0427 C   0  0  0  0  0  0
  -29.6399  -20.5614   19.1589 C   0  0  0  0  0  0
  -28.4762  -19.9473   21.1948 C   0  0  0  0  0  0
  -29.7158  -18.2203   19.9364 C   0  0  0  0  0  0
  -28.8168  -20.9420   20.2344 C   0  0  0  0  0  0
  -30.2024  -16.7857   19.6272 C   0  0  0  0  0  0
  -27.8054  -24.4599   21.2358 C   0  0  0  0  0  0
  -28.2876  -22.9833   21.4401 C   0  0  0  0  0  0
  -28.4449  -25.2589   20.0625 C   0  0  0  0  0  0
  -29.9168  -15.6369   20.5198 N   0  0  0  0  0  0
  -28.3452  -22.2467   20.2188 O   0  0  0  0  0  0
  -31.4598  -12.3660   19.1501 H   0  0  0  0  0  0
  -30.2755  -11.3070   19.8691 H   0  0  0  0  0  0
  -29.7366  -11.7474   17.4514 H   0  0  0  0  0  0
  -29.6724  -13.4630   17.7654 H   0  0  0  0  0  0
  -27.8359  -11.2986   18.8415 H   0  0  0  0  0  0
  -27.3737  -12.6028   17.7869 H   0  0  0  0  0  0
  -27.6812  -14.2523   19.5426 H   0  0  0  0  0  0
  -28.6889  -12.0447   21.4057 H   0  0  0  0  0  0
  -28.4770  -13.7219   21.8345 H   0  0  0  0  0  0
  -25.2816   -9.5671   22.4714 H   0  0  0  0  0  0
  -24.0077   -7.4620   22.7423 H   0  0  0  0  0  0
  -21.0903   -8.8747   19.8902 H   0  0  0  0  0  0
  -22.3722  -10.9688   19.6141 H   0  0  0  0  0  0
  -21.1989   -7.6152   23.9730 H   0  0  0  0  0  0
  -21.1474   -6.0526   25.9081 H   0  0  0  0  0  0
  -22.0591   -2.7647   23.2819 H   0  0  0  0  0  0
  -22.4300  -11.9873   22.4819 H   0  0  0  0  0  0
  -21.1142  -13.1092   22.2549 H   0  0  0  0  0  0
  -24.6381  -15.8296   20.5153 H   0  0  0  0  0  0
  -26.2530  -15.6467   20.0669 H   0  0  0  0  0  0
  -26.7041  -32.5560   23.1212 H   0  0  0  0  0  0
  -25.0069  -33.9856   25.0548 H   0  0  0  0  0  0
  -22.6914  -31.3070   21.4055 H   0  0  0  0  0  0
  -23.3751  -35.9636   23.3332 H   0  0  0  0  0  0
  -24.3574  -36.8891   22.2055 H   0  0  0  0  0  0
  -23.7209  -37.6525   23.6639 H   0  0  0  0  0  0
  -26.0373  -31.5957   20.5928 H   0  0  0  0  0  0
  -26.8166  -30.8928   21.9783 H   0  0  0  0  0  0
  -28.0966  -29.1024   21.1706 H   0  0  0  0  0  0
  -26.0464  -25.9361   19.0640 H   0  0  0  0  0  0
  -23.9833  -27.2686   19.0638 H   0  0  0  0  0  0
  -23.7177  -30.5870   19.4059 H   0  0  0  0  0  0
  -22.7337  -29.2305   19.8734 H   0  0  0  0  0  0
  -25.1263  -36.2015   25.0850 H   0  0  0  0  0  0
  -20.9946  -28.3199   24.1447 H   0  0  0  0  0  0
  -20.5591  -26.2258   23.3589 H   0  0  0  0  0  0
  -21.6623  -26.7403   22.1238 H   0  0  0  0  0  0
  -19.6892  -25.6266   21.1244 H   0  0  0  0  0  0
  -19.6704  -27.3155   20.6702 H   0  0  0  0  0  0
  -17.4178  -26.6683   21.4001 H   0  0  0  0  0  0
  -18.0330  -26.0055   22.8986 H   0  0  0  0  0  0
  -19.7907  -30.7248   24.2293 H   0  0  0  0  0  0
  -17.4986  -31.6267   24.5140 H   0  0  0  0  0  0
  -15.5333  -30.2957   23.7649 H   0  0  0  0  0  0
  -15.8662  -28.0795   22.7065 H   0  0  0  0  0  0
  -24.5885  -30.7069   25.7947 H   0  0  0  0  0  0
  -24.8966  -32.2840   26.5141 H   0  0  0  0  0  0
  -25.8172  -30.8832   27.0254 H   0  0  0  0  0  0
  -26.2737  -29.6921   24.1132 H   0  0  0  0  0  0
  -27.3975  -29.7290   25.4538 H   0  0  0  0  0  0
  -27.8596  -30.4458   23.9251 H   0  0  0  0  0  0
  -27.2581  -33.3676   26.2126 H   0  0  0  0  0  0
  -28.3746  -32.7021   25.0301 H   0  0  0  0  0  0
  -28.0720  -31.8531   26.5389 H   0  0  0  0  0  0
  -28.2610  -38.0103   24.7490 H   0  0  0  0  0  0
  -28.1067  -36.2626   24.6329 H   0  0  0  0  0  0
  -27.2315  -37.1499   25.8889 H   0  0  0  0  0  0
  -20.9257  -29.8761   21.6981 H   0  0  0  0  0  0
  -26.0204  -38.2883   24.1395 H   0  0  0  0  0  0
  -30.7007  -18.9838   18.1647 H   0  0  0  0  0  0
  -28.6099  -17.8550   21.7650 H   0  0  0  0  0  0
  -29.9236  -21.3005   18.4228 H   0  0  0  0  0  0
  -27.8384  -20.1965   22.0317 H   0  0  0  0  0  0
  -31.2747  -16.8705   19.4316 H   0  0  0  0  0  0
  -29.7664  -16.5194   18.6622 H   0  0  0  0  0  0
  -27.9987  -24.9990   22.1652 H   0  0  0  0  0  0
  -26.7217  -24.4705   21.1233 H   0  0  0  0  0  0
  -27.6106  -22.4867   22.1328 H   0  0  0  0  0  0
  -29.2721  -22.9660   21.9113 H   0  0  0  0  0  0
  -28.0369  -24.9438   19.1023 H   0  0  0  0  0  0
  -29.5009  -24.9925   20.0213 H   0  0  0  0  0  0
  -28.9616  -15.5095   20.8101 H   0  0  0  0  0  0
  1 25  1  0  0  0
  1 30  2  0  0  0
  1 81  1  0  0  0
  2  3  1  0  0  0
  2 25  1  0  0  0
  2 83  1  0  0  0
  2 84  1  0  0  0
  3  4  1  0  0  0
  3 85  1  0  0  0
  3 86  1  0  0  0
  4  5  1  0  0  0
  4 87  1  0  0  0
  4 88  1  0  0  0
  5  6  1  0  0  0
  5 26  1  0  0  0
  5 89  1  0  0  0
  6 25  1  0  0  0
  6 90  1  0  0  0
  6 91  1  0  0  0
  7  8  2  0  0  0
  7 26  1  0  0  0
  7 29  1  0  0  0
  8  9  1  0  0  0
  8 22  1  0  0  0
  9 10  1  0  0  0
  9 27  2  0  0  0
 10 11  2  0  0  0
 10 15  1  0  0  0
 11 12  1  0  0  0
 11 92  1  0  0  0
 12 13  2  0  0  0
 12 93  1  0  0  0
 13 14  1  0  0  0
 13 31  1  0  0  0
 14 15  2  0  0  0
 14 94  1  0  0  0
 15 95  1  0  0  0
 16 17  2  0  0  0
 16 21  1  0  0  0
 16 31  1  0  0  0
 17 18  1  0  0  0
 17 96  1  0  0  0
 18 19  2  0  0  0
 18 97  1  0  0  0
 19 20  1  0  0  0
 19 24  1  0  0  0
 20 21  2  0  0  0
 20 98  1  0  0  0
 21 23  1  0  0  0
 22 28  1  0  0  0
 22 32  2  0  0  0
 26 27  1  0  0  0
 28 99  1  0  0  0
 28100  1  0  0  0
 29101  1  0  0  0
 29102  1  0  0  0
 33 34  1  0  0  0
 33 66  1  0  0  0
 33 70  2  0  0  0
 34 36  1  0  0  0
 34 59  1  0  0  0
 34103  1  0  0  0
 35 44  2  0  0  0
 35 45  1  0  0  0
 35 68  1  0  0  0
 36 56  1  0  0  0
 36104  1  0  0  0
 37 39  1  0  0  0
 37 47  1  0  0  0
 37 66  1  0  0  0
 37105  1  0  0  0
 38 43  2  0  0  0
 38 46  1  0  0  0
 38 47  1  0  0  0
 39 64  1  0  0  0
 39 67  2  0  0  0
 40 52  1  0  0  0
 40 53  2  0  0  0
 40 58  1  0  0  0
 41106  1  0  0  0
 41107  1  0  0  0
 41108  1  0  0  0
 41 48  1  0  0  0
 42 43  1  0  0  0
 42 66  1  0  0  0
 42109  1  0  0  0
 42110  1  0  0  0
 43 44  1  0  0  0
 44111  1  0  0  0
 45 46  2  0  0  0
 45112  1  0  0  0
 46113  1  0  0  0
 47114  1  0  0  0
 47115  1  0  0  0
 48 56  1  0  0  0
 48 65  1  0  0  0
 48116  1  0  0  0
 49 50  1  0  0  0
 49 53  1  0  0  0
 49 64  1  0  0  0
 49117  1  0  0  0
 50 51  1  0  0  0
 50118  1  0  0  0
 50119  1  0  0  0
 51 52  1  0  0  0
 51120  1  0  0  0
 51121  1  0  0  0
 52122  1  0  0  0
 52123  1  0  0  0
 53 54  1  0  0  0
 54 55  2  0  0  0
 54124  1  0  0  0
 55 57  1  0  0  0
 55125  1  0  0  0
 56 69  2  0  0  0
 57 58  2  0  0  0
 57126  1  0  0  0
 58127  1  0  0  0
 59 60  1  0  0  0
 59 61  1  0  0  0
 59 62  1  0  0  0
 60128  1  0  0  0
 60129  1  0  0  0
 60130  1  0  0  0
 61131  1  0  0  0
 61132  1  0  0  0
 61133  1  0  0  0
 62134  1  0  0  0
 62135  1  0  0  0
 62136  1  0  0  0
 63 65  1  0  0  0
 63137  1  0  0  0
 63138  1  0  0  0
 63139  1  0  0  0
 64140  1  0  0  0
 65141  1  0  0  0
 68 80  1  0  0  0
 71 73  2  0  0  0
 71 75  1  0  0  0
 71142  1  0  0  0
 72 74  1  0  0  0
 72 75  2  0  0  0
 72143  1  0  0  0
 73 76  1  0  0  0
 73144  1  0  0  0
 74 76  2  0  0  0
 74145  1  0  0  0
 75 77  1  0  0  0
 76 82  1  0  0  0
 77 81  1  0  0  0
 77146  1  0  0  0
 77147  1  0  0  0
 78 79  1  0  0  0
 78 80  1  0  0  0
 78148  1  0  0  0
 78149  1  0  0  0
 79 82  1  0  0  0
 79150  1  0  0  0
 79151  1  0  0  0
 80152  1  0  0  0
 80153  1  0  0  0
 81154  1  0  0  0
M  ISO  4   1 100  68 101  80 101  81 100
M  END
> <chiral flag>
0

> <version>
0

> <s_m_source_file>
/data/baiqing/PycharmProjects/Reinvent-master-3.2/result/LINK_invent/BTK/process_docking_weight1_custom_product_contain_oxygen_bond_distance_aromatic_linkinvent_7_9_3/rearranged_h_0004.sdf

> <i_m_source_file_index>
92

> <r_mmod_Potential_Energy-OPLS-2005>
-43.8608894348145

> <r_mmod_Stretch_Energy-OPLS-2005>
44.3968620300293

> <r_mmod_Bend_Energy-OPLS-2005>
128.683959960938

> <r_mmod_Torsional_Energy-OPLS-2005>
231.517532348633

> <r_mmod_Improper_Torsional_Energy-OPLS-2005>
11.4373321533203

> <r_mmod_Van_der_Waal_Energy-OPLS-2005>
144.70849609375

> <r_mmod_Electrostatic_Energy-OPLS-2005>
-417.623291015625

> <r_mmod_Solvation_Energy-OPLS-2005>
-211.263778686523

> <b_mmod_Minimization_Converged-OPLS-2005>
0

> <r_mmod_RMS_Derivative-OPLS-2005>
4.2318434715271

$$$$
92
                    3D
 Structure written by MMmdl.
156164  0  0  1  0            999 V2000
  -30.6926  -14.4629   20.5043 C   0  0  0  0  0  0
  -30.4177  -12.2839   19.4010 C   0  0  0  0  0  0
  -29.4877  -12.4930   18.1885 C   0  0  0  0  0  0
  -28.0080  -12.3700   18.6035 C   0  0  0  0  0  0
  -27.6613  -13.2013   19.8689 C   0  0  2  0  0  0
  -28.7128  -12.9855   20.9813 C   0  0  0  0  0  0
  -25.2626  -13.8175   20.5720 C   0  0  0  0  0  0
  -24.1861  -13.0452   20.9203 C   0  0  0  0  0  0
  -24.6388  -11.6913   20.8730 C   0  0  0  0  0  0
  -23.9031  -10.4301   21.0388 C   0  0  0  0  0  0
  -24.3594   -9.4218   21.9168 C   0  0  0  0  0  0
  -23.6282   -8.2238   22.0751 C   0  0  0  0  0  0
  -22.4258   -8.0265   21.3543 C   0  0  0  0  0  0
  -21.9875   -9.0228   20.4637 C   0  0  0  0  0  0
  -22.7200  -10.2118   20.3036 C   0  0  0  0  0  0
  -21.6860   -6.0724   22.5277 C   0  0  0  0  0  0
  -21.4031   -6.5640   23.8208 C   0  0  0  0  0  0
  -21.3661   -5.6791   24.9166 C   0  0  0  0  0  0
  -21.6030   -4.3051   24.7222 C   0  0  0  0  0  0
  -21.8813   -3.8142   23.4345 C   0  0  0  0  0  0
  -21.9201   -4.6953   22.3399 C   0  0  0  0  0  0
  -22.7881  -13.5252   21.1832 C   0  0  0  0  0  0
  -22.1671   -4.2141   21.0973 F   0  0  0  0  0  0
  -21.5597   -3.4531   25.7730 F   0  0  0  0  0  0
  -30.0348  -13.2794   20.4109 N   0  0  0  0  0  0
  -26.3043  -12.9319   20.3377 N   0  0  0  0  0  0
  -25.9318  -11.6485   20.5759 N   0  0  0  0  0  0
  -22.0507  -12.8250   22.0388 N   0  0  0  0  0  0
  -25.4387  -15.1891   20.4121 N   0  0  0  0  0  0
  -31.8627  -14.6166   20.1512 O   0  0  0  0  0  0
  -21.6640   -6.8856   21.4236 O   0  0  0  0  0  0
  -22.3564  -14.5552   20.6684 O   0  0  0  0  0  0
  -24.6131  -31.8671   23.2143 C   0  0  0  0  0  0
  -25.9031  -32.4820   23.8438 C   0  0  1  0  0  0
  -27.2397  -27.4262   20.0724 C   0  0  0  0  0  0
  -25.5899  -33.8623   24.2370 N   0  0  0  0  0  0
  -23.4008  -30.4922   21.5532 C   0  0  2  0  0  0
  -24.8476  -28.9526   20.1174 C   0  0  0  0  0  0
  -22.7397  -29.4660   22.5000 C   0  0  0  0  0  0
  -18.0265  -28.1422   22.8656 C   0  0  0  0  0  0
  -24.1477  -36.7318   23.2647 C   0  0  0  0  0  0
  -25.9308  -30.8222   21.3716 C   0  0  0  0  0  0
  -26.0073  -29.4550   20.7192 C   0  0  0  0  0  0
  -27.1996  -28.6960   20.7006 C   0  0  0  0  0  0
  -26.0590  -26.9402   19.4639 C   0  0  0  0  0  0
  -24.8694  -27.6969   19.4861 C   0  0  0  0  0  0
  -23.6140  -29.8266   20.1658 C   0  0  0  0  0  0
  -25.4101  -36.3118   24.0349 C   0  0  1  0  0  0
  -20.5872  -28.3701   23.1392 C   0  0  2  0  0  0
  -20.6664  -26.9322   22.5799 C   0  0  0  0  0  0
  -19.5739  -26.6418   21.5452 C   0  0  0  0  0  0
  -18.1938  -26.7901   22.1936 C   0  0  0  0  0  0
  -19.1531  -28.8938   23.2929 C   0  0  0  0  0  0
  -18.9480  -30.1612   23.8786 C   0  0  0  0  0  0
  -17.6493  -30.6758   24.0433 C   0  0  0  0  0  0
  -25.9031  -34.9475   23.5160 C   0  0  0  0  0  0
  -16.5375  -29.9227   23.6356 C   0  0  0  0  0  0
  -16.7271  -28.6555   23.0542 C   0  0  0  0  0  0
  -26.4460  -31.6602   25.0760 C   0  0  0  0  0  0
  -25.3735  -31.3668   26.1514 C   0  0  0  0  0  0
  -27.0278  -30.3056   24.6100 C   0  0  0  0  0  0
  -27.6062  -32.4298   25.7503 C   0  0  0  0  0  0
  -27.5575  -37.1812   24.8476 C   0  0  0  0  0  0
  -21.4156  -29.2885   22.3601 N   0  0  0  0  0  0
  -26.4289  -37.3799   23.9416 N   0  0  0  0  0  0
  -24.6664  -31.0756   22.1053 N   0  0  0  0  0  0
  -23.4118  -28.8340   23.3181 O   0  0  0  0  0  0
  -28.4355  -26.7290   20.0771 O   0  0  0  0  0  0
  -26.5578  -34.8891   22.4709 O   0  0  0  0  0  0
  -23.5328  -32.1448   23.7548 O   0  0  0  0  0  0
  -28.2376  -18.0743   20.4961 C   0  0  0  0  0  0
  -29.9818  -18.9040   21.9668 C   0  0  0  0  0  0
  -27.7941  -19.3972   20.2745 C   0  0  0  0  0  0
  -29.5367  -20.2289   21.7493 C   0  0  0  0  0  0
  -29.3140  -17.8108   21.3707 C   0  0  0  0  0  0
  -28.4189  -20.4887   20.9229 C   0  0  0  0  0  0
  -29.7075  -16.3712   21.7139 C   0  0  0  0  0  0
  -27.7950  -21.8920   20.8599 C   0  0  0  0  0  0
  -27.9656  -24.2934   20.3283 C   0  0  0  0  0  0
  -28.5601  -25.4318   19.4607 C   0  0  0  0  0  0
  -29.8938  -15.5376   20.5336 N   0  0  0  0  0  0
  -28.5209  -22.9253   20.0796 N   0  3  0  0  0  0
  -31.4634  -12.3680   19.1016 H   0  0  0  0  0  0
  -30.3038  -11.2741   19.7983 H   0  0  0  0  0  0
  -29.7133  -11.7639   17.4095 H   0  0  0  0  0  0
  -29.6643  -13.4750   17.7455 H   0  0  0  0  0  0
  -27.8021  -11.3158   18.7833 H   0  0  0  0  0  0
  -27.3608  -12.6702   17.7765 H   0  0  0  0  0  0
  -27.6972  -14.2484   19.5722 H   0  0  0  0  0  0
  -28.6876  -11.9551   21.3378 H   0  0  0  0  0  0
  -28.5078  -13.6108   21.8497 H   0  0  0  0  0  0
  -25.2738   -9.5701   22.4750 H   0  0  0  0  0  0
  -23.9992   -7.4637   22.7489 H   0  0  0  0  0  0
  -21.0799   -8.8730   19.8959 H   0  0  0  0  0  0
  -22.3644  -10.9640   19.6136 H   0  0  0  0  0  0
  -21.2046   -7.6155   23.9713 H   0  0  0  0  0  0
  -21.1497   -6.0522   25.9068 H   0  0  0  0  0  0
  -22.0605   -2.7606   23.2845 H   0  0  0  0  0  0
  -22.4125  -11.9897   22.4759 H   0  0  0  0  0  0
  -21.1116  -13.1275   22.2593 H   0  0  0  0  0  0
  -24.6852  -15.8607   20.5145 H   0  0  0  0  0  0
  -26.3036  -15.6105   20.0986 H   0  0  0  0  0  0
  -26.7071  -32.5496   23.1171 H   0  0  0  0  0  0
  -25.0069  -33.9831   25.0526 H   0  0  0  0  0  0
  -22.6885  -31.3092   21.4144 H   0  0  0  0  0  0
  -23.3732  -35.9661   23.3327 H   0  0  0  0  0  0
  -24.3582  -36.8902   22.2058 H   0  0  0  0  0  0
  -23.7199  -37.6517   23.6640 H   0  0  0  0  0  0
  -26.0450  -31.5838   20.6008 H   0  0  0  0  0  0
  -26.8214  -30.8817   21.9838 H   0  0  0  0  0  0
  -28.0950  -29.0795   21.1692 H   0  0  0  0  0  0
  -26.0339  -25.9898   18.9546 H   0  0  0  0  0  0
  -23.9806  -27.3160   19.0011 H   0  0  0  0  0  0
  -23.7435  -30.6072   19.4165 H   0  0  0  0  0  0
  -22.7341  -29.2595   19.8550 H   0  0  0  0  0  0
  -25.1261  -36.2016   25.0840 H   0  0  0  0  0  0
  -20.9970  -28.3424   24.1522 H   0  0  0  0  0  0
  -20.5138  -26.2384   23.4122 H   0  0  0  0  0  0
  -21.6607  -26.7047   22.1974 H   0  0  0  0  0  0
  -19.6658  -27.3342   20.7069 H   0  0  0  0  0  0
  -19.6936  -25.6369   21.1407 H   0  0  0  0  0  0
  -17.4109  -26.6382   21.4516 H   0  0  0  0  0  0
  -18.0536  -26.0214   22.9562 H   0  0  0  0  0  0
  -19.7943  -30.7501   24.2037 H   0  0  0  0  0  0
  -17.5069  -31.6547   24.4856 H   0  0  0  0  0  0
  -15.5386  -30.3194   23.7680 H   0  0  0  0  0  0
  -15.8638  -28.0845   22.7420 H   0  0  0  0  0  0
  -24.5962  -30.6956   25.7837 H   0  0  0  0  0  0
  -24.8872  -32.2791   26.4979 H   0  0  0  0  0  0
  -25.8132  -30.8839   27.0256 H   0  0  0  0  0  0
  -26.2822  -29.6836   24.1128 H   0  0  0  0  0  0
  -27.4022  -29.7274   25.4554 H   0  0  0  0  0  0
  -27.8670  -30.4385   23.9272 H   0  0  0  0  0  0
  -27.2747  -33.3620   26.2090 H   0  0  0  0  0  0
  -28.3870  -32.6805   25.0316 H   0  0  0  0  0  0
  -28.0712  -31.8385   26.5394 H   0  0  0  0  0  0
  -28.2605  -38.0097   24.7512 H   0  0  0  0  0  0
  -28.1056  -36.2628   24.6326 H   0  0  0  0  0  0
  -27.2309  -37.1483   25.8883 H   0  0  0  0  0  0
  -20.9377  -29.8223   21.6465 H   0  0  0  0  0  0
  -26.0193  -38.2889   24.1387 H   0  0  0  0  0  0
  -27.7141  -17.2552   20.0219 H   0  0  0  0  0  0
  -30.8175  -18.7240   22.6292 H   0  0  0  0  0  0
  -26.9278  -19.5549   19.6447 H   0  0  0  0  0  0
  -30.0243  -21.0445   22.2660 H   0  0  0  0  0  0
  -28.9120  -15.9365   22.3233 H   0  0  0  0  0  0
  -30.6083  -16.3616   22.3307 H   0  0  0  0  0  0
  -27.6751  -22.2421   21.8866 H   0  0  0  0  0  0
  -26.7843  -21.8109   20.4537 H   0  0  0  0  0  0
  -26.8855  -24.2670   20.1855 H   0  0  0  0  0  0
  -28.1298  -24.5288   21.3800 H   0  0  0  0  0  0
  -28.1575  -25.4245   18.4466 H   0  0  0  0  0  0
  -29.6303  -25.2652   19.3423 H   0  0  0  0  0  0
  -30.1053  -16.1375   19.7523 H   0  0  0  0  0  0
  -28.4565  -22.6861   19.1020 H   0  0  0  0  0  0
  -29.4989  -22.8958   20.3281 H   0  0  0  0  0  0
  1 25  1  0  0  0
  1 30  2  0  0  0
  1 81  1  0  0  0
  2  3  1  0  0  0
  2 25  1  0  0  0
  2 83  1  0  0  0
  2 84  1  0  0  0
  3  4  1  0  0  0
  3 85  1  0  0  0
  3 86  1  0  0  0
  4  5  1  0  0  0
  4 87  1  0  0  0
  4 88  1  0  0  0
  5  6  1  0  0  0
  5 26  1  0  0  0
  5 89  1  0  0  0
  6 25  1  0  0  0
  6 90  1  0  0  0
  6 91  1  0  0  0
  7  8  2  0  0  0
  7 26  1  0  0  0
  7 29  1  0  0  0
  8  9  1  0  0  0
  8 22  1  0  0  0
  9 10  1  0  0  0
  9 27  2  0  0  0
 10 11  2  0  0  0
 10 15  1  0  0  0
 11 12  1  0  0  0
 11 92  1  0  0  0
 12 13  2  0  0  0
 12 93  1  0  0  0
 13 14  1  0  0  0
 13 31  1  0  0  0
 14 15  2  0  0  0
 14 94  1  0  0  0
 15 95  1  0  0  0
 16 17  2  0  0  0
 16 21  1  0  0  0
 16 31  1  0  0  0
 17 18  1  0  0  0
 17 96  1  0  0  0
 18 19  2  0  0  0
 18 97  1  0  0  0
 19 20  1  0  0  0
 19 24  1  0  0  0
 20 21  2  0  0  0
 20 98  1  0  0  0
 21 23  1  0  0  0
 22 28  1  0  0  0
 22 32  2  0  0  0
 26 27  1  0  0  0
 28 99  1  0  0  0
 28100  1  0  0  0
 29101  1  0  0  0
 29102  1  0  0  0
 33 34  1  0  0  0
 33 66  1  0  0  0
 33 70  2  0  0  0
 34 36  1  0  0  0
 34 59  1  0  0  0
 34103  1  0  0  0
 35 44  2  0  0  0
 35 45  1  0  0  0
 35 68  1  0  0  0
 36 56  1  0  0  0
 36104  1  0  0  0
 37 39  1  0  0  0
 37 47  1  0  0  0
 37 66  1  0  0  0
 37105  1  0  0  0
 38 43  2  0  0  0
 38 46  1  0  0  0
 38 47  1  0  0  0
 39 64  1  0  0  0
 39 67  2  0  0  0
 40 52  1  0  0  0
 40 53  2  0  0  0
 40 58  1  0  0  0
 41106  1  0  0  0
 41107  1  0  0  0
 41108  1  0  0  0
 41 48  1  0  0  0
 42 43  1  0  0  0
 42 66  1  0  0  0
 42109  1  0  0  0
 42110  1  0  0  0
 43 44  1  0  0  0
 44111  1  0  0  0
 45 46  2  0  0  0
 45112  1  0  0  0
 46113  1  0  0  0
 47114  1  0  0  0
 47115  1  0  0  0
 48 56  1  0  0  0
 48 65  1  0  0  0
 48116  1  0  0  0
 49 50  1  0  0  0
 49 53  1  0  0  0
 49 64  1  0  0  0
 49117  1  0  0  0
 50 51  1  0  0  0
 50118  1  0  0  0
 50119  1  0  0  0
 51 52  1  0  0  0
 51120  1  0  0  0
 51121  1  0  0  0
 52122  1  0  0  0
 52123  1  0  0  0
 53 54  1  0  0  0
 54 55  2  0  0  0
 54124  1  0  0  0
 55 57  1  0  0  0
 55125  1  0  0  0
 56 69  2  0  0  0
 57 58  2  0  0  0
 57126  1  0  0  0
 58127  1  0  0  0
 59 60  1  0  0  0
 59 61  1  0  0  0
 59 62  1  0  0  0
 60128  1  0  0  0
 60129  1  0  0  0
 60130  1  0  0  0
 61131  1  0  0  0
 61132  1  0  0  0
 61133  1  0  0  0
 62134  1  0  0  0
 62135  1  0  0  0
 62136  1  0  0  0
 63 65  1  0  0  0
 63137  1  0  0  0
 63138  1  0  0  0
 63139  1  0  0  0
 64140  1  0  0  0
 65141  1  0  0  0
 68 80  1  0  0  0
 71 73  2  0  0  0
 71 75  1  0  0  0
 71142  1  0  0  0
 72 74  1  0  0  0
 72 75  2  0  0  0
 72143  1  0  0  0
 73 76  1  0  0  0
 73144  1  0  0  0
 74 76  2  0  0  0
 74145  1  0  0  0
 75 77  1  0  0  0
 76 78  1  0  0  0
 77 81  1  0  0  0
 77146  1  0  0  0
 77147  1  0  0  0
 78 82  1  0  0  0
 78148  1  0  0  0
 78149  1  0  0  0
 79 80  1  0  0  0
 79 82  1  0  0  0
 79150  1  0  0  0
 79151  1  0  0  0
 80152  1  0  0  0
 80153  1  0  0  0
 81154  1  0  0  0
 82155  1  0  0  0
 82156  1  0  0  0
M  CHG  1  82   1
M  ISO  4   1 100  68 101  80 101  81 100
M  END
> <chiral flag>
0

> <version>
0

> <s_m_source_file>
/data/baiqing/PycharmProjects/Reinvent-master-3.2/result/LINK_invent/BTK/process_docking_weight1_custom_product_contain_oxygen_bond_distance_aromatic_linkinvent_7_9_3/rearranged_h_0004.sdf

> <i_m_source_file_index>
93

> <r_mmod_Potential_Energy-OPLS-2005>
-202.220474243164

> <r_mmod_Stretch_Energy-OPLS-2005>
37.0215187072754

> <r_mmod_Bend_Energy-OPLS-2005>
111.59415435791

> <r_mmod_Torsional_Energy-OPLS-2005>
255.336517333984

> <r_mmod_Improper_Torsional_Energy-OPLS-2005>
20.0457649230957

> <r_mmod_Van_der_Waal_Energy-OPLS-2005>
143.251159667969

> <r_mmod_Electrostatic_Energy-OPLS-2005>
-327.447845458984

> <r_mmod_Solvation_Energy-OPLS-2005>
-458.637969970703

> <b_mmod_Minimization_Converged-OPLS-2005>
0

> <r_mmod_RMS_Derivative-OPLS-2005>
4.54406356811523

$$$$
93
                    3D
 Structure written by MMmdl.
170179  0  0  1  0            999 V2000
  -30.8575  -14.2557   20.7449 C   0  0  0  0  0  0
  -30.3970  -12.2730   19.3676 C   0  0  0  0  0  0
  -29.4616  -12.5314   18.1777 C   0  0  0  0  0  0
  -27.9946  -12.3818   18.6059 C   0  0  0  0  0  0
  -27.6664  -13.2053   19.8776 C   0  0  2  0  0  0
  -28.7097  -12.9733   20.9970 C   0  0  0  0  0  0
  -25.2630  -13.8191   20.5680 C   0  0  0  0  0  0
  -24.1857  -13.0483   20.9164 C   0  0  0  0  0  0
  -24.6392  -11.6937   20.8717 C   0  0  0  0  0  0
  -23.9060  -10.4324   21.0392 C   0  0  0  0  0  0
  -24.3615   -9.4243   21.9178 C   0  0  0  0  0  0
  -23.6300   -8.2269   22.0753 C   0  0  0  0  0  0
  -22.4288   -8.0291   21.3540 C   0  0  0  0  0  0
  -21.9923   -9.0255   20.4640 C   0  0  0  0  0  0
  -22.7234  -10.2142   20.3036 C   0  0  0  0  0  0
  -21.6856   -6.0750   22.5279 C   0  0  0  0  0  0
  -21.4027   -6.5645   23.8212 C   0  0  0  0  0  0
  -21.3650   -5.6804   24.9175 C   0  0  0  0  0  0
  -21.6029   -4.3062   24.7220 C   0  0  0  0  0  0
  -21.8818   -3.8170   23.4344 C   0  0  0  0  0  0
  -21.9197   -4.6984   22.3403 C   0  0  0  0  0  0
  -22.7886  -13.5279   21.1824 C   0  0  0  0  0  0
  -22.1664   -4.2179   21.0976 F   0  0  0  0  0  0
  -21.5617   -3.4550   25.7733 F   0  0  0  0  0  0
  -30.0621  -13.1991   20.4570 N   0  0  0  0  0  0
  -26.3056  -12.9354   20.3404 N   0  0  0  0  0  0
  -25.9322  -11.6516   20.5781 N   0  0  0  0  0  0
  -22.0504  -12.8246   22.0349 N   0  0  0  0  0  0
  -25.4399  -15.1900   20.4063 N   0  0  0  0  0  0
  -31.7236  -14.6873   19.9771 O   0  0  0  0  0  0
  -21.6638   -6.8897   21.4250 O   0  0  0  0  0  0
  -22.3586  -14.5599   20.6687 O   0  0  0  0  0  0
  -24.6029  -31.8721   23.2073 C   0  0  0  0  0  0
  -25.8948  -32.4860   23.8340 C   0  0  1  0  0  0
  -27.2651  -27.4866   20.1077 C   0  0  0  0  0  0
  -25.5795  -33.8649   24.2298 N   0  0  0  0  0  0
  -23.3911  -30.4878   21.5446 C   0  0  2  0  0  0
  -24.8442  -28.9559   20.1139 C   0  0  0  0  0  0
  -22.7363  -29.4647   22.4999 C   0  0  0  0  0  0
  -18.0249  -28.1374   22.8467 C   0  0  0  0  0  0
  -24.1498  -36.7328   23.2660 C   0  0  0  0  0  0
  -25.9074  -30.8578   21.3457 C   0  0  0  0  0  0
  -25.9926  -29.4905   20.7043 C   0  0  0  0  0  0
  -27.2011  -28.7708   20.6961 C   0  0  0  0  0  0
  -26.0971  -26.9586   19.5156 C   0  0  0  0  0  0
  -24.8888  -27.6852   19.5119 C   0  0  0  0  0  0
  -23.5990  -29.8092   20.1614 C   0  0  0  0  0  0
  -25.4125  -36.3159   24.0363 C   0  0  1  0  0  0
  -20.5827  -28.3642   23.1325 C   0  0  2  0  0  0
  -20.6742  -26.9374   22.5439 C   0  0  0  0  0  0
  -19.5743  -26.6383   21.5199 C   0  0  0  0  0  0
  -18.1906  -26.7921   22.1604 C   0  0  0  0  0  0
  -19.1488  -28.8806   23.2917 C   0  0  0  0  0  0
  -18.9439  -30.1386   23.8978 C   0  0  0  0  0  0
  -17.6452  -30.6584   24.0538 C   0  0  0  0  0  0
  -25.9020  -34.9509   23.5168 C   0  0  0  0  0  0
  -16.5343  -29.9109   23.6269 C   0  0  0  0  0  0
  -16.7242  -28.6513   23.0319 C   0  0  0  0  0  0
  -26.4391  -31.6604   25.0631 C   0  0  0  0  0  0
  -25.3651  -31.3732   26.1385 C   0  0  0  0  0  0
  -27.0162  -30.3055   24.5952 C   0  0  0  0  0  0
  -27.5908  -32.4347   25.7452 C   0  0  0  0  0  0
  -27.5622  -37.1832   24.8453 C   0  0  0  0  0  0
  -21.4093  -29.3039   22.3777 N   0  0  0  0  0  0
  -26.4354  -37.3800   23.9379 N   0  0  0  0  0  0
  -24.6528  -31.0852   22.0940 N   0  0  0  0  0  0
  -23.4164  -28.8150   23.2997 O   0  0  0  0  0  0
  -28.4041  -26.7080   20.0697 O   0  0  0  0  0  0
  -26.5615  -34.8957   22.4743 O   0  0  0  0  0  0
  -23.5233  -32.1434   23.7517 O   0  0  0  0  0  0
  -28.3950  -21.0524   23.4750 C   0  0  0  0  0  0
  -31.3062  -23.7561   25.0847 C   0  0  0  0  0  0
  -30.2317  -17.3453   25.4477 C   0  0  0  0  0  0
  -32.0178  -18.6819   24.4658 C   0  0  0  0  0  0
  -30.5181  -16.2983   24.5469 C   0  0  0  0  0  0
  -32.3036  -17.6373   23.5671 C   0  0  0  0  0  0
  -31.0102  -22.5678   25.7808 C   0  0  0  0  0  0
  -29.6896  -23.1468   23.3701 C   0  0  0  0  0  0
  -29.3837  -21.9533   24.0627 C   0  0  0  0  0  0
  -30.6277  -24.0701   23.8862 C   0  0  0  0  0  0
  -30.9975  -18.5302   25.4261 C   0  0  0  0  0  0
  -31.5652  -16.4354   23.6104 C   0  0  0  0  0  0
  -30.0334  -21.6651   25.2958 C   0  0  0  0  0  0
  -30.9181  -25.3583   23.1671 C   0  0  0  0  0  0
  -30.7483  -19.6195   26.4510 C   0  0  0  0  0  0
  -31.9577  -15.2862   22.6966 C   0  0  0  0  0  0
  -29.8460  -27.2994   22.0221 C   0  0  0  0  0  0
  -29.6564  -27.2611   20.4893 C   0  0  0  0  0  0
  -27.6095  -20.3360   23.0103 N   0  0  0  0  0  0
  -29.6891  -20.5405   26.0671 N   0  0  0  0  0  0
  -29.8562  -25.9653   22.6175 N   0  0  0  0  0  0
  -30.8423  -14.6071   22.0343 N   0  0  0  0  0  0
  -32.0511  -25.8439   23.1682 O   0  0  0  0  0  0
  -31.4373  -12.3635   19.0503 H   0  0  0  0  0  0
  -30.2879  -11.2454   19.7186 H   0  0  0  0  0  0
  -29.6833  -11.8382   17.3661 H   0  0  0  0  0  0
  -29.6331  -13.5348   17.7796 H   0  0  0  0  0  0
  -27.7928  -11.3233   18.7763 H   0  0  0  0  0  0
  -27.3385  -12.6824   17.7883 H   0  0  0  0  0  0
  -27.7215  -14.2563   19.5952 H   0  0  0  0  0  0
  -28.6438  -11.9516   21.3756 H   0  0  0  0  0  0
  -28.4797  -13.6290   21.8376 H   0  0  0  0  0  0
  -25.2751   -9.5722   22.4762 H   0  0  0  0  0  0
  -24.0000   -7.4680   22.7477 H   0  0  0  0  0  0
  -21.0856   -8.8774   19.8952 H   0  0  0  0  0  0
  -22.3697  -10.9676   19.6137 H   0  0  0  0  0  0
  -21.2030   -7.6150   23.9732 H   0  0  0  0  0  0
  -21.1462   -6.0524   25.9070 H   0  0  0  0  0  0
  -22.0607   -2.7643   23.2836 H   0  0  0  0  0  0
  -22.4076  -11.9873   22.4708 H   0  0  0  0  0  0
  -21.1148  -13.1325   22.2619 H   0  0  0  0  0  0
  -24.6874  -15.8575   20.5229 H   0  0  0  0  0  0
  -26.3094  -15.6180   20.1126 H   0  0  0  0  0  0
  -26.7020  -32.5609   23.1103 H   0  0  0  0  0  0
  -24.9762  -33.9757   25.0324 H   0  0  0  0  0  0
  -22.6805  -31.3048   21.4001 H   0  0  0  0  0  0
  -23.3797  -35.9624   23.3289 H   0  0  0  0  0  0
  -24.3624  -36.8946   22.2079 H   0  0  0  0  0  0
  -23.7189  -37.6518   23.6653 H   0  0  0  0  0  0
  -26.0006  -31.6214   20.5725 H   0  0  0  0  0  0
  -26.8027  -30.9243   21.9500 H   0  0  0  0  0  0
  -28.0680  -29.2287   21.1453 H   0  0  0  0  0  0
  -26.1315  -25.9854   19.0452 H   0  0  0  0  0  0
  -24.0085  -27.2647   19.0447 H   0  0  0  0  0  0
  -23.6896  -30.5722   19.3871 H   0  0  0  0  0  0
  -22.7315  -29.2102   19.8768 H   0  0  0  0  0  0
  -25.1315  -36.2094   25.0865 H   0  0  0  0  0  0
  -20.9884  -28.3218   24.1460 H   0  0  0  0  0  0
  -20.5578  -26.2270   23.3643 H   0  0  0  0  0  0
  -21.6632  -26.7382   22.1273 H   0  0  0  0  0  0
  -19.6886  -25.6305   21.1216 H   0  0  0  0  0  0
  -19.6694  -27.3194   20.6735 H   0  0  0  0  0  0
  -17.4161  -26.6578   21.4016 H   0  0  0  0  0  0
  -18.0291  -26.0108   22.9049 H   0  0  0  0  0  0
  -19.7921  -30.7140   24.2456 H   0  0  0  0  0  0
  -17.5018  -31.6275   24.5104 H   0  0  0  0  0  0
  -15.5350  -30.3051   23.7565 H   0  0  0  0  0  0
  -15.8617  -28.0884   22.7023 H   0  0  0  0  0  0
  -24.5756  -30.7172   25.7687 H   0  0  0  0  0  0
  -24.8941  -32.2924   26.4862 H   0  0  0  0  0  0
  -25.7971  -30.8830   27.0103 H   0  0  0  0  0  0
  -26.2681  -29.7026   24.0789 H   0  0  0  0  0  0
  -27.3676  -29.7077   25.4371 H   0  0  0  0  0  0
  -27.8627  -30.4366   23.9211 H   0  0  0  0  0  0
  -27.2396  -33.3555   26.2132 H   0  0  0  0  0  0
  -28.3695  -32.7118   25.0324 H   0  0  0  0  0  0
  -28.0596  -31.8431   26.5328 H   0  0  0  0  0  0
  -28.2622  -38.0155   24.7568 H   0  0  0  0  0  0
  -28.1150  -36.2688   24.6228 H   0  0  0  0  0  0
  -27.2328  -37.1417   25.8858 H   0  0  0  0  0  0
  -20.9250  -29.8862   21.7093 H   0  0  0  0  0  0
  -26.0277  -38.2900   24.1385 H   0  0  0  0  0  0
  -32.0431  -24.4394   25.4911 H   0  0  0  0  0  0
  -29.4430  -17.2209   26.1770 H   0  0  0  0  0  0
  -32.6020  -19.5918   24.4335 H   0  0  0  0  0  0
  -29.9513  -15.3802   24.6011 H   0  0  0  0  0  0
  -33.1081  -17.7596   22.8538 H   0  0  0  0  0  0
  -31.5183  -22.3778   26.7151 H   0  0  0  0  0  0
  -29.1893  -23.3534   22.4346 H   0  0  0  0  0  0
  -31.6864  -20.1379   26.6494 H   0  0  0  0  0  0
  -30.4635  -19.1493   27.3929 H   0  0  0  0  0  0
  -32.4762  -14.5427   23.3007 H   0  0  0  0  0  0
  -32.7036  -15.6415   21.9823 H   0  0  0  0  0  0
  -29.0692  -27.8778   22.5172 H   0  0  0  0  0  0
  -30.7751  -27.8242   22.2454 H   0  0  0  0  0  0
  -30.4469  -26.6445   20.0605 H   0  0  0  0  0  0
  -29.8009  -28.2500   20.0520 H   0  0  0  0  0  0
  -28.8400  -20.0618   25.7841 H   0  0  0  0  0  0
  -28.9587  -25.5136   22.7164 H   0  0  0  0  0  0
  -30.1667  -14.1389   22.6187 H   0  0  0  0  0  0
  1 25  1  0  0  0
  1 30  2  0  0  0
  1 92  1  0  0  0
  2  3  1  0  0  0
  2 25  1  0  0  0
  2 94  1  0  0  0
  2 95  1  0  0  0
  3  4  1  0  0  0
  3 96  1  0  0  0
  3 97  1  0  0  0
  4  5  1  0  0  0
  4 98  1  0  0  0
  4 99  1  0  0  0
  5  6  1  0  0  0
  5 26  1  0  0  0
  5100  1  0  0  0
  6 25  1  0  0  0
  6101  1  0  0  0
  6102  1  0  0  0
  7  8  2  0  0  0
  7 26  1  0  0  0
  7 29  1  0  0  0
  8  9  1  0  0  0
  8 22  1  0  0  0
  9 10  1  0  0  0
  9 27  2  0  0  0
 10 11  2  0  0  0
 10 15  1  0  0  0
 11 12  1  0  0  0
 11103  1  0  0  0
 12 13  2  0  0  0
 12104  1  0  0  0
 13 14  1  0  0  0
 13 31  1  0  0  0
 14 15  2  0  0  0
 14105  1  0  0  0
 15106  1  0  0  0
 16 17  2  0  0  0
 16 21  1  0  0  0
 16 31  1  0  0  0
 17 18  1  0  0  0
 17107  1  0  0  0
 18 19  2  0  0  0
 18108  1  0  0  0
 19 20  1  0  0  0
 19 24  1  0  0  0
 20 21  2  0  0  0
 20109  1  0  0  0
 21 23  1  0  0  0
 22 28  1  0  0  0
 22 32  2  0  0  0
 26 27  1  0  0  0
 28110  1  0  0  0
 28111  1  0  0  0
 29112  1  0  0  0
 29113  1  0  0  0
 33 34  1  0  0  0
 33 66  1  0  0  0
 33 70  2  0  0  0
 34 36  1  0  0  0
 34 59  1  0  0  0
 34114  1  0  0  0
 35 44  2  0  0  0
 35 45  1  0  0  0
 35 68  1  0  0  0
 36 56  1  0  0  0
 36115  1  0  0  0
 37 39  1  0  0  0
 37 47  1  0  0  0
 37 66  1  0  0  0
 37116  1  0  0  0
 38 43  2  0  0  0
 38 46  1  0  0  0
 38 47  1  0  0  0
 39 64  1  0  0  0
 39 67  2  0  0  0
 40 52  1  0  0  0
 40 53  2  0  0  0
 40 58  1  0  0  0
 41117  1  0  0  0
 41118  1  0  0  0
 41119  1  0  0  0
 41 48  1  0  0  0
 42 43  1  0  0  0
 42 66  1  0  0  0
 42120  1  0  0  0
 42121  1  0  0  0
 43 44  1  0  0  0
 44122  1  0  0  0
 45 46  2  0  0  0
 45123  1  0  0  0
 46124  1  0  0  0
 47125  1  0  0  0
 47126  1  0  0  0
 48 56  1  0  0  0
 48 65  1  0  0  0
 48127  1  0  0  0
 49 50  1  0  0  0
 49 53  1  0  0  0
 49 64  1  0  0  0
 49128  1  0  0  0
 50 51  1  0  0  0
 50129  1  0  0  0
 50130  1  0  0  0
 51 52  1  0  0  0
 51131  1  0  0  0
 51132  1  0  0  0
 52133  1  0  0  0
 52134  1  0  0  0
 53 54  1  0  0  0
 54 55  2  0  0  0
 54135  1  0  0  0
 55 57  1  0  0  0
 55136  1  0  0  0
 56 69  2  0  0  0
 57 58  2  0  0  0
 57137  1  0  0  0
 58138  1  0  0  0
 59 60  1  0  0  0
 59 61  1  0  0  0
 59 62  1  0  0  0
 60139  1  0  0  0
 60140  1  0  0  0
 60141  1  0  0  0
 61142  1  0  0  0
 61143  1  0  0  0
 61144  1  0  0  0
 62145  1  0  0  0
 62146  1  0  0  0
 62147  1  0  0  0
 63 65  1  0  0  0
 63148  1  0  0  0
 63149  1  0  0  0
 63150  1  0  0  0
 64151  1  0  0  0
 65152  1  0  0  0
 68 88  1  0  0  0
 71 79  1  0  0  0
 71 89  3  0  0  0
 72 77  2  0  0  0
 72 80  1  0  0  0
 72153  1  0  0  0
 73 75  2  0  0  0
 73 81  1  0  0  0
 73154  1  0  0  0
 74 76  1  0  0  0
 74 81  2  0  0  0
 74155  1  0  0  0
 75 82  1  0  0  0
 75156  1  0  0  0
 76 82  2  0  0  0
 76157  1  0  0  0
 77 83  1  0  0  0
 77158  1  0  0  0
 78 79  1  0  0  0
 78 80  2  0  0  0
 78159  1  0  0  0
 79 83  2  0  0  0
 80 84  1  0  0  0
 81 85  1  0  0  0
 82 86  1  0  0  0
 83 90  1  0  0  0
 84 91  1  0  0  0
 84 93  2  0  0  0
 85 90  1  0  0  0
 85160  1  0  0  0
 85161  1  0  0  0
 86 92  1  0  0  0
 86162  1  0  0  0
 86163  1  0  0  0
 87 88  1  0  0  0
 87 91  1  0  0  0
 87164  1  0  0  0
 87165  1  0  0  0
 88166  1  0  0  0
 88167  1  0  0  0
 90168  1  0  0  0
 91169  1  0  0  0
 92170  1  0  0  0
M  ISO  4   1 100  68 101  88 101  92 100
M  END
> <chiral flag>
0

> <version>
0

> <s_m_source_file>
/data/baiqing/PycharmProjects/Reinvent-master-3.2/result/LINK_invent/BTK/process_docking_weight1_custom_product_contain_oxygen_bond_distance_aromatic_linkinvent_7_9_3/rearranged_h_0004.sdf

> <i_m_source_file_index>
94

> <r_mmod_Potential_Energy-OPLS-2005>
-152.441635131836

> <r_mmod_Stretch_Energy-OPLS-2005>
34.9164886474609

> <r_mmod_Bend_Energy-OPLS-2005>
97.2955932617188

> <r_mmod_Torsional_Energy-OPLS-2005>
226.500106811523

> <r_mmod_Improper_Torsional_Energy-OPLS-2005>
12.1546401977539

> <r_mmod_Van_der_Waal_Energy-OPLS-2005>
175.327407836914

> <r_mmod_Electrostatic_Energy-OPLS-2005>
-461.514465332031

> <r_mmod_Solvation_Energy-OPLS-2005>
-246.486968994141

> <b_mmod_Minimization_Converged-OPLS-2005>
0

> <r_mmod_RMS_Derivative-OPLS-2005>
4.09413719177246

$$$$
94
                    3D
 Structure written by MMmdl.
148156  0  0  1  0            999 V2000
  -30.4949  -15.2099   20.3628 C   0  0  0  0  0  0
  -30.4277  -12.7617   19.5438 C   0  0  0  0  0  0
  -29.5352  -12.5680   18.2932 C   0  0  0  0  0  0
  -28.0784  -12.3060   18.7088 C   0  0  0  0  0  0
  -27.6091  -13.2812   19.8174 C   0  0  2  0  0  0
  -28.6362  -13.4565   20.9545 C   0  0  0  0  0  0
  -25.2384  -13.8275   20.5743 C   0  0  0  0  0  0
  -24.1738  -13.0453   20.9241 C   0  0  0  0  0  0
  -24.6397  -11.6950   20.8744 C   0  0  0  0  0  0
  -23.9096  -10.4303   21.0396 C   0  0  0  0  0  0
  -24.3641   -9.4217   21.9177 C   0  0  0  0  0  0
  -23.6309   -8.2254   22.0751 C   0  0  0  0  0  0
  -22.4290   -8.0289   21.3544 C   0  0  0  0  0  0
  -21.9930   -9.0262   20.4644 C   0  0  0  0  0  0
  -22.7264  -10.2138   20.3049 C   0  0  0  0  0  0
  -21.6860   -6.0741   22.5279 C   0  0  0  0  0  0
  -21.4020   -6.5643   23.8212 C   0  0  0  0  0  0
  -21.3661   -5.6794   24.9173 C   0  0  0  0  0  0
  -21.6044   -4.3057   24.7223 C   0  0  0  0  0  0
  -21.8819   -3.8149   23.4344 C   0  0  0  0  0  0
  -21.9195   -4.6967   22.3401 C   0  0  0  0  0  0
  -22.7756  -13.5198   21.1899 C   0  0  0  0  0  0
  -22.1662   -4.2152   21.0979 F   0  0  0  0  0  0
  -21.5627   -3.4540   25.7736 F   0  0  0  0  0  0
  -29.8907  -13.9227   20.3461 N   0  0  0  0  0  0
  -26.2803  -12.9558   20.3182 N   0  0  0  0  0  0
  -25.9333  -11.6656   20.5692 N   0  0  0  0  0  0
  -22.0424  -12.8172   22.0455 N   0  0  0  0  0  0
  -25.4049  -15.2011   20.4233 N   0  0  0  0  0  0
  -31.7130  -15.1466   20.1430 O   0  0  0  0  0  0
  -21.6650   -6.8887   21.4242 O   0  0  0  0  0  0
  -22.3427  -14.5497   20.6744 O   0  0  0  0  0  0
  -24.6610  -31.8272   23.1752 C   0  0  0  0  0  0
  -25.9303  -32.4607   23.8201 C   0  0  1  0  0  0
  -27.2088  -26.9526   20.1756 C   0  0  0  0  0  0
  -25.5980  -33.8421   24.2101 N   0  0  0  0  0  0
  -23.4740  -30.4427   21.5242 C   0  0  2  0  0  0
  -24.9266  -28.8423   20.1103 C   0  0  0  0  0  0
  -22.7658  -29.4462   22.4791 C   0  0  0  0  0  0
  -18.0322  -28.1406   22.8467 C   0  0  0  0  0  0
  -24.1495  -36.7216   23.2647 C   0  0  0  0  0  0
  -26.0436  -30.6412   21.4045 C   0  0  0  0  0  0
  -26.1110  -29.2354   20.7462 C   0  0  0  0  0  0
  -27.2485  -28.3106   20.7590 C   0  0  0  0  0  0
  -25.9984  -26.7186   19.4807 C   0  0  0  0  0  0
  -24.8949  -27.6033   19.4573 C   0  0  0  0  0  0
  -23.7123  -29.7664   20.1478 C   0  0  0  0  0  0
  -25.4135  -36.2979   24.0301 C   0  0  1  0  0  0
  -20.5946  -28.3751   23.1189 C   0  0  2  0  0  0
  -20.6800  -26.9434   22.5399 C   0  0  0  0  0  0
  -19.5772  -26.6377   21.5212 C   0  0  0  0  0  0
  -18.1955  -26.7939   22.1622 C   0  0  0  0  0  0
  -19.1583  -28.8899   23.2815 C   0  0  0  0  0  0
  -18.9493  -30.1489   23.8850 C   0  0  0  0  0  0
  -17.6486  -30.6596   24.0554 C   0  0  0  0  0  0
  -25.9097  -34.9359   23.5019 C   0  0  0  0  0  0
  -16.5377  -29.9083   23.6343 C   0  0  0  0  0  0
  -16.7304  -28.6504   23.0361 C   0  0  0  0  0  0
  -26.4559  -31.6541   25.0719 C   0  0  0  0  0  0
  -25.3688  -31.3785   26.1375 C   0  0  0  0  0  0
  -27.0457  -30.2909   24.6446 C   0  0  0  0  0  0
  -27.6051  -32.4350   25.7520 C   0  0  0  0  0  0
  -27.5570  -37.1770   24.8468 C   0  0  0  0  0  0
  -21.4330  -29.3048   22.3541 N   0  0  0  0  0  0
  -26.4285  -37.3709   23.9402 N   0  0  0  0  0  0
  -24.7473  -30.9962   22.0880 N   0  0  0  0  0  0
  -23.4218  -28.8020   23.3014 O   0  0  0  0  0  0
  -28.1782  -25.8241   20.2650 O   0  0  0  0  0  0
  -26.5703  -34.8886   22.4612 O   0  0  0  0  0  0
  -23.5684  -32.1233   23.6858 O   0  0  0  0  0  0
  -29.5536  -17.9890   20.4133 C   0  0  0  0  0  0
  -29.8518  -16.7252   20.4344 C   0  0  0  0  0  0
  -29.1329  -19.5504   20.3205 C   0  0  0  0  0  0
  -27.9351  -20.0580   19.8289 C   0  0  0  0  0  0
  -27.5567  -21.5512   19.7576 C   0  0  0  0  0  0
  -28.3259  -22.6369   20.1459 C   0  0  0  0  0  0
  -30.0084  -20.7305   20.7643 C   0  0  0  0  0  0
  -26.8786  -19.0827   19.3103 C   0  0  0  0  0  0
  -27.7395  -24.2806   19.9815 C   0  0  0  0  0  0
  -29.5772  -22.0923   20.6518 N   0  0  0  0  0  0
  -31.1299  -20.5372   21.2380 O   0  0  0  0  0  0
  -26.3441  -21.8323   19.2658 O   0  0  0  0  0  0
  -31.4584  -12.9212   19.2254 H   0  0  0  0  0  0
  -30.4508  -11.8521   20.1465 H   0  0  0  0  0  0
  -29.9066  -11.7438   17.6830 H   0  0  0  0  0  0
  -29.5848  -13.4615   17.6691 H   0  0  0  0  0  0
  -28.0211  -11.2800   19.0742 H   0  0  0  0  0  0
  -27.4167  -12.3603   17.8436 H   0  0  0  0  0  0
  -27.5273  -14.2495   19.3221 H   0  0  0  0  0  0
  -28.7775  -12.5288   21.5110 H   0  0  0  0  0  0
  -28.2820  -14.1986   21.6716 H   0  0  0  0  0  0
  -25.2783   -9.5695   22.4756 H   0  0  0  0  0  0
  -24.0016   -7.4648   22.7475 H   0  0  0  0  0  0
  -21.0860   -8.8784   19.8952 H   0  0  0  0  0  0
  -22.3718  -10.9677   19.6160 H   0  0  0  0  0  0
  -21.2015   -7.6151   23.9717 H   0  0  0  0  0  0
  -21.1483   -6.0524   25.9076 H   0  0  0  0  0  0
  -22.0596   -2.7611   23.2843 H   0  0  0  0  0  0
  -22.4065  -11.9845   22.4843 H   0  0  0  0  0  0
  -21.1033  -13.1171   22.2664 H   0  0  0  0  0  0
  -24.6414  -15.8561   20.5512 H   0  0  0  0  0  0
  -26.2629  -15.6459   20.1234 H   0  0  0  0  0  0
  -26.7372  -32.5152   23.0917 H   0  0  0  0  0  0
  -25.0075  -33.9508   25.0216 H   0  0  0  0  0  0
  -22.7858  -31.2743   21.3584 H   0  0  0  0  0  0
  -23.3766  -35.9538   23.3286 H   0  0  0  0  0  0
  -24.3570  -36.8884   22.2065 H   0  0  0  0  0  0
  -23.7247  -37.6397   23.6715 H   0  0  0  0  0  0
  -26.2237  -31.3852   20.6274 H   0  0  0  0  0  0
  -26.9039  -30.6944   22.0597 H   0  0  0  0  0  0
  -28.1405  -28.6057   21.2934 H   0  0  0  0  0  0
  -25.8509  -25.7802   18.9694 H   0  0  0  0  0  0
  -23.9969  -27.2984   18.9376 H   0  0  0  0  0  0
  -23.8662  -30.5386   19.3932 H   0  0  0  0  0  0
  -22.8224  -29.2210   19.8287 H   0  0  0  0  0  0
  -25.1334  -36.1782   25.0794 H   0  0  0  0  0  0
  -21.0035  -28.3355   24.1312 H   0  0  0  0  0  0
  -20.5682  -26.2370   23.3638 H   0  0  0  0  0  0
  -21.6663  -26.7412   22.1204 H   0  0  0  0  0  0
  -19.6932  -25.6276   21.1272 H   0  0  0  0  0  0
  -19.6709  -27.3161   20.6721 H   0  0  0  0  0  0
  -17.4223  -26.6679   21.4028 H   0  0  0  0  0  0
  -18.0353  -26.0093   22.9031 H   0  0  0  0  0  0
  -19.7968  -30.7318   24.2198 H   0  0  0  0  0  0
  -17.5037  -31.6270   24.5166 H   0  0  0  0  0  0
  -15.5375  -30.2969   23.7694 H   0  0  0  0  0  0
  -15.8705  -28.0806   22.7102 H   0  0  0  0  0  0
  -24.5888  -30.7114   25.7685 H   0  0  0  0  0  0
  -24.8856  -32.2983   26.4679 H   0  0  0  0  0  0
  -25.7923  -30.9034   27.0233 H   0  0  0  0  0  0
  -26.3126  -29.6586   24.1427 H   0  0  0  0  0  0
  -27.3963  -29.7272   25.5102 H   0  0  0  0  0  0
  -27.9078  -30.4093   23.9879 H   0  0  0  0  0  0
  -27.2617  -33.3689   26.1980 H   0  0  0  0  0  0
  -28.3923  -32.6849   25.0394 H   0  0  0  0  0  0
  -28.0653  -31.8557   26.5535 H   0  0  0  0  0  0
  -28.2581  -38.0070   24.7496 H   0  0  0  0  0  0
  -28.1071  -36.2595   24.6323 H   0  0  0  0  0  0
  -27.2280  -37.1445   25.8870 H   0  0  0  0  0  0
  -20.9578  -29.8746   21.6680 H   0  0  0  0  0  0
  -26.0136  -38.2772   24.1394 H   0  0  0  0  0  0
  -27.2405  -18.0644   19.1805 H   0  0  0  0  0  0
  -26.5110  -19.3972   18.3330 H   0  0  0  0  0  0
  -26.0341  -19.0442   19.9993 H   0  0  0  0  0  0
  -26.7781  -24.2176   20.4922 H   0  0  0  0  0  0
  -27.4931  -24.3060   18.9201 H   0  0  0  0  0  0
  -30.2413  -22.7818   20.9743 H   0  0  0  0  0  0
  -25.9311  -21.0036   19.0563 H   0  0  0  0  0  0
  1 25  1  0  0  0
  1 30  2  0  0  0
  1 72  1  0  0  0
  2  3  1  0  0  0
  2 25  1  0  0  0
  2 83  1  0  0  0
  2 84  1  0  0  0
  3  4  1  0  0  0
  3 85  1  0  0  0
  3 86  1  0  0  0
  4  5  1  0  0  0
  4 87  1  0  0  0
  4 88  1  0  0  0
  5  6  1  0  0  0
  5 26  1  0  0  0
  5 89  1  0  0  0
  6 25  1  0  0  0
  6 90  1  0  0  0
  6 91  1  0  0  0
  7  8  2  0  0  0
  7 26  1  0  0  0
  7 29  1  0  0  0
  8  9  1  0  0  0
  8 22  1  0  0  0
  9 10  1  0  0  0
  9 27  2  0  0  0
 10 11  2  0  0  0
 10 15  1  0  0  0
 11 12  1  0  0  0
 11 92  1  0  0  0
 12 13  2  0  0  0
 12 93  1  0  0  0
 13 14  1  0  0  0
 13 31  1  0  0  0
 14 15  2  0  0  0
 14 94  1  0  0  0
 15 95  1  0  0  0
 16 17  2  0  0  0
 16 21  1  0  0  0
 16 31  1  0  0  0
 17 18  1  0  0  0
 17 96  1  0  0  0
 18 19  2  0  0  0
 18 97  1  0  0  0
 19 20  1  0  0  0
 19 24  1  0  0  0
 20 21  2  0  0  0
 20 98  1  0  0  0
 21 23  1  0  0  0
 22 28  1  0  0  0
 22 32  2  0  0  0
 26 27  1  0  0  0
 28 99  1  0  0  0
 28100  1  0  0  0
 29101  1  0  0  0
 29102  1  0  0  0
 33 34  1  0  0  0
 33 66  1  0  0  0
 33 70  2  0  0  0
 34 36  1  0  0  0
 34 59  1  0  0  0
 34103  1  0  0  0
 35 44  2  0  0  0
 35 45  1  0  0  0
 35 68  1  0  0  0
 36 56  1  0  0  0
 36104  1  0  0  0
 37 39  1  0  0  0
 37 47  1  0  0  0
 37 66  1  0  0  0
 37105  1  0  0  0
 38 43  2  0  0  0
 38 46  1  0  0  0
 38 47  1  0  0  0
 39 64  1  0  0  0
 39 67  2  0  0  0
 40 52  1  0  0  0
 40 53  2  0  0  0
 40 58  1  0  0  0
 41106  1  0  0  0
 41107  1  0  0  0
 41108  1  0  0  0
 41 48  1  0  0  0
 42 43  1  0  0  0
 42 66  1  0  0  0
 42109  1  0  0  0
 42110  1  0  0  0
 43 44  1  0  0  0
 44111  1  0  0  0
 45 46  2  0  0  0
 45112  1  0  0  0
 46113  1  0  0  0
 47114  1  0  0  0
 47115  1  0  0  0
 48 56  1  0  0  0
 48 65  1  0  0  0
 48116  1  0  0  0
 49 50  1  0  0  0
 49 53  1  0  0  0
 49 64  1  0  0  0
 49117  1  0  0  0
 50 51  1  0  0  0
 50118  1  0  0  0
 50119  1  0  0  0
 51 52  1  0  0  0
 51120  1  0  0  0
 51121  1  0  0  0
 52122  1  0  0  0
 52123  1  0  0  0
 53 54  1  0  0  0
 54 55  2  0  0  0
 54124  1  0  0  0
 55 57  1  0  0  0
 55125  1  0  0  0
 56 69  2  0  0  0
 57 58  2  0  0  0
 57126  1  0  0  0
 58127  1  0  0  0
 59 60  1  0  0  0
 59 61  1  0  0  0
 59 62  1  0  0  0
 60128  1  0  0  0
 60129  1  0  0  0
 60130  1  0  0  0
 61131  1  0  0  0
 61132  1  0  0  0
 61133  1  0  0  0
 62134  1  0  0  0
 62135  1  0  0  0
 62136  1  0  0  0
 63 65  1  0  0  0
 63137  1  0  0  0
 63138  1  0  0  0
 63139  1  0  0  0
 64140  1  0  0  0
 65141  1  0  0  0
 68 79  1  0  0  0
 71 72  3  0  0  0
 71 73  1  0  0  0
 73 74  2  0  0  0
 73 77  1  0  0  0
 74 75  1  0  0  0
 74 78  1  0  0  0
 75 76  2  0  0  0
 75 82  1  0  0  0
 76 79  1  0  0  0
 76 80  1  0  0  0
 77 80  1  0  0  0
 77 81  2  0  0  0
 78142  1  0  0  0
 78143  1  0  0  0
 78144  1  0  0  0
 79145  1  0  0  0
 79146  1  0  0  0
 80147  1  0  0  0
 82148  1  0  0  0
M  ISO  4   1 100  68 101  72 100  79 101
M  END
> <chiral flag>
0

> <version>
0

> <s_m_source_file>
/data/baiqing/PycharmProjects/Reinvent-master-3.2/result/LINK_invent/BTK/process_docking_weight1_custom_product_contain_oxygen_bond_distance_aromatic_linkinvent_7_9_3/rearranged_h_0004.sdf

> <i_m_source_file_index>
95

> <r_mmod_Potential_Energy-OPLS-2005>
1018.37628173828

> <r_mmod_Stretch_Energy-OPLS-2005>
471.784881591797

> <r_mmod_Bend_Energy-OPLS-2005>
403.595672607422

> <r_mmod_Torsional_Energy-OPLS-2005>
171.951400756836

> <r_mmod_Improper_Torsional_Energy-OPLS-2005>
3.50637817382812

> <r_mmod_Van_der_Waal_Energy-OPLS-2005>
145.556076049805

> <r_mmod_Electrostatic_Energy-OPLS-2005>
-366.908355712891

> <r_mmod_Solvation_Energy-OPLS-2005>
-224.75617980957

> <b_mmod_Minimization_Converged-OPLS-2005>
0

> <r_mmod_RMS_Derivative-OPLS-2005>
0.117743998765945

$$$$
95
                    3D
 Structure written by MMmdl.
167176  0  0  1  0            999 V2000
  -30.7579  -14.3806   20.6678 C   0  0  0  0  0  0
  -30.4181  -12.2887   19.4011 C   0  0  0  0  0  0
  -29.4858  -12.5078   18.1954 C   0  0  0  0  0  0
  -28.0114  -12.3482   18.6116 C   0  0  0  0  0  0
  -27.6603  -13.1854   19.8676 C   0  0  2  0  0  0
  -28.6989  -12.9534   20.9886 C   0  0  0  0  0  0
  -25.2623  -13.8112   20.5664 C   0  0  0  0  0  0
  -24.1858  -13.0420   20.9166 C   0  0  0  0  0  0
  -24.6375  -11.6876   20.8738 C   0  0  0  0  0  0
  -23.9023  -10.4283   21.0409 C   0  0  0  0  0  0
  -24.3588   -9.4202   21.9184 C   0  0  0  0  0  0
  -23.6278   -8.2231   22.0754 C   0  0  0  0  0  0
  -22.4259   -8.0265   21.3542 C   0  0  0  0  0  0
  -21.9882   -9.0235   20.4645 C   0  0  0  0  0  0
  -22.7196  -10.2121   20.3055 C   0  0  0  0  0  0
  -21.6849   -6.0723   22.5281 C   0  0  0  0  0  0
  -21.4012   -6.5632   23.8214 C   0  0  0  0  0  0
  -21.3666   -5.6785   24.9176 C   0  0  0  0  0  0
  -21.6049   -4.3048   24.7223 C   0  0  0  0  0  0
  -21.8821   -3.8135   23.4346 C   0  0  0  0  0  0
  -21.9193   -4.6951   22.3401 C   0  0  0  0  0  0
  -22.7882  -13.5245   21.1824 C   0  0  0  0  0  0
  -22.1654   -4.2138   21.0976 F   0  0  0  0  0  0
  -21.5634   -3.4533   25.7739 F   0  0  0  0  0  0
  -30.0412  -13.2456   20.4507 N   0  0  0  0  0  0
  -26.3018  -12.9231   20.3317 N   0  0  0  0  0  0
  -25.9291  -11.6415   20.5748 N   0  0  0  0  0  0
  -22.0509  -12.8270   22.0392 N   0  0  0  0  0  0
  -25.4381  -15.1831   20.4090 N   0  0  0  0  0  0
  -31.8197  -14.6333   20.0864 O   0  0  0  0  0  0
  -21.6629   -6.8860   21.4241 O   0  0  0  0  0  0
  -22.3570  -14.5545   20.6656 O   0  0  0  0  0  0
  -24.6097  -31.8716   23.2125 C   0  0  0  0  0  0
  -25.9010  -32.4842   23.8409 C   0  0  1  0  0  0
  -27.2412  -27.4710   20.0801 C   0  0  0  0  0  0
  -25.5886  -33.8641   24.2343 N   0  0  0  0  0  0
  -23.3950  -30.4946   21.5531 C   0  0  2  0  0  0
  -24.8396  -28.9606   20.1192 C   0  0  0  0  0  0
  -22.7378  -29.4676   22.5020 C   0  0  0  0  0  0
  -18.0266  -28.1376   22.8496 C   0  0  0  0  0  0
  -24.1488  -36.7316   23.2639 C   0  0  0  0  0  0
  -25.9196  -30.8468   21.3595 C   0  0  0  0  0  0
  -25.9961  -29.4826   20.7084 C   0  0  0  0  0  0
  -27.1960  -28.7440   20.6859 C   0  0  0  0  0  0
  -26.0601  -26.9448   19.5063 C   0  0  0  0  0  0
  -24.8637  -27.6882   19.5209 C   0  0  0  0  0  0
  -23.6004  -29.8247   20.1678 C   0  0  0  0  0  0
  -25.4109  -36.3125   24.0344 C   0  0  1  0  0  0
  -20.5850  -28.3655   23.1338 C   0  0  2  0  0  0
  -20.6757  -26.9399   22.5426 C   0  0  0  0  0  0
  -19.5739  -26.6390   21.5216 C   0  0  0  0  0  0
  -18.1915  -26.7925   22.1623 C   0  0  0  0  0  0
  -19.1513  -28.8830   23.2916 C   0  0  0  0  0  0
  -18.9444  -30.1438   23.8925 C   0  0  0  0  0  0
  -17.6448  -30.6584   24.0568 C   0  0  0  0  0  0
  -25.9031  -34.9491   23.5139 C   0  0  0  0  0  0
  -16.5338  -29.9091   23.6323 C   0  0  0  0  0  0
  -16.7257  -28.6506   23.0345 C   0  0  0  0  0  0
  -26.4454  -31.6610   25.0724 C   0  0  0  0  0  0
  -25.3733  -31.3699   26.1482 C   0  0  0  0  0  0
  -27.0271  -30.3062   24.6064 C   0  0  0  0  0  0
  -27.6045  -32.4319   25.7472 C   0  0  0  0  0  0
  -27.5582  -37.1813   24.8468 C   0  0  0  0  0  0
  -21.4113  -29.3029   22.3753 N   0  0  0  0  0  0
  -26.4298  -37.3804   23.9410 N   0  0  0  0  0  0
  -24.6597  -31.0846   22.1004 N   0  0  0  0  0  0
  -23.4172  -28.8221   23.3048 O   0  0  0  0  0  0
  -28.4567  -26.8262   20.0664 O   0  0  0  0  0  0
  -26.5594  -34.8931   22.4701 O   0  0  0  0  0  0
  -23.5305  -32.1450   23.7551 O   0  0  0  0  0  0
  -29.6871  -21.2409   24.4177 C   0  0  0  0  0  0
  -29.6037  -21.8997   23.1754 C   0  0  0  0  0  0
  -29.6753  -19.8339   24.4748 C   0  0  0  0  0  0
  -29.4884  -19.7439   22.0487 C   0  0  0  0  0  0
  -29.5095  -21.1523   21.9802 C   0  0  0  0  0  0
  -29.5705  -19.0738   23.2910 C   0  0  0  0  0  0
  -29.4013  -21.8331   20.6475 C   0  0  0  0  0  0
  -28.6083  -16.8995   22.3356 C   0  0  0  0  0  0
  -30.9938  -16.9833   23.2542 C   0  0  0  0  0  0
  -29.3736  -16.2943   21.1481 C   0  0  0  0  0  0
  -31.0399  -15.4997   22.8245 C   0  0  0  0  0  0
  -29.5607  -17.5487   23.3647 C   0  0  0  0  0  0
  -30.0434  -25.1595   19.5185 C   0  0  0  0  0  0
  -30.3565  -23.6780   19.2669 C   0  0  0  0  0  0
  -28.5449  -25.4805   19.6213 C   0  0  0  0  0  0
  -30.2607  -15.2152   21.6037 N   0  0  0  0  0  0
  -30.1996  -22.8923   20.4869 N   0  0  0  0  0  0
  -28.6673  -21.3912   19.7606 O   0  0  0  0  0  0
  -31.4624  -12.3882   19.0987 H   0  0  0  0  0  0
  -30.3178  -11.2696   19.7795 H   0  0  0  0  0  0
  -29.7289  -11.8016   17.4010 H   0  0  0  0  0  0
  -29.6450  -13.5023   17.7769 H   0  0  0  0  0  0
  -27.8326  -11.2907   18.8091 H   0  0  0  0  0  0
  -27.3550  -12.6165   17.7827 H   0  0  0  0  0  0
  -27.7001  -14.2261   19.5566 H   0  0  0  0  0  0
  -28.6673  -11.9159   21.3243 H   0  0  0  0  0  0
  -28.4453  -13.5446   21.8688 H   0  0  0  0  0  0
  -25.2733   -9.5687   22.4751 H   0  0  0  0  0  0
  -23.9994   -7.4626   22.7483 H   0  0  0  0  0  0
  -21.0802   -8.8741   19.8964 H   0  0  0  0  0  0
  -22.3641  -10.9655   19.6166 H   0  0  0  0  0  0
  -21.1993   -7.6136   23.9710 H   0  0  0  0  0  0
  -21.1495   -6.0514   25.9081 H   0  0  0  0  0  0
  -22.0599   -2.7595   23.2848 H   0  0  0  0  0  0
  -22.4091  -11.9934   22.4812 H   0  0  0  0  0  0
  -21.1139  -13.1348   22.2583 H   0  0  0  0  0  0
  -24.6793  -15.8446   20.5336 H   0  0  0  0  0  0
  -26.3011  -15.6226   20.1171 H   0  0  0  0  0  0
  -26.7082  -32.5567   23.1179 H   0  0  0  0  0  0
  -25.0045  -33.9808   25.0495 H   0  0  0  0  0  0
  -22.6820  -31.3104   21.4161 H   0  0  0  0  0  0
  -23.3749  -35.9649   23.3327 H   0  0  0  0  0  0
  -24.3576  -36.8899   22.2045 H   0  0  0  0  0  0
  -23.7241  -37.6531   23.6631 H   0  0  0  0  0  0
  -26.0273  -31.6149   20.5921 H   0  0  0  0  0  0
  -26.8086  -30.9003   21.9758 H   0  0  0  0  0  0
  -28.0940  -29.1518   21.1280 H   0  0  0  0  0  0
  -26.0411  -25.9734   19.0360 H   0  0  0  0  0  0
  -23.9710  -27.2762   19.0710 H   0  0  0  0  0  0
  -23.7069  -30.5995   19.4078 H   0  0  0  0  0  0
  -22.7246  -29.2442   19.8730 H   0  0  0  0  0  0
  -25.1286  -36.1997   25.0838 H   0  0  0  0  0  0
  -20.9941  -28.3212   24.1458 H   0  0  0  0  0  0
  -20.5662  -26.2258   23.3601 H   0  0  0  0  0  0
  -21.6629  -26.7449   22.1213 H   0  0  0  0  0  0
  -19.6899  -25.6307   21.1227 H   0  0  0  0  0  0
  -19.6679  -27.3217   20.6759 H   0  0  0  0  0  0
  -17.4186  -26.6680   21.4025 H   0  0  0  0  0  0
  -18.0311  -26.0059   22.9010 H   0  0  0  0  0  0
  -19.7920  -30.7247   24.2305 H   0  0  0  0  0  0
  -17.5004  -31.6269   24.5166 H   0  0  0  0  0  0
  -15.5340  -30.3004   23.7634 H   0  0  0  0  0  0
  -15.8654  -28.0838   22.7044 H   0  0  0  0  0  0
  -24.5915  -30.7033   25.7823 H   0  0  0  0  0  0
  -24.8910  -32.2844   26.4945 H   0  0  0  0  0  0
  -25.8099  -30.8866   27.0231 H   0  0  0  0  0  0
  -26.2795  -29.6840   24.1128 H   0  0  0  0  0  0
  -27.4067  -29.7280   25.4498 H   0  0  0  0  0  0
  -27.8621  -30.4399   23.9182 H   0  0  0  0  0  0
  -27.2682  -33.3610   26.2084 H   0  0  0  0  0  0
  -28.3826  -32.6888   25.0272 H   0  0  0  0  0  0
  -28.0744  -31.8422   26.5352 H   0  0  0  0  0  0
  -28.2621  -38.0093   24.7505 H   0  0  0  0  0  0
  -28.1058  -36.2624   24.6309 H   0  0  0  0  0  0
  -27.2299  -37.1484   25.8872 H   0  0  0  0  0  0
  -20.9264  -29.8747   21.6978 H   0  0  0  0  0  0
  -26.0195  -38.2888   24.1400 H   0  0  0  0  0  0
  -29.7563  -21.8170   25.3300 H   0  0  0  0  0  0
  -29.6032  -22.9810   23.1476 H   0  0  0  0  0  0
  -29.7432  -19.3398   25.4341 H   0  0  0  0  0  0
  -29.4098  -19.1829   21.1290 H   0  0  0  0  0  0
  -28.0595  -16.0922   22.8245 H   0  0  0  0  0  0
  -27.8384  -17.5967   22.0037 H   0  0  0  0  0  0
  -31.5529  -17.5577   22.5132 H   0  0  0  0  0  0
  -31.5248  -17.1267   24.1966 H   0  0  0  0  0  0
  -29.9685  -17.0510   20.6341 H   0  0  0  0  0  0
  -28.6605  -15.9335   20.4112 H   0  0  0  0  0  0
  -30.6335  -14.8780   23.6228 H   0  0  0  0  0  0
  -32.0821  -15.1944   22.7088 H   0  0  0  0  0  0
  -29.1730  -17.2842   24.3503 H   0  0  0  0  0  0
  -30.4637  -25.7495   18.7032 H   0  0  0  0  0  0
  -30.5575  -25.4925   20.4213 H   0  0  0  0  0  0
  -31.3936  -23.5775   18.9454 H   0  0  0  0  0  0
  -29.7473  -23.2975   18.4453 H   0  0  0  0  0  0
  -28.0457  -24.8258   20.3368 H   0  0  0  0  0  0
  -28.0841  -25.3382   18.6433 H   0  0  0  0  0  0
  -30.7942  -23.1279   21.2696 H   0  0  0  0  0  0
  1 25  1  0  0  0
  1 30  2  0  0  0
  1 86  1  0  0  0
  2  3  1  0  0  0
  2 25  1  0  0  0
  2 89  1  0  0  0
  2 90  1  0  0  0
  3  4  1  0  0  0
  3 91  1  0  0  0
  3 92  1  0  0  0
  4  5  1  0  0  0
  4 93  1  0  0  0
  4 94  1  0  0  0
  5  6  1  0  0  0
  5 26  1  0  0  0
  5 95  1  0  0  0
  6 25  1  0  0  0
  6 96  1  0  0  0
  6 97  1  0  0  0
  7  8  2  0  0  0
  7 26  1  0  0  0
  7 29  1  0  0  0
  8  9  1  0  0  0
  8 22  1  0  0  0
  9 10  1  0  0  0
  9 27  2  0  0  0
 10 11  2  0  0  0
 10 15  1  0  0  0
 11 12  1  0  0  0
 11 98  1  0  0  0
 12 13  2  0  0  0
 12 99  1  0  0  0
 13 14  1  0  0  0
 13 31  1  0  0  0
 14 15  2  0  0  0
 14100  1  0  0  0
 15101  1  0  0  0
 16 17  2  0  0  0
 16 21  1  0  0  0
 16 31  1  0  0  0
 17 18  1  0  0  0
 17102  1  0  0  0
 18 19  2  0  0  0
 18103  1  0  0  0
 19 20  1  0  0  0
 19 24  1  0  0  0
 20 21  2  0  0  0
 20104  1  0  0  0
 21 23  1  0  0  0
 22 28  1  0  0  0
 22 32  2  0  0  0
 26 27  1  0  0  0
 28105  1  0  0  0
 28106  1  0  0  0
 29107  1  0  0  0
 29108  1  0  0  0
 33 34  1  0  0  0
 33 66  1  0  0  0
 33 70  2  0  0  0
 34 36  1  0  0  0
 34 59  1  0  0  0
 34109  1  0  0  0
 35 44  2  0  0  0
 35 45  1  0  0  0
 35 68  1  0  0  0
 36 56  1  0  0  0
 36110  1  0  0  0
 37 39  1  0  0  0
 37 47  1  0  0  0
 37 66  1  0  0  0
 37111  1  0  0  0
 38 43  2  0  0  0
 38 46  1  0  0  0
 38 47  1  0  0  0
 39 64  1  0  0  0
 39 67  2  0  0  0
 40 52  1  0  0  0
 40 53  2  0  0  0
 40 58  1  0  0  0
 41112  1  0  0  0
 41113  1  0  0  0
 41114  1  0  0  0
 41 48  1  0  0  0
 42 43  1  0  0  0
 42 66  1  0  0  0
 42115  1  0  0  0
 42116  1  0  0  0
 43 44  1  0  0  0
 44117  1  0  0  0
 45 46  2  0  0  0
 45118  1  0  0  0
 46119  1  0  0  0
 47120  1  0  0  0
 47121  1  0  0  0
 48 56  1  0  0  0
 48 65  1  0  0  0
 48122  1  0  0  0
 49 50  1  0  0  0
 49 53  1  0  0  0
 49 64  1  0  0  0
 49123  1  0  0  0
 50 51  1  0  0  0
 50124  1  0  0  0
 50125  1  0  0  0
 51 52  1  0  0  0
 51126  1  0  0  0
 51127  1  0  0  0
 52128  1  0  0  0
 52129  1  0  0  0
 53 54  1  0  0  0
 54 55  2  0  0  0
 54130  1  0  0  0
 55 57  1  0  0  0
 55131  1  0  0  0
 56 69  2  0  0  0
 57 58  2  0  0  0
 57132  1  0  0  0
 58133  1  0  0  0
 59 60  1  0  0  0
 59 61  1  0  0  0
 59 62  1  0  0  0
 60134  1  0  0  0
 60135  1  0  0  0
 60136  1  0  0  0
 61137  1  0  0  0
 61138  1  0  0  0
 61139  1  0  0  0
 62140  1  0  0  0
 62141  1  0  0  0
 62142  1  0  0  0
 63 65  1  0  0  0
 63143  1  0  0  0
 63144  1  0  0  0
 63145  1  0  0  0
 64146  1  0  0  0
 65147  1  0  0  0
 68 85  1  0  0  0
 71 72  2  0  0  0
 71 73  1  0  0  0
 71148  1  0  0  0
 72 75  1  0  0  0
 72149  1  0  0  0
 73 76  2  0  0  0
 73150  1  0  0  0
 74 75  2  0  0  0
 74 76  1  0  0  0
 74151  1  0  0  0
 75 77  1  0  0  0
 76 82  1  0  0  0
 77 87  1  0  0  0
 77 88  2  0  0  0
 78 80  1  0  0  0
 78 82  1  0  0  0
 78152  1  0  0  0
 78153  1  0  0  0
 79 81  1  0  0  0
 79 82  1  0  0  0
 79154  1  0  0  0
 79155  1  0  0  0
 80 86  1  0  0  0
 80156  1  0  0  0
 80157  1  0  0  0
 81 86  1  0  0  0
 81158  1  0  0  0
 81159  1  0  0  0
 82160  1  0  0  0
 83 84  1  0  0  0
 83 85  1  0  0  0
 83161  1  0  0  0
 83162  1  0  0  0
 84 87  1  0  0  0
 84163  1  0  0  0
 84164  1  0  0  0
 85165  1  0  0  0
 85166  1  0  0  0
 87167  1  0  0  0
M  ISO  4   1 100  68 101  85 101  86 100
M  END
> <chiral flag>
0

> <version>
0

> <s_m_source_file>
/data/baiqing/PycharmProjects/Reinvent-master-3.2/result/LINK_invent/BTK/process_docking_weight1_custom_product_contain_oxygen_bond_distance_aromatic_linkinvent_7_9_3/rearranged_h_0004.sdf

> <i_m_source_file_index>
96

> <r_mmod_Potential_Energy-OPLS-2005>
125.382316589355

> <r_mmod_Stretch_Energy-OPLS-2005>
33.9572067260742

> <r_mmod_Bend_Energy-OPLS-2005>
99.8364334106445

> <r_mmod_Torsional_Energy-OPLS-2005>
350.919006347656

> <r_mmod_Improper_Torsional_Energy-OPLS-2005>
4.18205261230469

> <r_mmod_Van_der_Waal_Energy-OPLS-2005>
165.120666503906

> <r_mmod_Electrostatic_Energy-OPLS-2005>
-322.181732177734

> <r_mmod_Solvation_Energy-OPLS-2005>
-215.190490722656

> <b_mmod_Minimization_Converged-OPLS-2005>
0

> <r_mmod_RMS_Derivative-OPLS-2005>
1.13671231269836

$$$$
96
                    3D
 Structure written by MMmdl.
169177  0  0  1  0            999 V2000
  -30.8076  -14.2983   20.7452 C   0  0  0  0  0  0
  -30.4111  -12.2944   19.3634 C   0  0  0  0  0  0
  -29.4710  -12.5384   18.1728 C   0  0  0  0  0  0
  -27.9986  -12.3862   18.5989 C   0  0  0  0  0  0
  -27.6621  -13.2004   19.8747 C   0  0  2  0  0  0
  -28.7008  -12.9292   20.9822 C   0  0  0  0  0  0
  -25.2595  -13.8159   20.5659 C   0  0  0  0  0  0
  -24.1846  -13.0433   20.9153 C   0  0  0  0  0  0
  -24.6385  -11.6907   20.8716 C   0  0  0  0  0  0
  -23.9055  -10.4293   21.0407 C   0  0  0  0  0  0
  -24.3614   -9.4205   21.9184 C   0  0  0  0  0  0
  -23.6285   -8.2239   22.0755 C   0  0  0  0  0  0
  -22.4266   -8.0283   21.3549 C   0  0  0  0  0  0
  -21.9907   -9.0252   20.4650 C   0  0  0  0  0  0
  -22.7231  -10.2131   20.3054 C   0  0  0  0  0  0
  -21.6850   -6.0736   22.5273 C   0  0  0  0  0  0
  -21.4018   -6.5641   23.8208 C   0  0  0  0  0  0
  -21.3658   -5.6794   24.9166 C   0  0  0  0  0  0
  -21.6040   -4.3057   24.7221 C   0  0  0  0  0  0
  -21.8822   -3.8147   23.4345 C   0  0  0  0  0  0
  -21.9191   -4.6962   22.3397 C   0  0  0  0  0  0
  -22.7867  -13.5237   21.1822 C   0  0  0  0  0  0
  -22.1660   -4.2151   21.0978 F   0  0  0  0  0  0
  -21.5628   -3.4542   25.7734 F   0  0  0  0  0  0
  -30.0408  -13.2218   20.4385 N   0  0  0  0  0  0
  -26.3020  -12.9314   20.3349 N   0  0  0  0  0  0
  -25.9305  -11.6477   20.5742 N   0  0  0  0  0  0
  -22.0502  -12.8237   22.0387 N   0  0  0  0  0  0
  -25.4330  -15.1870   20.4079 N   0  0  0  0  0  0
  -31.8074  -14.6381   20.1058 O   0  0  0  0  0  0
  -21.6639   -6.8879   21.4237 O   0  0  0  0  0  0
  -22.3547  -14.5535   20.6680 O   0  0  0  0  0  0
  -24.6059  -31.8706   23.2173 C   0  0  0  0  0  0
  -25.8968  -32.4830   23.8466 C   0  0  1  0  0  0
  -27.2356  -27.4766   20.0850 C   0  0  0  0  0  0
  -25.5859  -33.8637   24.2382 N   0  0  0  0  0  0
  -23.3972  -30.4914   21.5537 C   0  0  2  0  0  0
  -24.8522  -28.9667   20.1245 C   0  0  0  0  0  0
  -22.7424  -29.4591   22.4976 C   0  0  0  0  0  0
  -18.0243  -28.1376   22.8473 C   0  0  0  0  0  0
  -24.1503  -36.7313   23.2642 C   0  0  0  0  0  0
  -25.9226  -30.8472   21.3741 C   0  0  0  0  0  0
  -26.0049  -29.4823   20.7266 C   0  0  0  0  0  0
  -27.2023  -28.7375   20.7195 C   0  0  0  0  0  0
  -26.0709  -26.9688   19.4755 C   0  0  0  0  0  0
  -24.8728  -27.7049   19.5066 C   0  0  0  0  0  0
  -23.6148  -29.8312   20.1680 C   0  0  0  0  0  0
  -25.4111  -36.3110   24.0355 C   0  0  1  0  0  0
  -20.5844  -28.3621   23.1340 C   0  0  2  0  0  0
  -20.6764  -26.9353   22.5436 C   0  0  0  0  0  0
  -19.5746  -26.6384   21.5222 C   0  0  0  0  0  0
  -18.1901  -26.7919   22.1617 C   0  0  0  0  0  0
  -19.1507  -28.8813   23.2900 C   0  0  0  0  0  0
  -18.9442  -30.1431   23.8889 C   0  0  0  0  0  0
  -17.6452  -30.6571   24.0544 C   0  0  0  0  0  0
  -25.9031  -34.9473   23.5161 C   0  0  0  0  0  0
  -16.5330  -29.9074   23.6322 C   0  0  0  0  0  0
  -16.7239  -28.6505   23.0309 C   0  0  0  0  0  0
  -26.4477  -31.6596   25.0757 C   0  0  0  0  0  0
  -25.3754  -31.3702   26.1519 C   0  0  0  0  0  0
  -27.0343  -30.3049   24.6117 C   0  0  0  0  0  0
  -27.6075  -32.4331   25.7498 C   0  0  0  0  0  0
  -27.5579  -37.1811   24.8458 C   0  0  0  0  0  0
  -21.4134  -29.2996   22.3772 N   0  0  0  0  0  0
  -26.4299  -37.3787   23.9405 N   0  0  0  0  0  0
  -24.6581  -31.0836   22.1065 N   0  0  0  0  0  0
  -23.4229  -28.8066   23.2930 O   0  0  0  0  0  0
  -28.3772  -26.7287   19.9954 O   0  0  0  0  0  0
  -26.5577  -34.8900   22.4720 O   0  0  0  0  0  0
  -23.5269  -32.1457   23.7582 O   0  0  0  0  0  0
  -32.9823  -14.5452   24.5869 C   0  0  0  0  0  0
  -32.6174  -15.6240   25.4181 C   0  0  0  0  0  0
  -32.3041  -14.3280   23.3702 C   0  0  0  0  0  0
  -30.8803  -16.2528   23.8269 C   0  0  0  0  0  0
  -31.5773  -16.4930   25.0310 C   0  0  0  0  0  0
  -31.2409  -15.1815   22.9905 C   0  0  0  0  0  0
  -31.1645  -17.6387   25.8997 C   0  0  0  0  0  0
  -28.9031  -20.0176   24.8949 C   0  0  0  0  0  0
  -28.1552  -21.3645   24.9647 C   0  0  0  0  0  0
  -28.0760  -25.4546   22.0632 C   0  0  0  0  0  0
  -30.2412  -19.9547   25.6585 C   0  0  0  0  0  0
  -28.9350  -22.5012   24.2754 C   0  0  0  0  0  0
  -28.8804  -24.6553   23.0984 C   0  0  0  0  0  0
  -28.9926  -26.3669   21.2215 C   0  0  0  0  0  0
  -30.4289  -14.9366   21.8564 N   0  0  0  0  0  0
  -30.9648  -18.7729   25.2216 N   0  0  0  0  0  0
  -28.0881  -23.6157   23.7956 N   0  3  0  0  0  0
  -31.0141  -17.5168   27.1174 O   0  0  0  0  0  0
  -31.4500  -12.4089   19.0514 H   0  0  0  0  0  0
  -30.3203  -11.2661   19.7178 H   0  0  0  0  0  0
  -29.7004  -11.8432   17.3640 H   0  0  0  0  0  0
  -29.6363  -13.5397   17.7737 H   0  0  0  0  0  0
  -27.8082  -11.3268   18.7726 H   0  0  0  0  0  0
  -27.3407  -12.6836   17.7806 H   0  0  0  0  0  0
  -27.7245  -14.2571   19.6114 H   0  0  0  0  0  0
  -28.6603  -11.8836   21.2900 H   0  0  0  0  0  0
  -28.4416  -13.4985   21.8743 H   0  0  0  0  0  0
  -25.2759   -9.5680   22.4761 H   0  0  0  0  0  0
  -23.9990   -7.4638   22.7482 H   0  0  0  0  0  0
  -21.0832   -8.8763   19.8963 H   0  0  0  0  0  0
  -22.3679  -10.9668   19.6167 H   0  0  0  0  0  0
  -21.2012   -7.6149   23.9707 H   0  0  0  0  0  0
  -21.1482   -6.0530   25.9073 H   0  0  0  0  0  0
  -22.0603   -2.7611   23.2838 H   0  0  0  0  0  0
  -22.4106  -11.9889   22.4765 H   0  0  0  0  0  0
  -21.1129  -13.1270   22.2608 H   0  0  0  0  0  0
  -24.6705  -15.8466   20.5188 H   0  0  0  0  0  0
  -26.2933  -15.6248   20.1013 H   0  0  0  0  0  0
  -26.7017  -32.5584   23.1223 H   0  0  0  0  0  0
  -24.9995  -33.9850   25.0527 H   0  0  0  0  0  0
  -22.6789  -31.3007   21.4129 H   0  0  0  0  0  0
  -23.3758  -35.9653   23.3323 H   0  0  0  0  0  0
  -24.3571  -36.8929   22.2049 H   0  0  0  0  0  0
  -23.7303  -37.6543   23.6653 H   0  0  0  0  0  0
  -26.0357  -31.6198   20.6116 H   0  0  0  0  0  0
  -26.8088  -30.8977   21.9947 H   0  0  0  0  0  0
  -28.0951  -29.1390   21.1787 H   0  0  0  0  0  0
  -26.0904  -26.0064   18.9832 H   0  0  0  0  0  0
  -23.9790  -27.3088   19.0463 H   0  0  0  0  0  0
  -23.7376  -30.6130   19.4176 H   0  0  0  0  0  0
  -22.7447  -29.2521   19.8528 H   0  0  0  0  0  0
  -25.1288  -36.1997   25.0849 H   0  0  0  0  0  0
  -20.9873  -28.3167   24.1490 H   0  0  0  0  0  0
  -20.5708  -26.2167   23.3605 H   0  0  0  0  0  0
  -21.6615  -26.7459   22.1172 H   0  0  0  0  0  0
  -19.6924  -25.6316   21.1211 H   0  0  0  0  0  0
  -19.6722  -27.3221   20.6766 H   0  0  0  0  0  0
  -17.4187  -26.6653   21.3992 H   0  0  0  0  0  0
  -18.0282  -26.0090   22.9034 H   0  0  0  0  0  0
  -19.7935  -30.7237   24.2252 H   0  0  0  0  0  0
  -17.5019  -31.6252   24.5145 H   0  0  0  0  0  0
  -15.5333  -30.2961   23.7702 H   0  0  0  0  0  0
  -15.8638  -28.0863   22.6986 H   0  0  0  0  0  0
  -24.5860  -30.7137   25.7828 H   0  0  0  0  0  0
  -24.9009  -32.2881   26.5006 H   0  0  0  0  0  0
  -25.8079  -30.8805   27.0256 H   0  0  0  0  0  0
  -26.2891  -29.6773   24.1216 H   0  0  0  0  0  0
  -27.4183  -29.7310   25.4567 H   0  0  0  0  0  0
  -27.8689  -30.4379   23.9224 H   0  0  0  0  0  0
  -27.2664  -33.3602   26.2126 H   0  0  0  0  0  0
  -28.3819  -32.6963   25.0263 H   0  0  0  0  0  0
  -28.0823  -31.8452   26.5369 H   0  0  0  0  0  0
  -28.2566  -38.0122   24.7456 H   0  0  0  0  0  0
  -28.1104  -36.2653   24.6329 H   0  0  0  0  0  0
  -27.2273  -37.1473   25.8851 H   0  0  0  0  0  0
  -20.9289  -29.8757   21.7052 H   0  0  0  0  0  0
  -26.0210  -38.2864   24.1445 H   0  0  0  0  0  0
  -33.7711  -13.8715   24.8932 H   0  0  0  0  0  0
  -33.1348  -15.7857   26.3524 H   0  0  0  0  0  0
  -32.5814  -13.4768   22.7635 H   0  0  0  0  0  0
  -30.0486  -16.8867   23.5520 H   0  0  0  0  0  0
  -29.0726  -19.7691   23.8444 H   0  0  0  0  0  0
  -28.2524  -19.2280   25.2735 H   0  0  0  0  0  0
  -27.9330  -21.6320   25.9994 H   0  0  0  0  0  0
  -27.1878  -21.2276   24.4762 H   0  0  0  0  0  0
  -27.3002  -26.0533   22.5443 H   0  0  0  0  0  0
  -27.5611  -24.7622   21.3962 H   0  0  0  0  0  0
  -30.0729  -19.9497   26.7372 H   0  0  0  0  0  0
  -30.8681  -20.8173   25.4348 H   0  0  0  0  0  0
  -29.4578  -22.0884   23.4116 H   0  0  0  0  0  0
  -29.7015  -22.8958   24.9458 H   0  0  0  0  0  0
  -29.3303  -25.3235   23.8337 H   0  0  0  0  0  0
  -29.7085  -24.1777   22.5742 H   0  0  0  0  0  0
  -29.8916  -25.8174   20.9418 H   0  0  0  0  0  0
  -29.3332  -27.2380   21.7804 H   0  0  0  0  0  0
  -29.4455  -14.8409   22.0656 H   0  0  0  0  0  0
  -31.2421  -18.7535   24.2493 H   0  0  0  0  0  0
  -27.5998  -24.0406   24.5682 H   0  0  0  0  0  0
  -27.3961  -23.2420   23.1652 H   0  0  0  0  0  0
  1 25  1  0  0  0
  1 30  2  0  0  0
  1 85  1  0  0  0
  2  3  1  0  0  0
  2 25  1  0  0  0
  2 89  1  0  0  0
  2 90  1  0  0  0
  3  4  1  0  0  0
  3 91  1  0  0  0
  3 92  1  0  0  0
  4  5  1  0  0  0
  4 93  1  0  0  0
  4 94  1  0  0  0
  5  6  1  0  0  0
  5 26  1  0  0  0
  5 95  1  0  0  0
  6 25  1  0  0  0
  6 96  1  0  0  0
  6 97  1  0  0  0
  7  8  2  0  0  0
  7 26  1  0  0  0
  7 29  1  0  0  0
  8  9  1  0  0  0
  8 22  1  0  0  0
  9 10  1  0  0  0
  9 27  2  0  0  0
 10 11  2  0  0  0
 10 15  1  0  0  0
 11 12  1  0  0  0
 11 98  1  0  0  0
 12 13  2  0  0  0
 12 99  1  0  0  0
 13 14  1  0  0  0
 13 31  1  0  0  0
 14 15  2  0  0  0
 14100  1  0  0  0
 15101  1  0  0  0
 16 17  2  0  0  0
 16 21  1  0  0  0
 16 31  1  0  0  0
 17 18  1  0  0  0
 17102  1  0  0  0
 18 19  2  0  0  0
 18103  1  0  0  0
 19 20  1  0  0  0
 19 24  1  0  0  0
 20 21  2  0  0  0
 20104  1  0  0  0
 21 23  1  0  0  0
 22 28  1  0  0  0
 22 32  2  0  0  0
 26 27  1  0  0  0
 28105  1  0  0  0
 28106  1  0  0  0
 29107  1  0  0  0
 29108  1  0  0  0
 33 34  1  0  0  0
 33 66  1  0  0  0
 33 70  2  0  0  0
 34 36  1  0  0  0
 34 59  1  0  0  0
 34109  1  0  0  0
 35 44  2  0  0  0
 35 45  1  0  0  0
 35 68  1  0  0  0
 36 56  1  0  0  0
 36110  1  0  0  0
 37 39  1  0  0  0
 37 47  1  0  0  0
 37 66  1  0  0  0
 37111  1  0  0  0
 38 43  2  0  0  0
 38 46  1  0  0  0
 38 47  1  0  0  0
 39 64  1  0  0  0
 39 67  2  0  0  0
 40 52  1  0  0  0
 40 53  2  0  0  0
 40 58  1  0  0  0
 41112  1  0  0  0
 41113  1  0  0  0
 41114  1  0  0  0
 41 48  1  0  0  0
 42 43  1  0  0  0
 42 66  1  0  0  0
 42115  1  0  0  0
 42116  1  0  0  0
 43 44  1  0  0  0
 44117  1  0  0  0
 45 46  2  0  0  0
 45118  1  0  0  0
 46119  1  0  0  0
 47120  1  0  0  0
 47121  1  0  0  0
 48 56  1  0  0  0
 48 65  1  0  0  0
 48122  1  0  0  0
 49 50  1  0  0  0
 49 53  1  0  0  0
 49 64  1  0  0  0
 49123  1  0  0  0
 50 51  1  0  0  0
 50124  1  0  0  0
 50125  1  0  0  0
 51 52  1  0  0  0
 51126  1  0  0  0
 51127  1  0  0  0
 52128  1  0  0  0
 52129  1  0  0  0
 53 54  1  0  0  0
 54 55  2  0  0  0
 54130  1  0  0  0
 55 57  1  0  0  0
 55131  1  0  0  0
 56 69  2  0  0  0
 57 58  2  0  0  0
 57132  1  0  0  0
 58133  1  0  0  0
 59 60  1  0  0  0
 59 61  1  0  0  0
 59 62  1  0  0  0
 60134  1  0  0  0
 60135  1  0  0  0
 60136  1  0  0  0
 61137  1  0  0  0
 61138  1  0  0  0
 61139  1  0  0  0
 62140  1  0  0  0
 62141  1  0  0  0
 62142  1  0  0  0
 63 65  1  0  0  0
 63143  1  0  0  0
 63144  1  0  0  0
 63145  1  0  0  0
 64146  1  0  0  0
 65147  1  0  0  0
 68 84  1  0  0  0
 71 72  2  0  0  0
 71 73  1  0  0  0
 71148  1  0  0  0
 72 75  1  0  0  0
 72149  1  0  0  0
 73 76  2  0  0  0
 73150  1  0  0  0
 74 75  2  0  0  0
 74 76  1  0  0  0
 74151  1  0  0  0
 75 77  1  0  0  0
 76 85  1  0  0  0
 77 86  1  0  0  0
 77 88  2  0  0  0
 78 79  1  0  0  0
 78 81  1  0  0  0
 78152  1  0  0  0
 78153  1  0  0  0
 79 82  1  0  0  0
 79154  1  0  0  0
 79155  1  0  0  0
 80 83  1  0  0  0
 80 84  1  0  0  0
 80156  1  0  0  0
 80157  1  0  0  0
 81 86  1  0  0  0
 81158  1  0  0  0
 81159  1  0  0  0
 82 87  1  0  0  0
 82160  1  0  0  0
 82161  1  0  0  0
 83 87  1  0  0  0
 83162  1  0  0  0
 83163  1  0  0  0
 84164  1  0  0  0
 84165  1  0  0  0
 85166  1  0  0  0
 86167  1  0  0  0
 87168  1  0  0  0
 87169  1  0  0  0
M  CHG  1  87   1
M  ISO  4   1 100  68 101  84 101  85 100
M  END
> <chiral flag>
0

> <version>
0

> <s_m_source_file>
/data/baiqing/PycharmProjects/Reinvent-master-3.2/result/LINK_invent/BTK/process_docking_weight1_custom_product_contain_oxygen_bond_distance_aromatic_linkinvent_7_9_3/rearranged_h_0004.sdf

> <i_m_source_file_index>
97

> <r_mmod_Potential_Energy-OPLS-2005>
-252.137832641602

> <r_mmod_Stretch_Energy-OPLS-2005>
30.3518371582031

> <r_mmod_Bend_Energy-OPLS-2005>
96.2194595336914

> <r_mmod_Torsional_Energy-OPLS-2005>
279.786590576172

> <r_mmod_Improper_Torsional_Energy-OPLS-2005>
4.34454345703125

> <r_mmod_Van_der_Waal_Energy-OPLS-2005>
155.993774414062

> <r_mmod_Electrostatic_Energy-OPLS-2005>
-320.101013183594

> <r_mmod_Solvation_Energy-OPLS-2005>
-506.770477294922

> <b_mmod_Minimization_Converged-OPLS-2005>
0

> <r_mmod_RMS_Derivative-OPLS-2005>
3.62518405914307

$$$$
97
                    3D
 Structure written by MMmdl.
171179  0  0  1  0            999 V2000
  -30.6747  -14.4928   20.5114 C   0  0  0  0  0  0
  -30.4152  -12.2949   19.4439 C   0  0  0  0  0  0
  -29.4989  -12.4963   18.2190 C   0  0  0  0  0  0
  -28.0186  -12.3539   18.6247 C   0  0  0  0  0  0
  -27.6568  -13.2059   19.8691 C   0  0  2  0  0  0
  -28.6941  -13.0090   20.9990 C   0  0  0  0  0  0
  -25.2614  -13.8170   20.5752 C   0  0  0  0  0  0
  -24.1835  -13.0448   20.9199 C   0  0  0  0  0  0
  -24.6384  -11.6898   20.8721 C   0  0  0  0  0  0
  -23.9068  -10.4276   21.0412 C   0  0  0  0  0  0
  -24.3633   -9.4178   21.9170 C   0  0  0  0  0  0
  -23.6315   -8.2213   22.0742 C   0  0  0  0  0  0
  -22.4290   -8.0262   21.3535 C   0  0  0  0  0  0
  -21.9921   -9.0239   20.4627 C   0  0  0  0  0  0
  -22.7255  -10.2113   20.3049 C   0  0  0  0  0  0
  -21.6864   -6.0724   22.5288 C   0  0  0  0  0  0
  -21.3997   -6.5636   23.8204 C   0  0  0  0  0  0
  -21.3653   -5.6804   24.9191 C   0  0  0  0  0  0
  -21.6069   -4.3070   24.7246 C   0  0  0  0  0  0
  -21.8800   -3.8139   23.4367 C   0  0  0  0  0  0
  -21.9181   -4.6954   22.3419 C   0  0  0  0  0  0
  -22.7857  -13.5244   21.1876 C   0  0  0  0  0  0
  -22.1647   -4.2133   21.1001 F   0  0  0  0  0  0
  -21.5656   -3.4545   25.7752 F   0  0  0  0  0  0
  -30.0271  -13.2988   20.4477 N   0  0  0  0  0  0
  -26.3001  -12.9311   20.3341 N   0  0  0  0  0  0
  -25.9301  -11.6463   20.5740 N   0  0  0  0  0  0
  -22.0535  -12.8196   22.0439 N   0  0  0  0  0  0
  -25.4484  -15.1879   20.4263 N   0  0  0  0  0  0
  -31.8466  -14.6287   20.1388 O   0  0  0  0  0  0
  -21.6653   -6.8869   21.4233 O   0  0  0  0  0  0
  -22.3497  -14.5540   20.6737 O   0  0  0  0  0  0
  -24.6165  -31.8675   23.2118 C   0  0  0  0  0  0
  -25.9043  -32.4822   23.8434 C   0  0  1  0  0  0
  -27.2409  -27.4392   20.1153 C   0  0  0  0  0  0
  -25.5889  -33.8629   24.2380 N   0  0  0  0  0  0
  -23.4077  -30.4927   21.5477 C   0  0  2  0  0  0
  -24.8551  -28.9512   20.1184 C   0  0  0  0  0  0
  -22.7472  -29.4675   22.4957 C   0  0  0  0  0  0
  -18.0311  -28.1364   22.8517 C   0  0  0  0  0  0
  -24.1496  -36.7326   23.2615 C   0  0  0  0  0  0
  -25.9325  -30.8366   21.3638 C   0  0  0  0  0  0
  -26.0112  -29.4701   20.7136 C   0  0  0  0  0  0
  -27.2097  -28.7220   20.7078 C   0  0  0  0  0  0
  -26.0673  -26.9298   19.5222 C   0  0  0  0  0  0
  -24.8757  -27.6810   19.5142 C   0  0  0  0  0  0
  -23.6193  -29.8200   20.1646 C   0  0  0  0  0  0
  -25.4107  -36.3127   24.0336 C   0  0  1  0  0  0
  -20.5950  -28.3615   23.1244 C   0  0  2  0  0  0
  -20.6823  -26.9383   22.5271 C   0  0  0  0  0  0
  -19.5715  -26.6504   21.5101 C   0  0  0  0  0  0
  -18.2022  -26.7827   22.1828 C   0  0  0  0  0  0
  -19.1596  -28.8816   23.2898 C   0  0  0  0  0  0
  -18.9549  -30.1407   23.8900 C   0  0  0  0  0  0
  -17.6586  -30.6538   24.0658 C   0  0  0  0  0  0
  -25.9019  -34.9474   23.5152 C   0  0  0  0  0  0
  -16.5439  -29.9083   23.6423 C   0  0  0  0  0  0
  -16.7305  -28.6525   23.0382 C   0  0  0  0  0  0
  -26.4444  -31.6589   25.0751 C   0  0  0  0  0  0
  -25.3720  -31.3723   26.1523 C   0  0  0  0  0  0
  -27.0266  -30.3020   24.6138 C   0  0  0  0  0  0
  -27.6036  -32.4322   25.7501 C   0  0  0  0  0  0
  -27.5600  -37.1834   24.8451 C   0  0  0  0  0  0
  -21.4219  -29.2999   22.3666 N   0  0  0  0  0  0
  -26.4319  -37.3786   23.9381 N   0  0  0  0  0  0
  -24.6699  -31.0814   22.0988 N   0  0  0  0  0  0
  -23.4249  -28.8233   23.2999 O   0  0  0  0  0  0
  -28.3995  -26.6943   20.0910 O   0  0  0  0  0  0
  -26.5556  -34.8910   22.4697 O   0  0  0  0  0  0
  -23.5365  -32.1396   23.7550 O   0  0  0  0  0  0
  -29.9977  -19.4542   19.0583 C   0  0  0  0  0  0
  -30.5782  -17.0924   18.9841 C   0  0  0  0  0  0
  -29.3231  -17.9869   20.8744 C   0  0  0  0  0  0
  -30.5927  -18.3668   18.3874 C   0  0  0  0  0  0
  -29.3540  -19.2993   20.3086 C   0  0  0  0  0  0
  -29.9566  -16.8792   20.2407 C   0  0  0  0  0  0
  -28.3081  -20.3071   22.4373 C   0  0  0  0  0  0
  -31.1438  -19.7773   14.8684 C   0  0  0  0  0  0
  -29.1158  -18.7089   15.7612 C   0  0  0  0  0  0
  -31.2504  -18.5697   17.0214 C   0  0  0  0  0  0
  -28.7080  -24.2467   20.3646 C   0  0  0  0  0  0
  -29.4889  -21.8692   20.7864 C   0  0  0  0  0  0
  -28.4622  -25.6214   21.0484 C   0  0  0  0  0  0
  -28.6702  -20.5397   20.9566 C   0  0  1  0  0  0
  -29.9049  -15.5605   20.8280 N   0  0  0  0  0  0
  -28.8559  -23.1096   21.3277 N   0  3  0  0  0  0
  -30.4089  -19.3575   16.0837 N   0  3  0  0  0  0
  -31.4629  -12.3791   19.1500 H   0  0  0  0  0  0
  -30.3000  -11.2908   19.8538 H   0  0  0  0  0  0
  -29.7492  -11.7711   17.4417 H   0  0  0  0  0  0
  -29.6699  -13.4828   17.7878 H   0  0  0  0  0  0
  -27.8416  -11.3020   18.8457 H   0  0  0  0  0  0
  -27.3627  -12.6098   17.7911 H   0  0  0  0  0  0
  -27.6936  -14.2473   19.5536 H   0  0  0  0  0  0
  -28.6609  -11.9835   21.3690 H   0  0  0  0  0  0
  -28.4628  -13.6415   21.8556 H   0  0  0  0  0  0
  -25.2759   -9.5673   22.4759 H   0  0  0  0  0  0
  -24.0030   -7.4608   22.7460 H   0  0  0  0  0  0
  -21.0849   -8.8762   19.8943 H   0  0  0  0  0  0
  -22.3705  -10.9668   19.6183 H   0  0  0  0  0  0
  -21.1953   -7.6128   23.9709 H   0  0  0  0  0  0
  -21.1527   -6.0533   25.9106 H   0  0  0  0  0  0
  -22.0589   -2.7598   23.2876 H   0  0  0  0  0  0
  -22.4146  -11.9771   22.4688 H   0  0  0  0  0  0
  -21.1184  -13.1241   22.2732 H   0  0  0  0  0  0
  -24.7103  -15.8697   20.5627 H   0  0  0  0  0  0
  -26.3276  -15.6145   20.1674 H   0  0  0  0  0  0
  -26.7132  -32.5535   23.1227 H   0  0  0  0  0  0
  -25.0143  -33.9814   25.0607 H   0  0  0  0  0  0
  -22.6917  -31.3064   21.4039 H   0  0  0  0  0  0
  -23.3744  -35.9667   23.3290 H   0  0  0  0  0  0
  -24.3594  -36.8927   22.2023 H   0  0  0  0  0  0
  -23.7297  -37.6552   23.6629 H   0  0  0  0  0  0
  -26.0489  -31.6074   20.6009 H   0  0  0  0  0  0
  -26.8182  -30.8911   21.9879 H   0  0  0  0  0  0
  -28.1010  -29.1236   21.1665 H   0  0  0  0  0  0
  -26.0728  -25.9508   19.0665 H   0  0  0  0  0  0
  -23.9886  -27.2768   19.0450 H   0  0  0  0  0  0
  -23.7276  -30.5900   19.3987 H   0  0  0  0  0  0
  -22.7446  -29.2375   19.8725 H   0  0  0  0  0  0
  -25.1319  -36.1965   25.0838 H   0  0  0  0  0  0
  -21.0147  -28.3091   24.1312 H   0  0  0  0  0  0
  -20.5710  -26.2180   23.3394 H   0  0  0  0  0  0
  -21.6675  -26.7431   22.1011 H   0  0  0  0  0  0
  -19.6885  -25.6533   21.0920 H   0  0  0  0  0  0
  -19.6503  -27.3505   20.6787 H   0  0  0  0  0  0
  -17.4013  -26.6122   21.4604 H   0  0  0  0  0  0
  -18.0940  -26.0097   22.9457 H   0  0  0  0  0  0
  -19.8081  -30.7183   24.2237 H   0  0  0  0  0  0
  -17.5188  -31.6159   24.5376 H   0  0  0  0  0  0
  -15.5472  -30.3010   23.7881 H   0  0  0  0  0  0
  -15.8661  -28.0886   22.7121 H   0  0  0  0  0  0
  -24.5854  -30.7087   25.7896 H   0  0  0  0  0  0
  -24.8939  -32.2892   26.4996 H   0  0  0  0  0  0
  -25.8059  -30.8888   27.0288 H   0  0  0  0  0  0
  -26.2820  -29.6798   24.1140 H   0  0  0  0  0  0
  -27.3955  -29.7224   25.4611 H   0  0  0  0  0  0
  -27.8699  -30.4310   23.9346 H   0  0  0  0  0  0
  -27.2643  -33.3610   26.2117 H   0  0  0  0  0  0
  -28.3806  -32.6915   25.0293 H   0  0  0  0  0  0
  -28.0736  -31.8421   26.5388 H   0  0  0  0  0  0
  -28.2636  -38.0121   24.7501 H   0  0  0  0  0  0
  -28.1105  -36.2653   24.6301 H   0  0  0  0  0  0
  -27.2313  -37.1530   25.8859 H   0  0  0  0  0  0
  -20.9372  -29.8644   21.6839 H   0  0  0  0  0  0
  -26.0197  -38.2870   24.1338 H   0  0  0  0  0  0
  -30.0102  -20.4120   18.5681 H   0  0  0  0  0  0
  -31.0465  -16.2723   18.4578 H   0  0  0  0  0  0
  -28.8178  -17.8068   21.8115 H   0  0  0  0  0  0
  -27.6041  -19.4815   22.5525 H   0  0  0  0  0  0
  -27.8215  -21.1783   22.8721 H   0  0  0  0  0  0
  -29.1886  -20.0813   23.0412 H   0  0  0  0  0  0
  -30.5407  -20.4563   14.2660 H   0  0  0  0  0  0
  -31.4162  -18.9250   14.2440 H   0  0  0  0  0  0
  -32.0559  -20.3129   15.1302 H   0  0  0  0  0  0
  -28.5071  -19.3590   15.1308 H   0  0  0  0  0  0
  -28.5276  -18.4936   16.6575 H   0  0  0  0  0  0
  -29.2699  -17.7685   15.2294 H   0  0  0  0  0  0
  -31.4741  -17.6066   16.5604 H   0  0  0  0  0  0
  -32.2087  -19.0680   17.1778 H   0  0  0  0  0  0
  -29.6176  -24.3318   19.7675 H   0  0  0  0  0  0
  -27.8972  -24.0211   19.6749 H   0  0  0  0  0  0
  -29.6963  -22.0588   19.7364 H   0  0  0  0  0  0
  -30.4647  -21.7474   21.2578 H   0  0  0  0  0  0
  -29.2922  -25.8371   21.7245 H   0  0  0  0  0  0
  -27.5636  -25.5835   21.6694 H   0  0  0  0  0  0
  -27.7353  -20.6668   20.4052 H   0  0  0  0  0  0
  -29.0634  -15.3385   21.3386 H   0  0  0  0  0  0
  -29.4505  -23.4199   22.0809 H   0  0  0  0  0  0
  -27.9616  -22.8815   21.7294 H   0  0  0  0  0  0
  -30.1911  -20.2100   16.5742 H   0  0  0  0  0  0
  1 25  1  0  0  0
  1 30  2  0  0  0
  1 85  1  0  0  0
  2  3  1  0  0  0
  2 25  1  0  0  0
  2 88  1  0  0  0
  2 89  1  0  0  0
  3  4  1  0  0  0
  3 90  1  0  0  0
  3 91  1  0  0  0
  4  5  1  0  0  0
  4 92  1  0  0  0
  4 93  1  0  0  0
  5  6  1  0  0  0
  5 26  1  0  0  0
  5 94  1  0  0  0
  6 25  1  0  0  0
  6 95  1  0  0  0
  6 96  1  0  0  0
  7  8  2  0  0  0
  7 26  1  0  0  0
  7 29  1  0  0  0
  8  9  1  0  0  0
  8 22  1  0  0  0
  9 10  1  0  0  0
  9 27  2  0  0  0
 10 11  2  0  0  0
 10 15  1  0  0  0
 11 12  1  0  0  0
 11 97  1  0  0  0
 12 13  2  0  0  0
 12 98  1  0  0  0
 13 14  1  0  0  0
 13 31  1  0  0  0
 14 15  2  0  0  0
 14 99  1  0  0  0
 15100  1  0  0  0
 16 17  2  0  0  0
 16 21  1  0  0  0
 16 31  1  0  0  0
 17 18  1  0  0  0
 17101  1  0  0  0
 18 19  2  0  0  0
 18102  1  0  0  0
 19 20  1  0  0  0
 19 24  1  0  0  0
 20 21  2  0  0  0
 20103  1  0  0  0
 21 23  1  0  0  0
 22 28  1  0  0  0
 22 32  2  0  0  0
 26 27  1  0  0  0
 28104  1  0  0  0
 28105  1  0  0  0
 29106  1  0  0  0
 29107  1  0  0  0
 33 34  1  0  0  0
 33 66  1  0  0  0
 33 70  2  0  0  0
 34 36  1  0  0  0
 34 59  1  0  0  0
 34108  1  0  0  0
 35 44  2  0  0  0
 35 45  1  0  0  0
 35 68  1  0  0  0
 36 56  1  0  0  0
 36109  1  0  0  0
 37 39  1  0  0  0
 37 47  1  0  0  0
 37 66  1  0  0  0
 37110  1  0  0  0
 38 43  2  0  0  0
 38 46  1  0  0  0
 38 47  1  0  0  0
 39 64  1  0  0  0
 39 67  2  0  0  0
 40 52  1  0  0  0
 40 53  2  0  0  0
 40 58  1  0  0  0
 41111  1  0  0  0
 41112  1  0  0  0
 41113  1  0  0  0
 41 48  1  0  0  0
 42 43  1  0  0  0
 42 66  1  0  0  0
 42114  1  0  0  0
 42115  1  0  0  0
 43 44  1  0  0  0
 44116  1  0  0  0
 45 46  2  0  0  0
 45117  1  0  0  0
 46118  1  0  0  0
 47119  1  0  0  0
 47120  1  0  0  0
 48 56  1  0  0  0
 48 65  1  0  0  0
 48121  1  0  0  0
 49 50  1  0  0  0
 49 53  1  0  0  0
 49 64  1  0  0  0
 49122  1  0  0  0
 50 51  1  0  0  0
 50123  1  0  0  0
 50124  1  0  0  0
 51 52  1  0  0  0
 51125  1  0  0  0
 51126  1  0  0  0
 52127  1  0  0  0
 52128  1  0  0  0
 53 54  1  0  0  0
 54 55  2  0  0  0
 54129  1  0  0  0
 55 57  1  0  0  0
 55130  1  0  0  0
 56 69  2  0  0  0
 57 58  2  0  0  0
 57131  1  0  0  0
 58132  1  0  0  0
 59 60  1  0  0  0
 59 61  1  0  0  0
 59 62  1  0  0  0
 60133  1  0  0  0
 60134  1  0  0  0
 60135  1  0  0  0
 61136  1  0  0  0
 61137  1  0  0  0
 61138  1  0  0  0
 62139  1  0  0  0
 62140  1  0  0  0
 62141  1  0  0  0
 63 65  1  0  0  0
 63142  1  0  0  0
 63143  1  0  0  0
 63144  1  0  0  0
 64145  1  0  0  0
 65146  1  0  0  0
 68 83  1  0  0  0
 71 74  2  0  0  0
 71 75  1  0  0  0
 71147  1  0  0  0
 72 74  1  0  0  0
 72 76  2  0  0  0
 72148  1  0  0  0
 73 75  2  0  0  0
 73 76  1  0  0  0
 73149  1  0  0  0
 74 80  1  0  0  0
 75 84  1  0  0  0
 76 85  1  0  0  0
 77150  1  0  0  0
 77151  1  0  0  0
 77152  1  0  0  0
 77 84  1  0  0  0
 78153  1  0  0  0
 78154  1  0  0  0
 78155  1  0  0  0
 78 87  1  0  0  0
 79 87  1  0  0  0
 79156  1  0  0  0
 79157  1  0  0  0
 79158  1  0  0  0
 80 87  1  0  0  0
 80159  1  0  0  0
 80160  1  0  0  0
 81 83  1  0  0  0
 81 86  1  0  0  0
 81161  1  0  0  0
 81162  1  0  0  0
 82 84  1  0  0  0
 82 86  1  0  0  0
 82163  1  0  0  0
 82164  1  0  0  0
 83165  1  0  0  0
 83166  1  0  0  0
 84167  1  0  0  0
 85168  1  0  0  0
 86169  1  0  0  0
 86170  1  0  0  0
 87171  1  0  0  0
M  CHG  2  86   1  87   1
M  ISO  4   1 100  68 101  83 101  85 100
M  END
> <chiral flag>
0

> <version>
0

> <s_m_source_file>
/data/baiqing/PycharmProjects/Reinvent-master-3.2/result/LINK_invent/BTK/process_docking_weight1_custom_product_contain_oxygen_bond_distance_aromatic_linkinvent_7_9_3/rearranged_h_0004.sdf

> <i_m_source_file_index>
98

> <r_mmod_Potential_Energy-OPLS-2005>
-281.442047119141

> <r_mmod_Stretch_Energy-OPLS-2005>
46.9273796081543

> <r_mmod_Bend_Energy-OPLS-2005>
100.344291687012

> <r_mmod_Torsional_Energy-OPLS-2005>
267.205749511719

> <r_mmod_Improper_Torsional_Energy-OPLS-2005>
5.09867763519287

> <r_mmod_Van_der_Waal_Energy-OPLS-2005>
159.199920654297

> <r_mmod_Electrostatic_Energy-OPLS-2005>
16.3068885803223

> <r_mmod_Solvation_Energy-OPLS-2005>
-892.822021484375

> <b_mmod_Minimization_Converged-OPLS-2005>
0

> <r_mmod_RMS_Derivative-OPLS-2005>
5.9670467376709

$$$$
