0
                    3D
 Structure written by MMmdl.
165174  0  0  1  0            999 V2000
  -30.7563  -14.6105   20.4273 C   0  0  0  0  0  0
  -30.3986  -12.3794   19.4577 C   0  0  0  0  0  0
  -29.4864  -12.4686   18.2209 C   0  0  0  0  0  0
  -28.0121  -12.3317   18.6394 C   0  0  0  0  0  0
  -27.6365  -13.2391   19.8419 C   0  0  2  0  0  0
  -28.6918  -13.2023   20.9707 C   0  0  0  0  0  0
  -25.2520  -13.8236   20.5753 C   0  0  0  0  0  0
  -24.1811  -13.0469   20.9241 C   0  0  0  0  0  0
  -24.6399  -11.6949   20.8786 C   0  0  0  0  0  0
  -23.9067  -10.4330   21.0432 C   0  0  0  0  0  0
  -24.3634   -9.4230   21.9171 C   0  0  0  0  0  0
  -23.6303   -8.2272   22.0730 C   0  0  0  0  0  0
  -22.4280   -8.0328   21.3543 C   0  0  0  0  0  0
  -21.9915   -9.0301   20.4646 C   0  0  0  0  0  0
  -22.7254  -10.2169   20.3055 C   0  0  0  0  0  0
  -21.6865   -6.0778   22.5283 C   0  0  0  0  0  0
  -21.4055   -6.5671   23.8232 C   0  0  0  0  0  0
  -21.3640   -5.6808   24.9182 C   0  0  0  0  0  0
  -21.6015   -4.3072   24.7218 C   0  0  0  0  0  0
  -21.8830   -3.8176   23.4340 C   0  0  0  0  0  0
  -21.9198   -4.6995   22.3406 C   0  0  0  0  0  0
  -22.7825  -13.5243   21.1862 C   0  0  0  0  0  0
  -22.1677   -4.2204   21.0977 F   0  0  0  0  0  0
  -21.5565   -3.4533   25.7711 F   0  0  0  0  0  0
  -29.9945  -13.4765   20.3595 N   0  0  0  0  0  0
  -26.2937  -12.9457   20.3306 N   0  0  0  0  0  0
  -25.9331  -11.6586   20.5788 N   0  0  0  0  0  0
  -22.0472  -12.8247   22.0435 N   0  0  0  0  0  0
  -25.4148  -15.1969   20.4163 N   0  0  0  0  0  0
  -31.9716  -14.4968   20.3306 O   0  0  0  0  0  0
  -21.6637   -6.8929   21.4258 O   0  0  0  0  0  0
  -22.3511  -14.5538   20.6683 O   0  0  0  0  0  0
  -24.6207  -31.8595   23.2043 C   0  0  0  0  0  0
  -25.9080  -32.4785   23.8351 C   0  0  1  0  0  0
  -27.2197  -27.3638   20.1251 C   0  0  0  0  0  0
  -25.5916  -33.8581   24.2283 N   0  0  0  0  0  0
  -23.4127  -30.4829   21.5447 C   0  0  2  0  0  0
  -24.8567  -28.9357   20.1153 C   0  0  0  0  0  0
  -22.7443  -29.4617   22.4950 C   0  0  0  0  0  0
  -18.0260  -28.1372   22.8462 C   0  0  0  0  0  0
  -24.1480  -36.7322   23.2622 C   0  0  0  0  0  0
  -25.9476  -30.8082   21.3599 C   0  0  0  0  0  0
  -26.0222  -29.4343   20.7132 C   0  0  0  0  0  0
  -27.2091  -28.6578   20.7084 C   0  0  0  0  0  0
  -26.0406  -26.8932   19.5132 C   0  0  0  0  0  0
  -24.8641  -27.6663   19.5088 C   0  0  0  0  0  0
  -23.6247  -29.8105   20.1621 C   0  0  0  0  0  0
  -25.4098  -36.3089   24.0328 C   0  0  1  0  0  0
  -20.5851  -28.3673   23.1300 C   0  0  2  0  0  0
  -20.6764  -26.9411   22.5401 C   0  0  0  0  0  0
  -19.5759  -26.6384   21.5187 C   0  0  0  0  0  0
  -18.1931  -26.7913   22.1595 C   0  0  0  0  0  0
  -19.1507  -28.8841   23.2876 C   0  0  0  0  0  0
  -18.9438  -30.1428   23.8919 C   0  0  0  0  0  0
  -17.6453  -30.6587   24.0556 C   0  0  0  0  0  0
  -25.9042  -34.9463   23.5110 C   0  0  0  0  0  0
  -16.5344  -29.9100   23.6314 C   0  0  0  0  0  0
  -16.7253  -28.6501   23.0352 C   0  0  0  0  0  0
  -26.4489  -31.6567   25.0690 C   0  0  0  0  0  0
  -25.3767  -31.3715   26.1460 C   0  0  0  0  0  0
  -27.0282  -30.2993   24.6062 C   0  0  0  0  0  0
  -27.6033  -32.4291   25.7477 C   0  0  0  0  0  0
  -27.5583  -37.1810   24.8462 C   0  0  0  0  0  0
  -21.4169  -29.3033   22.3706 N   0  0  0  0  0  0
  -26.4280  -37.3785   23.9415 N   0  0  0  0  0  0
  -24.6808  -31.0641   22.0959 N   0  0  0  0  0  0
  -23.4182  -28.8143   23.3014 O   0  0  0  0  0  0
  -28.3490  -26.5581   20.1460 O   0  0  0  0  0  0
  -26.5602  -34.8923   22.4670 O   0  0  0  0  0  0
  -23.5385  -32.1374   23.7396 O   0  0  0  0  0  0
  -32.3632  -17.6260   17.7769 C   0  0  0  0  0  0
  -31.9876  -16.9216   18.9323 C   0  0  0  0  0  0
  -30.1355  -18.5336   17.6619 C   0  0  0  0  0  0
  -29.8410  -18.0280   18.9520 C   0  0  0  0  0  0
  -31.4030  -18.3683   17.0849 C   0  0  0  0  0  0
  -30.6593  -16.9525   19.4648 C   0  0  0  0  0  0
  -29.4843  -20.0807   20.1512 C   0  0  0  0  0  0
  -28.5464  -22.5743   20.4602 C   0  0  0  0  0  0
  -27.5652  -20.7343   18.9093 C   0  0  0  0  0  0
  -27.6253  -19.2094   19.1673 C   0  0  0  0  0  0
  -28.8503  -21.3571   19.4985 C   0  0  2  0  0  0
  -29.8001  -21.8774   18.3819 C   0  0  0  0  0  0
  -28.5190  -24.0178   19.8370 C   0  0  0  0  0  0
  -28.2053  -25.2398   20.7674 C   0  0  0  0  0  0
  -28.9560  -18.9014   19.6995 N   0  0  0  0  0  0
  -31.7239  -19.0248   15.8989 N   0  0  0  0  0  0
  -30.1701  -15.8549   20.3192 N   0  0  0  0  0  0
  -30.4437  -20.1456   20.9302 O   0  0  0  0  0  0
  -28.2926  -22.4085   21.6574 O   0  0  0  0  0  0
  -31.4439  -12.4392   19.1474 H   0  0  0  0  0  0
  -30.2899  -11.4156   19.9601 H   0  0  0  0  0  0
  -29.7434  -11.6866   17.5043 H   0  0  0  0  0  0
  -29.6431  -13.4199   17.7116 H   0  0  0  0  0  0
  -27.8425  -11.2826   18.8912 H   0  0  0  0  0  0
  -27.3627  -12.5487   17.7919 H   0  0  0  0  0  0
  -27.6195  -14.2560   19.4485 H   0  0  0  0  0  0
  -28.7074  -12.2333   21.4691 H   0  0  0  0  0  0
  -28.4592  -13.9449   21.7353 H   0  0  0  0  0  0
  -25.2788   -9.5683   22.4736 H   0  0  0  0  0  0
  -24.0017   -7.4644   22.7416 H   0  0  0  0  0  0
  -21.0852   -8.8846   19.8930 H   0  0  0  0  0  0
  -22.3737  -10.9727   19.6170 H   0  0  0  0  0  0
  -21.2118   -7.6186   23.9777 H   0  0  0  0  0  0
  -21.1405   -6.0513   25.9089 H   0  0  0  0  0  0
  -22.0608   -2.7640   23.2817 H   0  0  0  0  0  0
  -22.4100  -11.9950   22.4898 H   0  0  0  0  0  0
  -21.1055  -13.1226   22.2564 H   0  0  0  0  0  0
  -24.6342  -15.8354   20.5214 H   0  0  0  0  0  0
  -26.2556  -15.6503   20.0822 H   0  0  0  0  0  0
  -26.7150  -32.5469   23.1091 H   0  0  0  0  0  0
  -25.0108  -33.9733   25.0464 H   0  0  0  0  0  0
  -22.7044  -31.3012   21.3984 H   0  0  0  0  0  0
  -23.3735  -35.9665   23.3297 H   0  0  0  0  0  0
  -24.3581  -36.8932   22.2034 H   0  0  0  0  0  0
  -23.7254  -37.6536   23.6648 H   0  0  0  0  0  0
  -26.0571  -31.5617   20.5776 H   0  0  0  0  0  0
  -26.8404  -30.8708   21.9740 H   0  0  0  0  0  0
  -28.1101  -29.0305   21.1764 H   0  0  0  0  0  0
  -26.0237  -25.9193   19.0436 H   0  0  0  0  0  0
  -23.9654  -27.2734   19.0509 H   0  0  0  0  0  0
  -23.7471  -30.5828   19.4029 H   0  0  0  0  0  0
  -22.7469  -29.2342   19.8593 H   0  0  0  0  0  0
  -25.1262  -36.1951   25.0824 H   0  0  0  0  0  0
  -20.9915  -28.3243   24.1426 H   0  0  0  0  0  0
  -20.5655  -26.2286   23.3581 H   0  0  0  0  0  0
  -21.6645  -26.7457   22.1199 H   0  0  0  0  0  0
  -19.6953  -25.6296   21.1208 H   0  0  0  0  0  0
  -19.6717  -27.3204   20.6725 H   0  0  0  0  0  0
  -17.4196  -26.6609   21.4009 H   0  0  0  0  0  0
  -18.0378  -26.0058   22.8996 H   0  0  0  0  0  0
  -19.7919  -30.7190   24.2345 H   0  0  0  0  0  0
  -17.5027  -31.6275   24.5128 H   0  0  0  0  0  0
  -15.5353  -30.3026   23.7627 H   0  0  0  0  0  0
  -15.8631  -28.0828   22.7105 H   0  0  0  0  0  0
  -24.5923  -30.7048   25.7867 H   0  0  0  0  0  0
  -24.8975  -32.2880   26.4898 H   0  0  0  0  0  0
  -25.8136  -30.8925   27.0228 H   0  0  0  0  0  0
  -26.2806  -29.6795   24.1089 H   0  0  0  0  0  0
  -27.4009  -29.7180   25.4501 H   0  0  0  0  0  0
  -27.8673  -30.4284   23.9227 H   0  0  0  0  0  0
  -27.2622  -33.3581   26.2063 H   0  0  0  0  0  0
  -28.3869  -32.6866   25.0343 H   0  0  0  0  0  0
  -28.0682  -31.8414   26.5403 H   0  0  0  0  0  0
  -28.2582  -38.0125   24.7507 H   0  0  0  0  0  0
  -28.1092  -36.2646   24.6271 H   0  0  0  0  0  0
  -27.2312  -37.1448   25.8871 H   0  0  0  0  0  0
  -20.9352  -29.8782   21.6932 H   0  0  0  0  0  0
  -26.0170  -38.2860   24.1431 H   0  0  0  0  0  0
  -33.3749  -17.5401   17.4045 H   0  0  0  0  0  0
  -32.7773  -16.3298   19.3585 H   0  0  0  0  0  0
  -29.4415  -19.2083   17.1860 H   0  0  0  0  0  0
  -26.6592  -21.1519   19.3495 H   0  0  0  0  0  0
  -27.4921  -20.9184   17.8368 H   0  0  0  0  0  0
  -27.3912  -18.6419   18.2633 H   0  0  0  0  0  0
  -26.8797  -18.9203   19.9117 H   0  0  0  0  0  0
  -30.2106  -21.0952   17.7549 H   0  0  0  0  0  0
  -30.6619  -22.4037   18.7956 H   0  0  0  0  0  0
  -29.2878  -22.5576   17.7035 H   0  0  0  0  0  0
  -27.8176  -24.0105   19.0040 H   0  0  0  0  0  0
  -29.5021  -24.2013   19.4105 H   0  0  0  0  0  0
  -28.9110  -25.2203   21.6014 H   0  0  0  0  0  0
  -27.2208  -25.1114   21.2251 H   0  0  0  0  0  0
  -32.6153  -18.8744   15.4364 H   0  0  0  0  0  0
  -30.9982  -19.4178   15.3085 H   0  0  0  0  0  0
  -29.1865  -15.8903   20.5429 H   0  0  0  0  0  0
  1 25  1  0  0  0
  1 30  2  0  0  0
  1 87  1  0  0  0
  2  3  1  0  0  0
  2 25  1  0  0  0
  2 90  1  0  0  0
  2 91  1  0  0  0
  3  4  1  0  0  0
  3 92  1  0  0  0
  3 93  1  0  0  0
  4  5  1  0  0  0
  4 94  1  0  0  0
  4 95  1  0  0  0
  5  6  1  0  0  0
  5 26  1  0  0  0
  5 96  1  0  0  0
  6 25  1  0  0  0
  6 97  1  0  0  0
  6 98  1  0  0  0
  7  8  2  0  0  0
  7 26  1  0  0  0
  7 29  1  0  0  0
  8  9  1  0  0  0
  8 22  1  0  0  0
  9 10  1  0  0  0
  9 27  2  0  0  0
 10 11  2  0  0  0
 10 15  1  0  0  0
 11 12  1  0  0  0
 11 99  1  0  0  0
 12 13  2  0  0  0
 12100  1  0  0  0
 13 14  1  0  0  0
 13 31  1  0  0  0
 14 15  2  0  0  0
 14101  1  0  0  0
 15102  1  0  0  0
 16 17  2  0  0  0
 16 21  1  0  0  0
 16 31  1  0  0  0
 17 18  1  0  0  0
 17103  1  0  0  0
 18 19  2  0  0  0
 18104  1  0  0  0
 19 20  1  0  0  0
 19 24  1  0  0  0
 20 21  2  0  0  0
 20105  1  0  0  0
 21 23  1  0  0  0
 22 28  1  0  0  0
 22 32  2  0  0  0
 26 27  1  0  0  0
 28106  1  0  0  0
 28107  1  0  0  0
 29108  1  0  0  0
 29109  1  0  0  0
 33 34  1  0  0  0
 33 66  1  0  0  0
 33 70  2  0  0  0
 34 36  1  0  0  0
 34 59  1  0  0  0
 34110  1  0  0  0
 35 44  2  0  0  0
 35 45  1  0  0  0
 35 68  1  0  0  0
 36 56  1  0  0  0
 36111  1  0  0  0
 37 39  1  0  0  0
 37 47  1  0  0  0
 37 66  1  0  0  0
 37112  1  0  0  0
 38 43  2  0  0  0
 38 46  1  0  0  0
 38 47  1  0  0  0
 39 64  1  0  0  0
 39 67  2  0  0  0
 40 52  1  0  0  0
 40 53  2  0  0  0
 40 58  1  0  0  0
 41113  1  0  0  0
 41114  1  0  0  0
 41115  1  0  0  0
 41 48  1  0  0  0
 42 43  1  0  0  0
 42 66  1  0  0  0
 42116  1  0  0  0
 42117  1  0  0  0
 43 44  1  0  0  0
 44118  1  0  0  0
 45 46  2  0  0  0
 45119  1  0  0  0
 46120  1  0  0  0
 47121  1  0  0  0
 47122  1  0  0  0
 48 56  1  0  0  0
 48 65  1  0  0  0
 48123  1  0  0  0
 49 50  1  0  0  0
 49 53  1  0  0  0
 49 64  1  0  0  0
 49124  1  0  0  0
 50 51  1  0  0  0
 50125  1  0  0  0
 50126  1  0  0  0
 51 52  1  0  0  0
 51127  1  0  0  0
 51128  1  0  0  0
 52129  1  0  0  0
 52130  1  0  0  0
 53 54  1  0  0  0
 54 55  2  0  0  0
 54131  1  0  0  0
 55 57  1  0  0  0
 55132  1  0  0  0
 56 69  2  0  0  0
 57 58  2  0  0  0
 57133  1  0  0  0
 58134  1  0  0  0
 59 60  1  0  0  0
 59 61  1  0  0  0
 59 62  1  0  0  0
 60135  1  0  0  0
 60136  1  0  0  0
 60137  1  0  0  0
 61138  1  0  0  0
 61139  1  0  0  0
 61140  1  0  0  0
 62141  1  0  0  0
 62142  1  0  0  0
 62143  1  0  0  0
 63 65  1  0  0  0
 63144  1  0  0  0
 63145  1  0  0  0
 63146  1  0  0  0
 64147  1  0  0  0
 65148  1  0  0  0
 68 84  1  0  0  0
 71 72  2  0  0  0
 71 75  1  0  0  0
 71149  1  0  0  0
 72 76  1  0  0  0
 72150  1  0  0  0
 73 74  1  0  0  0
 73 75  2  0  0  0
 73151  1  0  0  0
 74 76  2  0  0  0
 74 85  1  0  0  0
 75 86  1  0  0  0
 76 87  1  0  0  0
 77 81  1  0  0  0
 77 85  1  0  0  0
 77 88  2  0  0  0
 78 83  1  0  0  0
 78 89  2  0  0  0
 78 81  1  0  0  0
 79 80  1  0  0  0
 79 81  1  0  0  0
 79152  1  0  0  0
 79153  1  0  0  0
 80 85  1  0  0  0
 80154  1  0  0  0
 80155  1  0  0  0
 81 82  1  0  0  0
 82156  1  0  0  0
 82157  1  0  0  0
 82158  1  0  0  0
 83 84  1  0  0  0
 83159  1  0  0  0
 83160  1  0  0  0
 84161  1  0  0  0
 84162  1  0  0  0
 86163  1  0  0  0
 86164  1  0  0  0
 87165  1  0  0  0
M  ISO  4   1 100  68 101  84 101  87 100
M  END
> <chiral flag>
0

> <version>
0

> <s_m_source_file>
/data/baiqing/PycharmProjects/Reinvent-master-3.2/result/LINK_invent/BTK/process_docking_weight1_custom_product_contain_oxygen_bond_distance_aromatic_linkinvent_7_9_3/rearranged_h_0075.sdf

> <i_m_source_file_index>
1

> <r_mmod_Potential_Energy-OPLS-2005>
312.996856689453

> <r_mmod_Stretch_Energy-OPLS-2005>
74.9487457275391

> <r_mmod_Bend_Energy-OPLS-2005>
175.552841186523

> <r_mmod_Torsional_Energy-OPLS-2005>
468.80126953125

> <r_mmod_Improper_Torsional_Energy-OPLS-2005>
17.6018009185791

> <r_mmod_Van_der_Waal_Energy-OPLS-2005>
164.23371887207

> <r_mmod_Electrostatic_Energy-OPLS-2005>
-398.751556396484

> <r_mmod_Solvation_Energy-OPLS-2005>
-250.423156738281

> <b_mmod_Minimization_Converged-OPLS-2005>
0

> <r_mmod_RMS_Derivative-OPLS-2005>
4.52637100219727

$$$$
1
                    3D
 Structure written by MMmdl.
160168  0  0  1  0            999 V2000
  -30.6620  -14.5113   20.5735 C   0  0  0  0  0  0
  -30.4322  -12.3256   19.4392 C   0  0  0  0  0  0
  -29.5031  -12.5077   18.2181 C   0  0  0  0  0  0
  -28.0237  -12.3590   18.6247 C   0  0  0  0  0  0
  -27.6619  -13.2044   19.8747 C   0  0  2  0  0  0
  -28.6985  -12.9864   21.0006 C   0  0  0  0  0  0
  -25.2600  -13.8154   20.5671 C   0  0  0  0  0  0
  -24.1846  -13.0440   20.9167 C   0  0  0  0  0  0
  -24.6389  -11.6901   20.8716 C   0  0  0  0  0  0
  -23.9045  -10.4294   21.0405 C   0  0  0  0  0  0
  -24.3601   -9.4209   21.9178 C   0  0  0  0  0  0
  -23.6278   -8.2245   22.0743 C   0  0  0  0  0  0
  -22.4261   -8.0270   21.3532 C   0  0  0  0  0  0
  -21.9894   -9.0256   20.4647 C   0  0  0  0  0  0
  -22.7211  -10.2141   20.3062 C   0  0  0  0  0  0
  -21.6854   -6.0726   22.5272 C   0  0  0  0  0  0
  -21.4021   -6.5637   23.8204 C   0  0  0  0  0  0
  -21.3658   -5.6788   24.9169 C   0  0  0  0  0  0
  -21.6045   -4.3052   24.7217 C   0  0  0  0  0  0
  -21.8820   -3.8135   23.4346 C   0  0  0  0  0  0
  -21.9192   -4.6953   22.3399 C   0  0  0  0  0  0
  -22.7874  -13.5255   21.1827 C   0  0  0  0  0  0
  -22.1657   -4.2135   21.0980 F   0  0  0  0  0  0
  -21.5622   -3.4537   25.7736 F   0  0  0  0  0  0
  -30.0332  -13.3053   20.4635 N   0  0  0  0  0  0
  -26.3020  -12.9313   20.3331 N   0  0  0  0  0  0
  -25.9314  -11.6475   20.5746 N   0  0  0  0  0  0
  -22.0516  -12.8258   22.0398 N   0  0  0  0  0  0
  -25.4353  -15.1873   20.4107 N   0  0  0  0  0  0
  -31.7652  -14.7373   20.0641 O   0  0  0  0  0  0
  -21.6627   -6.8868   21.4231 O   0  0  0  0  0  0
  -22.3563  -14.5558   20.6669 O   0  0  0  0  0  0
  -24.6168  -31.8642   23.2079 C   0  0  0  0  0  0
  -25.9042  -32.4804   23.8385 C   0  0  1  0  0  0
  -27.2321  -27.4060   20.1045 C   0  0  0  0  0  0
  -25.5880  -33.8605   24.2310 N   0  0  0  0  0  0
  -23.4088  -30.4870   21.5472 C   0  0  2  0  0  0
  -24.8595  -28.9514   20.1112 C   0  0  0  0  0  0
  -22.7439  -29.4632   22.4957 C   0  0  0  0  0  0
  -18.0279  -28.1381   22.8487 C   0  0  0  0  0  0
  -24.1482  -36.7317   23.2637 C   0  0  0  0  0  0
  -25.9414  -30.8226   21.3661 C   0  0  0  0  0  0
  -26.0213  -29.4552   20.7121 C   0  0  0  0  0  0
  -27.2148  -28.6891   20.7076 C   0  0  0  0  0  0
  -26.0576  -26.9252   19.4942 C   0  0  0  0  0  0
  -24.8733  -27.6868   19.4978 C   0  0  0  0  0  0
  -23.6208  -29.8197   20.1619 C   0  0  0  0  0  0
  -25.4101  -36.3102   24.0334 C   0  0  1  0  0  0
  -20.5876  -28.3671   23.1307 C   0  0  2  0  0  0
  -20.6757  -26.9394   22.5430 C   0  0  0  0  0  0
  -19.5748  -26.6379   21.5217 C   0  0  0  0  0  0
  -18.1924  -26.7927   22.1619 C   0  0  0  0  0  0
  -19.1533  -28.8843   23.2894 C   0  0  0  0  0  0
  -18.9458  -30.1445   23.8914 C   0  0  0  0  0  0
  -17.6459  -30.6574   24.0578 C   0  0  0  0  0  0
  -25.9031  -34.9463   23.5129 C   0  0  0  0  0  0
  -16.5351  -29.9082   23.6325 C   0  0  0  0  0  0
  -16.7270  -28.6505   23.0337 C   0  0  0  0  0  0
  -26.4464  -31.6593   25.0719 C   0  0  0  0  0  0
  -25.3737  -31.3747   26.1484 C   0  0  0  0  0  0
  -27.0277  -30.3018   24.6120 C   0  0  0  0  0  0
  -27.6053  -32.4312   25.7455 C   0  0  0  0  0  0
  -27.5584  -37.1801   24.8450 C   0  0  0  0  0  0
  -21.4163  -29.3019   22.3695 N   0  0  0  0  0  0
  -26.4289  -37.3783   23.9406 N   0  0  0  0  0  0
  -24.6740  -31.0721   22.0987 N   0  0  0  0  0  0
  -23.4196  -28.8177   23.3014 O   0  0  0  0  0  0
  -28.3336  -26.5738   20.1332 O   0  0  0  0  0  0
  -26.5615  -34.8922   22.4700 O   0  0  0  0  0  0
  -23.5349  -32.1397   23.7451 O   0  0  0  0  0  0
  -29.5301  -19.2035   21.5541 C   0  0  0  0  0  0
  -29.8412  -17.8531   21.8665 C   0  0  0  0  0  0
  -29.1636  -18.5652   19.2444 C   0  0  0  0  0  0
  -29.1617  -19.5757   20.2382 C   0  0  0  0  0  0
  -29.8172  -16.8408   20.8752 C   0  0  0  0  0  0
  -29.4789  -17.2206   19.5516 C   0  0  0  0  0  0
  -28.3514  -25.6924   21.1986 C   0  0  0  0  0  0
  -28.7147  -20.9516   19.8899 C   0  0  0  0  0  0
  -28.6653  -24.3665   21.2028 C   0  0  0  0  0  0
  -28.5974  -23.6150   22.5257 C   0  0  0  0  0  0
  -30.3146  -24.1189   19.2810 C   0  0  0  0  0  0
  -29.0844  -23.5203   19.9784 C   0  0  1  0  0  0
  -27.6417  -21.0808   19.1101 N   0  0  0  0  0  0
  -29.9817  -15.4622   21.2472 N   0  0  0  0  0  0
  -29.3445  -22.0747   20.3129 N   0  3  0  0  0  0
  -29.3873  -16.2854   18.5747 F   0  0  0  0  0  0
  -31.4761  -12.4374   19.1421 H   0  0  0  0  0  0
  -30.3462  -11.3133   19.8405 H   0  0  0  0  0  0
  -29.7508  -11.7783   17.4460 H   0  0  0  0  0  0
  -29.6649  -13.4908   17.7735 H   0  0  0  0  0  0
  -27.8431  -11.3026   18.8273 H   0  0  0  0  0  0
  -27.3734  -12.6214   17.7891 H   0  0  0  0  0  0
  -27.7046  -14.2516   19.5751 H   0  0  0  0  0  0
  -28.6793  -11.9481   21.3347 H   0  0  0  0  0  0
  -28.4414  -13.5738   21.8828 H   0  0  0  0  0  0
  -25.2766   -9.5676   22.4732 H   0  0  0  0  0  0
  -23.9986   -7.4648   22.7469 H   0  0  0  0  0  0
  -21.0812   -8.8785   19.8977 H   0  0  0  0  0  0
  -22.3666  -10.9681   19.6169 H   0  0  0  0  0  0
  -21.2026   -7.6148   23.9710 H   0  0  0  0  0  0
  -21.1475   -6.0517   25.9069 H   0  0  0  0  0  0
  -22.0602   -2.7593   23.2853 H   0  0  0  0  0  0
  -22.4131  -11.9919   22.4789 H   0  0  0  0  0  0
  -21.1150  -13.1304   22.2636 H   0  0  0  0  0  0
  -24.6696  -15.8435   20.5147 H   0  0  0  0  0  0
  -26.2867  -15.6201   20.0773 H   0  0  0  0  0  0
  -26.7114  -32.5511   23.1149 H   0  0  0  0  0  0
  -24.9992  -33.9753   25.0431 H   0  0  0  0  0  0
  -22.6985  -31.3044   21.4056 H   0  0  0  0  0  0
  -23.3714  -35.9681   23.3323 H   0  0  0  0  0  0
  -24.3574  -36.8901   22.2045 H   0  0  0  0  0  0
  -23.7272  -37.6546   23.6635 H   0  0  0  0  0  0
  -26.0569  -31.5878   20.5970 H   0  0  0  0  0  0
  -26.8279  -30.8776   21.9865 H   0  0  0  0  0  0
  -28.1095  -29.0649   21.1837 H   0  0  0  0  0  0
  -26.0560  -25.9465   19.0363 H   0  0  0  0  0  0
  -23.9802  -27.2920   19.0336 H   0  0  0  0  0  0
  -23.7314  -30.5955   19.4038 H   0  0  0  0  0  0
  -22.7447  -29.2413   19.8632 H   0  0  0  0  0  0
  -25.1273  -36.1970   25.0827 H   0  0  0  0  0  0
  -20.9970  -28.3248   24.1429 H   0  0  0  0  0  0
  -20.5627  -26.2288   23.3631 H   0  0  0  0  0  0
  -21.6633  -26.7400   22.1256 H   0  0  0  0  0  0
  -19.6908  -25.6295   21.1232 H   0  0  0  0  0  0
  -19.6698  -27.3209   20.6765 H   0  0  0  0  0  0
  -17.4195  -26.6681   21.4017 H   0  0  0  0  0  0
  -18.0315  -26.0069   22.9018 H   0  0  0  0  0  0
  -19.7928  -30.7259   24.2298 H   0  0  0  0  0  0
  -17.5005  -31.6251   24.5182 H   0  0  0  0  0  0
  -15.5353  -30.2992   23.7633 H   0  0  0  0  0  0
  -15.8670  -28.0837   22.7035 H   0  0  0  0  0  0
  -24.5892  -30.7096   25.7855 H   0  0  0  0  0  0
  -24.8950  -32.2927   26.4903 H   0  0  0  0  0  0
  -25.8089  -30.8949   27.0258 H   0  0  0  0  0  0
  -26.2828  -29.6792   24.1149 H   0  0  0  0  0  0
  -27.3995  -29.7246   25.4595 H   0  0  0  0  0  0
  -27.8687  -30.4309   23.9305 H   0  0  0  0  0  0
  -27.2676  -33.3590   26.2082 H   0  0  0  0  0  0
  -28.3813  -32.6909   25.0243 H   0  0  0  0  0  0
  -28.0774  -31.8411   26.5315 H   0  0  0  0  0  0
  -28.2606  -38.0092   24.7469 H   0  0  0  0  0  0
  -28.1070  -36.2622   24.6283 H   0  0  0  0  0  0
  -27.2316  -37.1461   25.8858 H   0  0  0  0  0  0
  -20.9335  -29.8754   21.6923 H   0  0  0  0  0  0
  -26.0176  -38.2858   24.1411 H   0  0  0  0  0  0
  -29.5307  -19.9422   22.3443 H   0  0  0  0  0  0
  -30.0771  -17.5925   22.8885 H   0  0  0  0  0  0
  -28.8877  -18.8075   18.2283 H   0  0  0  0  0  0
  -28.0650  -26.1958   22.1130 H   0  0  0  0  0  0
  -28.2796  -24.2640   23.3422 H   0  0  0  0  0  0
  -29.5746  -23.2114   22.7907 H   0  0  0  0  0  0
  -27.8831  -22.7934   22.4663 H   0  0  0  0  0  0
  -30.0684  -25.0610   18.7911 H   0  0  0  0  0  0
  -30.7027  -23.4484   18.5139 H   0  0  0  0  0  0
  -31.1187  -24.3182   19.9901 H   0  0  0  0  0  0
  -28.2552  -23.5739   19.2711 H   0  0  0  0  0  0
  -27.1175  -20.2581   18.8519 H   0  0  0  0  0  0
  -27.2790  -21.9769   18.8367 H   0  0  0  0  0  0
  -29.2475  -15.0995   21.8349 H   0  0  0  0  0  0
  -30.1319  -21.9142   20.9284 H   0  0  0  0  0  0
  1 25  1  0  0  0
  1 30  2  0  0  0
  1 84  1  0  0  0
  2  3  1  0  0  0
  2 25  1  0  0  0
  2 87  1  0  0  0
  2 88  1  0  0  0
  3  4  1  0  0  0
  3 89  1  0  0  0
  3 90  1  0  0  0
  4  5  1  0  0  0
  4 91  1  0  0  0
  4 92  1  0  0  0
  5  6  1  0  0  0
  5 26  1  0  0  0
  5 93  1  0  0  0
  6 25  1  0  0  0
  6 94  1  0  0  0
  6 95  1  0  0  0
  7  8  2  0  0  0
  7 26  1  0  0  0
  7 29  1  0  0  0
  8  9  1  0  0  0
  8 22  1  0  0  0
  9 10  1  0  0  0
  9 27  2  0  0  0
 10 11  2  0  0  0
 10 15  1  0  0  0
 11 12  1  0  0  0
 11 96  1  0  0  0
 12 13  2  0  0  0
 12 97  1  0  0  0
 13 14  1  0  0  0
 13 31  1  0  0  0
 14 15  2  0  0  0
 14 98  1  0  0  0
 15 99  1  0  0  0
 16 17  2  0  0  0
 16 21  1  0  0  0
 16 31  1  0  0  0
 17 18  1  0  0  0
 17100  1  0  0  0
 18 19  2  0  0  0
 18101  1  0  0  0
 19 20  1  0  0  0
 19 24  1  0  0  0
 20 21  2  0  0  0
 20102  1  0  0  0
 21 23  1  0  0  0
 22 28  1  0  0  0
 22 32  2  0  0  0
 26 27  1  0  0  0
 28103  1  0  0  0
 28104  1  0  0  0
 29105  1  0  0  0
 29106  1  0  0  0
 33 34  1  0  0  0
 33 66  1  0  0  0
 33 70  2  0  0  0
 34 36  1  0  0  0
 34 59  1  0  0  0
 34107  1  0  0  0
 35 44  2  0  0  0
 35 45  1  0  0  0
 35 68  1  0  0  0
 36 56  1  0  0  0
 36108  1  0  0  0
 37 39  1  0  0  0
 37 47  1  0  0  0
 37 66  1  0  0  0
 37109  1  0  0  0
 38 43  2  0  0  0
 38 46  1  0  0  0
 38 47  1  0  0  0
 39 64  1  0  0  0
 39 67  2  0  0  0
 40 52  1  0  0  0
 40 53  2  0  0  0
 40 58  1  0  0  0
 41110  1  0  0  0
 41111  1  0  0  0
 41112  1  0  0  0
 41 48  1  0  0  0
 42 43  1  0  0  0
 42 66  1  0  0  0
 42113  1  0  0  0
 42114  1  0  0  0
 43 44  1  0  0  0
 44115  1  0  0  0
 45 46  2  0  0  0
 45116  1  0  0  0
 46117  1  0  0  0
 47118  1  0  0  0
 47119  1  0  0  0
 48 56  1  0  0  0
 48 65  1  0  0  0
 48120  1  0  0  0
 49 50  1  0  0  0
 49 53  1  0  0  0
 49 64  1  0  0  0
 49121  1  0  0  0
 50 51  1  0  0  0
 50122  1  0  0  0
 50123  1  0  0  0
 51 52  1  0  0  0
 51124  1  0  0  0
 51125  1  0  0  0
 52126  1  0  0  0
 52127  1  0  0  0
 53 54  1  0  0  0
 54 55  2  0  0  0
 54128  1  0  0  0
 55 57  1  0  0  0
 55129  1  0  0  0
 56 69  2  0  0  0
 57 58  2  0  0  0
 57130  1  0  0  0
 58131  1  0  0  0
 59 60  1  0  0  0
 59 61  1  0  0  0
 59 62  1  0  0  0
 60132  1  0  0  0
 60133  1  0  0  0
 60134  1  0  0  0
 61135  1  0  0  0
 61136  1  0  0  0
 61137  1  0  0  0
 62138  1  0  0  0
 62139  1  0  0  0
 62140  1  0  0  0
 63 65  1  0  0  0
 63141  1  0  0  0
 63142  1  0  0  0
 63143  1  0  0  0
 64144  1  0  0  0
 65145  1  0  0  0
 68 77  1  0  0  0
 71 72  2  0  0  0
 71 74  1  0  0  0
 71146  1  0  0  0
 72 75  1  0  0  0
 72147  1  0  0  0
 73 74  2  0  0  0
 73 76  1  0  0  0
 73148  1  0  0  0
 74 78  1  0  0  0
 75 76  2  0  0  0
 75 84  1  0  0  0
 76 86  1  0  0  0
 77 79  2  0  0  0
 77149  1  0  0  0
 78 83  1  0  0  0
 78 85  2  0  0  0
 79 80  1  0  0  0
 79 82  1  0  0  0
 80150  1  0  0  0
 80151  1  0  0  0
 80152  1  0  0  0
 81153  1  0  0  0
 81154  1  0  0  0
 81155  1  0  0  0
 81 82  1  0  0  0
 82 85  1  0  0  0
 82156  1  0  0  0
 83157  1  0  0  0
 83158  1  0  0  0
 84159  1  0  0  0
 85160  1  0  0  0
M  CHG  1  85   1
M  ISO  4   1 100  68 101  77 101  84 100
M  END
> <chiral flag>
0

> <version>
0

> <s_m_source_file>
/data/baiqing/PycharmProjects/Reinvent-master-3.2/result/LINK_invent/BTK/process_docking_weight1_custom_product_contain_oxygen_bond_distance_aromatic_linkinvent_7_9_3/rearranged_h_0075.sdf

> <i_m_source_file_index>
2

> <r_mmod_Potential_Energy-OPLS-2005>
-321.803863525391

> <r_mmod_Stretch_Energy-OPLS-2005>
46.0246925354004

> <r_mmod_Bend_Energy-OPLS-2005>
107.921447753906

> <r_mmod_Torsional_Energy-OPLS-2005>
252.677017211914

> <r_mmod_Improper_Torsional_Energy-OPLS-2005>
4.80594253540039

> <r_mmod_Van_der_Waal_Energy-OPLS-2005>
147.079528808594

> <r_mmod_Electrostatic_Energy-OPLS-2005>
-487.857849121094

> <r_mmod_Solvation_Energy-OPLS-2005>
-412.42041015625

> <b_mmod_Minimization_Converged-OPLS-2005>
0

> <r_mmod_RMS_Derivative-OPLS-2005>
1.67477548122406

$$$$
2
                    3D
 Structure written by MMmdl.
154162  0  0  1  0            999 V2000
  -30.5870  -14.7444   20.4707 C   0  0  0  0  0  0
  -30.4445  -12.4565   19.4673 C   0  0  0  0  0  0
  -29.5119  -12.5074   18.2356 C   0  0  0  0  0  0
  -28.0374  -12.3278   18.6506 C   0  0  0  0  0  0
  -27.6453  -13.2243   19.8552 C   0  0  2  0  0  0
  -28.6916  -13.1385   20.9875 C   0  0  0  0  0  0
  -25.2528  -13.8175   20.5703 C   0  0  0  0  0  0
  -24.1815  -13.0430   20.9225 C   0  0  0  0  0  0
  -24.6402  -11.6908   20.8775 C   0  0  0  0  0  0
  -23.9073  -10.4291   21.0431 C   0  0  0  0  0  0
  -24.3618   -9.4195   21.9198 C   0  0  0  0  0  0
  -23.6287   -8.2237   22.0758 C   0  0  0  0  0  0
  -22.4276   -8.0278   21.3543 C   0  0  0  0  0  0
  -21.9917   -9.0264   20.4657 C   0  0  0  0  0  0
  -22.7246  -10.2140   20.3078 C   0  0  0  0  0  0
  -21.6844   -6.0744   22.5277 C   0  0  0  0  0  0
  -21.4014   -6.5646   23.8212 C   0  0  0  0  0  0
  -21.3663   -5.6798   24.9174 C   0  0  0  0  0  0
  -21.6038   -4.3059   24.7226 C   0  0  0  0  0  0
  -21.8811   -3.8156   23.4344 C   0  0  0  0  0  0
  -21.9187   -4.6973   22.3402 C   0  0  0  0  0  0
  -22.7832  -13.5229   21.1861 C   0  0  0  0  0  0
  -22.1648   -4.2158   21.0980 F   0  0  0  0  0  0
  -21.5633   -3.4537   25.7737 F   0  0  0  0  0  0
  -29.9930  -13.5042   20.4095 N   0  0  0  0  0  0
  -26.2958  -12.9374   20.3323 N   0  0  0  0  0  0
  -25.9338  -11.6526   20.5797 N   0  0  0  0  0  0
  -22.0465  -12.8245   22.0422 N   0  0  0  0  0  0
  -25.4184  -15.1903   20.4086 N   0  0  0  0  0  0
  -31.7776  -14.8780   20.1657 O   0  0  0  0  0  0
  -21.6624   -6.8884   21.4241 O   0  0  0  0  0  0
  -22.3535  -14.5534   20.6689 O   0  0  0  0  0  0
  -24.6311  -31.8562   23.1979 C   0  0  0  0  0  0
  -25.9135  -32.4767   23.8329 C   0  0  1  0  0  0
  -27.2262  -27.2631   20.1358 C   0  0  0  0  0  0
  -25.5921  -33.8570   24.2243 N   0  0  0  0  0  0
  -23.4277  -30.4776   21.5418 C   0  0  2  0  0  0
  -24.8755  -28.9195   20.1168 C   0  0  0  0  0  0
  -22.7503  -29.4609   22.4928 C   0  0  0  0  0  0
  -18.0295  -28.1402   22.8482 C   0  0  0  0  0  0
  -24.1488  -36.7283   23.2637 C   0  0  0  0  0  0
  -25.9732  -30.7688   21.3776 C   0  0  0  0  0  0
  -26.0467  -29.3900   20.7234 C   0  0  0  0  0  0
  -27.2246  -28.5758   20.7175 C   0  0  0  0  0  0
  -26.0315  -26.8582   19.5003 C   0  0  0  0  0  0
  -24.8726  -27.6607   19.4953 C   0  0  0  0  0  0
  -23.6466  -29.8079   20.1594 C   0  0  0  0  0  0
  -25.4120  -36.3076   24.0317 C   0  0  1  0  0  0
  -20.5899  -28.3711   23.1276 C   0  0  2  0  0  0
  -20.6788  -26.9431   22.5416 C   0  0  0  0  0  0
  -19.5765  -26.6394   21.5219 C   0  0  0  0  0  0
  -18.1941  -26.7938   22.1629 C   0  0  0  0  0  0
  -19.1549  -28.8872   23.2870 C   0  0  0  0  0  0
  -18.9466  -30.1471   23.8893 C   0  0  0  0  0  0
  -17.6468  -30.6600   24.0569 C   0  0  0  0  0  0
  -25.9055  -34.9449   23.5086 C   0  0  0  0  0  0
  -16.5357  -29.9102   23.6333 C   0  0  0  0  0  0
  -16.7283  -28.6521   23.0346 C   0  0  0  0  0  0
  -26.4501  -31.6603   25.0726 C   0  0  0  0  0  0
  -25.3705  -31.3771   26.1434 C   0  0  0  0  0  0
  -27.0351  -30.3018   24.6223 C   0  0  0  0  0  0
  -27.6049  -32.4355   25.7499 C   0  0  0  0  0  0
  -27.5581  -37.1798   24.8464 C   0  0  0  0  0  0
  -21.4211  -29.3053   22.3660 N   0  0  0  0  0  0
  -26.4296  -37.3774   23.9405 N   0  0  0  0  0  0
  -24.6967  -31.0524   22.0955 N   0  0  0  0  0  0
  -23.4199  -28.8159   23.3037 O   0  0  0  0  0  0
  -28.3443  -26.3971   20.1529 O   0  0  0  0  0  0
  -26.5640  -34.8925   22.4662 O   0  0  0  0  0  0
  -23.5459  -32.1388   23.7271 O   0  0  0  0  0  0
  -31.0402  -18.0209   20.8062 C   0  0  0  0  0  0
  -30.8216  -19.4568   20.7049 C   0  0  0  0  0  0
  -29.5446  -19.8840   20.4035 C   0  0  0  0  0  0
  -29.9247  -17.2291   20.5930 C   0  0  0  0  0  0
  -28.9087  -21.2649   20.0573 C   0  0  0  0  0  0
  -30.6722  -24.5560   20.5671 C   0  0  0  0  0  0
  -29.5243  -23.9169   18.4554 C   0  0  0  0  0  0
  -28.1781  -24.9147   20.3896 C   0  0  0  0  0  0
  -29.3926  -23.9182   19.9916 C   0  0  0  0  0  0
  -29.7473  -15.8331   20.6555 N   0  0  0  0  0  0
  -29.4371  -22.4634   20.5010 N   0  0  0  0  0  0
  -27.9093  -21.2826   19.3364 O   0  0  0  0  0  0
  -31.8193  -20.2962   20.8711 F   0  0  0  0  0  0
  -28.5858  -18.3777   20.2410 S   0  0  0  0  0  0
  -31.4816  -12.6045   19.1597 H   0  0  0  0  0  0
  -30.4092  -11.4748   19.9436 H   0  0  0  0  0  0
  -29.7943  -11.7366   17.5170 H   0  0  0  0  0  0
  -29.6299  -13.4648   17.7250 H   0  0  0  0  0  0
  -27.8954  -11.2783   18.9108 H   0  0  0  0  0  0
  -27.3796  -12.5214   17.8028 H   0  0  0  0  0  0
  -27.6418  -14.2479   19.4800 H   0  0  0  0  0  0
  -28.7329  -12.1299   21.4026 H   0  0  0  0  0  0
  -28.4265  -13.7976   21.8155 H   0  0  0  0  0  0
  -25.2759   -9.5663   22.4780 H   0  0  0  0  0  0
  -23.9974   -7.4633   22.7494 H   0  0  0  0  0  0
  -21.0833   -8.8803   19.8979 H   0  0  0  0  0  0
  -22.3702  -10.9691   19.6195 H   0  0  0  0  0  0
  -21.2002   -7.6151   23.9724 H   0  0  0  0  0  0
  -21.1497   -6.0527   25.9079 H   0  0  0  0  0  0
  -22.0590   -2.7619   23.2845 H   0  0  0  0  0  0
  -22.4043  -11.9889   22.4810 H   0  0  0  0  0  0
  -21.1105  -13.1320   22.2650 H   0  0  0  0  0  0
  -24.6410  -15.8331   20.5131 H   0  0  0  0  0  0
  -26.2525  -15.6364   20.0507 H   0  0  0  0  0  0
  -26.7201  -32.5414   23.1069 H   0  0  0  0  0  0
  -25.0057  -33.9712   25.0382 H   0  0  0  0  0  0
  -22.7229  -31.2990   21.3944 H   0  0  0  0  0  0
  -23.3751  -35.9616   23.3315 H   0  0  0  0  0  0
  -24.3562  -36.8894   22.2049 H   0  0  0  0  0  0
  -23.7242  -37.6485   23.6656 H   0  0  0  0  0  0
  -26.1100  -31.5282   20.6065 H   0  0  0  0  0  0
  -26.8508  -30.8188   22.0109 H   0  0  0  0  0  0
  -28.1237  -28.9352   21.1984 H   0  0  0  0  0  0
  -25.9735  -25.9063   18.9945 H   0  0  0  0  0  0
  -23.9774  -27.2964   19.0109 H   0  0  0  0  0  0
  -23.7740  -30.5840   19.4033 H   0  0  0  0  0  0
  -22.7641  -29.2424   19.8539 H   0  0  0  0  0  0
  -25.1306  -36.1921   25.0808 H   0  0  0  0  0  0
  -20.9984  -28.3292   24.1400 H   0  0  0  0  0  0
  -20.5699  -26.2322   23.3621 H   0  0  0  0  0  0
  -21.6652  -26.7466   22.1199 H   0  0  0  0  0  0
  -19.6927  -25.6300   21.1257 H   0  0  0  0  0  0
  -19.6706  -27.3203   20.6746 H   0  0  0  0  0  0
  -17.4209  -26.6683   21.4029 H   0  0  0  0  0  0
  -18.0345  -26.0090   22.9040 H   0  0  0  0  0  0
  -19.7943  -30.7289   24.2255 H   0  0  0  0  0  0
  -17.5024  -31.6278   24.5184 H   0  0  0  0  0  0
  -15.5358  -30.3005   23.7662 H   0  0  0  0  0  0
  -15.8681  -28.0846   22.7054 H   0  0  0  0  0  0
  -24.5867  -30.7141   25.7751 H   0  0  0  0  0  0
  -24.8908  -32.2954   26.4836 H   0  0  0  0  0  0
  -25.7993  -30.8950   27.0226 H   0  0  0  0  0  0
  -26.2948  -29.6769   24.1210 H   0  0  0  0  0  0
  -27.3992  -29.7286   25.4758 H   0  0  0  0  0  0
  -27.8841  -30.4304   23.9504 H   0  0  0  0  0  0
  -27.2646  -33.3657   26.2069 H   0  0  0  0  0  0
  -28.3856  -32.6919   25.0322 H   0  0  0  0  0  0
  -28.0720  -31.8484   26.5418 H   0  0  0  0  0  0
  -28.2604  -38.0091   24.7496 H   0  0  0  0  0  0
  -28.1065  -36.2612   24.6306 H   0  0  0  0  0  0
  -27.2287  -37.1473   25.8866 H   0  0  0  0  0  0
  -20.9403  -29.8755   21.6840 H   0  0  0  0  0  0
  -26.0169  -38.2847   24.1405 H   0  0  0  0  0  0
  -32.0203  -17.6312   21.0407 H   0  0  0  0  0  0
  -30.8164  -25.5702   20.1919 H   0  0  0  0  0  0
  -31.5659  -23.9875   20.3044 H   0  0  0  0  0  0
  -30.6282  -24.6213   21.6549 H   0  0  0  0  0  0
  -29.6369  -24.9312   18.0699 H   0  0  0  0  0  0
  -28.6421  -23.4924   17.9767 H   0  0  0  0  0  0
  -30.3918  -23.3447   18.1243 H   0  0  0  0  0  0
  -27.9834  -24.7991   21.4562 H   0  0  0  0  0  0
  -27.2836  -24.5364   19.8996 H   0  0  0  0  0  0
  -28.7878  -15.5466   20.7770 H   0  0  0  0  0  0
  -30.1721  -22.3232   21.1822 H   0  0  0  0  0  0
  1 25  1  0  0  0
  1 30  2  0  0  0
  1 80  1  0  0  0
  2  3  1  0  0  0
  2 25  1  0  0  0
  2 85  1  0  0  0
  2 86  1  0  0  0
  3  4  1  0  0  0
  3 87  1  0  0  0
  3 88  1  0  0  0
  4  5  1  0  0  0
  4 89  1  0  0  0
  4 90  1  0  0  0
  5  6  1  0  0  0
  5 26  1  0  0  0
  5 91  1  0  0  0
  6 25  1  0  0  0
  6 92  1  0  0  0
  6 93  1  0  0  0
  7  8  2  0  0  0
  7 26  1  0  0  0
  7 29  1  0  0  0
  8  9  1  0  0  0
  8 22  1  0  0  0
  9 10  1  0  0  0
  9 27  2  0  0  0
 10 11  2  0  0  0
 10 15  1  0  0  0
 11 12  1  0  0  0
 11 94  1  0  0  0
 12 13  2  0  0  0
 12 95  1  0  0  0
 13 14  1  0  0  0
 13 31  1  0  0  0
 14 15  2  0  0  0
 14 96  1  0  0  0
 15 97  1  0  0  0
 16 17  2  0  0  0
 16 21  1  0  0  0
 16 31  1  0  0  0
 17 18  1  0  0  0
 17 98  1  0  0  0
 18 19  2  0  0  0
 18 99  1  0  0  0
 19 20  1  0  0  0
 19 24  1  0  0  0
 20 21  2  0  0  0
 20100  1  0  0  0
 21 23  1  0  0  0
 22 28  1  0  0  0
 22 32  2  0  0  0
 26 27  1  0  0  0
 28101  1  0  0  0
 28102  1  0  0  0
 29103  1  0  0  0
 29104  1  0  0  0
 33 34  1  0  0  0
 33 66  1  0  0  0
 33 70  2  0  0  0
 34 36  1  0  0  0
 34 59  1  0  0  0
 34105  1  0  0  0
 35 44  2  0  0  0
 35 45  1  0  0  0
 35 68  1  0  0  0
 36 56  1  0  0  0
 36106  1  0  0  0
 37 39  1  0  0  0
 37 47  1  0  0  0
 37 66  1  0  0  0
 37107  1  0  0  0
 38 43  2  0  0  0
 38 46  1  0  0  0
 38 47  1  0  0  0
 39 64  1  0  0  0
 39 67  2  0  0  0
 40 52  1  0  0  0
 40 53  2  0  0  0
 40 58  1  0  0  0
 41108  1  0  0  0
 41109  1  0  0  0
 41110  1  0  0  0
 41 48  1  0  0  0
 42 43  1  0  0  0
 42 66  1  0  0  0
 42111  1  0  0  0
 42112  1  0  0  0
 43 44  1  0  0  0
 44113  1  0  0  0
 45 46  2  0  0  0
 45114  1  0  0  0
 46115  1  0  0  0
 47116  1  0  0  0
 47117  1  0  0  0
 48 56  1  0  0  0
 48 65  1  0  0  0
 48118  1  0  0  0
 49 50  1  0  0  0
 49 53  1  0  0  0
 49 64  1  0  0  0
 49119  1  0  0  0
 50 51  1  0  0  0
 50120  1  0  0  0
 50121  1  0  0  0
 51 52  1  0  0  0
 51122  1  0  0  0
 51123  1  0  0  0
 52124  1  0  0  0
 52125  1  0  0  0
 53 54  1  0  0  0
 54 55  2  0  0  0
 54126  1  0  0  0
 55 57  1  0  0  0
 55127  1  0  0  0
 56 69  2  0  0  0
 57 58  2  0  0  0
 57128  1  0  0  0
 58129  1  0  0  0
 59 60  1  0  0  0
 59 61  1  0  0  0
 59 62  1  0  0  0
 60130  1  0  0  0
 60131  1  0  0  0
 60132  1  0  0  0
 61133  1  0  0  0
 61134  1  0  0  0
 61135  1  0  0  0
 62136  1  0  0  0
 62137  1  0  0  0
 62138  1  0  0  0
 63 65  1  0  0  0
 63139  1  0  0  0
 63140  1  0  0  0
 63141  1  0  0  0
 64142  1  0  0  0
 65143  1  0  0  0
 68 78  1  0  0  0
 71 72  1  0  0  0
 71 74  2  0  0  0
 71144  1  0  0  0
 72 73  2  0  0  0
 72 83  1  0  0  0
 73 75  1  0  0  0
 73 84  1  0  0  0
 74 80  1  0  0  0
 74 84  1  0  0  0
 75 81  1  0  0  0
 75 82  2  0  0  0
 76145  1  0  0  0
 76146  1  0  0  0
 76147  1  0  0  0
 76 79  1  0  0  0
 77 79  1  0  0  0
 77148  1  0  0  0
 77149  1  0  0  0
 77150  1  0  0  0
 78 79  1  0  0  0
 78151  1  0  0  0
 78152  1  0  0  0
 79 81  1  0  0  0
 80153  1  0  0  0
 81154  1  0  0  0
M  ISO  4   1 100  68 101  78 101  80 100
M  END
> <chiral flag>
0

> <version>
0

> <s_m_source_file>
/data/baiqing/PycharmProjects/Reinvent-master-3.2/result/LINK_invent/BTK/process_docking_weight1_custom_product_contain_oxygen_bond_distance_aromatic_linkinvent_7_9_3/rearranged_h_0075.sdf

> <i_m_source_file_index>
3

> <r_mmod_Potential_Energy-OPLS-2005>
119.608108520508

> <r_mmod_Stretch_Energy-OPLS-2005>
116.096054077148

> <r_mmod_Bend_Energy-OPLS-2005>
180.653961181641

> <r_mmod_Torsional_Energy-OPLS-2005>
239.939010620117

> <r_mmod_Improper_Torsional_Energy-OPLS-2005>
6.47797250747681

> <r_mmod_Van_der_Waal_Energy-OPLS-2005>
113.739128112793

> <r_mmod_Electrostatic_Energy-OPLS-2005>
-399.013732910156

> <r_mmod_Solvation_Energy-OPLS-2005>
-220.008209228516

> <b_mmod_Minimization_Converged-OPLS-2005>
0

> <r_mmod_RMS_Derivative-OPLS-2005>
1.90061914920807

$$$$
3
                    3D
 Structure written by MMmdl.
172179  0  0  1  0            999 V2000
  -30.6635  -14.5174   20.5086 C   0  0  0  0  0  0
  -30.4196  -12.3119   19.4404 C   0  0  0  0  0  0
  -29.4980  -12.5067   18.2164 C   0  0  0  0  0  0
  -28.0166  -12.3716   18.6209 C   0  0  0  0  0  0
  -27.6595  -13.2114   19.8765 C   0  0  2  0  0  0
  -28.7016  -13.0112   21.0034 C   0  0  0  0  0  0
  -25.2575  -13.8182   20.5691 C   0  0  0  0  0  0
  -24.1841  -13.0449   20.9186 C   0  0  0  0  0  0
  -24.6409  -11.6913   20.8771 C   0  0  0  0  0  0
  -23.9081  -10.4300   21.0455 C   0  0  0  0  0  0
  -24.3634   -9.4204   21.9225 C   0  0  0  0  0  0
  -23.6297   -8.2242   22.0782 C   0  0  0  0  0  0
  -22.4279   -8.0297   21.3561 C   0  0  0  0  0  0
  -21.9940   -9.0275   20.4653 C   0  0  0  0  0  0
  -22.7275  -10.2148   20.3074 C   0  0  0  0  0  0
  -21.6846   -6.0753   22.5294 C   0  0  0  0  0  0
  -21.3993   -6.5652   23.8225 C   0  0  0  0  0  0
  -21.3663   -5.6805   24.9188 C   0  0  0  0  0  0
  -21.6045   -4.3067   24.7235 C   0  0  0  0  0  0
  -21.8817   -3.8157   23.4354 C   0  0  0  0  0  0
  -21.9181   -4.6978   22.3410 C   0  0  0  0  0  0
  -22.7854  -13.5239   21.1852 C   0  0  0  0  0  0
  -22.1661   -4.2167   21.0989 F   0  0  0  0  0  0
  -21.5632   -3.4545   25.7743 F   0  0  0  0  0  0
  -30.0327  -13.3115   20.4514 N   0  0  0  0  0  0
  -26.3016  -12.9358   20.3363 N   0  0  0  0  0  0
  -25.9329  -11.6523   20.5783 N   0  0  0  0  0  0
  -22.0488  -12.8216   22.0395 N   0  0  0  0  0  0
  -25.4292  -15.1905   20.4111 N   0  0  0  0  0  0
  -31.8006  -14.6969   20.0641 O   0  0  0  0  0  0
  -21.6626   -6.8907   21.4263 O   0  0  0  0  0  0
  -22.3557  -14.5557   20.6707 O   0  0  0  0  0  0
  -24.6132  -31.8666   23.2087 C   0  0  0  0  0  0
  -25.9041  -32.4808   23.8387 C   0  0  1  0  0  0
  -27.2344  -27.4166   20.1200 C   0  0  0  0  0  0
  -25.5907  -33.8610   24.2311 N   0  0  0  0  0  0
  -23.4035  -30.4895   21.5457 C   0  0  2  0  0  0
  -24.8538  -28.9503   20.1142 C   0  0  0  0  0  0
  -22.7396  -29.4657   22.4952 C   0  0  0  0  0  0
  -18.0262  -28.1383   22.8509 C   0  0  0  0  0  0
  -24.1487  -36.7294   23.2645 C   0  0  0  0  0  0
  -25.9344  -30.8284   21.3658 C   0  0  0  0  0  0
  -26.0121  -29.4615   20.7143 C   0  0  0  0  0  0
  -27.2082  -28.7038   20.7064 C   0  0  0  0  0  0
  -26.0652  -26.9248   19.5043 C   0  0  0  0  0  0
  -24.8763  -27.6829   19.5028 C   0  0  0  0  0  0
  -23.6141  -29.8166   20.1623 C   0  0  0  0  0  0
  -25.4108  -36.3083   24.0326 C   0  0  1  0  0  0
  -20.5862  -28.3675   23.1315 C   0  0  2  0  0  0
  -20.6751  -26.9409   22.5417 C   0  0  0  0  0  0
  -19.5729  -26.6396   21.5222 C   0  0  0  0  0  0
  -18.1902  -26.7927   22.1634 C   0  0  0  0  0  0
  -19.1520  -28.8839   23.2918 C   0  0  0  0  0  0
  -18.9451  -30.1448   23.8921 C   0  0  0  0  0  0
  -17.6449  -30.6587   24.0577 C   0  0  0  0  0  0
  -25.9038  -34.9463   23.5108 C   0  0  0  0  0  0
  -16.5347  -29.9085   23.6352 C   0  0  0  0  0  0
  -16.7259  -28.6505   23.0372 C   0  0  0  0  0  0
  -26.4502  -31.6601   25.0722 C   0  0  0  0  0  0
  -25.3774  -31.3657   26.1468 C   0  0  0  0  0  0
  -27.0392  -30.3047   24.6137 C   0  0  0  0  0  0
  -27.6045  -32.4362   25.7506 C   0  0  0  0  0  0
  -27.5577  -37.1780   24.8464 C   0  0  0  0  0  0
  -21.4119  -29.3056   22.3711 N   0  0  0  0  0  0
  -26.4282  -37.3788   23.9416 N   0  0  0  0  0  0
  -24.6679  -31.0771   22.0983 N   0  0  0  0  0  0
  -23.4149  -28.8184   23.3000 O   0  0  0  0  0  0
  -28.3958  -26.6663   20.1260 O   0  0  0  0  0  0
  -26.5622  -34.8924   22.4680 O   0  0  0  0  0  0
  -23.5324  -32.1428   23.7484 O   0  0  0  0  0  0
  -29.0183  -20.5059   20.7794 C   0  0  0  0  0  0
  -28.3430  -24.1679   20.0810 C   0  0  0  0  0  0
  -25.8466  -22.0829   19.0182 C   0  0  0  0  0  0
  -25.9398  -21.2638   21.4069 C   0  0  0  0  0  0
  -31.4699  -18.3960   21.1057 C   0  0  0  0  0  0
  -27.4737  -25.4450   22.1270 C   0  0  0  0  0  0
  -29.9107  -25.5154   21.5026 C   0  0  0  0  0  0
  -29.2194  -19.2847   18.6325 C   0  0  0  0  0  0
  -29.7975  -16.8115   20.0206 C   0  0  0  0  0  0
  -28.1527  -21.6253   20.1015 C   0  0  1  0  0  0
  -26.6409  -21.2433   20.0337 C   0  0  0  0  0  0
  -29.9815  -18.1718   20.7836 C   0  0  2  0  0  0
  -28.4783  -25.4596   20.9460 C   0  0  0  0  0  0
  -28.3221  -22.9687   20.7095 N   0  0  0  0  0  0
  -29.8652  -15.5643   20.8171 N   0  0  0  0  0  0
  -29.3968  -19.3764   20.0941 N   0  0  0  0  0  0
  -29.2955  -20.6576   21.9746 O   0  0  0  0  0  0
  -28.2812  -24.2587   18.8525 O   0  0  0  0  0  0
  -31.4677  -12.3956   19.1455 H   0  0  0  0  0  0
  -30.3037  -11.3053   19.8448 H   0  0  0  0  0  0
  -29.7386  -11.7787   17.4409 H   0  0  0  0  0  0
  -29.6706  -13.4892   17.7728 H   0  0  0  0  0  0
  -27.8157  -11.3159   18.8066 H   0  0  0  0  0  0
  -27.3753  -12.6594   17.7869 H   0  0  0  0  0  0
  -27.6944  -14.2562   19.5714 H   0  0  0  0  0  0
  -28.6755  -11.9819   21.3619 H   0  0  0  0  0  0
  -28.4684  -13.6351   21.8687 H   0  0  0  0  0  0
  -25.2796   -9.5646   22.4786 H   0  0  0  0  0  0
  -23.9994   -7.4625   22.7503 H   0  0  0  0  0  0
  -21.0877   -8.8808   19.8938 H   0  0  0  0  0  0
  -22.3782  -10.9692   19.6158 H   0  0  0  0  0  0
  -21.1977   -7.6160   23.9733 H   0  0  0  0  0  0
  -21.1492   -6.0536   25.9093 H   0  0  0  0  0  0
  -22.0588   -2.7616   23.2851 H   0  0  0  0  0  0
  -22.4095  -11.9847   22.4743 H   0  0  0  0  0  0
  -21.1108  -13.1247   22.2614 H   0  0  0  0  0  0
  -24.6634  -15.8460   20.5237 H   0  0  0  0  0  0
  -26.2790  -15.6293   20.0829 H   0  0  0  0  0  0
  -26.7088  -32.5548   23.1130 H   0  0  0  0  0  0
  -25.0060  -33.9790   25.0449 H   0  0  0  0  0  0
  -22.6925  -31.3066   21.4018 H   0  0  0  0  0  0
  -23.3770  -35.9602   23.3288 H   0  0  0  0  0  0
  -24.3558  -36.8959   22.2065 H   0  0  0  0  0  0
  -23.7224  -37.6464   23.6711 H   0  0  0  0  0  0
  -26.0580  -31.5957   20.5997 H   0  0  0  0  0  0
  -26.8132  -30.8748   21.9961 H   0  0  0  0  0  0
  -28.1055  -29.0926   21.1668 H   0  0  0  0  0  0
  -26.0788  -25.9551   19.0279 H   0  0  0  0  0  0
  -23.9877  -27.2871   19.0295 H   0  0  0  0  0  0
  -23.7132  -30.5879   19.3980 H   0  0  0  0  0  0
  -22.7413  -29.2289   19.8732 H   0  0  0  0  0  0
  -25.1282  -36.1925   25.0812 H   0  0  0  0  0  0
  -20.9985  -28.3267   24.1426 H   0  0  0  0  0  0
  -20.5679  -26.2284   23.3604 H   0  0  0  0  0  0
  -21.6617  -26.7449   22.1206 H   0  0  0  0  0  0
  -19.6887  -25.6322   21.1224 H   0  0  0  0  0  0
  -19.6644  -27.3228   20.6767 H   0  0  0  0  0  0
  -17.4173  -26.6713   21.4033 H   0  0  0  0  0  0
  -18.0290  -26.0044   22.9003 H   0  0  0  0  0  0
  -19.7929  -30.7268   24.2289 H   0  0  0  0  0  0
  -17.5011  -31.6268   24.5184 H   0  0  0  0  0  0
  -15.5350  -30.2998   23.7657 H   0  0  0  0  0  0
  -15.8658  -28.0827   22.7083 H   0  0  0  0  0  0
  -24.5936  -30.7032   25.7777 H   0  0  0  0  0  0
  -24.8981  -32.2796   26.4986 H   0  0  0  0  0  0
  -25.8130  -30.8754   27.0182 H   0  0  0  0  0  0
  -26.2952  -29.6714   24.1288 H   0  0  0  0  0  0
  -27.4276  -29.7371   25.4606 H   0  0  0  0  0  0
  -27.8726  -30.4375   23.9231 H   0  0  0  0  0  0
  -27.2629  -33.3662   26.2066 H   0  0  0  0  0  0
  -28.3865  -32.6930   25.0349 H   0  0  0  0  0  0
  -28.0713  -31.8514   26.5444 H   0  0  0  0  0  0
  -28.2550  -38.0130   24.7588 H   0  0  0  0  0  0
  -28.1120  -36.2652   24.6203 H   0  0  0  0  0  0
  -27.2297  -37.1336   25.8871 H   0  0  0  0  0  0
  -20.9262  -29.8765   21.6936 H   0  0  0  0  0  0
  -26.0163  -38.2838   24.1476 H   0  0  0  0  0  0
  -24.8363  -21.6915   18.8923 H   0  0  0  0  0  0
  -26.3248  -22.0744   18.0385 H   0  0  0  0  0  0
  -25.7550  -23.1220   19.3341 H   0  0  0  0  0  0
  -24.9143  -20.9017   21.3227 H   0  0  0  0  0  0
  -25.8981  -22.2698   21.8249 H   0  0  0  0  0  0
  -26.4481  -20.6260   22.1304 H   0  0  0  0  0  0
  -31.8849  -17.5507   21.6554 H   0  0  0  0  0  0
  -31.6226  -19.2866   21.7149 H   0  0  0  0  0  0
  -32.0594  -18.5128   20.1961 H   0  0  0  0  0  0
  -27.6737  -24.6241   22.8176 H   0  0  0  0  0  0
  -26.4472  -25.3274   21.7793 H   0  0  0  0  0  0
  -27.5263  -26.3679   22.7061 H   0  0  0  0  0  0
  -30.1153  -24.6845   22.1791 H   0  0  0  0  0  0
  -30.0760  -26.4390   22.0579 H   0  0  0  0  0  0
  -30.6532  -25.4791   20.7038 H   0  0  0  0  0  0
  -28.1892  -19.0257   18.3806 H   0  0  0  0  0  0
  -29.8710  -18.5471   18.1718 H   0  0  0  0  0  0
  -29.4899  -20.2029   18.1104 H   0  0  0  0  0  0
  -30.5078  -16.7482   19.1925 H   0  0  0  0  0  0
  -28.8075  -16.7976   19.5630 H   0  0  0  0  0  0
  -28.5045  -21.7337   19.0798 H   0  0  0  0  0  0
  -26.5842  -20.2139   19.6767 H   0  0  0  0  0  0
  -29.4494  -18.0679   21.7323 H   0  0  0  0  0  0
  -28.4299  -22.9697   21.7146 H   0  0  0  0  0  0
  -29.0020  -15.3060   21.2722 H   0  0  0  0  0  0
  1 25  1  0  0  0
  1 30  2  0  0  0
  1 85  1  0  0  0
  2  3  1  0  0  0
  2 25  1  0  0  0
  2 89  1  0  0  0
  2 90  1  0  0  0
  3  4  1  0  0  0
  3 91  1  0  0  0
  3 92  1  0  0  0
  4  5  1  0  0  0
  4 93  1  0  0  0
  4 94  1  0  0  0
  5  6  1  0  0  0
  5 26  1  0  0  0
  5 95  1  0  0  0
  6 25  1  0  0  0
  6 96  1  0  0  0
  6 97  1  0  0  0
  7  8  2  0  0  0
  7 26  1  0  0  0
  7 29  1  0  0  0
  8  9  1  0  0  0
  8 22  1  0  0  0
  9 10  1  0  0  0
  9 27  2  0  0  0
 10 11  2  0  0  0
 10 15  1  0  0  0
 11 12  1  0  0  0
 11 98  1  0  0  0
 12 13  2  0  0  0
 12 99  1  0  0  0
 13 14  1  0  0  0
 13 31  1  0  0  0
 14 15  2  0  0  0
 14100  1  0  0  0
 15101  1  0  0  0
 16 17  2  0  0  0
 16 21  1  0  0  0
 16 31  1  0  0  0
 17 18  1  0  0  0
 17102  1  0  0  0
 18 19  2  0  0  0
 18103  1  0  0  0
 19 20  1  0  0  0
 19 24  1  0  0  0
 20 21  2  0  0  0
 20104  1  0  0  0
 21 23  1  0  0  0
 22 28  1  0  0  0
 22 32  2  0  0  0
 26 27  1  0  0  0
 28105  1  0  0  0
 28106  1  0  0  0
 29107  1  0  0  0
 29108  1  0  0  0
 33 34  1  0  0  0
 33 66  1  0  0  0
 33 70  2  0  0  0
 34 36  1  0  0  0
 34 59  1  0  0  0
 34109  1  0  0  0
 35 44  2  0  0  0
 35 45  1  0  0  0
 35 68  1  0  0  0
 36 56  1  0  0  0
 36110  1  0  0  0
 37 39  1  0  0  0
 37 47  1  0  0  0
 37 66  1  0  0  0
 37111  1  0  0  0
 38 43  2  0  0  0
 38 46  1  0  0  0
 38 47  1  0  0  0
 39 64  1  0  0  0
 39 67  2  0  0  0
 40 52  1  0  0  0
 40 53  2  0  0  0
 40 58  1  0  0  0
 41112  1  0  0  0
 41113  1  0  0  0
 41114  1  0  0  0
 41 48  1  0  0  0
 42 43  1  0  0  0
 42 66  1  0  0  0
 42115  1  0  0  0
 42116  1  0  0  0
 43 44  1  0  0  0
 44117  1  0  0  0
 45 46  2  0  0  0
 45118  1  0  0  0
 46119  1  0  0  0
 47120  1  0  0  0
 47121  1  0  0  0
 48 56  1  0  0  0
 48 65  1  0  0  0
 48122  1  0  0  0
 49 50  1  0  0  0
 49 53  1  0  0  0
 49 64  1  0  0  0
 49123  1  0  0  0
 50 51  1  0  0  0
 50124  1  0  0  0
 50125  1  0  0  0
 51 52  1  0  0  0
 51126  1  0  0  0
 51127  1  0  0  0
 52128  1  0  0  0
 52129  1  0  0  0
 53 54  1  0  0  0
 54 55  2  0  0  0
 54130  1  0  0  0
 55 57  1  0  0  0
 55131  1  0  0  0
 56 69  2  0  0  0
 57 58  2  0  0  0
 57132  1  0  0  0
 58133  1  0  0  0
 59 60  1  0  0  0
 59 61  1  0  0  0
 59 62  1  0  0  0
 60134  1  0  0  0
 60135  1  0  0  0
 60136  1  0  0  0
 61137  1  0  0  0
 61138  1  0  0  0
 61139  1  0  0  0
 62140  1  0  0  0
 62141  1  0  0  0
 62142  1  0  0  0
 63 65  1  0  0  0
 63143  1  0  0  0
 63144  1  0  0  0
 63145  1  0  0  0
 64146  1  0  0  0
 65147  1  0  0  0
 68 83  1  0  0  0
 71 80  1  0  0  0
 71 86  1  0  0  0
 71 87  2  0  0  0
 72 83  1  0  0  0
 72 84  1  0  0  0
 72 88  2  0  0  0
 73148  1  0  0  0
 73149  1  0  0  0
 73150  1  0  0  0
 73 81  1  0  0  0
 74 81  1  0  0  0
 74151  1  0  0  0
 74152  1  0  0  0
 74153  1  0  0  0
 75154  1  0  0  0
 75155  1  0  0  0
 75156  1  0  0  0
 75 82  1  0  0  0
 76157  1  0  0  0
 76158  1  0  0  0
 76159  1  0  0  0
 76 83  1  0  0  0
 77 83  1  0  0  0
 77160  1  0  0  0
 77161  1  0  0  0
 77162  1  0  0  0
 78 86  1  0  0  0
 78163  1  0  0  0
 78164  1  0  0  0
 78165  1  0  0  0
 79 82  1  0  0  0
 79 85  1  0  0  0
 79166  1  0  0  0
 79167  1  0  0  0
 80 81  1  0  0  0
 80 84  1  0  0  0
 80168  1  0  0  0
 81169  1  0  0  0
 82 86  1  0  0  0
 82170  1  0  0  0
 84171  1  0  0  0
 85172  1  0  0  0
M  ISO  4   1 100  68 101  83 101  85 100
M  END
> <chiral flag>
0

> <version>
0

> <s_m_source_file>
/data/baiqing/PycharmProjects/Reinvent-master-3.2/result/LINK_invent/BTK/process_docking_weight1_custom_product_contain_oxygen_bond_distance_aromatic_linkinvent_7_9_3/rearranged_h_0075.sdf

> <i_m_source_file_index>
4

> <r_mmod_Potential_Energy-OPLS-2005>
-47.9819526672363

> <r_mmod_Stretch_Energy-OPLS-2005>
57.051513671875

> <r_mmod_Bend_Energy-OPLS-2005>
117.620346069336

> <r_mmod_Torsional_Energy-OPLS-2005>
312.891174316406

> <r_mmod_Improper_Torsional_Energy-OPLS-2005>
9.60887718200684

> <r_mmod_Van_der_Waal_Energy-OPLS-2005>
139.830825805664

> <r_mmod_Electrostatic_Energy-OPLS-2005>
-467.635375976562

> <r_mmod_Solvation_Energy-OPLS-2005>
-234.888916015625

> <b_mmod_Minimization_Converged-OPLS-2005>
0

> <r_mmod_RMS_Derivative-OPLS-2005>
2.75292587280273

$$$$
4
                    3D
 Structure written by MMmdl.
162171  0  0  1  0            999 V2000
  -30.7278  -14.4095   20.6171 C   0  0  0  0  0  0
  -30.4258  -12.2847   19.4130 C   0  0  0  0  0  0
  -29.4933  -12.5166   18.2072 C   0  0  0  0  0  0
  -28.0162  -12.3798   18.6214 C   0  0  0  0  0  0
  -27.6705  -13.2023   19.8904 C   0  0  2  0  0  0
  -28.7102  -12.9402   21.0038 C   0  0  0  0  0  0
  -25.2586  -13.8146   20.5633 C   0  0  0  0  0  0
  -24.1840  -13.0433   20.9178 C   0  0  0  0  0  0
  -24.6403  -11.6909   20.8762 C   0  0  0  0  0  0
  -23.9071  -10.4295   21.0433 C   0  0  0  0  0  0
  -24.3615   -9.4201   21.9208 C   0  0  0  0  0  0
  -23.6296   -8.2220   22.0760 C   0  0  0  0  0  0
  -22.4287   -8.0274   21.3530 C   0  0  0  0  0  0
  -21.9922   -9.0255   20.4639 C   0  0  0  0  0  0
  -22.7247  -10.2146   20.3074 C   0  0  0  0  0  0
  -21.6848   -6.0729   22.5270 C   0  0  0  0  0  0
  -21.4010   -6.5644   23.8205 C   0  0  0  0  0  0
  -21.3659   -5.6808   24.9160 C   0  0  0  0  0  0
  -21.6047   -4.3064   24.7216 C   0  0  0  0  0  0
  -21.8818   -3.8140   23.4343 C   0  0  0  0  0  0
  -21.9193   -4.6953   22.3406 C   0  0  0  0  0  0
  -22.7857  -13.5225   21.1835 C   0  0  0  0  0  0
  -22.1674   -4.2155   21.0971 F   0  0  0  0  0  0
  -21.5629   -3.4547   25.7721 F   0  0  0  0  0  0
  -30.0520  -13.2404   20.4654 N   0  0  0  0  0  0
  -26.3056  -12.9319   20.3425 N   0  0  0  0  0  0
  -25.9331  -11.6489   20.5814 N   0  0  0  0  0  0
  -22.0526  -12.8217   22.0402 N   0  0  0  0  0  0
  -25.4287  -15.1830   20.3882 N   0  0  0  0  0  0
  -31.8131  -14.6410   20.0744 O   0  0  0  0  0  0
  -21.6638   -6.8877   21.4243 O   0  0  0  0  0  0
  -22.3548  -14.5524   20.6686 O   0  0  0  0  0  0
  -24.6128  -31.8734   23.2143 C   0  0  0  0  0  0
  -25.9043  -32.4834   23.8433 C   0  0  1  0  0  0
  -27.2458  -27.4702   20.0660 C   0  0  0  0  0  0
  -25.5884  -33.8635   24.2354 N   0  0  0  0  0  0
  -23.3991  -30.4981   21.5555 C   0  0  2  0  0  0
  -24.8459  -28.9622   20.1211 C   0  0  0  0  0  0
  -22.7411  -29.4703   22.5047 C   0  0  0  0  0  0
  -18.0280  -28.1381   22.8534 C   0  0  0  0  0  0
  -24.1480  -36.7307   23.2646 C   0  0  0  0  0  0
  -25.9281  -30.8412   21.3692 C   0  0  0  0  0  0
  -26.0044  -29.4758   20.7202 C   0  0  0  0  0  0
  -27.2031  -28.7298   20.7014 C   0  0  0  0  0  0
  -26.0647  -26.9546   19.4869 C   0  0  0  0  0  0
  -24.8682  -27.6968   19.5098 C   0  0  0  0  0  0
  -23.6056  -29.8278   20.1717 C   0  0  0  0  0  0
  -25.4102  -36.3115   24.0342 C   0  0  1  0  0  0
  -20.5861  -28.3664   23.1362 C   0  0  2  0  0  0
  -20.6764  -26.9409   22.5431 C   0  0  0  0  0  0
  -19.5726  -26.6392   21.5246 C   0  0  0  0  0  0
  -18.1899  -26.7944   22.1650 C   0  0  0  0  0  0
  -19.1517  -28.8842   23.2942 C   0  0  0  0  0  0
  -18.9438  -30.1453   23.8935 C   0  0  0  0  0  0
  -17.6440  -30.6580   24.0582 C   0  0  0  0  0  0
  -25.9030  -34.9480   23.5146 C   0  0  0  0  0  0
  -16.5341  -29.9083   23.6321 C   0  0  0  0  0  0
  -16.7267  -28.6493   23.0368 C   0  0  0  0  0  0
  -26.4478  -31.6608   25.0765 C   0  0  0  0  0  0
  -25.3746  -31.3678   26.1507 C   0  0  0  0  0  0
  -27.0328  -30.3068   24.6127 C   0  0  0  0  0  0
  -27.6060  -32.4349   25.7505 C   0  0  0  0  0  0
  -27.5572  -37.1798   24.8471 C   0  0  0  0  0  0
  -21.4138  -29.3034   22.3770 N   0  0  0  0  0  0
  -26.4288  -37.3789   23.9407 N   0  0  0  0  0  0
  -24.6648  -31.0846   22.1049 N   0  0  0  0  0  0
  -23.4201  -28.8266   23.3095 O   0  0  0  0  0  0
  -28.4362  -26.7808   20.0360 O   0  0  0  0  0  0
  -26.5604  -34.8923   22.4715 O   0  0  0  0  0  0
  -23.5317  -32.1494   23.7527 O   0  0  0  0  0  0
  -31.0939  -18.8808   20.6485 C   0  0  0  0  0  0
  -31.2027  -17.5071   20.9447 C   0  0  0  0  0  0
  -28.7816  -17.3098   20.8844 C   0  0  0  0  0  0
  -29.8302  -19.4962   20.4578 C   0  0  0  0  0  0
  -30.0426  -16.7110   21.0612 C   0  0  0  0  0  0
  -28.6716  -18.6759   20.5673 C   0  0  0  0  0  0
  -28.5898  -24.6134   18.8617 C   0  0  0  0  0  0
  -30.4665  -22.8854   18.9132 C   0  0  0  0  0  0
  -28.8311  -23.0864   20.8932 C   0  0  0  0  0  0
  -30.9042  -21.6324   19.6914 C   0  0  0  0  0  0
  -28.5302  -21.6179   20.5612 C   0  0  0  0  0  0
  -29.5608  -23.8325   19.7474 C   0  0  0  0  0  0
  -28.7876  -26.1254   18.8130 C   0  0  0  0  0  0
  -27.6809  -24.0323   18.1978 N   0  0  0  0  0  0
  -29.7396  -20.8841   20.1769 N   0  0  0  0  0  0
  -30.0904  -15.3263   21.3616 N   0  0  0  0  0  0
  -27.4280  -19.1720   20.3461 F   0  0  0  0  0  0
  -31.4706  -12.3814   19.1101 H   0  0  0  0  0  0
  -30.3196  -11.2671   19.7913 H   0  0  0  0  0  0
  -29.7253  -11.8075   17.4105 H   0  0  0  0  0  0
  -29.6590  -13.5134   17.7950 H   0  0  0  0  0  0
  -27.8150  -11.3230   18.7996 H   0  0  0  0  0  0
  -27.3649  -12.6746   17.7960 H   0  0  0  0  0  0
  -27.7312  -14.2563   19.6208 H   0  0  0  0  0  0
  -28.6751  -11.8928   21.3061 H   0  0  0  0  0  0
  -28.4659  -13.5018   21.9070 H   0  0  0  0  0  0
  -25.2786   -9.5681   22.4769 H   0  0  0  0  0  0
  -24.0030   -7.4612   22.7478 H   0  0  0  0  0  0
  -21.0860   -8.8763   19.8933 H   0  0  0  0  0  0
  -22.3715  -10.9674   19.6172 H   0  0  0  0  0  0
  -21.2006   -7.6152   23.9703 H   0  0  0  0  0  0
  -21.1490   -6.0533   25.9074 H   0  0  0  0  0  0
  -22.0596   -2.7605   23.2832 H   0  0  0  0  0  0
  -22.4181  -11.9885   22.4781 H   0  0  0  0  0  0
  -21.1140  -13.1205   22.2617 H   0  0  0  0  0  0
  -24.6360  -15.8186   20.4052 H   0  0  0  0  0  0
  -26.2389  -15.5793   19.9309 H   0  0  0  0  0  0
  -26.7127  -32.5552   23.1207 H   0  0  0  0  0  0
  -25.0009  -33.9820   25.0486 H   0  0  0  0  0  0
  -22.6814  -31.3097   21.4169 H   0  0  0  0  0  0
  -23.3739  -35.9635   23.3320 H   0  0  0  0  0  0
  -24.3572  -36.8925   22.2056 H   0  0  0  0  0  0
  -23.7244  -37.6518   23.6668 H   0  0  0  0  0  0
  -26.0420  -31.6073   20.6010 H   0  0  0  0  0  0
  -26.8165  -30.8941   21.9852 H   0  0  0  0  0  0
  -28.1020  -29.1300   21.1510 H   0  0  0  0  0  0
  -26.0558  -25.9854   19.0120 H   0  0  0  0  0  0
  -23.9763  -27.2919   19.0510 H   0  0  0  0  0  0
  -23.7078  -30.6022   19.4100 H   0  0  0  0  0  0
  -22.7300  -29.2427   19.8836 H   0  0  0  0  0  0
  -25.1274  -36.1985   25.0833 H   0  0  0  0  0  0
  -20.9970  -28.3241   24.1486 H   0  0  0  0  0  0
  -20.5711  -26.2273   23.3610 H   0  0  0  0  0  0
  -21.6637  -26.7461   22.1197 H   0  0  0  0  0  0
  -19.6890  -25.6318   21.1244 H   0  0  0  0  0  0
  -19.6665  -27.3235   20.6803 H   0  0  0  0  0  0
  -17.4188  -26.6757   21.4040 H   0  0  0  0  0  0
  -18.0246  -26.0072   22.9017 H   0  0  0  0  0  0
  -19.7913  -30.7272   24.2335 H   0  0  0  0  0  0
  -17.4988  -31.6283   24.5164 H   0  0  0  0  0  0
  -15.5337  -30.2992   23.7619 H   0  0  0  0  0  0
  -15.8677  -28.0816   22.7064 H   0  0  0  0  0  0
  -24.5939  -30.7001   25.7835 H   0  0  0  0  0  0
  -24.8883  -32.2802   26.4979 H   0  0  0  0  0  0
  -25.8113  -30.8846   27.0255 H   0  0  0  0  0  0
  -26.2869  -29.6810   24.1202 H   0  0  0  0  0  0
  -27.4168  -29.7330   25.4571 H   0  0  0  0  0  0
  -27.8672  -30.4431   23.9234 H   0  0  0  0  0  0
  -27.2682  -33.3642   26.2114 H   0  0  0  0  0  0
  -28.3815  -32.6942   25.0282 H   0  0  0  0  0  0
  -28.0793  -31.8475   26.5385 H   0  0  0  0  0  0
  -28.2598  -38.0088   24.7493 H   0  0  0  0  0  0
  -28.1061  -36.2618   24.6313 H   0  0  0  0  0  0
  -27.2294  -37.1467   25.8880 H   0  0  0  0  0  0
  -20.9308  -29.8690   21.6934 H   0  0  0  0  0  0
  -26.0185  -38.2874   24.1409 H   0  0  0  0  0  0
  -32.0067  -19.4520   20.5857 H   0  0  0  0  0  0
  -32.1835  -17.0732   21.0838 H   0  0  0  0  0  0
  -27.8792  -16.7226   20.9646 H   0  0  0  0  0  0
  -29.9581  -22.5559   18.0052 H   0  0  0  0  0  0
  -31.3469  -23.4353   18.5731 H   0  0  0  0  0  0
  -29.4523  -23.1186   21.7899 H   0  0  0  0  0  0
  -27.9106  -23.6027   21.1709 H   0  0  0  0  0  0
  -31.5391  -21.9114   20.5351 H   0  0  0  0  0  0
  -31.5031  -21.0065   19.0264 H   0  0  0  0  0  0
  -27.8018  -21.5551   19.7515 H   0  0  0  0  0  0
  -28.0719  -21.1646   21.4429 H   0  0  0  0  0  0
  -30.2116  -24.5586   20.2368 H   0  0  0  0  0  0
  -28.2596  -26.5452   17.9555 H   0  0  0  0  0  0
  -29.8420  -26.3280   18.6235 H   0  0  0  0  0  0
  -27.7148  -23.0293   18.3384 H   0  0  0  0  0  0
  -29.2718  -14.9519   21.8157 H   0  0  0  0  0  0
  1 25  1  0  0  0
  1 30  2  0  0  0
  1 86  1  0  0  0
  2  3  1  0  0  0
  2 25  1  0  0  0
  2 88  1  0  0  0
  2 89  1  0  0  0
  3  4  1  0  0  0
  3 90  1  0  0  0
  3 91  1  0  0  0
  4  5  1  0  0  0
  4 92  1  0  0  0
  4 93  1  0  0  0
  5  6  1  0  0  0
  5 26  1  0  0  0
  5 94  1  0  0  0
  6 25  1  0  0  0
  6 95  1  0  0  0
  6 96  1  0  0  0
  7  8  2  0  0  0
  7 26  1  0  0  0
  7 29  1  0  0  0
  8  9  1  0  0  0
  8 22  1  0  0  0
  9 10  1  0  0  0
  9 27  2  0  0  0
 10 11  2  0  0  0
 10 15  1  0  0  0
 11 12  1  0  0  0
 11 97  1  0  0  0
 12 13  2  0  0  0
 12 98  1  0  0  0
 13 14  1  0  0  0
 13 31  1  0  0  0
 14 15  2  0  0  0
 14 99  1  0  0  0
 15100  1  0  0  0
 16 17  2  0  0  0
 16 21  1  0  0  0
 16 31  1  0  0  0
 17 18  1  0  0  0
 17101  1  0  0  0
 18 19  2  0  0  0
 18102  1  0  0  0
 19 20  1  0  0  0
 19 24  1  0  0  0
 20 21  2  0  0  0
 20103  1  0  0  0
 21 23  1  0  0  0
 22 28  1  0  0  0
 22 32  2  0  0  0
 26 27  1  0  0  0
 28104  1  0  0  0
 28105  1  0  0  0
 29106  1  0  0  0
 29107  1  0  0  0
 33 34  1  0  0  0
 33 66  1  0  0  0
 33 70  2  0  0  0
 34 36  1  0  0  0
 34 59  1  0  0  0
 34108  1  0  0  0
 35 44  2  0  0  0
 35 45  1  0  0  0
 35 68  1  0  0  0
 36 56  1  0  0  0
 36109  1  0  0  0
 37 39  1  0  0  0
 37 47  1  0  0  0
 37 66  1  0  0  0
 37110  1  0  0  0
 38 43  2  0  0  0
 38 46  1  0  0  0
 38 47  1  0  0  0
 39 64  1  0  0  0
 39 67  2  0  0  0
 40 52  1  0  0  0
 40 53  2  0  0  0
 40 58  1  0  0  0
 41111  1  0  0  0
 41112  1  0  0  0
 41113  1  0  0  0
 41 48  1  0  0  0
 42 43  1  0  0  0
 42 66  1  0  0  0
 42114  1  0  0  0
 42115  1  0  0  0
 43 44  1  0  0  0
 44116  1  0  0  0
 45 46  2  0  0  0
 45117  1  0  0  0
 46118  1  0  0  0
 47119  1  0  0  0
 47120  1  0  0  0
 48 56  1  0  0  0
 48 65  1  0  0  0
 48121  1  0  0  0
 49 50  1  0  0  0
 49 53  1  0  0  0
 49 64  1  0  0  0
 49122  1  0  0  0
 50 51  1  0  0  0
 50123  1  0  0  0
 50124  1  0  0  0
 51 52  1  0  0  0
 51125  1  0  0  0
 51126  1  0  0  0
 52127  1  0  0  0
 52128  1  0  0  0
 53 54  1  0  0  0
 54 55  2  0  0  0
 54129  1  0  0  0
 55 57  1  0  0  0
 55130  1  0  0  0
 56 69  2  0  0  0
 57 58  2  0  0  0
 57131  1  0  0  0
 58132  1  0  0  0
 59 60  1  0  0  0
 59 61  1  0  0  0
 59 62  1  0  0  0
 60133  1  0  0  0
 60134  1  0  0  0
 60135  1  0  0  0
 61136  1  0  0  0
 61137  1  0  0  0
 61138  1  0  0  0
 62139  1  0  0  0
 62140  1  0  0  0
 62141  1  0  0  0
 63 65  1  0  0  0
 63142  1  0  0  0
 63143  1  0  0  0
 63144  1  0  0  0
 64145  1  0  0  0
 65146  1  0  0  0
 68 83  1  0  0  0
 71 72  2  0  0  0
 71 74  1  0  0  0
 71147  1  0  0  0
 72 75  1  0  0  0
 72148  1  0  0  0
 73 75  2  0  0  0
 73 76  1  0  0  0
 73149  1  0  0  0
 74 76  2  0  0  0
 74 85  1  0  0  0
 75 86  1  0  0  0
 76 87  1  0  0  0
 77 83  1  0  0  0
 77 84  2  0  0  0
 77 82  1  0  0  0
 78 80  1  0  0  0
 78 82  1  0  0  0
 78150  1  0  0  0
 78151  1  0  0  0
 79 81  1  0  0  0
 79 82  1  0  0  0
 79152  1  0  0  0
 79153  1  0  0  0
 80 85  1  0  0  0
 80154  1  0  0  0
 80155  1  0  0  0
 81 85  1  0  0  0
 81156  1  0  0  0
 81157  1  0  0  0
 82158  1  0  0  0
 83159  1  0  0  0
 83160  1  0  0  0
 84161  1  0  0  0
 86162  1  0  0  0
M  ISO  4   1 100  68 101  83 101  86 100
M  END
> <chiral flag>
0

> <version>
0

> <s_m_source_file>
/data/baiqing/PycharmProjects/Reinvent-master-3.2/result/LINK_invent/BTK/process_docking_weight1_custom_product_contain_oxygen_bond_distance_aromatic_linkinvent_7_9_3/rearranged_h_0075.sdf

> <i_m_source_file_index>
5

> <r_mmod_Potential_Energy-OPLS-2005>
31.134033203125

> <r_mmod_Stretch_Energy-OPLS-2005>
37.3296432495117

> <r_mmod_Bend_Energy-OPLS-2005>
105.530197143555

> <r_mmod_Torsional_Energy-OPLS-2005>
282.168212890625

> <r_mmod_Improper_Torsional_Energy-OPLS-2005>
5.9000186920166

> <r_mmod_Van_der_Waal_Energy-OPLS-2005>
175.24528503418

> <r_mmod_Electrostatic_Energy-OPLS-2005>
-365.002410888672

> <r_mmod_Solvation_Energy-OPLS-2005>
-218.08772277832

> <b_mmod_Minimization_Converged-OPLS-2005>
0

> <r_mmod_RMS_Derivative-OPLS-2005>
3.47257518768311

$$$$
5
                    3D
 Structure written by MMmdl.
157166  0  0  1  0            999 V2000
  -30.8085  -14.4084   20.4565 C   0  0  0  0  0  0
  -30.3728  -12.2437   19.4345 C   0  0  0  0  0  0
  -29.4651  -12.4306   18.2074 C   0  0  0  0  0  0
  -27.9895  -12.3285   18.6288 C   0  0  0  0  0  0
  -27.6417  -13.2191   19.8564 C   0  0  2  0  0  0
  -28.6954  -13.0961   20.9806 C   0  0  0  0  0  0
  -25.2510  -13.8221   20.5768 C   0  0  0  0  0  0
  -24.1783  -13.0482   20.9276 C   0  0  0  0  0  0
  -24.6343  -11.6925   20.8806 C   0  0  0  0  0  0
  -23.9007  -10.4297   21.0422 C   0  0  0  0  0  0
  -24.3572   -9.4195   21.9182 C   0  0  0  0  0  0
  -23.6246   -8.2233   22.0727 C   0  0  0  0  0  0
  -22.4235   -8.0284   21.3526 C   0  0  0  0  0  0
  -21.9866   -9.0255   20.4638 C   0  0  0  0  0  0
  -22.7180  -10.2146   20.3043 C   0  0  0  0  0  0
  -21.6849   -6.0730   22.5259 C   0  0  0  0  0  0
  -21.4027   -6.5619   23.8208 C   0  0  0  0  0  0
  -21.3671   -5.6756   24.9171 C   0  0  0  0  0  0
  -21.6047   -4.3030   24.7201 C   0  0  0  0  0  0
  -21.8824   -3.8119   23.4321 C   0  0  0  0  0  0
  -21.9205   -4.6948   22.3385 C   0  0  0  0  0  0
  -22.7810  -13.5294   21.1907 C   0  0  0  0  0  0
  -22.1667   -4.2134   21.0963 F   0  0  0  0  0  0
  -21.5606   -3.4506   25.7713 F   0  0  0  0  0  0
  -30.0189  -13.3083   20.3835 N   0  0  0  0  0  0
  -26.2924  -12.9395   20.3375 N   0  0  0  0  0  0
  -25.9264  -11.6550   20.5843 N   0  0  0  0  0  0
  -22.0418  -12.8270   22.0436 N   0  0  0  0  0  0
  -25.4246  -15.1950   20.4238 N   0  0  0  0  0  0
  -32.0143  -14.2977   20.2484 O   0  0  0  0  0  0
  -21.6632   -6.8866   21.4217 O   0  0  0  0  0  0
  -22.3510  -14.5588   20.6721 O   0  0  0  0  0  0
  -24.6087  -31.8718   23.2132 C   0  0  0  0  0  0
  -25.8978  -32.4853   23.8416 C   0  0  1  0  0  0
  -27.2026  -27.4725   20.0786 C   0  0  0  0  0  0
  -25.5840  -33.8640   24.2344 N   0  0  0  0  0  0
  -23.3945  -30.4997   21.5535 C   0  0  2  0  0  0
  -24.8339  -28.9918   20.0962 C   0  0  0  0  0  0
  -22.7401  -29.4672   22.4998 C   0  0  0  0  0  0
  -18.0272  -28.1354   22.8476 C   0  0  0  0  0  0
  -24.1464  -36.7335   23.2646 C   0  0  0  0  0  0
  -25.9165  -30.8640   21.3446 C   0  0  0  0  0  0
  -25.9977  -29.5036   20.6878 C   0  0  0  0  0  0
  -27.1947  -28.7537   20.6674 C   0  0  0  0  0  0
  -26.0359  -26.9982   19.4378 C   0  0  0  0  0  0
  -24.8462  -27.7396   19.4647 C   0  0  0  0  0  0
  -23.5921  -29.8459   20.1606 C   0  0  0  0  0  0
  -25.4090  -36.3137   24.0339 C   0  0  1  0  0  0
  -20.5857  -28.3631   23.1294 C   0  0  2  0  0  0
  -20.6732  -26.9370   22.5392 C   0  0  0  0  0  0
  -19.5737  -26.6377   21.5148 C   0  0  0  0  0  0
  -18.1919  -26.7901   22.1576 C   0  0  0  0  0  0
  -19.1521  -28.8812   23.2890 C   0  0  0  0  0  0
  -18.9458  -30.1398   23.8936 C   0  0  0  0  0  0
  -17.6467  -30.6566   24.0565 C   0  0  0  0  0  0
  -25.9021  -34.9495   23.5160 C   0  0  0  0  0  0
  -16.5350  -29.9088   23.6288 C   0  0  0  0  0  0
  -16.7262  -28.6479   23.0346 C   0  0  0  0  0  0
  -26.4428  -31.6621   25.0719 C   0  0  0  0  0  0
  -25.3742  -31.3711   26.1507 C   0  0  0  0  0  0
  -27.0204  -30.3095   24.5940 C   0  0  0  0  0  0
  -27.6020  -32.4339   25.7453 C   0  0  0  0  0  0
  -27.5556  -37.1852   24.8475 C   0  0  0  0  0  0
  -21.4132  -29.3021   22.3736 N   0  0  0  0  0  0
  -26.4291  -37.3789   23.9391 N   0  0  0  0  0  0
  -24.6604  -31.0880   22.0989 N   0  0  0  0  0  0
  -23.4210  -28.8216   23.3011 O   0  0  0  0  0  0
  -28.3078  -26.6639   20.1732 O   0  0  0  0  0  0
  -26.5609  -34.8926   22.4736 O   0  0  0  0  0  0
  -23.5282  -32.1423   23.7563 O   0  0  0  0  0  0
  -28.9636  -18.2898   19.3047 C   0  0  0  0  0  0
  -28.4039  -19.5832   19.1837 C   0  0  0  0  0  0
  -29.5800  -20.2752   21.1970 C   0  0  0  0  0  0
  -29.8744  -18.0044   20.3500 C   0  0  0  0  0  0
  -28.7604  -20.6057   20.0969 C   0  0  0  0  0  0
  -30.1033  -18.9872   21.3420 C   0  0  0  0  0  0
  -29.2390  -24.0093   19.0620 C   0  0  0  0  0  0
  -30.7844  -16.8484   20.2731 C   0  0  0  0  0  0
  -29.1422  -22.5331   18.7435 C   0  0  0  0  0  0
  -28.2505  -22.9004   20.9450 C   0  0  0  0  0  0
  -28.9146  -24.2411   20.5274 C   0  0  2  0  0  0
  -27.9833  -25.4241   20.8276 C   0  0  0  0  0  0
  -28.3818  -21.9344   19.8414 N   0  0  0  0  0  0
  -30.2035  -15.6155   20.4751 N   0  0  0  0  0  0
  -29.5899  -24.8772   18.2555 O   0  0  0  0  0  0
  -30.9213  -18.7413   22.3950 F   0  0  0  0  0  0
  -32.3801  -17.2669   19.8786 S   0  0  0  0  0  0
  -31.4190  -12.2558   19.1209 H   0  0  0  0  0  0
  -30.2157  -11.2664   19.8981 H   0  0  0  0  0  0
  -29.6819  -11.6655   17.4602 H   0  0  0  0  0  0
  -29.6606  -13.3947   17.7322 H   0  0  0  0  0  0
  -27.7975  -11.2793   18.8673 H   0  0  0  0  0  0
  -27.3387  -12.5712   17.7873 H   0  0  0  0  0  0
  -27.6590  -14.2490   19.5021 H   0  0  0  0  0  0
  -28.6520  -12.1065   21.4374 H   0  0  0  0  0  0
  -28.5012  -13.8091   21.7828 H   0  0  0  0  0  0
  -25.2706   -9.5663   22.4775 H   0  0  0  0  0  0
  -23.9968   -7.4611   22.7417 H   0  0  0  0  0  0
  -21.0793   -8.8753   19.8950 H   0  0  0  0  0  0
  -22.3606  -10.9683   19.6167 H   0  0  0  0  0  0
  -21.2013   -7.6122   23.9725 H   0  0  0  0  0  0
  -21.1497   -6.0478   25.9081 H   0  0  0  0  0  0
  -22.0593   -2.7571   23.2841 H   0  0  0  0  0  0
  -22.4034  -11.9920   22.4794 H   0  0  0  0  0  0
  -21.1042  -13.1333   22.2647 H   0  0  0  0  0  0
  -24.6548  -15.8462   20.5363 H   0  0  0  0  0  0
  -26.2611  -15.6327   20.0585 H   0  0  0  0  0  0
  -26.7059  -32.5578   23.1213 H   0  0  0  0  0  0
  -24.9913  -33.9793   25.0429 H   0  0  0  0  0  0
  -22.6801  -31.3159   21.4266 H   0  0  0  0  0  0
  -23.3657  -35.9748   23.3438 H   0  0  0  0  0  0
  -24.3503  -36.8803   22.2027 H   0  0  0  0  0  0
  -23.7301  -37.6620   23.6558 H   0  0  0  0  0  0
  -25.9961  -31.6350   20.5753 H   0  0  0  0  0  0
  -26.8178  -30.9328   21.9420 H   0  0  0  0  0  0
  -28.0957  -29.1414   21.1197 H   0  0  0  0  0  0
  -26.0283  -26.0429   18.9306 H   0  0  0  0  0  0
  -23.9535  -27.3505   18.9936 H   0  0  0  0  0  0
  -23.6891  -30.6293   19.4075 H   0  0  0  0  0  0
  -22.7162  -29.2636   19.8649 H   0  0  0  0  0  0
  -25.1265  -36.2038   25.0825 H   0  0  0  0  0  0
  -20.9921  -28.3169   24.1421 H   0  0  0  0  0  0
  -20.5473  -26.2274   23.3585 H   0  0  0  0  0  0
  -21.6627  -26.7339   22.1292 H   0  0  0  0  0  0
  -19.6901  -25.6288   21.1176 H   0  0  0  0  0  0
  -19.6667  -27.3176   20.6665 H   0  0  0  0  0  0
  -17.4166  -26.6615   21.4004 H   0  0  0  0  0  0
  -18.0388  -26.0020   22.8957 H   0  0  0  0  0  0
  -19.7930  -30.7179   24.2364 H   0  0  0  0  0  0
  -17.5025  -31.6237   24.5178 H   0  0  0  0  0  0
  -15.5360  -30.3033   23.7539 H   0  0  0  0  0  0
  -15.8654  -28.0793   22.7096 H   0  0  0  0  0  0
  -24.5872  -30.7086   25.7883 H   0  0  0  0  0  0
  -24.8982  -32.2865   26.5034 H   0  0  0  0  0  0
  -25.8137  -30.8839   27.0225 H   0  0  0  0  0  0
  -26.2670  -29.6940   24.0996 H   0  0  0  0  0  0
  -27.4065  -29.7220   25.4284 H   0  0  0  0  0  0
  -27.8471  -30.4492   23.8970 H   0  0  0  0  0  0
  -27.2638  -33.3624   26.2064 H   0  0  0  0  0  0
  -28.3785  -32.6928   25.0249 H   0  0  0  0  0  0
  -28.0726  -31.8455   26.5339 H   0  0  0  0  0  0
  -28.2684  -38.0031   24.7342 H   0  0  0  0  0  0
  -28.0931  -36.2562   24.6521 H   0  0  0  0  0  0
  -27.2263  -37.1788   25.8877 H   0  0  0  0  0  0
  -20.9284  -29.8836   21.7046 H   0  0  0  0  0  0
  -26.0198  -38.2888   24.1304 H   0  0  0  0  0  0
  -28.7872  -17.5546   18.5312 H   0  0  0  0  0  0
  -27.7621  -19.7980   18.3382 H   0  0  0  0  0  0
  -29.9301  -21.0046   21.9056 H   0  0  0  0  0  0
  -30.1566  -22.1295   18.7041 H   0  0  0  0  0  0
  -28.6707  -22.3845   17.7719 H   0  0  0  0  0  0
  -27.1795  -23.0165   21.1233 H   0  0  0  0  0  0
  -28.6343  -22.5811   21.9098 H   0  0  0  0  0  0
  -29.8667  -24.3739   21.0402 H   0  0  0  0  0  0
  -27.9846  -25.6027   21.9056 H   0  0  0  0  0  0
  -26.9733  -25.0734   20.6099 H   0  0  0  0  0  0
  -29.2048  -15.6061   20.5869 H   0  0  0  0  0  0
  1 25  1  0  0  0
  1 30  2  0  0  0
  1 84  1  0  0  0
  2  3  1  0  0  0
  2 25  1  0  0  0
  2 88  1  0  0  0
  2 89  1  0  0  0
  3  4  1  0  0  0
  3 90  1  0  0  0
  3 91  1  0  0  0
  4  5  1  0  0  0
  4 92  1  0  0  0
  4 93  1  0  0  0
  5  6  1  0  0  0
  5 26  1  0  0  0
  5 94  1  0  0  0
  6 25  1  0  0  0
  6 95  1  0  0  0
  6 96  1  0  0  0
  7  8  2  0  0  0
  7 26  1  0  0  0
  7 29  1  0  0  0
  8  9  1  0  0  0
  8 22  1  0  0  0
  9 10  1  0  0  0
  9 27  2  0  0  0
 10 11  2  0  0  0
 10 15  1  0  0  0
 11 12  1  0  0  0
 11 97  1  0  0  0
 12 13  2  0  0  0
 12 98  1  0  0  0
 13 14  1  0  0  0
 13 31  1  0  0  0
 14 15  2  0  0  0
 14 99  1  0  0  0
 15100  1  0  0  0
 16 17  2  0  0  0
 16 21  1  0  0  0
 16 31  1  0  0  0
 17 18  1  0  0  0
 17101  1  0  0  0
 18 19  2  0  0  0
 18102  1  0  0  0
 19 20  1  0  0  0
 19 24  1  0  0  0
 20 21  2  0  0  0
 20103  1  0  0  0
 21 23  1  0  0  0
 22 28  1  0  0  0
 22 32  2  0  0  0
 26 27  1  0  0  0
 28104  1  0  0  0
 28105  1  0  0  0
 29106  1  0  0  0
 29107  1  0  0  0
 33 34  1  0  0  0
 33 66  1  0  0  0
 33 70  2  0  0  0
 34 36  1  0  0  0
 34 59  1  0  0  0
 34108  1  0  0  0
 35 44  2  0  0  0
 35 45  1  0  0  0
 35 68  1  0  0  0
 36 56  1  0  0  0
 36109  1  0  0  0
 37 39  1  0  0  0
 37 47  1  0  0  0
 37 66  1  0  0  0
 37110  1  0  0  0
 38 43  2  0  0  0
 38 46  1  0  0  0
 38 47  1  0  0  0
 39 64  1  0  0  0
 39 67  2  0  0  0
 40 52  1  0  0  0
 40 53  2  0  0  0
 40 58  1  0  0  0
 41111  1  0  0  0
 41112  1  0  0  0
 41113  1  0  0  0
 41 48  1  0  0  0
 42 43  1  0  0  0
 42 66  1  0  0  0
 42114  1  0  0  0
 42115  1  0  0  0
 43 44  1  0  0  0
 44116  1  0  0  0
 45 46  2  0  0  0
 45117  1  0  0  0
 46118  1  0  0  0
 47119  1  0  0  0
 47120  1  0  0  0
 48 56  1  0  0  0
 48 65  1  0  0  0
 48121  1  0  0  0
 49 50  1  0  0  0
 49 53  1  0  0  0
 49 64  1  0  0  0
 49122  1  0  0  0
 50 51  1  0  0  0
 50123  1  0  0  0
 50124  1  0  0  0
 51 52  1  0  0  0
 51125  1  0  0  0
 51126  1  0  0  0
 52127  1  0  0  0
 52128  1  0  0  0
 53 54  1  0  0  0
 54 55  2  0  0  0
 54129  1  0  0  0
 55 57  1  0  0  0
 55130  1  0  0  0
 56 69  2  0  0  0
 57 58  2  0  0  0
 57131  1  0  0  0
 58132  1  0  0  0
 59 60  1  0  0  0
 59 61  1  0  0  0
 59 62  1  0  0  0
 60133  1  0  0  0
 60134  1  0  0  0
 60135  1  0  0  0
 61136  1  0  0  0
 61137  1  0  0  0
 61138  1  0  0  0
 62139  1  0  0  0
 62140  1  0  0  0
 62141  1  0  0  0
 63 65  1  0  0  0
 63142  1  0  0  0
 63143  1  0  0  0
 63144  1  0  0  0
 64145  1  0  0  0
 65146  1  0  0  0
 68 82  1  0  0  0
 71 72  2  0  0  0
 71 74  1  0  0  0
 71147  1  0  0  0
 72 75  1  0  0  0
 72148  1  0  0  0
 73 75  2  0  0  0
 73 76  1  0  0  0
 73149  1  0  0  0
 74 76  2  0  0  0
 74 78  1  0  0  0
 75 83  1  0  0  0
 76 86  1  0  0  0
 77 79  1  0  0  0
 77 81  1  0  0  0
 77 85  2  0  0  0
 78 84  1  0  0  0
 78 87  2  0  0  0
 79 83  1  0  0  0
 79150  1  0  0  0
 79151  1  0  0  0
 80 81  1  0  0  0
 80 83  1  0  0  0
 80152  1  0  0  0
 80153  1  0  0  0
 81 82  1  0  0  0
 81154  1  0  0  0
 82155  1  0  0  0
 82156  1  0  0  0
 84157  1  0  0  0
M  ISO  4   1 100  68 101  82 101  84 100
M  END
> <chiral flag>
0

> <version>
0

> <s_m_source_file>
/data/baiqing/PycharmProjects/Reinvent-master-3.2/result/LINK_invent/BTK/process_docking_weight1_custom_product_contain_oxygen_bond_distance_aromatic_linkinvent_7_9_3/rearranged_h_0075.sdf

> <i_m_source_file_index>
6

> <r_mmod_Potential_Energy-OPLS-2005>
132.048294067383

> <r_mmod_Stretch_Energy-OPLS-2005>
38.3724327087402

> <r_mmod_Bend_Energy-OPLS-2005>
137.836685180664

> <r_mmod_Torsional_Energy-OPLS-2005>
295.523376464844

> <r_mmod_Improper_Torsional_Energy-OPLS-2005>
14.6383609771729

> <r_mmod_Van_der_Waal_Energy-OPLS-2005>
191.995910644531

> <r_mmod_Electrostatic_Energy-OPLS-2005>
-312.128173828125

> <r_mmod_Solvation_Energy-OPLS-2005>
-280.177703857422

> <b_mmod_Minimization_Converged-OPLS-2005>
0

> <r_mmod_RMS_Derivative-OPLS-2005>
5.56154108047485

$$$$
6
                    3D
 Structure written by MMmdl.
160168  0  0  1  0            999 V2000
  -30.6989  -14.4667   20.5979 C   0  0  0  0  0  0
  -30.4254  -12.3144   19.4153 C   0  0  0  0  0  0
  -29.4931  -12.5227   18.2032 C   0  0  0  0  0  0
  -28.0142  -12.3817   18.6145 C   0  0  0  0  0  0
  -27.6642  -13.2068   19.8814 C   0  0  2  0  0  0
  -28.7065  -12.9664   20.9977 C   0  0  0  0  0  0
  -25.2588  -13.8158   20.5676 C   0  0  0  0  0  0
  -24.1835  -13.0432   20.9153 C   0  0  0  0  0  0
  -24.6391  -11.6902   20.8725 C   0  0  0  0  0  0
  -23.9064  -10.4292   21.0406 C   0  0  0  0  0  0
  -24.3615   -9.4209   21.9184 C   0  0  0  0  0  0
  -23.6292   -8.2245   22.0753 C   0  0  0  0  0  0
  -22.4278   -8.0282   21.3543 C   0  0  0  0  0  0
  -21.9915   -9.0254   20.4636 C   0  0  0  0  0  0
  -22.7238  -10.2136   20.3046 C   0  0  0  0  0  0
  -21.6853   -6.0737   22.5277 C   0  0  0  0  0  0
  -21.4012   -6.5636   23.8214 C   0  0  0  0  0  0
  -21.3660   -5.6797   24.9179 C   0  0  0  0  0  0
  -21.6045   -4.3055   24.7227 C   0  0  0  0  0  0
  -21.8824   -3.8145   23.4346 C   0  0  0  0  0  0
  -21.9190   -4.6963   22.3398 C   0  0  0  0  0  0
  -22.7860  -13.5228   21.1828 C   0  0  0  0  0  0
  -22.1667   -4.2146   21.0975 F   0  0  0  0  0  0
  -21.5629   -3.4536   25.7745 F   0  0  0  0  0  0
  -30.0395  -13.2844   20.4521 N   0  0  0  0  0  0
  -26.3037  -12.9324   20.3395 N   0  0  0  0  0  0
  -25.9322  -11.6486   20.5758 N   0  0  0  0  0  0
  -22.0502  -12.8216   22.0383 N   0  0  0  0  0  0
  -25.4303  -15.1877   20.4129 N   0  0  0  0  0  0
  -31.8082  -14.6734   20.0958 O   0  0  0  0  0  0
  -21.6638   -6.8882   21.4240 O   0  0  0  0  0  0
  -22.3551  -14.5546   20.6695 O   0  0  0  0  0  0
  -24.6158  -31.8668   23.2118 C   0  0  0  0  0  0
  -25.9052  -32.4820   23.8402 C   0  0  1  0  0  0
  -27.2310  -27.4288   20.1010 C   0  0  0  0  0  0
  -25.5919  -33.8622   24.2336 N   0  0  0  0  0  0
  -23.4032  -30.4919   21.5507 C   0  0  2  0  0  0
  -24.8507  -28.9540   20.1204 C   0  0  0  0  0  0
  -22.7405  -29.4653   22.4981 C   0  0  0  0  0  0
  -18.0283  -28.1369   22.8500 C   0  0  0  0  0  0
  -24.1493  -36.7314   23.2630 C   0  0  0  0  0  0
  -25.9325  -30.8287   21.3664 C   0  0  0  0  0  0
  -26.0093  -29.4581   20.7254 C   0  0  0  0  0  0
  -27.2034  -28.6981   20.7243 C   0  0  0  0  0  0
  -26.0638  -26.9484   19.4754 C   0  0  0  0  0  0
  -24.8704  -27.6945   19.4964 C   0  0  0  0  0  0
  -23.6139  -29.8238   20.1650 C   0  0  0  0  0  0
  -25.4107  -36.3112   24.0335 C   0  0  1  0  0  0
  -20.5870  -28.3662   23.1320 C   0  0  2  0  0  0
  -20.6773  -26.9392   22.5429 C   0  0  0  0  0  0
  -19.5746  -26.6381   21.5217 C   0  0  0  0  0  0
  -18.1922  -26.7924   22.1614 C   0  0  0  0  0  0
  -19.1531  -28.8831   23.2908 C   0  0  0  0  0  0
  -18.9456  -30.1445   23.8898 C   0  0  0  0  0  0
  -17.6461  -30.6576   24.0570 C   0  0  0  0  0  0
  -25.9051  -34.9482   23.5131 C   0  0  0  0  0  0
  -16.5357  -29.9078   23.6321 C   0  0  0  0  0  0
  -16.7274  -28.6499   23.0337 C   0  0  0  0  0  0
  -26.4486  -31.6578   25.0710 C   0  0  0  0  0  0
  -25.3763  -31.3639   26.1450 C   0  0  0  0  0  0
  -27.0320  -30.3040   24.6042 C   0  0  0  0  0  0
  -27.6054  -32.4283   25.7489 C   0  0  0  0  0  0
  -27.5593  -37.1794   24.8445 C   0  0  0  0  0  0
  -21.4132  -29.3032   22.3714 N   0  0  0  0  0  0
  -26.4276  -37.3815   23.9441 N   0  0  0  0  0  0
  -24.6686  -31.0779   22.1012 N   0  0  0  0  0  0
  -23.4170  -28.8167   23.3011 O   0  0  0  0  0  0
  -28.3840  -26.6818   20.0303 O   0  0  0  0  0  0
  -26.5595  -34.8933   22.4684 O   0  0  0  0  0  0
  -23.5355  -32.1400   23.7526 O   0  0  0  0  0  0
  -31.4889  -18.9150   21.1649 C   0  0  0  0  0  0
  -31.4088  -17.5068   21.0561 C   0  0  0  0  0  0
  -29.1209  -19.0237   21.6969 C   0  0  0  0  0  0
  -30.3501  -19.6900   21.4949 C   0  0  0  0  0  0
  -30.1802  -16.8377   21.2795 C   0  0  0  0  0  0
  -29.0444  -17.6151   21.5981 C   0  0  0  0  0  0
  -30.4840  -21.1486   21.7034 C   0  0  0  0  0  0
  -29.6799  -23.4932   21.2507 C   0  0  0  0  0  0
  -29.2820  -24.4714   18.9715 C   0  0  0  0  0  0
  -27.3187  -23.5496   20.3054 C   0  0  0  0  0  0
  -28.6667  -24.3019   20.3817 C   0  0  0  0  0  0
  -30.0011  -15.4190   21.2440 N   0  0  0  0  0  0
  -29.6442  -22.0474   21.1282 N   0  0  0  0  0  0
  -28.3996  -25.6128   21.0280 N   0  0  0  0  0  0
  -31.4897  -21.5447   22.4911 N   0  3  0  0  0  0
  -30.5006  -24.0599   21.9867 O   0  0  0  0  0  0
  -27.8622  -16.9915   21.8245 F   0  0  0  0  0  0
  -31.4684  -12.4183   19.1130 H   0  0  0  0  0  0
  -30.3274  -11.2986   19.8018 H   0  0  0  0  0  0
  -29.7302  -11.8061   17.4165 H   0  0  0  0  0  0
  -29.6612  -13.5121   17.7751 H   0  0  0  0  0  0
  -27.8208  -11.3242   18.7939 H   0  0  0  0  0  0
  -27.3657  -12.6742   17.7881 H   0  0  0  0  0  0
  -27.7117  -14.2584   19.5988 H   0  0  0  0  0  0
  -28.6851  -11.9217   21.3143 H   0  0  0  0  0  0
  -28.4582  -13.5389   21.8918 H   0  0  0  0  0  0
  -25.2765   -9.5682   22.4760 H   0  0  0  0  0  0
  -23.9994   -7.4639   22.7485 H   0  0  0  0  0  0
  -21.0845   -8.8769   19.8948 H   0  0  0  0  0  0
  -22.3696  -10.9673   19.6149 H   0  0  0  0  0  0
  -21.2008   -7.6154   23.9712 H   0  0  0  0  0  0
  -21.1480   -6.0533   25.9084 H   0  0  0  0  0  0
  -22.0603   -2.7608   23.2852 H   0  0  0  0  0  0
  -22.4119  -11.9858   22.4743 H   0  0  0  0  0  0
  -21.1114  -13.1229   22.2587 H   0  0  0  0  0  0
  -24.6704  -15.8450   20.5493 H   0  0  0  0  0  0
  -26.3053  -15.6392   20.1787 H   0  0  0  0  0  0
  -26.7113  -32.5543   23.1163 H   0  0  0  0  0  0
  -25.0097  -33.9794   25.0498 H   0  0  0  0  0  0
  -22.6926  -31.3095   21.4115 H   0  0  0  0  0  0
  -23.3780  -35.9616   23.3246 H   0  0  0  0  0  0
  -24.3595  -36.8997   22.2052 H   0  0  0  0  0  0
  -23.7214  -37.6484   23.6690 H   0  0  0  0  0  0
  -26.0405  -31.5850   20.5873 H   0  0  0  0  0  0
  -26.8238  -30.8923   21.9773 H   0  0  0  0  0  0
  -28.1011  -29.0832   21.1874 H   0  0  0  0  0  0
  -26.0822  -26.0083   18.9482 H   0  0  0  0  0  0
  -23.9850  -27.3057   19.0126 H   0  0  0  0  0  0
  -23.7284  -30.5967   19.4037 H   0  0  0  0  0  0
  -22.7383  -29.2442   19.8663 H   0  0  0  0  0  0
  -25.1265  -36.1962   25.0823 H   0  0  0  0  0  0
  -20.9967  -28.3246   24.1440 H   0  0  0  0  0  0
  -20.5683  -26.2255   23.3612 H   0  0  0  0  0  0
  -21.6646  -26.7441   22.1227 H   0  0  0  0  0  0
  -19.6912  -25.6302   21.1217 H   0  0  0  0  0  0
  -19.6683  -27.3200   20.6755 H   0  0  0  0  0  0
  -17.4200  -26.6710   21.4001 H   0  0  0  0  0  0
  -18.0304  -26.0049   22.8989 H   0  0  0  0  0  0
  -19.7935  -30.7269   24.2249 H   0  0  0  0  0  0
  -17.5013  -31.6246   24.5191 H   0  0  0  0  0  0
  -15.5355  -30.2982   23.7627 H   0  0  0  0  0  0
  -15.8683  -28.0818   22.7031 H   0  0  0  0  0  0
  -24.5991  -30.6922   25.7792 H   0  0  0  0  0  0
  -24.8879  -32.2764   26.4870 H   0  0  0  0  0  0
  -25.8144  -30.8838   27.0211 H   0  0  0  0  0  0
  -26.2840  -29.6786   24.1149 H   0  0  0  0  0  0
  -27.4195  -29.7279   25.4456 H   0  0  0  0  0  0
  -27.8634  -30.4405   23.9118 H   0  0  0  0  0  0
  -27.2681  -33.3602   26.2043 H   0  0  0  0  0  0
  -28.3883  -32.6804   25.0323 H   0  0  0  0  0  0
  -28.0687  -31.8397   26.5419 H   0  0  0  0  0  0
  -28.2528  -38.0174   24.7623 H   0  0  0  0  0  0
  -28.1177  -36.2715   24.6112 H   0  0  0  0  0  0
  -27.2324  -37.1243   25.8842 H   0  0  0  0  0  0
  -20.9278  -29.8758   21.6942 H   0  0  0  0  0  0
  -26.0157  -38.2877   24.1515 H   0  0  0  0  0  0
  -32.4439  -19.3975   21.0061 H   0  0  0  0  0  0
  -32.3075  -16.9584   20.8193 H   0  0  0  0  0  0
  -28.2342  -19.5737   21.9756 H   0  0  0  0  0  0
  -29.5367  -23.5085   18.5263 H   0  0  0  0  0  0
  -30.1984  -25.0637   19.0015 H   0  0  0  0  0  0
  -28.5895  -24.9592   18.2837 H   0  0  0  0  0  0
  -27.3978  -22.6344   19.7178 H   0  0  0  0  0  0
  -26.5405  -24.1384   19.8315 H   0  0  0  0  0  0
  -26.9509  -23.2756   21.2953 H   0  0  0  0  0  0
  -29.1054  -15.1128   21.5913 H   0  0  0  0  0  0
  -28.9736  -21.6031   20.5226 H   0  0  0  0  0  0
  -27.4831  -25.6157   21.4623 H   0  0  0  0  0  0
  -32.0715  -20.8699   22.9628 H   0  0  0  0  0  0
  -31.6041  -22.5349   22.6724 H   0  0  0  0  0  0
  1 25  1  0  0  0
  1 30  2  0  0  0
  1 82  1  0  0  0
  2  3  1  0  0  0
  2 25  1  0  0  0
  2 88  1  0  0  0
  2 89  1  0  0  0
  3  4  1  0  0  0
  3 90  1  0  0  0
  3 91  1  0  0  0
  4  5  1  0  0  0
  4 92  1  0  0  0
  4 93  1  0  0  0
  5  6  1  0  0  0
  5 26  1  0  0  0
  5 94  1  0  0  0
  6 25  1  0  0  0
  6 95  1  0  0  0
  6 96  1  0  0  0
  7  8  2  0  0  0
  7 26  1  0  0  0
  7 29  1  0  0  0
  8  9  1  0  0  0
  8 22  1  0  0  0
  9 10  1  0  0  0
  9 27  2  0  0  0
 10 11  2  0  0  0
 10 15  1  0  0  0
 11 12  1  0  0  0
 11 97  1  0  0  0
 12 13  2  0  0  0
 12 98  1  0  0  0
 13 14  1  0  0  0
 13 31  1  0  0  0
 14 15  2  0  0  0
 14 99  1  0  0  0
 15100  1  0  0  0
 16 17  2  0  0  0
 16 21  1  0  0  0
 16 31  1  0  0  0
 17 18  1  0  0  0
 17101  1  0  0  0
 18 19  2  0  0  0
 18102  1  0  0  0
 19 20  1  0  0  0
 19 24  1  0  0  0
 20 21  2  0  0  0
 20103  1  0  0  0
 21 23  1  0  0  0
 22 28  1  0  0  0
 22 32  2  0  0  0
 26 27  1  0  0  0
 28104  1  0  0  0
 28105  1  0  0  0
 29106  1  0  0  0
 29107  1  0  0  0
 33 34  1  0  0  0
 33 66  1  0  0  0
 33 70  2  0  0  0
 34 36  1  0  0  0
 34 59  1  0  0  0
 34108  1  0  0  0
 35 44  2  0  0  0
 35 45  1  0  0  0
 35 68  1  0  0  0
 36 56  1  0  0  0
 36109  1  0  0  0
 37 39  1  0  0  0
 37 47  1  0  0  0
 37 66  1  0  0  0
 37110  1  0  0  0
 38 43  2  0  0  0
 38 46  1  0  0  0
 38 47  1  0  0  0
 39 64  1  0  0  0
 39 67  2  0  0  0
 40 52  1  0  0  0
 40 53  2  0  0  0
 40 58  1  0  0  0
 41111  1  0  0  0
 41112  1  0  0  0
 41113  1  0  0  0
 41 48  1  0  0  0
 42 43  1  0  0  0
 42 66  1  0  0  0
 42114  1  0  0  0
 42115  1  0  0  0
 43 44  1  0  0  0
 44116  1  0  0  0
 45 46  2  0  0  0
 45117  1  0  0  0
 46118  1  0  0  0
 47119  1  0  0  0
 47120  1  0  0  0
 48 56  1  0  0  0
 48 65  1  0  0  0
 48121  1  0  0  0
 49 50  1  0  0  0
 49 53  1  0  0  0
 49 64  1  0  0  0
 49122  1  0  0  0
 50 51  1  0  0  0
 50123  1  0  0  0
 50124  1  0  0  0
 51 52  1  0  0  0
 51125  1  0  0  0
 51126  1  0  0  0
 52127  1  0  0  0
 52128  1  0  0  0
 53 54  1  0  0  0
 54 55  2  0  0  0
 54129  1  0  0  0
 55 57  1  0  0  0
 55130  1  0  0  0
 56 69  2  0  0  0
 57 58  2  0  0  0
 57131  1  0  0  0
 58132  1  0  0  0
 59 60  1  0  0  0
 59 61  1  0  0  0
 59 62  1  0  0  0
 60133  1  0  0  0
 60134  1  0  0  0
 60135  1  0  0  0
 61136  1  0  0  0
 61137  1  0  0  0
 61138  1  0  0  0
 62139  1  0  0  0
 62140  1  0  0  0
 62141  1  0  0  0
 63 65  1  0  0  0
 63142  1  0  0  0
 63143  1  0  0  0
 63144  1  0  0  0
 64145  1  0  0  0
 65146  1  0  0  0
 68 84  1  0  0  0
 71 72  2  0  0  0
 71 74  1  0  0  0
 71147  1  0  0  0
 72 75  1  0  0  0
 72148  1  0  0  0
 73 74  2  0  0  0
 73 76  1  0  0  0
 73149  1  0  0  0
 74 77  1  0  0  0
 75 76  2  0  0  0
 75 82  1  0  0  0
 76 87  1  0  0  0
 77 83  1  0  0  0
 77 85  2  0  0  0
 78 81  1  0  0  0
 78 83  1  0  0  0
 78 86  2  0  0  0
 79150  1  0  0  0
 79151  1  0  0  0
 79152  1  0  0  0
 79 81  1  0  0  0
 80 81  1  0  0  0
 80153  1  0  0  0
 80154  1  0  0  0
 80155  1  0  0  0
 81 84  1  0  0  0
 82156  1  0  0  0
 83157  1  0  0  0
 84158  1  0  0  0
 85159  1  0  0  0
 85160  1  0  0  0
M  CHG  1  85   1
M  ISO  4   1 100  68 101  82 100  84 101
M  END
> <chiral flag>
0

> <version>
0

> <s_m_source_file>
/data/baiqing/PycharmProjects/Reinvent-master-3.2/result/LINK_invent/BTK/process_docking_weight1_custom_product_contain_oxygen_bond_distance_aromatic_linkinvent_7_9_3/rearranged_h_0075.sdf

> <i_m_source_file_index>
7

> <r_mmod_Potential_Energy-OPLS-2005>
-441.499267578125

> <r_mmod_Stretch_Energy-OPLS-2005>
43.0052757263184

> <r_mmod_Bend_Energy-OPLS-2005>
115.275337219238

> <r_mmod_Torsional_Energy-OPLS-2005>
229.553405761719

> <r_mmod_Improper_Torsional_Energy-OPLS-2005>
3.52456068992615

> <r_mmod_Van_der_Waal_Energy-OPLS-2005>
171.469818115234

> <r_mmod_Electrostatic_Energy-OPLS-2005>
-557.115905761719

> <r_mmod_Solvation_Energy-OPLS-2005>
-458.137939453125

> <b_mmod_Minimization_Converged-OPLS-2005>
0

> <r_mmod_RMS_Derivative-OPLS-2005>
1.69848072528839

$$$$
7
                    3D
 Structure written by MMmdl.
159168  0  0  1  0            999 V2000
  -30.5408  -14.8227   20.5038 C   0  0  0  0  0  0
  -30.4421  -12.5102   19.4912 C   0  0  0  0  0  0
  -29.5155  -12.5042   18.2575 C   0  0  0  0  0  0
  -28.0509  -12.2860   18.6850 C   0  0  0  0  0  0
  -27.6345  -13.2258   19.8442 C   0  0  2  0  0  0
  -28.6696  -13.1850   20.9888 C   0  0  0  0  0  0
  -25.2494  -13.8225   20.5655 C   0  0  0  0  0  0
  -24.1800  -13.0438   20.9199 C   0  0  0  0  0  0
  -24.6425  -11.6921   20.8785 C   0  0  0  0  0  0
  -23.9134  -10.4257   21.0455 C   0  0  0  0  0  0
  -24.3655   -9.4153   21.9223 C   0  0  0  0  0  0
  -23.6307   -8.2199   22.0731 C   0  0  0  0  0  0
  -22.4273   -8.0268   21.3544 C   0  0  0  0  0  0
  -21.9947   -9.0271   20.4661 C   0  0  0  0  0  0
  -22.7332  -10.2114   20.3069 C   0  0  0  0  0  0
  -21.6847   -6.0743   22.5321 C   0  0  0  0  0  0
  -21.4008   -6.5653   23.8253 C   0  0  0  0  0  0
  -21.3642   -5.6814   24.9221 C   0  0  0  0  0  0
  -21.6036   -4.3075   24.7292 C   0  0  0  0  0  0
  -21.8810   -3.8157   23.4416 C   0  0  0  0  0  0
  -21.9175   -4.6964   22.3461 C   0  0  0  0  0  0
  -22.7811  -13.5169   21.1889 C   0  0  0  0  0  0
  -22.1659   -4.2126   21.1046 F   0  0  0  0  0  0
  -21.5614   -3.4564   25.7807 F   0  0  0  0  0  0
  -29.9618  -13.5717   20.4120 N   0  0  0  0  0  0
  -26.2899  -12.9402   20.3242 N   0  0  0  0  0  0
  -25.9347  -11.6549   20.5795 N   0  0  0  0  0  0
  -22.0508  -12.8088   22.0456 N   0  0  0  0  0  0
  -25.4197  -15.1969   20.4063 N   0  0  0  0  0  0
  -31.7421  -14.9472   20.2449 O   0  0  0  0  0  0
  -21.6626   -6.8868   21.4261 O   0  0  0  0  0  0
  -22.3484  -14.5482   20.6741 O   0  0  0  0  0  0
  -24.6364  -31.8554   23.1948 C   0  0  0  0  0  0
  -25.9151  -32.4758   23.8357 C   0  0  1  0  0  0
  -27.1893  -27.1986   20.1616 C   0  0  0  0  0  0
  -25.5906  -33.8567   24.2280 N   0  0  0  0  0  0
  -23.4333  -30.4820   21.5392 C   0  0  2  0  0  0
  -24.8758  -28.9236   20.1140 C   0  0  0  0  0  0
  -22.7496  -29.4648   22.4831 C   0  0  0  0  0  0
  -18.0270  -28.1367   22.8501 C   0  0  0  0  0  0
  -24.1479  -36.7280   23.2665 C   0  0  0  0  0  0
  -25.9883  -30.7452   21.3897 C   0  0  0  0  0  0
  -26.0558  -29.3702   20.7231 C   0  0  0  0  0  0
  -27.2201  -28.5278   20.7243 C   0  0  0  0  0  0
  -25.9869  -26.8434   19.5272 C   0  0  0  0  0  0
  -24.8471  -27.6663   19.5025 C   0  0  0  0  0  0
  -23.6535  -29.8253   20.1536 C   0  0  0  0  0  0
  -25.4122  -36.3128   24.0373 C   0  0  1  0  0  0
  -20.5867  -28.3749   23.1199 C   0  0  2  0  0  0
  -20.6769  -26.9430   22.5392 C   0  0  0  0  0  0
  -19.5658  -26.6300   21.5308 C   0  0  0  0  0  0
  -18.1902  -26.7860   22.1810 C   0  0  0  0  0  0
  -19.1532  -28.8871   23.2812 C   0  0  0  0  0  0
  -18.9517  -30.1417   23.8904 C   0  0  0  0  0  0
  -17.6544  -30.6549   24.0684 C   0  0  0  0  0  0
  -25.9053  -34.9474   23.5151 C   0  0  0  0  0  0
  -16.5424  -29.9075   23.6511 C   0  0  0  0  0  0
  -16.7268  -28.6513   23.0452 C   0  0  0  0  0  0
  -26.4486  -31.6584   25.0758 C   0  0  0  0  0  0
  -25.3696  -31.3705   26.1458 C   0  0  0  0  0  0
  -27.0389  -30.3006   24.6370 C   0  0  0  0  0  0
  -27.6041  -32.4349   25.7489 C   0  0  0  0  0  0
  -27.5597  -37.1799   24.8492 C   0  0  0  0  0  0
  -21.4174  -29.3093   22.3567 N   0  0  0  0  0  0
  -26.4341  -37.3815   23.9399 N   0  0  0  0  0  0
  -24.7058  -31.0487   22.0933 N   0  0  0  0  0  0
  -23.4135  -28.8180   23.2994 O   0  0  0  0  0  0
  -28.2360  -26.2306   20.1953 O   0  0  0  0  0  0
  -26.5700  -34.8964   22.4752 O   0  0  0  0  0  0
  -23.5483  -32.1426   23.7193 O   0  0  0  0  0  0
  -29.2829  -19.8349   22.4661 C   0  0  0  0  0  0
  -29.6970  -18.6816   23.1669 C   0  0  0  0  0  0
  -29.3234  -18.5635   20.4415 C   0  0  0  0  0  0
  -29.0980  -19.8925   21.0636 C   0  0  0  0  0  0
  -29.9511  -17.4552   22.5273 C   0  0  0  0  0  0
  -29.7386  -17.3233   21.1324 C   0  0  0  0  0  0
  -27.5447  -22.0673   20.8525 C   0  0  0  0  0  0
  -29.3930  -22.4389   20.2006 C   0  0  0  0  0  0
  -28.0800  -23.3428   20.0571 C   0  0  0  0  0  0
  -25.9335  -23.4810   18.5571 C   0  0  0  0  0  0
  -27.4758  -23.3806   18.6284 C   0  0  0  0  0  0
  -27.9781  -24.8347   20.7852 C   0  0  0  0  0  0
  -28.6648  -21.2412   20.5124 N   0  0  0  0  0  0
  -30.3161  -16.3607   23.3217 N   0  0  0  0  0  0
  -29.6681  -15.9151   20.5942 N   0  0  0  0  0  0
  -26.5619  -21.8135   21.5292 O   0  0  0  0  0  0
  -30.5869  -22.6356   20.1464 O   0  0  0  0  0  0
  -31.4759  -12.6740   19.1795 H   0  0  0  0  0  0
  -30.4189  -11.5383   19.9898 H   0  0  0  0  0  0
  -29.8258  -11.7194   17.5596 H   0  0  0  0  0  0
  -29.5977  -13.4493   17.7193 H   0  0  0  0  0  0
  -27.9631  -11.2478   19.0107 H   0  0  0  0  0  0
  -27.3742  -12.3976   17.8349 H   0  0  0  0  0  0
  -27.6228  -14.2327   19.4277 H   0  0  0  0  0  0
  -28.7177  -12.1896   21.4347 H   0  0  0  0  0  0
  -28.3763  -13.8665   21.7895 H   0  0  0  0  0  0
  -25.2794   -9.5567   22.4818 H   0  0  0  0  0  0
  -24.0017   -7.4539   22.7406 H   0  0  0  0  0  0
  -21.0879   -8.8848   19.8961 H   0  0  0  0  0  0
  -22.3874  -10.9655   19.6142 H   0  0  0  0  0  0
  -21.2017   -7.6165   23.9773 H   0  0  0  0  0  0
  -21.1462   -6.0547   25.9120 H   0  0  0  0  0  0
  -22.0584   -2.7605   23.2982 H   0  0  0  0  0  0
  -22.4193  -11.9757   22.4858 H   0  0  0  0  0  0
  -21.1112  -13.1030   22.2684 H   0  0  0  0  0  0
  -24.6563  -15.8539   20.5314 H   0  0  0  0  0  0
  -26.2784  -15.6471   20.1176 H   0  0  0  0  0  0
  -26.7245  -32.5387   23.1106 H   0  0  0  0  0  0
  -24.9901  -33.9716   25.0334 H   0  0  0  0  0  0
  -22.7347  -31.3107   21.3957 H   0  0  0  0  0  0
  -23.3811  -35.9544   23.3378 H   0  0  0  0  0  0
  -24.3549  -36.8842   22.2061 H   0  0  0  0  0  0
  -23.7148  -37.6467   23.6641 H   0  0  0  0  0  0
  -26.1737  -31.5138   20.6365 H   0  0  0  0  0  0
  -26.8420  -30.7634   22.0536 H   0  0  0  0  0  0
  -28.1234  -28.8775   21.2075 H   0  0  0  0  0  0
  -25.9078  -25.8854   19.0620 H   0  0  0  0  0  0
  -23.9426  -27.3182   19.0215 H   0  0  0  0  0  0
  -23.8023  -30.6051   19.4094 H   0  0  0  0  0  0
  -22.7586  -29.2838   19.8359 H   0  0  0  0  0  0
  -25.1282  -36.2052   25.0887 H   0  0  0  0  0  0
  -20.9867  -28.3399   24.1355 H   0  0  0  0  0  0
  -20.5809  -26.2335   23.3608 H   0  0  0  0  0  0
  -21.6590  -26.7426   22.1124 H   0  0  0  0  0  0
  -19.6764  -25.6166   21.1414 H   0  0  0  0  0  0
  -19.6429  -27.3028   20.6794 H   0  0  0  0  0  0
  -17.4089  -26.6404   21.4300 H   0  0  0  0  0  0
  -18.0423  -26.0122   22.9368 H   0  0  0  0  0  0
  -19.8007  -30.7136   24.2379 H   0  0  0  0  0  0
  -17.5195  -31.6151   24.5478 H   0  0  0  0  0  0
  -15.5443  -30.2924   23.8065 H   0  0  0  0  0  0
  -15.8673  -28.0709   22.7413 H   0  0  0  0  0  0
  -24.5899  -30.7045   25.7752 H   0  0  0  0  0  0
  -24.8860  -32.2836   26.4936 H   0  0  0  0  0  0
  -25.8010  -30.8833   27.0220 H   0  0  0  0  0  0
  -26.3037  -29.6665   24.1425 H   0  0  0  0  0  0
  -27.4030  -29.7373   25.4974 H   0  0  0  0  0  0
  -27.8920  -30.4246   23.9707 H   0  0  0  0  0  0
  -27.2685  -33.3690   26.2036 H   0  0  0  0  0  0
  -28.3831  -32.6866   25.0263 H   0  0  0  0  0  0
  -28.0764  -31.8510   26.5411 H   0  0  0  0  0  0
  -28.2682  -38.0042   24.7527 H   0  0  0  0  0  0
  -28.1044  -36.2579   24.6366 H   0  0  0  0  0  0
  -27.2304  -37.1487   25.8903 H   0  0  0  0  0  0
  -20.9409  -29.8753   21.6684 H   0  0  0  0  0  0
  -26.0277  -38.2939   24.1338 H   0  0  0  0  0  0
  -29.0816  -20.7165   23.0623 H   0  0  0  0  0  0
  -29.7886  -18.7443   24.2458 H   0  0  0  0  0  0
  -29.1369  -18.4869   19.3808 H   0  0  0  0  0  0
  -25.6402  -24.1195   17.7181 H   0  0  0  0  0  0
  -25.4964  -23.9086   19.4605 H   0  0  0  0  0  0
  -25.4567  -22.5096   18.4139 H   0  0  0  0  0  0
  -27.7877  -22.5119   18.0458 H   0  0  0  0  0  0
  -27.8930  -24.2314   18.0925 H   0  0  0  0  0  0
  -28.6446  -24.7990   21.6463 H   0  0  0  0  0  0
  -26.9941  -24.9007   21.2460 H   0  0  0  0  0  0
  -30.3769  -16.4223   24.3328 H   0  0  0  0  0  0
  -30.6986  -15.5110   22.9258 H   0  0  0  0  0  0
  -28.7233  -15.5693   20.6020 H   0  0  0  0  0  0
  1 25  1  0  0  0
  1 30  2  0  0  0
  1 85  1  0  0  0
  2  3  1  0  0  0
  2 25  1  0  0  0
  2 88  1  0  0  0
  2 89  1  0  0  0
  3  4  1  0  0  0
  3 90  1  0  0  0
  3 91  1  0  0  0
  4  5  1  0  0  0
  4 92  1  0  0  0
  4 93  1  0  0  0
  5  6  1  0  0  0
  5 26  1  0  0  0
  5 94  1  0  0  0
  6 25  1  0  0  0
  6 95  1  0  0  0
  6 96  1  0  0  0
  7  8  2  0  0  0
  7 26  1  0  0  0
  7 29  1  0  0  0
  8  9  1  0  0  0
  8 22  1  0  0  0
  9 10  1  0  0  0
  9 27  2  0  0  0
 10 11  2  0  0  0
 10 15  1  0  0  0
 11 12  1  0  0  0
 11 97  1  0  0  0
 12 13  2  0  0  0
 12 98  1  0  0  0
 13 14  1  0  0  0
 13 31  1  0  0  0
 14 15  2  0  0  0
 14 99  1  0  0  0
 15100  1  0  0  0
 16 17  2  0  0  0
 16 21  1  0  0  0
 16 31  1  0  0  0
 17 18  1  0  0  0
 17101  1  0  0  0
 18 19  2  0  0  0
 18102  1  0  0  0
 19 20  1  0  0  0
 19 24  1  0  0  0
 20 21  2  0  0  0
 20103  1  0  0  0
 21 23  1  0  0  0
 22 28  1  0  0  0
 22 32  2  0  0  0
 26 27  1  0  0  0
 28104  1  0  0  0
 28105  1  0  0  0
 29106  1  0  0  0
 29107  1  0  0  0
 33 34  1  0  0  0
 33 66  1  0  0  0
 33 70  2  0  0  0
 34 36  1  0  0  0
 34 59  1  0  0  0
 34108  1  0  0  0
 35 44  2  0  0  0
 35 45  1  0  0  0
 35 68  1  0  0  0
 36 56  1  0  0  0
 36109  1  0  0  0
 37 39  1  0  0  0
 37 47  1  0  0  0
 37 66  1  0  0  0
 37110  1  0  0  0
 38 43  2  0  0  0
 38 46  1  0  0  0
 38 47  1  0  0  0
 39 64  1  0  0  0
 39 67  2  0  0  0
 40 52  1  0  0  0
 40 53  2  0  0  0
 40 58  1  0  0  0
 41111  1  0  0  0
 41112  1  0  0  0
 41113  1  0  0  0
 41 48  1  0  0  0
 42 43  1  0  0  0
 42 66  1  0  0  0
 42114  1  0  0  0
 42115  1  0  0  0
 43 44  1  0  0  0
 44116  1  0  0  0
 45 46  2  0  0  0
 45117  1  0  0  0
 46118  1  0  0  0
 47119  1  0  0  0
 47120  1  0  0  0
 48 56  1  0  0  0
 48 65  1  0  0  0
 48121  1  0  0  0
 49 50  1  0  0  0
 49 53  1  0  0  0
 49 64  1  0  0  0
 49122  1  0  0  0
 50 51  1  0  0  0
 50123  1  0  0  0
 50124  1  0  0  0
 51 52  1  0  0  0
 51125  1  0  0  0
 51126  1  0  0  0
 52127  1  0  0  0
 52128  1  0  0  0
 53 54  1  0  0  0
 54 55  2  0  0  0
 54129  1  0  0  0
 55 57  1  0  0  0
 55130  1  0  0  0
 56 69  2  0  0  0
 57 58  2  0  0  0
 57131  1  0  0  0
 58132  1  0  0  0
 59 60  1  0  0  0
 59 61  1  0  0  0
 59 62  1  0  0  0
 60133  1  0  0  0
 60134  1  0  0  0
 60135  1  0  0  0
 61136  1  0  0  0
 61137  1  0  0  0
 61138  1  0  0  0
 62139  1  0  0  0
 62140  1  0  0  0
 62141  1  0  0  0
 63 65  1  0  0  0
 63142  1  0  0  0
 63143  1  0  0  0
 63144  1  0  0  0
 64145  1  0  0  0
 65146  1  0  0  0
 68 82  1  0  0  0
 71 72  2  0  0  0
 71 74  1  0  0  0
 71147  1  0  0  0
 72 75  1  0  0  0
 72148  1  0  0  0
 73 74  2  0  0  0
 73 76  1  0  0  0
 73149  1  0  0  0
 74 83  1  0  0  0
 75 76  2  0  0  0
 75 84  1  0  0  0
 76 85  1  0  0  0
 77 79  1  0  0  0
 77 83  1  0  0  0
 77 86  2  0  0  0
 78 79  1  0  0  0
 78 83  1  0  0  0
 78 87  2  0  0  0
 79 81  1  0  0  0
 79 82  1  0  0  0
 80 81  1  0  0  0
 80150  1  0  0  0
 80151  1  0  0  0
 80152  1  0  0  0
 81153  1  0  0  0
 81154  1  0  0  0
 82155  1  0  0  0
 82156  1  0  0  0
 84157  1  0  0  0
 84158  1  0  0  0
 85159  1  0  0  0
M  ISO  4   1 100  68 101  82 101  85 100
M  END
> <chiral flag>
0

> <version>
0

> <s_m_source_file>
/data/baiqing/PycharmProjects/Reinvent-master-3.2/result/LINK_invent/BTK/process_docking_weight1_custom_product_contain_oxygen_bond_distance_aromatic_linkinvent_7_9_3/rearranged_h_0075.sdf

> <i_m_source_file_index>
8

> <r_mmod_Potential_Energy-OPLS-2005>
270.041320800781

> <r_mmod_Stretch_Energy-OPLS-2005>
182.892639160156

> <r_mmod_Bend_Energy-OPLS-2005>
238.860870361328

> <r_mmod_Torsional_Energy-OPLS-2005>
289.515594482422

> <r_mmod_Improper_Torsional_Energy-OPLS-2005>
13.8466634750366

> <r_mmod_Van_der_Waal_Energy-OPLS-2005>
132.410232543945

> <r_mmod_Electrostatic_Energy-OPLS-2005>
-485.739715576172

> <r_mmod_Solvation_Energy-OPLS-2005>
-235.438201904297

> <b_mmod_Minimization_Converged-OPLS-2005>
0

> <r_mmod_RMS_Derivative-OPLS-2005>
8.7144889831543

$$$$
8
                    3D
 Structure written by MMmdl.
151159  0  0  1  0            999 V2000
  -30.6091  -14.6622   20.4931 C   0  0  0  0  0  0
  -30.4409  -12.4053   19.4572 C   0  0  0  0  0  0
  -29.5106  -12.5096   18.2274 C   0  0  0  0  0  0
  -28.0333  -12.3440   18.6375 C   0  0  0  0  0  0
  -27.6524  -13.2173   19.8623 C   0  0  2  0  0  0
  -28.6964  -13.0795   20.9933 C   0  0  0  0  0  0
  -25.2556  -13.8174   20.5680 C   0  0  0  0  0  0
  -24.1826  -13.0439   20.9199 C   0  0  0  0  0  0
  -24.6394  -11.6909   20.8745 C   0  0  0  0  0  0
  -23.9063  -10.4293   21.0409 C   0  0  0  0  0  0
  -24.3614   -9.4208   21.9186 C   0  0  0  0  0  0
  -23.6290   -8.2243   22.0754 C   0  0  0  0  0  0
  -22.4272   -8.0282   21.3544 C   0  0  0  0  0  0
  -21.9906   -9.0256   20.4648 C   0  0  0  0  0  0
  -22.7234  -10.2136   20.3058 C   0  0  0  0  0  0
  -21.6853   -6.0734   22.5279 C   0  0  0  0  0  0
  -21.4014   -6.5639   23.8213 C   0  0  0  0  0  0
  -21.3659   -5.6790   24.9175 C   0  0  0  0  0  0
  -21.6046   -4.3053   24.7225 C   0  0  0  0  0  0
  -21.8818   -3.8145   23.4345 C   0  0  0  0  0  0
  -21.9193   -4.6962   22.3400 C   0  0  0  0  0  0
  -22.7847  -13.5232   21.1859 C   0  0  0  0  0  0
  -22.1660   -4.2148   21.0978 F   0  0  0  0  0  0
  -21.5628   -3.4536   25.7735 F   0  0  0  0  0  0
  -30.0104  -13.4291   20.4315 N   0  0  0  0  0  0
  -26.2981  -12.9354   20.3305 N   0  0  0  0  0  0
  -25.9322  -11.6510   20.5753 N   0  0  0  0  0  0
  -22.0484  -12.8229   22.0415 N   0  0  0  0  0  0
  -25.4270  -15.1895   20.4075 N   0  0  0  0  0  0
  -31.7726  -14.8219   20.1121 O   0  0  0  0  0  0
  -21.6639   -6.8878   21.4241 O   0  0  0  0  0  0
  -22.3536  -14.5539   20.6704 O   0  0  0  0  0  0
  -24.6262  -31.8597   23.2017 C   0  0  0  0  0  0
  -25.9108  -32.4777   23.8352 C   0  0  1  0  0  0
  -27.2254  -27.3170   20.1273 C   0  0  0  0  0  0
  -25.5924  -33.8577   24.2282 N   0  0  0  0  0  0
  -23.4207  -30.4818   21.5440 C   0  0  2  0  0  0
  -24.8689  -28.9343   20.1127 C   0  0  0  0  0  0
  -22.7477  -29.4620   22.4934 C   0  0  0  0  0  0
  -18.0287  -28.1383   22.8484 C   0  0  0  0  0  0
  -24.1490  -36.7295   23.2639 C   0  0  0  0  0  0
  -25.9612  -30.7900   21.3732 C   0  0  0  0  0  0
  -26.0371  -29.4159   20.7183 C   0  0  0  0  0  0
  -27.2209  -28.6197   20.7139 C   0  0  0  0  0  0
  -26.0403  -26.8904   19.4905 C   0  0  0  0  0  0
  -24.8722  -27.6766   19.4888 C   0  0  0  0  0  0
  -23.6364  -29.8146   20.1603 C   0  0  0  0  0  0
  -25.4114  -36.3083   24.0330 C   0  0  1  0  0  0
  -20.5888  -28.3688   23.1282 C   0  0  2  0  0  0
  -20.6775  -26.9410   22.5410 C   0  0  0  0  0  0
  -19.5750  -26.6382   21.5213 C   0  0  0  0  0  0
  -18.1931  -26.7924   22.1626 C   0  0  0  0  0  0
  -19.1540  -28.8853   23.2878 C   0  0  0  0  0  0
  -18.9462  -30.1455   23.8892 C   0  0  0  0  0  0
  -17.6463  -30.6583   24.0564 C   0  0  0  0  0  0
  -25.9051  -34.9452   23.5106 C   0  0  0  0  0  0
  -16.5354  -29.9083   23.6327 C   0  0  0  0  0  0
  -16.7276  -28.6503   23.0345 C   0  0  0  0  0  0
  -26.4492  -31.6585   25.0721 C   0  0  0  0  0  0
  -25.3730  -31.3722   26.1451 C   0  0  0  0  0  0
  -27.0336  -30.3009   24.6171 C   0  0  0  0  0  0
  -27.6053  -32.4319   25.7491 C   0  0  0  0  0  0
  -27.5579  -37.1805   24.8465 C   0  0  0  0  0  0
  -21.4191  -29.3043   22.3678 N   0  0  0  0  0  0
  -26.4293  -37.3777   23.9405 N   0  0  0  0  0  0
  -24.6880  -31.0606   22.0968 N   0  0  0  0  0  0
  -23.4201  -28.8161   23.3016 O   0  0  0  0  0  0
  -28.3352  -26.4603   20.1469 O   0  0  0  0  0  0
  -26.5620  -34.8919   22.4673 O   0  0  0  0  0  0
  -23.5424  -32.1396   23.7345 O   0  0  0  0  0  0
  -28.6786  -19.3852   20.7237 C   0  0  0  0  0  0
  -30.9252  -19.2878   19.9003 C   0  0  0  0  0  0
  -28.7182  -17.9701   20.9467 C   0  0  0  0  0  0
  -30.9683  -17.8752   20.1171 C   0  0  0  0  0  0
  -29.7749  -20.0919   20.1679 C   0  0  0  0  0  0
  -29.8529  -17.1646   20.6330 C   0  0  0  0  0  0
  -28.9794  -23.9058   20.0235 C   0  0  0  0  0  0
  -29.7357  -21.5963   19.8002 C   0  0  0  0  0  0
  -28.1167  -25.0731   20.6393 C   0  0  0  0  0  0
  -28.9750  -22.6315   20.3716 N   0  0  0  0  0  0
  -29.7903  -15.7108   20.8444 N   0  0  0  0  0  0
  -30.5047  -21.8861   18.7913 N   0  3  0  0  0  0
  -31.4813  -12.5365   19.1540 H   0  0  0  0  0  0
  -30.3835  -11.4109   19.9028 H   0  0  0  0  0  0
  -29.7787  -11.7551   17.4865 H   0  0  0  0  0  0
  -29.6499  -13.4774   17.7424 H   0  0  0  0  0  0
  -27.8730  -11.2911   18.8723 H   0  0  0  0  0  0
  -27.3797  -12.5693   17.7940 H   0  0  0  0  0  0
  -27.6677  -14.2513   19.5172 H   0  0  0  0  0  0
  -28.7123  -12.0583   21.3770 H   0  0  0  0  0  0
  -28.4382  -13.7120   21.8440 H   0  0  0  0  0  0
  -25.2762   -9.5681   22.4756 H   0  0  0  0  0  0
  -23.9998   -7.4634   22.7472 H   0  0  0  0  0  0
  -21.0836   -8.8775   19.8954 H   0  0  0  0  0  0
  -22.3695  -10.9674   19.6164 H   0  0  0  0  0  0
  -21.2007   -7.6145   23.9716 H   0  0  0  0  0  0
  -21.1481   -6.0520   25.9078 H   0  0  0  0  0  0
  -22.0599   -2.7606   23.2848 H   0  0  0  0  0  0
  -22.4085  -11.9889   22.4808 H   0  0  0  0  0  0
  -21.1101  -13.1265   22.2612 H   0  0  0  0  0  0
  -24.6544  -15.8401   20.5031 H   0  0  0  0  0  0
  -26.2613  -15.6209   20.0313 H   0  0  0  0  0  0
  -26.7178  -32.5448   23.1104 H   0  0  0  0  0  0
  -25.0073  -33.9721   25.0426 H   0  0  0  0  0  0
  -22.7144  -31.3022   21.3997 H   0  0  0  0  0  0
  -23.3748  -35.9631   23.3309 H   0  0  0  0  0  0
  -24.3580  -36.8907   22.2053 H   0  0  0  0  0  0
  -23.7249  -37.6501   23.6656 H   0  0  0  0  0  0
  -26.0916  -31.5516   20.6033 H   0  0  0  0  0  0
  -26.8421  -30.8408   22.0016 H   0  0  0  0  0  0
  -28.1180  -28.9852   21.1941 H   0  0  0  0  0  0
  -26.0076  -25.9311   18.9940 H   0  0  0  0  0  0
  -23.9795  -27.3040   19.0054 H   0  0  0  0  0  0
  -23.7558  -30.5904   19.4031 H   0  0  0  0  0  0
  -22.7565  -29.2436   19.8579 H   0  0  0  0  0  0
  -25.1294  -36.1939   25.0823 H   0  0  0  0  0  0
  -20.9979  -28.3264   24.1403 H   0  0  0  0  0  0
  -20.5672  -26.2301   23.3612 H   0  0  0  0  0  0
  -21.6645  -26.7434   22.1208 H   0  0  0  0  0  0
  -19.6911  -25.6294   21.1239 H   0  0  0  0  0  0
  -19.6683  -27.3196   20.6746 H   0  0  0  0  0  0
  -17.4199  -26.6671   21.4030 H   0  0  0  0  0  0
  -18.0330  -26.0067   22.9022 H   0  0  0  0  0  0
  -19.7940  -30.7273   24.2257 H   0  0  0  0  0  0
  -17.5016  -31.6260   24.5172 H   0  0  0  0  0  0
  -15.5354  -30.2984   23.7648 H   0  0  0  0  0  0
  -15.8678  -28.0822   22.7054 H   0  0  0  0  0  0
  -24.5903  -30.7070   25.7784 H   0  0  0  0  0  0
  -24.8923  -32.2888   26.4880 H   0  0  0  0  0  0
  -25.8059  -30.8899   27.0224 H   0  0  0  0  0  0
  -26.2909  -29.6759   24.1197 H   0  0  0  0  0  0
  -27.4039  -29.7263   25.4671 H   0  0  0  0  0  0
  -27.8775  -30.4298   23.9391 H   0  0  0  0  0  0
  -27.2662  -33.3617   26.2072 H   0  0  0  0  0  0
  -28.3862  -32.6884   25.0320 H   0  0  0  0  0  0
  -28.0722  -31.8443   26.5405 H   0  0  0  0  0  0
  -28.2604  -38.0095   24.7502 H   0  0  0  0  0  0
  -28.1067  -36.2626   24.6304 H   0  0  0  0  0  0
  -27.2293  -37.1471   25.8868 H   0  0  0  0  0  0
  -20.9369  -29.8774   21.6895 H   0  0  0  0  0  0
  -26.0175  -38.2854   24.1396 H   0  0  0  0  0  0
  -27.7799  -19.9350   20.9535 H   0  0  0  0  0  0
  -31.8129  -19.7541   19.5056 H   0  0  0  0  0  0
  -27.8341  -17.5009   21.3543 H   0  0  0  0  0  0
  -31.8777  -17.3495   19.8662 H   0  0  0  0  0  0
  -29.6258  -24.2730   19.2217 H   0  0  0  0  0  0
  -28.3200  -25.0929   21.7101 H   0  0  0  0  0  0
  -27.0731  -24.7722   20.5608 H   0  0  0  0  0  0
  -28.9019  -15.3839   21.1927 H   0  0  0  0  0  0
  -31.0335  -21.1691   18.2989 H   0  0  0  0  0  0
  -30.6058  -22.8147   18.3965 H   0  0  0  0  0  0
  1 25  1  0  0  0
  1 30  2  0  0  0
  1 81  1  0  0  0
  2  3  1  0  0  0
  2 25  1  0  0  0
  2 83  1  0  0  0
  2 84  1  0  0  0
  3  4  1  0  0  0
  3 85  1  0  0  0
  3 86  1  0  0  0
  4  5  1  0  0  0
  4 87  1  0  0  0
  4 88  1  0  0  0
  5  6  1  0  0  0
  5 26  1  0  0  0
  5 89  1  0  0  0
  6 25  1  0  0  0
  6 90  1  0  0  0
  6 91  1  0  0  0
  7  8  2  0  0  0
  7 26  1  0  0  0
  7 29  1  0  0  0
  8  9  1  0  0  0
  8 22  1  0  0  0
  9 10  1  0  0  0
  9 27  2  0  0  0
 10 11  2  0  0  0
 10 15  1  0  0  0
 11 12  1  0  0  0
 11 92  1  0  0  0
 12 13  2  0  0  0
 12 93  1  0  0  0
 13 14  1  0  0  0
 13 31  1  0  0  0
 14 15  2  0  0  0
 14 94  1  0  0  0
 15 95  1  0  0  0
 16 17  2  0  0  0
 16 21  1  0  0  0
 16 31  1  0  0  0
 17 18  1  0  0  0
 17 96  1  0  0  0
 18 19  2  0  0  0
 18 97  1  0  0  0
 19 20  1  0  0  0
 19 24  1  0  0  0
 20 21  2  0  0  0
 20 98  1  0  0  0
 21 23  1  0  0  0
 22 28  1  0  0  0
 22 32  2  0  0  0
 26 27  1  0  0  0
 28 99  1  0  0  0
 28100  1  0  0  0
 29101  1  0  0  0
 29102  1  0  0  0
 33 34  1  0  0  0
 33 66  1  0  0  0
 33 70  2  0  0  0
 34 36  1  0  0  0
 34 59  1  0  0  0
 34103  1  0  0  0
 35 44  2  0  0  0
 35 45  1  0  0  0
 35 68  1  0  0  0
 36 56  1  0  0  0
 36104  1  0  0  0
 37 39  1  0  0  0
 37 47  1  0  0  0
 37 66  1  0  0  0
 37105  1  0  0  0
 38 43  2  0  0  0
 38 46  1  0  0  0
 38 47  1  0  0  0
 39 64  1  0  0  0
 39 67  2  0  0  0
 40 52  1  0  0  0
 40 53  2  0  0  0
 40 58  1  0  0  0
 41106  1  0  0  0
 41107  1  0  0  0
 41108  1  0  0  0
 41 48  1  0  0  0
 42 43  1  0  0  0
 42 66  1  0  0  0
 42109  1  0  0  0
 42110  1  0  0  0
 43 44  1  0  0  0
 44111  1  0  0  0
 45 46  2  0  0  0
 45112  1  0  0  0
 46113  1  0  0  0
 47114  1  0  0  0
 47115  1  0  0  0
 48 56  1  0  0  0
 48 65  1  0  0  0
 48116  1  0  0  0
 49 50  1  0  0  0
 49 53  1  0  0  0
 49 64  1  0  0  0
 49117  1  0  0  0
 50 51  1  0  0  0
 50118  1  0  0  0
 50119  1  0  0  0
 51 52  1  0  0  0
 51120  1  0  0  0
 51121  1  0  0  0
 52122  1  0  0  0
 52123  1  0  0  0
 53 54  1  0  0  0
 54 55  2  0  0  0
 54124  1  0  0  0
 55 57  1  0  0  0
 55125  1  0  0  0
 56 69  2  0  0  0
 57 58  2  0  0  0
 57126  1  0  0  0
 58127  1  0  0  0
 59 60  1  0  0  0
 59 61  1  0  0  0
 59 62  1  0  0  0
 60128  1  0  0  0
 60129  1  0  0  0
 60130  1  0  0  0
 61131  1  0  0  0
 61132  1  0  0  0
 61133  1  0  0  0
 62134  1  0  0  0
 62135  1  0  0  0
 62136  1  0  0  0
 63 65  1  0  0  0
 63137  1  0  0  0
 63138  1  0  0  0
 63139  1  0  0  0
 64140  1  0  0  0
 65141  1  0  0  0
 68 79  1  0  0  0
 71 73  2  0  0  0
 71 75  1  0  0  0
 71142  1  0  0  0
 72 74  1  0  0  0
 72 75  2  0  0  0
 72143  1  0  0  0
 73 76  1  0  0  0
 73144  1  0  0  0
 74 76  2  0  0  0
 74145  1  0  0  0
 75 78  1  0  0  0
 76 81  1  0  0  0
 77 79  1  0  0  0
 77 80  2  0  0  0
 77146  1  0  0  0
 78 80  1  0  0  0
 78 82  2  0  0  0
 79147  1  0  0  0
 79148  1  0  0  0
 81149  1  0  0  0
 82150  1  0  0  0
 82151  1  0  0  0
M  CHG  1  82   1
M  ISO  4   1 100  68 101  79 101  81 100
M  END
> <chiral flag>
0

> <version>
0

> <s_m_source_file>
/data/baiqing/PycharmProjects/Reinvent-master-3.2/result/LINK_invent/BTK/process_docking_weight1_custom_product_contain_oxygen_bond_distance_aromatic_linkinvent_7_9_3/rearranged_h_0075.sdf

> <i_m_source_file_index>
9

> <r_mmod_Potential_Energy-OPLS-2005>
81.1418838500977

> <r_mmod_Stretch_Energy-OPLS-2005>
99.0531768798828

> <r_mmod_Bend_Energy-OPLS-2005>
143.254791259766

> <r_mmod_Torsional_Energy-OPLS-2005>
230.595520019531

> <r_mmod_Improper_Torsional_Energy-OPLS-2005>
4.38265037536621

> <r_mmod_Van_der_Waal_Energy-OPLS-2005>
155.92463684082

> <r_mmod_Electrostatic_Energy-OPLS-2005>
-128.853103637695

> <r_mmod_Solvation_Energy-OPLS-2005>
-475.848602294922

> <b_mmod_Minimization_Converged-OPLS-2005>
0

> <r_mmod_RMS_Derivative-OPLS-2005>
0.499122589826584

$$$$
9
                    3D
 Structure written by MMmdl.
155164  0  0  1  0            999 V2000
  -30.6262  -14.7999   20.4081 C   0  0  0  0  0  0
  -30.4407  -12.4833   19.4738 C   0  0  0  0  0  0
  -29.5104  -12.4691   18.2397 C   0  0  0  0  0  0
  -28.0441  -12.2497   18.6663 C   0  0  0  0  0  0
  -27.6206  -13.1829   19.8246 C   0  0  2  0  0  0
  -28.6775  -13.2324   20.9522 C   0  0  0  0  0  0
  -25.2542  -13.8045   20.5743 C   0  0  0  0  0  0
  -24.1786  -13.0372   20.9248 C   0  0  0  0  0  0
  -24.6310  -11.6827   20.8796 C   0  0  0  0  0  0
  -23.8984  -10.4242   21.0449 C   0  0  0  0  0  0
  -24.3560   -9.4163   21.9215 C   0  0  0  0  0  0
  -23.6258   -8.2195   22.0760 C   0  0  0  0  0  0
  -22.4244   -8.0246   21.3548 C   0  0  0  0  0  0
  -21.9865   -9.0213   20.4649 C   0  0  0  0  0  0
  -22.7170  -10.2102   20.3077 C   0  0  0  0  0  0
  -21.6834   -6.0716   22.5276 C   0  0  0  0  0  0
  -21.3996   -6.5623   23.8207 C   0  0  0  0  0  0
  -21.3654   -5.6779   24.9175 C   0  0  0  0  0  0
  -21.6046   -4.3044   24.7225 C   0  0  0  0  0  0
  -21.8823   -3.8139   23.4346 C   0  0  0  0  0  0
  -21.9191   -4.6953   22.3402 C   0  0  0  0  0  0
  -22.7819  -13.5214   21.1884 C   0  0  0  0  0  0
  -22.1665   -4.2138   21.0982 F   0  0  0  0  0  0
  -21.5632   -3.4533   25.7741 F   0  0  0  0  0  0
  -29.9784  -13.5767   20.3582 N   0  0  0  0  0  0
  -26.2851  -12.9109   20.3262 N   0  0  0  0  0  0
  -25.9213  -11.6317   20.5787 N   0  0  0  0  0  0
  -22.0439  -12.8241   22.0440 N   0  0  0  0  0  0
  -25.4337  -15.1763   20.4181 N   0  0  0  0  0  0
  -31.8493  -14.8466   20.2512 O   0  0  0  0  0  0
  -21.6617   -6.8848   21.4235 O   0  0  0  0  0  0
  -22.3541  -14.5533   20.6714 O   0  0  0  0  0  0
  -24.6304  -31.8561   23.1971 C   0  0  0  0  0  0
  -25.9127  -32.4766   23.8333 C   0  0  1  0  0  0
  -27.2309  -27.2789   20.1358 C   0  0  0  0  0  0
  -25.5927  -33.8570   24.2255 N   0  0  0  0  0  0
  -23.4279  -30.4764   21.5404 C   0  0  2  0  0  0
  -24.8791  -28.9210   20.1133 C   0  0  0  0  0  0
  -22.7499  -29.4606   22.4919 C   0  0  0  0  0  0
  -18.0285  -28.1392   22.8484 C   0  0  0  0  0  0
  -24.1478  -36.7275   23.2638 C   0  0  0  0  0  0
  -25.9720  -30.7755   21.3726 C   0  0  0  0  0  0
  -26.0499  -29.3972   20.7190 C   0  0  0  0  0  0
  -27.2334  -28.5912   20.7144 C   0  0  0  0  0  0
  -26.0400  -26.8641   19.5034 C   0  0  0  0  0  0
  -24.8778  -27.6610   19.4943 C   0  0  0  0  0  0
  -23.6470  -29.8044   20.1590 C   0  0  0  0  0  0
  -25.4108  -36.3076   24.0326 C   0  0  1  0  0  0
  -20.5888  -28.3704   23.1268 C   0  0  2  0  0  0
  -20.6769  -26.9423   22.5407 C   0  0  0  0  0  0
  -19.5743  -26.6387   21.5208 C   0  0  0  0  0  0
  -18.1925  -26.7937   22.1618 C   0  0  0  0  0  0
  -19.1539  -28.8862   23.2872 C   0  0  0  0  0  0
  -18.9463  -30.1461   23.8898 C   0  0  0  0  0  0
  -17.6464  -30.6594   24.0563 C   0  0  0  0  0  0
  -25.9052  -34.9450   23.5088 C   0  0  0  0  0  0
  -16.5354  -29.9094   23.6334 C   0  0  0  0  0  0
  -16.7274  -28.6507   23.0366 C   0  0  0  0  0  0
  -26.4495  -31.6604   25.0730 C   0  0  0  0  0  0
  -25.3705  -31.3771   26.1443 C   0  0  0  0  0  0
  -27.0338  -30.3020   24.6214 C   0  0  0  0  0  0
  -27.6058  -32.4350   25.7489 C   0  0  0  0  0  0
  -27.5570  -37.1788   24.8470 C   0  0  0  0  0  0
  -21.4206  -29.3051   22.3661 N   0  0  0  0  0  0
  -26.4283  -37.3775   23.9416 N   0  0  0  0  0  0
  -24.6957  -31.0537   22.0937 N   0  0  0  0  0  0
  -23.4192  -28.8152   23.3028 O   0  0  0  0  0  0
  -28.3160  -26.3776   20.1572 O   0  0  0  0  0  0
  -26.5627  -34.8922   22.4660 O   0  0  0  0  0  0
  -23.5456  -32.1370   23.7276 O   0  0  0  0  0  0
  -31.2592  -18.9275   22.4901 C   0  0  0  0  0  0
  -30.9982  -17.6741   21.8969 C   0  0  0  0  0  0
  -30.6831  -20.1194   21.9986 C   0  0  0  0  0  0
  -29.6003  -18.8226   20.2732 C   0  0  0  0  0  0
  -30.1507  -17.5615   20.7736 C   0  0  0  0  0  0
  -29.8328  -20.1269   20.8711 C   0  0  0  0  0  0
  -29.1338  -22.6403   21.1065 C   0  0  0  0  0  0
  -28.6397  -23.6774   20.3712 C   0  0  0  0  0  0
  -29.7720  -16.1625   20.1970 C   0  0  0  0  0  0
  -28.4312  -23.1533   18.9671 C   0  0  0  0  0  0
  -28.8560  -21.6415   19.0482 C   0  0  0  0  0  0
  -28.0918  -25.0856   20.8798 C   0  0  0  0  0  0
  -28.7662  -16.1600   19.4315 N   0  0  0  0  0  0
  -29.2884  -21.4042   20.4291 N   0  0  0  0  0  0
  -31.4768  -12.6203   19.1586 H   0  0  0  0  0  0
  -30.4112  -11.5277   20.0011 H   0  0  0  0  0  0
  -29.8173  -11.6806   17.5512 H   0  0  0  0  0  0
  -29.6031  -13.4077   17.6915 H   0  0  0  0  0  0
  -27.9442  -11.2103   18.9813 H   0  0  0  0  0  0
  -27.3774  -12.3735   17.8118 H   0  0  0  0  0  0
  -27.5335  -14.1440   19.3470 H   0  0  0  0  0  0
  -28.7377  -12.2731   21.4675 H   0  0  0  0  0  0
  -28.3968  -13.9674   21.7079 H   0  0  0  0  0  0
  -25.2702   -9.5653   22.4790 H   0  0  0  0  0  0
  -23.9969   -7.4580   22.7468 H   0  0  0  0  0  0
  -21.0800   -8.8718   19.8951 H   0  0  0  0  0  0
  -22.3623  -10.9648   19.6190 H   0  0  0  0  0  0
  -21.1971   -7.6129   23.9712 H   0  0  0  0  0  0
  -21.1475   -6.0511   25.9078 H   0  0  0  0  0  0
  -22.0609   -2.7602   23.2852 H   0  0  0  0  0  0
  -22.4040  -11.9907   22.4848 H   0  0  0  0  0  0
  -21.1059  -13.1288   22.2616 H   0  0  0  0  0  0
  -24.6753  -15.8364   20.5486 H   0  0  0  0  0  0
  -26.2989  -15.6199   20.1278 H   0  0  0  0  0  0
  -26.7208  -32.5424   23.1094 H   0  0  0  0  0  0
  -25.0097  -33.9718   25.0415 H   0  0  0  0  0  0
  -22.7237  -31.2977   21.3903 H   0  0  0  0  0  0
  -23.3746  -35.9601   23.3310 H   0  0  0  0  0  0
  -24.3567  -36.8883   22.2052 H   0  0  0  0  0  0
  -23.7223  -37.6474   23.6655 H   0  0  0  0  0  0
  -26.1046  -31.5350   20.6009 H   0  0  0  0  0  0
  -26.8514  -30.8303   22.0029 H   0  0  0  0  0  0
  -28.1327  -28.9534   21.1936 H   0  0  0  0  0  0
  -26.0010  -25.8925   19.0315 H   0  0  0  0  0  0
  -23.9823  -27.2878   19.0168 H   0  0  0  0  0  0
  -23.7673  -30.5765   19.3987 H   0  0  0  0  0  0
  -22.7661  -29.2341   19.8578 H   0  0  0  0  0  0
  -25.1287  -36.1923   25.0818 H   0  0  0  0  0  0
  -20.9984  -28.3292   24.1385 H   0  0  0  0  0  0
  -20.5660  -26.2328   23.3619 H   0  0  0  0  0  0
  -21.6644  -26.7443   22.1206 H   0  0  0  0  0  0
  -19.6913  -25.6294   21.1252 H   0  0  0  0  0  0
  -19.6685  -27.3188   20.6729 H   0  0  0  0  0  0
  -17.4199  -26.6691   21.4021 H   0  0  0  0  0  0
  -18.0322  -26.0079   22.9010 H   0  0  0  0  0  0
  -19.7942  -30.7273   24.2281 H   0  0  0  0  0  0
  -17.5020  -31.6279   24.5163 H   0  0  0  0  0  0
  -15.5357  -30.2998   23.7657 H   0  0  0  0  0  0
  -15.8669  -28.0819   22.7101 H   0  0  0  0  0  0
  -24.5896  -30.7098   25.7779 H   0  0  0  0  0  0
  -24.8869  -32.2942   26.4819 H   0  0  0  0  0  0
  -25.8007  -30.8997   27.0252 H   0  0  0  0  0  0
  -26.2927  -29.6773   24.1211 H   0  0  0  0  0  0
  -27.3991  -29.7289   25.4746 H   0  0  0  0  0  0
  -27.8812  -30.4296   23.9473 H   0  0  0  0  0  0
  -27.2680  -33.3666   26.2036 H   0  0  0  0  0  0
  -28.3868  -32.6884   25.0310 H   0  0  0  0  0  0
  -28.0715  -31.8492   26.5418 H   0  0  0  0  0  0
  -28.2605  -38.0067   24.7507 H   0  0  0  0  0  0
  -28.1044  -36.2605   24.6305 H   0  0  0  0  0  0
  -27.2293  -37.1454   25.8873 H   0  0  0  0  0  0
  -20.9402  -29.8782   21.6862 H   0  0  0  0  0  0
  -26.0158  -38.2843   24.1432 H   0  0  0  0  0  0
  -31.9077  -18.9772   23.3539 H   0  0  0  0  0  0
  -31.4428  -16.7910   22.3346 H   0  0  0  0  0  0
  -30.9215  -21.0459   22.5006 H   0  0  0  0  0  0
  -28.9428  -18.7777   19.4161 H   0  0  0  0  0  0
  -29.2994  -22.6468   22.1757 H   0  0  0  0  0  0
  -29.0452  -23.7119   18.2595 H   0  0  0  0  0  0
  -27.3863  -23.2553   18.6730 H   0  0  0  0  0  0
  -29.6734  -21.4326   18.3565 H   0  0  0  0  0  0
  -28.0219  -20.9873   18.7892 H   0  0  0  0  0  0
  -28.4818  -25.2268   21.8880 H   0  0  0  0  0  0
  -27.0221  -24.9344   21.0230 H   0  0  0  0  0  0
  -28.6319  -15.2384   19.0355 H   0  0  0  0  0  0
  1 25  1  0  0  0
  1 30  2  0  0  0
  1 79  1  0  0  0
  2  3  1  0  0  0
  2 25  1  0  0  0
  2 85  1  0  0  0
  2 86  1  0  0  0
  3  4  1  0  0  0
  3 87  1  0  0  0
  3 88  1  0  0  0
  4  5  1  0  0  0
  4 89  1  0  0  0
  4 90  1  0  0  0
  5  6  1  0  0  0
  5 26  1  0  0  0
  5 91  1  0  0  0
  6 25  1  0  0  0
  6 92  1  0  0  0
  6 93  1  0  0  0
  7  8  2  0  0  0
  7 26  1  0  0  0
  7 29  1  0  0  0
  8  9  1  0  0  0
  8 22  1  0  0  0
  9 10  1  0  0  0
  9 27  2  0  0  0
 10 11  2  0  0  0
 10 15  1  0  0  0
 11 12  1  0  0  0
 11 94  1  0  0  0
 12 13  2  0  0  0
 12 95  1  0  0  0
 13 14  1  0  0  0
 13 31  1  0  0  0
 14 15  2  0  0  0
 14 96  1  0  0  0
 15 97  1  0  0  0
 16 17  2  0  0  0
 16 21  1  0  0  0
 16 31  1  0  0  0
 17 18  1  0  0  0
 17 98  1  0  0  0
 18 19  2  0  0  0
 18 99  1  0  0  0
 19 20  1  0  0  0
 19 24  1  0  0  0
 20 21  2  0  0  0
 20100  1  0  0  0
 21 23  1  0  0  0
 22 28  1  0  0  0
 22 32  2  0  0  0
 26 27  1  0  0  0
 28101  1  0  0  0
 28102  1  0  0  0
 29103  1  0  0  0
 29104  1  0  0  0
 33 34  1  0  0  0
 33 66  1  0  0  0
 33 70  2  0  0  0
 34 36  1  0  0  0
 34 59  1  0  0  0
 34105  1  0  0  0
 35 44  2  0  0  0
 35 45  1  0  0  0
 35 68  1  0  0  0
 36 56  1  0  0  0
 36106  1  0  0  0
 37 39  1  0  0  0
 37 47  1  0  0  0
 37 66  1  0  0  0
 37107  1  0  0  0
 38 43  2  0  0  0
 38 46  1  0  0  0
 38 47  1  0  0  0
 39 64  1  0  0  0
 39 67  2  0  0  0
 40 52  1  0  0  0
 40 53  2  0  0  0
 40 58  1  0  0  0
 41108  1  0  0  0
 41109  1  0  0  0
 41110  1  0  0  0
 41 48  1  0  0  0
 42 43  1  0  0  0
 42 66  1  0  0  0
 42111  1  0  0  0
 42112  1  0  0  0
 43 44  1  0  0  0
 44113  1  0  0  0
 45 46  2  0  0  0
 45114  1  0  0  0
 46115  1  0  0  0
 47116  1  0  0  0
 47117  1  0  0  0
 48 56  1  0  0  0
 48 65  1  0  0  0
 48118  1  0  0  0
 49 50  1  0  0  0
 49 53  1  0  0  0
 49 64  1  0  0  0
 49119  1  0  0  0
 50 51  1  0  0  0
 50120  1  0  0  0
 50121  1  0  0  0
 51 52  1  0  0  0
 51122  1  0  0  0
 51123  1  0  0  0
 52124  1  0  0  0
 52125  1  0  0  0
 53 54  1  0  0  0
 54 55  2  0  0  0
 54126  1  0  0  0
 55 57  1  0  0  0
 55127  1  0  0  0
 56 69  2  0  0  0
 57 58  2  0  0  0
 57128  1  0  0  0
 58129  1  0  0  0
 59 60  1  0  0  0
 59 61  1  0  0  0
 59 62  1  0  0  0
 60130  1  0  0  0
 60131  1  0  0  0
 60132  1  0  0  0
 61133  1  0  0  0
 61134  1  0  0  0
 61135  1  0  0  0
 62136  1  0  0  0
 62137  1  0  0  0
 62138  1  0  0  0
 63 65  1  0  0  0
 63139  1  0  0  0
 63140  1  0  0  0
 63141  1  0  0  0
 64142  1  0  0  0
 65143  1  0  0  0
 68 82  1  0  0  0
 71 72  2  0  0  0
 71 73  1  0  0  0
 71144  1  0  0  0
 72 75  1  0  0  0
 72145  1  0  0  0
 73 76  2  0  0  0
 73146  1  0  0  0
 74 75  2  0  0  0
 74 76  1  0  0  0
 74147  1  0  0  0
 75 79  1  0  0  0
 76 84  1  0  0  0
 77 78  2  0  0  0
 77 84  1  0  0  0
 77148  1  0  0  0
 78 80  1  0  0  0
 78 82  1  0  0  0
 79 83  2  0  0  0
 80 81  1  0  0  0
 80149  1  0  0  0
 80150  1  0  0  0
 81 84  1  0  0  0
 81151  1  0  0  0
 81152  1  0  0  0
 82153  1  0  0  0
 82154  1  0  0  0
 83155  1  0  0  0
M  ISO  4   1 100  68 101  79 100  82 101
M  END
> <chiral flag>
0

> <version>
0

> <s_m_source_file>
/data/baiqing/PycharmProjects/Reinvent-master-3.2/result/LINK_invent/BTK/process_docking_weight1_custom_product_contain_oxygen_bond_distance_aromatic_linkinvent_7_9_3/rearranged_h_0075.sdf

> <i_m_source_file_index>
10

> <r_mmod_Potential_Energy-OPLS-2005>
413.901885986328

> <r_mmod_Stretch_Energy-OPLS-2005>
124.360610961914

> <r_mmod_Bend_Energy-OPLS-2005>
230.887344360352

> <r_mmod_Torsional_Energy-OPLS-2005>
240.217269897461

> <r_mmod_Improper_Torsional_Energy-OPLS-2005>
12.5722579956055

> <r_mmod_Van_der_Waal_Energy-OPLS-2005>
140.127822875977

> <r_mmod_Electrostatic_Energy-OPLS-2005>
-240.336242675781

> <r_mmod_Solvation_Energy-OPLS-2005>
-198.552505493164

> <b_mmod_Minimization_Converged-OPLS-2005>
0

> <r_mmod_RMS_Derivative-OPLS-2005>
1.45654010772705

$$$$
10
                    3D
 Structure written by MMmdl.
166175  0  0  1  0            999 V2000
  -30.7892  -14.4138   20.4830 C   0  0  0  0  0  0
  -30.3888  -12.2563   19.4218 C   0  0  0  0  0  0
  -29.4783  -12.4923   18.2022 C   0  0  0  0  0  0
  -28.0013  -12.3764   18.6177 C   0  0  0  0  0  0
  -27.6578  -13.2250   19.8723 C   0  0  2  0  0  0
  -28.7107  -13.0553   20.9956 C   0  0  0  0  0  0
  -25.2547  -13.8207   20.5750 C   0  0  0  0  0  0
  -24.1818  -13.0461   20.9238 C   0  0  0  0  0  0
  -24.6408  -11.6933   20.8769 C   0  0  0  0  0  0
  -23.9098  -10.4304   21.0396 C   0  0  0  0  0  0
  -24.3640   -9.4216   21.9166 C   0  0  0  0  0  0
  -23.6312   -8.2249   22.0735 C   0  0  0  0  0  0
  -22.4287   -8.0282   21.3533 C   0  0  0  0  0  0
  -21.9926   -9.0281   20.4664 C   0  0  0  0  0  0
  -22.7271  -10.2162   20.3067 C   0  0  0  0  0  0
  -21.6865   -6.0748   22.5286 C   0  0  0  0  0  0
  -21.4042   -6.5655   23.8224 C   0  0  0  0  0  0
  -21.3663   -5.6798   24.9173 C   0  0  0  0  0  0
  -21.6034   -4.3053   24.7216 C   0  0  0  0  0  0
  -21.8813   -3.8152   23.4331 C   0  0  0  0  0  0
  -21.9201   -4.6980   22.3398 C   0  0  0  0  0  0
  -22.7819  -13.5235   21.1825 C   0  0  0  0  0  0
  -22.1646   -4.2177   21.0971 F   0  0  0  0  0  0
  -21.5623   -3.4528   25.7719 F   0  0  0  0  0  0
  -30.0461  -13.2783   20.4219 N   0  0  0  0  0  0
  -26.3016  -12.9437   20.3420 N   0  0  0  0  0  0
  -25.9354  -11.6574   20.5814 N   0  0  0  0  0  0
  -22.0451  -12.8252   22.0393 N   0  0  0  0  0  0
  -25.4167  -15.1925   20.4155 N   0  0  0  0  0  0
  -31.9758  -14.4307   20.1740 O   0  0  0  0  0  0
  -21.6642   -6.8891   21.4244 O   0  0  0  0  0  0
  -22.3521  -14.5532   20.6641 O   0  0  0  0  0  0
  -24.6141  -31.8714   23.2152 C   0  0  0  0  0  0
  -25.9044  -32.4840   23.8432 C   0  0  1  0  0  0
  -27.2023  -27.4486   20.0935 C   0  0  0  0  0  0
  -25.5867  -33.8637   24.2342 N   0  0  0  0  0  0
  -23.3997  -30.5016   21.5547 C   0  0  2  0  0  0
  -24.8425  -28.9867   20.1023 C   0  0  0  0  0  0
  -22.7409  -29.4672   22.4975 C   0  0  0  0  0  0
  -18.0272  -28.1393   22.8494 C   0  0  0  0  0  0
  -24.1471  -36.7333   23.2641 C   0  0  0  0  0  0
  -25.9301  -30.8427   21.3712 C   0  0  0  0  0  0
  -26.0046  -29.4855   20.7039 C   0  0  0  0  0  0
  -27.1959  -28.7239   20.6990 C   0  0  0  0  0  0
  -26.0356  -26.9808   19.4531 C   0  0  0  0  0  0
  -24.8523  -27.7328   19.4710 C   0  0  0  0  0  0
  -23.6061  -29.8504   20.1625 C   0  0  0  0  0  0
  -25.4097  -36.3115   24.0325 C   0  0  1  0  0  0
  -20.5858  -28.3657   23.1319 C   0  0  2  0  0  0
  -20.6759  -26.9390   22.5421 C   0  0  0  0  0  0
  -19.5731  -26.6396   21.5225 C   0  0  0  0  0  0
  -18.1911  -26.7944   22.1632 C   0  0  0  0  0  0
  -19.1519  -28.8842   23.2915 C   0  0  0  0  0  0
  -18.9455  -30.1456   23.8923 C   0  0  0  0  0  0
  -17.6464  -30.6593   24.0566 C   0  0  0  0  0  0
  -25.9020  -34.9482   23.5112 C   0  0  0  0  0  0
  -16.5350  -29.9101   23.6330 C   0  0  0  0  0  0
  -16.7268  -28.6513   23.0352 C   0  0  0  0  0  0
  -26.4478  -31.6630   25.0761 C   0  0  0  0  0  0
  -25.3756  -31.3738   26.1508 C   0  0  0  0  0  0
  -27.0354  -30.3070   24.6196 C   0  0  0  0  0  0
  -27.6048  -32.4386   25.7491 C   0  0  0  0  0  0
  -27.5572  -37.1834   24.8463 C   0  0  0  0  0  0
  -21.4141  -29.3037   22.3742 N   0  0  0  0  0  0
  -26.4300  -37.3790   23.9382 N   0  0  0  0  0  0
  -24.6652  -31.0844   22.1052 N   0  0  0  0  0  0
  -23.4204  -28.8195   23.2977 O   0  0  0  0  0  0
  -28.2798  -26.6073   20.2184 O   0  0  0  0  0  0
  -26.5611  -34.8928   22.4699 O   0  0  0  0  0  0
  -23.5334  -32.1450   23.7573 O   0  0  0  0  0  0
  -30.2129  -18.3895   21.6425 C   0  0  0  0  0  0
  -30.0429  -19.6981   22.1241 C   0  0  0  0  0  0
  -28.6810  -20.2334   20.2005 C   0  0  0  0  0  0
  -29.7248  -18.0186   20.3702 C   0  0  0  0  0  0
  -29.3783  -20.6767   21.3498 C   0  0  0  0  0  0
  -28.8615  -18.9289   19.7017 C   0  0  0  0  0  0
  -30.1451  -24.8282   21.8863 C   0  0  0  0  0  0
  -29.0010  -24.4712   21.2836 C   0  0  0  0  0  0
  -31.2300  -23.8383   22.2520 C   0  0  0  0  0  0
  -28.6971  -23.0133   20.9473 C   0  0  0  0  0  0
  -30.9542  -22.4046   21.7578 C   0  0  0  0  0  0
  -31.8448  -17.1412   19.5129 C   0  0  0  0  0  0
  -29.7978  -16.4478   18.2975 C   0  0  0  0  0  0
  -27.8941  -25.4720   21.0196 C   0  0  0  0  0  0
  -30.3404  -16.7700   19.7110 C   0  0  0  0  0  0
  -29.5278  -22.0475   21.6817 N   0  0  0  0  0  0
  -30.0910  -15.5614   20.5399 N   0  0  0  0  0  0
  -28.2465  -18.6127   18.5376 F   0  0  0  0  0  0
  -31.4374  -12.2826   19.1191 H   0  0  0  0  0  0
  -30.2265  -11.2566   19.8298 H   0  0  0  0  0  0
  -29.7011  -11.7805   17.4083 H   0  0  0  0  0  0
  -29.6590  -13.4802   17.7771 H   0  0  0  0  0  0
  -27.8008  -11.3221   18.8077 H   0  0  0  0  0  0
  -27.3550  -12.6628   17.7871 H   0  0  0  0  0  0
  -27.6817  -14.2690   19.5581 H   0  0  0  0  0  0
  -28.6560  -12.0513   21.4187 H   0  0  0  0  0  0
  -28.5169  -13.7457   21.8189 H   0  0  0  0  0  0
  -25.2782   -9.5695   22.4741 H   0  0  0  0  0  0
  -24.0033   -7.4643   22.7447 H   0  0  0  0  0  0
  -21.0842   -8.8828   19.8982 H   0  0  0  0  0  0
  -22.3707  -10.9709   19.6184 H   0  0  0  0  0  0
  -21.2047   -7.6159   23.9742 H   0  0  0  0  0  0
  -21.1479   -6.0505   25.9081 H   0  0  0  0  0  0
  -22.0587   -2.7624   23.2806 H   0  0  0  0  0  0
  -22.4050  -11.9974   22.4883 H   0  0  0  0  0  0
  -21.1048  -13.1293   22.2507 H   0  0  0  0  0  0
  -24.6324  -15.8272   20.5203 H   0  0  0  0  0  0
  -26.2534  -15.6499   20.0760 H   0  0  0  0  0  0
  -26.7112  -32.5550   23.1202 H   0  0  0  0  0  0
  -24.9953  -33.9794   25.0427 H   0  0  0  0  0  0
  -22.6858  -31.3189   21.4270 H   0  0  0  0  0  0
  -23.3701  -35.9698   23.3355 H   0  0  0  0  0  0
  -24.3538  -36.8908   22.2042 H   0  0  0  0  0  0
  -23.7283  -37.6576   23.6641 H   0  0  0  0  0  0
  -26.0604  -31.6210   20.6171 H   0  0  0  0  0  0
  -26.8121  -30.8768   21.9997 H   0  0  0  0  0  0
  -28.0835  -29.0891   21.1969 H   0  0  0  0  0  0
  -26.0272  -26.0168   18.9679 H   0  0  0  0  0  0
  -23.9598  -27.3432   19.0015 H   0  0  0  0  0  0
  -23.7178  -30.6361   19.4137 H   0  0  0  0  0  0
  -22.7274  -29.2782   19.8595 H   0  0  0  0  0  0
  -25.1301  -36.1988   25.0827 H   0  0  0  0  0  0
  -20.9973  -28.3229   24.1433 H   0  0  0  0  0  0
  -20.5656  -26.2265   23.3607 H   0  0  0  0  0  0
  -21.6625  -26.7441   22.1210 H   0  0  0  0  0  0
  -19.6855  -25.6318   21.1230 H   0  0  0  0  0  0
  -19.6657  -27.3226   20.6766 H   0  0  0  0  0  0
  -17.4177  -26.6706   21.4035 H   0  0  0  0  0  0
  -18.0286  -26.0106   22.9035 H   0  0  0  0  0  0
  -19.7941  -30.7263   24.2289 H   0  0  0  0  0  0
  -17.5024  -31.6262   24.5191 H   0  0  0  0  0  0
  -15.5352  -30.3000   23.7656 H   0  0  0  0  0  0
  -15.8674  -28.0849   22.7045 H   0  0  0  0  0  0
  -24.5910  -30.7106   25.7861 H   0  0  0  0  0  0
  -24.8973  -32.2891   26.4990 H   0  0  0  0  0  0
  -25.8100  -30.8892   27.0253 H   0  0  0  0  0  0
  -26.2928  -29.6785   24.1275 H   0  0  0  0  0  0
  -27.4153  -29.7381   25.4703 H   0  0  0  0  0  0
  -27.8713  -30.4382   23.9331 H   0  0  0  0  0  0
  -27.2656  -33.3644   26.2153 H   0  0  0  0  0  0
  -28.3784  -32.7059   25.0278 H   0  0  0  0  0  0
  -28.0821  -31.8509   26.5346 H   0  0  0  0  0  0
  -28.2645  -38.0089   24.7470 H   0  0  0  0  0  0
  -28.1028  -36.2623   24.6345 H   0  0  0  0  0  0
  -27.2282  -37.1545   25.8872 H   0  0  0  0  0  0
  -20.9286  -29.8794   21.7002 H   0  0  0  0  0  0
  -26.0186  -38.2868   24.1375 H   0  0  0  0  0  0
  -30.8425  -17.7084   22.1983 H   0  0  0  0  0  0
  -30.5183  -19.9612   23.0596 H   0  0  0  0  0  0
  -28.0726  -20.9004   19.6096 H   0  0  0  0  0  0
  -30.3047  -25.8607   22.1587 H   0  0  0  0  0  0
  -31.3312  -23.8408   23.3387 H   0  0  0  0  0  0
  -32.1844  -24.1860   21.8526 H   0  0  0  0  0  0
  -28.8405  -22.9062   19.8709 H   0  0  0  0  0  0
  -27.6446  -22.8023   21.1580 H   0  0  0  0  0  0
  -31.5125  -21.7290   22.4063 H   0  0  0  0  0  0
  -31.3822  -22.2774   20.7621 H   0  0  0  0  0  0
  -31.9470  -18.1282   19.0612 H   0  0  0  0  0  0
  -32.3719  -16.4618   18.8413 H   0  0  0  0  0  0
  -32.3951  -17.1633   20.4542 H   0  0  0  0  0  0
  -29.9724  -17.2619   17.5960 H   0  0  0  0  0  0
  -28.7332  -16.2213   18.3067 H   0  0  0  0  0  0
  -30.3077  -15.5879   17.8663 H   0  0  0  0  0  0
  -27.5320  -25.8173   21.9930 H   0  0  0  0  0  0
  -27.0637  -24.9244   20.5728 H   0  0  0  0  0  0
  -29.1481  -15.4669   20.8802 H   0  0  0  0  0  0
  1 25  1  0  0  0
  1 30  2  0  0  0
  1 87  1  0  0  0
  2  3  1  0  0  0
  2 25  1  0  0  0
  2 89  1  0  0  0
  2 90  1  0  0  0
  3  4  1  0  0  0
  3 91  1  0  0  0
  3 92  1  0  0  0
  4  5  1  0  0  0
  4 93  1  0  0  0
  4 94  1  0  0  0
  5  6  1  0  0  0
  5 26  1  0  0  0
  5 95  1  0  0  0
  6 25  1  0  0  0
  6 96  1  0  0  0
  6 97  1  0  0  0
  7  8  2  0  0  0
  7 26  1  0  0  0
  7 29  1  0  0  0
  8  9  1  0  0  0
  8 22  1  0  0  0
  9 10  1  0  0  0
  9 27  2  0  0  0
 10 11  2  0  0  0
 10 15  1  0  0  0
 11 12  1  0  0  0
 11 98  1  0  0  0
 12 13  2  0  0  0
 12 99  1  0  0  0
 13 14  1  0  0  0
 13 31  1  0  0  0
 14 15  2  0  0  0
 14100  1  0  0  0
 15101  1  0  0  0
 16 17  2  0  0  0
 16 21  1  0  0  0
 16 31  1  0  0  0
 17 18  1  0  0  0
 17102  1  0  0  0
 18 19  2  0  0  0
 18103  1  0  0  0
 19 20  1  0  0  0
 19 24  1  0  0  0
 20 21  2  0  0  0
 20104  1  0  0  0
 21 23  1  0  0  0
 22 28  1  0  0  0
 22 32  2  0  0  0
 26 27  1  0  0  0
 28105  1  0  0  0
 28106  1  0  0  0
 29107  1  0  0  0
 29108  1  0  0  0
 33 34  1  0  0  0
 33 66  1  0  0  0
 33 70  2  0  0  0
 34 36  1  0  0  0
 34 59  1  0  0  0
 34109  1  0  0  0
 35 44  2  0  0  0
 35 45  1  0  0  0
 35 68  1  0  0  0
 36 56  1  0  0  0
 36110  1  0  0  0
 37 39  1  0  0  0
 37 47  1  0  0  0
 37 66  1  0  0  0
 37111  1  0  0  0
 38 43  2  0  0  0
 38 46  1  0  0  0
 38 47  1  0  0  0
 39 64  1  0  0  0
 39 67  2  0  0  0
 40 52  1  0  0  0
 40 53  2  0  0  0
 40 58  1  0  0  0
 41112  1  0  0  0
 41113  1  0  0  0
 41114  1  0  0  0
 41 48  1  0  0  0
 42 43  1  0  0  0
 42 66  1  0  0  0
 42115  1  0  0  0
 42116  1  0  0  0
 43 44  1  0  0  0
 44117  1  0  0  0
 45 46  2  0  0  0
 45118  1  0  0  0
 46119  1  0  0  0
 47120  1  0  0  0
 47121  1  0  0  0
 48 56  1  0  0  0
 48 65  1  0  0  0
 48122  1  0  0  0
 49 50  1  0  0  0
 49 53  1  0  0  0
 49 64  1  0  0  0
 49123  1  0  0  0
 50 51  1  0  0  0
 50124  1  0  0  0
 50125  1  0  0  0
 51 52  1  0  0  0
 51126  1  0  0  0
 51127  1  0  0  0
 52128  1  0  0  0
 52129  1  0  0  0
 53 54  1  0  0  0
 54 55  2  0  0  0
 54130  1  0  0  0
 55 57  1  0  0  0
 55131  1  0  0  0
 56 69  2  0  0  0
 57 58  2  0  0  0
 57132  1  0  0  0
 58133  1  0  0  0
 59 60  1  0  0  0
 59 61  1  0  0  0
 59 62  1  0  0  0
 60134  1  0  0  0
 60135  1  0  0  0
 60136  1  0  0  0
 61137  1  0  0  0
 61138  1  0  0  0
 61139  1  0  0  0
 62140  1  0  0  0
 62141  1  0  0  0
 62142  1  0  0  0
 63 65  1  0  0  0
 63143  1  0  0  0
 63144  1  0  0  0
 63145  1  0  0  0
 64146  1  0  0  0
 65147  1  0  0  0
 68 84  1  0  0  0
 71 72  2  0  0  0
 71 74  1  0  0  0
 71148  1  0  0  0
 72 75  1  0  0  0
 72149  1  0  0  0
 73 75  2  0  0  0
 73 76  1  0  0  0
 73150  1  0  0  0
 74 76  2  0  0  0
 74 85  1  0  0  0
 75 86  1  0  0  0
 76 88  1  0  0  0
 77 78  2  0  0  0
 77 79  1  0  0  0
 77151  1  0  0  0
 78 80  1  0  0  0
 78 84  1  0  0  0
 79 81  1  0  0  0
 79152  1  0  0  0
 79153  1  0  0  0
 80 86  1  0  0  0
 80154  1  0  0  0
 80155  1  0  0  0
 81 86  1  0  0  0
 81156  1  0  0  0
 81157  1  0  0  0
 82158  1  0  0  0
 82159  1  0  0  0
 82160  1  0  0  0
 82 85  1  0  0  0
 83 85  1  0  0  0
 83161  1  0  0  0
 83162  1  0  0  0
 83163  1  0  0  0
 84164  1  0  0  0
 84165  1  0  0  0
 85 87  1  0  0  0
 87166  1  0  0  0
M  ISO  4   1 100  68 101  84 101  87 100
M  END
> <chiral flag>
0

> <version>
0

> <s_m_source_file>
/data/baiqing/PycharmProjects/Reinvent-master-3.2/result/LINK_invent/BTK/process_docking_weight1_custom_product_contain_oxygen_bond_distance_aromatic_linkinvent_7_9_3/rearranged_h_0075.sdf

> <i_m_source_file_index>
11

> <r_mmod_Potential_Energy-OPLS-2005>
100.588348388672

> <r_mmod_Stretch_Energy-OPLS-2005>
40.5146141052246

> <r_mmod_Bend_Energy-OPLS-2005>
112.428024291992

> <r_mmod_Torsional_Energy-OPLS-2005>
279.989776611328

> <r_mmod_Improper_Torsional_Energy-OPLS-2005>
18.0880641937256

> <r_mmod_Van_der_Waal_Energy-OPLS-2005>
191.934066772461

> <r_mmod_Electrostatic_Energy-OPLS-2005>
-360.801513671875

> <r_mmod_Solvation_Energy-OPLS-2005>
-213.579727172852

> <b_mmod_Minimization_Converged-OPLS-2005>
0

> <r_mmod_RMS_Derivative-OPLS-2005>
4.27846670150757

$$$$
11
                    3D
 Structure written by MMmdl.
157165  0  0  1  0            999 V2000
  -30.6292  -14.6455   20.4381 C   0  0  0  0  0  0
  -30.4431  -12.3856   19.4378 C   0  0  0  0  0  0
  -29.5019  -12.4912   18.2141 C   0  0  0  0  0  0
  -28.0294  -12.3171   18.6417 C   0  0  0  0  0  0
  -27.6515  -13.2116   19.8530 C   0  0  2  0  0  0
  -28.7070  -13.0942   20.9770 C   0  0  0  0  0  0
  -25.2550  -13.8174   20.5652 C   0  0  0  0  0  0
  -24.1843  -13.0457   20.9214 C   0  0  0  0  0  0
  -24.6410  -11.6915   20.8772 C   0  0  0  0  0  0
  -23.9085  -10.4312   21.0456 C   0  0  0  0  0  0
  -24.3635   -9.4209   21.9215 C   0  0  0  0  0  0
  -23.6307   -8.2244   22.0767 C   0  0  0  0  0  0
  -22.4290   -8.0293   21.3557 C   0  0  0  0  0  0
  -21.9938   -9.0274   20.4659 C   0  0  0  0  0  0
  -22.7271  -10.2151   20.3082 C   0  0  0  0  0  0
  -21.6835   -6.0762   22.5307 C   0  0  0  0  0  0
  -21.4003   -6.5664   23.8247 C   0  0  0  0  0  0
  -21.3646   -5.6807   24.9197 C   0  0  0  0  0  0
  -21.6046   -4.3077   24.7238 C   0  0  0  0  0  0
  -21.8802   -3.8173   23.4357 C   0  0  0  0  0  0
  -21.9198   -4.6997   22.3418 C   0  0  0  0  0  0
  -22.7852  -13.5240   21.1871 C   0  0  0  0  0  0
  -22.1660   -4.2195   21.0985 F   0  0  0  0  0  0
  -21.5631   -3.4537   25.7738 F   0  0  0  0  0  0
  -30.0219  -13.4196   20.3965 N   0  0  0  0  0  0
  -26.2986  -12.9336   20.3290 N   0  0  0  0  0  0
  -25.9323  -11.6511   20.5776 N   0  0  0  0  0  0
  -22.0488  -12.8232   22.0428 N   0  0  0  0  0  0
  -25.4184  -15.1886   20.3956 N   0  0  0  0  0  0
  -31.8213  -14.7974   20.1599 O   0  0  0  0  0  0
  -21.6634   -6.8896   21.4264 O   0  0  0  0  0  0
  -22.3532  -14.5568   20.6746 O   0  0  0  0  0  0
  -24.6270  -31.8645   23.2057 C   0  0  0  0  0  0
  -25.9119  -32.4779   23.8417 C   0  0  1  0  0  0
  -27.2042  -27.3282   20.1169 C   0  0  0  0  0  0
  -25.5866  -33.8560   24.2268 N   0  0  0  0  0  0
  -23.4194  -30.4901   21.5503 C   0  0  2  0  0  0
  -24.8620  -28.9552   20.1080 C   0  0  0  0  0  0
  -22.7443  -29.4718   22.4970 C   0  0  0  0  0  0
  -18.0300  -28.1467   22.8452 C   0  0  0  0  0  0
  -24.1481  -36.7311   23.2646 C   0  0  0  0  0  0
  -25.9645  -30.7927   21.3879 C   0  0  0  0  0  0
  -26.0300  -29.4211   20.7281 C   0  0  0  0  0  0
  -27.2060  -28.6172   20.7283 C   0  0  0  0  0  0
  -26.0412  -26.9494   19.4120 C   0  0  0  0  0  0
  -24.8687  -27.7247   19.4392 C   0  0  0  0  0  0
  -23.6304  -29.8346   20.1628 C   0  0  0  0  0  0
  -25.4092  -36.3054   24.0332 C   0  0  1  0  0  0
  -20.5879  -28.3762   23.1273 C   0  0  2  0  0  0
  -20.6817  -26.9463   22.5359 C   0  0  0  0  0  0
  -19.5744  -26.6453   21.5214 C   0  0  0  0  0  0
  -18.1946  -26.8038   22.1609 C   0  0  0  0  0  0
  -19.1539  -28.8931   23.2887 C   0  0  0  0  0  0
  -18.9515  -30.1518   23.8905 C   0  0  0  0  0  0
  -17.6511  -30.6632   24.0652 C   0  0  0  0  0  0
  -25.9006  -34.9421   23.5079 C   0  0  0  0  0  0
  -16.5394  -29.9149   23.6390 C   0  0  0  0  0  0
  -16.7302  -28.6595   23.0318 C   0  0  0  0  0  0
  -26.4457  -31.6613   25.0826 C   0  0  0  0  0  0
  -25.3673  -31.3793   26.1543 C   0  0  0  0  0  0
  -27.0345  -30.3057   24.6314 C   0  0  0  0  0  0
  -27.5969  -32.4401   25.7563 C   0  0  0  0  0  0
  -27.5563  -37.1796   24.8453 C   0  0  0  0  0  0
  -21.4146  -29.3178   22.3741 N   0  0  0  0  0  0
  -26.4289  -37.3735   23.9372 N   0  0  0  0  0  0
  -24.6882  -31.0692   22.1004 N   0  0  0  0  0  0
  -23.4163  -28.8185   23.3002 O   0  0  0  0  0  0
  -28.2928  -26.4483   20.1426 O   0  0  0  0  0  0
  -26.5610  -34.8876   22.4680 O   0  0  0  0  0  0
  -23.5410  -32.1460   23.7319 O   0  0  0  0  0  0
  -28.6549  -19.2504   19.8932 C   0  0  0  0  0  0
  -30.9977  -17.9433   20.7438 C   0  0  0  0  0  0
  -29.7484  -20.0662   20.2909 C   0  0  0  0  0  0
  -29.8779  -17.1395   20.3989 C   0  0  0  0  0  0
  -30.9226  -19.3713   20.6968 C   0  0  0  0  0  0
  -28.7210  -17.8315   19.9560 C   0  0  0  0  0  0
  -28.7824  -22.4612   20.0471 C   0  0  0  0  0  0
  -26.7322  -24.5916   21.0142 C   0  0  0  0  0  0
  -28.7086  -25.3989   22.2352 C   0  0  0  0  0  0
  -29.1253  -24.0142   20.1008 C   0  0  0  0  0  0
  -28.1831  -25.1133   20.8112 C   0  0  0  0  0  0
  -29.7552  -21.5341   20.3147 N   0  0  0  0  0  0
  -29.7626  -15.6934   20.5354 N   0  0  0  0  0  0
  -27.6576  -22.1200   19.6746 O   0  0  0  0  0  0
  -32.0080  -20.0977   21.0596 F   0  0  0  0  0  0
  -27.6404  -17.1061   19.5832 F   0  0  0  0  0  0
  -31.4831  -12.5096   19.1287 H   0  0  0  0  0  0
  -30.3748  -11.3975   19.8955 H   0  0  0  0  0  0
  -29.7681  -11.7393   17.4682 H   0  0  0  0  0  0
  -29.6285  -13.4612   17.7273 H   0  0  0  0  0  0
  -27.8903  -11.2682   18.9020 H   0  0  0  0  0  0
  -27.3620  -12.5106   17.8004 H   0  0  0  0  0  0
  -27.6581  -14.2362   19.4856 H   0  0  0  0  0  0
  -28.7141  -12.0839   21.3874 H   0  0  0  0  0  0
  -28.4587  -13.7537   21.8096 H   0  0  0  0  0  0
  -25.2779   -9.5672   22.4786 H   0  0  0  0  0  0
  -24.0031   -7.4614   22.7460 H   0  0  0  0  0  0
  -21.0878   -8.8802   19.8928 H   0  0  0  0  0  0
  -22.3764  -10.9697   19.6193 H   0  0  0  0  0  0
  -21.1974   -7.6163   23.9765 H   0  0  0  0  0  0
  -21.1484   -6.0526   25.9107 H   0  0  0  0  0  0
  -22.0590   -2.7634   23.2844 H   0  0  0  0  0  0
  -22.4077  -11.9870   22.4797 H   0  0  0  0  0  0
  -21.1112  -13.1259   22.2641 H   0  0  0  0  0  0
  -24.6266  -15.8177   20.4608 H   0  0  0  0  0  0
  -26.2414  -15.6428   20.0172 H   0  0  0  0  0  0
  -26.7259  -32.5509   23.1233 H   0  0  0  0  0  0
  -24.9973  -33.9670   25.0386 H   0  0  0  0  0  0
  -22.7137  -31.3115   21.4083 H   0  0  0  0  0  0
  -23.3681  -35.9714   23.3325 H   0  0  0  0  0  0
  -24.3605  -36.8918   22.2061 H   0  0  0  0  0  0
  -23.7284  -37.6540   23.6669 H   0  0  0  0  0  0
  -26.1120  -31.5672   20.6326 H   0  0  0  0  0  0
  -26.8374  -30.8221   22.0299 H   0  0  0  0  0  0
  -28.0982  -28.9692   21.2253 H   0  0  0  0  0  0
  -26.0316  -26.0296   18.8462 H   0  0  0  0  0  0
  -23.9841  -27.3770   18.9243 H   0  0  0  0  0  0
  -23.7512  -30.6176   19.4161 H   0  0  0  0  0  0
  -22.7498  -29.2697   19.8547 H   0  0  0  0  0  0
  -25.1278  -36.1899   25.0839 H   0  0  0  0  0  0
  -20.9903  -28.3352   24.1432 H   0  0  0  0  0  0
  -20.5686  -26.2312   23.3516 H   0  0  0  0  0  0
  -21.6668  -26.7510   22.1110 H   0  0  0  0  0  0
  -19.6799  -25.6419   21.1115 H   0  0  0  0  0  0
  -19.6704  -27.3394   20.6846 H   0  0  0  0  0  0
  -17.4198  -26.6717   21.4037 H   0  0  0  0  0  0
  -18.0371  -26.0283   22.9126 H   0  0  0  0  0  0
  -19.8041  -30.7342   24.2178 H   0  0  0  0  0  0
  -17.5093  -31.6289   24.5298 H   0  0  0  0  0  0
  -15.5380  -30.3003   23.7803 H   0  0  0  0  0  0
  -15.8720  -28.0956   22.6921 H   0  0  0  0  0  0
  -24.5769  -30.7228   25.7890 H   0  0  0  0  0  0
  -24.8983  -32.3006   26.4999 H   0  0  0  0  0  0
  -25.7996  -30.8923   27.0289 H   0  0  0  0  0  0
  -26.2982  -29.6777   24.1326 H   0  0  0  0  0  0
  -27.4023  -29.7325   25.4825 H   0  0  0  0  0  0
  -27.8810  -30.4367   23.9591 H   0  0  0  0  0  0
  -27.2498  -33.3659   26.2141 H   0  0  0  0  0  0
  -28.3727  -32.7037   25.0375 H   0  0  0  0  0  0
  -28.0718  -31.8603   26.5461 H   0  0  0  0  0  0
  -28.2572  -38.0088   24.7442 H   0  0  0  0  0  0
  -28.1037  -36.2604   24.6326 H   0  0  0  0  0  0
  -27.2287  -37.1534   25.8860 H   0  0  0  0  0  0
  -20.9272  -29.9116   21.7163 H   0  0  0  0  0  0
  -26.0139  -38.2807   24.1346 H   0  0  0  0  0  0
  -27.7310  -19.6883   19.5432 H   0  0  0  0  0  0
  -31.9184  -17.4822   21.0750 H   0  0  0  0  0  0
  -26.7202  -23.7060   21.6540 H   0  0  0  0  0  0
  -26.2514  -24.2962   20.0824 H   0  0  0  0  0  0
  -26.0907  -25.3183   21.5146 H   0  0  0  0  0  0
  -29.7483  -25.7268   22.2233 H   0  0  0  0  0  0
  -28.6454  -24.5193   22.8778 H   0  0  0  0  0  0
  -28.1244  -26.1822   22.7233 H   0  0  0  0  0  0
  -29.2388  -24.3147   19.0572 H   0  0  0  0  0  0
  -30.1330  -24.1105   20.5059 H   0  0  0  0  0  0
  -30.6496  -21.9235   20.5864 H   0  0  0  0  0  0
  -28.8037  -15.3854   20.5586 H   0  0  0  0  0  0
  1 25  1  0  0  0
  1 30  2  0  0  0
  1 83  1  0  0  0
  2  3  1  0  0  0
  2 25  1  0  0  0
  2 87  1  0  0  0
  2 88  1  0  0  0
  3  4  1  0  0  0
  3 89  1  0  0  0
  3 90  1  0  0  0
  4  5  1  0  0  0
  4 91  1  0  0  0
  4 92  1  0  0  0
  5  6  1  0  0  0
  5 26  1  0  0  0
  5 93  1  0  0  0
  6 25  1  0  0  0
  6 94  1  0  0  0
  6 95  1  0  0  0
  7  8  2  0  0  0
  7 26  1  0  0  0
  7 29  1  0  0  0
  8  9  1  0  0  0
  8 22  1  0  0  0
  9 10  1  0  0  0
  9 27  2  0  0  0
 10 11  2  0  0  0
 10 15  1  0  0  0
 11 12  1  0  0  0
 11 96  1  0  0  0
 12 13  2  0  0  0
 12 97  1  0  0  0
 13 14  1  0  0  0
 13 31  1  0  0  0
 14 15  2  0  0  0
 14 98  1  0  0  0
 15 99  1  0  0  0
 16 17  2  0  0  0
 16 21  1  0  0  0
 16 31  1  0  0  0
 17 18  1  0  0  0
 17100  1  0  0  0
 18 19  2  0  0  0
 18101  1  0  0  0
 19 20  1  0  0  0
 19 24  1  0  0  0
 20 21  2  0  0  0
 20102  1  0  0  0
 21 23  1  0  0  0
 22 28  1  0  0  0
 22 32  2  0  0  0
 26 27  1  0  0  0
 28103  1  0  0  0
 28104  1  0  0  0
 29105  1  0  0  0
 29106  1  0  0  0
 33 34  1  0  0  0
 33 66  1  0  0  0
 33 70  2  0  0  0
 34 36  1  0  0  0
 34 59  1  0  0  0
 34107  1  0  0  0
 35 44  2  0  0  0
 35 45  1  0  0  0
 35 68  1  0  0  0
 36 56  1  0  0  0
 36108  1  0  0  0
 37 39  1  0  0  0
 37 47  1  0  0  0
 37 66  1  0  0  0
 37109  1  0  0  0
 38 43  2  0  0  0
 38 46  1  0  0  0
 38 47  1  0  0  0
 39 64  1  0  0  0
 39 67  2  0  0  0
 40 52  1  0  0  0
 40 53  2  0  0  0
 40 58  1  0  0  0
 41110  1  0  0  0
 41111  1  0  0  0
 41112  1  0  0  0
 41 48  1  0  0  0
 42 43  1  0  0  0
 42 66  1  0  0  0
 42113  1  0  0  0
 42114  1  0  0  0
 43 44  1  0  0  0
 44115  1  0  0  0
 45 46  2  0  0  0
 45116  1  0  0  0
 46117  1  0  0  0
 47118  1  0  0  0
 47119  1  0  0  0
 48 56  1  0  0  0
 48 65  1  0  0  0
 48120  1  0  0  0
 49 50  1  0  0  0
 49 53  1  0  0  0
 49 64  1  0  0  0
 49121  1  0  0  0
 50 51  1  0  0  0
 50122  1  0  0  0
 50123  1  0  0  0
 51 52  1  0  0  0
 51124  1  0  0  0
 51125  1  0  0  0
 52126  1  0  0  0
 52127  1  0  0  0
 53 54  1  0  0  0
 54 55  2  0  0  0
 54128  1  0  0  0
 55 57  1  0  0  0
 55129  1  0  0  0
 56 69  2  0  0  0
 57 58  2  0  0  0
 57130  1  0  0  0
 58131  1  0  0  0
 59 60  1  0  0  0
 59 61  1  0  0  0
 59 62  1  0  0  0
 60132  1  0  0  0
 60133  1  0  0  0
 60134  1  0  0  0
 61135  1  0  0  0
 61136  1  0  0  0
 61137  1  0  0  0
 62138  1  0  0  0
 62139  1  0  0  0
 62140  1  0  0  0
 63 65  1  0  0  0
 63141  1  0  0  0
 63142  1  0  0  0
 63143  1  0  0  0
 64144  1  0  0  0
 65145  1  0  0  0
 68 81  1  0  0  0
 71 73  2  0  0  0
 71 76  1  0  0  0
 71146  1  0  0  0
 72 74  1  0  0  0
 72 75  2  0  0  0
 72147  1  0  0  0
 73 75  1  0  0  0
 73 82  1  0  0  0
 74 76  2  0  0  0
 74 83  1  0  0  0
 75 85  1  0  0  0
 76 86  1  0  0  0
 77 80  1  0  0  0
 77 82  1  0  0  0
 77 84  2  0  0  0
 78148  1  0  0  0
 78149  1  0  0  0
 78150  1  0  0  0
 78 81  1  0  0  0
 79 81  1  0  0  0
 79151  1  0  0  0
 79152  1  0  0  0
 79153  1  0  0  0
 80 81  1  0  0  0
 80154  1  0  0  0
 80155  1  0  0  0
 82156  1  0  0  0
 83157  1  0  0  0
M  ISO  4   1 100  68 101  81 101  83 100
M  END
> <chiral flag>
0

> <version>
0

> <s_m_source_file>
/data/baiqing/PycharmProjects/Reinvent-master-3.2/result/LINK_invent/BTK/process_docking_weight1_custom_product_contain_oxygen_bond_distance_aromatic_linkinvent_7_9_3/rearranged_h_0075.sdf

> <i_m_source_file_index>
12

> <r_mmod_Potential_Energy-OPLS-2005>
28.8530464172363

> <r_mmod_Stretch_Energy-OPLS-2005>
81.3707275390625

> <r_mmod_Bend_Energy-OPLS-2005>
161.093109130859

> <r_mmod_Torsional_Energy-OPLS-2005>
242.641647338867

> <r_mmod_Improper_Torsional_Energy-OPLS-2005>
8.10628414154053

> <r_mmod_Van_der_Waal_Energy-OPLS-2005>
153.28662109375

> <r_mmod_Electrostatic_Energy-OPLS-2005>
-467.982574462891

> <r_mmod_Solvation_Energy-OPLS-2005>
-205.465866088867

> <b_mmod_Minimization_Converged-OPLS-2005>
0

> <r_mmod_RMS_Derivative-OPLS-2005>
6.1715407371521

$$$$
12
                    3D
 Structure written by MMmdl.
180189  0  0  1  0            999 V2000
  -30.6509  -14.4755   20.4635 C   0  0  0  0  0  0
  -30.4279  -12.2721   19.4317 C   0  0  0  0  0  0
  -29.5048  -12.4792   18.2100 C   0  0  0  0  0  0
  -28.0197  -12.3554   18.6136 C   0  0  0  0  0  0
  -27.6585  -13.1895   19.8708 C   0  0  2  0  0  0
  -28.7040  -12.9760   20.9953 C   0  0  0  0  0  0
  -25.2584  -13.8095   20.5658 C   0  0  0  0  0  0
  -24.1820  -13.0406   20.9165 C   0  0  0  0  0  0
  -24.6351  -11.6872   20.8727 C   0  0  0  0  0  0
  -23.9027  -10.4272   21.0419 C   0  0  0  0  0  0
  -24.3596   -9.4199   21.9184 C   0  0  0  0  0  0
  -23.6275   -8.2236   22.0756 C   0  0  0  0  0  0
  -22.4249   -8.0266   21.3559 C   0  0  0  0  0  0
  -21.9884   -9.0237   20.4658 C   0  0  0  0  0  0
  -22.7212  -10.2109   20.3068 C   0  0  0  0  0  0
  -21.6844   -6.0724   22.5279 C   0  0  0  0  0  0
  -21.4006   -6.5627   23.8211 C   0  0  0  0  0  0
  -21.3664   -5.6776   24.9177 C   0  0  0  0  0  0
  -21.6040   -4.3044   24.7220 C   0  0  0  0  0  0
  -21.8818   -3.8142   23.4346 C   0  0  0  0  0  0
  -21.9192   -4.6959   22.3403 C   0  0  0  0  0  0
  -22.7850  -13.5252   21.1828 C   0  0  0  0  0  0
  -22.1668   -4.2159   21.0983 F   0  0  0  0  0  0
  -21.5633   -3.4521   25.7736 F   0  0  0  0  0  0
  -30.0435  -13.2616   20.4451 N   0  0  0  0  0  0
  -26.2994  -12.9218   20.3324 N   0  0  0  0  0  0
  -25.9264  -11.6410   20.5725 N   0  0  0  0  0  0
  -22.0480  -12.8280   22.0391 N   0  0  0  0  0  0
  -25.4309  -15.1801   20.4087 N   0  0  0  0  0  0
  -31.8051  -14.6731   20.0754 O   0  0  0  0  0  0
  -21.6631   -6.8856   21.4238 O   0  0  0  0  0  0
  -22.3551  -14.5575   20.6686 O   0  0  0  0  0  0
  -24.6071  -31.8713   23.2131 C   0  0  0  0  0  0
  -25.8984  -32.4840   23.8403 C   0  0  1  0  0  0
  -27.2564  -27.4940   20.0570 C   0  0  0  0  0  0
  -25.5849  -33.8634   24.2320 N   0  0  0  0  0  0
  -23.3915  -30.4922   21.5551 C   0  0  2  0  0  0
  -24.8405  -28.9496   20.1275 C   0  0  0  0  0  0
  -22.7336  -29.4682   22.5053 C   0  0  0  0  0  0
  -18.0258  -28.1373   22.8511 C   0  0  0  0  0  0
  -24.1481  -36.7336   23.2638 C   0  0  0  0  0  0
  -25.9153  -30.8364   21.3691 C   0  0  0  0  0  0
  -25.9892  -29.4658   20.7371 C   0  0  0  0  0  0
  -27.1869  -28.7273   20.7358 C   0  0  0  0  0  0
  -26.0887  -26.9599   19.4722 C   0  0  0  0  0  0
  -24.8766  -27.6830   19.5127 C   0  0  0  0  0  0
  -23.5997  -29.8145   20.1727 C   0  0  0  0  0  0
  -25.4089  -36.3116   24.0342 C   0  0  1  0  0  0
  -20.5839  -28.3650   23.1358 C   0  0  2  0  0  0
  -20.6743  -26.9398   22.5432 C   0  0  0  0  0  0
  -19.5732  -26.6391   21.5206 C   0  0  0  0  0  0
  -18.1907  -26.7925   22.1621 C   0  0  0  0  0  0
  -19.1505  -28.8830   23.2933 C   0  0  0  0  0  0
  -18.9448  -30.1441   23.8938 C   0  0  0  0  0  0
  -17.6456  -30.6588   24.0579 C   0  0  0  0  0  0
  -25.9026  -34.9484   23.5137 C   0  0  0  0  0  0
  -16.5346  -29.9098   23.6330 C   0  0  0  0  0  0
  -16.7251  -28.6511   23.0354 C   0  0  0  0  0  0
  -26.4417  -31.6625   25.0732 C   0  0  0  0  0  0
  -25.3697  -31.3745   26.1509 C   0  0  0  0  0  0
  -27.0245  -30.3067   24.6096 C   0  0  0  0  0  0
  -27.5997  -32.4339   25.7470 C   0  0  0  0  0  0
  -27.5582  -37.1796   24.8443 C   0  0  0  0  0  0
  -21.4067  -29.3020   22.3764 N   0  0  0  0  0  0
  -26.4265  -37.3799   23.9438 N   0  0  0  0  0  0
  -24.6548  -31.0830   22.1031 N   0  0  0  0  0  0
  -23.4121  -28.8233   23.3096 O   0  0  0  0  0  0
  -28.4653  -26.8549   19.9099 O   0  0  0  0  0  0
  -26.5602  -34.8925   22.4709 O   0  0  0  0  0  0
  -23.5276  -32.1471   23.7539 O   0  0  0  0  0  0
  -31.7058  -22.0077   20.1662 C   0  0  0  0  0  0
  -31.7384  -20.6017   20.1540 C   0  0  0  0  0  0
  -30.8734  -22.0026   17.8897 C   0  0  0  0  0  0
  -30.8797  -20.5893   17.8643 C   0  0  0  0  0  0
  -31.2275  -22.7328   19.0508 C   0  0  0  0  0  0
  -31.2936  -19.8753   19.0244 C   0  0  0  0  0  0
  -30.3066  -24.9444   18.3634 C   0  0  0  0  0  0
  -27.2977  -17.7651   19.5560 C   0  0  0  0  0  0
  -28.3418  -17.3532   20.2979 C   0  0  0  0  0  0
  -30.4593  -19.9092   16.5984 C   0  0  0  0  0  0
  -30.8102  -17.6916   20.0835 C   0  0  0  0  0  0
  -31.3577  -26.3981   19.9290 C   0  0  0  0  0  0
  -31.9178  -24.9758   20.0231 C   0  0  0  0  0  0
  -30.5509  -26.4342   18.6207 C   0  0  1  0  0  0
  -29.3350  -20.5520   15.7934 C   0  0  0  0  0  0
  -31.4586  -26.9366   17.4636 C   0  0  0  0  0  0
  -29.4379  -28.7715   18.6526 C   0  0  0  0  0  0
  -29.5347  -16.3552   18.2997 C   0  0  0  0  0  0
  -29.2089  -27.2400   18.7278 C   0  0  2  0  0  0
  -29.6421  -16.7106   19.8170 C   0  0  2  0  0  0
  -31.1219  -24.1645   19.1029 N   0  0  0  0  0  0
  -31.1844  -18.4545   19.0445 N   0  0  0  0  0  0
  -29.7616  -15.4708   20.6012 N   0  0  0  0  0  0
  -29.4576  -24.5620   17.5481 O   0  0  0  0  0  0
  -30.9318  -18.8363   16.2102 O   0  0  0  0  0  0
  -31.3331  -17.7523   21.1998 O   0  0  0  0  0  0
  -31.4768  -12.3572   19.1416 H   0  0  0  0  0  0
  -30.3107  -11.2636   19.8286 H   0  0  0  0  0  0
  -29.7410  -11.7539   17.4307 H   0  0  0  0  0  0
  -29.6872  -13.4599   17.7709 H   0  0  0  0  0  0
  -27.8110  -11.3012   18.7933 H   0  0  0  0  0  0
  -27.3821  -12.6519   17.7806 H   0  0  0  0  0  0
  -27.6846  -14.2316   19.5641 H   0  0  0  0  0  0
  -28.6679  -11.9488   21.3603 H   0  0  0  0  0  0
  -28.4790  -13.6003   21.8609 H   0  0  0  0  0  0
  -25.2746   -9.5681   22.4758 H   0  0  0  0  0  0
  -23.9994   -7.4624   22.7463 H   0  0  0  0  0  0
  -21.0824   -8.8760   19.8954 H   0  0  0  0  0  0
  -22.3686  -10.9648   19.6181 H   0  0  0  0  0  0
  -21.2000   -7.6129   23.9713 H   0  0  0  0  0  0
  -21.1485   -6.0508   25.9073 H   0  0  0  0  0  0
  -22.0603   -2.7615   23.2831 H   0  0  0  0  0  0
  -22.4077  -11.9930   22.4780 H   0  0  0  0  0  0
  -21.1107  -13.1338   22.2618 H   0  0  0  0  0  0
  -24.6648  -15.8322   20.5320 H   0  0  0  0  0  0
  -26.2772  -15.6288   20.0808 H   0  0  0  0  0  0
  -26.7053  -32.5549   23.1160 H   0  0  0  0  0  0
  -24.9918  -33.9796   25.0413 H   0  0  0  0  0  0
  -22.6767  -31.3076   21.4181 H   0  0  0  0  0  0
  -23.3718  -35.9693   23.3292 H   0  0  0  0  0  0
  -24.3598  -36.8965   22.2060 H   0  0  0  0  0  0
  -23.7268  -37.6550   23.6665 H   0  0  0  0  0  0
  -26.0203  -31.5883   20.5865 H   0  0  0  0  0  0
  -26.8072  -30.9004   21.9802 H   0  0  0  0  0  0
  -28.0795  -29.1331   21.1925 H   0  0  0  0  0  0
  -26.1261  -26.0082   18.9606 H   0  0  0  0  0  0
  -23.9895  -27.2745   19.0488 H   0  0  0  0  0  0
  -23.6979  -30.5848   19.4072 H   0  0  0  0  0  0
  -22.7260  -29.2272   19.8882 H   0  0  0  0  0  0
  -25.1256  -36.1954   25.0828 H   0  0  0  0  0  0
  -20.9926  -28.3216   24.1482 H   0  0  0  0  0  0
  -20.5637  -26.2249   23.3597 H   0  0  0  0  0  0
  -21.6631  -26.7450   22.1258 H   0  0  0  0  0  0
  -19.6878  -25.6298   21.1242 H   0  0  0  0  0  0
  -19.6668  -27.3204   20.6735 H   0  0  0  0  0  0
  -17.4164  -26.6688   21.4027 H   0  0  0  0  0  0
  -18.0323  -26.0050   22.9008 H   0  0  0  0  0  0
  -19.7930  -30.7247   24.2315 H   0  0  0  0  0  0
  -17.5019  -31.6274   24.5171 H   0  0  0  0  0  0
  -15.5357  -30.3017   23.7624 H   0  0  0  0  0  0
  -15.8644  -28.0835   22.7054 H   0  0  0  0  0  0
  -24.5828  -30.7127   25.7872 H   0  0  0  0  0  0
  -24.8929  -32.2918   26.4971 H   0  0  0  0  0  0
  -25.8063  -30.8904   27.0255 H   0  0  0  0  0  0
  -26.2802  -29.6851   24.1097 H   0  0  0  0  0  0
  -27.3976  -29.7271   25.4551 H   0  0  0  0  0  0
  -27.8648  -30.4405   23.9275 H   0  0  0  0  0  0
  -27.2611  -33.3607   26.2093 H   0  0  0  0  0  0
  -28.3750  -32.6945   25.0264 H   0  0  0  0  0  0
  -28.0713  -31.8442   26.5332 H   0  0  0  0  0  0
  -28.2546  -38.0140   24.7559 H   0  0  0  0  0  0
  -28.1122  -36.2683   24.6141 H   0  0  0  0  0  0
  -27.2344  -37.1315   25.8851 H   0  0  0  0  0  0
  -20.9184  -29.8699   21.6972 H   0  0  0  0  0  0
  -26.0141  -38.2872   24.1437 H   0  0  0  0  0  0
  -32.0232  -22.5053   21.0698 H   0  0  0  0  0  0
  -32.0749  -20.0947   21.0455 H   0  0  0  0  0  0
  -30.5827  -22.5297   16.9925 H   0  0  0  0  0  0
  -26.4407  -18.2197   20.0339 H   0  0  0  0  0  0
  -27.2576  -17.6695   18.4796 H   0  0  0  0  0  0
  -28.2814  -17.5026   21.3674 H   0  0  0  0  0  0
  -32.1474  -27.1475   19.9654 H   0  0  0  0  0  0
  -30.7181  -26.5810   20.7909 H   0  0  0  0  0  0
  -31.8567  -24.6313   21.0534 H   0  0  0  0  0  0
  -32.9626  -24.9473   19.7101 H   0  0  0  0  0  0
  -28.6115  -21.0266   16.4564 H   0  0  0  0  0  0
  -28.8124  -19.7924   15.2129 H   0  0  0  0  0  0
  -29.7268  -21.3014   15.1063 H   0  0  0  0  0  0
  -32.2940  -26.2605   17.2756 H   0  0  0  0  0  0
  -31.9063  -27.9058   17.6890 H   0  0  0  0  0  0
  -30.9098  -27.0336   16.5257 H   0  0  0  0  0  0
  -30.0185  -29.0646   17.7810 H   0  0  0  0  0  0
  -29.9515  -29.1448   19.5379 H   0  0  0  0  0  0
  -28.4989  -29.3140   18.5431 H   0  0  0  0  0  0
  -29.3140  -17.2245   17.6798 H   0  0  0  0  0  0
  -28.7294  -15.6469   18.1092 H   0  0  0  0  0  0
  -30.4523  -15.9135   17.9086 H   0  0  0  0  0  0
  -28.5926  -26.9855   17.8622 H   0  0  0  0  0  0
  -30.8700  -18.0699   18.1619 H   0  0  0  0  0  0
  -28.8937  -15.1720   21.0168 H   0  0  0  0  0  0
  1 25  1  0  0  0
  1 30  2  0  0  0
  1 93  1  0  0  0
  2  3  1  0  0  0
  2 25  1  0  0  0
  2 97  1  0  0  0
  2 98  1  0  0  0
  3  4  1  0  0  0
  3 99  1  0  0  0
  3100  1  0  0  0
  4  5  1  0  0  0
  4101  1  0  0  0
  4102  1  0  0  0
  5  6  1  0  0  0
  5 26  1  0  0  0
  5103  1  0  0  0
  6 25  1  0  0  0
  6104  1  0  0  0
  6105  1  0  0  0
  7  8  2  0  0  0
  7 26  1  0  0  0
  7 29  1  0  0  0
  8  9  1  0  0  0
  8 22  1  0  0  0
  9 10  1  0  0  0
  9 27  2  0  0  0
 10 11  2  0  0  0
 10 15  1  0  0  0
 11 12  1  0  0  0
 11106  1  0  0  0
 12 13  2  0  0  0
 12107  1  0  0  0
 13 14  1  0  0  0
 13 31  1  0  0  0
 14 15  2  0  0  0
 14108  1  0  0  0
 15109  1  0  0  0
 16 17  2  0  0  0
 16 21  1  0  0  0
 16 31  1  0  0  0
 17 18  1  0  0  0
 17110  1  0  0  0
 18 19  2  0  0  0
 18111  1  0  0  0
 19 20  1  0  0  0
 19 24  1  0  0  0
 20 21  2  0  0  0
 20112  1  0  0  0
 21 23  1  0  0  0
 22 28  1  0  0  0
 22 32  2  0  0  0
 26 27  1  0  0  0
 28113  1  0  0  0
 28114  1  0  0  0
 29115  1  0  0  0
 29116  1  0  0  0
 33 34  1  0  0  0
 33 66  1  0  0  0
 33 70  2  0  0  0
 34 36  1  0  0  0
 34 59  1  0  0  0
 34117  1  0  0  0
 35 44  2  0  0  0
 35 45  1  0  0  0
 35 68  1  0  0  0
 36 56  1  0  0  0
 36118  1  0  0  0
 37 39  1  0  0  0
 37 47  1  0  0  0
 37 66  1  0  0  0
 37119  1  0  0  0
 38 43  2  0  0  0
 38 46  1  0  0  0
 38 47  1  0  0  0
 39 64  1  0  0  0
 39 67  2  0  0  0
 40 52  1  0  0  0
 40 53  2  0  0  0
 40 58  1  0  0  0
 41120  1  0  0  0
 41121  1  0  0  0
 41122  1  0  0  0
 41 48  1  0  0  0
 42 43  1  0  0  0
 42 66  1  0  0  0
 42123  1  0  0  0
 42124  1  0  0  0
 43 44  1  0  0  0
 44125  1  0  0  0
 45 46  2  0  0  0
 45126  1  0  0  0
 46127  1  0  0  0
 47128  1  0  0  0
 47129  1  0  0  0
 48 56  1  0  0  0
 48 65  1  0  0  0
 48130  1  0  0  0
 49 50  1  0  0  0
 49 53  1  0  0  0
 49 64  1  0  0  0
 49131  1  0  0  0
 50 51  1  0  0  0
 50132  1  0  0  0
 50133  1  0  0  0
 51 52  1  0  0  0
 51134  1  0  0  0
 51135  1  0  0  0
 52136  1  0  0  0
 52137  1  0  0  0
 53 54  1  0  0  0
 54 55  2  0  0  0
 54138  1  0  0  0
 55 57  1  0  0  0
 55139  1  0  0  0
 56 69  2  0  0  0
 57 58  2  0  0  0
 57140  1  0  0  0
 58141  1  0  0  0
 59 60  1  0  0  0
 59 61  1  0  0  0
 59 62  1  0  0  0
 60142  1  0  0  0
 60143  1  0  0  0
 60144  1  0  0  0
 61145  1  0  0  0
 61146  1  0  0  0
 61147  1  0  0  0
 62148  1  0  0  0
 62149  1  0  0  0
 62150  1  0  0  0
 63 65  1  0  0  0
 63151  1  0  0  0
 63152  1  0  0  0
 63153  1  0  0  0
 64154  1  0  0  0
 65155  1  0  0  0
 68 89  1  0  0  0
 71 72  2  0  0  0
 71 75  1  0  0  0
 71156  1  0  0  0
 72 76  1  0  0  0
 72157  1  0  0  0
 73 74  1  0  0  0
 73 75  2  0  0  0
 73158  1  0  0  0
 74 76  2  0  0  0
 74 80  1  0  0  0
 75 91  1  0  0  0
 76 92  1  0  0  0
 77 84  1  0  0  0
 77 91  1  0  0  0
 77 94  2  0  0  0
 78 79  2  0  0  0
 78159  1  0  0  0
 78160  1  0  0  0
 79161  1  0  0  0
 79 90  1  0  0  0
 80 85  1  0  0  0
 80 95  2  0  0  0
 81 90  1  0  0  0
 81 92  1  0  0  0
 81 96  2  0  0  0
 82 83  1  0  0  0
 82 84  1  0  0  0
 82162  1  0  0  0
 82163  1  0  0  0
 83 91  1  0  0  0
 83164  1  0  0  0
 83165  1  0  0  0
 84 86  1  0  0  0
 84 89  1  0  0  0
 85166  1  0  0  0
 85167  1  0  0  0
 85168  1  0  0  0
 86169  1  0  0  0
 86170  1  0  0  0
 86171  1  0  0  0
 87172  1  0  0  0
 87173  1  0  0  0
 87174  1  0  0  0
 87 89  1  0  0  0
 88175  1  0  0  0
 88176  1  0  0  0
 88177  1  0  0  0
 88 90  1  0  0  0
 89178  1  0  0  0
 90 93  1  0  0  0
 92179  1  0  0  0
 93180  1  0  0  0
M  ISO  4   1 100  68 101  89 101  93 100
M  END
> <chiral flag>
0

> <version>
0

> <s_m_source_file>
/data/baiqing/PycharmProjects/Reinvent-master-3.2/result/LINK_invent/BTK/process_docking_weight1_custom_product_contain_oxygen_bond_distance_aromatic_linkinvent_7_9_3/rearranged_h_0075.sdf

> <i_m_source_file_index>
13

> <r_mmod_Potential_Energy-OPLS-2005>
78.6758804321289

> <r_mmod_Stretch_Energy-OPLS-2005>
43.8920440673828

> <r_mmod_Bend_Energy-OPLS-2005>
137.759338378906

> <r_mmod_Torsional_Energy-OPLS-2005>
375.319885253906

> <r_mmod_Improper_Torsional_Energy-OPLS-2005>
14.717885017395

> <r_mmod_Van_der_Waal_Energy-OPLS-2005>
183.368911743164

> <r_mmod_Electrostatic_Energy-OPLS-2005>
-451.776641845703

> <r_mmod_Solvation_Energy-OPLS-2005>
-241.909103393555

> <b_mmod_Minimization_Converged-OPLS-2005>
0

> <r_mmod_RMS_Derivative-OPLS-2005>
3.35012292861938

$$$$
13
                    3D
 Structure written by MMmdl.
154162  0  0  1  0            999 V2000
  -30.5870  -14.7444   20.4707 C   0  0  0  0  0  0
  -30.4445  -12.4565   19.4673 C   0  0  0  0  0  0
  -29.5119  -12.5074   18.2356 C   0  0  0  0  0  0
  -28.0374  -12.3278   18.6506 C   0  0  0  0  0  0
  -27.6453  -13.2243   19.8552 C   0  0  2  0  0  0
  -28.6916  -13.1385   20.9875 C   0  0  0  0  0  0
  -25.2528  -13.8175   20.5703 C   0  0  0  0  0  0
  -24.1815  -13.0430   20.9225 C   0  0  0  0  0  0
  -24.6402  -11.6908   20.8775 C   0  0  0  0  0  0
  -23.9073  -10.4291   21.0431 C   0  0  0  0  0  0
  -24.3618   -9.4195   21.9198 C   0  0  0  0  0  0
  -23.6287   -8.2237   22.0758 C   0  0  0  0  0  0
  -22.4276   -8.0278   21.3543 C   0  0  0  0  0  0
  -21.9917   -9.0264   20.4657 C   0  0  0  0  0  0
  -22.7246  -10.2140   20.3078 C   0  0  0  0  0  0
  -21.6844   -6.0744   22.5277 C   0  0  0  0  0  0
  -21.4014   -6.5646   23.8212 C   0  0  0  0  0  0
  -21.3663   -5.6798   24.9174 C   0  0  0  0  0  0
  -21.6038   -4.3059   24.7226 C   0  0  0  0  0  0
  -21.8811   -3.8156   23.4344 C   0  0  0  0  0  0
  -21.9187   -4.6973   22.3402 C   0  0  0  0  0  0
  -22.7832  -13.5229   21.1861 C   0  0  0  0  0  0
  -22.1648   -4.2158   21.0980 F   0  0  0  0  0  0
  -21.5633   -3.4537   25.7737 F   0  0  0  0  0  0
  -29.9930  -13.5042   20.4095 N   0  0  0  0  0  0
  -26.2958  -12.9374   20.3323 N   0  0  0  0  0  0
  -25.9338  -11.6526   20.5797 N   0  0  0  0  0  0
  -22.0465  -12.8245   22.0422 N   0  0  0  0  0  0
  -25.4184  -15.1903   20.4086 N   0  0  0  0  0  0
  -31.7776  -14.8780   20.1657 O   0  0  0  0  0  0
  -21.6624   -6.8884   21.4241 O   0  0  0  0  0  0
  -22.3535  -14.5534   20.6689 O   0  0  0  0  0  0
  -24.6311  -31.8562   23.1979 C   0  0  0  0  0  0
  -25.9135  -32.4767   23.8329 C   0  0  1  0  0  0
  -27.2262  -27.2631   20.1358 C   0  0  0  0  0  0
  -25.5921  -33.8570   24.2243 N   0  0  0  0  0  0
  -23.4277  -30.4776   21.5418 C   0  0  2  0  0  0
  -24.8755  -28.9195   20.1168 C   0  0  0  0  0  0
  -22.7503  -29.4609   22.4928 C   0  0  0  0  0  0
  -18.0295  -28.1402   22.8482 C   0  0  0  0  0  0
  -24.1488  -36.7283   23.2637 C   0  0  0  0  0  0
  -25.9732  -30.7688   21.3776 C   0  0  0  0  0  0
  -26.0467  -29.3900   20.7234 C   0  0  0  0  0  0
  -27.2246  -28.5758   20.7175 C   0  0  0  0  0  0
  -26.0315  -26.8582   19.5003 C   0  0  0  0  0  0
  -24.8726  -27.6607   19.4953 C   0  0  0  0  0  0
  -23.6466  -29.8079   20.1594 C   0  0  0  0  0  0
  -25.4120  -36.3076   24.0317 C   0  0  1  0  0  0
  -20.5899  -28.3711   23.1276 C   0  0  2  0  0  0
  -20.6788  -26.9431   22.5416 C   0  0  0  0  0  0
  -19.5765  -26.6394   21.5219 C   0  0  0  0  0  0
  -18.1941  -26.7938   22.1629 C   0  0  0  0  0  0
  -19.1549  -28.8872   23.2870 C   0  0  0  0  0  0
  -18.9466  -30.1471   23.8893 C   0  0  0  0  0  0
  -17.6468  -30.6600   24.0569 C   0  0  0  0  0  0
  -25.9055  -34.9449   23.5086 C   0  0  0  0  0  0
  -16.5357  -29.9102   23.6333 C   0  0  0  0  0  0
  -16.7283  -28.6521   23.0346 C   0  0  0  0  0  0
  -26.4501  -31.6603   25.0726 C   0  0  0  0  0  0
  -25.3705  -31.3771   26.1434 C   0  0  0  0  0  0
  -27.0351  -30.3018   24.6223 C   0  0  0  0  0  0
  -27.6049  -32.4355   25.7499 C   0  0  0  0  0  0
  -27.5581  -37.1798   24.8464 C   0  0  0  0  0  0
  -21.4211  -29.3053   22.3660 N   0  0  0  0  0  0
  -26.4296  -37.3774   23.9405 N   0  0  0  0  0  0
  -24.6967  -31.0524   22.0955 N   0  0  0  0  0  0
  -23.4199  -28.8159   23.3037 O   0  0  0  0  0  0
  -28.3443  -26.3971   20.1529 O   0  0  0  0  0  0
  -26.5640  -34.8925   22.4662 O   0  0  0  0  0  0
  -23.5459  -32.1388   23.7271 O   0  0  0  0  0  0
  -31.0402  -18.0209   20.8062 C   0  0  0  0  0  0
  -30.8216  -19.4568   20.7049 C   0  0  0  0  0  0
  -29.5446  -19.8840   20.4035 C   0  0  0  0  0  0
  -29.9247  -17.2291   20.5930 C   0  0  0  0  0  0
  -28.9087  -21.2649   20.0573 C   0  0  0  0  0  0
  -30.6722  -24.5560   20.5671 C   0  0  0  0  0  0
  -29.5243  -23.9169   18.4554 C   0  0  0  0  0  0
  -28.1781  -24.9147   20.3896 C   0  0  0  0  0  0
  -29.3926  -23.9182   19.9916 C   0  0  0  0  0  0
  -29.7473  -15.8331   20.6555 N   0  0  0  0  0  0
  -29.4371  -22.4634   20.5010 N   0  0  0  0  0  0
  -27.9093  -21.2826   19.3364 O   0  0  0  0  0  0
  -31.8193  -20.2962   20.8711 F   0  0  0  0  0  0
  -28.5858  -18.3777   20.2410 S   0  0  0  0  0  0
  -31.4816  -12.6045   19.1597 H   0  0  0  0  0  0
  -30.4092  -11.4748   19.9436 H   0  0  0  0  0  0
  -29.7943  -11.7366   17.5170 H   0  0  0  0  0  0
  -29.6299  -13.4648   17.7250 H   0  0  0  0  0  0
  -27.8954  -11.2783   18.9108 H   0  0  0  0  0  0
  -27.3796  -12.5214   17.8028 H   0  0  0  0  0  0
  -27.6418  -14.2479   19.4800 H   0  0  0  0  0  0
  -28.7329  -12.1299   21.4026 H   0  0  0  0  0  0
  -28.4265  -13.7976   21.8155 H   0  0  0  0  0  0
  -25.2759   -9.5663   22.4780 H   0  0  0  0  0  0
  -23.9974   -7.4633   22.7494 H   0  0  0  0  0  0
  -21.0833   -8.8803   19.8979 H   0  0  0  0  0  0
  -22.3702  -10.9691   19.6195 H   0  0  0  0  0  0
  -21.2002   -7.6151   23.9724 H   0  0  0  0  0  0
  -21.1497   -6.0527   25.9079 H   0  0  0  0  0  0
  -22.0590   -2.7619   23.2845 H   0  0  0  0  0  0
  -22.4043  -11.9889   22.4810 H   0  0  0  0  0  0
  -21.1105  -13.1320   22.2650 H   0  0  0  0  0  0
  -24.6410  -15.8331   20.5131 H   0  0  0  0  0  0
  -26.2525  -15.6364   20.0507 H   0  0  0  0  0  0
  -26.7201  -32.5414   23.1069 H   0  0  0  0  0  0
  -25.0057  -33.9712   25.0382 H   0  0  0  0  0  0
  -22.7229  -31.2990   21.3944 H   0  0  0  0  0  0
  -23.3751  -35.9616   23.3315 H   0  0  0  0  0  0
  -24.3562  -36.8894   22.2049 H   0  0  0  0  0  0
  -23.7242  -37.6485   23.6656 H   0  0  0  0  0  0
  -26.1100  -31.5282   20.6065 H   0  0  0  0  0  0
  -26.8508  -30.8188   22.0109 H   0  0  0  0  0  0
  -28.1237  -28.9352   21.1984 H   0  0  0  0  0  0
  -25.9735  -25.9063   18.9945 H   0  0  0  0  0  0
  -23.9774  -27.2964   19.0109 H   0  0  0  0  0  0
  -23.7740  -30.5840   19.4033 H   0  0  0  0  0  0
  -22.7641  -29.2424   19.8539 H   0  0  0  0  0  0
  -25.1306  -36.1921   25.0808 H   0  0  0  0  0  0
  -20.9984  -28.3292   24.1400 H   0  0  0  0  0  0
  -20.5699  -26.2322   23.3621 H   0  0  0  0  0  0
  -21.6652  -26.7466   22.1199 H   0  0  0  0  0  0
  -19.6927  -25.6300   21.1257 H   0  0  0  0  0  0
  -19.6706  -27.3203   20.6746 H   0  0  0  0  0  0
  -17.4209  -26.6683   21.4029 H   0  0  0  0  0  0
  -18.0345  -26.0090   22.9040 H   0  0  0  0  0  0
  -19.7943  -30.7289   24.2255 H   0  0  0  0  0  0
  -17.5024  -31.6278   24.5184 H   0  0  0  0  0  0
  -15.5358  -30.3005   23.7662 H   0  0  0  0  0  0
  -15.8681  -28.0846   22.7054 H   0  0  0  0  0  0
  -24.5867  -30.7141   25.7751 H   0  0  0  0  0  0
  -24.8908  -32.2954   26.4836 H   0  0  0  0  0  0
  -25.7993  -30.8950   27.0226 H   0  0  0  0  0  0
  -26.2948  -29.6769   24.1210 H   0  0  0  0  0  0
  -27.3992  -29.7286   25.4758 H   0  0  0  0  0  0
  -27.8841  -30.4304   23.9504 H   0  0  0  0  0  0
  -27.2646  -33.3657   26.2069 H   0  0  0  0  0  0
  -28.3856  -32.6919   25.0322 H   0  0  0  0  0  0
  -28.0720  -31.8484   26.5418 H   0  0  0  0  0  0
  -28.2604  -38.0091   24.7496 H   0  0  0  0  0  0
  -28.1065  -36.2612   24.6306 H   0  0  0  0  0  0
  -27.2287  -37.1473   25.8866 H   0  0  0  0  0  0
  -20.9403  -29.8755   21.6840 H   0  0  0  0  0  0
  -26.0169  -38.2847   24.1405 H   0  0  0  0  0  0
  -32.0203  -17.6312   21.0407 H   0  0  0  0  0  0
  -30.8164  -25.5702   20.1919 H   0  0  0  0  0  0
  -31.5659  -23.9875   20.3044 H   0  0  0  0  0  0
  -30.6282  -24.6213   21.6549 H   0  0  0  0  0  0
  -29.6369  -24.9312   18.0699 H   0  0  0  0  0  0
  -28.6421  -23.4924   17.9767 H   0  0  0  0  0  0
  -30.3918  -23.3447   18.1243 H   0  0  0  0  0  0
  -27.9834  -24.7991   21.4562 H   0  0  0  0  0  0
  -27.2836  -24.5364   19.8996 H   0  0  0  0  0  0
  -28.7878  -15.5466   20.7770 H   0  0  0  0  0  0
  -30.1721  -22.3232   21.1822 H   0  0  0  0  0  0
  1 25  1  0  0  0
  1 30  2  0  0  0
  1 80  1  0  0  0
  2  3  1  0  0  0
  2 25  1  0  0  0
  2 85  1  0  0  0
  2 86  1  0  0  0
  3  4  1  0  0  0
  3 87  1  0  0  0
  3 88  1  0  0  0
  4  5  1  0  0  0
  4 89  1  0  0  0
  4 90  1  0  0  0
  5  6  1  0  0  0
  5 26  1  0  0  0
  5 91  1  0  0  0
  6 25  1  0  0  0
  6 92  1  0  0  0
  6 93  1  0  0  0
  7  8  2  0  0  0
  7 26  1  0  0  0
  7 29  1  0  0  0
  8  9  1  0  0  0
  8 22  1  0  0  0
  9 10  1  0  0  0
  9 27  2  0  0  0
 10 11  2  0  0  0
 10 15  1  0  0  0
 11 12  1  0  0  0
 11 94  1  0  0  0
 12 13  2  0  0  0
 12 95  1  0  0  0
 13 14  1  0  0  0
 13 31  1  0  0  0
 14 15  2  0  0  0
 14 96  1  0  0  0
 15 97  1  0  0  0
 16 17  2  0  0  0
 16 21  1  0  0  0
 16 31  1  0  0  0
 17 18  1  0  0  0
 17 98  1  0  0  0
 18 19  2  0  0  0
 18 99  1  0  0  0
 19 20  1  0  0  0
 19 24  1  0  0  0
 20 21  2  0  0  0
 20100  1  0  0  0
 21 23  1  0  0  0
 22 28  1  0  0  0
 22 32  2  0  0  0
 26 27  1  0  0  0
 28101  1  0  0  0
 28102  1  0  0  0
 29103  1  0  0  0
 29104  1  0  0  0
 33 34  1  0  0  0
 33 66  1  0  0  0
 33 70  2  0  0  0
 34 36  1  0  0  0
 34 59  1  0  0  0
 34105  1  0  0  0
 35 44  2  0  0  0
 35 45  1  0  0  0
 35 68  1  0  0  0
 36 56  1  0  0  0
 36106  1  0  0  0
 37 39  1  0  0  0
 37 47  1  0  0  0
 37 66  1  0  0  0
 37107  1  0  0  0
 38 43  2  0  0  0
 38 46  1  0  0  0
 38 47  1  0  0  0
 39 64  1  0  0  0
 39 67  2  0  0  0
 40 52  1  0  0  0
 40 53  2  0  0  0
 40 58  1  0  0  0
 41108  1  0  0  0
 41109  1  0  0  0
 41110  1  0  0  0
 41 48  1  0  0  0
 42 43  1  0  0  0
 42 66  1  0  0  0
 42111  1  0  0  0
 42112  1  0  0  0
 43 44  1  0  0  0
 44113  1  0  0  0
 45 46  2  0  0  0
 45114  1  0  0  0
 46115  1  0  0  0
 47116  1  0  0  0
 47117  1  0  0  0
 48 56  1  0  0  0
 48 65  1  0  0  0
 48118  1  0  0  0
 49 50  1  0  0  0
 49 53  1  0  0  0
 49 64  1  0  0  0
 49119  1  0  0  0
 50 51  1  0  0  0
 50120  1  0  0  0
 50121  1  0  0  0
 51 52  1  0  0  0
 51122  1  0  0  0
 51123  1  0  0  0
 52124  1  0  0  0
 52125  1  0  0  0
 53 54  1  0  0  0
 54 55  2  0  0  0
 54126  1  0  0  0
 55 57  1  0  0  0
 55127  1  0  0  0
 56 69  2  0  0  0
 57 58  2  0  0  0
 57128  1  0  0  0
 58129  1  0  0  0
 59 60  1  0  0  0
 59 61  1  0  0  0
 59 62  1  0  0  0
 60130  1  0  0  0
 60131  1  0  0  0
 60132  1  0  0  0
 61133  1  0  0  0
 61134  1  0  0  0
 61135  1  0  0  0
 62136  1  0  0  0
 62137  1  0  0  0
 62138  1  0  0  0
 63 65  1  0  0  0
 63139  1  0  0  0
 63140  1  0  0  0
 63141  1  0  0  0
 64142  1  0  0  0
 65143  1  0  0  0
 68 78  1  0  0  0
 71 72  1  0  0  0
 71 74  2  0  0  0
 71144  1  0  0  0
 72 73  2  0  0  0
 72 83  1  0  0  0
 73 75  1  0  0  0
 73 84  1  0  0  0
 74 80  1  0  0  0
 74 84  1  0  0  0
 75 81  1  0  0  0
 75 82  2  0  0  0
 76145  1  0  0  0
 76146  1  0  0  0
 76147  1  0  0  0
 76 79  1  0  0  0
 77 79  1  0  0  0
 77148  1  0  0  0
 77149  1  0  0  0
 77150  1  0  0  0
 78 79  1  0  0  0
 78151  1  0  0  0
 78152  1  0  0  0
 79 81  1  0  0  0
 80153  1  0  0  0
 81154  1  0  0  0
M  ISO  4   1 100  68 101  78 101  80 100
M  END
> <chiral flag>
0

> <version>
0

> <s_m_source_file>
/data/baiqing/PycharmProjects/Reinvent-master-3.2/result/LINK_invent/BTK/process_docking_weight1_custom_product_contain_oxygen_bond_distance_aromatic_linkinvent_7_9_3/rearranged_h_0075.sdf

> <i_m_source_file_index>
14

> <r_mmod_Potential_Energy-OPLS-2005>
119.608108520508

> <r_mmod_Stretch_Energy-OPLS-2005>
116.096054077148

> <r_mmod_Bend_Energy-OPLS-2005>
180.653961181641

> <r_mmod_Torsional_Energy-OPLS-2005>
239.939010620117

> <r_mmod_Improper_Torsional_Energy-OPLS-2005>
6.47797250747681

> <r_mmod_Van_der_Waal_Energy-OPLS-2005>
113.739128112793

> <r_mmod_Electrostatic_Energy-OPLS-2005>
-399.013732910156

> <r_mmod_Solvation_Energy-OPLS-2005>
-220.008209228516

> <b_mmod_Minimization_Converged-OPLS-2005>
0

> <r_mmod_RMS_Derivative-OPLS-2005>
1.90061914920807

$$$$
14
                    3D
 Structure written by MMmdl.
157166  0  0  1  0            999 V2000
  -30.5922  -14.7128   20.4796 C   0  0  0  0  0  0
  -30.4434  -12.4361   19.4619 C   0  0  0  0  0  0
  -29.5106  -12.5185   18.2312 C   0  0  0  0  0  0
  -28.0368  -12.3410   18.6450 C   0  0  0  0  0  0
  -27.6506  -13.2219   19.8621 C   0  0  2  0  0  0
  -28.6973  -13.1050   20.9935 C   0  0  0  0  0  0
  -25.2549  -13.8175   20.5702 C   0  0  0  0  0  0
  -24.1817  -13.0434   20.9187 C   0  0  0  0  0  0
  -24.6383  -11.6905   20.8731 C   0  0  0  0  0  0
  -23.9051  -10.4290   21.0399 C   0  0  0  0  0  0
  -24.3602   -9.4209   21.9178 C   0  0  0  0  0  0
  -23.6280   -8.2244   22.0748 C   0  0  0  0  0  0
  -22.4264   -8.0279   21.3537 C   0  0  0  0  0  0
  -21.9888   -9.0253   20.4644 C   0  0  0  0  0  0
  -22.7215  -10.2132   20.3057 C   0  0  0  0  0  0
  -21.6854   -6.0723   22.5271 C   0  0  0  0  0  0
  -21.4018   -6.5632   23.8202 C   0  0  0  0  0  0
  -21.3662   -5.6785   24.9166 C   0  0  0  0  0  0
  -21.6050   -4.3049   24.7224 C   0  0  0  0  0  0
  -21.8820   -3.8135   23.4345 C   0  0  0  0  0  0
  -21.9193   -4.6948   22.3396 C   0  0  0  0  0  0
  -22.7838  -13.5233   21.1852 C   0  0  0  0  0  0
  -22.1663   -4.2133   21.0973 F   0  0  0  0  0  0
  -21.5624   -3.4537   25.7740 F   0  0  0  0  0  0
  -30.0055  -13.4689   20.4270 N   0  0  0  0  0  0
  -26.2977  -12.9363   20.3319 N   0  0  0  0  0  0
  -25.9321  -11.6509   20.5751 N   0  0  0  0  0  0
  -22.0475  -12.8241   22.0417 N   0  0  0  0  0  0
  -25.4269  -15.1902   20.4152 N   0  0  0  0  0  0
  -31.7545  -14.8740   20.0979 O   0  0  0  0  0  0
  -21.6640   -6.8869   21.4233 O   0  0  0  0  0  0
  -22.3533  -14.5538   20.6694 O   0  0  0  0  0  0
  -24.6297  -31.8566   23.1995 C   0  0  0  0  0  0
  -25.9127  -32.4761   23.8339 C   0  0  1  0  0  0
  -27.2299  -27.2845   20.1215 C   0  0  0  0  0  0
  -25.5935  -33.8560   24.2272 N   0  0  0  0  0  0
  -23.4260  -30.4791   21.5435 C   0  0  2  0  0  0
  -24.8745  -28.9311   20.1104 C   0  0  0  0  0  0
  -22.7492  -29.4601   22.4916 C   0  0  0  0  0  0
  -18.0294  -28.1384   22.8482 C   0  0  0  0  0  0
  -24.1489  -36.7290   23.2636 C   0  0  0  0  0  0
  -25.9710  -30.7752   21.3777 C   0  0  0  0  0  0
  -26.0450  -29.4005   20.7193 C   0  0  0  0  0  0
  -27.2238  -28.5894   20.7161 C   0  0  0  0  0  0
  -26.0326  -26.8809   19.4831 C   0  0  0  0  0  0
  -24.8725  -27.6774   19.4824 C   0  0  0  0  0  0
  -23.6434  -29.8138   20.1594 C   0  0  0  0  0  0
  -25.4111  -36.3069   24.0327 C   0  0  1  0  0  0
  -20.5892  -28.3689   23.1274 C   0  0  2  0  0  0
  -20.6785  -26.9410   22.5402 C   0  0  0  0  0  0
  -19.5755  -26.6378   21.5210 C   0  0  0  0  0  0
  -18.1937  -26.7926   22.1629 C   0  0  0  0  0  0
  -19.1545  -28.8855   23.2874 C   0  0  0  0  0  0
  -18.9465  -30.1461   23.8882 C   0  0  0  0  0  0
  -17.6465  -30.6584   24.0562 C   0  0  0  0  0  0
  -25.9052  -34.9439   23.5104 C   0  0  0  0  0  0
  -16.5357  -29.9081   23.6332 C   0  0  0  0  0  0
  -16.7279  -28.6502   23.0347 C   0  0  0  0  0  0
  -26.4494  -31.6576   25.0722 C   0  0  0  0  0  0
  -25.3730  -31.3759   26.1467 C   0  0  0  0  0  0
  -27.0306  -30.2979   24.6203 C   0  0  0  0  0  0
  -27.6073  -32.4295   25.7470 C   0  0  0  0  0  0
  -27.5578  -37.1796   24.8456 C   0  0  0  0  0  0
  -21.4197  -29.3044   22.3662 N   0  0  0  0  0  0
  -26.4285  -37.3768   23.9405 N   0  0  0  0  0  0
  -24.6948  -31.0539   22.0970 N   0  0  0  0  0  0
  -23.4204  -28.8136   23.3007 O   0  0  0  0  0  0
  -28.3378  -26.4079   20.1824 O   0  0  0  0  0  0
  -26.5624  -34.8905   22.4669 O   0  0  0  0  0  0
  -23.5454  -32.1378   23.7303 O   0  0  0  0  0  0
  -29.9352  -19.3983   19.4860 C   0  0  0  0  0  0
  -29.3484  -19.4537   21.7705 C   0  0  0  0  0  0
  -29.5618  -20.2303   20.5921 C   0  0  0  0  0  0
  -30.0663  -17.9656   19.5321 C   0  0  0  0  0  0
  -29.8437  -17.2300   20.7324 C   0  0  0  0  0  0
  -29.4666  -18.0293   21.8453 C   0  0  0  0  0  0
  -28.9538  -22.7583   21.3651 C   0  0  0  0  0  0
  -29.2587  -22.5002   19.3341 C   0  0  0  0  0  0
  -29.2392  -23.8181   20.2094 C   0  0  2  0  0  0
  -30.5882  -24.5130   20.4252 C   0  0  0  0  0  0
  -28.1177  -24.9433   19.9485 C   0  0  0  0  0  0
  -29.4368  -21.7118   20.5579 N   0  0  0  0  0  0
  -30.3625  -17.2830   18.3506 N   0  0  0  0  0  0
  -29.7703  -15.7576   20.8396 N   0  0  0  0  0  0
  -28.4687  -22.7560   22.4769 O   0  0  0  0  0  0
  -29.1838  -17.4137   23.0196 F   0  0  0  0  0  0
  -31.4822  -12.5741   19.1557 H   0  0  0  0  0  0
  -30.3938  -11.4468   19.9182 H   0  0  0  0  0  0
  -29.7844  -11.7597   17.4968 H   0  0  0  0  0  0
  -29.6385  -13.4827   17.7359 H   0  0  0  0  0  0
  -27.8893  -11.2887   18.8903 H   0  0  0  0  0  0
  -27.3786  -12.5539   17.8018 H   0  0  0  0  0  0
  -27.6569  -14.2523   19.5053 H   0  0  0  0  0  0
  -28.7266  -12.0884   21.3876 H   0  0  0  0  0  0
  -28.4311  -13.7430   21.8378 H   0  0  0  0  0  0
  -25.2746   -9.5689   22.4754 H   0  0  0  0  0  0
  -23.9983   -7.4645   22.7478 H   0  0  0  0  0  0
  -21.0802   -8.8778   19.8974 H   0  0  0  0  0  0
  -22.3660  -10.9671   19.6179 H   0  0  0  0  0  0
  -21.2019   -7.6143   23.9700 H   0  0  0  0  0  0
  -21.1482   -6.0519   25.9067 H   0  0  0  0  0  0
  -22.0597   -2.7593   23.2855 H   0  0  0  0  0  0
  -22.4081  -11.9908   22.4824 H   0  0  0  0  0  0
  -21.1109  -13.1296   22.2630 H   0  0  0  0  0  0
  -24.6603  -15.8448   20.5309 H   0  0  0  0  0  0
  -26.2751  -15.6308   20.0825 H   0  0  0  0  0  0
  -26.7194  -32.5421   23.1082 H   0  0  0  0  0  0
  -25.0073  -33.9696   25.0413 H   0  0  0  0  0  0
  -22.7218  -31.3010   21.3988 H   0  0  0  0  0  0
  -23.3741  -35.9632   23.3285 H   0  0  0  0  0  0
  -24.3590  -36.8925   22.2054 H   0  0  0  0  0  0
  -23.7244  -37.6488   23.6668 H   0  0  0  0  0  0
  -26.1086  -31.5361   20.6081 H   0  0  0  0  0  0
  -26.8494  -30.8234   22.0103 H   0  0  0  0  0  0
  -28.1173  -28.9437   21.2105 H   0  0  0  0  0  0
  -25.9558  -25.9268   18.9853 H   0  0  0  0  0  0
  -23.9775  -27.3118   18.9977 H   0  0  0  0  0  0
  -23.7649  -30.5907   19.4040 H   0  0  0  0  0  0
  -22.7627  -29.2451   19.8551 H   0  0  0  0  0  0
  -25.1281  -36.1921   25.0818 H   0  0  0  0  0  0
  -20.9993  -28.3272   24.1393 H   0  0  0  0  0  0
  -20.5691  -26.2294   23.3597 H   0  0  0  0  0  0
  -21.6654  -26.7442   22.1192 H   0  0  0  0  0  0
  -19.6917  -25.6288   21.1237 H   0  0  0  0  0  0
  -19.6688  -27.3188   20.6739 H   0  0  0  0  0  0
  -17.4199  -26.6660   21.4041 H   0  0  0  0  0  0
  -18.0351  -26.0072   22.9033 H   0  0  0  0  0  0
  -19.7938  -30.7287   24.2236 H   0  0  0  0  0  0
  -17.5013  -31.6261   24.5167 H   0  0  0  0  0  0
  -15.5355  -30.2982   23.7650 H   0  0  0  0  0  0
  -15.8684  -28.0821   22.7062 H   0  0  0  0  0  0
  -24.5860  -30.7153   25.7810 H   0  0  0  0  0  0
  -24.8984  -32.2953   26.4908 H   0  0  0  0  0  0
  -25.8054  -30.8910   27.0231 H   0  0  0  0  0  0
  -26.2875  -29.6743   24.1224 H   0  0  0  0  0  0
  -27.3964  -29.7229   25.4720 H   0  0  0  0  0  0
  -27.8768  -30.4221   23.9444 H   0  0  0  0  0  0
  -27.2712  -33.3609   26.2033 H   0  0  0  0  0  0
  -28.3881  -32.6828   25.0286 H   0  0  0  0  0  0
  -28.0733  -31.8421   26.5392 H   0  0  0  0  0  0
  -28.2594  -38.0096   24.7502 H   0  0  0  0  0  0
  -28.1078  -36.2630   24.6271 H   0  0  0  0  0  0
  -27.2304  -37.1425   25.8862 H   0  0  0  0  0  0
  -20.9372  -29.8776   21.6878 H   0  0  0  0  0  0
  -26.0164  -38.2839   24.1413 H   0  0  0  0  0  0
  -30.1239  -19.8885   18.5415 H   0  0  0  0  0  0
  -29.0632  -19.9675   22.6774 H   0  0  0  0  0  0
  -30.0945  -22.4340   18.6359 H   0  0  0  0  0  0
  -28.3080  -22.2882   18.8390 H   0  0  0  0  0  0
  -31.3874  -23.8009   20.6384 H   0  0  0  0  0  0
  -30.5490  -25.2139   21.2593 H   0  0  0  0  0  0
  -30.8854  -25.0736   19.5394 H   0  0  0  0  0  0
  -27.2270  -24.6613   20.5131 H   0  0  0  0  0  0
  -27.8364  -24.8511   18.8993 H   0  0  0  0  0  0
  -30.1715  -17.7244   17.4566 H   0  0  0  0  0  0
  -30.2783  -16.2733   18.3355 H   0  0  0  0  0  0
  -28.9204  -15.4410   21.2771 H   0  0  0  0  0  0
  1 25  1  0  0  0
  1 30  2  0  0  0
  1 84  1  0  0  0
  2  3  1  0  0  0
  2 25  1  0  0  0
  2 87  1  0  0  0
  2 88  1  0  0  0
  3  4  1  0  0  0
  3 89  1  0  0  0
  3 90  1  0  0  0
  4  5  1  0  0  0
  4 91  1  0  0  0
  4 92  1  0  0  0
  5  6  1  0  0  0
  5 26  1  0  0  0
  5 93  1  0  0  0
  6 25  1  0  0  0
  6 94  1  0  0  0
  6 95  1  0  0  0
  7  8  2  0  0  0
  7 26  1  0  0  0
  7 29  1  0  0  0
  8  9  1  0  0  0
  8 22  1  0  0  0
  9 10  1  0  0  0
  9 27  2  0  0  0
 10 11  2  0  0  0
 10 15  1  0  0  0
 11 12  1  0  0  0
 11 96  1  0  0  0
 12 13  2  0  0  0
 12 97  1  0  0  0
 13 14  1  0  0  0
 13 31  1  0  0  0
 14 15  2  0  0  0
 14 98  1  0  0  0
 15 99  1  0  0  0
 16 17  2  0  0  0
 16 21  1  0  0  0
 16 31  1  0  0  0
 17 18  1  0  0  0
 17100  1  0  0  0
 18 19  2  0  0  0
 18101  1  0  0  0
 19 20  1  0  0  0
 19 24  1  0  0  0
 20 21  2  0  0  0
 20102  1  0  0  0
 21 23  1  0  0  0
 22 28  1  0  0  0
 22 32  2  0  0  0
 26 27  1  0  0  0
 28103  1  0  0  0
 28104  1  0  0  0
 29105  1  0  0  0
 29106  1  0  0  0
 33 34  1  0  0  0
 33 66  1  0  0  0
 33 70  2  0  0  0
 34 36  1  0  0  0
 34 59  1  0  0  0
 34107  1  0  0  0
 35 44  2  0  0  0
 35 45  1  0  0  0
 35 68  1  0  0  0
 36 56  1  0  0  0
 36108  1  0  0  0
 37 39  1  0  0  0
 37 47  1  0  0  0
 37 66  1  0  0  0
 37109  1  0  0  0
 38 43  2  0  0  0
 38 46  1  0  0  0
 38 47  1  0  0  0
 39 64  1  0  0  0
 39 67  2  0  0  0
 40 52  1  0  0  0
 40 53  2  0  0  0
 40 58  1  0  0  0
 41110  1  0  0  0
 41111  1  0  0  0
 41112  1  0  0  0
 41 48  1  0  0  0
 42 43  1  0  0  0
 42 66  1  0  0  0
 42113  1  0  0  0
 42114  1  0  0  0
 43 44  1  0  0  0
 44115  1  0  0  0
 45 46  2  0  0  0
 45116  1  0  0  0
 46117  1  0  0  0
 47118  1  0  0  0
 47119  1  0  0  0
 48 56  1  0  0  0
 48 65  1  0  0  0
 48120  1  0  0  0
 49 50  1  0  0  0
 49 53  1  0  0  0
 49 64  1  0  0  0
 49121  1  0  0  0
 50 51  1  0  0  0
 50122  1  0  0  0
 50123  1  0  0  0
 51 52  1  0  0  0
 51124  1  0  0  0
 51125  1  0  0  0
 52126  1  0  0  0
 52127  1  0  0  0
 53 54  1  0  0  0
 54 55  2  0  0  0
 54128  1  0  0  0
 55 57  1  0  0  0
 55129  1  0  0  0
 56 69  2  0  0  0
 57 58  2  0  0  0
 57130  1  0  0  0
 58131  1  0  0  0
 59 60  1  0  0  0
 59 61  1  0  0  0
 59 62  1  0  0  0
 60132  1  0  0  0
 60133  1  0  0  0
 60134  1  0  0  0
 61135  1  0  0  0
 61136  1  0  0  0
 61137  1  0  0  0
 62138  1  0  0  0
 62139  1  0  0  0
 62140  1  0  0  0
 63 65  1  0  0  0
 63141  1  0  0  0
 63142  1  0  0  0
 63143  1  0  0  0
 64144  1  0  0  0
 65145  1  0  0  0
 68 81  1  0  0  0
 71 73  2  0  0  0
 71 74  1  0  0  0
 71146  1  0  0  0
 72 73  1  0  0  0
 72 76  2  0  0  0
 72147  1  0  0  0
 73 82  1  0  0  0
 74 75  2  0  0  0
 74 83  1  0  0  0
 75 76  1  0  0  0
 75 84  1  0  0  0
 76 86  1  0  0  0
 77 79  1  0  0  0
 77 82  1  0  0  0
 77 85  2  0  0  0
 78 79  1  0  0  0
 78 82  1  0  0  0
 78148  1  0  0  0
 78149  1  0  0  0
 79 80  1  0  0  0
 79 81  1  0  0  0
 80150  1  0  0  0
 80151  1  0  0  0
 80152  1  0  0  0
 81153  1  0  0  0
 81154  1  0  0  0
 83155  1  0  0  0
 83156  1  0  0  0
 84157  1  0  0  0
M  ISO  4   1 100  68 101  81 101  84 100
M  END
> <chiral flag>
0

> <version>
0

> <s_m_source_file>
/data/baiqing/PycharmProjects/Reinvent-master-3.2/result/LINK_invent/BTK/process_docking_weight1_custom_product_contain_oxygen_bond_distance_aromatic_linkinvent_7_9_3/rearranged_h_0075.sdf

> <i_m_source_file_index>
15

> <r_mmod_Potential_Energy-OPLS-2005>
82.7643432617188

> <r_mmod_Stretch_Energy-OPLS-2005>
102.16096496582

> <r_mmod_Bend_Energy-OPLS-2005>
191.088226318359

> <r_mmod_Torsional_Energy-OPLS-2005>
251.690460205078

> <r_mmod_Improper_Torsional_Energy-OPLS-2005>
8.60318946838379

> <r_mmod_Van_der_Waal_Energy-OPLS-2005>
139.795791625977

> <r_mmod_Electrostatic_Energy-OPLS-2005>
-450.554260253906

> <r_mmod_Solvation_Energy-OPLS-2005>
-230.938949584961

> <b_mmod_Minimization_Converged-OPLS-2005>
0

> <r_mmod_RMS_Derivative-OPLS-2005>
1.66087472438812

$$$$
15
                    3D
 Structure written by MMmdl.
163172  0  0  1  0            999 V2000
  -30.7594  -14.3935   20.5710 C   0  0  0  0  0  0
  -30.4007  -12.2590   19.4263 C   0  0  0  0  0  0
  -29.4883  -12.4955   18.2099 C   0  0  0  0  0  0
  -28.0096  -12.3724   18.6184 C   0  0  0  0  0  0
  -27.6625  -13.2063   19.8804 C   0  0  2  0  0  0
  -28.7026  -12.9871   21.0040 C   0  0  0  0  0  0
  -25.2595  -13.8189   20.5710 C   0  0  0  0  0  0
  -24.1827  -13.0452   20.9168 C   0  0  0  0  0  0
  -24.6371  -11.6921   20.8723 C   0  0  0  0  0  0
  -23.9033  -10.4296   21.0409 C   0  0  0  0  0  0
  -24.3588   -9.4219   21.9200 C   0  0  0  0  0  0
  -23.6284   -8.2240   22.0753 C   0  0  0  0  0  0
  -22.4284   -8.0267   21.3522 C   0  0  0  0  0  0
  -21.9893   -9.0242   20.4636 C   0  0  0  0  0  0
  -22.7200  -10.2137   20.3061 C   0  0  0  0  0  0
  -21.6866   -6.0720   22.5266 C   0  0  0  0  0  0
  -21.4028   -6.5627   23.8197 C   0  0  0  0  0  0
  -21.3672   -5.6776   24.9160 C   0  0  0  0  0  0
  -21.6039   -4.3037   24.7213 C   0  0  0  0  0  0
  -21.8814   -3.8134   23.4334 C   0  0  0  0  0  0
  -21.9195   -4.6951   22.3392 C   0  0  0  0  0  0
  -22.7853  -13.5261   21.1831 C   0  0  0  0  0  0
  -22.1658   -4.2138   21.0972 F   0  0  0  0  0  0
  -21.5630   -3.4524   25.7731 F   0  0  0  0  0  0
  -30.0428  -13.2493   20.4510 N   0  0  0  0  0  0
  -26.3016  -12.9340   20.3386 N   0  0  0  0  0  0
  -25.9296  -11.6490   20.5734 N   0  0  0  0  0  0
  -22.0473  -12.8276   22.0405 N   0  0  0  0  0  0
  -25.4308  -15.1900   20.4166 N   0  0  0  0  0  0
  -31.8678  -14.5507   20.0535 O   0  0  0  0  0  0
  -21.6646   -6.8868   21.4237 O   0  0  0  0  0  0
  -22.3538  -14.5550   20.6664 O   0  0  0  0  0  0
  -24.6104  -31.8688   23.2131 C   0  0  0  0  0  0
  -25.9039  -32.4805   23.8391 C   0  0  1  0  0  0
  -27.2398  -27.4803   20.0634 C   0  0  0  0  0  0
  -25.5917  -33.8607   24.2324 N   0  0  0  0  0  0
  -23.3932  -30.4923   21.5548 C   0  0  2  0  0  0
  -24.8368  -28.9617   20.1155 C   0  0  0  0  0  0
  -22.7370  -29.4653   22.5038 C   0  0  0  0  0  0
  -18.0263  -28.1389   22.8500 C   0  0  0  0  0  0
  -24.1473  -36.7311   23.2635 C   0  0  0  0  0  0
  -25.9171  -30.8428   21.3612 C   0  0  0  0  0  0
  -25.9926  -29.4780   20.7142 C   0  0  0  0  0  0
  -27.1911  -28.7356   20.7037 C   0  0  0  0  0  0
  -26.0638  -26.9635   19.4726 C   0  0  0  0  0  0
  -24.8635  -27.6983   19.5012 C   0  0  0  0  0  0
  -23.5979  -29.8250   20.1684 C   0  0  0  0  0  0
  -25.4091  -36.3092   24.0336 C   0  0  1  0  0  0
  -20.5845  -28.3648   23.1350 C   0  0  2  0  0  0
  -20.6753  -26.9397   22.5436 C   0  0  0  0  0  0
  -19.5733  -26.6396   21.5221 C   0  0  0  0  0  0
  -18.1908  -26.7940   22.1628 C   0  0  0  0  0  0
  -19.1516  -28.8831   23.2921 C   0  0  0  0  0  0
  -18.9443  -30.1440   23.8921 C   0  0  0  0  0  0
  -17.6448  -30.6593   24.0564 C   0  0  0  0  0  0
  -25.9022  -34.9464   23.5114 C   0  0  0  0  0  0
  -16.5332  -29.9099   23.6333 C   0  0  0  0  0  0
  -16.7249  -28.6521   23.0342 C   0  0  0  0  0  0
  -26.4497  -31.6558   25.0695 C   0  0  0  0  0  0
  -25.3811  -31.3636   26.1472 C   0  0  0  0  0  0
  -27.0289  -30.3002   24.6009 C   0  0  0  0  0  0
  -27.6074  -32.4259   25.7468 C   0  0  0  0  0  0
  -27.5555  -37.1802   24.8464 C   0  0  0  0  0  0
  -21.4107  -29.3007   22.3764 N   0  0  0  0  0  0
  -26.4256  -37.3783   23.9424 N   0  0  0  0  0  0
  -24.6579  -31.0821   22.1016 N   0  0  0  0  0  0
  -23.4171  -28.8211   23.3073 O   0  0  0  0  0  0
  -28.4320  -26.7975   20.0610 O   0  0  0  0  0  0
  -26.5578  -34.8914   22.4676 O   0  0  0  0  0  0
  -23.5318  -32.1422   23.7569 O   0  0  0  0  0  0
  -30.4273  -19.5608   19.7570 C   0  0  0  0  0  0
  -30.7928  -20.8511   19.3438 C   0  0  0  0  0  0
  -30.2821  -21.6949   21.5639 C   0  0  0  0  0  0
  -30.0313  -19.2928   21.0924 C   0  0  0  0  0  0
  -30.7470  -21.9276   20.2507 C   0  0  0  0  0  0
  -29.9229  -20.3956   21.9912 C   0  0  0  0  0  0
  -31.2300  -25.6806   18.3710 C   0  0  0  0  0  0
  -30.1154  -25.4125   19.0680 C   0  0  0  0  0  0
  -32.2900  -23.5083   19.2168 C   0  0  0  0  0  0
  -29.7082  -17.8732   21.4699 C   0  0  0  0  0  0
  -32.5080  -24.9183   18.6518 C   0  0  0  0  0  0
  -30.1375  -24.3176   20.1220 C   0  0  0  0  0  0
  -28.7896  -26.1157   18.8658 C   0  0  0  0  0  0
  -30.6496  -16.7939   20.9264 C   0  0  0  0  0  0
  -31.0995  -23.2419   19.8244 N   0  0  0  0  0  0
  -29.4857  -20.2556   23.3115 N   0  0  0  0  0  0
  -30.1432  -15.4338   21.1345 N   0  0  0  0  0  0
  -33.1987  -22.6802   19.0965 O   0  0  0  0  0  0
  -28.7870  -17.5437   22.2277 O   0  0  0  0  0  0
  -31.4497  -12.3047   19.1297 H   0  0  0  0  0  0
  -30.2509  -11.2523   19.8182 H   0  0  0  0  0  0
  -29.7167  -11.7710   17.4282 H   0  0  0  0  0  0
  -29.6783  -13.4821   17.7829 H   0  0  0  0  0  0
  -27.8079  -11.3170   18.8043 H   0  0  0  0  0  0
  -27.3628  -12.6570   17.7889 H   0  0  0  0  0  0
  -27.7078  -14.2554   19.5908 H   0  0  0  0  0  0
  -28.6534  -11.9593   21.3667 H   0  0  0  0  0  0
  -28.4754  -13.6100   21.8705 H   0  0  0  0  0  0
  -25.2730   -9.5704   22.4771 H   0  0  0  0  0  0
  -23.9985   -7.4635   22.7479 H   0  0  0  0  0  0
  -21.0808   -8.8746   19.8956 H   0  0  0  0  0  0
  -22.3641  -10.9668   19.6152 H   0  0  0  0  0  0
  -21.2031   -7.6141   23.9705 H   0  0  0  0  0  0
  -21.1503   -6.0506   25.9057 H   0  0  0  0  0  0
  -22.0592   -2.7597   23.2835 H   0  0  0  0  0  0
  -22.4057  -11.9937   22.4817 H   0  0  0  0  0  0
  -21.1081  -13.1306   22.2573 H   0  0  0  0  0  0
  -24.6687  -15.8476   20.5399 H   0  0  0  0  0  0
  -26.2907  -15.6356   20.1221 H   0  0  0  0  0  0
  -26.7103  -32.5520   23.1147 H   0  0  0  0  0  0
  -25.0089  -33.9764   25.0486 H   0  0  0  0  0  0
  -22.6786  -31.3065   21.4206 H   0  0  0  0  0  0
  -23.3702  -35.9673   23.3301 H   0  0  0  0  0  0
  -24.3562  -36.8917   22.2044 H   0  0  0  0  0  0
  -23.7261  -37.6534   23.6637 H   0  0  0  0  0  0
  -26.0209  -31.6034   20.5858 H   0  0  0  0  0  0
  -26.8082  -30.8976   21.9742 H   0  0  0  0  0  0
  -28.0844  -29.1323   21.1663 H   0  0  0  0  0  0
  -26.0528  -25.9960   18.9940 H   0  0  0  0  0  0
  -23.9739  -27.2892   19.0439 H   0  0  0  0  0  0
  -23.7054  -30.5988   19.4072 H   0  0  0  0  0  0
  -22.7206  -29.2461   19.8748 H   0  0  0  0  0  0
  -25.1263  -36.1938   25.0822 H   0  0  0  0  0  0
  -20.9920  -28.3214   24.1470 H   0  0  0  0  0  0
  -20.5677  -26.2242   23.3612 H   0  0  0  0  0  0
  -21.6628  -26.7469   22.1211 H   0  0  0  0  0  0
  -19.6902  -25.6318   21.1221 H   0  0  0  0  0  0
  -19.6686  -27.3232   20.6776 H   0  0  0  0  0  0
  -17.4188  -26.6680   21.4024 H   0  0  0  0  0  0
  -18.0310  -26.0080   22.9025 H   0  0  0  0  0  0
  -19.7913  -30.7256   24.2296 H   0  0  0  0  0  0
  -17.5002  -31.6282   24.5167 H   0  0  0  0  0  0
  -15.5335  -30.3011   23.7647 H   0  0  0  0  0  0
  -15.8642  -28.0854   22.7035 H   0  0  0  0  0  0
  -24.6017  -30.6919   25.7853 H   0  0  0  0  0  0
  -24.8963  -32.2765   26.4936 H   0  0  0  0  0  0
  -25.8241  -30.8846   27.0206 H   0  0  0  0  0  0
  -26.2783  -29.6779   24.1122 H   0  0  0  0  0  0
  -27.4136  -29.7225   25.4422 H   0  0  0  0  0  0
  -27.8596  -30.4315   23.9068 H   0  0  0  0  0  0
  -27.2698  -33.3547   26.2069 H   0  0  0  0  0  0
  -28.3893  -32.6813   25.0306 H   0  0  0  0  0  0
  -28.0715  -31.8351   26.5370 H   0  0  0  0  0  0
  -28.2587  -38.0085   24.7484 H   0  0  0  0  0  0
  -28.1031  -36.2613   24.6305 H   0  0  0  0  0  0
  -27.2276  -37.1490   25.8870 H   0  0  0  0  0  0
  -20.9270  -29.8702   21.6963 H   0  0  0  0  0  0
  -26.0130  -38.2843   24.1463 H   0  0  0  0  0  0
  -30.4478  -18.7903   19.0029 H   0  0  0  0  0  0
  -31.0902  -21.0097   18.3164 H   0  0  0  0  0  0
  -30.2193  -22.5254   22.2541 H   0  0  0  0  0  0
  -31.2617  -26.4608   17.6235 H   0  0  0  0  0  0
  -33.1272  -25.4874   19.3460 H   0  0  0  0  0  0
  -33.0664  -24.8336   17.7195 H   0  0  0  0  0  0
  -29.1338  -23.8949   20.1942 H   0  0  0  0  0  0
  -30.3594  -24.7570   21.0946 H   0  0  0  0  0  0
  -28.0602  -25.3564   18.5875 H   0  0  0  0  0  0
  -28.8575  -26.8189   18.0366 H   0  0  0  0  0  0
  -30.7878  -16.9243   19.8537 H   0  0  0  0  0  0
  -31.6265  -16.9153   21.3961 H   0  0  0  0  0  0
  -29.0609  -21.0636   23.7566 H   0  0  0  0  0  0
  -29.0005  -19.3920   23.5417 H   0  0  0  0  0  0
  -29.2286  -15.3289   21.5461 H   0  0  0  0  0  0
  1 25  1  0  0  0
  1 30  2  0  0  0
  1 87  1  0  0  0
  2  3  1  0  0  0
  2 25  1  0  0  0
  2 90  1  0  0  0
  2 91  1  0  0  0
  3  4  1  0  0  0
  3 92  1  0  0  0
  3 93  1  0  0  0
  4  5  1  0  0  0
  4 94  1  0  0  0
  4 95  1  0  0  0
  5  6  1  0  0  0
  5 26  1  0  0  0
  5 96  1  0  0  0
  6 25  1  0  0  0
  6 97  1  0  0  0
  6 98  1  0  0  0
  7  8  2  0  0  0
  7 26  1  0  0  0
  7 29  1  0  0  0
  8  9  1  0  0  0
  8 22  1  0  0  0
  9 10  1  0  0  0
  9 27  2  0  0  0
 10 11  2  0  0  0
 10 15  1  0  0  0
 11 12  1  0  0  0
 11 99  1  0  0  0
 12 13  2  0  0  0
 12100  1  0  0  0
 13 14  1  0  0  0
 13 31  1  0  0  0
 14 15  2  0  0  0
 14101  1  0  0  0
 15102  1  0  0  0
 16 17  2  0  0  0
 16 21  1  0  0  0
 16 31  1  0  0  0
 17 18  1  0  0  0
 17103  1  0  0  0
 18 19  2  0  0  0
 18104  1  0  0  0
 19 20  1  0  0  0
 19 24  1  0  0  0
 20 21  2  0  0  0
 20105  1  0  0  0
 21 23  1  0  0  0
 22 28  1  0  0  0
 22 32  2  0  0  0
 26 27  1  0  0  0
 28106  1  0  0  0
 28107  1  0  0  0
 29108  1  0  0  0
 29109  1  0  0  0
 33 34  1  0  0  0
 33 66  1  0  0  0
 33 70  2  0  0  0
 34 36  1  0  0  0
 34 59  1  0  0  0
 34110  1  0  0  0
 35 44  2  0  0  0
 35 45  1  0  0  0
 35 68  1  0  0  0
 36 56  1  0  0  0
 36111  1  0  0  0
 37 39  1  0  0  0
 37 47  1  0  0  0
 37 66  1  0  0  0
 37112  1  0  0  0
 38 43  2  0  0  0
 38 46  1  0  0  0
 38 47  1  0  0  0
 39 64  1  0  0  0
 39 67  2  0  0  0
 40 52  1  0  0  0
 40 53  2  0  0  0
 40 58  1  0  0  0
 41113  1  0  0  0
 41114  1  0  0  0
 41115  1  0  0  0
 41 48  1  0  0  0
 42 43  1  0  0  0
 42 66  1  0  0  0
 42116  1  0  0  0
 42117  1  0  0  0
 43 44  1  0  0  0
 44118  1  0  0  0
 45 46  2  0  0  0
 45119  1  0  0  0
 46120  1  0  0  0
 47121  1  0  0  0
 47122  1  0  0  0
 48 56  1  0  0  0
 48 65  1  0  0  0
 48123  1  0  0  0
 49 50  1  0  0  0
 49 53  1  0  0  0
 49 64  1  0  0  0
 49124  1  0  0  0
 50 51  1  0  0  0
 50125  1  0  0  0
 50126  1  0  0  0
 51 52  1  0  0  0
 51127  1  0  0  0
 51128  1  0  0  0
 52129  1  0  0  0
 52130  1  0  0  0
 53 54  1  0  0  0
 54 55  2  0  0  0
 54131  1  0  0  0
 55 57  1  0  0  0
 55132  1  0  0  0
 56 69  2  0  0  0
 57 58  2  0  0  0
 57133  1  0  0  0
 58134  1  0  0  0
 59 60  1  0  0  0
 59 61  1  0  0  0
 59 62  1  0  0  0
 60135  1  0  0  0
 60136  1  0  0  0
 60137  1  0  0  0
 61138  1  0  0  0
 61139  1  0  0  0
 61140  1  0  0  0
 62141  1  0  0  0
 62142  1  0  0  0
 62143  1  0  0  0
 63 65  1  0  0  0
 63144  1  0  0  0
 63145  1  0  0  0
 63146  1  0  0  0
 64147  1  0  0  0
 65148  1  0  0  0
 68 83  1  0  0  0
 71 72  2  0  0  0
 71 74  1  0  0  0
 71149  1  0  0  0
 72 75  1  0  0  0
 72150  1  0  0  0
 73 75  2  0  0  0
 73 76  1  0  0  0
 73151  1  0  0  0
 74 76  2  0  0  0
 74 80  1  0  0  0
 75 85  1  0  0  0
 76 86  1  0  0  0
 77 78  2  0  0  0
 77 81  1  0  0  0
 77152  1  0  0  0
 78 82  1  0  0  0
 78 83  1  0  0  0
 79 81  1  0  0  0
 79 85  1  0  0  0
 79 88  2  0  0  0
 80 84  1  0  0  0
 80 89  2  0  0  0
 81153  1  0  0  0
 81154  1  0  0  0
 82 85  1  0  0  0
 82155  1  0  0  0
 82156  1  0  0  0
 83157  1  0  0  0
 83158  1  0  0  0
 84 87  1  0  0  0
 84159  1  0  0  0
 84160  1  0  0  0
 86161  1  0  0  0
 86162  1  0  0  0
 87163  1  0  0  0
M  ISO  4   1 100  68 101  83 101  87 100
M  END
> <chiral flag>
0

> <version>
0

> <s_m_source_file>
/data/baiqing/PycharmProjects/Reinvent-master-3.2/result/LINK_invent/BTK/process_docking_weight1_custom_product_contain_oxygen_bond_distance_aromatic_linkinvent_7_9_3/rearranged_h_0075.sdf

> <i_m_source_file_index>
16

> <r_mmod_Potential_Energy-OPLS-2005>
25.510311126709

> <r_mmod_Stretch_Energy-OPLS-2005>
36.8553161621094

> <r_mmod_Bend_Energy-OPLS-2005>
100.597267150879

> <r_mmod_Torsional_Energy-OPLS-2005>
290.203063964844

> <r_mmod_Improper_Torsional_Energy-OPLS-2005>
8.31537342071533

> <r_mmod_Van_der_Waal_Energy-OPLS-2005>
185.259414672852

> <r_mmod_Electrostatic_Energy-OPLS-2005>
-370.661956787109

> <r_mmod_Solvation_Energy-OPLS-2005>
-235.874649047852

> <b_mmod_Minimization_Converged-OPLS-2005>
0

> <r_mmod_RMS_Derivative-OPLS-2005>
3.49931073188782

$$$$
16
                    3D
 Structure written by MMmdl.
159168  0  0  1  0            999 V2000
  -30.6524  -14.5579   20.4837 C   0  0  0  0  0  0
  -30.4220  -12.3338   19.4606 C   0  0  0  0  0  0
  -29.5082  -12.4859   18.2260 C   0  0  0  0  0  0
  -28.0244  -12.3544   18.6228 C   0  0  0  0  0  0
  -27.6504  -13.2163   19.8624 C   0  0  2  0  0  0
  -28.6885  -13.0571   20.9959 C   0  0  0  0  0  0
  -25.2557  -13.8179   20.5632 C   0  0  0  0  0  0
  -24.1827  -13.0449   20.9140 C   0  0  0  0  0  0
  -24.6390  -11.6912   20.8731 C   0  0  0  0  0  0
  -23.9054  -10.4302   21.0404 C   0  0  0  0  0  0
  -24.3607   -9.4221   21.9167 C   0  0  0  0  0  0
  -23.6300   -8.2258   22.0734 C   0  0  0  0  0  0
  -22.4286   -8.0303   21.3528 C   0  0  0  0  0  0
  -21.9909   -9.0280   20.4634 C   0  0  0  0  0  0
  -22.7238  -10.2159   20.3052 C   0  0  0  0  0  0
  -21.6872   -6.0738   22.5266 C   0  0  0  0  0  0
  -21.4023   -6.5636   23.8197 C   0  0  0  0  0  0
  -21.3660   -5.6779   24.9151 C   0  0  0  0  0  0
  -21.6049   -4.3042   24.7203 C   0  0  0  0  0  0
  -21.8838   -3.8131   23.4327 C   0  0  0  0  0  0
  -21.9194   -4.6959   22.3375 C   0  0  0  0  0  0
  -22.7859  -13.5251   21.1829 C   0  0  0  0  0  0
  -22.1654   -4.2152   21.0951 F   0  0  0  0  0  0
  -21.5617   -3.4517   25.7700 F   0  0  0  0  0  0
  -30.0103  -13.3571   20.4348 N   0  0  0  0  0  0
  -26.2971  -12.9349   20.3288 N   0  0  0  0  0  0
  -25.9321  -11.6509   20.5772 N   0  0  0  0  0  0
  -22.0498  -12.8253   22.0386 N   0  0  0  0  0  0
  -25.4309  -15.1904   20.4053 N   0  0  0  0  0  0
  -31.8424  -14.6620   20.1711 O   0  0  0  0  0  0
  -21.6656   -6.8896   21.4241 O   0  0  0  0  0  0
  -22.3561  -14.5563   20.6691 O   0  0  0  0  0  0
  -24.6186  -31.8654   23.2077 C   0  0  0  0  0  0
  -25.9065  -32.4804   23.8386 C   0  0  1  0  0  0
  -27.2198  -27.3885   20.0829 C   0  0  0  0  0  0
  -25.5894  -33.8603   24.2304 N   0  0  0  0  0  0
  -23.4054  -30.4914   21.5513 C   0  0  2  0  0  0
  -24.8449  -28.9550   20.1122 C   0  0  0  0  0  0
  -22.7418  -29.4643   22.4986 C   0  0  0  0  0  0
  -18.0274  -28.1374   22.8487 C   0  0  0  0  0  0
  -24.1481  -36.7321   23.2637 C   0  0  0  0  0  0
  -25.9404  -30.8178   21.3665 C   0  0  0  0  0  0
  -26.0113  -29.4508   20.7069 C   0  0  0  0  0  0
  -27.1978  -28.6729   20.6892 C   0  0  0  0  0  0
  -26.0200  -26.9172   19.4980 C   0  0  0  0  0  0
  -24.8464  -27.6900   19.5062 C   0  0  0  0  0  0
  -23.6119  -29.8293   20.1642 C   0  0  0  0  0  0
  -25.4094  -36.3108   24.0337 C   0  0  1  0  0  0
  -20.5861  -28.3649   23.1323 C   0  0  2  0  0  0
  -20.6748  -26.9381   22.5420 C   0  0  0  0  0  0
  -19.5721  -26.6374   21.5213 C   0  0  0  0  0  0
  -18.1909  -26.7926   22.1630 C   0  0  0  0  0  0
  -19.1525  -28.8832   23.2901 C   0  0  0  0  0  0
  -18.9454  -30.1440   23.8905 C   0  0  0  0  0  0
  -17.6450  -30.6580   24.0563 C   0  0  0  0  0  0
  -25.9020  -34.9465   23.5123 C   0  0  0  0  0  0
  -16.5344  -29.9075   23.6329 C   0  0  0  0  0  0
  -16.7259  -28.6503   23.0338 C   0  0  0  0  0  0
  -26.4459  -31.6597   25.0735 C   0  0  0  0  0  0
  -25.3722  -31.3740   26.1497 C   0  0  0  0  0  0
  -27.0267  -30.3020   24.6137 C   0  0  0  0  0  0
  -27.6033  -32.4318   25.7488 C   0  0  0  0  0  0
  -27.5582  -37.1812   24.8453 C   0  0  0  0  0  0
  -21.4143  -29.3033   22.3749 N   0  0  0  0  0  0
  -26.4279  -37.3800   23.9416 N   0  0  0  0  0  0
  -24.6736  -31.0733   22.1000 N   0  0  0  0  0  0
  -23.4179  -28.8193   23.3042 O   0  0  0  0  0  0
  -28.3926  -26.6437   20.1204 O   0  0  0  0  0  0
  -26.5609  -34.8928   22.4697 O   0  0  0  0  0  0
  -23.5371  -32.1423   23.7456 O   0  0  0  0  0  0
  -31.6958  -18.3627   16.9434 C   0  0  0  0  0  0
  -30.1938  -19.4177   18.5940 C   0  0  0  0  0  0
  -30.7678  -17.0663   18.8374 C   0  0  0  0  0  0
  -29.2866  -18.1203   20.4641 C   0  0  0  0  0  0
  -30.8798  -18.2815   18.1401 C   0  0  0  0  0  0
  -29.3966  -19.3639   19.7554 C   0  0  0  0  0  0
  -29.9869  -16.9493   20.0163 C   0  0  0  0  0  0
  -28.6335  -22.9033   20.0948 C   0  0  0  0  0  0
  -27.4494  -22.4456   19.3791 C   0  0  0  0  0  0
  -29.3278  -21.6911   20.5685 C   0  0  0  0  0  0
  -29.0935  -24.2021   20.1748 C   0  0  0  0  0  0
  -27.4883  -20.9309   19.3233 C   0  0  0  0  0  0
  -30.3642  -24.5870   20.9272 C   0  0  0  0  0  0
  -28.5467  -25.4103   19.3675 C   0  0  0  0  0  0
  -32.3471  -18.4304   15.9854 N   0  0  0  0  0  0
  -28.6932  -20.5828   20.0837 N   0  0  0  0  0  0
  -29.8683  -15.6591   20.6781 N   0  0  0  0  0  0
  -26.5258  -23.1127   18.9002 O   0  0  0  0  0  0
  -30.3457  -21.6266   21.2669 O   0  0  0  0  0  0
  -31.4688  -12.4366   19.1677 H   0  0  0  0  0  0
  -30.3268  -11.3383   19.9000 H   0  0  0  0  0  0
  -29.7598  -11.7349   17.4757 H   0  0  0  0  0  0
  -29.6830  -13.4544   17.7563 H   0  0  0  0  0  0
  -27.8354  -11.2995   18.8294 H   0  0  0  0  0  0
  -27.3872  -12.6093   17.7737 H   0  0  0  0  0  0
  -27.6712  -14.2558   19.5352 H   0  0  0  0  0  0
  -28.6693  -12.0387   21.3868 H   0  0  0  0  0  0
  -28.4577  -13.7099   21.8407 H   0  0  0  0  0  0
  -25.2766   -9.5689   22.4735 H   0  0  0  0  0  0
  -23.9994   -7.4638   22.7451 H   0  0  0  0  0  0
  -21.0836   -8.8828   19.8965 H   0  0  0  0  0  0
  -22.3694  -10.9700   19.6158 H   0  0  0  0  0  0
  -21.2034   -7.6148   23.9708 H   0  0  0  0  0  0
  -21.1456   -6.0498   25.9051 H   0  0  0  0  0  0
  -22.0617   -2.7600   23.2827 H   0  0  0  0  0  0
  -22.4098  -11.9901   22.4761 H   0  0  0  0  0  0
  -21.1150  -13.1328   22.2616 H   0  0  0  0  0  0
  -24.6768  -15.8596   20.5141 H   0  0  0  0  0  0
  -26.2901  -15.6161   20.0786 H   0  0  0  0  0  0
  -26.7147  -32.5496   23.1157 H   0  0  0  0  0  0
  -25.0017  -33.9744   25.0432 H   0  0  0  0  0  0
  -22.6962  -31.3103   21.4134 H   0  0  0  0  0  0
  -23.3736  -35.9661   23.3282 H   0  0  0  0  0  0
  -24.3583  -36.8946   22.2050 H   0  0  0  0  0  0
  -23.7220  -37.6511   23.6672 H   0  0  0  0  0  0
  -26.0601  -31.5859   20.6015 H   0  0  0  0  0  0
  -26.8271  -30.8674   21.9873 H   0  0  0  0  0  0
  -28.0988  -29.0530   21.1485 H   0  0  0  0  0  0
  -25.9328  -25.9439   19.0440 H   0  0  0  0  0  0
  -23.9438  -27.2990   19.0538 H   0  0  0  0  0  0
  -23.7245  -30.6090   19.4095 H   0  0  0  0  0  0
  -22.7327  -29.2562   19.8650 H   0  0  0  0  0  0
  -25.1254  -36.1975   25.0829 H   0  0  0  0  0  0
  -20.9919  -28.3215   24.1453 H   0  0  0  0  0  0
  -20.5620  -26.2251   23.3604 H   0  0  0  0  0  0
  -21.6627  -26.7406   22.1235 H   0  0  0  0  0  0
  -19.6871  -25.6296   21.1215 H   0  0  0  0  0  0
  -19.6661  -27.3200   20.6758 H   0  0  0  0  0  0
  -17.4165  -26.6680   21.4050 H   0  0  0  0  0  0
  -18.0301  -26.0069   22.9019 H   0  0  0  0  0  0
  -19.7925  -30.7257   24.2273 H   0  0  0  0  0  0
  -17.5005  -31.6260   24.5170 H   0  0  0  0  0  0
  -15.5343  -30.2965   23.7660 H   0  0  0  0  0  0
  -15.8669  -28.0823   22.7020 H   0  0  0  0  0  0
  -24.5886  -30.7078   25.7880 H   0  0  0  0  0  0
  -24.8931  -32.2904   26.4951 H   0  0  0  0  0  0
  -25.8089  -30.8932   27.0251 H   0  0  0  0  0  0
  -26.2812  -29.6807   24.1159 H   0  0  0  0  0  0
  -27.3958  -29.7254   25.4623 H   0  0  0  0  0  0
  -27.8691  -30.4311   23.9338 H   0  0  0  0  0  0
  -27.2658  -33.3620   26.2072 H   0  0  0  0  0  0
  -28.3843  -32.6858   25.0314 H   0  0  0  0  0  0
  -28.0689  -31.8426   26.5392 H   0  0  0  0  0  0
  -28.2592  -38.0125   24.7524 H   0  0  0  0  0  0
  -28.1083  -36.2657   24.6226 H   0  0  0  0  0  0
  -27.2321  -37.1387   25.8863 H   0  0  0  0  0  0
  -20.9287  -29.8790   21.7014 H   0  0  0  0  0  0
  -26.0160  -38.2870   24.1438 H   0  0  0  0  0  0
  -30.2731  -20.3366   18.0319 H   0  0  0  0  0  0
  -31.2919  -16.2189   18.4205 H   0  0  0  0  0  0
  -28.6591  -18.0674   21.3443 H   0  0  0  0  0  0
  -27.5574  -20.6072   18.2839 H   0  0  0  0  0  0
  -26.5949  -20.4973   19.7743 H   0  0  0  0  0  0
  -30.5168  -24.0005   21.8331 H   0  0  0  0  0  0
  -30.3357  -25.6294   21.2464 H   0  0  0  0  0  0
  -31.2288  -24.4639   20.2740 H   0  0  0  0  0  0
  -27.7391  -25.1638   18.6943 H   0  0  0  0  0  0
  -29.3477  -25.6383   18.6641 H   0  0  0  0  0  0
  -28.9896  -15.4804   21.1421 H   0  0  0  0  0  0
  1 25  1  0  0  0
  1 30  2  0  0  0
  1 87  1  0  0  0
  2  3  1  0  0  0
  2 25  1  0  0  0
  2 90  1  0  0  0
  2 91  1  0  0  0
  3  4  1  0  0  0
  3 92  1  0  0  0
  3 93  1  0  0  0
  4  5  1  0  0  0
  4 94  1  0  0  0
  4 95  1  0  0  0
  5  6  1  0  0  0
  5 26  1  0  0  0
  5 96  1  0  0  0
  6 25  1  0  0  0
  6 97  1  0  0  0
  6 98  1  0  0  0
  7  8  2  0  0  0
  7 26  1  0  0  0
  7 29  1  0  0  0
  8  9  1  0  0  0
  8 22  1  0  0  0
  9 10  1  0  0  0
  9 27  2  0  0  0
 10 11  2  0  0  0
 10 15  1  0  0  0
 11 12  1  0  0  0
 11 99  1  0  0  0
 12 13  2  0  0  0
 12100  1  0  0  0
 13 14  1  0  0  0
 13 31  1  0  0  0
 14 15  2  0  0  0
 14101  1  0  0  0
 15102  1  0  0  0
 16 17  2  0  0  0
 16 21  1  0  0  0
 16 31  1  0  0  0
 17 18  1  0  0  0
 17103  1  0  0  0
 18 19  2  0  0  0
 18104  1  0  0  0
 19 20  1  0  0  0
 19 24  1  0  0  0
 20 21  2  0  0  0
 20105  1  0  0  0
 21 23  1  0  0  0
 22 28  1  0  0  0
 22 32  2  0  0  0
 26 27  1  0  0  0
 28106  1  0  0  0
 28107  1  0  0  0
 29108  1  0  0  0
 29109  1  0  0  0
 33 34  1  0  0  0
 33 66  1  0  0  0
 33 70  2  0  0  0
 34 36  1  0  0  0
 34 59  1  0  0  0
 34110  1  0  0  0
 35 44  2  0  0  0
 35 45  1  0  0  0
 35 68  1  0  0  0
 36 56  1  0  0  0
 36111  1  0  0  0
 37 39  1  0  0  0
 37 47  1  0  0  0
 37 66  1  0  0  0
 37112  1  0  0  0
 38 43  2  0  0  0
 38 46  1  0  0  0
 38 47  1  0  0  0
 39 64  1  0  0  0
 39 67  2  0  0  0
 40 52  1  0  0  0
 40 53  2  0  0  0
 40 58  1  0  0  0
 41113  1  0  0  0
 41114  1  0  0  0
 41115  1  0  0  0
 41 48  1  0  0  0
 42 43  1  0  0  0
 42 66  1  0  0  0
 42116  1  0  0  0
 42117  1  0  0  0
 43 44  1  0  0  0
 44118  1  0  0  0
 45 46  2  0  0  0
 45119  1  0  0  0
 46120  1  0  0  0
 47121  1  0  0  0
 47122  1  0  0  0
 48 56  1  0  0  0
 48 65  1  0  0  0
 48123  1  0  0  0
 49 50  1  0  0  0
 49 53  1  0  0  0
 49 64  1  0  0  0
 49124  1  0  0  0
 50 51  1  0  0  0
 50125  1  0  0  0
 50126  1  0  0  0
 51 52  1  0  0  0
 51127  1  0  0  0
 51128  1  0  0  0
 52129  1  0  0  0
 52130  1  0  0  0
 53 54  1  0  0  0
 54 55  2  0  0  0
 54131  1  0  0  0
 55 57  1  0  0  0
 55132  1  0  0  0
 56 69  2  0  0  0
 57 58  2  0  0  0
 57133  1  0  0  0
 58134  1  0  0  0
 59 60  1  0  0  0
 59 61  1  0  0  0
 59 62  1  0  0  0
 60135  1  0  0  0
 60136  1  0  0  0
 60137  1  0  0  0
 61138  1  0  0  0
 61139  1  0  0  0
 61140  1  0  0  0
 62141  1  0  0  0
 62142  1  0  0  0
 62143  1  0  0  0
 63 65  1  0  0  0
 63144  1  0  0  0
 63145  1  0  0  0
 63146  1  0  0  0
 64147  1  0  0  0
 65148  1  0  0  0
 68 84  1  0  0  0
 71 75  1  0  0  0
 71 85  3  0  0  0
 72 75  2  0  0  0
 72 76  1  0  0  0
 72149  1  0  0  0
 73 75  1  0  0  0
 73 77  2  0  0  0
 73150  1  0  0  0
 74 76  2  0  0  0
 74 77  1  0  0  0
 74151  1  0  0  0
 76 86  1  0  0  0
 77 87  1  0  0  0
 78 79  1  0  0  0
 78 80  1  0  0  0
 78 81  2  0  0  0
 79 82  1  0  0  0
 79 88  2  0  0  0
 80 86  1  0  0  0
 80 89  2  0  0  0
 81 83  1  0  0  0
 81 84  1  0  0  0
 82 86  1  0  0  0
 82152  1  0  0  0
 82153  1  0  0  0
 83154  1  0  0  0
 83155  1  0  0  0
 83156  1  0  0  0
 84157  1  0  0  0
 84158  1  0  0  0
 87159  1  0  0  0
M  ISO  4   1 100  68 101  84 101  87 100
M  END
> <chiral flag>
0

> <version>
0

> <s_m_source_file>
/data/baiqing/PycharmProjects/Reinvent-master-3.2/result/LINK_invent/BTK/process_docking_weight1_custom_product_contain_oxygen_bond_distance_aromatic_linkinvent_7_9_3/rearranged_h_0075.sdf

> <i_m_source_file_index>
17

> <r_mmod_Potential_Energy-OPLS-2005>
149.43376159668

> <r_mmod_Stretch_Energy-OPLS-2005>
59.4406433105469

> <r_mmod_Bend_Energy-OPLS-2005>
174.390518188477

> <r_mmod_Torsional_Energy-OPLS-2005>
312.525299072266

> <r_mmod_Improper_Torsional_Energy-OPLS-2005>
8.2738618850708

> <r_mmod_Van_der_Waal_Energy-OPLS-2005>
160.211196899414

> <r_mmod_Electrostatic_Energy-OPLS-2005>
-347.523010253906

> <r_mmod_Solvation_Energy-OPLS-2005>
-245.632278442383

> <b_mmod_Minimization_Converged-OPLS-2005>
0

> <r_mmod_RMS_Derivative-OPLS-2005>
4.0611252784729

$$$$
17
                    3D
 Structure written by MMmdl.
156165  0  0  1  0            999 V2000
  -30.6185  -14.7655   20.3458 C   0  0  0  0  0  0
  -30.4466  -12.4346   19.4738 C   0  0  0  0  0  0
  -29.5127  -12.3706   18.2444 C   0  0  0  0  0  0
  -28.0275  -12.2882   18.6655 C   0  0  0  0  0  0
  -27.6333  -13.2121   19.8548 C   0  0  2  0  0  0
  -28.7008  -13.2064   20.9683 C   0  0  0  0  0  0
  -25.2512  -13.8133   20.5801 C   0  0  0  0  0  0
  -24.1765  -13.0401   20.9239 C   0  0  0  0  0  0
  -24.6339  -11.6882   20.8810 C   0  0  0  0  0  0
  -23.9020  -10.4263   21.0440 C   0  0  0  0  0  0
  -24.3590   -9.4175   21.9202 C   0  0  0  0  0  0
  -23.6268   -8.2210   22.0755 C   0  0  0  0  0  0
  -22.4253   -8.0255   21.3534 C   0  0  0  0  0  0
  -21.9890   -9.0229   20.4642 C   0  0  0  0  0  0
  -22.7212  -10.2107   20.3071 C   0  0  0  0  0  0
  -21.6839   -6.0719   22.5280 C   0  0  0  0  0  0
  -21.3991   -6.5630   23.8207 C   0  0  0  0  0  0
  -21.3663   -5.6791   24.9175 C   0  0  0  0  0  0
  -21.6058   -4.3048   24.7231 C   0  0  0  0  0  0
  -21.8823   -3.8137   23.4349 C   0  0  0  0  0  0
  -21.9187   -4.6950   22.3407 C   0  0  0  0  0  0
  -22.7785  -13.5187   21.1889 C   0  0  0  0  0  0
  -22.1655   -4.2141   21.0983 F   0  0  0  0  0  0
  -21.5649   -3.4545   25.7744 F   0  0  0  0  0  0
  -29.9843  -13.5412   20.3367 N   0  0  0  0  0  0
  -26.2921  -12.9284   20.3475 N   0  0  0  0  0  0
  -25.9277  -11.6455   20.5919 N   0  0  0  0  0  0
  -22.0438  -12.8155   22.0443 N   0  0  0  0  0  0
  -25.4217  -15.1856   20.4225 N   0  0  0  0  0  0
  -31.8487  -14.8123   20.2578 O   0  0  0  0  0  0
  -21.6616   -6.8851   21.4232 O   0  0  0  0  0  0
  -22.3454  -14.5506   20.6753 O   0  0  0  0  0  0
  -24.6265  -31.8580   23.2012 C   0  0  0  0  0  0
  -25.9105  -32.4764   23.8342 C   0  0  1  0  0  0
  -27.2267  -27.2990   20.1305 C   0  0  0  0  0  0
  -25.5920  -33.8570   24.2265 N   0  0  0  0  0  0
  -23.4221  -30.4806   21.5437 C   0  0  2  0  0  0
  -24.8727  -28.9373   20.1097 C   0  0  0  0  0  0
  -22.7475  -29.4604   22.4919 C   0  0  0  0  0  0
  -18.0283  -28.1382   22.8478 C   0  0  0  0  0  0
  -24.1498  -36.7296   23.2639 C   0  0  0  0  0  0
  -25.9656  -30.7854   21.3770 C   0  0  0  0  0  0
  -26.0410  -29.4123   20.7175 C   0  0  0  0  0  0
  -27.2209  -28.6049   20.7172 C   0  0  0  0  0  0
  -26.0370  -26.8898   19.4844 C   0  0  0  0  0  0
  -24.8748  -27.6830   19.4826 C   0  0  0  0  0  0
  -23.6393  -29.8154   20.1588 C   0  0  0  0  0  0
  -25.4123  -36.3077   24.0325 C   0  0  1  0  0  0
  -20.5886  -28.3683   23.1281 C   0  0  2  0  0  0
  -20.6779  -26.9401   22.5411 C   0  0  0  0  0  0
  -19.5758  -26.6379   21.5210 C   0  0  0  0  0  0
  -18.1934  -26.7921   22.1620 C   0  0  0  0  0  0
  -19.1536  -28.8852   23.2875 C   0  0  0  0  0  0
  -18.9462  -30.1456   23.8885 C   0  0  0  0  0  0
  -17.6463  -30.6585   24.0559 C   0  0  0  0  0  0
  -25.9055  -34.9447   23.5097 C   0  0  0  0  0  0
  -16.5351  -29.9079   23.6337 C   0  0  0  0  0  0
  -16.7269  -28.6502   23.0345 C   0  0  0  0  0  0
  -26.4481  -31.6576   25.0721 C   0  0  0  0  0  0
  -25.3709  -31.3727   26.1443 C   0  0  0  0  0  0
  -27.0325  -30.2985   24.6198 C   0  0  0  0  0  0
  -27.6042  -32.4304   25.7491 C   0  0  0  0  0  0
  -27.5579  -37.1807   24.8463 C   0  0  0  0  0  0
  -21.4186  -29.3036   22.3673 N   0  0  0  0  0  0
  -26.4297  -37.3772   23.9400 N   0  0  0  0  0  0
  -24.6898  -31.0585   22.0970 N   0  0  0  0  0  0
  -23.4197  -28.8146   23.2999 O   0  0  0  0  0  0
  -28.3311  -26.4247   20.2121 O   0  0  0  0  0  0
  -26.5627  -34.8912   22.4667 O   0  0  0  0  0  0
  -23.5428  -32.1388   23.7332 O   0  0  0  0  0  0
  -30.4737  -19.6422   19.6036 C   0  0  0  0  0  0
  -30.6607  -18.2324   19.4869 C   0  0  0  0  0  0
  -29.0274  -19.2970   21.4362 C   0  0  0  0  0  0
  -29.6060  -20.2666   20.5483 C   0  0  0  0  0  0
  -29.9857  -17.2824   20.3060 C   0  0  0  0  0  0
  -29.1915  -17.8688   21.3312 C   0  0  0  0  0  0
  -29.7036  -22.7970   19.6984 C   0  0  0  0  0  0
  -28.5031  -22.5788   21.3117 C   0  0  0  0  0  0
  -29.1168  -23.8710   20.6709 C   0  0  0  0  0  0
  -29.6058  -15.7972   18.4338 C   0  0  0  0  0  0
  -28.0889  -24.9529   20.0877 C   0  0  0  0  0  0
  -29.3612  -21.7314   20.5725 N   0  0  0  0  0  0
  -28.4957  -17.0410   22.2134 N   0  0  0  0  0  0
  -29.8864  -15.8623   19.8862 N   0  0  0  0  0  0
  -30.2543  -22.8035   18.6151 O   0  0  0  0  0  0
  -27.6393  -22.3261   22.1275 O   0  0  0  0  0  0
  -31.4797  -12.5727   19.1496 H   0  0  0  0  0  0
  -30.4266  -11.4948   20.0258 H   0  0  0  0  0  0
  -29.7635  -11.4924   17.6475 H   0  0  0  0  0  0
  -29.6910  -13.2069   17.5741 H   0  0  0  0  0  0
  -27.8496  -11.2529   18.9563 H   0  0  0  0  0  0
  -27.3784  -12.4762   17.8097 H   0  0  0  0  0  0
  -27.5746  -14.2239   19.4733 H   0  0  0  0  0  0
  -28.7535  -12.2342   21.4595 H   0  0  0  0  0  0
  -28.4526  -13.9401   21.7366 H   0  0  0  0  0  0
  -25.2739   -9.5649   22.4755 H   0  0  0  0  0  0
  -24.0001   -7.4592   22.7457 H   0  0  0  0  0  0
  -21.0828   -8.8731   19.8921 H   0  0  0  0  0  0
  -22.3683  -10.9646   19.6169 H   0  0  0  0  0  0
  -21.1948   -7.6137   23.9704 H   0  0  0  0  0  0
  -21.1491   -6.0522   25.9082 H   0  0  0  0  0  0
  -22.0598   -2.7608   23.2857 H   0  0  0  0  0  0
  -22.4083  -11.9814   22.4805 H   0  0  0  0  0  0
  -21.1060  -13.1139   22.2701 H   0  0  0  0  0  0
  -24.6664  -15.8474   20.5605 H   0  0  0  0  0  0
  -26.3048  -15.6309   20.2033 H   0  0  0  0  0  0
  -26.7177  -32.5438   23.1091 H   0  0  0  0  0  0
  -25.0033  -33.9715   25.0388 H   0  0  0  0  0  0
  -22.7157  -31.3014   21.3975 H   0  0  0  0  0  0
  -23.3753  -35.9633   23.3305 H   0  0  0  0  0  0
  -24.3579  -36.8918   22.2049 H   0  0  0  0  0  0
  -23.7272  -37.6506   23.6666 H   0  0  0  0  0  0
  -26.1001  -31.5503   20.6109 H   0  0  0  0  0  0
  -26.8440  -30.8314   22.0095 H   0  0  0  0  0  0
  -28.1130  -28.9612   21.2138 H   0  0  0  0  0  0
  -25.9725  -25.9321   18.9895 H   0  0  0  0  0  0
  -23.9800  -27.3136   19.0001 H   0  0  0  0  0  0
  -23.7574  -30.5920   19.4019 H   0  0  0  0  0  0
  -22.7604  -29.2432   19.8548 H   0  0  0  0  0  0
  -25.1314  -36.1923   25.0820 H   0  0  0  0  0  0
  -20.9972  -28.3259   24.1406 H   0  0  0  0  0  0
  -20.5690  -26.2279   23.3604 H   0  0  0  0  0  0
  -21.6645  -26.7444   22.1195 H   0  0  0  0  0  0
  -19.6923  -25.6294   21.1236 H   0  0  0  0  0  0
  -19.6706  -27.3193   20.6743 H   0  0  0  0  0  0
  -17.4202  -26.6653   21.4026 H   0  0  0  0  0  0
  -18.0346  -26.0073   22.9028 H   0  0  0  0  0  0
  -19.7939  -30.7273   24.2242 H   0  0  0  0  0  0
  -17.5021  -31.6267   24.5154 H   0  0  0  0  0  0
  -15.5352  -30.2978   23.7682 H   0  0  0  0  0  0
  -15.8666  -28.0830   22.7056 H   0  0  0  0  0  0
  -24.5873  -30.7086   25.7770 H   0  0  0  0  0  0
  -24.8910  -32.2898   26.4867 H   0  0  0  0  0  0
  -25.8018  -30.8899   27.0224 H   0  0  0  0  0  0
  -26.2907  -29.6744   24.1202 H   0  0  0  0  0  0
  -27.3982  -29.7249   25.4722 H   0  0  0  0  0  0
  -27.8798  -30.4244   23.9447 H   0  0  0  0  0  0
  -27.2639  -33.3607   26.2057 H   0  0  0  0  0  0
  -28.3848  -32.6857   25.0319 H   0  0  0  0  0  0
  -28.0700  -31.8441   26.5420 H   0  0  0  0  0  0
  -28.2597  -38.0103   24.7494 H   0  0  0  0  0  0
  -28.1072  -36.2628   24.6310 H   0  0  0  0  0  0
  -27.2282  -37.1480   25.8862 H   0  0  0  0  0  0
  -20.9360  -29.8745   21.6877 H   0  0  0  0  0  0
  -26.0173  -38.2846   24.1397 H   0  0  0  0  0  0
  -30.9951  -20.2636   18.8881 H   0  0  0  0  0  0
  -31.2832  -17.8817   18.6771 H   0  0  0  0  0  0
  -28.3761  -19.6691   22.2138 H   0  0  0  0  0  0
  -29.8705  -24.3256   21.3122 H   0  0  0  0  0  0
  -29.1578  -16.7164   18.0513 H   0  0  0  0  0  0
  -30.5145  -15.6133   17.8572 H   0  0  0  0  0  0
  -28.8840  -15.0439   18.1556 H   0  0  0  0  0  0
  -27.1224  -24.7484   20.5512 H   0  0  0  0  0  0
  -27.9418  -24.7579   19.0247 H   0  0  0  0  0  0
  -28.1397  -17.4337   23.0798 H   0  0  0  0  0  0
  -28.7665  -16.0705   22.2995 H   0  0  0  0  0  0
  1 25  1  0  0  0
  1 30  2  0  0  0
  1 84  1  0  0  0
  2  3  1  0  0  0
  2 25  1  0  0  0
  2 87  1  0  0  0
  2 88  1  0  0  0
  3  4  1  0  0  0
  3 89  1  0  0  0
  3 90  1  0  0  0
  4  5  1  0  0  0
  4 91  1  0  0  0
  4 92  1  0  0  0
  5  6  1  0  0  0
  5 26  1  0  0  0
  5 93  1  0  0  0
  6 25  1  0  0  0
  6 94  1  0  0  0
  6 95  1  0  0  0
  7  8  2  0  0  0
  7 26  1  0  0  0
  7 29  1  0  0  0
  8  9  1  0  0  0
  8 22  1  0  0  0
  9 10  1  0  0  0
  9 27  2  0  0  0
 10 11  2  0  0  0
 10 15  1  0  0  0
 11 12  1  0  0  0
 11 96  1  0  0  0
 12 13  2  0  0  0
 12 97  1  0  0  0
 13 14  1  0  0  0
 13 31  1  0  0  0
 14 15  2  0  0  0
 14 98  1  0  0  0
 15 99  1  0  0  0
 16 17  2  0  0  0
 16 21  1  0  0  0
 16 31  1  0  0  0
 17 18  1  0  0  0
 17100  1  0  0  0
 18 19  2  0  0  0
 18101  1  0  0  0
 19 20  1  0  0  0
 19 24  1  0  0  0
 20 21  2  0  0  0
 20102  1  0  0  0
 21 23  1  0  0  0
 22 28  1  0  0  0
 22 32  2  0  0  0
 26 27  1  0  0  0
 28103  1  0  0  0
 28104  1  0  0  0
 29105  1  0  0  0
 29106  1  0  0  0
 33 34  1  0  0  0
 33 66  1  0  0  0
 33 70  2  0  0  0
 34 36  1  0  0  0
 34 59  1  0  0  0
 34107  1  0  0  0
 35 44  2  0  0  0
 35 45  1  0  0  0
 35 68  1  0  0  0
 36 56  1  0  0  0
 36108  1  0  0  0
 37 39  1  0  0  0
 37 47  1  0  0  0
 37 66  1  0  0  0
 37109  1  0  0  0
 38 43  2  0  0  0
 38 46  1  0  0  0
 38 47  1  0  0  0
 39 64  1  0  0  0
 39 67  2  0  0  0
 40 52  1  0  0  0
 40 53  2  0  0  0
 40 58  1  0  0  0
 41110  1  0  0  0
 41111  1  0  0  0
 41112  1  0  0  0
 41 48  1  0  0  0
 42 43  1  0  0  0
 42 66  1  0  0  0
 42113  1  0  0  0
 42114  1  0  0  0
 43 44  1  0  0  0
 44115  1  0  0  0
 45 46  2  0  0  0
 45116  1  0  0  0
 46117  1  0  0  0
 47118  1  0  0  0
 47119  1  0  0  0
 48 56  1  0  0  0
 48 65  1  0  0  0
 48120  1  0  0  0
 49 50  1  0  0  0
 49 53  1  0  0  0
 49 64  1  0  0  0
 49121  1  0  0  0
 50 51  1  0  0  0
 50122  1  0  0  0
 50123  1  0  0  0
 51 52  1  0  0  0
 51124  1  0  0  0
 51125  1  0  0  0
 52126  1  0  0  0
 52127  1  0  0  0
 53 54  1  0  0  0
 54 55  2  0  0  0
 54128  1  0  0  0
 55 57  1  0  0  0
 55129  1  0  0  0
 56 69  2  0  0  0
 57 58  2  0  0  0
 57130  1  0  0  0
 58131  1  0  0  0
 59 60  1  0  0  0
 59 61  1  0  0  0
 59 62  1  0  0  0
 60132  1  0  0  0
 60133  1  0  0  0
 60134  1  0  0  0
 61135  1  0  0  0
 61136  1  0  0  0
 61137  1  0  0  0
 62138  1  0  0  0
 62139  1  0  0  0
 62140  1  0  0  0
 63 65  1  0  0  0
 63141  1  0  0  0
 63142  1  0  0  0
 63143  1  0  0  0
 64144  1  0  0  0
 65145  1  0  0  0
 68 81  1  0  0  0
 71 72  2  0  0  0
 71 74  1  0  0  0
 71146  1  0  0  0
 72 75  1  0  0  0
 72147  1  0  0  0
 73 74  2  0  0  0
 73 76  1  0  0  0
 73148  1  0  0  0
 74 82  1  0  0  0
 75 76  2  0  0  0
 75 84  1  0  0  0
 76 83  1  0  0  0
 77 79  1  0  0  0
 77 82  1  0  0  0
 77 85  2  0  0  0
 78 79  1  0  0  0
 78 82  1  0  0  0
 78 86  2  0  0  0
 79 81  1  0  0  0
 79149  1  0  0  0
 80 84  1  0  0  0
 80150  1  0  0  0
 80151  1  0  0  0
 80152  1  0  0  0
 81153  1  0  0  0
 81154  1  0  0  0
 83155  1  0  0  0
 83156  1  0  0  0
M  ISO  4   1 100  68 101  81 101  84 100
M  END
> <chiral flag>
0

> <version>
0

> <s_m_source_file>
/data/baiqing/PycharmProjects/Reinvent-master-3.2/result/LINK_invent/BTK/process_docking_weight1_custom_product_contain_oxygen_bond_distance_aromatic_linkinvent_7_9_3/rearranged_h_0075.sdf

> <i_m_source_file_index>
18

> <r_mmod_Potential_Energy-OPLS-2005>
240.760986328125

> <r_mmod_Stretch_Energy-OPLS-2005>
102.943176269531

> <r_mmod_Bend_Energy-OPLS-2005>
178.749328613281

> <r_mmod_Torsional_Energy-OPLS-2005>
323.246154785156

> <r_mmod_Improper_Torsional_Energy-OPLS-2005>
27.3877849578857

> <r_mmod_Van_der_Waal_Energy-OPLS-2005>
150.88916015625

> <r_mmod_Electrostatic_Energy-OPLS-2005>
-416.190460205078

> <r_mmod_Solvation_Energy-OPLS-2005>
-221.352172851562

> <b_mmod_Minimization_Converged-OPLS-2005>
0

> <r_mmod_RMS_Derivative-OPLS-2005>
2.65754461288452

$$$$
18
                    3D
 Structure written by MMmdl.
161169  0  0  1  0            999 V2000
  -30.6224  -14.7593   20.4336 C   0  0  0  0  0  0
  -30.4232  -12.4598   19.4792 C   0  0  0  0  0  0
  -29.5034  -12.4978   18.2394 C   0  0  0  0  0  0
  -28.0324  -12.3199   18.6577 C   0  0  0  0  0  0
  -27.6360  -13.2355   19.8471 C   0  0  2  0  0  0
  -28.6813  -13.1966   20.9837 C   0  0  0  0  0  0
  -25.2483  -13.8218   20.5706 C   0  0  0  0  0  0
  -24.1783  -13.0447   20.9221 C   0  0  0  0  0  0
  -24.6377  -11.6928   20.8756 C   0  0  0  0  0  0
  -23.9056  -10.4297   21.0403 C   0  0  0  0  0  0
  -24.3609   -9.4212   21.9179 C   0  0  0  0  0  0
  -23.6285   -8.2246   22.0747 C   0  0  0  0  0  0
  -22.4271   -8.0280   21.3535 C   0  0  0  0  0  0
  -21.9905   -9.0255   20.4639 C   0  0  0  0  0  0
  -22.7229  -10.2137   20.3050 C   0  0  0  0  0  0
  -21.6856   -6.0728   22.5268 C   0  0  0  0  0  0
  -21.4015   -6.5631   23.8201 C   0  0  0  0  0  0
  -21.3661   -5.6785   24.9168 C   0  0  0  0  0  0
  -21.6046   -4.3046   24.7222 C   0  0  0  0  0  0
  -21.8821   -3.8136   23.4342 C   0  0  0  0  0  0
  -21.9193   -4.6953   22.3395 C   0  0  0  0  0  0
  -22.7802  -13.5215   21.1883 C   0  0  0  0  0  0
  -22.1660   -4.2134   21.0973 F   0  0  0  0  0  0
  -21.5632   -3.4533   25.7738 F   0  0  0  0  0  0
  -29.9800  -13.5396   20.3940 N   0  0  0  0  0  0
  -26.2905  -12.9428   20.3288 N   0  0  0  0  0  0
  -25.9307  -11.6567   20.5762 N   0  0  0  0  0  0
  -22.0461  -12.8194   22.0444 N   0  0  0  0  0  0
  -25.4166  -15.1942   20.4112 N   0  0  0  0  0  0
  -31.8231  -14.7917   20.1556 O   0  0  0  0  0  0
  -21.6638   -6.8875   21.4230 O   0  0  0  0  0  0
  -22.3480  -14.5518   20.6736 O   0  0  0  0  0  0
  -24.6295  -31.8543   23.1952 C   0  0  0  0  0  0
  -25.9133  -32.4739   23.8291 C   0  0  1  0  0  0
  -27.2214  -27.2584   20.1334 C   0  0  0  0  0  0
  -25.5935  -33.8541   24.2227 N   0  0  0  0  0  0
  -23.4253  -30.4730   21.5380 C   0  0  2  0  0  0
  -24.8727  -28.9145   20.1053 C   0  0  0  0  0  0
  -22.7490  -29.4582   22.4908 C   0  0  0  0  0  0
  -18.0280  -28.1383   22.8471 C   0  0  0  0  0  0
  -24.1491  -36.7283   23.2641 C   0  0  0  0  0  0
  -25.9678  -30.7657   21.3731 C   0  0  0  0  0  0
  -26.0395  -29.3858   20.7184 C   0  0  0  0  0  0
  -27.2125  -28.5678   20.7226 C   0  0  0  0  0  0
  -26.0327  -26.8468   19.4938 C   0  0  0  0  0  0
  -24.8739  -27.6542   19.4824 C   0  0  0  0  0  0
  -23.6432  -29.8031   20.1534 C   0  0  0  0  0  0
  -25.4115  -36.3058   24.0317 C   0  0  1  0  0  0
  -20.5881  -28.3691   23.1269 C   0  0  2  0  0  0
  -20.6778  -26.9412   22.5408 C   0  0  0  0  0  0
  -19.5764  -26.6386   21.5195 C   0  0  0  0  0  0
  -18.1935  -26.7922   22.1604 C   0  0  0  0  0  0
  -19.1537  -28.8853   23.2857 C   0  0  0  0  0  0
  -18.9471  -30.1451   23.8880 C   0  0  0  0  0  0
  -17.6475  -30.6591   24.0557 C   0  0  0  0  0  0
  -25.9061  -34.9431   23.5078 C   0  0  0  0  0  0
  -16.5359  -29.9094   23.6325 C   0  0  0  0  0  0
  -16.7270  -28.6509   23.0346 C   0  0  0  0  0  0
  -26.4515  -31.6561   25.0674 C   0  0  0  0  0  0
  -25.3749  -31.3683   26.1401 C   0  0  0  0  0  0
  -27.0369  -30.2985   24.6137 C   0  0  0  0  0  0
  -27.6072  -32.4302   25.7454 C   0  0  0  0  0  0
  -27.5578  -37.1790   24.8463 C   0  0  0  0  0  0
  -21.4201  -29.3032   22.3658 N   0  0  0  0  0  0
  -26.4288  -37.3760   23.9408 N   0  0  0  0  0  0
  -24.6931  -31.0498   22.0923 N   0  0  0  0  0  0
  -23.4197  -28.8144   23.3017 O   0  0  0  0  0  0
  -28.3457  -26.4103   20.2323 O   0  0  0  0  0  0
  -26.5651  -34.8924   22.4654 O   0  0  0  0  0  0
  -23.5456  -32.1378   23.7258 O   0  0  0  0  0  0
  -30.8930  -20.1183   19.7078 C   0  0  0  0  0  0
  -29.3100  -18.5067   20.6020 C   0  0  0  0  0  0
  -31.4262  -17.7239   19.7083 C   0  0  0  0  0  0
  -29.6324  -19.9025   20.2986 C   0  0  0  0  0  0
  -31.7885  -19.0616   19.4374 C   0  0  0  0  0  0
  -30.1928  -17.3733   20.3171 C   0  0  0  0  0  0
  -36.1992  -20.9746   18.7178 C   0  0  0  0  0  0
  -28.7865  -21.1880   20.5768 C   0  0  0  0  0  0
  -35.1656  -20.1873   18.3627 C   0  0  0  0  0  0
  -33.9133  -20.3101   19.1097 C   0  0  0  0  0  0
  -35.2914  -19.1962   17.2130 C   0  0  0  0  0  0
  -28.2516  -23.6604   20.5966 C   0  0  0  0  0  0
  -28.4452  -25.0052   19.7052 C   0  0  0  0  0  0
  -29.0238  -22.4189   20.1544 N   0  0  0  0  0  0
  -33.0625  -19.3012   18.8544 N   0  0  0  0  0  0
  -29.8727  -15.9303   20.5948 N   0  0  0  0  0  0
  -33.6580  -21.2241   19.8999 O   0  0  0  0  0  0
  -31.4645  -12.5701   19.1722 H   0  0  0  0  0  0
  -30.3615  -11.4901   19.9772 H   0  0  0  0  0  0
  -29.7856  -11.7144   17.5343 H   0  0  0  0  0  0
  -29.6265  -13.4450   17.7121 H   0  0  0  0  0  0
  -27.8974  -11.2741   18.9380 H   0  0  0  0  0  0
  -27.3699  -12.4906   17.8077 H   0  0  0  0  0  0
  -27.6226  -14.2507   19.4503 H   0  0  0  0  0  0
  -28.7191  -12.2101   21.4475 H   0  0  0  0  0  0
  -28.4162  -13.8994   21.7761 H   0  0  0  0  0  0
  -25.2755   -9.5695   22.4754 H   0  0  0  0  0  0
  -23.9994   -7.4641   22.7470 H   0  0  0  0  0  0
  -21.0835   -8.8776   19.8948 H   0  0  0  0  0  0
  -22.3681  -10.9678   19.6162 H   0  0  0  0  0  0
  -21.2005   -7.6138   23.9702 H   0  0  0  0  0  0
  -21.1482   -6.0515   25.9071 H   0  0  0  0  0  0
  -22.0600   -2.7595   23.2846 H   0  0  0  0  0  0
  -22.4087  -11.9853   22.4821 H   0  0  0  0  0  0
  -21.1080  -13.1213   22.2664 H   0  0  0  0  0  0
  -24.6479  -15.8473   20.5211 H   0  0  0  0  0  0
  -26.2590  -15.6336   20.0627 H   0  0  0  0  0  0
  -26.7194  -32.5398   23.1032 H   0  0  0  0  0  0
  -25.0047  -33.9660   25.0348 H   0  0  0  0  0  0
  -22.7215  -31.2946   21.3912 H   0  0  0  0  0  0
  -23.3757  -35.9613   23.3285 H   0  0  0  0  0  0
  -24.3583  -36.8933   22.2060 H   0  0  0  0  0  0
  -23.7240  -37.6470   23.6695 H   0  0  0  0  0  0
  -26.0993  -31.5246   20.6009 H   0  0  0  0  0  0
  -26.8475  -30.8194   22.0011 H   0  0  0  0  0  0
  -28.1067  -28.9198   21.2191 H   0  0  0  0  0  0
  -25.9642  -25.8762   19.0268 H   0  0  0  0  0  0
  -23.9783  -27.2846   19.0024 H   0  0  0  0  0  0
  -23.7683  -30.5804   19.3983 H   0  0  0  0  0  0
  -22.7614  -29.2382   19.8475 H   0  0  0  0  0  0
  -25.1292  -36.1901   25.0806 H   0  0  0  0  0  0
  -20.9948  -28.3303   24.1396 H   0  0  0  0  0  0
  -20.5675  -26.2308   23.3621 H   0  0  0  0  0  0
  -21.6654  -26.7461   22.1208 H   0  0  0  0  0  0
  -19.6944  -25.6294   21.1246 H   0  0  0  0  0  0
  -19.6715  -27.3187   20.6718 H   0  0  0  0  0  0
  -17.4202  -26.6647   21.4009 H   0  0  0  0  0  0
  -18.0350  -26.0067   22.9006 H   0  0  0  0  0  0
  -19.7961  -30.7249   24.2270 H   0  0  0  0  0  0
  -17.5043  -31.6276   24.5166 H   0  0  0  0  0  0
  -15.5361  -30.3000   23.7669 H   0  0  0  0  0  0
  -15.8661  -28.0838   22.7064 H   0  0  0  0  0  0
  -24.5947  -30.7010   25.7730 H   0  0  0  0  0  0
  -24.8921  -32.2836   26.4837 H   0  0  0  0  0  0
  -25.8087  -30.8870   27.0175 H   0  0  0  0  0  0
  -26.2929  -29.6699   24.1233 H   0  0  0  0  0  0
  -27.4143  -29.7275   25.4633 H   0  0  0  0  0  0
  -27.8772  -30.4260   23.9303 H   0  0  0  0  0  0
  -27.2686  -33.3632   26.1970 H   0  0  0  0  0  0
  -28.3916  -32.6797   25.0295 H   0  0  0  0  0  0
  -28.0690  -31.8444   26.5414 H   0  0  0  0  0  0
  -28.2579  -38.0110   24.7526 H   0  0  0  0  0  0
  -28.1089  -36.2631   24.6268 H   0  0  0  0  0  0
  -27.2294  -37.1402   25.8869 H   0  0  0  0  0  0
  -20.9397  -29.8740   21.6840 H   0  0  0  0  0  0
  -26.0169  -38.2827   24.1440 H   0  0  0  0  0  0
  -31.1823  -21.1314   19.4657 H   0  0  0  0  0  0
  -28.3537  -18.3074   21.0646 H   0  0  0  0  0  0
  -32.1468  -16.9706   19.4368 H   0  0  0  0  0  0
  -36.1297  -21.6830   19.5325 H   0  0  0  0  0  0
  -37.1452  -20.9234   18.1986 H   0  0  0  0  0  0
  -27.9221  -21.0191   21.2251 H   0  0  0  0  0  0
  -36.2332  -19.3302   16.6790 H   0  0  0  0  0  0
  -34.4850  -19.3335   16.4914 H   0  0  0  0  0  0
  -35.2649  -18.1696   17.5777 H   0  0  0  0  0  0
  -27.1859  -23.4393   20.6705 H   0  0  0  0  0  0
  -28.5614  -23.9005   21.6152 H   0  0  0  0  0  0
  -27.8806  -24.9088   18.7792 H   0  0  0  0  0  0
  -29.4816  -24.9622   19.3688 H   0  0  0  0  0  0
  -33.4409  -18.5774   18.2592 H   0  0  0  0  0  0
  -28.9197  -15.7544   20.8743 H   0  0  0  0  0  0
  1 25  1  0  0  0
  1 30  2  0  0  0
  1 86  1  0  0  0
  2  3  1  0  0  0
  2 25  1  0  0  0
  2 88  1  0  0  0
  2 89  1  0  0  0
  3  4  1  0  0  0
  3 90  1  0  0  0
  3 91  1  0  0  0
  4  5  1  0  0  0
  4 92  1  0  0  0
  4 93  1  0  0  0
  5  6  1  0  0  0
  5 26  1  0  0  0
  5 94  1  0  0  0
  6 25  1  0  0  0
  6 95  1  0  0  0
  6 96  1  0  0  0
  7  8  2  0  0  0
  7 26  1  0  0  0
  7 29  1  0  0  0
  8  9  1  0  0  0
  8 22  1  0  0  0
  9 10  1  0  0  0
  9 27  2  0  0  0
 10 11  2  0  0  0
 10 15  1  0  0  0
 11 12  1  0  0  0
 11 97  1  0  0  0
 12 13  2  0  0  0
 12 98  1  0  0  0
 13 14  1  0  0  0
 13 31  1  0  0  0
 14 15  2  0  0  0
 14 99  1  0  0  0
 15100  1  0  0  0
 16 17  2  0  0  0
 16 21  1  0  0  0
 16 31  1  0  0  0
 17 18  1  0  0  0
 17101  1  0  0  0
 18 19  2  0  0  0
 18102  1  0  0  0
 19 20  1  0  0  0
 19 24  1  0  0  0
 20 21  2  0  0  0
 20103  1  0  0  0
 21 23  1  0  0  0
 22 28  1  0  0  0
 22 32  2  0  0  0
 26 27  1  0  0  0
 28104  1  0  0  0
 28105  1  0  0  0
 29106  1  0  0  0
 29107  1  0  0  0
 33 34  1  0  0  0
 33 66  1  0  0  0
 33 70  2  0  0  0
 34 36  1  0  0  0
 34 59  1  0  0  0
 34108  1  0  0  0
 35 44  2  0  0  0
 35 45  1  0  0  0
 35 68  1  0  0  0
 36 56  1  0  0  0
 36109  1  0  0  0
 37 39  1  0  0  0
 37 47  1  0  0  0
 37 66  1  0  0  0
 37110  1  0  0  0
 38 43  2  0  0  0
 38 46  1  0  0  0
 38 47  1  0  0  0
 39 64  1  0  0  0
 39 67  2  0  0  0
 40 52  1  0  0  0
 40 53  2  0  0  0
 40 58  1  0  0  0
 41111  1  0  0  0
 41112  1  0  0  0
 41113  1  0  0  0
 41 48  1  0  0  0
 42 43  1  0  0  0
 42 66  1  0  0  0
 42114  1  0  0  0
 42115  1  0  0  0
 43 44  1  0  0  0
 44116  1  0  0  0
 45 46  2  0  0  0
 45117  1  0  0  0
 46118  1  0  0  0
 47119  1  0  0  0
 47120  1  0  0  0
 48 56  1  0  0  0
 48 65  1  0  0  0
 48121  1  0  0  0
 49 50  1  0  0  0
 49 53  1  0  0  0
 49 64  1  0  0  0
 49122  1  0  0  0
 50 51  1  0  0  0
 50123  1  0  0  0
 50124  1  0  0  0
 51 52  1  0  0  0
 51125  1  0  0  0
 51126  1  0  0  0
 52127  1  0  0  0
 52128  1  0  0  0
 53 54  1  0  0  0
 54 55  2  0  0  0
 54129  1  0  0  0
 55 57  1  0  0  0
 55130  1  0  0  0
 56 69  2  0  0  0
 57 58  2  0  0  0
 57131  1  0  0  0
 58132  1  0  0  0
 59 60  1  0  0  0
 59 61  1  0  0  0
 59 62  1  0  0  0
 60133  1  0  0  0
 60134  1  0  0  0
 60135  1  0  0  0
 61136  1  0  0  0
 61137  1  0  0  0
 61138  1  0  0  0
 62139  1  0  0  0
 62140  1  0  0  0
 62141  1  0  0  0
 63 65  1  0  0  0
 63142  1  0  0  0
 63143  1  0  0  0
 63144  1  0  0  0
 64145  1  0  0  0
 65146  1  0  0  0
 68 83  1  0  0  0
 71 74  2  0  0  0
 71 75  1  0  0  0
 71147  1  0  0  0
 72 74  1  0  0  0
 72 76  2  0  0  0
 72148  1  0  0  0
 73 75  2  0  0  0
 73 76  1  0  0  0
 73149  1  0  0  0
 74 78  1  0  0  0
 75 85  1  0  0  0
 76 86  1  0  0  0
 77 79  2  0  0  0
 77150  1  0  0  0
 77151  1  0  0  0
 78 84  2  0  0  0
 78152  1  0  0  0
 79 80  1  0  0  0
 79 81  1  0  0  0
 80 85  1  0  0  0
 80 87  2  0  0  0
 81153  1  0  0  0
 81154  1  0  0  0
 81155  1  0  0  0
 82 83  1  0  0  0
 82 84  1  0  0  0
 82156  1  0  0  0
 82157  1  0  0  0
 83158  1  0  0  0
 83159  1  0  0  0
 85160  1  0  0  0
 86161  1  0  0  0
M  ISO  4   1 100  68 101  83 101  86 100
M  END
> <chiral flag>
0

> <version>
0

> <s_m_source_file>
/data/baiqing/PycharmProjects/Reinvent-master-3.2/result/LINK_invent/BTK/process_docking_weight1_custom_product_contain_oxygen_bond_distance_aromatic_linkinvent_7_9_3/rearranged_h_0075.sdf

> <i_m_source_file_index>
19

> <r_mmod_Potential_Energy-OPLS-2005>
185.095764160156

> <r_mmod_Stretch_Energy-OPLS-2005>
139.264938354492

> <r_mmod_Bend_Energy-OPLS-2005>
186.899063110352

> <r_mmod_Torsional_Energy-OPLS-2005>
240.507431030273

> <r_mmod_Improper_Torsional_Energy-OPLS-2005>
4.59533357620239

> <r_mmod_Van_der_Waal_Energy-OPLS-2005>
158.393997192383

> <r_mmod_Electrostatic_Energy-OPLS-2005>
-390.319549560547

> <r_mmod_Solvation_Energy-OPLS-2005>
-243.346145629883

> <b_mmod_Minimization_Converged-OPLS-2005>
0

> <r_mmod_RMS_Derivative-OPLS-2005>
1.64215004444122

$$$$
19
                    3D
 Structure written by MMmdl.
155164  0  0  1  0            999 V2000
  -30.5909  -14.7107   20.4727 C   0  0  0  0  0  0
  -30.4451  -12.4344   19.4556 C   0  0  0  0  0  0
  -29.5115  -12.5190   18.2267 C   0  0  0  0  0  0
  -28.0365  -12.3407   18.6421 C   0  0  0  0  0  0
  -27.6493  -13.2207   19.8597 C   0  0  2  0  0  0
  -28.6979  -13.1084   20.9895 C   0  0  0  0  0  0
  -25.2525  -13.8148   20.5697 C   0  0  0  0  0  0
  -24.1796  -13.0405   20.9169 C   0  0  0  0  0  0
  -24.6377  -11.6891   20.8719 C   0  0  0  0  0  0
  -23.9049  -10.4279   21.0389 C   0  0  0  0  0  0
  -24.3598   -9.4203   21.9179 C   0  0  0  0  0  0
  -23.6269   -8.2243   22.0762 C   0  0  0  0  0  0
  -22.4253   -8.0276   21.3547 C   0  0  0  0  0  0
  -21.9879   -9.0247   20.4649 C   0  0  0  0  0  0
  -22.7217  -10.2119   20.3045 C   0  0  0  0  0  0
  -21.6857   -6.0717   22.5269 C   0  0  0  0  0  0
  -21.4021   -6.5622   23.8202 C   0  0  0  0  0  0
  -21.3655   -5.6783   24.9168 C   0  0  0  0  0  0
  -21.6040   -4.3044   24.7227 C   0  0  0  0  0  0
  -21.8821   -3.8128   23.4349 C   0  0  0  0  0  0
  -21.9194   -4.6942   22.3397 C   0  0  0  0  0  0
  -22.7822  -13.5215   21.1833 C   0  0  0  0  0  0
  -22.1663   -4.2123   21.0977 F   0  0  0  0  0  0
  -21.5623   -3.4534   25.7739 F   0  0  0  0  0  0
  -30.0071  -13.4670   20.4183 N   0  0  0  0  0  0
  -26.2973  -12.9350   20.3321 N   0  0  0  0  0  0
  -25.9315  -11.6498   20.5741 N   0  0  0  0  0  0
  -22.0452  -12.8237   22.0399 N   0  0  0  0  0  0
  -25.4153  -15.1870   20.4169 N   0  0  0  0  0  0
  -31.7664  -14.8772   20.1337 O   0  0  0  0  0  0
  -21.6633   -6.8861   21.4234 O   0  0  0  0  0  0
  -22.3515  -14.5531   20.6681 O   0  0  0  0  0  0
  -24.6290  -31.8560   23.1999 C   0  0  0  0  0  0
  -25.9129  -32.4753   23.8338 C   0  0  1  0  0  0
  -27.2308  -27.2907   20.1294 C   0  0  0  0  0  0
  -25.5936  -33.8551   24.2272 N   0  0  0  0  0  0
  -23.4242  -30.4771   21.5431 C   0  0  2  0  0  0
  -24.8742  -28.9239   20.1137 C   0  0  0  0  0  0
  -22.7487  -29.4596   22.4934 C   0  0  0  0  0  0
  -18.0287  -28.1374   22.8477 C   0  0  0  0  0  0
  -24.1490  -36.7279   23.2639 C   0  0  0  0  0  0
  -25.9674  -30.7776   21.3756 C   0  0  0  0  0  0
  -26.0435  -29.4016   20.7194 C   0  0  0  0  0  0
  -27.2263  -28.5987   20.7133 C   0  0  0  0  0  0
  -26.0413  -26.8718   19.4952 C   0  0  0  0  0  0
  -24.8759  -27.6642   19.4923 C   0  0  0  0  0  0
  -23.6418  -29.8070   20.1602 C   0  0  0  0  0  0
  -25.4112  -36.3063   24.0328 C   0  0  1  0  0  0
  -20.5890  -28.3678   23.1270 C   0  0  2  0  0  0
  -20.6781  -26.9400   22.5400 C   0  0  0  0  0  0
  -19.5759  -26.6372   21.5200 C   0  0  0  0  0  0
  -18.1935  -26.7916   22.1608 C   0  0  0  0  0  0
  -19.1540  -28.8846   23.2864 C   0  0  0  0  0  0
  -18.9466  -30.1449   23.8876 C   0  0  0  0  0  0
  -17.6464  -30.6576   24.0554 C   0  0  0  0  0  0
  -25.9051  -34.9432   23.5102 C   0  0  0  0  0  0
  -16.5356  -29.9068   23.6331 C   0  0  0  0  0  0
  -16.7274  -28.6488   23.0350 C   0  0  0  0  0  0
  -26.4510  -31.6559   25.0711 C   0  0  0  0  0  0
  -25.3744  -31.3700   26.1444 C   0  0  0  0  0  0
  -27.0352  -30.2974   24.6185 C   0  0  0  0  0  0
  -27.6069  -32.4290   25.7486 C   0  0  0  0  0  0
  -27.5578  -37.1788   24.8462 C   0  0  0  0  0  0
  -21.4199  -29.3029   22.3669 N   0  0  0  0  0  0
  -26.4289  -37.3762   23.9408 N   0  0  0  0  0  0
  -24.6923  -31.0545   22.0960 N   0  0  0  0  0  0
  -23.4195  -28.8141   23.3034 O   0  0  0  0  0  0
  -28.3424  -26.4251   20.1461 O   0  0  0  0  0  0
  -26.5618  -34.8907   22.4666 O   0  0  0  0  0  0
  -23.5447  -32.1379   23.7303 O   0  0  0  0  0  0
  -30.6957  -19.5309   20.6090 C   0  0  0  0  0  0
  -30.8518  -18.1030   20.7103 C   0  0  0  0  0  0
  -28.3921  -19.2845   20.1609 C   0  0  0  0  0  0
  -29.4638  -20.2102   20.3284 C   0  0  0  0  0  0
  -29.7514  -17.2188   20.5507 C   0  0  0  0  0  0
  -28.5201  -17.8651   20.2757 C   0  0  0  0  0  0
  -29.8482  -22.8614   20.7555 C   0  0  0  0  0  0
  -28.1076  -22.3673   19.7450 C   0  0  0  0  0  0
  -28.8605  -23.7528   19.8712 C   0  0  2  0  0  0
  -29.6023  -24.2646   18.6312 C   0  0  0  0  0  0
  -28.1424  -25.0062   20.5875 C   0  0  0  0  0  0
  -29.3243  -21.6830   20.1972 N   0  0  0  0  0  0
  -29.7304  -15.7535   20.7334 N   0  0  0  0  0  0
  -30.6921  -23.0383   21.6091 O   0  0  0  0  0  0
  -27.4176  -17.0955   20.1156 F   0  0  0  0  0  0
  -31.4846  -12.5693   19.1519 H   0  0  0  0  0  0
  -30.3905  -11.4441   19.9112 H   0  0  0  0  0  0
  -29.7850  -11.7652   17.4873 H   0  0  0  0  0  0
  -29.6383  -13.4860   17.7376 H   0  0  0  0  0  0
  -27.8890  -11.2885   18.8902 H   0  0  0  0  0  0
  -27.3781  -12.5502   17.7986 H   0  0  0  0  0  0
  -27.6522  -14.2495   19.4986 H   0  0  0  0  0  0
  -28.7256  -12.0942   21.3908 H   0  0  0  0  0  0
  -28.4351  -13.7532   21.8300 H   0  0  0  0  0  0
  -25.2728   -9.5688   22.4771 H   0  0  0  0  0  0
  -23.9967   -7.4640   22.7493 H   0  0  0  0  0  0
  -21.0804   -8.8760   19.8967 H   0  0  0  0  0  0
  -22.3662  -10.9654   19.6155 H   0  0  0  0  0  0
  -21.2026   -7.6133   23.9689 H   0  0  0  0  0  0
  -21.1471   -6.0521   25.9067 H   0  0  0  0  0  0
  -22.0606   -2.7589   23.2860 H   0  0  0  0  0  0
  -22.4029  -11.9890   22.4804 H   0  0  0  0  0  0
  -21.1081  -13.1306   22.2589 H   0  0  0  0  0  0
  -24.6466  -15.8336   20.5477 H   0  0  0  0  0  0
  -26.2722  -15.6623   20.1512 H   0  0  0  0  0  0
  -26.7190  -32.5414   23.1075 H   0  0  0  0  0  0
  -25.0105  -33.9689   25.0430 H   0  0  0  0  0  0
  -22.7185  -31.2973   21.3971 H   0  0  0  0  0  0
  -23.3751  -35.9614   23.3298 H   0  0  0  0  0  0
  -24.3596  -36.8904   22.2057 H   0  0  0  0  0  0
  -23.7252  -37.6481   23.6669 H   0  0  0  0  0  0
  -26.1034  -31.5400   20.6070 H   0  0  0  0  0  0
  -26.8456  -30.8269   22.0073 H   0  0  0  0  0  0
  -28.1243  -28.9619   21.1927 H   0  0  0  0  0  0
  -26.0038  -25.9099   19.0031 H   0  0  0  0  0  0
  -23.9813  -27.2931   19.0118 H   0  0  0  0  0  0
  -23.7606  -30.5816   19.4019 H   0  0  0  0  0  0
  -22.7612  -29.2366   19.8595 H   0  0  0  0  0  0
  -25.1291  -36.1913   25.0822 H   0  0  0  0  0  0
  -20.9972  -28.3258   24.1395 H   0  0  0  0  0  0
  -20.5677  -26.2283   23.3597 H   0  0  0  0  0  0
  -21.6651  -26.7431   22.1197 H   0  0  0  0  0  0
  -19.6922  -25.6282   21.1233 H   0  0  0  0  0  0
  -19.6697  -27.3175   20.6724 H   0  0  0  0  0  0
  -17.4205  -26.6661   21.4011 H   0  0  0  0  0  0
  -18.0335  -26.0054   22.8999 H   0  0  0  0  0  0
  -19.7948  -30.7276   24.2222 H   0  0  0  0  0  0
  -17.5023  -31.6259   24.5154 H   0  0  0  0  0  0
  -15.5356  -30.2967   23.7665 H   0  0  0  0  0  0
  -15.8672  -28.0802   22.7075 H   0  0  0  0  0  0
  -24.5907  -30.7062   25.7775 H   0  0  0  0  0  0
  -24.8952  -32.2866   26.4888 H   0  0  0  0  0  0
  -25.8071  -30.8858   27.0205 H   0  0  0  0  0  0
  -26.2919  -29.6706   24.1241 H   0  0  0  0  0  0
  -27.4076  -29.7253   25.4693 H   0  0  0  0  0  0
  -27.8785  -30.4250   23.9391 H   0  0  0  0  0  0
  -27.2689  -33.3595   26.2060 H   0  0  0  0  0  0
  -28.3887  -32.6834   25.0313 H   0  0  0  0  0  0
  -28.0731  -31.8411   26.5407 H   0  0  0  0  0  0
  -28.2580  -38.0095   24.7518 H   0  0  0  0  0  0
  -28.1085  -36.2629   24.6270 H   0  0  0  0  0  0
  -27.2300  -37.1416   25.8863 H   0  0  0  0  0  0
  -20.9379  -29.8737   21.6861 H   0  0  0  0  0  0
  -26.0166  -38.2836   24.1402 H   0  0  0  0  0  0
  -31.5815  -20.1344   20.7501 H   0  0  0  0  0  0
  -31.8280  -17.6992   20.9382 H   0  0  0  0  0  0
  -27.4054  -19.6676   19.9489 H   0  0  0  0  0  0
  -27.8104  -22.1103   18.7264 H   0  0  0  0  0  0
  -27.2745  -22.2529   20.4419 H   0  0  0  0  0  0
  -30.1171  -23.4633   18.0992 H   0  0  0  0  0  0
  -30.3552  -25.0069   18.8995 H   0  0  0  0  0  0
  -28.9177  -24.7346   17.9253 H   0  0  0  0  0  0
  -28.4392  -25.0090   21.6368 H   0  0  0  0  0  0
  -27.0772  -24.7879   20.6406 H   0  0  0  0  0  0
  -28.7991  -15.4127   20.9162 H   0  0  0  0  0  0
  1 25  1  0  0  0
  1 30  2  0  0  0
  1 83  1  0  0  0
  2  3  1  0  0  0
  2 25  1  0  0  0
  2 86  1  0  0  0
  2 87  1  0  0  0
  3  4  1  0  0  0
  3 88  1  0  0  0
  3 89  1  0  0  0
  4  5  1  0  0  0
  4 90  1  0  0  0
  4 91  1  0  0  0
  5  6  1  0  0  0
  5 26  1  0  0  0
  5 92  1  0  0  0
  6 25  1  0  0  0
  6 93  1  0  0  0
  6 94  1  0  0  0
  7  8  2  0  0  0
  7 26  1  0  0  0
  7 29  1  0  0  0
  8  9  1  0  0  0
  8 22  1  0  0  0
  9 10  1  0  0  0
  9 27  2  0  0  0
 10 11  2  0  0  0
 10 15  1  0  0  0
 11 12  1  0  0  0
 11 95  1  0  0  0
 12 13  2  0  0  0
 12 96  1  0  0  0
 13 14  1  0  0  0
 13 31  1  0  0  0
 14 15  2  0  0  0
 14 97  1  0  0  0
 15 98  1  0  0  0
 16 17  2  0  0  0
 16 21  1  0  0  0
 16 31  1  0  0  0
 17 18  1  0  0  0
 17 99  1  0  0  0
 18 19  2  0  0  0
 18100  1  0  0  0
 19 20  1  0  0  0
 19 24  1  0  0  0
 20 21  2  0  0  0
 20101  1  0  0  0
 21 23  1  0  0  0
 22 28  1  0  0  0
 22 32  2  0  0  0
 26 27  1  0  0  0
 28102  1  0  0  0
 28103  1  0  0  0
 29104  1  0  0  0
 29105  1  0  0  0
 33 34  1  0  0  0
 33 66  1  0  0  0
 33 70  2  0  0  0
 34 36  1  0  0  0
 34 59  1  0  0  0
 34106  1  0  0  0
 35 44  2  0  0  0
 35 45  1  0  0  0
 35 68  1  0  0  0
 36 56  1  0  0  0
 36107  1  0  0  0
 37 39  1  0  0  0
 37 47  1  0  0  0
 37 66  1  0  0  0
 37108  1  0  0  0
 38 43  2  0  0  0
 38 46  1  0  0  0
 38 47  1  0  0  0
 39 64  1  0  0  0
 39 67  2  0  0  0
 40 52  1  0  0  0
 40 53  2  0  0  0
 40 58  1  0  0  0
 41109  1  0  0  0
 41110  1  0  0  0
 41111  1  0  0  0
 41 48  1  0  0  0
 42 43  1  0  0  0
 42 66  1  0  0  0
 42112  1  0  0  0
 42113  1  0  0  0
 43 44  1  0  0  0
 44114  1  0  0  0
 45 46  2  0  0  0
 45115  1  0  0  0
 46116  1  0  0  0
 47117  1  0  0  0
 47118  1  0  0  0
 48 56  1  0  0  0
 48 65  1  0  0  0
 48119  1  0  0  0
 49 50  1  0  0  0
 49 53  1  0  0  0
 49 64  1  0  0  0
 49120  1  0  0  0
 50 51  1  0  0  0
 50121  1  0  0  0
 50122  1  0  0  0
 51 52  1  0  0  0
 51123  1  0  0  0
 51124  1  0  0  0
 52125  1  0  0  0
 52126  1  0  0  0
 53 54  1  0  0  0
 54 55  2  0  0  0
 54127  1  0  0  0
 55 57  1  0  0  0
 55128  1  0  0  0
 56 69  2  0  0  0
 57 58  2  0  0  0
 57129  1  0  0  0
 58130  1  0  0  0
 59 60  1  0  0  0
 59 61  1  0  0  0
 59 62  1  0  0  0
 60131  1  0  0  0
 60132  1  0  0  0
 60133  1  0  0  0
 61134  1  0  0  0
 61135  1  0  0  0
 61136  1  0  0  0
 62137  1  0  0  0
 62138  1  0  0  0
 62139  1  0  0  0
 63 65  1  0  0  0
 63140  1  0  0  0
 63141  1  0  0  0
 63142  1  0  0  0
 64143  1  0  0  0
 65144  1  0  0  0
 68 81  1  0  0  0
 71 72  2  0  0  0
 71 74  1  0  0  0
 71145  1  0  0  0
 72 75  1  0  0  0
 72146  1  0  0  0
 73 74  2  0  0  0
 73 76  1  0  0  0
 73147  1  0  0  0
 74 82  1  0  0  0
 75 76  2  0  0  0
 75 83  1  0  0  0
 76 85  1  0  0  0
 77 79  1  0  0  0
 77 82  1  0  0  0
 77 84  2  0  0  0
 78 79  1  0  0  0
 78 82  1  0  0  0
 78148  1  0  0  0
 78149  1  0  0  0
 79 80  1  0  0  0
 79 81  1  0  0  0
 80150  1  0  0  0
 80151  1  0  0  0
 80152  1  0  0  0
 81153  1  0  0  0
 81154  1  0  0  0
 83155  1  0  0  0
M  ISO  4   1 100  68 101  81 101  83 100
M  END
> <chiral flag>
0

> <version>
0

> <s_m_source_file>
/data/baiqing/PycharmProjects/Reinvent-master-3.2/result/LINK_invent/BTK/process_docking_weight1_custom_product_contain_oxygen_bond_distance_aromatic_linkinvent_7_9_3/rearranged_h_0075.sdf

> <i_m_source_file_index>
20

> <r_mmod_Potential_Energy-OPLS-2005>
120.802749633789

> <r_mmod_Stretch_Energy-OPLS-2005>
99.6768341064453

> <r_mmod_Bend_Energy-OPLS-2005>
192.862182617188

> <r_mmod_Torsional_Energy-OPLS-2005>
258.104095458984

> <r_mmod_Improper_Torsional_Energy-OPLS-2005>
6.39841747283936

> <r_mmod_Van_der_Waal_Energy-OPLS-2005>
135.771606445312

> <r_mmod_Electrostatic_Energy-OPLS-2005>
-429.361297607422

> <r_mmod_Solvation_Energy-OPLS-2005>
-210.990020751953

> <b_mmod_Minimization_Converged-OPLS-2005>
0

> <r_mmod_RMS_Derivative-OPLS-2005>
1.42840397357941

$$$$
20
                    3D
 Structure written by MMmdl.
160169  0  0  1  0            999 V2000
  -30.7141  -14.5075   20.5442 C   0  0  0  0  0  0
  -30.4135  -12.3245   19.4299 C   0  0  0  0  0  0
  -29.4909  -12.4980   18.2077 C   0  0  0  0  0  0
  -28.0138  -12.3573   18.6228 C   0  0  0  0  0  0
  -27.6543  -13.2158   19.8663 C   0  0  2  0  0  0
  -28.6995  -13.0457   20.9917 C   0  0  0  0  0  0
  -25.2556  -13.8179   20.5681 C   0  0  0  0  0  0
  -24.1823  -13.0443   20.9181 C   0  0  0  0  0  0
  -24.6391  -11.6912   20.8742 C   0  0  0  0  0  0
  -23.9066  -10.4290   21.0405 C   0  0  0  0  0  0
  -24.3617   -9.4204   21.9184 C   0  0  0  0  0  0
  -23.6287   -8.2243   22.0757 C   0  0  0  0  0  0
  -22.4269   -8.0279   21.3546 C   0  0  0  0  0  0
  -21.9907   -9.0256   20.4651 C   0  0  0  0  0  0
  -22.7238  -10.2133   20.3056 C   0  0  0  0  0  0
  -21.6857   -6.0733   22.5276 C   0  0  0  0  0  0
  -21.4017   -6.5638   23.8207 C   0  0  0  0  0  0
  -21.3658   -5.6792   24.9172 C   0  0  0  0  0  0
  -21.6045   -4.3055   24.7224 C   0  0  0  0  0  0
  -21.8821   -3.8144   23.4345 C   0  0  0  0  0  0
  -21.9191   -4.6960   22.3400 C   0  0  0  0  0  0
  -22.7843  -13.5232   21.1839 C   0  0  0  0  0  0
  -22.1660   -4.2143   21.0979 F   0  0  0  0  0  0
  -21.5627   -3.4541   25.7739 F   0  0  0  0  0  0
  -30.0217  -13.3403   20.4217 N   0  0  0  0  0  0
  -26.2993  -12.9368   20.3346 N   0  0  0  0  0  0
  -25.9318  -11.6520   20.5772 N   0  0  0  0  0  0
  -22.0492  -12.8226   22.0403 N   0  0  0  0  0  0
  -25.4262  -15.1898   20.4083 N   0  0  0  0  0  0
  -31.8632  -14.6267   20.1114 O   0  0  0  0  0  0
  -21.6638   -6.8871   21.4236 O   0  0  0  0  0  0
  -22.3527  -14.5538   20.6685 O   0  0  0  0  0  0
  -24.6200  -31.8646   23.2088 C   0  0  0  0  0  0
  -25.9077  -32.4806   23.8383 C   0  0  1  0  0  0
  -27.2206  -27.3879   20.0940 C   0  0  0  0  0  0
  -25.5916  -33.8605   24.2314 N   0  0  0  0  0  0
  -23.4082  -30.4918   21.5502 C   0  0  2  0  0  0
  -24.8498  -28.9585   20.1108 C   0  0  0  0  0  0
  -22.7432  -29.4653   22.4963 C   0  0  0  0  0  0
  -18.0277  -28.1386   22.8481 C   0  0  0  0  0  0
  -24.1491  -36.7307   23.2641 C   0  0  0  0  0  0
  -25.9439  -30.8169   21.3681 C   0  0  0  0  0  0
  -26.0166  -29.4506   20.7096 C   0  0  0  0  0  0
  -27.2046  -28.6750   20.6946 C   0  0  0  0  0  0
  -26.0290  -26.9296   19.4824 C   0  0  0  0  0  0
  -24.8538  -27.6997   19.4925 C   0  0  0  0  0  0
  -23.6164  -29.8311   20.1628 C   0  0  0  0  0  0
  -25.4112  -36.3103   24.0340 C   0  0  1  0  0  0
  -20.5868  -28.3672   23.1303 C   0  0  2  0  0  0
  -20.6767  -26.9405   22.5413 C   0  0  0  0  0  0
  -19.5746  -26.6385   21.5212 C   0  0  0  0  0  0
  -18.1921  -26.7925   22.1622 C   0  0  0  0  0  0
  -19.1528  -28.8843   23.2884 C   0  0  0  0  0  0
  -18.9454  -30.1441   23.8907 C   0  0  0  0  0  0
  -17.6459  -30.6585   24.0563 C   0  0  0  0  0  0
  -25.9046  -34.9469   23.5123 C   0  0  0  0  0  0
  -16.5346  -29.9087   23.6333 C   0  0  0  0  0  0
  -16.7262  -28.6510   23.0346 C   0  0  0  0  0  0
  -26.4482  -31.6594   25.0728 C   0  0  0  0  0  0
  -25.3739  -31.3714   26.1471 C   0  0  0  0  0  0
  -27.0309  -30.3028   24.6125 C   0  0  0  0  0  0
  -27.6054  -32.4313   25.7494 C   0  0  0  0  0  0
  -27.5579  -37.1808   24.8466 C   0  0  0  0  0  0
  -21.4154  -29.3039   22.3710 N   0  0  0  0  0  0
  -26.4294  -37.3790   23.9411 N   0  0  0  0  0  0
  -24.6763  -31.0723   22.1001 N   0  0  0  0  0  0
  -23.4192  -28.8186   23.3008 O   0  0  0  0  0  0
  -28.3684  -26.6028   20.1254 O   0  0  0  0  0  0
  -26.5606  -34.8921   22.4682 O   0  0  0  0  0  0
  -23.5379  -32.1407   23.7459 O   0  0  0  0  0  0
  -31.6925  -19.4271   21.8422 C   0  0  0  0  0  0
  -31.8110  -16.9991   21.9190 C   0  0  0  0  0  0
  -29.8919  -18.1010   20.8888 C   0  0  0  0  0  0
  -32.3836  -18.2529   22.1999 C   0  0  0  0  0  0
  -30.4514  -19.3950   21.1539 C   0  0  0  0  0  0
  -30.5736  -16.8980   21.2486 C   0  0  0  0  0  0
  -29.2686  -22.8636   20.3719 C   0  0  0  0  0  0
  -30.3202  -21.8917   20.6786 C   0  0  0  0  0  0
  -33.7059  -18.3464   22.9032 C   0  0  0  0  0  0
  -29.4213  -24.2602   20.2986 C   0  0  0  0  0  0
  -27.9832  -22.1101   20.1407 C   0  0  0  0  0  0
  -28.3702  -20.6395   20.3634 C   0  0  0  0  0  0
  -28.1982  -25.1629   19.9427 C   0  0  0  0  0  0
  -29.7797  -20.6358   20.7636 N   0  0  0  0  0  0
  -34.6055  -17.4269   22.5789 N   0  0  0  0  0  0
  -30.0251  -15.5918   20.9827 N   0  0  0  0  0  0
  -30.4287  -24.9876   20.4763 O   0  5  0  0  0  0
  -31.5161  -22.1634   20.7916 O   0  0  0  0  0  0
  -33.9607  -19.2596   23.6865 O   0  0  0  0  0  0
  -31.4589  -12.4078   19.1285 H   0  0  0  0  0  0
  -30.3069  -11.3249   19.8537 H   0  0  0  0  0  0
  -29.7350  -11.7603   17.4425 H   0  0  0  0  0  0
  -29.6549  -13.4766   17.7541 H   0  0  0  0  0  0
  -27.8305  -11.3033   18.8347 H   0  0  0  0  0  0
  -27.3618  -12.6151   17.7870 H   0  0  0  0  0  0
  -27.6835  -14.2565   19.5431 H   0  0  0  0  0  0
  -28.6829  -12.0264   21.3794 H   0  0  0  0  0  0
  -28.4660  -13.6899   21.8407 H   0  0  0  0  0  0
  -25.2766   -9.5682   22.4753 H   0  0  0  0  0  0
  -23.9998   -7.4638   22.7480 H   0  0  0  0  0  0
  -21.0836   -8.8773   19.8958 H   0  0  0  0  0  0
  -22.3695  -10.9670   19.6161 H   0  0  0  0  0  0
  -21.2014   -7.6148   23.9709 H   0  0  0  0  0  0
  -21.1479   -6.0525   25.9073 H   0  0  0  0  0  0
  -22.0601   -2.7606   23.2849 H   0  0  0  0  0  0
  -22.4113  -11.9887   22.4788 H   0  0  0  0  0  0
  -21.1113  -13.1254   22.2620 H   0  0  0  0  0  0
  -24.6591  -15.8443   20.5155 H   0  0  0  0  0  0
  -26.2748  -15.6293   20.0755 H   0  0  0  0  0  0
  -26.7142  -32.5503   23.1136 H   0  0  0  0  0  0
  -25.0080  -33.9759   25.0467 H   0  0  0  0  0  0
  -22.6997  -31.3114   21.4133 H   0  0  0  0  0  0
  -23.3748  -35.9645   23.3321 H   0  0  0  0  0  0
  -24.3580  -36.8908   22.2050 H   0  0  0  0  0  0
  -23.7253  -37.6523   23.6636 H   0  0  0  0  0  0
  -26.0654  -31.5828   20.6012 H   0  0  0  0  0  0
  -26.8296  -30.8648   21.9901 H   0  0  0  0  0  0
  -28.1027  -29.0484   21.1661 H   0  0  0  0  0  0
  -25.9757  -25.9689   18.9922 H   0  0  0  0  0  0
  -23.9585  -27.3174   19.0221 H   0  0  0  0  0  0
  -23.7299  -30.6088   19.4068 H   0  0  0  0  0  0
  -22.7371  -29.2576   19.8630 H   0  0  0  0  0  0
  -25.1290  -36.1965   25.0832 H   0  0  0  0  0  0
  -20.9950  -28.3233   24.1425 H   0  0  0  0  0  0
  -20.5677  -26.2274   23.3596 H   0  0  0  0  0  0
  -21.6632  -26.7445   22.1198 H   0  0  0  0  0  0
  -19.6916  -25.6300   21.1228 H   0  0  0  0  0  0
  -19.6697  -27.3205   20.6751 H   0  0  0  0  0  0
  -17.4192  -26.6667   21.4024 H   0  0  0  0  0  0
  -18.0325  -26.0072   22.9026 H   0  0  0  0  0  0
  -19.7934  -30.7248   24.2279 H   0  0  0  0  0  0
  -17.5022  -31.6269   24.5156 H   0  0  0  0  0  0
  -15.5350  -30.2999   23.7654 H   0  0  0  0  0  0
  -15.8659  -28.0834   22.7059 H   0  0  0  0  0  0
  -24.5912  -30.7064   25.7809 H   0  0  0  0  0  0
  -24.8933  -32.2875   26.4906 H   0  0  0  0  0  0
  -25.8086  -30.8887   27.0232 H   0  0  0  0  0  0
  -26.2854  -29.6799   24.1167 H   0  0  0  0  0  0
  -27.4061  -29.7259   25.4591 H   0  0  0  0  0  0
  -27.8702  -30.4348   23.9293 H   0  0  0  0  0  0
  -27.2670  -33.3604   26.2087 H   0  0  0  0  0  0
  -28.3852  -32.6885   25.0316 H   0  0  0  0  0  0
  -28.0728  -31.8429   26.5399 H   0  0  0  0  0  0
  -28.2603  -38.0096   24.7492 H   0  0  0  0  0  0
  -28.1067  -36.2628   24.6313 H   0  0  0  0  0  0
  -27.2290  -37.1481   25.8867 H   0  0  0  0  0  0
  -20.9312  -29.8779   21.6945 H   0  0  0  0  0  0
  -26.0185  -38.2871   24.1402 H   0  0  0  0  0  0
  -32.1563  -20.3605   22.1208 H   0  0  0  0  0  0
  -32.3306  -16.1047   22.2314 H   0  0  0  0  0  0
  -28.9403  -18.0201   20.3830 H   0  0  0  0  0  0
  -27.6111  -22.2774   19.1282 H   0  0  0  0  0  0
  -27.2178  -22.4284   20.8503 H   0  0  0  0  0  0
  -28.2474  -20.0663   19.4424 H   0  0  0  0  0  0
  -27.7503  -20.1785   21.1344 H   0  0  0  0  0  0
  -27.3478  -24.8395   20.5458 H   0  0  0  0  0  0
  -27.9361  -24.9765   18.8995 H   0  0  0  0  0  0
  -34.3792  -16.7230   21.8921 H   0  0  0  0  0  0
  -35.5262  -17.4441   22.9915 H   0  0  0  0  0  0
  -29.0333  -15.4685   21.1183 H   0  0  0  0  0  0
  1 25  1  0  0  0
  1 30  2  0  0  0
  1 86  1  0  0  0
  2  3  1  0  0  0
  2 25  1  0  0  0
  2 90  1  0  0  0
  2 91  1  0  0  0
  3  4  1  0  0  0
  3 92  1  0  0  0
  3 93  1  0  0  0
  4  5  1  0  0  0
  4 94  1  0  0  0
  4 95  1  0  0  0
  5  6  1  0  0  0
  5 26  1  0  0  0
  5 96  1  0  0  0
  6 25  1  0  0  0
  6 97  1  0  0  0
  6 98  1  0  0  0
  7  8  2  0  0  0
  7 26  1  0  0  0
  7 29  1  0  0  0
  8  9  1  0  0  0
  8 22  1  0  0  0
  9 10  1  0  0  0
  9 27  2  0  0  0
 10 11  2  0  0  0
 10 15  1  0  0  0
 11 12  1  0  0  0
 11 99  1  0  0  0
 12 13  2  0  0  0
 12100  1  0  0  0
 13 14  1  0  0  0
 13 31  1  0  0  0
 14 15  2  0  0  0
 14101  1  0  0  0
 15102  1  0  0  0
 16 17  2  0  0  0
 16 21  1  0  0  0
 16 31  1  0  0  0
 17 18  1  0  0  0
 17103  1  0  0  0
 18 19  2  0  0  0
 18104  1  0  0  0
 19 20  1  0  0  0
 19 24  1  0  0  0
 20 21  2  0  0  0
 20105  1  0  0  0
 21 23  1  0  0  0
 22 28  1  0  0  0
 22 32  2  0  0  0
 26 27  1  0  0  0
 28106  1  0  0  0
 28107  1  0  0  0
 29108  1  0  0  0
 29109  1  0  0  0
 33 34  1  0  0  0
 33 66  1  0  0  0
 33 70  2  0  0  0
 34 36  1  0  0  0
 34 59  1  0  0  0
 34110  1  0  0  0
 35 44  2  0  0  0
 35 45  1  0  0  0
 35 68  1  0  0  0
 36 56  1  0  0  0
 36111  1  0  0  0
 37 39  1  0  0  0
 37 47  1  0  0  0
 37 66  1  0  0  0
 37112  1  0  0  0
 38 43  2  0  0  0
 38 46  1  0  0  0
 38 47  1  0  0  0
 39 64  1  0  0  0
 39 67  2  0  0  0
 40 52  1  0  0  0
 40 53  2  0  0  0
 40 58  1  0  0  0
 41113  1  0  0  0
 41114  1  0  0  0
 41115  1  0  0  0
 41 48  1  0  0  0
 42 43  1  0  0  0
 42 66  1  0  0  0
 42116  1  0  0  0
 42117  1  0  0  0
 43 44  1  0  0  0
 44118  1  0  0  0
 45 46  2  0  0  0
 45119  1  0  0  0
 46120  1  0  0  0
 47121  1  0  0  0
 47122  1  0  0  0
 48 56  1  0  0  0
 48 65  1  0  0  0
 48123  1  0  0  0
 49 50  1  0  0  0
 49 53  1  0  0  0
 49 64  1  0  0  0
 49124  1  0  0  0
 50 51  1  0  0  0
 50125  1  0  0  0
 50126  1  0  0  0
 51 52  1  0  0  0
 51127  1  0  0  0
 51128  1  0  0  0
 52129  1  0  0  0
 52130  1  0  0  0
 53 54  1  0  0  0
 54 55  2  0  0  0
 54131  1  0  0  0
 55 57  1  0  0  0
 55132  1  0  0  0
 56 69  2  0  0  0
 57 58  2  0  0  0
 57133  1  0  0  0
 58134  1  0  0  0
 59 60  1  0  0  0
 59 61  1  0  0  0
 59 62  1  0  0  0
 60135  1  0  0  0
 60136  1  0  0  0
 60137  1  0  0  0
 61138  1  0  0  0
 61139  1  0  0  0
 61140  1  0  0  0
 62141  1  0  0  0
 62142  1  0  0  0
 62143  1  0  0  0
 63 65  1  0  0  0
 63144  1  0  0  0
 63145  1  0  0  0
 63146  1  0  0  0
 64147  1  0  0  0
 65148  1  0  0  0
 68 83  1  0  0  0
 71 74  2  0  0  0
 71 75  1  0  0  0
 71149  1  0  0  0
 72 74  1  0  0  0
 72 76  2  0  0  0
 72150  1  0  0  0
 73 75  2  0  0  0
 73 76  1  0  0  0
 73151  1  0  0  0
 74 79  1  0  0  0
 75 84  1  0  0  0
 76 86  1  0  0  0
 77 78  1  0  0  0
 77 80  2  0  0  0
 77 81  1  0  0  0
 78 84  1  0  0  0
 78 88  2  0  0  0
 79 85  1  0  0  0
 79 89  2  0  0  0
 80 83  1  0  0  0
 80 87  1  0  0  0
 81 82  1  0  0  0
 81152  1  0  0  0
 81153  1  0  0  0
 82 84  1  0  0  0
 82154  1  0  0  0
 82155  1  0  0  0
 83156  1  0  0  0
 83157  1  0  0  0
 85158  1  0  0  0
 85159  1  0  0  0
 86160  1  0  0  0
M  CHG  1  87  -1
M  ISO  4   1 100  68 101  83 101  86 100
M  END
> <chiral flag>
0

> <version>
0

> <s_m_source_file>
/data/baiqing/PycharmProjects/Reinvent-master-3.2/result/LINK_invent/BTK/process_docking_weight1_custom_product_contain_oxygen_bond_distance_aromatic_linkinvent_7_9_3/rearranged_h_0075.sdf

> <i_m_source_file_index>
21

> <r_mmod_Potential_Energy-OPLS-2005>
-305.332458496094

> <r_mmod_Stretch_Energy-OPLS-2005>
57.7159805297852

> <r_mmod_Bend_Energy-OPLS-2005>
134.324645996094

> <r_mmod_Torsional_Energy-OPLS-2005>
268.755187988281

> <r_mmod_Improper_Torsional_Energy-OPLS-2005>
4.57800912857056

> <r_mmod_Van_der_Waal_Energy-OPLS-2005>
172.152618408203

> <r_mmod_Electrostatic_Energy-OPLS-2005>
-398.150665283203

> <r_mmod_Solvation_Energy-OPLS-2005>
-566.631408691406

> <b_mmod_Minimization_Converged-OPLS-2005>
0

> <r_mmod_RMS_Derivative-OPLS-2005>
1.3199211359024

$$$$
21
                    3D
 Structure written by MMmdl.
183193  0  0  1  0            999 V2000
  -30.8440  -14.3015   20.7224 C   0  0  0  0  0  0
  -30.4045  -12.2823   19.3781 C   0  0  0  0  0  0
  -29.4729  -12.5447   18.1843 C   0  0  0  0  0  0
  -28.0032  -12.3951   18.6069 C   0  0  0  0  0  0
  -27.6722  -13.2077   19.8864 C   0  0  2  0  0  0
  -28.7176  -12.9639   21.0007 C   0  0  0  0  0  0
  -25.2632  -13.8170   20.5683 C   0  0  0  0  0  0
  -24.1870  -13.0434   20.9176 C   0  0  0  0  0  0
  -24.6429  -11.6920   20.8717 C   0  0  0  0  0  0
  -23.9085  -10.4311   21.0372 C   0  0  0  0  0  0
  -24.3629   -9.4237   21.9161 C   0  0  0  0  0  0
  -23.6311   -8.2263   22.0755 C   0  0  0  0  0  0
  -22.4282   -8.0284   21.3553 C   0  0  0  0  0  0
  -21.9918   -9.0254   20.4648 C   0  0  0  0  0  0
  -22.7243  -10.2147   20.3045 C   0  0  0  0  0  0
  -21.6862   -6.0748   22.5289 C   0  0  0  0  0  0
  -21.4020   -6.5653   23.8223 C   0  0  0  0  0  0
  -21.3657   -5.6803   24.9177 C   0  0  0  0  0  0
  -21.6050   -4.3066   24.7227 C   0  0  0  0  0  0
  -21.8820   -3.8162   23.4343 C   0  0  0  0  0  0
  -21.9194   -4.6976   22.3401 C   0  0  0  0  0  0
  -22.7904  -13.5244   21.1814 C   0  0  0  0  0  0
  -22.1666   -4.2160   21.0977 F   0  0  0  0  0  0
  -21.5621   -3.4549   25.7742 F   0  0  0  0  0  0
  -30.0637  -13.2233   20.4557 N   0  0  0  0  0  0
  -26.3100  -12.9352   20.3452 N   0  0  0  0  0  0
  -25.9365  -11.6503   20.5782 N   0  0  0  0  0  0
  -22.0547  -12.8227   22.0367 N   0  0  0  0  0  0
  -25.4345  -15.1876   20.4145 N   0  0  0  0  0  0
  -31.7980  -14.6369   20.0146 O   0  0  0  0  0  0
  -21.6647   -6.8875   21.4249 O   0  0  0  0  0  0
  -22.3600  -14.5551   20.6680 O   0  0  0  0  0  0
  -24.6143  -31.8689   23.2151 C   0  0  0  0  0  0
  -25.9042  -32.4814   23.8440 C   0  0  1  0  0  0
  -27.2378  -27.4656   20.0917 C   0  0  0  0  0  0
  -25.5936  -33.8607   24.2409 N   0  0  0  0  0  0
  -23.3998  -30.4949   21.5555 C   0  0  2  0  0  0
  -24.8483  -28.9609   20.1205 C   0  0  0  0  0  0
  -22.7382  -29.4683   22.5050 C   0  0  0  0  0  0
  -18.0244  -28.1395   22.8431 C   0  0  0  0  0  0
  -24.1483  -36.7319   23.2638 C   0  0  0  0  0  0
  -25.9237  -30.8458   21.3598 C   0  0  0  0  0  0
  -26.0053  -29.4787   20.7173 C   0  0  0  0  0  0
  -27.2055  -28.7342   20.7089 C   0  0  0  0  0  0
  -26.0780  -26.9689   19.4683 C   0  0  0  0  0  0
  -24.8760  -27.7003   19.4978 C   0  0  0  0  0  0
  -23.6063  -29.8226   20.1717 C   0  0  0  0  0  0
  -25.4089  -36.3099   24.0358 C   0  0  1  0  0  0
  -20.5840  -28.3677   23.1305 C   0  0  2  0  0  0
  -20.6788  -26.9459   22.5297 C   0  0  0  0  0  0
  -19.5705  -26.6368   21.5177 C   0  0  0  0  0  0
  -18.1927  -26.7908   22.1675 C   0  0  0  0  0  0
  -19.1488  -28.8846   23.2864 C   0  0  0  0  0  0
  -18.9431  -30.1431   23.8909 C   0  0  0  0  0  0
  -17.6442  -30.6574   24.0586 C   0  0  0  0  0  0
  -25.9042  -34.9458   23.5165 C   0  0  0  0  0  0
  -16.5316  -29.9110   23.6307 C   0  0  0  0  0  0
  -16.7245  -28.6540   23.0295 C   0  0  0  0  0  0
  -26.4472  -31.6581   25.0745 C   0  0  0  0  0  0
  -25.3749  -31.3639   26.1503 C   0  0  0  0  0  0
  -27.0326  -30.3037   24.6084 C   0  0  0  0  0  0
  -27.6089  -32.4265   25.7488 C   0  0  0  0  0  0
  -27.5572  -37.1820   24.8461 C   0  0  0  0  0  0
  -21.4123  -29.3087   22.3776 N   0  0  0  0  0  0
  -26.4284  -37.3787   23.9422 N   0  0  0  0  0  0
  -24.6643  -31.0822   22.1030 N   0  0  0  0  0  0
  -23.4130  -28.8175   23.3067 O   0  0  0  0  0  0
  -28.3638  -26.6856   20.0597 O   0  0  0  0  0  0
  -26.5551  -34.8910   22.4688 O   0  0  0  0  0  0
  -23.5360  -32.1453   23.7566 O   0  0  0  0  0  0
  -33.1234  -17.6348   23.9282 C   0  0  0  0  0  0
  -30.9736  -17.1197   22.9015 C   0  0  0  0  0  0
  -32.7698  -15.4670   22.8684 C   0  0  0  0  0  0
  -31.8097  -18.0418   23.5787 C   0  0  0  0  0  0
  -33.6062  -16.3577   23.5702 C   0  0  0  0  0  0
  -31.4487  -15.8434   22.5338 C   0  0  0  0  0  0
  -28.8755  -24.2475   22.8867 C   0  0  0  0  0  0
  -28.9445  -21.8956   23.4035 C   0  0  0  0  0  0
  -27.2498  -24.2404   21.1601 C   0  0  0  0  0  0
  -27.3128  -22.8836   21.8673 C   0  0  0  0  0  0
  -30.6289  -20.0708   22.8486 C   0  0  0  0  0  0
  -32.1247  -20.2792   24.6296 C   0  0  0  0  0  0
  -30.4580  -21.5249   23.3579 C   0  0  2  0  0  0
  -27.9835  -25.2212   22.0939 C   0  0  1  0  0  0
  -31.2898  -21.5730   24.6933 C   0  0  0  0  0  0
  -32.2642  -22.7677   24.7741 C   0  0  0  0  0  0
  -30.4282  -21.5732   25.9776 C   0  0  0  0  0  0
  -25.9655  -25.1123   23.8213 C   0  0  0  0  0  0
  -26.9909  -25.9668   23.0451 C   0  0  0  0  0  0
  -28.8755  -26.2572   21.3269 C   0  0  0  0  0  0
  -31.3131  -19.3263   23.8976 N   0  0  0  0  0  0
  -28.4850  -22.9712   22.7288 N   0  0  0  0  0  0
  -34.9094  -15.9752   23.9043 N   0  0  0  0  0  0
  -30.5779  -14.9323   21.8753 N   0  0  0  0  0  0
  -29.7954  -24.6477   23.6020 O   0  0  0  0  0  0
  -28.1451  -21.0891   23.8949 O   0  0  0  0  0  0
  -31.4500  -12.3534   19.0717 H   0  0  0  0  0  0
  -30.2751  -11.2594   19.7340 H   0  0  0  0  0  0
  -29.6992  -11.8592   17.3665 H   0  0  0  0  0  0
  -29.6435  -13.5511   17.7982 H   0  0  0  0  0  0
  -27.8068  -11.3349   18.7712 H   0  0  0  0  0  0
  -27.3463  -12.7016   17.7920 H   0  0  0  0  0  0
  -27.7246  -14.2623   19.6155 H   0  0  0  0  0  0
  -28.6681  -11.9327   21.3513 H   0  0  0  0  0  0
  -28.4754  -13.5782   21.8676 H   0  0  0  0  0  0
  -25.2771   -9.5717   22.4742 H   0  0  0  0  0  0
  -24.0024   -7.4660   22.7486 H   0  0  0  0  0  0
  -21.0847   -8.8760   19.8950 H   0  0  0  0  0  0
  -22.3672  -10.9682   19.6162 H   0  0  0  0  0  0
  -21.2015   -7.6161   23.9725 H   0  0  0  0  0  0
  -21.1479   -6.0534   25.9080 H   0  0  0  0  0  0
  -22.0592   -2.7622   23.2845 H   0  0  0  0  0  0
  -22.4171  -11.9877   22.4713 H   0  0  0  0  0  0
  -21.1173  -13.1251   22.2577 H   0  0  0  0  0  0
  -24.6660  -15.8403   20.5214 H   0  0  0  0  0  0
  -26.2963  -15.6341   20.1230 H   0  0  0  0  0  0
  -26.7110  -32.5565   23.1241 H   0  0  0  0  0  0
  -25.0217  -33.9773   25.0634 H   0  0  0  0  0  0
  -22.6937  -31.3136   21.4133 H   0  0  0  0  0  0
  -23.3744  -35.9663   23.3305 H   0  0  0  0  0  0
  -24.3590  -36.8912   22.2052 H   0  0  0  0  0  0
  -23.7240  -37.6538   23.6637 H   0  0  0  0  0  0
  -26.0190  -31.6030   20.5798 H   0  0  0  0  0  0
  -26.8190  -30.9152   21.9651 H   0  0  0  0  0  0
  -28.0980  -29.1363   21.1626 H   0  0  0  0  0  0
  -26.1086  -26.0052   18.9794 H   0  0  0  0  0  0
  -23.9868  -27.2950   19.0353 H   0  0  0  0  0  0
  -23.7092  -30.5965   19.4111 H   0  0  0  0  0  0
  -22.7340  -29.2370   19.8794 H   0  0  0  0  0  0
  -25.1256  -36.2017   25.0867 H   0  0  0  0  0  0
  -20.9918  -28.3182   24.1438 H   0  0  0  0  0  0
  -20.5899  -26.2279   23.3450 H   0  0  0  0  0  0
  -21.6581  -26.7623   22.0919 H   0  0  0  0  0  0
  -19.6859  -25.6233   21.1318 H   0  0  0  0  0  0
  -19.6584  -27.3099   20.6638 H   0  0  0  0  0  0
  -17.4164  -26.6532   21.4128 H   0  0  0  0  0  0
  -18.0373  -26.0143   22.9199 H   0  0  0  0  0  0
  -19.7924  -30.7175   24.2331 H   0  0  0  0  0  0
  -17.5020  -31.6213   24.5252 H   0  0  0  0  0  0
  -15.5321  -30.3010   23.7663 H   0  0  0  0  0  0
  -15.8640  -28.0924   22.6971 H   0  0  0  0  0  0
  -24.5976  -30.6911   25.7848 H   0  0  0  0  0  0
  -24.8857  -32.2757   26.4971 H   0  0  0  0  0  0
  -25.8133  -30.8834   27.0260 H   0  0  0  0  0  0
  -26.2893  -29.6779   24.1132 H   0  0  0  0  0  0
  -27.4131  -29.7279   25.4543 H   0  0  0  0  0  0
  -27.8701  -30.4394   23.9220 H   0  0  0  0  0  0
  -27.2792  -33.3601   26.2069 H   0  0  0  0  0  0
  -28.3910  -32.6745   25.0288 H   0  0  0  0  0  0
  -28.0741  -31.8338   26.5394 H   0  0  0  0  0  0
  -28.2597  -38.0103   24.7504 H   0  0  0  0  0  0
  -28.1057  -36.2648   24.6306 H   0  0  0  0  0  0
  -27.2295  -37.1498   25.8858 H   0  0  0  0  0  0
  -20.9321  -29.8927   21.7089 H   0  0  0  0  0  0
  -26.0191  -38.2880   24.1405 H   0  0  0  0  0  0
  -33.7830  -18.2985   24.4718 H   0  0  0  0  0  0
  -29.9570  -17.3863   22.6589 H   0  0  0  0  0  0
  -33.1364  -14.4874   22.5911 H   0  0  0  0  0  0
  -26.2220  -24.5355   20.9570 H   0  0  0  0  0  0
  -27.7644  -24.1732   20.2005 H   0  0  0  0  0  0
  -27.4026  -22.0630   21.1526 H   0  0  0  0  0  0
  -26.4145  -22.7062   22.4596 H   0  0  0  0  0  0
  -31.2117  -20.0510   21.9259 H   0  0  0  0  0  0
  -29.6688  -19.6053   22.6279 H   0  0  0  0  0  0
  -32.3903  -19.9052   25.6201 H   0  0  0  0  0  0
  -33.0529  -20.4514   24.0785 H   0  0  0  0  0  0
  -30.9301  -22.1664   22.6115 H   0  0  0  0  0  0
  -32.9378  -22.8056   23.9189 H   0  0  0  0  0  0
  -32.8850  -22.6968   25.6683 H   0  0  0  0  0  0
  -31.7466  -23.7217   24.8262 H   0  0  0  0  0  0
  -29.7926  -20.6882   26.0342 H   0  0  0  0  0  0
  -29.7872  -22.4542   26.0361 H   0  0  0  0  0  0
  -31.0555  -21.5825   26.8688 H   0  0  0  0  0  0
  -26.4329  -24.3280   24.4205 H   0  0  0  0  0  0
  -25.2513  -24.6358   23.1466 H   0  0  0  0  0  0
  -25.3865  -25.7417   24.4964 H   0  0  0  0  0  0
  -26.4217  -26.7000   22.4731 H   0  0  0  0  0  0
  -27.5683  -26.5565   23.7619 H   0  0  0  0  0  0
  -29.8569  -25.8313   21.1057 H   0  0  0  0  0  0
  -29.0794  -27.1169   21.9668 H   0  0  0  0  0  0
  -35.5874  -16.7019   24.1126 H   0  0  0  0  0  0
  -35.3315  -15.1912   23.4151 H   0  0  0  0  0  0
  -29.7270  -14.6733   22.3512 H   0  0  0  0  0  0
  1 25  1  0  0  0
  1 30  2  0  0  0
  1 94  1  0  0  0
  2  3  1  0  0  0
  2 25  1  0  0  0
  2 97  1  0  0  0
  2 98  1  0  0  0
  3  4  1  0  0  0
  3 99  1  0  0  0
  3100  1  0  0  0
  4  5  1  0  0  0
  4101  1  0  0  0
  4102  1  0  0  0
  5  6  1  0  0  0
  5 26  1  0  0  0
  5103  1  0  0  0
  6 25  1  0  0  0
  6104  1  0  0  0
  6105  1  0  0  0
  7  8  2  0  0  0
  7 26  1  0  0  0
  7 29  1  0  0  0
  8  9  1  0  0  0
  8 22  1  0  0  0
  9 10  1  0  0  0
  9 27  2  0  0  0
 10 11  2  0  0  0
 10 15  1  0  0  0
 11 12  1  0  0  0
 11106  1  0  0  0
 12 13  2  0  0  0
 12107  1  0  0  0
 13 14  1  0  0  0
 13 31  1  0  0  0
 14 15  2  0  0  0
 14108  1  0  0  0
 15109  1  0  0  0
 16 17  2  0  0  0
 16 21  1  0  0  0
 16 31  1  0  0  0
 17 18  1  0  0  0
 17110  1  0  0  0
 18 19  2  0  0  0
 18111  1  0  0  0
 19 20  1  0  0  0
 19 24  1  0  0  0
 20 21  2  0  0  0
 20112  1  0  0  0
 21 23  1  0  0  0
 22 28  1  0  0  0
 22 32  2  0  0  0
 26 27  1  0  0  0
 28113  1  0  0  0
 28114  1  0  0  0
 29115  1  0  0  0
 29116  1  0  0  0
 33 34  1  0  0  0
 33 66  1  0  0  0
 33 70  2  0  0  0
 34 36  1  0  0  0
 34 59  1  0  0  0
 34117  1  0  0  0
 35 44  2  0  0  0
 35 45  1  0  0  0
 35 68  1  0  0  0
 36 56  1  0  0  0
 36118  1  0  0  0
 37 39  1  0  0  0
 37 47  1  0  0  0
 37 66  1  0  0  0
 37119  1  0  0  0
 38 43  2  0  0  0
 38 46  1  0  0  0
 38 47  1  0  0  0
 39 64  1  0  0  0
 39 67  2  0  0  0
 40 52  1  0  0  0
 40 53  2  0  0  0
 40 58  1  0  0  0
 41120  1  0  0  0
 41121  1  0  0  0
 41122  1  0  0  0
 41 48  1  0  0  0
 42 43  1  0  0  0
 42 66  1  0  0  0
 42123  1  0  0  0
 42124  1  0  0  0
 43 44  1  0  0  0
 44125  1  0  0  0
 45 46  2  0  0  0
 45126  1  0  0  0
 46127  1  0  0  0
 47128  1  0  0  0
 47129  1  0  0  0
 48 56  1  0  0  0
 48 65  1  0  0  0
 48130  1  0  0  0
 49 50  1  0  0  0
 49 53  1  0  0  0
 49 64  1  0  0  0
 49131  1  0  0  0
 50 51  1  0  0  0
 50132  1  0  0  0
 50133  1  0  0  0
 51 52  1  0  0  0
 51134  1  0  0  0
 51135  1  0  0  0
 52136  1  0  0  0
 52137  1  0  0  0
 53 54  1  0  0  0
 54 55  2  0  0  0
 54138  1  0  0  0
 55 57  1  0  0  0
 55139  1  0  0  0
 56 69  2  0  0  0
 57 58  2  0  0  0
 57140  1  0  0  0
 58141  1  0  0  0
 59 60  1  0  0  0
 59 61  1  0  0  0
 59 62  1  0  0  0
 60142  1  0  0  0
 60143  1  0  0  0
 60144  1  0  0  0
 61145  1  0  0  0
 61146  1  0  0  0
 61147  1  0  0  0
 62148  1  0  0  0
 62149  1  0  0  0
 62150  1  0  0  0
 63 65  1  0  0  0
 63151  1  0  0  0
 63152  1  0  0  0
 63153  1  0  0  0
 64154  1  0  0  0
 65155  1  0  0  0
 68 90  1  0  0  0
 71 74  2  0  0  0
 71 75  1  0  0  0
 71156  1  0  0  0
 72 74  1  0  0  0
 72 76  2  0  0  0
 72157  1  0  0  0
 73 75  2  0  0  0
 73 76  1  0  0  0
 73158  1  0  0  0
 74 91  1  0  0  0
 75 93  1  0  0  0
 76 94  1  0  0  0
 77 84  1  0  0  0
 77 92  1  0  0  0
 77 95  2  0  0  0
 78 92  1  0  0  0
 78 96  2  0  0  0
 78 83  1  0  0  0
 79 80  1  0  0  0
 79 84  1  0  0  0
 79159  1  0  0  0
 79160  1  0  0  0
 80 92  1  0  0  0
 80161  1  0  0  0
 80162  1  0  0  0
 81 83  1  0  0  0
 81 91  1  0  0  0
 81163  1  0  0  0
 81164  1  0  0  0
 82 85  1  0  0  0
 82 91  1  0  0  0
 82165  1  0  0  0
 82166  1  0  0  0
 83 85  1  0  0  0
 83167  1  0  0  0
 84 89  1  0  0  0
 84 90  1  0  0  0
 85 86  1  0  0  0
 85 87  1  0  0  0
 86168  1  0  0  0
 86169  1  0  0  0
 86170  1  0  0  0
 87171  1  0  0  0
 87172  1  0  0  0
 87173  1  0  0  0
 88 89  1  0  0  0
 88174  1  0  0  0
 88175  1  0  0  0
 88176  1  0  0  0
 89177  1  0  0  0
 89178  1  0  0  0
 90179  1  0  0  0
 90180  1  0  0  0
 93181  1  0  0  0
 93182  1  0  0  0
 94183  1  0  0  0
M  ISO  4   1 100  68 101  90 101  94 100
M  END
> <chiral flag>
0

> <version>
0

> <s_m_source_file>
/data/baiqing/PycharmProjects/Reinvent-master-3.2/result/LINK_invent/BTK/process_docking_weight1_custom_product_contain_oxygen_bond_distance_aromatic_linkinvent_7_9_3/rearranged_h_0075.sdf

> <i_m_source_file_index>
22

> <r_mmod_Potential_Energy-OPLS-2005>
293.653900146484

> <r_mmod_Stretch_Energy-OPLS-2005>
43.045223236084

> <r_mmod_Bend_Energy-OPLS-2005>
169.716613769531

> <r_mmod_Torsional_Energy-OPLS-2005>
384.435852050781

> <r_mmod_Improper_Torsional_Energy-OPLS-2005>
13.1596851348877

> <r_mmod_Van_der_Waal_Energy-OPLS-2005>
154.669586181641

> <r_mmod_Electrostatic_Energy-OPLS-2005>
-242.552734375

> <r_mmod_Solvation_Energy-OPLS-2005>
-237.153381347656

> <b_mmod_Minimization_Converged-OPLS-2005>
0

> <r_mmod_RMS_Derivative-OPLS-2005>
5.06727600097656

$$$$
22
                    3D
 Structure written by MMmdl.
164172  0  0  1  0            999 V2000
  -30.6866  -14.4777   20.5699 C   0  0  0  0  0  0
  -30.4264  -12.3105   19.4188 C   0  0  0  0  0  0
  -29.4950  -12.5081   18.2039 C   0  0  0  0  0  0
  -28.0152  -12.3683   18.6165 C   0  0  0  0  0  0
  -27.6613  -13.2046   19.8756 C   0  0  2  0  0  0
  -28.7032  -12.9766   20.9942 C   0  0  0  0  0  0
  -25.2584  -13.8149   20.5678 C   0  0  0  0  0  0
  -24.1826  -13.0425   20.9151 C   0  0  0  0  0  0
  -24.6382  -11.6897   20.8719 C   0  0  0  0  0  0
  -23.9052  -10.4286   21.0397 C   0  0  0  0  0  0
  -24.3611   -9.4206   21.9177 C   0  0  0  0  0  0
  -23.6289   -8.2240   22.0749 C   0  0  0  0  0  0
  -22.4270   -8.0279   21.3545 C   0  0  0  0  0  0
  -21.9903   -9.0247   20.4647 C   0  0  0  0  0  0
  -22.7227  -10.2127   20.3050 C   0  0  0  0  0  0
  -21.6852   -6.0737   22.5280 C   0  0  0  0  0  0
  -21.4011   -6.5638   23.8216 C   0  0  0  0  0  0
  -21.3659   -5.6791   24.9176 C   0  0  0  0  0  0
  -21.6043   -4.3054   24.7226 C   0  0  0  0  0  0
  -21.8818   -3.8147   23.4345 C   0  0  0  0  0  0
  -21.9191   -4.6963   22.3403 C   0  0  0  0  0  0
  -22.7859  -13.5235   21.1830 C   0  0  0  0  0  0
  -22.1661   -4.2150   21.0981 F   0  0  0  0  0  0
  -21.5634   -3.4536   25.7739 F   0  0  0  0  0  0
  -30.0346  -13.2895   20.4443 N   0  0  0  0  0  0
  -26.3025  -12.9317   20.3377 N   0  0  0  0  0  0
  -25.9314  -11.6478   20.5765 N   0  0  0  0  0  0
  -22.0504  -12.8230   22.0397 N   0  0  0  0  0  0
  -25.4291  -15.1869   20.4142 N   0  0  0  0  0  0
  -31.8146  -14.6679   20.1060 O   0  0  0  0  0  0
  -21.6639   -6.8875   21.4241 O   0  0  0  0  0  0
  -22.3536  -14.5543   20.6689 O   0  0  0  0  0  0
  -24.6133  -31.8681   23.2105 C   0  0  0  0  0  0
  -25.9025  -32.4826   23.8405 C   0  0  1  0  0  0
  -27.2349  -27.4398   20.1011 C   0  0  0  0  0  0
  -25.5886  -33.8628   24.2336 N   0  0  0  0  0  0
  -23.4027  -30.4900   21.5505 C   0  0  2  0  0  0
  -24.8502  -28.9527   20.1200 C   0  0  0  0  0  0
  -22.7410  -29.4656   22.5001 C   0  0  0  0  0  0
  -18.0266  -28.1381   22.8499 C   0  0  0  0  0  0
  -24.1485  -36.7323   23.2639 C   0  0  0  0  0  0
  -25.9301  -30.8360   21.3627 C   0  0  0  0  0  0
  -26.0095  -29.4680   20.7147 C   0  0  0  0  0  0
  -27.2076  -28.7184   20.7024 C   0  0  0  0  0  0
  -26.0630  -26.9335   19.5051 C   0  0  0  0  0  0
  -24.8707  -27.6835   19.5142 C   0  0  0  0  0  0
  -23.6119  -29.8188   20.1665 C   0  0  0  0  0  0
  -25.4104  -36.3120   24.0343 C   0  0  1  0  0  0
  -20.5859  -28.3666   23.1328 C   0  0  2  0  0  0
  -20.6758  -26.9404   22.5426 C   0  0  0  0  0  0
  -19.5737  -26.6392   21.5223 C   0  0  0  0  0  0
  -18.1915  -26.7931   22.1628 C   0  0  0  0  0  0
  -19.1516  -28.8840   23.2911 C   0  0  0  0  0  0
  -18.9443  -30.1446   23.8925 C   0  0  0  0  0  0
  -17.6445  -30.6590   24.0570 C   0  0  0  0  0  0
  -25.9034  -34.9484   23.5143 C   0  0  0  0  0  0
  -16.5338  -29.9095   23.6324 C   0  0  0  0  0  0
  -16.7255  -28.6507   23.0352 C   0  0  0  0  0  0
  -26.4462  -31.6603   25.0727 C   0  0  0  0  0  0
  -25.3737  -31.3695   26.1478 C   0  0  0  0  0  0
  -27.0284  -30.3049   24.6089 C   0  0  0  0  0  0
  -27.6053  -32.4312   25.7476 C   0  0  0  0  0  0
  -27.5588  -37.1801   24.8455 C   0  0  0  0  0  0
  -21.4137  -29.3033   22.3738 N   0  0  0  0  0  0
  -26.4289  -37.3807   23.9420 N   0  0  0  0  0  0
  -24.6669  -31.0789   22.1001 N   0  0  0  0  0  0
  -23.4185  -28.8205   23.3047 O   0  0  0  0  0  0
  -28.3924  -26.6999   20.0568 O   0  0  0  0  0  0
  -26.5603  -34.8931   22.4710 O   0  0  0  0  0  0
  -23.5326  -32.1426   23.7501 O   0  0  0  0  0  0
  -31.4688  -18.9312   20.9362 C   0  0  0  0  0  0
  -31.3862  -17.5211   20.9631 C   0  0  0  0  0  0
  -29.0469  -19.0940   21.0749 C   0  0  0  0  0  0
  -30.3040  -19.7342   21.0011 C   0  0  0  0  0  0
  -30.1279  -16.8791   21.0454 C   0  0  0  0  0  0
  -28.9660  -17.6825   21.1014 C   0  0  0  0  0  0
  -30.4338  -21.2043   21.0296 C   0  0  0  0  0  0
  -28.4308  -24.2455   20.3892 C   0  0  0  0  0  0
  -29.5897  -23.2899   17.5860 C   0  0  0  0  0  0
  -31.8622  -23.4190   18.6852 C   0  0  0  0  0  0
  -28.4734  -25.6488   21.0319 C   0  0  0  0  0  0
  -29.7781  -23.5139   20.1700 C   0  0  2  0  0  0
  -30.3895  -23.8530   18.7802 C   0  0  0  0  0  0
  -29.9506  -15.4625   21.1184 N   0  0  0  0  0  0
  -29.6440  -22.0337   20.3161 N   0  0  0  0  0  0
  -31.4031  -21.7380   21.7745 N   0  3  0  0  0  0
  -27.3503  -23.7281   20.0893 O   0  0  0  0  0  0
  -27.7536  -17.0824   21.1829 F   0  0  0  0  0  0
  -31.4704  -12.4160   19.1175 H   0  0  0  0  0  0
  -30.3330  -11.2979   19.8133 H   0  0  0  0  0  0
  -29.7365  -11.7836   17.4251 H   0  0  0  0  0  0
  -29.6612  -13.4939   17.7662 H   0  0  0  0  0  0
  -27.8250  -11.3117   18.8098 H   0  0  0  0  0  0
  -27.3643  -12.6455   17.7861 H   0  0  0  0  0  0
  -27.7054  -14.2536   19.5817 H   0  0  0  0  0  0
  -28.6815  -11.9369   21.3245 H   0  0  0  0  0  0
  -28.4618  -13.5639   21.8815 H   0  0  0  0  0  0
  -25.2756   -9.5685   22.4750 H   0  0  0  0  0  0
  -24.0003   -7.4630   22.7462 H   0  0  0  0  0  0
  -21.0837   -8.8754   19.8955 H   0  0  0  0  0  0
  -22.3677  -10.9661   19.6156 H   0  0  0  0  0  0
  -21.1998   -7.6144   23.9718 H   0  0  0  0  0  0
  -21.1488   -6.0522   25.9080 H   0  0  0  0  0  0
  -22.0599   -2.7610   23.2844 H   0  0  0  0  0  0
  -22.4115  -11.9884   22.4780 H   0  0  0  0  0  0
  -21.1125  -13.1260   22.2614 H   0  0  0  0  0  0
  -24.6681  -15.8415   20.5560 H   0  0  0  0  0  0
  -26.3077  -15.6481   20.2095 H   0  0  0  0  0  0
  -26.7104  -32.5548   23.1181 H   0  0  0  0  0  0
  -25.0014  -33.9803   25.0464 H   0  0  0  0  0  0
  -22.6904  -31.3056   21.4093 H   0  0  0  0  0  0
  -23.3757  -35.9645   23.3287 H   0  0  0  0  0  0
  -24.3587  -36.8950   22.2058 H   0  0  0  0  0  0
  -23.7219  -37.6519   23.6655 H   0  0  0  0  0  0
  -26.0384  -31.6004   20.5917 H   0  0  0  0  0  0
  -26.8201  -30.8935   21.9777 H   0  0  0  0  0  0
  -28.1058  -29.1170   21.1531 H   0  0  0  0  0  0
  -26.0740  -25.9622   19.0300 H   0  0  0  0  0  0
  -23.9794  -27.2814   19.0533 H   0  0  0  0  0  0
  -23.7208  -30.5910   19.4041 H   0  0  0  0  0  0
  -22.7368  -29.2359   19.8715 H   0  0  0  0  0  0
  -25.1278  -36.1992   25.0836 H   0  0  0  0  0  0
  -20.9947  -28.3228   24.1450 H   0  0  0  0  0  0
  -20.5672  -26.2275   23.3613 H   0  0  0  0  0  0
  -21.6626  -26.7458   22.1209 H   0  0  0  0  0  0
  -19.6898  -25.6308   21.1237 H   0  0  0  0  0  0
  -19.6678  -27.3215   20.6768 H   0  0  0  0  0  0
  -17.4191  -26.6688   21.4020 H   0  0  0  0  0  0
  -18.0311  -26.0070   22.9023 H   0  0  0  0  0  0
  -19.7920  -30.7249   24.2313 H   0  0  0  0  0  0
  -17.5003  -31.6274   24.5162 H   0  0  0  0  0  0
  -15.5337  -30.3007   23.7631 H   0  0  0  0  0  0
  -15.8655  -28.0828   22.7066 H   0  0  0  0  0  0
  -24.5901  -30.7056   25.7807 H   0  0  0  0  0  0
  -24.8939  -32.2839   26.4971 H   0  0  0  0  0  0
  -25.8099  -30.8824   27.0207 H   0  0  0  0  0  0
  -26.2818  -29.6814   24.1154 H   0  0  0  0  0  0
  -27.4066  -29.7281   25.4539 H   0  0  0  0  0  0
  -27.8650  -30.4378   23.9227 H   0  0  0  0  0  0
  -27.2691  -33.3599   26.2099 H   0  0  0  0  0  0
  -28.3830  -32.6891   25.0274 H   0  0  0  0  0  0
  -28.0756  -31.8404   26.5342 H   0  0  0  0  0  0
  -28.2581  -38.0125   24.7554 H   0  0  0  0  0  0
  -28.1107  -36.2660   24.6213 H   0  0  0  0  0  0
  -27.2311  -37.1374   25.8856 H   0  0  0  0  0  0
  -20.9305  -29.8757   21.6955 H   0  0  0  0  0  0
  -26.0181  -38.2881   24.1455 H   0  0  0  0  0  0
  -32.4451  -19.3929   20.8738 H   0  0  0  0  0  0
  -32.3018  -16.9496   20.9368 H   0  0  0  0  0  0
  -28.1373  -19.6736   21.1377 H   0  0  0  0  0  0
  -30.0418  -23.5858   16.6384 H   0  0  0  0  0  0
  -28.5640  -23.6594   17.5726 H   0  0  0  0  0  0
  -29.5511  -22.2002   17.5953 H   0  0  0  0  0  0
  -32.3107  -23.7554   17.7496 H   0  0  0  0  0  0
  -31.9712  -22.3351   18.7252 H   0  0  0  0  0  0
  -32.4530  -23.8449   19.4971 H   0  0  0  0  0  0
  -27.6666  -25.7273   21.7626 H   0  0  0  0  0  0
  -29.4062  -25.7581   21.5850 H   0  0  0  0  0  0
  -30.4585  -23.8876   20.9349 H   0  0  0  0  0  0
  -30.3848  -24.9406   18.6798 H   0  0  0  0  0  0
  -29.0294  -15.1772   21.4127 H   0  0  0  0  0  0
  -28.8727  -21.6143   19.8134 H   0  0  0  0  0  0
  -31.9623  -21.1391   22.3613 H   0  0  0  0  0  0
  -31.5668  -22.7287   21.7951 H   0  0  0  0  0  0
  1 25  1  0  0  0
  1 30  2  0  0  0
  1 84  1  0  0  0
  2  3  1  0  0  0
  2 25  1  0  0  0
  2 89  1  0  0  0
  2 90  1  0  0  0
  3  4  1  0  0  0
  3 91  1  0  0  0
  3 92  1  0  0  0
  4  5  1  0  0  0
  4 93  1  0  0  0
  4 94  1  0  0  0
  5  6  1  0  0  0
  5 26  1  0  0  0
  5 95  1  0  0  0
  6 25  1  0  0  0
  6 96  1  0  0  0
  6 97  1  0  0  0
  7  8  2  0  0  0
  7 26  1  0  0  0
  7 29  1  0  0  0
  8  9  1  0  0  0
  8 22  1  0  0  0
  9 10  1  0  0  0
  9 27  2  0  0  0
 10 11  2  0  0  0
 10 15  1  0  0  0
 11 12  1  0  0  0
 11 98  1  0  0  0
 12 13  2  0  0  0
 12 99  1  0  0  0
 13 14  1  0  0  0
 13 31  1  0  0  0
 14 15  2  0  0  0
 14100  1  0  0  0
 15101  1  0  0  0
 16 17  2  0  0  0
 16 21  1  0  0  0
 16 31  1  0  0  0
 17 18  1  0  0  0
 17102  1  0  0  0
 18 19  2  0  0  0
 18103  1  0  0  0
 19 20  1  0  0  0
 19 24  1  0  0  0
 20 21  2  0  0  0
 20104  1  0  0  0
 21 23  1  0  0  0
 22 28  1  0  0  0
 22 32  2  0  0  0
 26 27  1  0  0  0
 28105  1  0  0  0
 28106  1  0  0  0
 29107  1  0  0  0
 29108  1  0  0  0
 33 34  1  0  0  0
 33 66  1  0  0  0
 33 70  2  0  0  0
 34 36  1  0  0  0
 34 59  1  0  0  0
 34109  1  0  0  0
 35 44  2  0  0  0
 35 45  1  0  0  0
 35 68  1  0  0  0
 36 56  1  0  0  0
 36110  1  0  0  0
 37 39  1  0  0  0
 37 47  1  0  0  0
 37 66  1  0  0  0
 37111  1  0  0  0
 38 43  2  0  0  0
 38 46  1  0  0  0
 38 47  1  0  0  0
 39 64  1  0  0  0
 39 67  2  0  0  0
 40 52  1  0  0  0
 40 53  2  0  0  0
 40 58  1  0  0  0
 41112  1  0  0  0
 41113  1  0  0  0
 41114  1  0  0  0
 41 48  1  0  0  0
 42 43  1  0  0  0
 42 66  1  0  0  0
 42115  1  0  0  0
 42116  1  0  0  0
 43 44  1  0  0  0
 44117  1  0  0  0
 45 46  2  0  0  0
 45118  1  0  0  0
 46119  1  0  0  0
 47120  1  0  0  0
 47121  1  0  0  0
 48 56  1  0  0  0
 48 65  1  0  0  0
 48122  1  0  0  0
 49 50  1  0  0  0
 49 53  1  0  0  0
 49 64  1  0  0  0
 49123  1  0  0  0
 50 51  1  0  0  0
 50124  1  0  0  0
 50125  1  0  0  0
 51 52  1  0  0  0
 51126  1  0  0  0
 51127  1  0  0  0
 52128  1  0  0  0
 52129  1  0  0  0
 53 54  1  0  0  0
 54 55  2  0  0  0
 54130  1  0  0  0
 55 57  1  0  0  0
 55131  1  0  0  0
 56 69  2  0  0  0
 57 58  2  0  0  0
 57132  1  0  0  0
 58133  1  0  0  0
 59 60  1  0  0  0
 59 61  1  0  0  0
 59 62  1  0  0  0
 60134  1  0  0  0
 60135  1  0  0  0
 60136  1  0  0  0
 61137  1  0  0  0
 61138  1  0  0  0
 61139  1  0  0  0
 62140  1  0  0  0
 62141  1  0  0  0
 62142  1  0  0  0
 63 65  1  0  0  0
 63143  1  0  0  0
 63144  1  0  0  0
 63145  1  0  0  0
 64146  1  0  0  0
 65147  1  0  0  0
 68 81  1  0  0  0
 71 72  2  0  0  0
 71 74  1  0  0  0
 71148  1  0  0  0
 72 75  1  0  0  0
 72149  1  0  0  0
 73 74  2  0  0  0
 73 76  1  0  0  0
 73150  1  0  0  0
 74 77  1  0  0  0
 75 76  2  0  0  0
 75 84  1  0  0  0
 76 88  1  0  0  0
 77 85  1  0  0  0
 77 86  2  0  0  0
 78 81  1  0  0  0
 78 82  1  0  0  0
 78 87  2  0  0  0
 79151  1  0  0  0
 79152  1  0  0  0
 79153  1  0  0  0
 79 83  1  0  0  0
 80 83  1  0  0  0
 80154  1  0  0  0
 80155  1  0  0  0
 80156  1  0  0  0
 81157  1  0  0  0
 81158  1  0  0  0
 82 83  1  0  0  0
 82 85  1  0  0  0
 82159  1  0  0  0
 83160  1  0  0  0
 84161  1  0  0  0
 85162  1  0  0  0
 86163  1  0  0  0
 86164  1  0  0  0
M  CHG  1  86   1
M  ISO  4   1 100  68 101  81 101  84 100
M  END
> <chiral flag>
0

> <version>
0

> <s_m_source_file>
/data/baiqing/PycharmProjects/Reinvent-master-3.2/result/LINK_invent/BTK/process_docking_weight1_custom_product_contain_oxygen_bond_distance_aromatic_linkinvent_7_9_3/rearranged_h_0075.sdf

> <i_m_source_file_index>
23

> <r_mmod_Potential_Energy-OPLS-2005>
-345.933227539062

> <r_mmod_Stretch_Energy-OPLS-2005>
38.8463287353516

> <r_mmod_Bend_Energy-OPLS-2005>
98.8458938598633

> <r_mmod_Torsional_Energy-OPLS-2005>
259.906494140625

> <r_mmod_Improper_Torsional_Energy-OPLS-2005>
3.97734665870667

> <r_mmod_Van_der_Waal_Energy-OPLS-2005>
149.543899536133

> <r_mmod_Electrostatic_Energy-OPLS-2005>
-478.33203125

> <r_mmod_Solvation_Energy-OPLS-2005>
-430.363189697266

> <b_mmod_Minimization_Converged-OPLS-2005>
0

> <r_mmod_RMS_Derivative-OPLS-2005>
1.01761651039124

$$$$
23
                    3D
 Structure written by MMmdl.
164173  0  0  1  0            999 V2000
  -30.6665  -14.5272   20.5019 C   0  0  0  0  0  0
  -30.4231  -12.3170   19.4479 C   0  0  0  0  0  0
  -29.5012  -12.4942   18.2215 C   0  0  0  0  0  0
  -28.0206  -12.3541   18.6274 C   0  0  0  0  0  0
  -27.6570  -13.2069   19.8725 C   0  0  2  0  0  0
  -28.6993  -13.0277   21.0020 C   0  0  0  0  0  0
  -25.2572  -13.8154   20.5680 C   0  0  0  0  0  0
  -24.1826  -13.0431   20.9178 C   0  0  0  0  0  0
  -24.6380  -11.6899   20.8735 C   0  0  0  0  0  0
  -23.9048  -10.4288   21.0403 C   0  0  0  0  0  0
  -24.3608   -9.4207   21.9180 C   0  0  0  0  0  0
  -23.6288   -8.2241   22.0752 C   0  0  0  0  0  0
  -22.4271   -8.0274   21.3543 C   0  0  0  0  0  0
  -21.9902   -9.0245   20.4645 C   0  0  0  0  0  0
  -22.7223  -10.2127   20.3052 C   0  0  0  0  0  0
  -21.6851   -6.0732   22.5279 C   0  0  0  0  0  0
  -21.4012   -6.5638   23.8212 C   0  0  0  0  0  0
  -21.3661   -5.6792   24.9174 C   0  0  0  0  0  0
  -21.6043   -4.3055   24.7226 C   0  0  0  0  0  0
  -21.8822   -3.8145   23.4348 C   0  0  0  0  0  0
  -21.9193   -4.6960   22.3402 C   0  0  0  0  0  0
  -22.7853  -13.5235   21.1843 C   0  0  0  0  0  0
  -22.1662   -4.2146   21.0980 F   0  0  0  0  0  0
  -21.5631   -3.4539   25.7740 F   0  0  0  0  0  0
  -30.0287  -13.3248   20.4468 N   0  0  0  0  0  0
  -26.3001  -12.9319   20.3357 N   0  0  0  0  0  0
  -25.9307  -11.6482   20.5769 N   0  0  0  0  0  0
  -22.0495  -12.8224   22.0399 N   0  0  0  0  0  0
  -25.4293  -15.1870   20.4099 N   0  0  0  0  0  0
  -31.8233  -14.6805   20.1006 O   0  0  0  0  0  0
  -21.6637   -6.8870   21.4238 O   0  0  0  0  0  0
  -22.3541  -14.5544   20.6693 O   0  0  0  0  0  0
  -24.6175  -31.8650   23.2086 C   0  0  0  0  0  0
  -25.9061  -32.4806   23.8380 C   0  0  1  0  0  0
  -27.2329  -27.4046   20.0989 C   0  0  0  0  0  0
  -25.5907  -33.8604   24.2308 N   0  0  0  0  0  0
  -23.4057  -30.4901   21.5485 C   0  0  2  0  0  0
  -24.8503  -28.9525   20.1113 C   0  0  0  0  0  0
  -22.7414  -29.4656   22.4973 C   0  0  0  0  0  0
  -18.0266  -28.1388   22.8484 C   0  0  0  0  0  0
  -24.1477  -36.7303   23.2637 C   0  0  0  0  0  0
  -25.9369  -30.8218   21.3656 C   0  0  0  0  0  0
  -26.0112  -29.4547   20.7112 C   0  0  0  0  0  0
  -27.2000  -28.6864   20.7033 C   0  0  0  0  0  0
  -26.0501  -26.9255   19.4884 C   0  0  0  0  0  0
  -24.8666  -27.6884   19.4979 C   0  0  0  0  0  0
  -23.6141  -29.8228   20.1628 C   0  0  0  0  0  0
  -25.4099  -36.3099   24.0339 C   0  0  1  0  0  0
  -20.5858  -28.3681   23.1310 C   0  0  2  0  0  0
  -20.6764  -26.9415   22.5419 C   0  0  0  0  0  0
  -19.5748  -26.6390   21.5215 C   0  0  0  0  0  0
  -18.1919  -26.7931   22.1616 C   0  0  0  0  0  0
  -19.1516  -28.8850   23.2892 C   0  0  0  0  0  0
  -18.9446  -30.1451   23.8909 C   0  0  0  0  0  0
  -17.6453  -30.6591   24.0571 C   0  0  0  0  0  0
  -25.9037  -34.9466   23.5121 C   0  0  0  0  0  0
  -16.5342  -29.9096   23.6337 C   0  0  0  0  0  0
  -16.7256  -28.6515   23.0352 C   0  0  0  0  0  0
  -26.4477  -31.6605   25.0725 C   0  0  0  0  0  0
  -25.3734  -31.3733   26.1475 C   0  0  0  0  0  0
  -27.0328  -30.3042   24.6137 C   0  0  0  0  0  0
  -27.6044  -32.4340   25.7484 C   0  0  0  0  0  0
  -27.5581  -37.1787   24.8453 C   0  0  0  0  0  0
  -21.4139  -29.3044   22.3712 N   0  0  0  0  0  0
  -26.4273  -37.3799   23.9430 N   0  0  0  0  0  0
  -24.6717  -31.0740   22.0991 N   0  0  0  0  0  0
  -23.4169  -28.8195   23.3024 O   0  0  0  0  0  0
  -28.4071  -26.6666   20.1549 O   0  0  0  0  0  0
  -26.5596  -34.8923   22.4680 O   0  0  0  0  0  0
  -23.5366  -32.1408   23.7478 O   0  0  0  0  0  0
  -30.5189  -19.3793   22.9010 C   0  0  0  0  0  0
  -30.4778  -18.1922   22.1438 C   0  0  0  0  0  0
  -29.9611  -20.5714   22.3988 C   0  0  0  0  0  0
  -29.3011  -19.3894   20.3812 C   0  0  0  0  0  0
  -29.8748  -18.1746   20.8692 C   0  0  0  0  0  0
  -29.3381  -20.6024   21.1290 C   0  0  0  0  0  0
  -29.0469  -23.0981   20.9032 C   0  0  0  0  0  0
  -26.9899  -23.2041   19.6919 C   0  0  0  0  0  0
  -27.4848  -21.7565   19.8472 C   0  0  0  0  0  0
  -27.9541  -24.1162   20.4854 C   0  0  1  0  0  0
  -27.2778  -24.6100   21.7863 C   0  0  0  0  0  0
  -28.9036  -16.8519   18.8748 C   0  0  0  0  0  0
  -28.4838  -25.3252   19.6096 C   0  0  0  0  0  0
  -29.9429  -16.8844   20.0127 C   0  0  2  0  0  0
  -28.7035  -21.8113   20.6425 N   0  0  0  0  0  0
  -29.8655  -15.5925   20.7404 N   0  0  0  0  0  0
  -30.1030  -23.4650   21.4306 O   0  0  0  0  0  0
  -31.4701  -12.4081   19.1531 H   0  0  0  0  0  0
  -30.3184  -11.3141   19.8653 H   0  0  0  0  0  0
  -29.7481  -11.7592   17.4544 H   0  0  0  0  0  0
  -29.6682  -13.4737   17.7711 H   0  0  0  0  0  0
  -27.8327  -11.2994   18.8319 H   0  0  0  0  0  0
  -27.3746  -12.6180   17.7893 H   0  0  0  0  0  0
  -27.6843  -14.2467   19.5514 H   0  0  0  0  0  0
  -28.6786  -12.0047   21.3809 H   0  0  0  0  0  0
  -28.4657  -13.6659   21.8557 H   0  0  0  0  0  0
  -25.2753   -9.5688   22.4751 H   0  0  0  0  0  0
  -24.0002   -7.4633   22.7472 H   0  0  0  0  0  0
  -21.0835   -8.8756   19.8950 H   0  0  0  0  0  0
  -22.3678  -10.9664   19.6160 H   0  0  0  0  0  0
  -21.1999   -7.6146   23.9712 H   0  0  0  0  0  0
  -21.1484   -6.0524   25.9076 H   0  0  0  0  0  0
  -22.0598   -2.7608   23.2849 H   0  0  0  0  0  0
  -22.4114  -11.9886   22.4787 H   0  0  0  0  0  0
  -21.1111  -13.1247   22.2604 H   0  0  0  0  0  0
  -24.6624  -15.8417   20.5191 H   0  0  0  0  0  0
  -26.2808  -15.6267   20.0873 H   0  0  0  0  0  0
  -26.7132  -32.5504   23.1140 H   0  0  0  0  0  0
  -25.0092  -33.9760   25.0478 H   0  0  0  0  0  0
  -22.6962  -31.3086   21.4094 H   0  0  0  0  0  0
  -23.3749  -35.9623   23.3284 H   0  0  0  0  0  0
  -24.3577  -36.8937   22.2054 H   0  0  0  0  0  0
  -23.7208  -37.6495   23.6661 H   0  0  0  0  0  0
  -26.0532  -31.5873   20.5974 H   0  0  0  0  0  0
  -26.8237  -30.8734   21.9862 H   0  0  0  0  0  0
  -28.0934  -29.0670   21.1784 H   0  0  0  0  0  0
  -26.0114  -25.9552   19.0178 H   0  0  0  0  0  0
  -23.9733  -27.2937   19.0339 H   0  0  0  0  0  0
  -23.7218  -30.5972   19.4025 H   0  0  0  0  0  0
  -22.7370  -29.2433   19.8691 H   0  0  0  0  0  0
  -25.1266  -36.1953   25.0830 H   0  0  0  0  0  0
  -20.9944  -28.3254   24.1432 H   0  0  0  0  0  0
  -20.5687  -26.2283   23.3604 H   0  0  0  0  0  0
  -21.6636  -26.7475   22.1204 H   0  0  0  0  0  0
  -19.6924  -25.6302   21.1242 H   0  0  0  0  0  0
  -19.6700  -27.3203   20.6746 H   0  0  0  0  0  0
  -17.4196  -26.6682   21.4008 H   0  0  0  0  0  0
  -18.0316  -26.0073   22.9012 H   0  0  0  0  0  0
  -19.7925  -30.7260   24.2284 H   0  0  0  0  0  0
  -17.5012  -31.6276   24.5165 H   0  0  0  0  0  0
  -15.5345  -30.3006   23.7669 H   0  0  0  0  0  0
  -15.8648  -28.0849   22.7063 H   0  0  0  0  0  0
  -24.5884  -30.7109   25.7814 H   0  0  0  0  0  0
  -24.8954  -32.2902   26.4933 H   0  0  0  0  0  0
  -25.8075  -30.8886   27.0230 H   0  0  0  0  0  0
  -26.2900  -29.6784   24.1181 H   0  0  0  0  0  0
  -27.4081  -29.7299   25.4620 H   0  0  0  0  0  0
  -27.8730  -30.4361   23.9316 H   0  0  0  0  0  0
  -27.2656  -33.3630   26.2083 H   0  0  0  0  0  0
  -28.3835  -32.6926   25.0301 H   0  0  0  0  0  0
  -28.0731  -31.8456   26.5383 H   0  0  0  0  0  0
  -28.2560  -38.0126   24.7579 H   0  0  0  0  0  0
  -28.1115  -36.2664   24.6169 H   0  0  0  0  0  0
  -27.2316  -37.1313   25.8858 H   0  0  0  0  0  0
  -20.9295  -29.8758   21.6931 H   0  0  0  0  0  0
  -26.0157  -38.2863   24.1487 H   0  0  0  0  0  0
  -30.9876  -19.3768   23.8757 H   0  0  0  0  0  0
  -30.9354  -17.2965   22.5406 H   0  0  0  0  0  0
  -30.0000  -21.4579   23.0166 H   0  0  0  0  0  0
  -28.8395  -19.4088   19.4068 H   0  0  0  0  0  0
  -25.9625  -23.2948   20.0471 H   0  0  0  0  0  0
  -26.9624  -23.4576   18.6320 H   0  0  0  0  0  0
  -27.6823  -21.3139   18.8699 H   0  0  0  0  0  0
  -26.7399  -21.1394   20.3513 H   0  0  0  0  0  0
  -27.0109  -23.7808   22.4436 H   0  0  0  0  0  0
  -26.3593  -25.1587   21.5856 H   0  0  0  0  0  0
  -27.9403  -25.2679   22.3496 H   0  0  0  0  0  0
  -29.0648  -17.6570   18.1585 H   0  0  0  0  0  0
  -27.8859  -16.9363   19.2570 H   0  0  0  0  0  0
  -28.9691  -15.9264   18.3023 H   0  0  0  0  0  0
  -28.0554  -25.3243   18.6080 H   0  0  0  0  0  0
  -29.5452  -25.1697   19.4132 H   0  0  0  0  0  0
  -30.9196  -16.9446   19.5286 H   0  0  0  0  0  0
  -28.9652  -15.3714   21.1356 H   0  0  0  0  0  0
  1 25  1  0  0  0
  1 30  2  0  0  0
  1 86  1  0  0  0
  2  3  1  0  0  0
  2 25  1  0  0  0
  2 88  1  0  0  0
  2 89  1  0  0  0
  3  4  1  0  0  0
  3 90  1  0  0  0
  3 91  1  0  0  0
  4  5  1  0  0  0
  4 92  1  0  0  0
  4 93  1  0  0  0
  5  6  1  0  0  0
  5 26  1  0  0  0
  5 94  1  0  0  0
  6 25  1  0  0  0
  6 95  1  0  0  0
  6 96  1  0  0  0
  7  8  2  0  0  0
  7 26  1  0  0  0
  7 29  1  0  0  0
  8  9  1  0  0  0
  8 22  1  0  0  0
  9 10  1  0  0  0
  9 27  2  0  0  0
 10 11  2  0  0  0
 10 15  1  0  0  0
 11 12  1  0  0  0
 11 97  1  0  0  0
 12 13  2  0  0  0
 12 98  1  0  0  0
 13 14  1  0  0  0
 13 31  1  0  0  0
 14 15  2  0  0  0
 14 99  1  0  0  0
 15100  1  0  0  0
 16 17  2  0  0  0
 16 21  1  0  0  0
 16 31  1  0  0  0
 17 18  1  0  0  0
 17101  1  0  0  0
 18 19  2  0  0  0
 18102  1  0  0  0
 19 20  1  0  0  0
 19 24  1  0  0  0
 20 21  2  0  0  0
 20103  1  0  0  0
 21 23  1  0  0  0
 22 28  1  0  0  0
 22 32  2  0  0  0
 26 27  1  0  0  0
 28104  1  0  0  0
 28105  1  0  0  0
 29106  1  0  0  0
 29107  1  0  0  0
 33 34  1  0  0  0
 33 66  1  0  0  0
 33 70  2  0  0  0
 34 36  1  0  0  0
 34 59  1  0  0  0
 34108  1  0  0  0
 35 44  2  0  0  0
 35 45  1  0  0  0
 35 68  1  0  0  0
 36 56  1  0  0  0
 36109  1  0  0  0
 37 39  1  0  0  0
 37 47  1  0  0  0
 37 66  1  0  0  0
 37110  1  0  0  0
 38 43  2  0  0  0
 38 46  1  0  0  0
 38 47  1  0  0  0
 39 64  1  0  0  0
 39 67  2  0  0  0
 40 52  1  0  0  0
 40 53  2  0  0  0
 40 58  1  0  0  0
 41111  1  0  0  0
 41112  1  0  0  0
 41113  1  0  0  0
 41 48  1  0  0  0
 42 43  1  0  0  0
 42 66  1  0  0  0
 42114  1  0  0  0
 42115  1  0  0  0
 43 44  1  0  0  0
 44116  1  0  0  0
 45 46  2  0  0  0
 45117  1  0  0  0
 46118  1  0  0  0
 47119  1  0  0  0
 47120  1  0  0  0
 48 56  1  0  0  0
 48 65  1  0  0  0
 48121  1  0  0  0
 49 50  1  0  0  0
 49 53  1  0  0  0
 49 64  1  0  0  0
 49122  1  0  0  0
 50 51  1  0  0  0
 50123  1  0  0  0
 50124  1  0  0  0
 51 52  1  0  0  0
 51125  1  0  0  0
 51126  1  0  0  0
 52127  1  0  0  0
 52128  1  0  0  0
 53 54  1  0  0  0
 54 55  2  0  0  0
 54129  1  0  0  0
 55 57  1  0  0  0
 55130  1  0  0  0
 56 69  2  0  0  0
 57 58  2  0  0  0
 57131  1  0  0  0
 58132  1  0  0  0
 59 60  1  0  0  0
 59 61  1  0  0  0
 59 62  1  0  0  0
 60133  1  0  0  0
 60134  1  0  0  0
 60135  1  0  0  0
 61136  1  0  0  0
 61137  1  0  0  0
 61138  1  0  0  0
 62139  1  0  0  0
 62140  1  0  0  0
 62141  1  0  0  0
 63 65  1  0  0  0
 63142  1  0  0  0
 63143  1  0  0  0
 63144  1  0  0  0
 64145  1  0  0  0
 65146  1  0  0  0
 68 83  1  0  0  0
 71 72  2  0  0  0
 71 73  1  0  0  0
 71147  1  0  0  0
 72 75  1  0  0  0
 72148  1  0  0  0
 73 76  2  0  0  0
 73149  1  0  0  0
 74 75  2  0  0  0
 74 76  1  0  0  0
 74150  1  0  0  0
 75 84  1  0  0  0
 76 85  1  0  0  0
 77 80  1  0  0  0
 77 85  1  0  0  0
 77 87  2  0  0  0
 78 79  1  0  0  0
 78 80  1  0  0  0
 78151  1  0  0  0
 78152  1  0  0  0
 79 85  1  0  0  0
 79153  1  0  0  0
 79154  1  0  0  0
 80 81  1  0  0  0
 80 83  1  0  0  0
 81155  1  0  0  0
 81156  1  0  0  0
 81157  1  0  0  0
 82158  1  0  0  0
 82159  1  0  0  0
 82160  1  0  0  0
 82 84  1  0  0  0
 83161  1  0  0  0
 83162  1  0  0  0
 84 86  1  0  0  0
 84163  1  0  0  0
 86164  1  0  0  0
M  ISO  4   1 100  68 101  83 101  86 100
M  END
> <chiral flag>
0

> <version>
0

> <s_m_source_file>
/data/baiqing/PycharmProjects/Reinvent-master-3.2/result/LINK_invent/BTK/process_docking_weight1_custom_product_contain_oxygen_bond_distance_aromatic_linkinvent_7_9_3/rearranged_h_0075.sdf

> <i_m_source_file_index>
24

> <r_mmod_Potential_Energy-OPLS-2005>
64.7001953125

> <r_mmod_Stretch_Energy-OPLS-2005>
51.5474014282227

> <r_mmod_Bend_Energy-OPLS-2005>
134.560409545898

> <r_mmod_Torsional_Energy-OPLS-2005>
282.310455322266

> <r_mmod_Improper_Torsional_Energy-OPLS-2005>
9.2412748336792

> <r_mmod_Van_der_Waal_Energy-OPLS-2005>
153.110229492188

> <r_mmod_Electrostatic_Energy-OPLS-2005>
-366.779052734375

> <r_mmod_Solvation_Energy-OPLS-2005>
-220.475494384766

> <b_mmod_Minimization_Converged-OPLS-2005>
0

> <r_mmod_RMS_Derivative-OPLS-2005>
0.924563646316528

$$$$
24
                    3D
 Structure written by MMmdl.
160168  0  0  1  0            999 V2000
  -30.6656  -14.5074   20.5622 C   0  0  0  0  0  0
  -30.4297  -12.3149   19.4493 C   0  0  0  0  0  0
  -29.5048  -12.4966   18.2236 C   0  0  0  0  0  0
  -28.0252  -12.3485   18.6299 C   0  0  0  0  0  0
  -27.6609  -13.2037   19.8733 C   0  0  2  0  0  0
  -28.6959  -12.9950   21.0024 C   0  0  0  0  0  0
  -25.2612  -13.8172   20.5693 C   0  0  0  0  0  0
  -24.1850  -13.0450   20.9163 C   0  0  0  0  0  0
  -24.6382  -11.6905   20.8700 C   0  0  0  0  0  0
  -23.9031  -10.4301   21.0395 C   0  0  0  0  0  0
  -24.3595   -9.4209   21.9174 C   0  0  0  0  0  0
  -23.6265   -8.2248   22.0727 C   0  0  0  0  0  0
  -22.4254   -8.0269   21.3520 C   0  0  0  0  0  0
  -21.9880   -9.0259   20.4640 C   0  0  0  0  0  0
  -22.7189  -10.2149   20.3058 C   0  0  0  0  0  0
  -21.6853   -6.0714   22.5266 C   0  0  0  0  0  0
  -21.4025   -6.5631   23.8194 C   0  0  0  0  0  0
  -21.3657   -5.6788   24.9159 C   0  0  0  0  0  0
  -21.6046   -4.3046   24.7214 C   0  0  0  0  0  0
  -21.8829   -3.8119   23.4335 C   0  0  0  0  0  0
  -21.9190   -4.6941   22.3393 C   0  0  0  0  0  0
  -22.7881  -13.5268   21.1824 C   0  0  0  0  0  0
  -22.1661   -4.2127   21.0970 F   0  0  0  0  0  0
  -21.5609   -3.4538   25.7722 F   0  0  0  0  0  0
  -30.0339  -13.3035   20.4664 N   0  0  0  0  0  0
  -26.3010  -12.9312   20.3329 N   0  0  0  0  0  0
  -25.9309  -11.6475   20.5746 N   0  0  0  0  0  0
  -22.0531  -12.8279   22.0397 N   0  0  0  0  0  0
  -25.4385  -15.1889   20.4161 N   0  0  0  0  0  0
  -31.7703  -14.7227   20.0487 O   0  0  0  0  0  0
  -21.6624   -6.8851   21.4216 O   0  0  0  0  0  0
  -22.3566  -14.5573   20.6642 O   0  0  0  0  0  0
  -24.6147  -31.8642   23.2088 C   0  0  0  0  0  0
  -25.9024  -32.4809   23.8392 C   0  0  1  0  0  0
  -27.2248  -27.4151   20.1039 C   0  0  0  0  0  0
  -25.5853  -33.8602   24.2314 N   0  0  0  0  0  0
  -23.4062  -30.4886   21.5477 C   0  0  2  0  0  0
  -24.8557  -28.9576   20.1081 C   0  0  0  0  0  0
  -22.7436  -29.4626   22.4953 C   0  0  0  0  0  0
  -18.0281  -28.1384   22.8485 C   0  0  0  0  0  0
  -24.1475  -36.7319   23.2629 C   0  0  0  0  0  0
  -25.9382  -30.8288   21.3638 C   0  0  0  0  0  0
  -26.0179  -29.4633   20.7073 C   0  0  0  0  0  0
  -27.2108  -28.6986   20.7038 C   0  0  0  0  0  0
  -26.0515  -26.9314   19.4936 C   0  0  0  0  0  0
  -24.8683  -27.6923   19.4959 C   0  0  0  0  0  0
  -23.6170  -29.8240   20.1613 C   0  0  0  0  0  0
  -25.4088  -36.3099   24.0335 C   0  0  1  0  0  0
  -20.5879  -28.3667   23.1311 C   0  0  2  0  0  0
  -20.6752  -26.9386   22.5440 C   0  0  0  0  0  0
  -19.5750  -26.6376   21.5221 C   0  0  0  0  0  0
  -18.1925  -26.7923   22.1623 C   0  0  0  0  0  0
  -19.1537  -28.8841   23.2892 C   0  0  0  0  0  0
  -18.9459  -30.1441   23.8923 C   0  0  0  0  0  0
  -17.6462  -30.6566   24.0586 C   0  0  0  0  0  0
  -25.9030  -34.9463   23.5140 C   0  0  0  0  0  0
  -16.5353  -29.9083   23.6324 C   0  0  0  0  0  0
  -16.7271  -28.6507   23.0326 C   0  0  0  0  0  0
  -26.4452  -31.6595   25.0714 C   0  0  0  0  0  0
  -25.3740  -31.3775   26.1494 C   0  0  0  0  0  0
  -27.0250  -30.3016   24.6112 C   0  0  0  0  0  0
  -27.6057  -32.4310   25.7428 C   0  0  0  0  0  0
  -27.5593  -37.1773   24.8427 C   0  0  0  0  0  0
  -21.4166  -29.3002   22.3687 N   0  0  0  0  0  0
  -26.4271  -37.3783   23.9425 N   0  0  0  0  0  0
  -24.6719  -31.0743   22.0991 N   0  0  0  0  0  0
  -23.4199  -28.8182   23.3009 O   0  0  0  0  0  0
  -28.3127  -26.5723   20.1691 O   0  0  0  0  0  0
  -26.5640  -34.8918   22.4731 O   0  0  0  0  0  0
  -23.5331  -32.1387   23.7473 O   0  0  0  0  0  0
  -29.6457  -18.6380   19.1193 C   0  0  0  0  0  0
  -29.0684  -19.1381   21.4212 C   0  0  0  0  0  0
  -29.9665  -17.3058   19.4790 C   0  0  0  0  0  0
  -29.3688  -17.7969   21.7777 C   0  0  0  0  0  0
  -29.1779  -19.5701   20.0784 C   0  0  0  0  0  0
  -29.8117  -16.8557   20.8150 C   0  0  0  0  0  0
  -28.2138  -25.6491   21.1938 C   0  0  0  0  0  0
  -28.7674  -20.9339   19.6487 C   0  0  0  0  0  0
  -28.4661  -24.3124   21.1624 C   0  0  0  0  0  0
  -28.2252  -23.5096   22.4360 C   0  0  0  0  0  0
  -30.2540  -24.1122   19.3674 C   0  0  0  0  0  0
  -28.9643  -23.5051   19.9436 C   0  0  1  0  0  0
  -27.9586  -21.0396   18.5951 N   0  0  0  0  0  0
  -29.9775  -15.4792   21.2000 N   0  0  0  0  0  0
  -29.1927  -22.0569   20.2766 N   0  3  0  0  0  0
  -31.4756  -12.4183   19.1572 H   0  0  0  0  0  0
  -30.3345  -11.3067   19.8602 H   0  0  0  0  0  0
  -29.7532  -11.7605   17.4576 H   0  0  0  0  0  0
  -29.6663  -13.4773   17.7741 H   0  0  0  0  0  0
  -27.8515  -11.2929   18.8416 H   0  0  0  0  0  0
  -27.3739  -12.5980   17.7911 H   0  0  0  0  0  0
  -27.6994  -14.2495   19.5686 H   0  0  0  0  0  0
  -28.6714  -11.9621   21.3505 H   0  0  0  0  0  0
  -28.4415  -13.5963   21.8763 H   0  0  0  0  0  0
  -25.2769   -9.5682   22.4713 H   0  0  0  0  0  0
  -23.9978   -7.4659   22.7471 H   0  0  0  0  0  0
  -21.0780   -8.8790   19.8986 H   0  0  0  0  0  0
  -22.3637  -10.9689   19.6163 H   0  0  0  0  0  0
  -21.2044   -7.6151   23.9703 H   0  0  0  0  0  0
  -21.1464   -6.0511   25.9064 H   0  0  0  0  0  0
  -22.0609   -2.7575   23.2848 H   0  0  0  0  0  0
  -22.4147  -11.9934   22.4776 H   0  0  0  0  0  0
  -21.1166  -13.1319   22.2655 H   0  0  0  0  0  0
  -24.6760  -15.8478   20.5279 H   0  0  0  0  0  0
  -26.2996  -15.6264   20.1102 H   0  0  0  0  0  0
  -26.7088  -32.5512   23.1151 H   0  0  0  0  0  0
  -24.9938  -33.9748   25.0417 H   0  0  0  0  0  0
  -22.6953  -31.3057   21.4078 H   0  0  0  0  0  0
  -23.3688  -35.9700   23.3317 H   0  0  0  0  0  0
  -24.3570  -36.8896   22.2035 H   0  0  0  0  0  0
  -23.7284  -37.6557   23.6627 H   0  0  0  0  0  0
  -26.0495  -31.5956   20.5952 H   0  0  0  0  0  0
  -26.8263  -30.8845   21.9824 H   0  0  0  0  0  0
  -28.1034  -29.0726   21.1856 H   0  0  0  0  0  0
  -26.0467  -25.9486   19.0442 H   0  0  0  0  0  0
  -23.9738  -27.2968   19.0355 H   0  0  0  0  0  0
  -23.7266  -30.6014   19.4046 H   0  0  0  0  0  0
  -22.7405  -29.2466   19.8618 H   0  0  0  0  0  0
  -25.1246  -36.1968   25.0824 H   0  0  0  0  0  0
  -20.9976  -28.3243   24.1433 H   0  0  0  0  0  0
  -20.5606  -26.2289   23.3645 H   0  0  0  0  0  0
  -21.6625  -26.7369   22.1277 H   0  0  0  0  0  0
  -19.6905  -25.6297   21.1220 H   0  0  0  0  0  0
  -19.6702  -27.3220   20.6782 H   0  0  0  0  0  0
  -17.4191  -26.6675   21.4022 H   0  0  0  0  0  0
  -18.0311  -26.0074   22.9035 H   0  0  0  0  0  0
  -19.7926  -30.7252   24.2316 H   0  0  0  0  0  0
  -17.5000  -31.6241   24.5198 H   0  0  0  0  0  0
  -15.5356  -30.2993   23.7626 H   0  0  0  0  0  0
  -15.8670  -28.0847   22.7017 H   0  0  0  0  0  0
  -24.5883  -30.7122   25.7889 H   0  0  0  0  0  0
  -24.8967  -32.2968   26.4897 H   0  0  0  0  0  0
  -25.8093  -30.8999   27.0276 H   0  0  0  0  0  0
  -26.2793  -29.6795   24.1137 H   0  0  0  0  0  0
  -27.3958  -29.7242   25.4589 H   0  0  0  0  0  0
  -27.8659  -30.4302   23.9294 H   0  0  0  0  0  0
  -27.2685  -33.3574   26.2085 H   0  0  0  0  0  0
  -28.3783  -32.6922   25.0187 H   0  0  0  0  0  0
  -28.0807  -31.8390   26.5253 H   0  0  0  0  0  0
  -28.2559  -38.0116   24.7510 H   0  0  0  0  0  0
  -28.1133  -36.2653   24.6156 H   0  0  0  0  0  0
  -27.2349  -37.1299   25.8836 H   0  0  0  0  0  0
  -20.9352  -29.8751   21.6919 H   0  0  0  0  0  0
  -26.0153  -38.2839   24.1494 H   0  0  0  0  0  0
  -29.7461  -18.9409   18.0842 H   0  0  0  0  0  0
  -28.7108  -19.8194   22.1815 H   0  0  0  0  0  0
  -30.2909  -16.6265   18.7021 H   0  0  0  0  0  0
  -29.2356  -17.4900   22.8071 H   0  0  0  0  0  0
  -27.8713  -26.1248   22.1040 H   0  0  0  0  0  0
  -27.8420  -24.1356   23.2419 H   0  0  0  0  0  0
  -29.1494  -23.0525   22.7894 H   0  0  0  0  0  0
  -27.4876  -22.7255   22.2613 H   0  0  0  0  0  0
  -30.1194  -25.1592   19.0968 H   0  0  0  0  0  0
  -30.5654  -23.5883   18.4638 H   0  0  0  0  0  0
  -31.0749  -24.0652   20.0838 H   0  0  0  0  0  0
  -28.1834  -23.5868   19.1854 H   0  0  0  0  0  0
  -27.5770  -20.1971   18.1875 H   0  0  0  0  0  0
  -27.6238  -21.9243   18.2534 H   0  0  0  0  0  0
  -29.2788  -15.1329   21.8414 H   0  0  0  0  0  0
  -29.8028  -21.8932   21.0678 H   0  0  0  0  0  0
  1 25  1  0  0  0
  1 30  2  0  0  0
  1 84  1  0  0  0
  2  3  1  0  0  0
  2 25  1  0  0  0
  2 86  1  0  0  0
  2 87  1  0  0  0
  3  4  1  0  0  0
  3 88  1  0  0  0
  3 89  1  0  0  0
  4  5  1  0  0  0
  4 90  1  0  0  0
  4 91  1  0  0  0
  5  6  1  0  0  0
  5 26  1  0  0  0
  5 92  1  0  0  0
  6 25  1  0  0  0
  6 93  1  0  0  0
  6 94  1  0  0  0
  7  8  2  0  0  0
  7 26  1  0  0  0
  7 29  1  0  0  0
  8  9  1  0  0  0
  8 22  1  0  0  0
  9 10  1  0  0  0
  9 27  2  0  0  0
 10 11  2  0  0  0
 10 15  1  0  0  0
 11 12  1  0  0  0
 11 95  1  0  0  0
 12 13  2  0  0  0
 12 96  1  0  0  0
 13 14  1  0  0  0
 13 31  1  0  0  0
 14 15  2  0  0  0
 14 97  1  0  0  0
 15 98  1  0  0  0
 16 17  2  0  0  0
 16 21  1  0  0  0
 16 31  1  0  0  0
 17 18  1  0  0  0
 17 99  1  0  0  0
 18 19  2  0  0  0
 18100  1  0  0  0
 19 20  1  0  0  0
 19 24  1  0  0  0
 20 21  2  0  0  0
 20101  1  0  0  0
 21 23  1  0  0  0
 22 28  1  0  0  0
 22 32  2  0  0  0
 26 27  1  0  0  0
 28102  1  0  0  0
 28103  1  0  0  0
 29104  1  0  0  0
 29105  1  0  0  0
 33 34  1  0  0  0
 33 66  1  0  0  0
 33 70  2  0  0  0
 34 36  1  0  0  0
 34 59  1  0  0  0
 34106  1  0  0  0
 35 44  2  0  0  0
 35 45  1  0  0  0
 35 68  1  0  0  0
 36 56  1  0  0  0
 36107  1  0  0  0
 37 39  1  0  0  0
 37 47  1  0  0  0
 37 66  1  0  0  0
 37108  1  0  0  0
 38 43  2  0  0  0
 38 46  1  0  0  0
 38 47  1  0  0  0
 39 64  1  0  0  0
 39 67  2  0  0  0
 40 52  1  0  0  0
 40 53  2  0  0  0
 40 58  1  0  0  0
 41109  1  0  0  0
 41110  1  0  0  0
 41111  1  0  0  0
 41 48  1  0  0  0
 42 43  1  0  0  0
 42 66  1  0  0  0
 42112  1  0  0  0
 42113  1  0  0  0
 43 44  1  0  0  0
 44114  1  0  0  0
 45 46  2  0  0  0
 45115  1  0  0  0
 46116  1  0  0  0
 47117  1  0  0  0
 47118  1  0  0  0
 48 56  1  0  0  0
 48 65  1  0  0  0
 48119  1  0  0  0
 49 50  1  0  0  0
 49 53  1  0  0  0
 49 64  1  0  0  0
 49120  1  0  0  0
 50 51  1  0  0  0
 50121  1  0  0  0
 50122  1  0  0  0
 51 52  1  0  0  0
 51123  1  0  0  0
 51124  1  0  0  0
 52125  1  0  0  0
 52126  1  0  0  0
 53 54  1  0  0  0
 54 55  2  0  0  0
 54127  1  0  0  0
 55 57  1  0  0  0
 55128  1  0  0  0
 56 69  2  0  0  0
 57 58  2  0  0  0
 57129  1  0  0  0
 58130  1  0  0  0
 59 60  1  0  0  0
 59 61  1  0  0  0
 59 62  1  0  0  0
 60131  1  0  0  0
 60132  1  0  0  0
 60133  1  0  0  0
 61134  1  0  0  0
 61135  1  0  0  0
 61136  1  0  0  0
 62137  1  0  0  0
 62138  1  0  0  0
 62139  1  0  0  0
 63 65  1  0  0  0
 63140  1  0  0  0
 63141  1  0  0  0
 63142  1  0  0  0
 64143  1  0  0  0
 65144  1  0  0  0
 68 77  1  0  0  0
 71 73  2  0  0  0
 71 75  1  0  0  0
 71145  1  0  0  0
 72 74  1  0  0  0
 72 75  2  0  0  0
 72146  1  0  0  0
 73 76  1  0  0  0
 73147  1  0  0  0
 74 76  2  0  0  0
 74148  1  0  0  0
 75 78  1  0  0  0
 76 84  1  0  0  0
 77 79  2  0  0  0
 77149  1  0  0  0
 78 83  1  0  0  0
 78 85  2  0  0  0
 79 80  1  0  0  0
 79 82  1  0  0  0
 80150  1  0  0  0
 80151  1  0  0  0
 80152  1  0  0  0
 81153  1  0  0  0
 81154  1  0  0  0
 81155  1  0  0  0
 81 82  1  0  0  0
 82 85  1  0  0  0
 82156  1  0  0  0
 83157  1  0  0  0
 83158  1  0  0  0
 84159  1  0  0  0
 85160  1  0  0  0
M  CHG  1  85   1
M  ISO  4   1 100  68 101  77 101  84 100
M  END
> <chiral flag>
0

> <version>
0

> <s_m_source_file>
/data/baiqing/PycharmProjects/Reinvent-master-3.2/result/LINK_invent/BTK/process_docking_weight1_custom_product_contain_oxygen_bond_distance_aromatic_linkinvent_7_9_3/rearranged_h_0075.sdf

> <i_m_source_file_index>
25

> <r_mmod_Potential_Energy-OPLS-2005>
-237.205032348633

> <r_mmod_Stretch_Energy-OPLS-2005>
45.1345710754395

> <r_mmod_Bend_Energy-OPLS-2005>
108.288604736328

> <r_mmod_Torsional_Energy-OPLS-2005>
246.143325805664

> <r_mmod_Improper_Torsional_Energy-OPLS-2005>
4.30162811279297

> <r_mmod_Van_der_Waal_Energy-OPLS-2005>
150.04411315918

> <r_mmod_Electrostatic_Energy-OPLS-2005>
-414.610809326172

> <r_mmod_Solvation_Energy-OPLS-2005>
-397.6201171875

> <b_mmod_Minimization_Converged-OPLS-2005>
0

> <r_mmod_RMS_Derivative-OPLS-2005>
3.47763729095459

$$$$
25
                    3D
 Structure written by MMmdl.
165174  0  0  1  0            999 V2000
  -30.5898  -14.6825   20.4693 C   0  0  0  0  0  0
  -30.4437  -12.4113   19.4596 C   0  0  0  0  0  0
  -29.5125  -12.5014   18.2292 C   0  0  0  0  0  0
  -28.0340  -12.3401   18.6396 C   0  0  0  0  0  0
  -27.6522  -13.2080   19.8683 C   0  0  2  0  0  0
  -28.6994  -13.0796   20.9962 C   0  0  0  0  0  0
  -25.2567  -13.8138   20.5717 C   0  0  0  0  0  0
  -24.1818  -13.0414   20.9182 C   0  0  0  0  0  0
  -24.6382  -11.6885   20.8736 C   0  0  0  0  0  0
  -23.9053  -10.4277   21.0402 C   0  0  0  0  0  0
  -24.3609   -9.4197   21.9182 C   0  0  0  0  0  0
  -23.6286   -8.2234   22.0757 C   0  0  0  0  0  0
  -22.4268   -8.0274   21.3546 C   0  0  0  0  0  0
  -21.9899   -9.0245   20.4647 C   0  0  0  0  0  0
  -22.7226  -10.2123   20.3054 C   0  0  0  0  0  0
  -21.6852   -6.0730   22.5279 C   0  0  0  0  0  0
  -21.4012   -6.5636   23.8211 C   0  0  0  0  0  0
  -21.3659   -5.6790   24.9173 C   0  0  0  0  0  0
  -21.6047   -4.3053   24.7224 C   0  0  0  0  0  0
  -21.8821   -3.8144   23.4345 C   0  0  0  0  0  0
  -21.9194   -4.6959   22.3401 C   0  0  0  0  0  0
  -22.7846  -13.5221   21.1845 C   0  0  0  0  0  0
  -22.1663   -4.2147   21.0977 F   0  0  0  0  0  0
  -21.5631   -3.4537   25.7736 F   0  0  0  0  0  0
  -30.0084  -13.4391   20.4273 N   0  0  0  0  0  0
  -26.2987  -12.9299   20.3358 N   0  0  0  0  0  0
  -25.9310  -11.6464   20.5769 N   0  0  0  0  0  0
  -22.0485  -12.8219   22.0403 N   0  0  0  0  0  0
  -25.4283  -15.1864   20.4196 N   0  0  0  0  0  0
  -31.7534  -14.8552   20.0927 O   0  0  0  0  0  0
  -21.6637   -6.8871   21.4240 O   0  0  0  0  0  0
  -22.3539  -14.5533   20.6698 O   0  0  0  0  0  0
  -24.6250  -31.8577   23.1995 C   0  0  0  0  0  0
  -25.9098  -32.4765   23.8334 C   0  0  1  0  0  0
  -27.2383  -27.3204   20.1124 C   0  0  0  0  0  0
  -25.5910  -33.8568   24.2260 N   0  0  0  0  0  0
  -23.4195  -30.4773   21.5415 C   0  0  2  0  0  0
  -24.8683  -28.9251   20.1091 C   0  0  0  0  0  0
  -22.7465  -29.4608   22.4938 C   0  0  0  0  0  0
  -18.0281  -28.1383   22.8487 C   0  0  0  0  0  0
  -24.1489  -36.7293   23.2642 C   0  0  0  0  0  0
  -25.9578  -30.7870   21.3700 C   0  0  0  0  0  0
  -26.0322  -29.4125   20.7144 C   0  0  0  0  0  0
  -27.2139  -28.6183   20.7099 C   0  0  0  0  0  0
  -26.0501  -26.8739   19.4935 C   0  0  0  0  0  0
  -24.8785  -27.6612   19.4928 C   0  0  0  0  0  0
  -23.6339  -29.8036   20.1587 C   0  0  0  0  0  0
  -25.4115  -36.3079   24.0327 C   0  0  1  0  0  0
  -20.5879  -28.3683   23.1288 C   0  0  2  0  0  0
  -20.6769  -26.9407   22.5414 C   0  0  0  0  0  0
  -19.5748  -26.6382   21.5211 C   0  0  0  0  0  0
  -18.1926  -26.7926   22.1621 C   0  0  0  0  0  0
  -19.1533  -28.8850   23.2883 C   0  0  0  0  0  0
  -18.9457  -30.1452   23.8898 C   0  0  0  0  0  0
  -17.6458  -30.6585   24.0561 C   0  0  0  0  0  0
  -25.9050  -34.9447   23.5100 C   0  0  0  0  0  0
  -16.5350  -29.9083   23.6331 C   0  0  0  0  0  0
  -16.7270  -28.6500   23.0354 C   0  0  0  0  0  0
  -26.4487  -31.6586   25.0712 C   0  0  0  0  0  0
  -25.3717  -31.3722   26.1437 C   0  0  0  0  0  0
  -27.0340  -30.3013   24.6177 C   0  0  0  0  0  0
  -27.6046  -32.4325   25.7483 C   0  0  0  0  0  0
  -27.5580  -37.1800   24.8464 C   0  0  0  0  0  0
  -21.4180  -29.3033   22.3679 N   0  0  0  0  0  0
  -26.4294  -37.3774   23.9407 N   0  0  0  0  0  0
  -24.6861  -31.0583   22.0941 N   0  0  0  0  0  0
  -23.4187  -28.8162   23.3030 O   0  0  0  0  0  0
  -28.3907  -26.5260   20.1887 O   0  0  0  0  0  0
  -26.5628  -34.8916   22.4673 O   0  0  0  0  0  0
  -23.5416  -32.1376   23.7325 O   0  0  0  0  0  0
  -29.9400  -19.5781   20.9925 C   0  0  0  0  0  0
  -30.1879  -18.1881   21.2613 C   0  0  0  0  0  0
  -28.7145  -18.9576   19.0460 C   0  0  0  0  0  0
  -28.9772  -17.5756   19.2834 C   0  0  0  0  0  0
  -29.1843  -20.0249   19.8686 C   0  0  0  0  0  0
  -29.7187  -17.1398   20.4171 C   0  0  0  0  0  0
  -30.4679  -21.9574   17.7416 C   0  0  0  0  0  0
  -31.0988  -21.2588   16.7846 C   0  0  0  0  0  0
  -28.3663  -23.9186   20.4304 C   0  0  0  0  0  0
  -31.1531  -23.0390   18.5572 C   0  0  0  0  0  0
  -29.0128  -21.7243   18.1081 C   0  0  0  0  0  0
  -30.8065  -22.9358   20.0624 C   0  0  0  0  0  0
  -29.3195  -22.6006   20.3661 C   0  0  2  0  0  0
  -28.4043  -16.5818   18.2890 C   0  0  0  0  0  0
  -28.5500  -25.2090   19.5269 C   0  0  0  0  0  0
  -28.8897  -21.4153   19.5407 N   0  0  0  0  0  0
  -29.7595  -15.7235   20.8138 N   0  0  0  0  0  0
  -27.4266  -23.9326   21.2302 O   0  0  0  0  0  0
  -31.4833  -12.5465   19.1566 H   0  0  0  0  0  0
  -30.3912  -11.4197   19.9117 H   0  0  0  0  0  0
  -29.7814  -11.7384   17.4975 H   0  0  0  0  0  0
  -29.6549  -13.4603   17.7299 H   0  0  0  0  0  0
  -27.8712  -11.2866   18.8691 H   0  0  0  0  0  0
  -27.3814  -12.5703   17.7965 H   0  0  0  0  0  0
  -27.6611  -14.2385   19.5279 H   0  0  0  0  0  0
  -28.7235  -12.0596   21.3825 H   0  0  0  0  0  0
  -28.4393  -13.7126   21.8460 H   0  0  0  0  0  0
  -25.2756   -9.5676   22.4751 H   0  0  0  0  0  0
  -24.0001   -7.4626   22.7476 H   0  0  0  0  0  0
  -21.0834   -8.8758   19.8949 H   0  0  0  0  0  0
  -22.3687  -10.9662   19.6162 H   0  0  0  0  0  0
  -21.2001   -7.6142   23.9711 H   0  0  0  0  0  0
  -21.1482   -6.0520   25.9075 H   0  0  0  0  0  0
  -22.0601   -2.7607   23.2844 H   0  0  0  0  0  0
  -22.4097  -11.9876   22.4785 H   0  0  0  0  0  0
  -21.1107  -13.1254   22.2611 H   0  0  0  0  0  0
  -24.6623  -15.8397   20.5429 H   0  0  0  0  0  0
  -26.2878  -15.6365   20.1361 H   0  0  0  0  0  0
  -26.7165  -32.5432   23.1082 H   0  0  0  0  0  0
  -25.0044  -33.9714   25.0395 H   0  0  0  0  0  0
  -22.7135  -31.2973   21.3946 H   0  0  0  0  0  0
  -23.3752  -35.9625   23.3303 H   0  0  0  0  0  0
  -24.3579  -36.8918   22.2058 H   0  0  0  0  0  0
  -23.7242  -37.6492   23.6667 H   0  0  0  0  0  0
  -26.0881  -31.5494   20.6008 H   0  0  0  0  0  0
  -26.8385  -30.8380   21.9988 H   0  0  0  0  0  0
  -28.1080  -28.9890   21.1918 H   0  0  0  0  0  0
  -25.9968  -25.8990   19.0329 H   0  0  0  0  0  0
  -23.9824  -27.2791   19.0238 H   0  0  0  0  0  0
  -23.7475  -30.5757   19.3968 H   0  0  0  0  0  0
  -22.7554  -29.2274   19.8623 H   0  0  0  0  0  0
  -25.1299  -36.1933   25.0820 H   0  0  0  0  0  0
  -20.9969  -28.3258   24.1409 H   0  0  0  0  0  0
  -20.5662  -26.2295   23.3613 H   0  0  0  0  0  0
  -21.6639  -26.7431   22.1212 H   0  0  0  0  0  0
  -19.6910  -25.6291   21.1244 H   0  0  0  0  0  0
  -19.6688  -27.3190   20.6740 H   0  0  0  0  0  0
  -17.4196  -26.6674   21.4022 H   0  0  0  0  0  0
  -18.0324  -26.0065   22.9014 H   0  0  0  0  0  0
  -19.7934  -30.7267   24.2266 H   0  0  0  0  0  0
  -17.5013  -31.6266   24.5162 H   0  0  0  0  0  0
  -15.5350  -30.2985   23.7654 H   0  0  0  0  0  0
  -15.8671  -28.0818   22.7072 H   0  0  0  0  0  0
  -24.5889  -30.7080   25.7755 H   0  0  0  0  0  0
  -24.8911  -32.2888   26.4868 H   0  0  0  0  0  0
  -25.8034  -30.8887   27.0209 H   0  0  0  0  0  0
  -26.2920  -29.6751   24.1209 H   0  0  0  0  0  0
  -27.4047  -29.7282   25.4688 H   0  0  0  0  0  0
  -27.8779  -30.4304   23.9396 H   0  0  0  0  0  0
  -27.2656  -33.3621   26.2068 H   0  0  0  0  0  0
  -28.3849  -32.6894   25.0306 H   0  0  0  0  0  0
  -28.0724  -31.8447   26.5392 H   0  0  0  0  0  0
  -28.2598  -38.0097   24.7510 H   0  0  0  0  0  0
  -28.1076  -36.2629   24.6291 H   0  0  0  0  0  0
  -27.2297  -37.1449   25.8866 H   0  0  0  0  0  0
  -20.9360  -29.8752   21.6885 H   0  0  0  0  0  0
  -26.0176  -38.2850   24.1401 H   0  0  0  0  0  0
  -30.3359  -20.3021   21.6885 H   0  0  0  0  0  0
  -30.7264  -17.9310   22.1619 H   0  0  0  0  0  0
  -28.0887  -19.1733   18.1953 H   0  0  0  0  0  0
  -32.1365  -21.4420   16.5460 H   0  0  0  0  0  0
  -30.5885  -20.4895   16.2228 H   0  0  0  0  0  0
  -30.8526  -23.9981   18.1427 H   0  0  0  0  0  0
  -32.2344  -22.9865   18.4211 H   0  0  0  0  0  0
  -28.5673  -20.9949   17.4364 H   0  0  0  0  0  0
  -28.4643  -22.6409   17.8881 H   0  0  0  0  0  0
  -31.1094  -23.8484   20.5784 H   0  0  0  0  0  0
  -31.4258  -22.1486   20.4935 H   0  0  0  0  0  0
  -29.3153  -22.2360   21.3933 H   0  0  0  0  0  0
  -28.3610  -17.0183   17.2908 H   0  0  0  0  0  0
  -27.3900  -16.3025   18.5692 H   0  0  0  0  0  0
  -29.0162  -15.6851   18.2126 H   0  0  0  0  0  0
  -27.9157  -25.1279   18.6458 H   0  0  0  0  0  0
  -29.5673  -25.2122   19.1520 H   0  0  0  0  0  0
  -28.8759  -15.3804   21.1577 H   0  0  0  0  0  0
  1 25  1  0  0  0
  1 30  2  0  0  0
  1 87  1  0  0  0
  2  3  1  0  0  0
  2 25  1  0  0  0
  2 89  1  0  0  0
  2 90  1  0  0  0
  3  4  1  0  0  0
  3 91  1  0  0  0
  3 92  1  0  0  0
  4  5  1  0  0  0
  4 93  1  0  0  0
  4 94  1  0  0  0
  5  6  1  0  0  0
  5 26  1  0  0  0
  5 95  1  0  0  0
  6 25  1  0  0  0
  6 96  1  0  0  0
  6 97  1  0  0  0
  7  8  2  0  0  0
  7 26  1  0  0  0
  7 29  1  0  0  0
  8  9  1  0  0  0
  8 22  1  0  0  0
  9 10  1  0  0  0
  9 27  2  0  0  0
 10 11  2  0  0  0
 10 15  1  0  0  0
 11 12  1  0  0  0
 11 98  1  0  0  0
 12 13  2  0  0  0
 12 99  1  0  0  0
 13 14  1  0  0  0
 13 31  1  0  0  0
 14 15  2  0  0  0
 14100  1  0  0  0
 15101  1  0  0  0
 16 17  2  0  0  0
 16 21  1  0  0  0
 16 31  1  0  0  0
 17 18  1  0  0  0
 17102  1  0  0  0
 18 19  2  0  0  0
 18103  1  0  0  0
 19 20  1  0  0  0
 19 24  1  0  0  0
 20 21  2  0  0  0
 20104  1  0  0  0
 21 23  1  0  0  0
 22 28  1  0  0  0
 22 32  2  0  0  0
 26 27  1  0  0  0
 28105  1  0  0  0
 28106  1  0  0  0
 29107  1  0  0  0
 29108  1  0  0  0
 33 34  1  0  0  0
 33 66  1  0  0  0
 33 70  2  0  0  0
 34 36  1  0  0  0
 34 59  1  0  0  0
 34109  1  0  0  0
 35 44  2  0  0  0
 35 45  1  0  0  0
 35 68  1  0  0  0
 36 56  1  0  0  0
 36110  1  0  0  0
 37 39  1  0  0  0
 37 47  1  0  0  0
 37 66  1  0  0  0
 37111  1  0  0  0
 38 43  2  0  0  0
 38 46  1  0  0  0
 38 47  1  0  0  0
 39 64  1  0  0  0
 39 67  2  0  0  0
 40 52  1  0  0  0
 40 53  2  0  0  0
 40 58  1  0  0  0
 41112  1  0  0  0
 41113  1  0  0  0
 41114  1  0  0  0
 41 48  1  0  0  0
 42 43  1  0  0  0
 42 66  1  0  0  0
 42115  1  0  0  0
 42116  1  0  0  0
 43 44  1  0  0  0
 44117  1  0  0  0
 45 46  2  0  0  0
 45118  1  0  0  0
 46119  1  0  0  0
 47120  1  0  0  0
 47121  1  0  0  0
 48 56  1  0  0  0
 48 65  1  0  0  0
 48122  1  0  0  0
 49 50  1  0  0  0
 49 53  1  0  0  0
 49 64  1  0  0  0
 49123  1  0  0  0
 50 51  1  0  0  0
 50124  1  0  0  0
 50125  1  0  0  0
 51 52  1  0  0  0
 51126  1  0  0  0
 51127  1  0  0  0
 52128  1  0  0  0
 52129  1  0  0  0
 53 54  1  0  0  0
 54 55  2  0  0  0
 54130  1  0  0  0
 55 57  1  0  0  0
 55131  1  0  0  0
 56 69  2  0  0  0
 57 58  2  0  0  0
 57132  1  0  0  0
 58133  1  0  0  0
 59 60  1  0  0  0
 59 61  1  0  0  0
 59 62  1  0  0  0
 60134  1  0  0  0
 60135  1  0  0  0
 60136  1  0  0  0
 61137  1  0  0  0
 61138  1  0  0  0
 61139  1  0  0  0
 62140  1  0  0  0
 62141  1  0  0  0
 62142  1  0  0  0
 63 65  1  0  0  0
 63143  1  0  0  0
 63144  1  0  0  0
 63145  1  0  0  0
 64146  1  0  0  0
 65147  1  0  0  0
 68 85  1  0  0  0
 71 72  2  0  0  0
 71 75  1  0  0  0
 71148  1  0  0  0
 72 76  1  0  0  0
 72149  1  0  0  0
 73 74  1  0  0  0
 73 75  2  0  0  0
 73150  1  0  0  0
 74 76  2  0  0  0
 74 84  1  0  0  0
 75 86  1  0  0  0
 76 87  1  0  0  0
 77 78  2  0  0  0
 77 80  1  0  0  0
 77 81  1  0  0  0
 78151  1  0  0  0
 78152  1  0  0  0
 79 85  1  0  0  0
 79 88  2  0  0  0
 79 83  1  0  0  0
 80 82  1  0  0  0
 80153  1  0  0  0
 80154  1  0  0  0
 81 86  1  0  0  0
 81155  1  0  0  0
 81156  1  0  0  0
 82 83  1  0  0  0
 82157  1  0  0  0
 82158  1  0  0  0
 83 86  1  0  0  0
 83159  1  0  0  0
 84160  1  0  0  0
 84161  1  0  0  0
 84162  1  0  0  0
 85163  1  0  0  0
 85164  1  0  0  0
 87165  1  0  0  0
M  ISO  4   1 100  68 101  85 101  87 100
M  END
> <chiral flag>
0

> <version>
0

> <s_m_source_file>
/data/baiqing/PycharmProjects/Reinvent-master-3.2/result/LINK_invent/BTK/process_docking_weight1_custom_product_contain_oxygen_bond_distance_aromatic_linkinvent_7_9_3/rearranged_h_0075.sdf

> <i_m_source_file_index>
26

> <r_mmod_Potential_Energy-OPLS-2005>
164.695556640625

> <r_mmod_Stretch_Energy-OPLS-2005>
97.765380859375

> <r_mmod_Bend_Energy-OPLS-2005>
180.880477905273

> <r_mmod_Torsional_Energy-OPLS-2005>
256.914825439453

> <r_mmod_Improper_Torsional_Energy-OPLS-2005>
9.51131534576416

> <r_mmod_Van_der_Waal_Energy-OPLS-2005>
145.200836181641

> <r_mmod_Electrostatic_Energy-OPLS-2005>
-339.901062011719

> <r_mmod_Solvation_Energy-OPLS-2005>
-240.843765258789

> <b_mmod_Minimization_Converged-OPLS-2005>
0

> <r_mmod_RMS_Derivative-OPLS-2005>
0.547939300537109

$$$$
26
                    3D
 Structure written by MMmdl.
163172  0  0  1  0            999 V2000
  -30.6613  -14.7154   20.4596 C   0  0  0  0  0  0
  -30.4101  -12.4329   19.4836 C   0  0  0  0  0  0
  -29.4995  -12.5033   18.2399 C   0  0  0  0  0  0
  -28.0254  -12.3391   18.6513 C   0  0  0  0  0  0
  -27.6376  -13.2402   19.8552 C   0  0  2  0  0  0
  -28.6824  -13.1849   20.9923 C   0  0  0  0  0  0
  -25.2473  -13.8233   20.5717 C   0  0  0  0  0  0
  -24.1771  -13.0455   20.9220 C   0  0  0  0  0  0
  -24.6374  -11.6937   20.8756 C   0  0  0  0  0  0
  -23.9063  -10.4299   21.0406 C   0  0  0  0  0  0
  -24.3610   -9.4217   21.9188 C   0  0  0  0  0  0
  -23.6289   -8.2245   22.0754 C   0  0  0  0  0  0
  -22.4273   -8.0280   21.3537 C   0  0  0  0  0  0
  -21.9912   -9.0257   20.4637 C   0  0  0  0  0  0
  -22.7239  -10.2139   20.3057 C   0  0  0  0  0  0
  -21.6861   -6.0733   22.5279 C   0  0  0  0  0  0
  -21.4017   -6.5641   23.8213 C   0  0  0  0  0  0
  -21.3660   -5.6791   24.9177 C   0  0  0  0  0  0
  -21.6048   -4.3054   24.7227 C   0  0  0  0  0  0
  -21.8818   -3.8142   23.4348 C   0  0  0  0  0  0
  -21.9191   -4.6956   22.3405 C   0  0  0  0  0  0
  -22.7793  -13.5224   21.1884 C   0  0  0  0  0  0
  -22.1661   -4.2135   21.0980 F   0  0  0  0  0  0
  -21.5630   -3.4540   25.7747 F   0  0  0  0  0  0
  -29.9853  -13.5155   20.4050 N   0  0  0  0  0  0
  -26.2909  -12.9451   20.3324 N   0  0  0  0  0  0
  -25.9314  -11.6578   20.5784 N   0  0  0  0  0  0
  -22.0451  -12.8191   22.0431 N   0  0  0  0  0  0
  -25.4154  -15.1952   20.4137 N   0  0  0  0  0  0
  -31.8464  -14.7183   20.1277 O   0  0  0  0  0  0
  -21.6644   -6.8869   21.4233 O   0  0  0  0  0  0
  -22.3473  -14.5530   20.6746 O   0  0  0  0  0  0
  -24.6320  -31.8554   23.1996 C   0  0  0  0  0  0
  -25.9151  -32.4764   23.8332 C   0  0  1  0  0  0
  -27.2129  -27.2459   20.1247 C   0  0  0  0  0  0
  -25.5945  -33.8567   24.2257 N   0  0  0  0  0  0
  -23.4281  -30.4783   21.5460 C   0  0  2  0  0  0
  -24.8725  -28.9276   20.1073 C   0  0  0  0  0  0
  -22.7540  -29.4587   22.4940 C   0  0  0  0  0  0
  -18.0300  -28.1368   22.8481 C   0  0  0  0  0  0
  -24.1495  -36.7293   23.2634 C   0  0  0  0  0  0
  -25.9750  -30.7590   21.3849 C   0  0  0  0  0  0
  -26.0432  -29.3816   20.7265 C   0  0  0  0  0  0
  -27.2108  -28.5507   20.7303 C   0  0  0  0  0  0
  -26.0195  -26.8740   19.4619 C   0  0  0  0  0  0
  -24.8674  -27.6815   19.4659 C   0  0  0  0  0  0
  -23.6447  -29.8166   20.1598 C   0  0  0  0  0  0
  -25.4122  -36.3074   24.0322 C   0  0  1  0  0  0
  -20.5908  -28.3699   23.1271 C   0  0  2  0  0  0
  -20.6803  -26.9419   22.5405 C   0  0  0  0  0  0
  -19.5775  -26.6374   21.5212 C   0  0  0  0  0  0
  -18.1946  -26.7914   22.1611 C   0  0  0  0  0  0
  -19.1552  -28.8848   23.2864 C   0  0  0  0  0  0
  -18.9481  -30.1436   23.8890 C   0  0  0  0  0  0
  -17.6484  -30.6578   24.0546 C   0  0  0  0  0  0
  -25.9064  -34.9449   23.5097 C   0  0  0  0  0  0
  -16.5372  -29.9061   23.6322 C   0  0  0  0  0  0
  -16.7289  -28.6471   23.0358 C   0  0  0  0  0  0
  -26.4504  -31.6590   25.0731 C   0  0  0  0  0  0
  -25.3679  -31.3740   26.1418 C   0  0  0  0  0  0
  -27.0385  -30.3006   24.6225 C   0  0  0  0  0  0
  -27.6056  -32.4336   25.7507 C   0  0  0  0  0  0
  -27.5597  -37.1804   24.8465 C   0  0  0  0  0  0
  -21.4253  -29.3035   22.3684 N   0  0  0  0  0  0
  -26.4308  -37.3768   23.9392 N   0  0  0  0  0  0
  -24.6973  -31.0516   22.0985 N   0  0  0  0  0  0
  -23.4239  -28.8127   23.3041 O   0  0  0  0  0  0
  -28.3193  -26.3608   20.2195 O   0  0  0  0  0  0
  -26.5653  -34.8941   22.4671 O   0  0  0  0  0  0
  -23.5466  -32.1407   23.7291 O   0  0  0  0  0  0
  -31.3409  -20.0522   20.1787 C   0  0  0  0  0  0
  -31.7666  -17.6462   20.2929 C   0  0  0  0  0  0
  -29.9655  -19.8745   20.4391 C   0  0  0  0  0  0
  -32.2264  -18.9636   20.1145 C   0  0  0  0  0  0
  -30.4019  -17.3352   20.5288 C   0  0  0  0  0  0
  -29.5111  -18.4926   20.6110 C   0  0  0  0  0  0
  -28.4133  -21.4845   21.6081 C   0  0  0  0  0  0
  -29.3170  -22.3641   19.7005 C   0  0  0  0  0  0
  -28.8639  -23.6530   20.5134 C   0  0  2  0  0  0
  -27.9485  -22.9752   21.5762 C   0  0  0  0  0  0
  -26.4529  -23.0084   21.1970 C   0  0  0  0  0  0
  -28.1393  -23.6357   22.9586 C   0  0  0  0  0  0
  -28.3122  -24.9463   19.6925 C   0  0  0  0  0  0
  -29.1641  -21.1275   20.5468 N   0  0  0  0  0  0
  -33.5816  -19.1918   19.8760 N   0  0  0  0  0  0
  -29.9683  -15.9060   20.6794 N   0  0  0  0  0  0
  -28.1052  -20.7319   22.5376 O   0  0  0  0  0  0
  -28.1966  -18.2616   20.8338 F   0  0  0  0  0  0
  -31.4559  -12.5124   19.1844 H   0  0  0  0  0  0
  -30.3206  -11.4609   19.9709 H   0  0  0  0  0  0
  -29.7751  -11.7307   17.5202 H   0  0  0  0  0  0
  -29.6374  -13.4601   17.7341 H   0  0  0  0  0  0
  -27.8718  -11.2912   18.9085 H   0  0  0  0  0  0
  -27.3701  -12.5411   17.8020 H   0  0  0  0  0  0
  -27.6307  -14.2614   19.4733 H   0  0  0  0  0  0
  -28.7078  -12.1957   21.4505 H   0  0  0  0  0  0
  -28.4248  -13.8848   21.7886 H   0  0  0  0  0  0
  -25.2748   -9.5710   22.4768 H   0  0  0  0  0  0
  -24.0001   -7.4650   22.7484 H   0  0  0  0  0  0
  -21.0840   -8.8765   19.8943 H   0  0  0  0  0  0
  -22.3681  -10.9674   19.6162 H   0  0  0  0  0  0
  -21.2014   -7.6146   23.9707 H   0  0  0  0  0  0
  -21.1487   -6.0529   25.9079 H   0  0  0  0  0  0
  -22.0596   -2.7600   23.2860 H   0  0  0  0  0  0
  -22.4075  -11.9839   22.4777 H   0  0  0  0  0  0
  -21.1075  -13.1203   22.2663 H   0  0  0  0  0  0
  -24.6503  -15.8497   20.5368 H   0  0  0  0  0  0
  -26.2669  -15.6408   20.0960 H   0  0  0  0  0  0
  -26.7239  -32.5410   23.1088 H   0  0  0  0  0  0
  -25.0083  -33.9688   25.0395 H   0  0  0  0  0  0
  -22.7208  -31.2982   21.4067 H   0  0  0  0  0  0
  -23.3776  -35.9611   23.3285 H   0  0  0  0  0  0
  -24.3589  -36.8920   22.2051 H   0  0  0  0  0  0
  -23.7257  -37.6483   23.6683 H   0  0  0  0  0  0
  -26.1188  -31.5209   20.6168 H   0  0  0  0  0  0
  -26.8501  -30.8068   22.0213 H   0  0  0  0  0  0
  -28.1026  -28.8872   21.2403 H   0  0  0  0  0  0
  -25.9094  -25.9429   18.9351 H   0  0  0  0  0  0
  -23.9760  -27.3287   18.9671 H   0  0  0  0  0  0
  -23.7720  -30.5958   19.4079 H   0  0  0  0  0  0
  -22.7600  -29.2541   19.8573 H   0  0  0  0  0  0
  -25.1317  -36.1928   25.0826 H   0  0  0  0  0  0
  -20.9973  -28.3282   24.1397 H   0  0  0  0  0  0
  -20.5720  -26.2317   23.3614 H   0  0  0  0  0  0
  -21.6669  -26.7453   22.1188 H   0  0  0  0  0  0
  -19.6929  -25.6281   21.1248 H   0  0  0  0  0  0
  -19.6682  -27.3178   20.6743 H   0  0  0  0  0  0
  -17.4223  -26.6680   21.3997 H   0  0  0  0  0  0
  -18.0302  -26.0035   22.8988 H   0  0  0  0  0  0
  -19.7962  -30.7240   24.2254 H   0  0  0  0  0  0
  -17.5045  -31.6249   24.5161 H   0  0  0  0  0  0
  -15.5369  -30.2958   23.7640 H   0  0  0  0  0  0
  -15.8700  -28.0781   22.7073 H   0  0  0  0  0  0
  -24.5910  -30.7038   25.7724 H   0  0  0  0  0  0
  -24.8795  -32.2900   26.4757 H   0  0  0  0  0  0
  -25.7944  -30.8986   27.0256 H   0  0  0  0  0  0
  -26.2997  -29.6723   24.1242 H   0  0  0  0  0  0
  -27.4066  -29.7308   25.4763 H   0  0  0  0  0  0
  -27.8872  -30.4296   23.9504 H   0  0  0  0  0  0
  -27.2689  -33.3688   26.2009 H   0  0  0  0  0  0
  -28.3906  -32.6799   25.0340 H   0  0  0  0  0  0
  -28.0685  -31.8494   26.5466 H   0  0  0  0  0  0
  -28.2597  -38.0115   24.7547 H   0  0  0  0  0  0
  -28.1114  -36.2656   24.6271 H   0  0  0  0  0  0
  -27.2323  -37.1428   25.8866 H   0  0  0  0  0  0
  -20.9453  -29.8779   21.6901 H   0  0  0  0  0  0
  -26.0201  -38.2847   24.1369 H   0  0  0  0  0  0
  -31.7426  -21.0489   20.0687 H   0  0  0  0  0  0
  -32.5196  -16.8791   20.2470 H   0  0  0  0  0  0
  -30.3296  -22.4949   19.3231 H   0  0  0  0  0  0
  -28.6783  -22.2396   18.8238 H   0  0  0  0  0  0
  -29.7648  -23.9992   21.0223 H   0  0  0  0  0  0
  -26.2748  -22.5476   20.2233 H   0  0  0  0  0  0
  -26.0702  -24.0284   21.1603 H   0  0  0  0  0  0
  -25.8483  -22.4667   21.9260 H   0  0  0  0  0  0
  -29.1679  -23.5403   23.3097 H   0  0  0  0  0  0
  -27.4918  -23.1834   23.7101 H   0  0  0  0  0  0
  -27.9042  -24.6995   22.9162 H   0  0  0  0  0  0
  -27.3560  -24.6435   19.2871 H   0  0  0  0  0  0
  -28.9390  -25.0166   18.8036 H   0  0  0  0  0  0
  -33.9664  -20.1231   20.0010 H   0  0  0  0  0  0
  -34.2562  -18.4522   20.0513 H   0  0  0  0  0  0
  -28.9963  -15.7868   20.9198 H   0  0  0  0  0  0
  1 25  1  0  0  0
  1 30  2  0  0  0
  1 86  1  0  0  0
  2  3  1  0  0  0
  2 25  1  0  0  0
  2 89  1  0  0  0
  2 90  1  0  0  0
  3  4  1  0  0  0
  3 91  1  0  0  0
  3 92  1  0  0  0
  4  5  1  0  0  0
  4 93  1  0  0  0
  4 94  1  0  0  0
  5  6  1  0  0  0
  5 26  1  0  0  0
  5 95  1  0  0  0
  6 25  1  0  0  0
  6 96  1  0  0  0
  6 97  1  0  0  0
  7  8  2  0  0  0
  7 26  1  0  0  0
  7 29  1  0  0  0
  8  9  1  0  0  0
  8 22  1  0  0  0
  9 10  1  0  0  0
  9 27  2  0  0  0
 10 11  2  0  0  0
 10 15  1  0  0  0
 11 12  1  0  0  0
 11 98  1  0  0  0
 12 13  2  0  0  0
 12 99  1  0  0  0
 13 14  1  0  0  0
 13 31  1  0  0  0
 14 15  2  0  0  0
 14100  1  0  0  0
 15101  1  0  0  0
 16 17  2  0  0  0
 16 21  1  0  0  0
 16 31  1  0  0  0
 17 18  1  0  0  0
 17102  1  0  0  0
 18 19  2  0  0  0
 18103  1  0  0  0
 19 20  1  0  0  0
 19 24  1  0  0  0
 20 21  2  0  0  0
 20104  1  0  0  0
 21 23  1  0  0  0
 22 28  1  0  0  0
 22 32  2  0  0  0
 26 27  1  0  0  0
 28105  1  0  0  0
 28106  1  0  0  0
 29107  1  0  0  0
 29108  1  0  0  0
 33 34  1  0  0  0
 33 66  1  0  0  0
 33 70  2  0  0  0
 34 36  1  0  0  0
 34 59  1  0  0  0
 34109  1  0  0  0
 35 44  2  0  0  0
 35 45  1  0  0  0
 35 68  1  0  0  0
 36 56  1  0  0  0
 36110  1  0  0  0
 37 39  1  0  0  0
 37 47  1  0  0  0
 37 66  1  0  0  0
 37111  1  0  0  0
 38 43  2  0  0  0
 38 46  1  0  0  0
 38 47  1  0  0  0
 39 64  1  0  0  0
 39 67  2  0  0  0
 40 52  1  0  0  0
 40 53  2  0  0  0
 40 58  1  0  0  0
 41112  1  0  0  0
 41113  1  0  0  0
 41114  1  0  0  0
 41 48  1  0  0  0
 42 43  1  0  0  0
 42 66  1  0  0  0
 42115  1  0  0  0
 42116  1  0  0  0
 43 44  1  0  0  0
 44117  1  0  0  0
 45 46  2  0  0  0
 45118  1  0  0  0
 46119  1  0  0  0
 47120  1  0  0  0
 47121  1  0  0  0
 48 56  1  0  0  0
 48 65  1  0  0  0
 48122  1  0  0  0
 49 50  1  0  0  0
 49 53  1  0  0  0
 49 64  1  0  0  0
 49123  1  0  0  0
 50 51  1  0  0  0
 50124  1  0  0  0
 50125  1  0  0  0
 51 52  1  0  0  0
 51126  1  0  0  0
 51127  1  0  0  0
 52128  1  0  0  0
 52129  1  0  0  0
 53 54  1  0  0  0
 54 55  2  0  0  0
 54130  1  0  0  0
 55 57  1  0  0  0
 55131  1  0  0  0
 56 69  2  0  0  0
 57 58  2  0  0  0
 57132  1  0  0  0
 58133  1  0  0  0
 59 60  1  0  0  0
 59 61  1  0  0  0
 59 62  1  0  0  0
 60134  1  0  0  0
 60135  1  0  0  0
 60136  1  0  0  0
 61137  1  0  0  0
 61138  1  0  0  0
 61139  1  0  0  0
 62140  1  0  0  0
 62141  1  0  0  0
 62142  1  0  0  0
 63 65  1  0  0  0
 63143  1  0  0  0
 63144  1  0  0  0
 63145  1  0  0  0
 64146  1  0  0  0
 65147  1  0  0  0
 68 83  1  0  0  0
 71 73  2  0  0  0
 71 74  1  0  0  0
 71148  1  0  0  0
 72 74  2  0  0  0
 72 75  1  0  0  0
 72149  1  0  0  0
 73 76  1  0  0  0
 73 84  1  0  0  0
 74 85  1  0  0  0
 75 76  2  0  0  0
 75 86  1  0  0  0
 76 88  1  0  0  0
 77 80  1  0  0  0
 77 84  1  0  0  0
 77 87  2  0  0  0
 78 79  1  0  0  0
 78 84  1  0  0  0
 78150  1  0  0  0
 78151  1  0  0  0
 79 80  1  0  0  0
 79 83  1  0  0  0
 79152  1  0  0  0
 80 81  1  0  0  0
 80 82  1  0  0  0
 81153  1  0  0  0
 81154  1  0  0  0
 81155  1  0  0  0
 82156  1  0  0  0
 82157  1  0  0  0
 82158  1  0  0  0
 83159  1  0  0  0
 83160  1  0  0  0
 85161  1  0  0  0
 85162  1  0  0  0
 86163  1  0  0  0
M  ISO  4   1 100  68 101  83 101  86 100
M  END
> <chiral flag>
0

> <version>
0

> <s_m_source_file>
/data/baiqing/PycharmProjects/Reinvent-master-3.2/result/LINK_invent/BTK/process_docking_weight1_custom_product_contain_oxygen_bond_distance_aromatic_linkinvent_7_9_3/rearranged_h_0075.sdf

> <i_m_source_file_index>
27

> <r_mmod_Potential_Energy-OPLS-2005>
261.202850341797

> <r_mmod_Stretch_Energy-OPLS-2005>
131.91145324707

> <r_mmod_Bend_Energy-OPLS-2005>
211.214263916016

> <r_mmod_Torsional_Energy-OPLS-2005>
290.079711914062

> <r_mmod_Improper_Torsional_Energy-OPLS-2005>
7.28228807449341

> <r_mmod_Van_der_Waal_Energy-OPLS-2005>
148.472229003906

> <r_mmod_Electrostatic_Energy-OPLS-2005>
-391.397521972656

> <r_mmod_Solvation_Energy-OPLS-2005>
-219.778182983398

> <b_mmod_Minimization_Converged-OPLS-2005>
0

> <r_mmod_RMS_Derivative-OPLS-2005>
2.63261365890503

$$$$
27
                    3D
 Structure written by MMmdl.
158167  0  0  1  0            999 V2000
  -30.5997  -14.8156   20.3820 C   0  0  0  0  0  0
  -30.4320  -12.4936   19.4820 C   0  0  0  0  0  0
  -29.5050  -12.4811   18.2470 C   0  0  0  0  0  0
  -28.0414  -12.2889   18.6798 C   0  0  0  0  0  0
  -27.6338  -13.2347   19.8414 C   0  0  2  0  0  0
  -28.6812  -13.2346   20.9768 C   0  0  0  0  0  0
  -25.2482  -13.8206   20.5700 C   0  0  0  0  0  0
  -24.1779  -13.0443   20.9269 C   0  0  0  0  0  0
  -24.6375  -11.6937   20.8790 C   0  0  0  0  0  0
  -23.9053  -10.4300   21.0439 C   0  0  0  0  0  0
  -24.3611   -9.4205   21.9203 C   0  0  0  0  0  0
  -23.6289   -8.2232   22.0750 C   0  0  0  0  0  0
  -22.4266   -8.0284   21.3534 C   0  0  0  0  0  0
  -21.9918   -9.0253   20.4622 C   0  0  0  0  0  0
  -22.7246  -10.2138   20.3055 C   0  0  0  0  0  0
  -21.6855   -6.0731   22.5268 C   0  0  0  0  0  0
  -21.4012   -6.5635   23.8202 C   0  0  0  0  0  0
  -21.3648   -5.6791   24.9170 C   0  0  0  0  0  0
  -21.6061   -4.3059   24.7229 C   0  0  0  0  0  0
  -21.8810   -3.8135   23.4344 C   0  0  0  0  0  0
  -21.9192   -4.6951   22.3397 C   0  0  0  0  0  0
  -22.7808  -13.5227   21.1895 C   0  0  0  0  0  0
  -22.1661   -4.2144   21.0974 F   0  0  0  0  0  0
  -21.5629   -3.4532   25.7731 F   0  0  0  0  0  0
  -29.9735  -13.5855   20.3747 N   0  0  0  0  0  0
  -26.2905  -12.9422   20.3291 N   0  0  0  0  0  0
  -25.9309  -11.6565   20.5827 N   0  0  0  0  0  0
  -22.0456  -12.8183   22.0446 N   0  0  0  0  0  0
  -25.4189  -15.1927   20.4045 N   0  0  0  0  0  0
  -31.8055  -14.8605   20.1290 O   0  0  0  0  0  0
  -21.6633   -6.8874   21.4229 O   0  0  0  0  0  0
  -22.3499  -14.5537   20.6764 O   0  0  0  0  0  0
  -24.6299  -31.8595   23.1916 C   0  0  0  0  0  0
  -25.9159  -32.4719   23.8281 C   0  0  1  0  0  0
  -27.2101  -27.2590   20.1301 C   0  0  0  0  0  0
  -25.5946  -33.8502   24.2205 N   0  0  0  0  0  0
  -23.4233  -30.4825   21.5361 C   0  0  2  0  0  0
  -24.8665  -28.9217   20.1043 C   0  0  0  0  0  0
  -22.7505  -29.4628   22.4883 C   0  0  0  0  0  0
  -18.0286  -28.1356   22.8451 C   0  0  0  0  0  0
  -24.1523  -36.7288   23.2644 C   0  0  0  0  0  0
  -25.9649  -30.7702   21.3724 C   0  0  0  0  0  0
  -26.0356  -29.3898   20.7148 C   0  0  0  0  0  0
  -27.2066  -28.5685   20.7232 C   0  0  0  0  0  0
  -26.0195  -26.8523   19.4922 C   0  0  0  0  0  0
  -24.8629  -27.6601   19.4828 C   0  0  0  0  0  0
  -23.6415  -29.8178   20.1511 C   0  0  0  0  0  0
  -25.4130  -36.3022   24.0320 C   0  0  1  0  0  0
  -20.5887  -28.3717   23.1230 C   0  0  2  0  0  0
  -20.6797  -26.9440   22.5394 C   0  0  0  0  0  0
  -19.5763  -26.6399   21.5200 C   0  0  0  0  0  0
  -18.1933  -26.7896   22.1592 C   0  0  0  0  0  0
  -19.1543  -28.8847   23.2839 C   0  0  0  0  0  0
  -18.9483  -30.1431   23.8888 C   0  0  0  0  0  0
  -17.6506  -30.6593   24.0554 C   0  0  0  0  0  0
  -25.9072  -34.9400   23.5067 C   0  0  0  0  0  0
  -16.5387  -29.9085   23.6325 C   0  0  0  0  0  0
  -16.7284  -28.6492   23.0362 C   0  0  0  0  0  0
  -26.4564  -31.6490   25.0652 C   0  0  0  0  0  0
  -25.3803  -31.3571   26.1376 C   0  0  0  0  0  0
  -27.0480  -30.2925   24.6093 C   0  0  0  0  0  0
  -27.6117  -32.4247   25.7415 C   0  0  0  0  0  0
  -27.5586  -37.1771   24.8458 C   0  0  0  0  0  0
  -21.4217  -29.3072   22.3625 N   0  0  0  0  0  0
  -26.4289  -37.3737   23.9409 N   0  0  0  0  0  0
  -24.6910  -31.0540   22.0910 N   0  0  0  0  0  0
  -23.4201  -28.8212   23.3017 O   0  0  0  0  0  0
  -28.3200  -26.3908   20.2298 O   0  0  0  0  0  0
  -26.5668  -34.8917   22.4659 O   0  0  0  0  0  0
  -23.5477  -32.1411   23.7269 O   0  0  0  0  0  0
  -29.2857  -18.5723   20.4821 C   0  0  0  0  0  0
  -30.7268  -20.1318   19.2804 C   0  0  0  0  0  0
  -31.1977  -17.7209   19.2402 C   0  0  0  0  0  0
  -29.5723  -19.9515   20.0713 C   0  0  0  0  0  0
  -30.1021  -17.4147   20.0904 C   0  0  0  0  0  0
  -31.5132  -19.0445   18.8641 C   0  0  0  0  0  0
  -28.4152  -22.2397   19.6309 C   0  0  0  0  0  0
  -28.8547  -21.7330   21.8073 C   0  0  0  0  0  0
  -28.0546  -23.5955   20.3721 C   0  0  1  0  0  0
  -28.7749  -23.2904   21.6950 C   0  0  1  0  0  0
  -28.1253  -23.9391   22.9245 C   0  0  0  0  0  0
  -28.4034  -25.0084   19.6346 C   0  0  0  0  0  0
  -28.8517  -21.2086   20.4440 N   0  0  0  0  0  0
  -29.8242  -15.9816   20.4699 N   0  0  0  0  0  0
  -28.2591  -22.1280   18.4111 O   0  0  0  0  0  0
  -32.5971  -19.2820   18.0825 F   0  0  0  0  0  0
  -31.4683  -12.6213   19.1658 H   0  0  0  0  0  0
  -30.3979  -11.5402   20.0109 H   0  0  0  0  0  0
  -29.7976  -11.6790   17.5666 H   0  0  0  0  0  0
  -29.6037  -13.4158   17.6911 H   0  0  0  0  0  0
  -27.9379  -11.2529   19.0067 H   0  0  0  0  0  0
  -27.3648  -12.4072   17.8335 H   0  0  0  0  0  0
  -27.6080  -14.2371   19.4124 H   0  0  0  0  0  0
  -28.7345  -12.2607   21.4664 H   0  0  0  0  0  0
  -28.4078  -13.9563   21.7487 H   0  0  0  0  0  0
  -25.2743   -9.5682   22.4803 H   0  0  0  0  0  0
  -23.9991   -7.4618   22.7468 H   0  0  0  0  0  0
  -21.0867   -8.8780   19.8909 H   0  0  0  0  0  0
  -22.3723  -10.9688   19.6168 H   0  0  0  0  0  0
  -21.2001   -7.6141   23.9710 H   0  0  0  0  0  0
  -21.1487   -6.0519   25.9084 H   0  0  0  0  0  0
  -22.0600   -2.7594   23.2845 H   0  0  0  0  0  0
  -22.4089  -11.9845   22.4801 H   0  0  0  0  0  0
  -21.1065  -13.1181   22.2636 H   0  0  0  0  0  0
  -24.6465  -15.8455   20.4841 H   0  0  0  0  0  0
  -26.2560  -15.6172   20.0259 H   0  0  0  0  0  0
  -26.7202  -32.5420   23.1001 H   0  0  0  0  0  0
  -25.0075  -33.9579   25.0333 H   0  0  0  0  0  0
  -22.7209  -31.3068   21.3940 H   0  0  0  0  0  0
  -23.3783  -35.9637   23.3267 H   0  0  0  0  0  0
  -24.3633  -36.8963   22.2075 H   0  0  0  0  0  0
  -23.7293  -37.6464   23.6737 H   0  0  0  0  0  0
  -26.1081  -31.5380   20.6109 H   0  0  0  0  0  0
  -26.8376  -30.8165   22.0098 H   0  0  0  0  0  0
  -28.1024  -28.9179   21.2190 H   0  0  0  0  0  0
  -25.9465  -25.8870   19.0159 H   0  0  0  0  0  0
  -23.9656  -27.2960   18.9971 H   0  0  0  0  0  0
  -23.7801  -30.6029   19.4060 H   0  0  0  0  0  0
  -22.7564  -29.2619   19.8296 H   0  0  0  0  0  0
  -25.1312  -36.1870   25.0811 H   0  0  0  0  0  0
  -20.9956  -28.3369   24.1357 H   0  0  0  0  0  0
  -20.5746  -26.2370   23.3619 H   0  0  0  0  0  0
  -21.6659  -26.7508   22.1171 H   0  0  0  0  0  0
  -19.6970  -25.6325   21.1207 H   0  0  0  0  0  0
  -19.6662  -27.3234   20.6738 H   0  0  0  0  0  0
  -17.4214  -26.6661   21.3990 H   0  0  0  0  0  0
  -18.0305  -26.0017   22.8956 H   0  0  0  0  0  0
  -19.8012  -30.7190   24.2288 H   0  0  0  0  0  0
  -17.5104  -31.6257   24.5187 H   0  0  0  0  0  0
  -15.5389  -30.3010   23.7659 H   0  0  0  0  0  0
  -15.8670  -28.0823   22.7082 H   0  0  0  0  0  0
  -24.6038  -30.6874   25.7668 H   0  0  0  0  0  0
  -24.8970  -32.2711   26.4819 H   0  0  0  0  0  0
  -25.8170  -30.8746   27.0122 H   0  0  0  0  0  0
  -26.3051  -29.6507   24.1348 H   0  0  0  0  0  0
  -27.4448  -29.7318   25.4556 H   0  0  0  0  0  0
  -27.8802  -30.4194   23.9161 H   0  0  0  0  0  0
  -27.2722  -33.3584   26.1911 H   0  0  0  0  0  0
  -28.3961  -32.6698   25.0230 H   0  0  0  0  0  0
  -28.0748  -31.8410   26.5365 H   0  0  0  0  0  0
  -28.2530  -38.0135   24.7553 H   0  0  0  0  0  0
  -28.1134  -36.2651   24.6223 H   0  0  0  0  0  0
  -27.2307  -37.1329   25.8854 H   0  0  0  0  0  0
  -20.9428  -29.8784   21.6796 H   0  0  0  0  0  0
  -26.0178  -38.2814   24.1436 H   0  0  0  0  0  0
  -28.4195  -18.3969   21.1054 H   0  0  0  0  0  0
  -31.0323  -21.1287   18.9906 H   0  0  0  0  0  0
  -31.8336  -16.9475   18.8345 H   0  0  0  0  0  0
  -27.9828  -21.3342   22.3330 H   0  0  0  0  0  0
  -29.7442  -21.4216   22.3598 H   0  0  0  0  0  0
  -26.9781  -23.5720   20.5455 H   0  0  0  0  0  0
  -29.7878  -23.6870   21.5960 H   0  0  0  0  0  0
  -27.1449  -23.5079   23.1371 H   0  0  0  0  0  0
  -27.9855  -25.0118   22.7866 H   0  0  0  0  0  0
  -28.7489  -23.8029   23.8102 H   0  0  0  0  0  0
  -27.8918  -25.0130   18.6744 H   0  0  0  0  0  0
  -29.4524  -24.9289   19.3477 H   0  0  0  0  0  0
  -28.8749  -15.8032   20.7603 H   0  0  0  0  0  0
  1 25  1  0  0  0
  1 30  2  0  0  0
  1 84  1  0  0  0
  2  3  1  0  0  0
  2 25  1  0  0  0
  2 87  1  0  0  0
  2 88  1  0  0  0
  3  4  1  0  0  0
  3 89  1  0  0  0
  3 90  1  0  0  0
  4  5  1  0  0  0
  4 91  1  0  0  0
  4 92  1  0  0  0
  5  6  1  0  0  0
  5 26  1  0  0  0
  5 93  1  0  0  0
  6 25  1  0  0  0
  6 94  1  0  0  0
  6 95  1  0  0  0
  7  8  2  0  0  0
  7 26  1  0  0  0
  7 29  1  0  0  0
  8  9  1  0  0  0
  8 22  1  0  0  0
  9 10  1  0  0  0
  9 27  2  0  0  0
 10 11  2  0  0  0
 10 15  1  0  0  0
 11 12  1  0  0  0
 11 96  1  0  0  0
 12 13  2  0  0  0
 12 97  1  0  0  0
 13 14  1  0  0  0
 13 31  1  0  0  0
 14 15  2  0  0  0
 14 98  1  0  0  0
 15 99  1  0  0  0
 16 17  2  0  0  0
 16 21  1  0  0  0
 16 31  1  0  0  0
 17 18  1  0  0  0
 17100  1  0  0  0
 18 19  2  0  0  0
 18101  1  0  0  0
 19 20  1  0  0  0
 19 24  1  0  0  0
 20 21  2  0  0  0
 20102  1  0  0  0
 21 23  1  0  0  0
 22 28  1  0  0  0
 22 32  2  0  0  0
 26 27  1  0  0  0
 28103  1  0  0  0
 28104  1  0  0  0
 29105  1  0  0  0
 29106  1  0  0  0
 33 34  1  0  0  0
 33 66  1  0  0  0
 33 70  2  0  0  0
 34 36  1  0  0  0
 34 59  1  0  0  0
 34107  1  0  0  0
 35 44  2  0  0  0
 35 45  1  0  0  0
 35 68  1  0  0  0
 36 56  1  0  0  0
 36108  1  0  0  0
 37 39  1  0  0  0
 37 47  1  0  0  0
 37 66  1  0  0  0
 37109  1  0  0  0
 38 43  2  0  0  0
 38 46  1  0  0  0
 38 47  1  0  0  0
 39 64  1  0  0  0
 39 67  2  0  0  0
 40 52  1  0  0  0
 40 53  2  0  0  0
 40 58  1  0  0  0
 41110  1  0  0  0
 41111  1  0  0  0
 41112  1  0  0  0
 41 48  1  0  0  0
 42 43  1  0  0  0
 42 66  1  0  0  0
 42113  1  0  0  0
 42114  1  0  0  0
 43 44  1  0  0  0
 44115  1  0  0  0
 45 46  2  0  0  0
 45116  1  0  0  0
 46117  1  0  0  0
 47118  1  0  0  0
 47119  1  0  0  0
 48 56  1  0  0  0
 48 65  1  0  0  0
 48120  1  0  0  0
 49 50  1  0  0  0
 49 53  1  0  0  0
 49 64  1  0  0  0
 49121  1  0  0  0
 50 51  1  0  0  0
 50122  1  0  0  0
 50123  1  0  0  0
 51 52  1  0  0  0
 51124  1  0  0  0
 51125  1  0  0  0
 52126  1  0  0  0
 52127  1  0  0  0
 53 54  1  0  0  0
 54 55  2  0  0  0
 54128  1  0  0  0
 55 57  1  0  0  0
 55129  1  0  0  0
 56 69  2  0  0  0
 57 58  2  0  0  0
 57130  1  0  0  0
 58131  1  0  0  0
 59 60  1  0  0  0
 59 61  1  0  0  0
 59 62  1  0  0  0
 60132  1  0  0  0
 60133  1  0  0  0
 60134  1  0  0  0
 61135  1  0  0  0
 61136  1  0  0  0
 61137  1  0  0  0
 62138  1  0  0  0
 62139  1  0  0  0
 62140  1  0  0  0
 63 65  1  0  0  0
 63141  1  0  0  0
 63142  1  0  0  0
 63143  1  0  0  0
 64144  1  0  0  0
 65145  1  0  0  0
 68 82  1  0  0  0
 71 74  2  0  0  0
 71 75  1  0  0  0
 71146  1  0  0  0
 72 74  1  0  0  0
 72 76  2  0  0  0
 72147  1  0  0  0
 73 75  2  0  0  0
 73 76  1  0  0  0
 73148  1  0  0  0
 74 83  1  0  0  0
 75 84  1  0  0  0
 76 86  1  0  0  0
 77 79  1  0  0  0
 77 83  1  0  0  0
 77 85  2  0  0  0
 78 80  1  0  0  0
 78 83  1  0  0  0
 78149  1  0  0  0
 78150  1  0  0  0
 79 80  1  0  0  0
 79 82  1  0  0  0
 79151  1  0  0  0
 80 81  1  0  0  0
 80152  1  0  0  0
 81153  1  0  0  0
 81154  1  0  0  0
 81155  1  0  0  0
 82156  1  0  0  0
 82157  1  0  0  0
 84158  1  0  0  0
M  ISO  4   1 100  68 101  82 101  84 100
M  END
> <chiral flag>
0

> <version>
0

> <s_m_source_file>
/data/baiqing/PycharmProjects/Reinvent-master-3.2/result/LINK_invent/BTK/process_docking_weight1_custom_product_contain_oxygen_bond_distance_aromatic_linkinvent_7_9_3/rearranged_h_0075.sdf

> <i_m_source_file_index>
28

> <r_mmod_Potential_Energy-OPLS-2005>
365.002502441406

> <r_mmod_Stretch_Energy-OPLS-2005>
138.262603759766

> <r_mmod_Bend_Energy-OPLS-2005>
213.717056274414

> <r_mmod_Torsional_Energy-OPLS-2005>
291.638031005859

> <r_mmod_Improper_Torsional_Energy-OPLS-2005>
6.00622177124023

> <r_mmod_Van_der_Waal_Energy-OPLS-2005>
128.66716003418

> <r_mmod_Electrostatic_Energy-OPLS-2005>
-305.053497314453

> <r_mmod_Solvation_Energy-OPLS-2005>
-216.670928955078

> <b_mmod_Minimization_Converged-OPLS-2005>
0

> <r_mmod_RMS_Derivative-OPLS-2005>
5.89903402328491

$$$$
28
                    3D
 Structure written by MMmdl.
162171  0  0  1  0            999 V2000
  -30.4352  -15.2493   20.4648 C   0  0  0  0  0  0
  -30.4154  -12.8876   19.4630 C   0  0  0  0  0  0
  -29.4718  -12.5046   18.3020 C   0  0  0  0  0  0
  -28.0893  -12.1423   18.8289 C   0  0  0  0  0  0
  -27.5824  -13.2275   19.8065 C   0  0  2  0  0  0
  -28.5847  -13.5053   20.9267 C   0  0  0  0  0  0
  -25.2254  -13.8044   20.5775 C   0  0  0  0  0  0
  -24.1557  -13.0312   20.9359 C   0  0  0  0  0  0
  -24.6108  -11.6783   20.8818 C   0  0  0  0  0  0
  -23.8834  -10.4193   21.0464 C   0  0  0  0  0  0
  -24.3457   -9.4152   21.9233 C   0  0  0  0  0  0
  -23.6200   -8.2150   22.0773 C   0  0  0  0  0  0
  -22.4206   -8.0175   21.3515 C   0  0  0  0  0  0
  -21.9787   -9.0147   20.4637 C   0  0  0  0  0  0
  -22.7057  -10.2044   20.3089 C   0  0  0  0  0  0
  -21.6822   -6.0673   22.5277 C   0  0  0  0  0  0
  -21.4001   -6.5600   23.8209 C   0  0  0  0  0  0
  -21.3658   -5.6764   24.9183 C   0  0  0  0  0  0
  -21.6044   -4.3031   24.7243 C   0  0  0  0  0  0
  -21.8816   -3.8100   23.4380 C   0  0  0  0  0  0
  -21.9185   -4.6903   22.3420 C   0  0  0  0  0  0
  -22.7579  -13.5148   21.1973 C   0  0  0  0  0  0
  -22.1649   -4.2097   21.0989 F   0  0  0  0  0  0
  -21.5637   -3.4530   25.7752 F   0  0  0  0  0  0
  -29.7874  -14.0050   20.2903 N   0  0  0  0  0  0
  -26.2644  -12.9243   20.3293 N   0  0  0  0  0  0
  -25.9063  -11.6378   20.5796 N   0  0  0  0  0  0
  -22.0226  -12.8173   22.0568 N   0  0  0  0  0  0
  -25.3896  -15.1773   20.4145 N   0  0  0  0  0  0
  -31.6543  -15.0793   20.3657 O   0  0  0  0  0  0
  -21.6592   -6.8775   21.4221 O   0  0  0  0  0  0
  -22.3286  -14.5496   20.6847 O   0  0  0  0  0  0
  -24.6173  -31.8809   23.2454 C   0  0  0  0  0  0
  -25.8843  -32.5031   23.8896 C   0  0  1  0  0  0
  -26.9634  -27.3132   20.0629 C   0  0  0  0  0  0
  -25.5802  -33.8944   24.2796 N   0  0  0  0  0  0
  -23.3840  -30.5168   21.6183 C   0  0  2  0  0  0
  -24.7683  -29.0679   20.0338 C   0  0  0  0  0  0
  -22.7527  -29.4476   22.5271 C   0  0  0  0  0  0
  -18.0271  -28.1220   22.8513 C   0  0  0  0  0  0
  -24.1427  -36.7652   23.2640 C   0  0  0  0  0  0
  -25.9012  -30.8290   21.3591 C   0  0  0  0  0  0
  -25.9273  -29.4553   20.7176 C   0  0  0  0  0  0
  -27.0141  -28.5385   20.8116 C   0  0  0  0  0  0
  -25.8621  -27.1098   19.1957 C   0  0  0  0  0  0
  -24.7510  -27.9253   19.2353 C   0  0  0  0  0  0
  -23.5264  -29.9342   20.1957 C   0  0  0  0  0  0
  -25.3995  -36.3464   24.0455 C   0  0  1  0  0  0
  -20.5853  -28.3383   23.1508 C   0  0  2  0  0  0
  -20.6944  -26.9287   22.5269 C   0  0  0  0  0  0
  -19.5850  -26.6258   21.5179 C   0  0  0  0  0  0
  -18.1960  -26.7826   22.1551 C   0  0  0  0  0  0
  -19.1492  -28.8592   23.3016 C   0  0  0  0  0  0
  -18.9476  -30.1205   23.8991 C   0  0  0  0  0  0
  -17.6496  -30.6402   24.0516 C   0  0  0  0  0  0
  -25.8805  -34.9746   23.5431 C   0  0  0  0  0  0
  -16.5364  -29.8875   23.6256 C   0  0  0  0  0  0
  -16.7309  -28.6297   23.0281 C   0  0  0  0  0  0
  -26.4279  -31.6864   25.1352 C   0  0  0  0  0  0
  -25.3729  -31.3834   26.2290 C   0  0  0  0  0  0
  -27.0060  -30.3457   24.6502 C   0  0  0  0  0  0
  -27.5965  -32.4550   25.8107 C   0  0  0  0  0  0
  -27.5575  -37.2055   24.8458 C   0  0  0  0  0  0
  -21.4238  -29.2945   22.4256 N   0  0  0  0  0  0
  -26.4259  -37.4058   23.9418 N   0  0  0  0  0  0
  -24.6701  -31.0804   22.1312 N   0  0  0  0  0  0
  -23.4338  -28.7674   23.3004 O   0  0  0  0  0  0
  -27.6977  -26.1895   20.3417 O   0  0  0  0  0  0
  -26.5319  -34.9069   22.4981 O   0  0  0  0  0  0
  -23.5325  -32.1489   23.7869 O   0  0  0  0  0  0
  -28.0854  -20.0126   21.0701 C   0  0  0  0  0  0
  -27.2929  -19.0911   18.9676 C   0  0  0  0  0  0
  -28.5771  -18.6895   21.4554 C   0  0  0  0  0  0
  -27.8856  -17.8055   19.3434 C   0  0  0  0  0  0
  -27.4589  -20.2819   19.7913 C   0  0  0  0  0  0
  -28.7408  -17.6073   20.4930 C   0  0  0  0  0  0
  -25.4184  -22.9317   20.9130 C   0  0  0  0  0  0
  -26.3450  -23.7960   20.4528 C   0  0  0  0  0  0
  -25.5103  -21.6540   20.2191 C   0  0  0  0  0  0
  -26.9724  -23.0391   19.2904 C   0  0  0  0  0  0
  -24.5098  -22.8745   22.1538 C   0  0  0  0  0  0
  -31.0509  -19.1474   20.2355 C   0  0  0  0  0  0
  -26.7950  -25.2184   21.0611 C   0  0  0  0  0  0
  -31.1480  -17.5872   20.3799 C   0  0  0  0  0  0
  -26.6802  -21.5308   19.4992 N   0  0  0  0  0  0
  -29.9624  -16.6911   20.5213 N   0  0  0  0  0  0
  -24.6550  -20.7106   20.2380 O   0  0  0  0  0  0
  -31.3072  -13.2252   18.9346 H   0  0  0  0  0  0
  -30.7011  -12.0631   20.1142 H   0  0  0  0  0  0
  -29.9017  -11.6769   17.7424 H   0  0  0  0  0  0
  -29.3594  -13.3225   17.5894 H   0  0  0  0  0  0
  -28.1935  -11.2173   19.3822 H   0  0  0  0  0  0
  -27.3720  -11.9439   18.0195 H   0  0  0  0  0  0
  -27.4552  -14.1263   19.2009 H   0  0  0  0  0  0
  -28.7892  -12.6361   21.5340 H   0  0  0  0  0  0
  -28.1862  -14.2686   21.5889 H   0  0  0  0  0  0
  -25.2582   -9.5671   22.4836 H   0  0  0  0  0  0
  -23.9925   -7.4527   22.7469 H   0  0  0  0  0  0
  -21.0746   -8.8607   19.8932 H   0  0  0  0  0  0
  -22.3482  -10.9577   19.6217 H   0  0  0  0  0  0
  -21.1984   -7.6117   23.9698 H   0  0  0  0  0  0
  -21.1493   -6.0509   25.9086 H   0  0  0  0  0  0
  -22.0604   -2.7569   23.2896 H   0  0  0  0  0  0
  -22.3766  -11.9811   22.4934 H   0  0  0  0  0  0
  -21.0857  -13.1216   22.2738 H   0  0  0  0  0  0
  -24.6251  -15.8266   20.5461 H   0  0  0  0  0  0
  -26.2435  -15.6181   20.0935 H   0  0  0  0  0  0
  -26.7080  -32.5768   23.1800 H   0  0  0  0  0  0
  -25.0504  -34.0079   25.1358 H   0  0  0  0  0  0
  -22.6775  -31.3405   21.5373 H   0  0  0  0  0  0
  -23.3675  -35.9955   23.3205 H   0  0  0  0  0  0
  -24.3655  -36.9334   22.2053 H   0  0  0  0  0  0
  -23.6967  -37.6885   23.6549 H   0  0  0  0  0  0
  -25.9174  -31.6158   20.5796 H   0  0  0  0  0  0
  -26.8325  -30.9146   21.9338 H   0  0  0  0  0  0
  -27.8175  -28.6743   21.5154 H   0  0  0  0  0  0
  -25.7973  -26.2748   18.4814 H   0  0  0  0  0  0
  -23.8865  -27.6737   18.6596 H   0  0  0  0  0  0
  -23.5802  -30.7496   19.4644 H   0  0  0  0  0  0
  -22.6293  -29.3607   19.9231 H   0  0  0  0  0  0
  -25.1001  -36.2732   25.0923 H   0  0  0  0  0  0
  -20.9806  -28.2580   24.1677 H   0  0  0  0  0  0
  -20.6552  -26.1819   23.3162 H   0  0  0  0  0  0
  -21.6730  -26.7889   22.0627 H   0  0  0  0  0  0
  -19.7021  -25.6137   21.1304 H   0  0  0  0  0  0
  -19.6744  -27.2964   20.6596 H   0  0  0  0  0  0
  -17.4376  -26.6736   21.3731 H   0  0  0  0  0  0
  -18.0123  -25.9801   22.8729 H   0  0  0  0  0  0
  -19.7910  -30.6976   24.2470 H   0  0  0  0  0  0
  -17.4982  -31.6095   24.5055 H   0  0  0  0  0  0
  -15.5326  -30.2771   23.7466 H   0  0  0  0  0  0
  -15.8730  -28.0588   22.6961 H   0  0  0  0  0  0
  -24.5978  -30.6829   25.9008 H   0  0  0  0  0  0
  -24.8676  -32.2795   26.5984 H   0  0  0  0  0  0
  -25.8346  -30.9258   27.1048 H   0  0  0  0  0  0
  -26.2598  -29.7628   24.1040 H   0  0  0  0  0  0
  -27.3337  -29.7227   25.4826 H   0  0  0  0  0  0
  -27.8565  -30.5091   23.9881 H   0  0  0  0  0  0
  -27.2708  -33.3930   26.2656 H   0  0  0  0  0  0
  -28.3794  -32.6932   25.0907 H   0  0  0  0  0  0
  -28.0536  -31.8686   26.6075 H   0  0  0  0  0  0
  -28.2679  -38.0317   24.7555 H   0  0  0  0  0  0
  -28.1018  -36.2865   24.6193 H   0  0  0  0  0  0
  -27.2395  -37.1717   25.8923 H   0  0  0  0  0  0
  -20.9201  -29.9046   21.7925 H   0  0  0  0  0  0
  -26.0339  -38.3246   24.1462 H   0  0  0  0  0  0
  -28.1001  -20.7855   21.8834 H   0  0  0  0  0  0
  -26.6575  -19.2359   18.0597 H   0  0  0  0  0  0
  -29.0178  -18.6804   22.4316 H   0  0  0  0  0  0
  -27.5652  -16.9641   18.7731 H   0  0  0  0  0  0
  -27.8061  -23.3376   18.6365 H   0  0  0  0  0  0
  -26.2611  -23.3430   18.4834 H   0  0  0  0  0  0
  -24.1571  -21.8690   22.3085 H   0  0  0  0  0  0
  -23.5601  -23.3468   22.0035 H   0  0  0  0  0  0
  -25.0024  -23.1573   23.0516 H   0  0  0  0  0  0
  -30.2708  -19.4366   19.5405 H   0  0  0  0  0  0
  -31.9647  -19.5859   19.8488 H   0  0  0  0  0  0
  -30.9399  -19.6479   21.2004 H   0  0  0  0  0  0
  -27.2971  -24.9465   21.9375 H   0  0  0  0  0  0
  -25.8276  -25.7223   21.3268 H   0  0  0  0  0  0
  -31.7401  -17.2982   19.5138 H   0  0  0  0  0  0
  -31.8503  -17.4368   21.1966 H   0  0  0  0  0  0
  1 25  1  0  0  0
  1 30  2  0  0  0
  1 86  1  0  0  0
  2  3  1  0  0  0
  2 25  1  0  0  0
  2 88  1  0  0  0
  2 89  1  0  0  0
  3  4  1  0  0  0
  3 90  1  0  0  0
  3 91  1  0  0  0
  4  5  1  0  0  0
  4 92  1  0  0  0
  4 93  1  0  0  0
  5  6  1  0  0  0
  5 26  1  0  0  0
  5 94  1  0  0  0
  6 25  1  0  0  0
  6 95  1  0  0  0
  6 96  1  0  0  0
  7  8  2  0  0  0
  7 26  1  0  0  0
  7 29  1  0  0  0
  8  9  1  0  0  0
  8 22  1  0  0  0
  9 10  1  0  0  0
  9 27  2  0  0  0
 10 11  2  0  0  0
 10 15  1  0  0  0
 11 12  1  0  0  0
 11 97  1  0  0  0
 12 13  2  0  0  0
 12 98  1  0  0  0
 13 14  1  0  0  0
 13 31  1  0  0  0
 14 15  2  0  0  0
 14 99  1  0  0  0
 15100  1  0  0  0
 16 17  2  0  0  0
 16 21  1  0  0  0
 16 31  1  0  0  0
 17 18  1  0  0  0
 17101  1  0  0  0
 18 19  2  0  0  0
 18102  1  0  0  0
 19 20  1  0  0  0
 19 24  1  0  0  0
 20 21  2  0  0  0
 20103  1  0  0  0
 21 23  1  0  0  0
 22 28  1  0  0  0
 22 32  2  0  0  0
 26 27  1  0  0  0
 28104  1  0  0  0
 28105  1  0  0  0
 29106  1  0  0  0
 29107  1  0  0  0
 33 34  1  0  0  0
 33 66  1  0  0  0
 33 70  2  0  0  0
 34 36  1  0  0  0
 34 59  1  0  0  0
 34108  1  0  0  0
 35 44  2  0  0  0
 35 45  1  0  0  0
 35 68  1  0  0  0
 36 56  1  0  0  0
 36109  1  0  0  0
 37 39  1  0  0  0
 37 47  1  0  0  0
 37 66  1  0  0  0
 37110  1  0  0  0
 38 43  2  0  0  0
 38 46  1  0  0  0
 38 47  1  0  0  0
 39 64  1  0  0  0
 39 67  2  0  0  0
 40 52  1  0  0  0
 40 53  2  0  0  0
 40 58  1  0  0  0
 41111  1  0  0  0
 41112  1  0  0  0
 41113  1  0  0  0
 41 48  1  0  0  0
 42 43  1  0  0  0
 42 66  1  0  0  0
 42114  1  0  0  0
 42115  1  0  0  0
 43 44  1  0  0  0
 44116  1  0  0  0
 45 46  2  0  0  0
 45117  1  0  0  0
 46118  1  0  0  0
 47119  1  0  0  0
 47120  1  0  0  0
 48 56  1  0  0  0
 48 65  1  0  0  0
 48121  1  0  0  0
 49 50  1  0  0  0
 49 53  1  0  0  0
 49 64  1  0  0  0
 49122  1  0  0  0
 50 51  1  0  0  0
 50123  1  0  0  0
 50124  1  0  0  0
 51 52  1  0  0  0
 51125  1  0  0  0
 51126  1  0  0  0
 52127  1  0  0  0
 52128  1  0  0  0
 53 54  1  0  0  0
 54 55  2  0  0  0
 54129  1  0  0  0
 55 57  1  0  0  0
 55130  1  0  0  0
 56 69  2  0  0  0
 57 58  2  0  0  0
 57131  1  0  0  0
 58132  1  0  0  0
 59 60  1  0  0  0
 59 61  1  0  0  0
 59 62  1  0  0  0
 60133  1  0  0  0
 60134  1  0  0  0
 60135  1  0  0  0
 61136  1  0  0  0
 61137  1  0  0  0
 61138  1  0  0  0
 62139  1  0  0  0
 62140  1  0  0  0
 62141  1  0  0  0
 63 65  1  0  0  0
 63142  1  0  0  0
 63143  1  0  0  0
 63144  1  0  0  0
 64145  1  0  0  0
 65146  1  0  0  0
 68 83  1  0  0  0
 71 73  2  0  0  0
 71 75  1  0  0  0
 71147  1  0  0  0
 72 74  1  0  0  0
 72 75  2  0  0  0
 72148  1  0  0  0
 73 76  1  0  0  0
 73149  1  0  0  0
 74 76  2  0  0  0
 74150  1  0  0  0
 75 85  1  0  0  0
 76 86  1  0  0  0
 77 78  2  0  0  0
 77 79  1  0  0  0
 77 81  1  0  0  0
 78 80  1  0  0  0
 78 83  1  0  0  0
 79 85  1  0  0  0
 79 87  2  0  0  0
 80 85  1  0  0  0
 80151  1  0  0  0
 80152  1  0  0  0
 81153  1  0  0  0
 81154  1  0  0  0
 81155  1  0  0  0
 82 84  1  0  0  0
 82156  1  0  0  0
 82157  1  0  0  0
 82158  1  0  0  0
 83159  1  0  0  0
 83160  1  0  0  0
 84 86  1  0  0  0
 84161  1  0  0  0
 84162  1  0  0  0
M  ISO  4   1 100  68 101  83 101  86 100
M  END
> <chiral flag>
0

> <version>
0

> <s_m_source_file>
/data/baiqing/PycharmProjects/Reinvent-master-3.2/result/LINK_invent/BTK/process_docking_weight1_custom_product_contain_oxygen_bond_distance_aromatic_linkinvent_7_9_3/rearranged_h_0075.sdf

> <i_m_source_file_index>
29

> <r_mmod_Potential_Energy-OPLS-2005>
1474.07897949219

> <r_mmod_Stretch_Energy-OPLS-2005>
265.364379882812

> <r_mmod_Bend_Energy-OPLS-2005>
515.902099609375

> <r_mmod_Torsional_Energy-OPLS-2005>
492.037933349609

> <r_mmod_Improper_Torsional_Energy-OPLS-2005>
19.6843280792236

> <r_mmod_Van_der_Waal_Energy-OPLS-2005>
183.021774291992

> <r_mmod_Electrostatic_Energy-OPLS-2005>
-254.577499389648

> <r_mmod_Solvation_Energy-OPLS-2005>
-193.377502441406

> <b_mmod_Minimization_Converged-OPLS-2005>
0

> <r_mmod_RMS_Derivative-OPLS-2005>
61.3790740966797

$$$$
29
                    3D
 Structure written by MMmdl.
164173  0  0  1  0            999 V2000
  -30.6908  -14.5341   20.5349 C   0  0  0  0  0  0
  -30.4217  -12.3350   19.4376 C   0  0  0  0  0  0
  -29.4995  -12.5034   18.2126 C   0  0  0  0  0  0
  -28.0205  -12.3595   18.6226 C   0  0  0  0  0  0
  -27.6559  -13.2160   19.8655 C   0  0  2  0  0  0
  -28.6990  -13.0452   20.9928 C   0  0  0  0  0  0
  -25.2572  -13.8176   20.5688 C   0  0  0  0  0  0
  -24.1835  -13.0444   20.9186 C   0  0  0  0  0  0
  -24.6404  -11.6914   20.8736 C   0  0  0  0  0  0
  -23.9075  -10.4294   21.0403 C   0  0  0  0  0  0
  -24.3626   -9.4209   21.9181 C   0  0  0  0  0  0
  -23.6300   -8.2244   22.0749 C   0  0  0  0  0  0
  -22.4279   -8.0281   21.3542 C   0  0  0  0  0  0
  -21.9916   -9.0256   20.4644 C   0  0  0  0  0  0
  -22.7248  -10.2135   20.3049 C   0  0  0  0  0  0
  -21.6853   -6.0741   22.5283 C   0  0  0  0  0  0
  -21.4011   -6.5645   23.8217 C   0  0  0  0  0  0
  -21.3657   -5.6794   24.9178 C   0  0  0  0  0  0
  -21.6044   -4.3056   24.7224 C   0  0  0  0  0  0
  -21.8818   -3.8151   23.4346 C   0  0  0  0  0  0
  -21.9196   -4.6970   22.3407 C   0  0  0  0  0  0
  -22.7856  -13.5234   21.1859 C   0  0  0  0  0  0
  -22.1663   -4.2156   21.0982 F   0  0  0  0  0  0
  -21.5629   -3.4539   25.7737 F   0  0  0  0  0  0
  -30.0226  -13.3494   20.4297 N   0  0  0  0  0  0
  -26.3003  -12.9361   20.3327 N   0  0  0  0  0  0
  -25.9330  -11.6516   20.5750 N   0  0  0  0  0  0
  -22.0497  -12.8212   22.0408 N   0  0  0  0  0  0
  -25.4304  -15.1897   20.4109 N   0  0  0  0  0  0
  -31.8460  -14.6598   20.1201 O   0  0  0  0  0  0
  -21.6639   -6.8881   21.4243 O   0  0  0  0  0  0
  -22.3543  -14.5550   20.6727 O   0  0  0  0  0  0
  -24.6192  -31.8656   23.2085 C   0  0  0  0  0  0
  -25.9072  -32.4806   23.8389 C   0  0  1  0  0  0
  -27.2219  -27.3917   20.1088 C   0  0  0  0  0  0
  -25.5926  -33.8603   24.2331 N   0  0  0  0  0  0
  -23.4086  -30.4893   21.5505 C   0  0  2  0  0  0
  -24.8546  -28.9528   20.1122 C   0  0  0  0  0  0
  -22.7435  -29.4653   22.4989 C   0  0  0  0  0  0
  -18.0272  -28.1376   22.8495 C   0  0  0  0  0  0
  -24.1488  -36.7296   23.2643 C   0  0  0  0  0  0
  -25.9423  -30.8176   21.3690 C   0  0  0  0  0  0
  -26.0190  -29.4509   20.7122 C   0  0  0  0  0  0
  -27.2102  -28.6799   20.7038 C   0  0  0  0  0  0
  -26.0453  -26.9292   19.4817 C   0  0  0  0  0  0
  -24.8648  -27.6934   19.4906 C   0  0  0  0  0  0
  -23.6180  -29.8228   20.1651 C   0  0  0  0  0  0
  -25.4113  -36.3105   24.0341 C   0  0  1  0  0  0
  -20.5871  -28.3670   23.1307 C   0  0  2  0  0  0
  -20.6770  -26.9402   22.5411 C   0  0  0  0  0  0
  -19.5744  -26.6380   21.5214 C   0  0  0  0  0  0
  -18.1919  -26.7926   22.1616 C   0  0  0  0  0  0
  -19.1523  -28.8839   23.2897 C   0  0  0  0  0  0
  -18.9450  -30.1446   23.8904 C   0  0  0  0  0  0
  -17.6453  -30.6588   24.0556 C   0  0  0  0  0  0
  -25.9036  -34.9465   23.5131 C   0  0  0  0  0  0
  -16.5342  -29.9082   23.6337 C   0  0  0  0  0  0
  -16.7259  -28.6494   23.0365 C   0  0  0  0  0  0
  -26.4486  -31.6588   25.0725 C   0  0  0  0  0  0
  -25.3750  -31.3715   26.1480 C   0  0  0  0  0  0
  -27.0301  -30.3017   24.6127 C   0  0  0  0  0  0
  -27.6077  -32.4296   25.7479 C   0  0  0  0  0  0
  -27.5575  -37.1827   24.8476 C   0  0  0  0  0  0
  -21.4160  -29.3039   22.3723 N   0  0  0  0  0  0
  -26.4310  -37.3779   23.9385 N   0  0  0  0  0  0
  -24.6750  -31.0723   22.1005 N   0  0  0  0  0  0
  -23.4187  -28.8197   23.3049 O   0  0  0  0  0  0
  -28.3386  -26.5720   20.1372 O   0  0  0  0  0  0
  -26.5588  -34.8920   22.4688 O   0  0  0  0  0  0
  -23.5378  -32.1431   23.7456 O   0  0  0  0  0  0
  -32.0627  -18.7288   21.3420 C   0  0  0  0  0  0
  -31.1435  -19.7456   21.0207 C   0  0  0  0  0  0
  -31.6746  -17.3752   21.3190 C   0  0  0  0  0  0
  -29.4241  -18.0497   20.6894 C   0  0  0  0  0  0
  -29.8086  -19.4270   20.6945 C   0  0  0  0  0  0
  -30.3551  -17.0020   20.9680 C   0  0  0  0  0  0
  -28.6363  -22.7722   20.4959 C   0  0  0  0  0  0
  -28.9445  -24.0906   20.2811 C   0  0  0  0  0  0
  -27.8575  -20.6831   21.3843 C   0  0  0  0  0  0
  -27.4684  -22.1624   21.2715 C   0  0  0  0  0  0
  -30.1739  -24.4922   19.4836 C   0  0  0  0  0  0
  -26.1616  -22.2692   20.4589 C   0  0  0  0  0  0
  -27.2820  -22.7587   22.6813 C   0  0  0  0  0  0
  -28.1268  -25.2938   20.8071 C   0  0  0  0  0  0
  -28.8833  -20.4573   20.3841 N   0  0  0  0  0  0
  -29.9562  -15.6097   20.9287 N   0  0  0  0  0  0
  -29.4376  -21.7476   20.0220 O   0  0  0  0  0  0
  -31.4678  -12.4267   19.1392 H   0  0  0  0  0  0
  -30.3204  -11.3341   19.8608 H   0  0  0  0  0  0
  -29.7491  -11.7671   17.4478 H   0  0  0  0  0  0
  -29.6627  -13.4819   17.7589 H   0  0  0  0  0  0
  -27.8382  -11.3051   18.8330 H   0  0  0  0  0  0
  -27.3705  -12.6168   17.7849 H   0  0  0  0  0  0
  -27.6839  -14.2563   19.5421 H   0  0  0  0  0  0
  -28.6860  -12.0227   21.3726 H   0  0  0  0  0  0
  -28.4604  -13.6823   21.8456 H   0  0  0  0  0  0
  -25.2776   -9.5685   22.4750 H   0  0  0  0  0  0
  -24.0016   -7.4632   22.7457 H   0  0  0  0  0  0
  -21.0849   -8.8775   19.8945 H   0  0  0  0  0  0
  -22.3716  -10.9670   19.6149 H   0  0  0  0  0  0
  -21.1994   -7.6151   23.9724 H   0  0  0  0  0  0
  -21.1476   -6.0521   25.9081 H   0  0  0  0  0  0
  -22.0598   -2.7612   23.2845 H   0  0  0  0  0  0
  -22.4105  -11.9857   22.4768 H   0  0  0  0  0  0
  -21.1114  -13.1236   22.2619 H   0  0  0  0  0  0
  -24.6651  -15.8460   20.5178 H   0  0  0  0  0  0
  -26.2787  -15.6252   20.0722 H   0  0  0  0  0  0
  -26.7137  -32.5500   23.1143 H   0  0  0  0  0  0
  -25.0123  -33.9762   25.0514 H   0  0  0  0  0  0
  -22.6996  -31.3079   21.4105 H   0  0  0  0  0  0
  -23.3724  -35.9665   23.3401 H   0  0  0  0  0  0
  -24.3560  -36.8799   22.2036 H   0  0  0  0  0  0
  -23.7282  -37.6553   23.6578 H   0  0  0  0  0  0
  -26.0639  -31.5843   20.6023 H   0  0  0  0  0  0
  -26.8264  -30.8662   21.9928 H   0  0  0  0  0  0
  -28.1058  -29.0547   21.1796 H   0  0  0  0  0  0
  -26.0347  -25.9640   18.9952 H   0  0  0  0  0  0
  -23.9716  -27.3070   19.0193 H   0  0  0  0  0  0
  -23.7276  -30.5972   19.4052 H   0  0  0  0  0  0
  -22.7408  -29.2446   19.8692 H   0  0  0  0  0  0
  -25.1306  -36.1985   25.0842 H   0  0  0  0  0  0
  -20.9954  -28.3224   24.1428 H   0  0  0  0  0  0
  -20.5676  -26.2275   23.3601 H   0  0  0  0  0  0
  -21.6637  -26.7450   22.1190 H   0  0  0  0  0  0
  -19.6901  -25.6292   21.1244 H   0  0  0  0  0  0
  -19.6684  -27.3195   20.6749 H   0  0  0  0  0  0
  -17.4197  -26.6691   21.4008 H   0  0  0  0  0  0
  -18.0299  -26.0051   22.8989 H   0  0  0  0  0  0
  -19.7930  -30.7263   24.2269 H   0  0  0  0  0  0
  -17.5009  -31.6277   24.5139 H   0  0  0  0  0  0
  -15.5346  -30.2985   23.7664 H   0  0  0  0  0  0
  -15.8652  -28.0813   22.7094 H   0  0  0  0  0  0
  -24.5884  -30.7112   25.7812 H   0  0  0  0  0  0
  -24.8992  -32.2880   26.4979 H   0  0  0  0  0  0
  -25.8094  -30.8826   27.0210 H   0  0  0  0  0  0
  -26.2841  -29.6777   24.1187 H   0  0  0  0  0  0
  -27.4052  -29.7260   25.4600 H   0  0  0  0  0  0
  -27.8697  -30.4304   23.9292 H   0  0  0  0  0  0
  -27.2729  -33.3610   26.2056 H   0  0  0  0  0  0
  -28.3894  -32.6823   25.0302 H   0  0  0  0  0  0
  -28.0731  -31.8404   26.5394 H   0  0  0  0  0  0
  -28.2664  -38.0052   24.7432 H   0  0  0  0  0  0
  -28.1005  -36.2587   24.6433 H   0  0  0  0  0  0
  -27.2275  -37.1624   25.8878 H   0  0  0  0  0  0
  -20.9327  -29.8763   21.6942 H   0  0  0  0  0  0
  -26.0210  -38.2879   24.1317 H   0  0  0  0  0  0
  -33.0773  -18.9891   21.6080 H   0  0  0  0  0  0
  -31.4719  -20.7754   21.0422 H   0  0  0  0  0  0
  -32.4125  -16.6285   21.5770 H   0  0  0  0  0  0
  -28.4044  -17.7980   20.4346 H   0  0  0  0  0  0
  -27.0100  -20.0127   21.2338 H   0  0  0  0  0  0
  -28.2682  -20.4663   22.3728 H   0  0  0  0  0  0
  -30.7898  -23.6371   19.2055 H   0  0  0  0  0  0
  -30.7927  -25.1746   20.0667 H   0  0  0  0  0  0
  -29.8754  -25.0013   18.5666 H   0  0  0  0  0  0
  -26.2640  -21.7854   19.4862 H   0  0  0  0  0  0
  -25.8615  -23.2985   20.2755 H   0  0  0  0  0  0
  -25.3348  -21.7823   20.9773 H   0  0  0  0  0  0
  -28.2310  -22.8140   23.2165 H   0  0  0  0  0  0
  -26.6081  -22.1427   23.2778 H   0  0  0  0  0  0
  -26.8499  -23.7569   22.6652 H   0  0  0  0  0  0
  -28.4168  -25.4444   21.8471 H   0  0  0  0  0  0
  -27.0763  -25.0187   20.8352 H   0  0  0  0  0  0
  -28.9826  -15.4144   21.1039 H   0  0  0  0  0  0
  1 25  1  0  0  0
  1 30  2  0  0  0
  1 86  1  0  0  0
  2  3  1  0  0  0
  2 25  1  0  0  0
  2 88  1  0  0  0
  2 89  1  0  0  0
  3  4  1  0  0  0
  3 90  1  0  0  0
  3 91  1  0  0  0
  4  5  1  0  0  0
  4 92  1  0  0  0
  4 93  1  0  0  0
  5  6  1  0  0  0
  5 26  1  0  0  0
  5 94  1  0  0  0
  6 25  1  0  0  0
  6 95  1  0  0  0
  6 96  1  0  0  0
  7  8  2  0  0  0
  7 26  1  0  0  0
  7 29  1  0  0  0
  8  9  1  0  0  0
  8 22  1  0  0  0
  9 10  1  0  0  0
  9 27  2  0  0  0
 10 11  2  0  0  0
 10 15  1  0  0  0
 11 12  1  0  0  0
 11 97  1  0  0  0
 12 13  2  0  0  0
 12 98  1  0  0  0
 13 14  1  0  0  0
 13 31  1  0  0  0
 14 15  2  0  0  0
 14 99  1  0  0  0
 15100  1  0  0  0
 16 17  2  0  0  0
 16 21  1  0  0  0
 16 31  1  0  0  0
 17 18  1  0  0  0
 17101  1  0  0  0
 18 19  2  0  0  0
 18102  1  0  0  0
 19 20  1  0  0  0
 19 24  1  0  0  0
 20 21  2  0  0  0
 20103  1  0  0  0
 21 23  1  0  0  0
 22 28  1  0  0  0
 22 32  2  0  0  0
 26 27  1  0  0  0
 28104  1  0  0  0
 28105  1  0  0  0
 29106  1  0  0  0
 29107  1  0  0  0
 33 34  1  0  0  0
 33 66  1  0  0  0
 33 70  2  0  0  0
 34 36  1  0  0  0
 34 59  1  0  0  0
 34108  1  0  0  0
 35 44  2  0  0  0
 35 45  1  0  0  0
 35 68  1  0  0  0
 36 56  1  0  0  0
 36109  1  0  0  0
 37 39  1  0  0  0
 37 47  1  0  0  0
 37 66  1  0  0  0
 37110  1  0  0  0
 38 43  2  0  0  0
 38 46  1  0  0  0
 38 47  1  0  0  0
 39 64  1  0  0  0
 39 67  2  0  0  0
 40 52  1  0  0  0
 40 53  2  0  0  0
 40 58  1  0  0  0
 41111  1  0  0  0
 41112  1  0  0  0
 41113  1  0  0  0
 41 48  1  0  0  0
 42 43  1  0  0  0
 42 66  1  0  0  0
 42114  1  0  0  0
 42115  1  0  0  0
 43 44  1  0  0  0
 44116  1  0  0  0
 45 46  2  0  0  0
 45117  1  0  0  0
 46118  1  0  0  0
 47119  1  0  0  0
 47120  1  0  0  0
 48 56  1  0  0  0
 48 65  1  0  0  0
 48121  1  0  0  0
 49 50  1  0  0  0
 49 53  1  0  0  0
 49 64  1  0  0  0
 49122  1  0  0  0
 50 51  1  0  0  0
 50123  1  0  0  0
 50124  1  0  0  0
 51 52  1  0  0  0
 51125  1  0  0  0
 51126  1  0  0  0
 52127  1  0  0  0
 52128  1  0  0  0
 53 54  1  0  0  0
 54 55  2  0  0  0
 54129  1  0  0  0
 55 57  1  0  0  0
 55130  1  0  0  0
 56 69  2  0  0  0
 57 58  2  0  0  0
 57131  1  0  0  0
 58132  1  0  0  0
 59 60  1  0  0  0
 59 61  1  0  0  0
 59 62  1  0  0  0
 60133  1  0  0  0
 60134  1  0  0  0
 60135  1  0  0  0
 61136  1  0  0  0
 61137  1  0  0  0
 61138  1  0  0  0
 62139  1  0  0  0
 62140  1  0  0  0
 62141  1  0  0  0
 63 65  1  0  0  0
 63142  1  0  0  0
 63143  1  0  0  0
 63144  1  0  0  0
 64145  1  0  0  0
 65146  1  0  0  0
 68 84  1  0  0  0
 71 72  2  0  0  0
 71 73  1  0  0  0
 71147  1  0  0  0
 72 75  1  0  0  0
 72148  1  0  0  0
 73 76  2  0  0  0
 73149  1  0  0  0
 74 75  2  0  0  0
 74 76  1  0  0  0
 74150  1  0  0  0
 75 85  1  0  0  0
 76 86  1  0  0  0
 77 78  2  0  0  0
 77 80  1  0  0  0
 77 87  1  0  0  0
 78 81  1  0  0  0
 78 84  1  0  0  0
 79 80  1  0  0  0
 79 85  1  0  0  0
 79151  1  0  0  0
 79152  1  0  0  0
 80 82  1  0  0  0
 80 83  1  0  0  0
 81153  1  0  0  0
 81154  1  0  0  0
 81155  1  0  0  0
 82156  1  0  0  0
 82157  1  0  0  0
 82158  1  0  0  0
 83159  1  0  0  0
 83160  1  0  0  0
 83161  1  0  0  0
 84162  1  0  0  0
 84163  1  0  0  0
 85 87  1  0  0  0
 86164  1  0  0  0
M  ISO  4   1 100  68 101  84 101  86 100
M  END
> <chiral flag>
0

> <version>
0

> <s_m_source_file>
/data/baiqing/PycharmProjects/Reinvent-master-3.2/result/LINK_invent/BTK/process_docking_weight1_custom_product_contain_oxygen_bond_distance_aromatic_linkinvent_7_9_3/rearranged_h_0075.sdf

> <i_m_source_file_index>
30

> <r_mmod_Potential_Energy-OPLS-2005>
25.1633110046387

> <r_mmod_Stretch_Energy-OPLS-2005>
52.2421112060547

> <r_mmod_Bend_Energy-OPLS-2005>
118.703163146973

> <r_mmod_Torsional_Energy-OPLS-2005>
241.167495727539

> <r_mmod_Improper_Torsional_Energy-OPLS-2005>
9.77376747131348

> <r_mmod_Van_der_Waal_Energy-OPLS-2005>
151.128784179688

> <r_mmod_Electrostatic_Energy-OPLS-2005>
-367.718627929688

> <r_mmod_Solvation_Energy-OPLS-2005>
-204.377105712891

> <b_mmod_Minimization_Converged-OPLS-2005>
0

> <r_mmod_RMS_Derivative-OPLS-2005>
1.06902027130127

$$$$
30
                    3D
 Structure written by MMmdl.
159167  0  0  1  0            999 V2000
  -30.6065  -14.6454   20.4997 C   0  0  0  0  0  0
  -30.4435  -12.4001   19.4386 C   0  0  0  0  0  0
  -29.5037  -12.5052   18.2155 C   0  0  0  0  0  0
  -28.0272  -12.3413   18.6312 C   0  0  0  0  0  0
  -27.6511  -13.2102   19.8599 C   0  0  2  0  0  0
  -28.7007  -13.0614   20.9855 C   0  0  0  0  0  0
  -25.2555  -13.8156   20.5682 C   0  0  0  0  0  0
  -24.1821  -13.0423   20.9192 C   0  0  0  0  0  0
  -24.6387  -11.6898   20.8744 C   0  0  0  0  0  0
  -23.9055  -10.4288   21.0414 C   0  0  0  0  0  0
  -24.3608   -9.4211   21.9189 C   0  0  0  0  0  0
  -23.6296   -8.2240   22.0753 C   0  0  0  0  0  0
  -22.4276   -8.0274   21.3543 C   0  0  0  0  0  0
  -21.9912   -9.0249   20.4642 C   0  0  0  0  0  0
  -22.7232  -10.2132   20.3062 C   0  0  0  0  0  0
  -21.6850   -6.0739   22.5282 C   0  0  0  0  0  0
  -21.4005   -6.5645   23.8218 C   0  0  0  0  0  0
  -21.3656   -5.6795   24.9176 C   0  0  0  0  0  0
  -21.6050   -4.3062   24.7228 C   0  0  0  0  0  0
  -21.8816   -3.8148   23.4349 C   0  0  0  0  0  0
  -21.9195   -4.6965   22.3402 C   0  0  0  0  0  0
  -22.7855  -13.5233   21.1869 C   0  0  0  0  0  0
  -22.1662   -4.2155   21.0986 F   0  0  0  0  0  0
  -21.5632   -3.4547   25.7742 F   0  0  0  0  0  0
  -30.0123  -13.4143   20.4178 N   0  0  0  0  0  0
  -26.2982  -12.9322   20.3320 N   0  0  0  0  0  0
  -25.9312  -11.6486   20.5759 N   0  0  0  0  0  0
  -22.0498  -12.8216   22.0419 N   0  0  0  0  0  0
  -25.4248  -15.1881   20.4091 N   0  0  0  0  0  0
  -31.7798  -14.8223   20.1569 O   0  0  0  0  0  0
  -21.6639   -6.8876   21.4243 O   0  0  0  0  0  0
  -22.3536  -14.5547   20.6735 O   0  0  0  0  0  0
  -24.6243  -31.8581   23.2022 C   0  0  0  0  0  0
  -25.9081  -32.4788   23.8339 C   0  0  1  0  0  0
  -27.2248  -27.3241   20.1245 C   0  0  0  0  0  0
  -25.5900  -33.8591   24.2272 N   0  0  0  0  0  0
  -23.4191  -30.4847   21.5393 C   0  0  2  0  0  0
  -24.8663  -28.9393   20.1090 C   0  0  0  0  0  0
  -22.7474  -29.4623   22.4872 C   0  0  0  0  0  0
  -18.0301  -28.1395   22.8457 C   0  0  0  0  0  0
  -24.1500  -36.7299   23.2640 C   0  0  0  0  0  0
  -25.9581  -30.7978   21.3676 C   0  0  0  0  0  0
  -26.0345  -29.4250   20.7102 C   0  0  0  0  0  0
  -27.2145  -28.6285   20.7071 C   0  0  0  0  0  0
  -26.0377  -26.8939   19.4899 C   0  0  0  0  0  0
  -24.8694  -27.6792   19.4900 C   0  0  0  0  0  0
  -23.6355  -29.8193   20.1545 C   0  0  0  0  0  0
  -25.4119  -36.3082   24.0342 C   0  0  1  0  0  0
  -20.5907  -28.3689   23.1270 C   0  0  2  0  0  0
  -20.6792  -26.9411   22.5395 C   0  0  0  0  0  0
  -19.5771  -26.6369   21.5201 C   0  0  0  0  0  0
  -18.1952  -26.7926   22.1603 C   0  0  0  0  0  0
  -19.1556  -28.8844   23.2870 C   0  0  0  0  0  0
  -18.9491  -30.1432   23.8899 C   0  0  0  0  0  0
  -17.6502  -30.6585   24.0550 C   0  0  0  0  0  0
  -25.9057  -34.9457   23.5101 C   0  0  0  0  0  0
  -16.5383  -29.9085   23.6335 C   0  0  0  0  0  0
  -16.7299  -28.6510   23.0340 C   0  0  0  0  0  0
  -26.4476  -31.6601   25.0704 C   0  0  0  0  0  0
  -25.3717  -31.3756   26.1441 C   0  0  0  0  0  0
  -27.0296  -30.3038   24.6112 C   0  0  0  0  0  0
  -27.6017  -32.4332   25.7486 C   0  0  0  0  0  0
  -27.5587  -37.1794   24.8470 C   0  0  0  0  0  0
  -21.4184  -29.3051   22.3643 N   0  0  0  0  0  0
  -26.4291  -37.3792   23.9419 N   0  0  0  0  0  0
  -24.6858  -31.0625   22.0937 N   0  0  0  0  0  0
  -23.4206  -28.8164   23.2945 O   0  0  0  0  0  0
  -28.3491  -26.4891   20.2016 O   0  0  0  0  0  0
  -26.5623  -34.8915   22.4673 O   0  0  0  0  0  0
  -23.5402  -32.1336   23.7365 O   0  0  0  0  0  0
  -31.0051  -19.2977   21.0839 C   0  0  0  0  0  0
  -31.0325  -17.8712   21.0147 C   0  0  0  0  0  0
  -28.6656  -19.3170   20.5177 C   0  0  0  0  0  0
  -29.8201  -20.0649   20.8637 C   0  0  0  0  0  0
  -29.8628  -17.1284   20.7218 C   0  0  0  0  0  0
  -28.6902  -17.8906   20.4594 C   0  0  0  0  0  0
  -29.8106  -21.5599   21.1315 C   0  0  0  0  0  0
  -30.6873  -24.5171   20.2132 C   0  0  0  0  0  0
  -32.7452  -25.3384   21.1049 C   0  0  0  0  0  0
  -28.1888  -25.0257   20.0179 C   0  0  0  0  0  0
  -29.2910  -24.0699   20.6607 C   0  0  1  0  0  0
  -30.5132  -21.9551   22.1956 N   0  0  0  0  0  0
  -29.7473  -15.6747   20.7651 N   0  0  0  0  0  0
  -29.1724  -22.5584   20.4292 N   0  3  0  0  0  0
  -31.1182  -24.3987   19.0646 O   0  0  0  0  0  0
  -31.3848  -24.9668   21.2677 O   0  0  0  0  0  0
  -27.5459  -17.2251   20.1651 F   0  0  0  0  0  0
  -31.4807  -12.5439   19.1298 H   0  0  0  0  0  0
  -30.3946  -11.4038   19.8796 H   0  0  0  0  0  0
  -29.7656  -11.7505   17.4730 H   0  0  0  0  0  0
  -29.6389  -13.4717   17.7265 H   0  0  0  0  0  0
  -27.8633  -11.2877   18.8612 H   0  0  0  0  0  0
  -27.3704  -12.5723   17.7912 H   0  0  0  0  0  0
  -27.6651  -14.2439   19.5146 H   0  0  0  0  0  0
  -28.7199  -12.0375   21.3612 H   0  0  0  0  0  0
  -28.4487  -13.6875   21.8423 H   0  0  0  0  0  0
  -25.2750   -9.5696   22.4759 H   0  0  0  0  0  0
  -24.0013   -7.4634   22.7466 H   0  0  0  0  0  0
  -21.0850   -8.8760   19.8946 H   0  0  0  0  0  0
  -22.3688  -10.9669   19.6171 H   0  0  0  0  0  0
  -21.1983   -7.6151   23.9720 H   0  0  0  0  0  0
  -21.1482   -6.0527   25.9081 H   0  0  0  0  0  0
  -22.0596   -2.7615   23.2851 H   0  0  0  0  0  0
  -22.4108  -11.9859   22.4779 H   0  0  0  0  0  0
  -21.1117  -13.1238   22.2638 H   0  0  0  0  0  0
  -24.6553  -15.8359   20.5316 H   0  0  0  0  0  0
  -26.2705  -15.6513   20.0968 H   0  0  0  0  0  0
  -26.7127  -32.5461   23.1057 H   0  0  0  0  0  0
  -25.0053  -33.9741   25.0420 H   0  0  0  0  0  0
  -22.7136  -31.3061   21.3930 H   0  0  0  0  0  0
  -23.3763  -35.9623   23.3300 H   0  0  0  0  0  0
  -24.3584  -36.8912   22.2052 H   0  0  0  0  0  0
  -23.7245  -37.6492   23.6660 H   0  0  0  0  0  0
  -26.0846  -31.5676   20.6032 H   0  0  0  0  0  0
  -26.8406  -30.8491   21.9927 H   0  0  0  0  0  0
  -28.1108  -28.9933   21.1883 H   0  0  0  0  0  0
  -25.9904  -25.9350   18.9952 H   0  0  0  0  0  0
  -23.9749  -27.3018   19.0145 H   0  0  0  0  0  0
  -23.7630  -30.5975   19.4006 H   0  0  0  0  0  0
  -22.7556  -29.2537   19.8424 H   0  0  0  0  0  0
  -25.1300  -36.1925   25.0842 H   0  0  0  0  0  0
  -21.0023  -28.3255   24.1383 H   0  0  0  0  0  0
  -20.5705  -26.2292   23.3581 H   0  0  0  0  0  0
  -21.6662  -26.7420   22.1189 H   0  0  0  0  0  0
  -19.6948  -25.6281   21.1226 H   0  0  0  0  0  0
  -19.6734  -27.3168   20.6726 H   0  0  0  0  0  0
  -17.4226  -26.6668   21.4008 H   0  0  0  0  0  0
  -18.0351  -26.0084   22.9014 H   0  0  0  0  0  0
  -19.7995  -30.7228   24.2266 H   0  0  0  0  0  0
  -17.5087  -31.6274   24.5129 H   0  0  0  0  0  0
  -15.5403  -30.2987   23.7666 H   0  0  0  0  0  0
  -15.8701  -28.0823   22.7053 H   0  0  0  0  0  0
  -24.5890  -30.7109   25.7788 H   0  0  0  0  0  0
  -24.8923  -32.2942   26.4834 H   0  0  0  0  0  0
  -25.8050  -30.8957   27.0223 H   0  0  0  0  0  0
  -26.2840  -29.6815   24.1154 H   0  0  0  0  0  0
  -27.4046  -29.7270   25.4561 H   0  0  0  0  0  0
  -27.8686  -30.4353   23.9279 H   0  0  0  0  0  0
  -27.2611  -33.3637   26.2038 H   0  0  0  0  0  0
  -28.3851  -32.6879   25.0348 H   0  0  0  0  0  0
  -28.0648  -31.8477   26.5425 H   0  0  0  0  0  0
  -28.2572  -38.0117   24.7524 H   0  0  0  0  0  0
  -28.1105  -36.2632   24.6277 H   0  0  0  0  0  0
  -27.2303  -37.1438   25.8874 H   0  0  0  0  0  0
  -20.9326  -29.8779   21.6884 H   0  0  0  0  0  0
  -26.0168  -38.2858   24.1449 H   0  0  0  0  0  0
  -31.9193  -19.8070   21.3540 H   0  0  0  0  0  0
  -31.9520  -17.3497   21.2412 H   0  0  0  0  0  0
  -27.7290  -19.8270   20.3438 H   0  0  0  0  0  0
  -33.1527  -25.6651   22.0613 H   0  0  0  0  0  0
  -32.8486  -26.1562   20.3922 H   0  0  0  0  0  0
  -33.3435  -24.4938   20.7629 H   0  0  0  0  0  0
  -27.2390  -24.7246   20.4633 H   0  0  0  0  0  0
  -28.1050  -24.8193   18.9514 H   0  0  0  0  0  0
  -29.2167  -24.2227   21.7383 H   0  0  0  0  0  0
  -30.9672  -21.2591   22.7661 H   0  0  0  0  0  0
  -30.5548  -22.9150   22.4890 H   0  0  0  0  0  0
  -28.7975  -15.3615   20.8844 H   0  0  0  0  0  0
  -28.7760  -22.2768   19.5433 H   0  0  0  0  0  0
  1 25  1  0  0  0
  1 30  2  0  0  0
  1 83  1  0  0  0
  2  3  1  0  0  0
  2 25  1  0  0  0
  2 88  1  0  0  0
  2 89  1  0  0  0
  3  4  1  0  0  0
  3 90  1  0  0  0
  3 91  1  0  0  0
  4  5  1  0  0  0
  4 92  1  0  0  0
  4 93  1  0  0  0
  5  6  1  0  0  0
  5 26  1  0  0  0
  5 94  1  0  0  0
  6 25  1  0  0  0
  6 95  1  0  0  0
  6 96  1  0  0  0
  7  8  2  0  0  0
  7 26  1  0  0  0
  7 29  1  0  0  0
  8  9  1  0  0  0
  8 22  1  0  0  0
  9 10  1  0  0  0
  9 27  2  0  0  0
 10 11  2  0  0  0
 10 15  1  0  0  0
 11 12  1  0  0  0
 11 97  1  0  0  0
 12 13  2  0  0  0
 12 98  1  0  0  0
 13 14  1  0  0  0
 13 31  1  0  0  0
 14 15  2  0  0  0
 14 99  1  0  0  0
 15100  1  0  0  0
 16 17  2  0  0  0
 16 21  1  0  0  0
 16 31  1  0  0  0
 17 18  1  0  0  0
 17101  1  0  0  0
 18 19  2  0  0  0
 18102  1  0  0  0
 19 20  1  0  0  0
 19 24  1  0  0  0
 20 21  2  0  0  0
 20103  1  0  0  0
 21 23  1  0  0  0
 22 28  1  0  0  0
 22 32  2  0  0  0
 26 27  1  0  0  0
 28104  1  0  0  0
 28105  1  0  0  0
 29106  1  0  0  0
 29107  1  0  0  0
 33 34  1  0  0  0
 33 66  1  0  0  0
 33 70  2  0  0  0
 34 36  1  0  0  0
 34 59  1  0  0  0
 34108  1  0  0  0
 35 44  2  0  0  0
 35 45  1  0  0  0
 35 68  1  0  0  0
 36 56  1  0  0  0
 36109  1  0  0  0
 37 39  1  0  0  0
 37 47  1  0  0  0
 37 66  1  0  0  0
 37110  1  0  0  0
 38 43  2  0  0  0
 38 46  1  0  0  0
 38 47  1  0  0  0
 39 64  1  0  0  0
 39 67  2  0  0  0
 40 52  1  0  0  0
 40 53  2  0  0  0
 40 58  1  0  0  0
 41111  1  0  0  0
 41112  1  0  0  0
 41113  1  0  0  0
 41 48  1  0  0  0
 42 43  1  0  0  0
 42 66  1  0  0  0
 42114  1  0  0  0
 42115  1  0  0  0
 43 44  1  0  0  0
 44116  1  0  0  0
 45 46  2  0  0  0
 45117  1  0  0  0
 46118  1  0  0  0
 47119  1  0  0  0
 47120  1  0  0  0
 48 56  1  0  0  0
 48 65  1  0  0  0
 48121  1  0  0  0
 49 50  1  0  0  0
 49 53  1  0  0  0
 49 64  1  0  0  0
 49122  1  0  0  0
 50 51  1  0  0  0
 50123  1  0  0  0
 50124  1  0  0  0
 51 52  1  0  0  0
 51125  1  0  0  0
 51126  1  0  0  0
 52127  1  0  0  0
 52128  1  0  0  0
 53 54  1  0  0  0
 54 55  2  0  0  0
 54129  1  0  0  0
 55 57  1  0  0  0
 55130  1  0  0  0
 56 69  2  0  0  0
 57 58  2  0  0  0
 57131  1  0  0  0
 58132  1  0  0  0
 59 60  1  0  0  0
 59 61  1  0  0  0
 59 62  1  0  0  0
 60133  1  0  0  0
 60134  1  0  0  0
 60135  1  0  0  0
 61136  1  0  0  0
 61137  1  0  0  0
 61138  1  0  0  0
 62139  1  0  0  0
 62140  1  0  0  0
 62141  1  0  0  0
 63 65  1  0  0  0
 63142  1  0  0  0
 63143  1  0  0  0
 63144  1  0  0  0
 64145  1  0  0  0
 65146  1  0  0  0
 68 80  1  0  0  0
 71 72  2  0  0  0
 71 74  1  0  0  0
 71147  1  0  0  0
 72 75  1  0  0  0
 72148  1  0  0  0
 73 74  2  0  0  0
 73 76  1  0  0  0
 73149  1  0  0  0
 74 77  1  0  0  0
 75 76  2  0  0  0
 75 83  1  0  0  0
 76 87  1  0  0  0
 77 82  1  0  0  0
 77 84  2  0  0  0
 78 81  1  0  0  0
 78 85  2  0  0  0
 78 86  1  0  0  0
 79 86  1  0  0  0
 79150  1  0  0  0
 79151  1  0  0  0
 79152  1  0  0  0
 80153  1  0  0  0
 80154  1  0  0  0
 80 81  1  0  0  0
 81 84  1  0  0  0
 81155  1  0  0  0
 82156  1  0  0  0
 82157  1  0  0  0
 83158  1  0  0  0
 84159  1  0  0  0
M  CHG  1  84   1
M  ISO  4   1 100  68 101  80 101  83 100
M  END
> <chiral flag>
0

> <version>
0

> <s_m_source_file>
/data/baiqing/PycharmProjects/Reinvent-master-3.2/result/LINK_invent/BTK/process_docking_weight1_custom_product_contain_oxygen_bond_distance_aromatic_linkinvent_7_9_3/rearranged_h_0075.sdf

> <i_m_source_file_index>
31

> <r_mmod_Potential_Energy-OPLS-2005>
-365.837280273438

> <r_mmod_Stretch_Energy-OPLS-2005>
78.6866226196289

> <r_mmod_Bend_Energy-OPLS-2005>
139.629501342773

> <r_mmod_Torsional_Energy-OPLS-2005>
213.288986206055

> <r_mmod_Improper_Torsional_Energy-OPLS-2005>
6.97275066375732

> <r_mmod_Van_der_Waal_Energy-OPLS-2005>
150.538940429688

> <r_mmod_Electrostatic_Energy-OPLS-2005>
-559.00244140625

> <r_mmod_Solvation_Energy-OPLS-2005>
-445.977691650391

> <b_mmod_Minimization_Converged-OPLS-2005>
0

> <r_mmod_RMS_Derivative-OPLS-2005>
2.94860053062439

$$$$
31
                    3D
 Structure written by MMmdl.
166175  0  0  1  0            999 V2000
  -31.7971  -14.9963   19.7645 C   0  0  0  0  0  0
  -30.7796  -12.9314   20.1992 C   0  0  0  0  0  0
  -29.5405  -11.7200   19.6997 C   0  0  0  0  0  0
  -27.9137  -11.9243   19.0517 C   0  0  0  0  0  0
  -26.9605  -13.4189   19.1120 C   0  0  2  0  0  0
  -27.7748  -15.1937   19.0859 C   0  0  0  0  0  0
  -25.0531  -13.9247   20.6459 C   0  0  0  0  0  0
  -24.0500  -13.0842   21.0279 C   0  0  0  0  0  0
  -24.5442  -11.7556   20.9446 C   0  0  0  0  0  0
  -23.8701  -10.4493   21.0690 C   0  0  0  0  0  0
  -24.3495   -9.4380   21.9306 C   0  0  0  0  0  0
  -23.6302   -8.2319   22.0766 C   0  0  0  0  0  0
  -22.4292   -8.0277   21.3523 C   0  0  0  0  0  0
  -21.9880   -9.0211   20.4606 C   0  0  0  0  0  0
  -22.7019  -10.2215   20.3164 C   0  0  0  0  0  0
  -21.6886   -6.0729   22.5279 C   0  0  0  0  0  0
  -21.4043   -6.5648   23.8221 C   0  0  0  0  0  0
  -21.3666   -5.6787   24.9184 C   0  0  0  0  0  0
  -21.6040   -4.3065   24.7221 C   0  0  0  0  0  0
  -21.8813   -3.8146   23.4358 C   0  0  0  0  0  0
  -21.9193   -4.6930   22.3410 C   0  0  0  0  0  0
  -22.6540  -13.5214   21.2609 C   0  0  0  0  0  0
  -22.1667   -4.2105   21.0987 F   0  0  0  0  0  0
  -21.5603   -3.4562   25.7768 F   0  0  0  0  0  0
  -30.5672  -14.6965   20.0248 N   0  0  0  0  0  0
  -26.0320  -13.1052   20.1903 N   0  0  0  0  0  0
  -25.7902  -11.8050   20.5627 N   0  0  0  0  0  0
  -21.9305  -12.7967   22.1042 N   0  0  0  0  0  0
  -25.1269  -15.2913   20.5003 N   0  0  0  0  0  0
  -32.6272  -14.8967   20.6108 O   0  0  0  0  0  0
  -21.6737   -6.8850   21.4241 O   0  0  0  0  0  0
  -22.2149  -14.5381   20.7294 O   0  0  0  0  0  0
  -24.6703  -31.8179   23.1663 C   0  0  0  0  0  0
  -25.9349  -32.4539   23.8141 C   0  0  1  0  0  0
  -27.0959  -26.7590   20.3404 C   0  0  0  0  0  0
  -25.6011  -33.8363   24.2046 N   0  0  0  0  0  0
  -23.4869  -30.4316   21.5174 C   0  0  2  0  0  0
  -24.9281  -28.7988   20.1195 C   0  0  0  0  0  0
  -22.7686  -29.4416   22.4759 C   0  0  0  0  0  0
  -18.0324  -28.1411   22.8463 C   0  0  0  0  0  0
  -24.1503  -36.7188   23.2644 C   0  0  0  0  0  0
  -26.0598  -30.5805   21.4208 C   0  0  0  0  0  0
  -26.1102  -29.1483   20.7880 C   0  0  0  0  0  0
  -27.1963  -28.1527   20.8651 C   0  0  0  0  0  0
  -25.9326  -26.6084   19.5630 C   0  0  0  0  0  0
  -24.8805  -27.5552   19.4650 C   0  0  0  0  0  0
  -23.7346  -29.7504   20.1421 C   0  0  0  0  0  0
  -25.4144  -36.2935   24.0289 C   0  0  1  0  0  0
  -20.5941  -28.3760   23.1173 C   0  0  2  0  0  0
  -20.6807  -26.9439   22.5401 C   0  0  0  0  0  0
  -19.5782  -26.6377   21.5217 C   0  0  0  0  0  0
  -18.1956  -26.7946   22.1625 C   0  0  0  0  0  0
  -19.1580  -28.8909   23.2805 C   0  0  0  0  0  0
  -18.9498  -30.1494   23.8844 C   0  0  0  0  0  0
  -17.6494  -30.6596   24.0549 C   0  0  0  0  0  0
  -25.9110  -34.9310   23.4979 C   0  0  0  0  0  0
  -16.5382  -29.9078   23.6342 C   0  0  0  0  0  0
  -16.7310  -28.6500   23.0360 C   0  0  0  0  0  0
  -26.4580  -31.6503   25.0694 C   0  0  0  0  0  0
  -25.3687  -31.3789   26.1336 C   0  0  0  0  0  0
  -27.0474  -30.2844   24.6504 C   0  0  0  0  0  0
  -27.6063  -32.4318   25.7505 C   0  0  0  0  0  0
  -27.5569  -37.1760   24.8474 C   0  0  0  0  0  0
  -21.4354  -29.3044   22.3494 N   0  0  0  0  0  0
  -26.4291  -37.3681   23.9390 N   0  0  0  0  0  0
  -24.7612  -30.9750   22.0863 N   0  0  0  0  0  0
  -23.4200  -28.7962   23.3008 O   0  0  0  0  0  0
  -27.9642  -25.5138   20.4609 O   0  0  0  0  0  0
  -26.5723  -34.8870   22.4580 O   0  0  0  0  0  0
  -23.5739  -32.1191   23.6710 O   0  0  0  0  0  0
  -28.6328  -14.0985   20.7234 C   0  0  0  0  0  0
  -29.3757  -16.8840   19.9179 C   0  0  0  0  0  0
  -29.3056  -13.7939   18.5108 C   0  0  0  0  0  0
  -29.7708  -16.5361   18.4512 C   0  0  0  0  0  0
  -28.7799  -15.9586   21.0568 C   0  0  0  0  0  0
  -29.8445  -15.1242   17.7797 C   0  0  0  0  0  0
  -28.0480  -17.2839   21.8501 C   0  0  0  0  0  0
  -25.6992  -20.3264   21.7854 C   0  0  0  0  0  0
  -26.2431  -21.7701   21.8320 C   0  0  0  0  0  0
  -26.5735  -19.2600   22.4890 C   0  0  0  0  0  0
  -28.3892  -20.4221   21.2516 C   0  0  0  0  0  0
  -27.4877  -22.0508   20.9477 C   0  0  2  0  0  0
  -31.2459  -14.9914   17.2680 C   0  0  0  0  0  0
  -27.6063  -23.9637   21.1086 C   0  0  0  0  0  0
  -27.7860  -18.8485   21.7095 N   0  0  0  0  0  0
  -32.1369  -15.1340   18.4481 N   0  0  0  0  0  0
  -27.5102  -16.7729   22.9564 N   0  3  0  0  0  0
  -31.7077  -12.5841   19.7421 H   0  0  0  0  0  0
  -30.9493  -12.7705   21.2618 H   0  0  0  0  0  0
  -29.4088  -11.0780   20.5717 H   0  0  0  0  0  0
  -30.0466  -11.0500   18.9990 H   0  0  0  0  0  0
  -27.3999  -10.9769   19.2251 H   0  0  0  0  0  0
  -27.9744  -11.7422   17.9754 H   0  0  0  0  0  0
  -26.3308  -13.4138   18.2245 H   0  0  0  0  0  0
  -27.1320  -15.9734   19.4967 H   0  0  0  0  0  0
  -27.5779  -15.5118   18.0518 H   0  0  0  0  0  0
  -25.2557   -9.6031   22.4985 H   0  0  0  0  0  0
  -24.0087   -7.4717   22.7399 H   0  0  0  0  0  0
  -21.0878   -8.8629   19.8849 H   0  0  0  0  0  0
  -22.3359  -10.9791   19.6332 H   0  0  0  0  0  0
  -21.2082   -7.6161   23.9690 H   0  0  0  0  0  0
  -21.1487   -6.0560   25.9071 H   0  0  0  0  0  0
  -22.0569   -2.7596   23.2880 H   0  0  0  0  0  0
  -22.3131  -11.9768   22.5520 H   0  0  0  0  0  0
  -20.9777  -13.0624   22.3038 H   0  0  0  0  0  0
  -24.2783  -15.8418   20.6009 H   0  0  0  0  0  0
  -25.8086  -15.6975   19.8753 H   0  0  0  0  0  0
  -26.7418  -32.5030   23.0846 H   0  0  0  0  0  0
  -25.0119  -33.9439   25.0168 H   0  0  0  0  0  0
  -22.8044  -31.2646   21.3433 H   0  0  0  0  0  0
  -23.3779  -35.9508   23.3273 H   0  0  0  0  0  0
  -24.3586  -36.8882   22.2068 H   0  0  0  0  0  0
  -23.7258  -37.6358   23.6740 H   0  0  0  0  0  0
  -26.2488  -31.3047   20.6268 H   0  0  0  0  0  0
  -26.9189  -30.6472   22.0783 H   0  0  0  0  0  0
  -28.0804  -28.4157   21.4325 H   0  0  0  0  0  0
  -25.7781  -25.6566   19.0743 H   0  0  0  0  0  0
  -23.9929  -27.2840   18.9116 H   0  0  0  0  0  0
  -23.9148  -30.5173   19.3894 H   0  0  0  0  0  0
  -22.8410  -29.2243   19.8077 H   0  0  0  0  0  0
  -25.1357  -36.1726   25.0789 H   0  0  0  0  0  0
  -21.0040  -28.3378   24.1295 H   0  0  0  0  0  0
  -20.5678  -26.2387   23.3644 H   0  0  0  0  0  0
  -21.6666  -26.7411   22.1202 H   0  0  0  0  0  0
  -19.6937  -25.6269   21.1276 H   0  0  0  0  0  0
  -19.6707  -27.3157   20.6713 H   0  0  0  0  0  0
  -17.4222  -26.6675   21.4025 H   0  0  0  0  0  0
  -18.0357  -26.0089   22.9026 H   0  0  0  0  0  0
  -19.7969  -30.7320   24.2190 H   0  0  0  0  0  0
  -17.5041  -31.6270   24.5167 H   0  0  0  0  0  0
  -15.5372  -30.2973   23.7703 H   0  0  0  0  0  0
  -15.8710  -28.0810   22.7118 H   0  0  0  0  0  0
  -24.5924  -30.7075   25.7663 H   0  0  0  0  0  0
  -24.8809  -32.2987   26.4561 H   0  0  0  0  0  0
  -25.7902  -30.9107   27.0239 H   0  0  0  0  0  0
  -26.3155  -29.6510   24.1486 H   0  0  0  0  0  0
  -27.3924  -29.7238   25.5201 H   0  0  0  0  0  0
  -27.9138  -30.3980   23.9988 H   0  0  0  0  0  0
  -27.2644  -33.3693   26.1904 H   0  0  0  0  0  0
  -28.3973  -32.6753   25.0400 H   0  0  0  0  0  0
  -28.0615  -31.8551   26.5569 H   0  0  0  0  0  0
  -28.2587  -38.0053   24.7476 H   0  0  0  0  0  0
  -28.1063  -36.2568   24.6364 H   0  0  0  0  0  0
  -27.2270  -37.1479   25.8877 H   0  0  0  0  0  0
  -20.9614  -29.8739   21.6620 H   0  0  0  0  0  0
  -26.0126  -38.2744   24.1377 H   0  0  0  0  0  0
  -28.2391  -13.3618   21.4123 H   0  0  0  0  0  0
  -29.4828  -17.9436   20.0985 H   0  0  0  0  0  0
  -29.5514  -12.9708   17.8465 H   0  0  0  0  0  0
  -30.2261  -17.3531   17.9135 H   0  0  0  0  0  0
  -25.4806  -20.0287   20.7624 H   0  0  0  0  0  0
  -24.7312  -20.3266   22.2832 H   0  0  0  0  0  0
  -26.4777  -22.0188   22.8688 H   0  0  0  0  0  0
  -25.4207  -22.4300   21.5431 H   0  0  0  0  0  0
  -25.8794  -18.4352   22.6582 H   0  0  0  0  0  0
  -26.8719  -19.6155   23.4788 H   0  0  0  0  0  0
  -29.0562  -20.6567   22.0826 H   0  0  0  0  0  0
  -29.0688  -20.2737   20.4157 H   0  0  0  0  0  0
  -27.1752  -21.9361   19.9101 H   0  0  0  0  0  0
  -31.4050  -14.0357   16.7709 H   0  0  0  0  0  0
  -31.4594  -15.7788   16.5433 H   0  0  0  0  0  0
  -27.8950  -24.1082   22.1511 H   0  0  0  0  0  0
  -26.5388  -24.1830   21.1174 H   0  0  0  0  0  0
  -33.1094  -15.3169   18.2620 H   0  0  0  0  0  0
  -27.5870  -15.7748   23.0938 H   0  0  0  0  0  0
  -27.1396  -17.3307   23.7022 H   0  0  0  0  0  0
  1 25  1  0  0  0
  1 30  2  0  0  0
  1 86  1  0  0  0
  2  3  1  0  0  0
  2 25  1  0  0  0
  2 88  1  0  0  0
  2 89  1  0  0  0
  3  4  1  0  0  0
  3 90  1  0  0  0
  3 91  1  0  0  0
  4  5  1  0  0  0
  4 92  1  0  0  0
  4 93  1  0  0  0
  5  6  1  0  0  0
  5 26  1  0  0  0
  5 94  1  0  0  0
  6 25  1  0  0  0
  6 95  1  0  0  0
  6 96  1  0  0  0
  7  8  2  0  0  0
  7 26  1  0  0  0
  7 29  1  0  0  0
  8  9  1  0  0  0
  8 22  1  0  0  0
  9 10  1  0  0  0
  9 27  2  0  0  0
 10 11  2  0  0  0
 10 15  1  0  0  0
 11 12  1  0  0  0
 11 97  1  0  0  0
 12 13  2  0  0  0
 12 98  1  0  0  0
 13 14  1  0  0  0
 13 31  1  0  0  0
 14 15  2  0  0  0
 14 99  1  0  0  0
 15100  1  0  0  0
 16 17  2  0  0  0
 16 21  1  0  0  0
 16 31  1  0  0  0
 17 18  1  0  0  0
 17101  1  0  0  0
 18 19  2  0  0  0
 18102  1  0  0  0
 19 20  1  0  0  0
 19 24  1  0  0  0
 20 21  2  0  0  0
 20103  1  0  0  0
 21 23  1  0  0  0
 22 28  1  0  0  0
 22 32  2  0  0  0
 26 27  1  0  0  0
 28104  1  0  0  0
 28105  1  0  0  0
 29106  1  0  0  0
 29107  1  0  0  0
 33 34  1  0  0  0
 33 66  1  0  0  0
 33 70  2  0  0  0
 34 36  1  0  0  0
 34 59  1  0  0  0
 34108  1  0  0  0
 35 44  2  0  0  0
 35 45  1  0  0  0
 35 68  1  0  0  0
 36 56  1  0  0  0
 36109  1  0  0  0
 37 39  1  0  0  0
 37 47  1  0  0  0
 37 66  1  0  0  0
 37110  1  0  0  0
 38 43  2  0  0  0
 38 46  1  0  0  0
 38 47  1  0  0  0
 39 64  1  0  0  0
 39 67  2  0  0  0
 40 52  1  0  0  0
 40 53  2  0  0  0
 40 58  1  0  0  0
 41111  1  0  0  0
 41112  1  0  0  0
 41113  1  0  0  0
 41 48  1  0  0  0
 42 43  1  0  0  0
 42 66  1  0  0  0
 42114  1  0  0  0
 42115  1  0  0  0
 43 44  1  0  0  0
 44116  1  0  0  0
 45 46  2  0  0  0
 45117  1  0  0  0
 46118  1  0  0  0
 47119  1  0  0  0
 47120  1  0  0  0
 48 56  1  0  0  0
 48 65  1  0  0  0
 48121  1  0  0  0
 49 50  1  0  0  0
 49 53  1  0  0  0
 49 64  1  0  0  0
 49122  1  0  0  0
 50 51  1  0  0  0
 50123  1  0  0  0
 50124  1  0  0  0
 51 52  1  0  0  0
 51125  1  0  0  0
 51126  1  0  0  0
 52127  1  0  0  0
 52128  1  0  0  0
 53 54  1  0  0  0
 54 55  2  0  0  0
 54129  1  0  0  0
 55 57  1  0  0  0
 55130  1  0  0  0
 56 69  2  0  0  0
 57 58  2  0  0  0
 57131  1  0  0  0
 58132  1  0  0  0
 59 60  1  0  0  0
 59 61  1  0  0  0
 59 62  1  0  0  0
 60133  1  0  0  0
 60134  1  0  0  0
 60135  1  0  0  0
 61136  1  0  0  0
 61137  1  0  0  0
 61138  1  0  0  0
 62139  1  0  0  0
 62140  1  0  0  0
 62141  1  0  0  0
 63 65  1  0  0  0
 63142  1  0  0  0
 63143  1  0  0  0
 63144  1  0  0  0
 64145  1  0  0  0
 65146  1  0  0  0
 68 84  1  0  0  0
 71 73  2  0  0  0
 71 75  1  0  0  0
 71147  1  0  0  0
 72 74  1  0  0  0
 72 75  2  0  0  0
 72148  1  0  0  0
 73 76  1  0  0  0
 73149  1  0  0  0
 74 76  2  0  0  0
 74150  1  0  0  0
 75 77  1  0  0  0
 76 83  1  0  0  0
 77 85  1  0  0  0
 77 87  2  0  0  0
 78 79  1  0  0  0
 78 80  1  0  0  0
 78151  1  0  0  0
 78152  1  0  0  0
 79 82  1  0  0  0
 79153  1  0  0  0
 79154  1  0  0  0
 80 85  1  0  0  0
 80155  1  0  0  0
 80156  1  0  0  0
 81 82  1  0  0  0
 81 85  1  0  0  0
 81157  1  0  0  0
 81158  1  0  0  0
 82 84  1  0  0  0
 82159  1  0  0  0
 83 86  1  0  0  0
 83160  1  0  0  0
 83161  1  0  0  0
 84162  1  0  0  0
 84163  1  0  0  0
 86164  1  0  0  0
 87165  1  0  0  0
 87166  1  0  0  0
M  CHG  1  87   1
M  ISO  4   1 100  68 101  84 101  86 100
M  END
> <chiral flag>
0

> <version>
0

> <s_m_source_file>
/data/baiqing/PycharmProjects/Reinvent-master-3.2/result/LINK_invent/BTK/process_docking_weight1_custom_product_contain_oxygen_bond_distance_aromatic_linkinvent_7_9_3/rearranged_h_0075.sdf

> <i_m_source_file_index>
32

> <r_mmod_Potential_Energy-OPLS-2005>
13841.00390625

> <r_mmod_Stretch_Energy-OPLS-2005>
7265.61669921875

> <r_mmod_Bend_Energy-OPLS-2005>
1030.8017578125

> <r_mmod_Torsional_Energy-OPLS-2005>
576.960815429688

> <r_mmod_Improper_Torsional_Energy-OPLS-2005>
44.9507179260254

> <r_mmod_Van_der_Waal_Energy-OPLS-2005>
3165.64233398438

> <r_mmod_Electrostatic_Energy-OPLS-2005>
-394.242462158203

> <r_mmod_Solvation_Energy-OPLS-2005>
-386.897155761719

> <b_mmod_Minimization_Converged-OPLS-2005>
0

> <r_mmod_RMS_Derivative-OPLS-2005>
22.2998008728027

$$$$
32
                    3D
 Structure written by MMmdl.
157166  0  0  1  0            999 V2000
  -30.6255  -14.7346   20.5011 C   0  0  0  0  0  0
  -30.4339  -12.4516   19.5076 C   0  0  0  0  0  0
  -29.5157  -12.5118   18.2617 C   0  0  0  0  0  0
  -28.0400  -12.3404   18.6667 C   0  0  0  0  0  0
  -27.6454  -13.2379   19.8663 C   0  0  2  0  0  0
  -28.6825  -13.1664   21.0139 C   0  0  0  0  0  0
  -25.2486  -13.8233   20.5728 C   0  0  0  0  0  0
  -24.1786  -13.0473   20.9228 C   0  0  0  0  0  0
  -24.6391  -11.6944   20.8783 C   0  0  0  0  0  0
  -23.9074  -10.4313   21.0434 C   0  0  0  0  0  0
  -24.3614   -9.4223   21.9209 C   0  0  0  0  0  0
  -23.6297   -8.2260   22.0771 C   0  0  0  0  0  0
  -22.4285   -8.0303   21.3552 C   0  0  0  0  0  0
  -21.9904   -9.0283   20.4655 C   0  0  0  0  0  0
  -22.7239  -10.2167   20.3078 C   0  0  0  0  0  0
  -21.6842   -6.0749   22.5284 C   0  0  0  0  0  0
  -21.4008   -6.5648   23.8221 C   0  0  0  0  0  0
  -21.3668   -5.6804   24.9182 C   0  0  0  0  0  0
  -21.6048   -4.3070   24.7216 C   0  0  0  0  0  0
  -21.8815   -3.8158   23.4339 C   0  0  0  0  0  0
  -21.9184   -4.6978   22.3401 C   0  0  0  0  0  0
  -22.7797  -13.5254   21.1871 C   0  0  0  0  0  0
  -22.1652   -4.2179   21.0974 F   0  0  0  0  0  0
  -21.5634   -3.4542   25.7719 F   0  0  0  0  0  0
  -29.9962  -13.5073   20.4532 N   0  0  0  0  0  0
  -26.2946  -12.9464   20.3372 N   0  0  0  0  0  0
  -25.9332  -11.6601   20.5823 N   0  0  0  0  0  0
  -22.0438  -12.8266   22.0427 N   0  0  0  0  0  0
  -25.4156  -15.1969   20.4131 N   0  0  0  0  0  0
  -31.7846  -14.8377   20.0860 O   0  0  0  0  0  0
  -21.6656   -6.8902   21.4251 O   0  0  0  0  0  0
  -22.3466  -14.5552   20.6696 O   0  0  0  0  0  0
  -24.6334  -31.8574   23.2026 C   0  0  0  0  0  0
  -25.9150  -32.4779   23.8405 C   0  0  1  0  0  0
  -27.2126  -27.2749   20.1335 C   0  0  0  0  0  0
  -25.5953  -33.8581   24.2317 N   0  0  0  0  0  0
  -23.4290  -30.4806   21.5474 C   0  0  2  0  0  0
  -24.8714  -28.9384   20.1091 C   0  0  0  0  0  0
  -22.7535  -29.4596   22.4952 C   0  0  0  0  0  0
  -18.0314  -28.1395   22.8487 C   0  0  0  0  0  0
  -24.1473  -36.7279   23.2641 C   0  0  0  0  0  0
  -25.9720  -30.7782   21.3806 C   0  0  0  0  0  0
  -26.0432  -29.4032   20.7215 C   0  0  0  0  0  0
  -27.2151  -28.5818   20.7243 C   0  0  0  0  0  0
  -26.0204  -26.8877   19.4753 C   0  0  0  0  0  0
  -24.8658  -27.6917   19.4701 C   0  0  0  0  0  0
  -23.6437  -29.8239   20.1610 C   0  0  0  0  0  0
  -25.4104  -36.3079   24.0329 C   0  0  1  0  0  0
  -20.5900  -28.3706   23.1290 C   0  0  2  0  0  0
  -20.6784  -26.9444   22.5408 C   0  0  0  0  0  0
  -19.5744  -26.6398   21.5221 C   0  0  0  0  0  0
  -18.1936  -26.7940   22.1640 C   0  0  0  0  0  0
  -19.1564  -28.8879   23.2873 C   0  0  0  0  0  0
  -18.9472  -30.1468   23.8891 C   0  0  0  0  0  0
  -17.6462  -30.6587   24.0578 C   0  0  0  0  0  0
  -25.9045  -34.9450   23.5118 C   0  0  0  0  0  0
  -16.5353  -29.9065   23.6343 C   0  0  0  0  0  0
  -16.7297  -28.6492   23.0355 C   0  0  0  0  0  0
  -26.4516  -31.6596   25.0783 C   0  0  0  0  0  0
  -25.3733  -31.3727   26.1501 C   0  0  0  0  0  0
  -27.0371  -30.3028   24.6236 C   0  0  0  0  0  0
  -27.6091  -32.4320   25.7538 C   0  0  0  0  0  0
  -27.5576  -37.1803   24.8475 C   0  0  0  0  0  0
  -21.4246  -29.3034   22.3681 N   0  0  0  0  0  0
  -26.4283  -37.3782   23.9418 N   0  0  0  0  0  0
  -24.6978  -31.0536   22.1014 N   0  0  0  0  0  0
  -23.4227  -28.8171   23.3077 O   0  0  0  0  0  0
  -28.3001  -26.3730   20.2147 O   0  0  0  0  0  0
  -26.5609  -34.8924   22.4673 O   0  0  0  0  0  0
  -23.5466  -32.1412   23.7309 O   0  0  0  0  0  0
  -29.9706  -18.4486   18.1181 C   0  0  0  0  0  0
  -29.6747  -19.6662   18.7613 C   0  0  0  0  0  0
  -30.0790  -17.2478   18.8432 C   0  0  0  0  0  0
  -29.5781  -18.4829   20.8789 C   0  0  0  0  0  0
  -29.4783  -19.7528   20.1585 C   0  0  0  0  0  0
  -29.8884  -17.2044   20.2404 C   0  0  0  0  0  0
  -29.6042  -22.7069   22.6760 C   0  0  0  0  0  0
  -29.4242  -21.2474   22.1778 C   0  0  0  0  0  0
  -28.5623  -22.2295   20.0306 C   0  0  0  0  0  0
  -29.0135  -23.7151   20.4472 C   0  0  1  0  0  0
  -28.0138  -24.9120   20.0365 C   0  0  0  0  0  0
  -29.3677  -23.7577   21.8671 N   0  0  0  0  0  0
  -29.2433  -21.0744   20.7318 N   0  0  0  0  0  0
  -29.9201  -15.8657   20.8893 N   0  0  0  0  0  0
  -29.9775  -22.8954   23.8324 O   0  0  0  0  0  0
  -31.4755  -12.5720   19.2058 H   0  0  0  0  0  0
  -30.3794  -11.4737   19.9904 H   0  0  0  0  0  0
  -29.7975  -11.7377   17.5451 H   0  0  0  0  0  0
  -29.6453  -13.4684   17.7517 H   0  0  0  0  0  0
  -27.8941  -11.2901   18.9243 H   0  0  0  0  0  0
  -27.3910  -12.5502   17.8176 H   0  0  0  0  0  0
  -27.6420  -14.2609   19.4844 H   0  0  0  0  0  0
  -28.7052  -12.1709   21.4599 H   0  0  0  0  0  0
  -28.4118  -13.8503   21.8212 H   0  0  0  0  0  0
  -25.2757   -9.5712   22.4777 H   0  0  0  0  0  0
  -24.0024   -7.4641   22.7483 H   0  0  0  0  0  0
  -21.0829   -8.8789   19.8941 H   0  0  0  0  0  0
  -22.3694  -10.9706   19.6186 H   0  0  0  0  0  0
  -21.2003   -7.6156   23.9722 H   0  0  0  0  0  0
  -21.1493   -6.0541   25.9092 H   0  0  0  0  0  0
  -22.0575   -2.7617   23.2819 H   0  0  0  0  0  0
  -22.4041  -11.9952   22.4860 H   0  0  0  0  0  0
  -21.1044  -13.1303   22.2611 H   0  0  0  0  0  0
  -24.6471  -15.8498   20.5246 H   0  0  0  0  0  0
  -26.2708  -15.6365   20.0931 H   0  0  0  0  0  0
  -26.7225  -32.5462   23.1176 H   0  0  0  0  0  0
  -25.0144  -33.9708   25.0495 H   0  0  0  0  0  0
  -22.7271  -31.3060   21.4110 H   0  0  0  0  0  0
  -23.3729  -35.9622   23.3309 H   0  0  0  0  0  0
  -24.3586  -36.8886   22.2060 H   0  0  0  0  0  0
  -23.7214  -37.6476   23.6655 H   0  0  0  0  0  0
  -26.1074  -31.5426   20.6145 H   0  0  0  0  0  0
  -26.8474  -30.8291   22.0162 H   0  0  0  0  0  0
  -28.1065  -28.9298   21.2267 H   0  0  0  0  0  0
  -25.9429  -25.9373   18.9687 H   0  0  0  0  0  0
  -23.9710  -27.3366   18.9765 H   0  0  0  0  0  0
  -23.7780  -30.6061   19.4117 H   0  0  0  0  0  0
  -22.7606  -29.2600   19.8516 H   0  0  0  0  0  0
  -25.1280  -36.1945   25.0818 H   0  0  0  0  0  0
  -20.9992  -28.3259   24.1411 H   0  0  0  0  0  0
  -20.5695  -26.2346   23.3605 H   0  0  0  0  0  0
  -21.6657  -26.7463   22.1212 H   0  0  0  0  0  0
  -19.6895  -25.6308   21.1252 H   0  0  0  0  0  0
  -19.6640  -27.3209   20.6741 H   0  0  0  0  0  0
  -17.4209  -26.6724   21.4017 H   0  0  0  0  0  0
  -18.0308  -26.0075   22.9031 H   0  0  0  0  0  0
  -19.7939  -30.7312   24.2244 H   0  0  0  0  0  0
  -17.5000  -31.6267   24.5187 H   0  0  0  0  0  0
  -15.5345  -30.2957   23.7645 H   0  0  0  0  0  0
  -15.8718  -28.0789   22.7054 H   0  0  0  0  0  0
  -24.5906  -30.7082   25.7823 H   0  0  0  0  0  0
  -24.8916  -32.2876   26.4950 H   0  0  0  0  0  0
  -25.8032  -30.8889   27.0279 H   0  0  0  0  0  0
  -26.2966  -29.6784   24.1214 H   0  0  0  0  0  0
  -27.4044  -29.7294   25.4759 H   0  0  0  0  0  0
  -27.8856  -30.4347   23.9520 H   0  0  0  0  0  0
  -27.2725  -33.3617   26.2154 H   0  0  0  0  0  0
  -28.3872  -32.6874   25.0327 H   0  0  0  0  0  0
  -28.0816  -31.8422   26.5412 H   0  0  0  0  0  0
  -28.2598  -38.0099   24.7530 H   0  0  0  0  0  0
  -28.1057  -36.2624   24.6272 H   0  0  0  0  0  0
  -27.2323  -37.1455   25.8891 H   0  0  0  0  0  0
  -20.9464  -29.8768   21.6873 H   0  0  0  0  0  0
  -26.0152  -38.2858   24.1399 H   0  0  0  0  0  0
  -30.1144  -18.4288   17.0461 H   0  0  0  0  0  0
  -29.6284  -20.5421   18.1363 H   0  0  0  0  0  0
  -30.2863  -16.3447   18.2884 H   0  0  0  0  0  0
  -29.4128  -18.4907   21.9455 H   0  0  0  0  0  0
  -28.5617  -20.8243   22.6936 H   0  0  0  0  0  0
  -30.2902  -20.6785   22.5171 H   0  0  0  0  0  0
  -28.6133  -22.1527   18.9457 H   0  0  0  0  0  0
  -27.4965  -22.1407   20.2476 H   0  0  0  0  0  0
  -29.9501  -23.9007   19.9200 H   0  0  0  0  0  0
  -27.0738  -24.6951   20.5443 H   0  0  0  0  0  0
  -27.8221  -24.7674   18.9719 H   0  0  0  0  0  0
  -29.4749  -24.6798   22.2699 H   0  0  0  0  0  0
  -29.1689  -15.6980   21.5415 H   0  0  0  0  0  0
  1 25  1  0  0  0
  1 30  2  0  0  0
  1 84  1  0  0  0
  2  3  1  0  0  0
  2 25  1  0  0  0
  2 86  1  0  0  0
  2 87  1  0  0  0
  3  4  1  0  0  0
  3 88  1  0  0  0
  3 89  1  0  0  0
  4  5  1  0  0  0
  4 90  1  0  0  0
  4 91  1  0  0  0
  5  6  1  0  0  0
  5 26  1  0  0  0
  5 92  1  0  0  0
  6 25  1  0  0  0
  6 93  1  0  0  0
  6 94  1  0  0  0
  7  8  2  0  0  0
  7 26  1  0  0  0
  7 29  1  0  0  0
  8  9  1  0  0  0
  8 22  1  0  0  0
  9 10  1  0  0  0
  9 27  2  0  0  0
 10 11  2  0  0  0
 10 15  1  0  0  0
 11 12  1  0  0  0
 11 95  1  0  0  0
 12 13  2  0  0  0
 12 96  1  0  0  0
 13 14  1  0  0  0
 13 31  1  0  0  0
 14 15  2  0  0  0
 14 97  1  0  0  0
 15 98  1  0  0  0
 16 17  2  0  0  0
 16 21  1  0  0  0
 16 31  1  0  0  0
 17 18  1  0  0  0
 17 99  1  0  0  0
 18 19  2  0  0  0
 18100  1  0  0  0
 19 20  1  0  0  0
 19 24  1  0  0  0
 20 21  2  0  0  0
 20101  1  0  0  0
 21 23  1  0  0  0
 22 28  1  0  0  0
 22 32  2  0  0  0
 26 27  1  0  0  0
 28102  1  0  0  0
 28103  1  0  0  0
 29104  1  0  0  0
 29105  1  0  0  0
 33 34  1  0  0  0
 33 66  1  0  0  0
 33 70  2  0  0  0
 34 36  1  0  0  0
 34 59  1  0  0  0
 34106  1  0  0  0
 35 44  2  0  0  0
 35 45  1  0  0  0
 35 68  1  0  0  0
 36 56  1  0  0  0
 36107  1  0  0  0
 37 39  1  0  0  0
 37 47  1  0  0  0
 37 66  1  0  0  0
 37108  1  0  0  0
 38 43  2  0  0  0
 38 46  1  0  0  0
 38 47  1  0  0  0
 39 64  1  0  0  0
 39 67  2  0  0  0
 40 52  1  0  0  0
 40 53  2  0  0  0
 40 58  1  0  0  0
 41109  1  0  0  0
 41110  1  0  0  0
 41111  1  0  0  0
 41 48  1  0  0  0
 42 43  1  0  0  0
 42 66  1  0  0  0
 42112  1  0  0  0
 42113  1  0  0  0
 43 44  1  0  0  0
 44114  1  0  0  0
 45 46  2  0  0  0
 45115  1  0  0  0
 46116  1  0  0  0
 47117  1  0  0  0
 47118  1  0  0  0
 48 56  1  0  0  0
 48 65  1  0  0  0
 48119  1  0  0  0
 49 50  1  0  0  0
 49 53  1  0  0  0
 49 64  1  0  0  0
 49120  1  0  0  0
 50 51  1  0  0  0
 50121  1  0  0  0
 50122  1  0  0  0
 51 52  1  0  0  0
 51123  1  0  0  0
 51124  1  0  0  0
 52125  1  0  0  0
 52126  1  0  0  0
 53 54  1  0  0  0
 54 55  2  0  0  0
 54127  1  0  0  0
 55 57  1  0  0  0
 55128  1  0  0  0
 56 69  2  0  0  0
 57 58  2  0  0  0
 57129  1  0  0  0
 58130  1  0  0  0
 59 60  1  0  0  0
 59 61  1  0  0  0
 59 62  1  0  0  0
 60131  1  0  0  0
 60132  1  0  0  0
 60133  1  0  0  0
 61134  1  0  0  0
 61135  1  0  0  0
 61136  1  0  0  0
 62137  1  0  0  0
 62138  1  0  0  0
 62139  1  0  0  0
 63 65  1  0  0  0
 63140  1  0  0  0
 63141  1  0  0  0
 63142  1  0  0  0
 64143  1  0  0  0
 65144  1  0  0  0
 68 81  1  0  0  0
 71 72  2  0  0  0
 71 73  1  0  0  0
 71145  1  0  0  0
 72 75  1  0  0  0
 72146  1  0  0  0
 73 76  2  0  0  0
 73147  1  0  0  0
 74 75  2  0  0  0
 74 76  1  0  0  0
 74148  1  0  0  0
 75 83  1  0  0  0
 76 84  1  0  0  0
 77 78  1  0  0  0
 77 82  1  0  0  0
 77 85  2  0  0  0
 78 83  1  0  0  0
 78149  1  0  0  0
 78150  1  0  0  0
 79 80  1  0  0  0
 79 83  1  0  0  0
 79151  1  0  0  0
 79152  1  0  0  0
 80 81  1  0  0  0
 80 82  1  0  0  0
 80153  1  0  0  0
 81154  1  0  0  0
 81155  1  0  0  0
 82156  1  0  0  0
 84157  1  0  0  0
M  ISO  4   1 100  68 101  81 101  84 100
M  END
> <chiral flag>
0

> <version>
0

> <s_m_source_file>
/data/baiqing/PycharmProjects/Reinvent-master-3.2/result/LINK_invent/BTK/process_docking_weight1_custom_product_contain_oxygen_bond_distance_aromatic_linkinvent_7_9_3/rearranged_h_0075.sdf

> <i_m_source_file_index>
33

> <r_mmod_Potential_Energy-OPLS-2005>
167.988052368164

> <r_mmod_Stretch_Energy-OPLS-2005>
119.427017211914

> <r_mmod_Bend_Energy-OPLS-2005>
174.665252685547

> <r_mmod_Torsional_Energy-OPLS-2005>
259.665283203125

> <r_mmod_Improper_Torsional_Energy-OPLS-2005>
4.39140272140503

> <r_mmod_Van_der_Waal_Energy-OPLS-2005>
153.535552978516

> <r_mmod_Electrostatic_Energy-OPLS-2005>
-364.378997802734

> <r_mmod_Solvation_Energy-OPLS-2005>
-260.248840332031

> <b_mmod_Minimization_Converged-OPLS-2005>
0

> <r_mmod_RMS_Derivative-OPLS-2005>
4.61918973922729

$$$$
33
                    3D
 Structure written by MMmdl.
157166  0  0  1  0            999 V2000
  -30.6912  -14.5040   20.4766 C   0  0  0  0  0  0
  -30.4228  -12.3061   19.4212 C   0  0  0  0  0  0
  -29.4910  -12.4669   18.2034 C   0  0  0  0  0  0
  -28.0156  -12.3211   18.6235 C   0  0  0  0  0  0
  -27.6508  -13.1899   19.8568 C   0  0  2  0  0  0
  -28.6997  -13.0438   20.9816 C   0  0  0  0  0  0
  -25.2586  -13.8154   20.5629 C   0  0  0  0  0  0
  -24.1839  -13.0440   20.9215 C   0  0  0  0  0  0
  -24.6381  -11.6899   20.8783 C   0  0  0  0  0  0
  -23.9044  -10.4298   21.0445 C   0  0  0  0  0  0
  -24.3603   -9.4206   21.9211 C   0  0  0  0  0  0
  -23.6284   -8.2239   22.0759 C   0  0  0  0  0  0
  -22.4283   -8.0282   21.3530 C   0  0  0  0  0  0
  -21.9907   -9.0268   20.4649 C   0  0  0  0  0  0
  -22.7229  -10.2153   20.3070 C   0  0  0  0  0  0
  -21.6856   -6.0744   22.5286 C   0  0  0  0  0  0
  -21.4007   -6.5642   23.8220 C   0  0  0  0  0  0
  -21.3650   -5.6789   24.9180 C   0  0  0  0  0  0
  -21.6044   -4.3054   24.7228 C   0  0  0  0  0  0
  -21.8823   -3.8151   23.4351 C   0  0  0  0  0  0
  -21.9189   -4.6970   22.3408 C   0  0  0  0  0  0
  -22.7863  -13.5247   21.1867 C   0  0  0  0  0  0
  -22.1662   -4.2152   21.0984 F   0  0  0  0  0  0
  -21.5629   -3.4539   25.7741 F   0  0  0  0  0  0
  -30.0263  -13.3202   20.4055 N   0  0  0  0  0  0
  -26.2966  -12.9247   20.3294 N   0  0  0  0  0  0
  -25.9290  -11.6446   20.5802 N   0  0  0  0  0  0
  -22.0488  -12.8235   22.0421 N   0  0  0  0  0  0
  -25.4377  -15.1852   20.3922 N   0  0  0  0  0  0
  -31.8911  -14.6019   20.2079 O   0  0  0  0  0  0
  -21.6625   -6.8895   21.4252 O   0  0  0  0  0  0
  -22.3545  -14.5558   20.6730 O   0  0  0  0  0  0
  -24.6140  -31.8699   23.2118 C   0  0  0  0  0  0
  -25.9032  -32.4830   23.8416 C   0  0  1  0  0  0
  -27.2307  -27.4385   20.1061 C   0  0  0  0  0  0
  -25.5899  -33.8627   24.2348 N   0  0  0  0  0  0
  -23.4019  -30.4943   21.5488 C   0  0  2  0  0  0
  -24.8502  -28.9598   20.1188 C   0  0  0  0  0  0
  -22.7410  -29.4684   22.4973 C   0  0  0  0  0  0
  -18.0288  -28.1366   22.8478 C   0  0  0  0  0  0
  -24.1485  -36.7325   23.2639 C   0  0  0  0  0  0
  -25.9303  -30.8364   21.3667 C   0  0  0  0  0  0
  -26.0089  -29.4680   20.7221 C   0  0  0  0  0  0
  -27.2047  -28.7129   20.7165 C   0  0  0  0  0  0
  -26.0639  -26.9525   19.4824 C   0  0  0  0  0  0
  -24.8713  -27.6983   19.4981 C   0  0  0  0  0  0
  -23.6130  -29.8286   20.1626 C   0  0  0  0  0  0
  -25.4105  -36.3122   24.0343 C   0  0  1  0  0  0
  -20.5870  -28.3680   23.1330 C   0  0  2  0  0  0
  -20.6792  -26.9414   22.5435 C   0  0  0  0  0  0
  -19.5786  -26.6402   21.5213 C   0  0  0  0  0  0
  -18.1967  -26.7909   22.1636 C   0  0  0  0  0  0
  -19.1522  -28.8838   23.2915 C   0  0  0  0  0  0
  -18.9422  -30.1428   23.8939 C   0  0  0  0  0  0
  -17.6420  -30.6549   24.0576 C   0  0  0  0  0  0
  -25.9036  -34.9483   23.5147 C   0  0  0  0  0  0
  -16.5333  -29.9043   23.6308 C   0  0  0  0  0  0
  -16.7273  -28.6473   23.0318 C   0  0  0  0  0  0
  -26.4475  -31.6585   25.0721 C   0  0  0  0  0  0
  -25.3756  -31.3660   26.1474 C   0  0  0  0  0  0
  -27.0308  -30.3036   24.6067 C   0  0  0  0  0  0
  -27.6060  -32.4295   25.7465 C   0  0  0  0  0  0
  -27.5585  -37.1814   24.8469 C   0  0  0  0  0  0
  -21.4133  -29.3069   22.3746 N   0  0  0  0  0  0
  -26.4298  -37.3796   23.9411 N   0  0  0  0  0  0
  -24.6664  -31.0831   22.1000 N   0  0  0  0  0  0
  -23.4192  -28.8237   23.3012 O   0  0  0  0  0  0
  -28.3799  -26.6817   20.0567 O   0  0  0  0  0  0
  -26.5589  -34.8932   22.4704 O   0  0  0  0  0  0
  -23.5330  -32.1440   23.7519 O   0  0  0  0  0  0
  -26.9888  -19.6301   19.4497 C   0  0  0  0  0  0
  -27.0839  -18.4061   18.7761 C   0  0  0  0  0  0
  -28.9617  -19.0973   20.7153 C   0  0  0  0  0  0
  -29.0611  -17.8215   20.0896 C   0  0  0  0  0  0
  -27.9345  -20.0333   20.4180 C   0  0  0  0  0  0
  -28.1220  -17.5071   19.0624 C   0  0  0  0  0  0
  -27.7184  -23.3005   21.0776 C   0  0  0  0  0  0
  -26.7647  -22.2326   21.1178 C   0  0  0  0  0  0
  -27.5246  -24.6337   21.1801 C   0  0  0  0  0  0
  -30.1910  -16.8888   20.4915 C   0  0  0  0  0  0
  -28.8507  -22.3220   20.8385 C   0  0  0  0  0  0
  -28.5704  -25.7454   21.1318 C   0  0  0  0  0  0
  -27.8070  -21.3019   21.0622 N   0  0  0  0  0  0
  -28.1585  -16.3529   18.2750 N   0  0  0  0  0  0
  -29.8759  -15.5769   20.5536 N   0  0  0  0  0  0
  -25.5519  -22.2295   21.0397 O   0  0  0  0  0  0
  -31.3003  -17.3582   20.7725 O   0  0  0  0  0  0
  -31.4635  -12.4089   19.1075 H   0  0  0  0  0  0
  -30.3323  -11.3074   19.8503 H   0  0  0  0  0  0
  -29.7382  -11.7284   17.4389 H   0  0  0  0  0  0
  -29.6456  -13.4436   17.7431 H   0  0  0  0  0  0
  -27.8424  -11.2682   18.8504 H   0  0  0  0  0  0
  -27.3619  -12.5624   17.7843 H   0  0  0  0  0  0
  -27.6673  -14.2181   19.5162 H   0  0  0  0  0  0
  -28.6806  -12.0380   21.4045 H   0  0  0  0  0  0
  -28.4730  -13.7234   21.8053 H   0  0  0  0  0  0
  -25.2768   -9.5681   22.4763 H   0  0  0  0  0  0
  -24.0004   -7.4635   22.7465 H   0  0  0  0  0  0
  -21.0839   -8.8800   19.8946 H   0  0  0  0  0  0
  -22.3721  -10.9692   19.6160 H   0  0  0  0  0  0
  -21.1995   -7.6149   23.9726 H   0  0  0  0  0  0
  -21.1463   -6.0517   25.9081 H   0  0  0  0  0  0
  -22.0609   -2.7611   23.2852 H   0  0  0  0  0  0
  -22.4083  -11.9896   22.4802 H   0  0  0  0  0  0
  -21.1106  -13.1271   22.2611 H   0  0  0  0  0  0
  -24.6749  -15.8442   20.4920 H   0  0  0  0  0  0
  -26.2444  -15.5887   19.9251 H   0  0  0  0  0  0
  -26.7114  -32.5558   23.1192 H   0  0  0  0  0  0
  -25.0053  -33.9778   25.0497 H   0  0  0  0  0  0
  -22.6895  -31.3099   21.4090 H   0  0  0  0  0  0
  -23.3743  -35.9666   23.3315 H   0  0  0  0  0  0
  -24.3585  -36.8922   22.2056 H   0  0  0  0  0  0
  -23.7245  -37.6537   23.6639 H   0  0  0  0  0  0
  -26.0414  -31.5962   20.5926 H   0  0  0  0  0  0
  -26.8190  -30.8952   21.9821 H   0  0  0  0  0  0
  -28.1033  -29.1006   21.1766 H   0  0  0  0  0  0
  -26.0801  -25.9927   18.9869 H   0  0  0  0  0  0
  -23.9837  -27.3054   19.0190 H   0  0  0  0  0  0
  -23.7259  -30.6031   19.4026 H   0  0  0  0  0  0
  -22.7369  -29.2500   19.8649 H   0  0  0  0  0  0
  -25.1278  -36.1999   25.0836 H   0  0  0  0  0  0
  -20.9947  -28.3251   24.1459 H   0  0  0  0  0  0
  -20.5658  -26.2316   23.3636 H   0  0  0  0  0  0
  -21.6692  -26.7459   22.1290 H   0  0  0  0  0  0
  -19.6983  -25.6332   21.1191 H   0  0  0  0  0  0
  -19.6715  -27.3286   20.6797 H   0  0  0  0  0  0
  -17.4227  -26.6581   21.4057 H   0  0  0  0  0  0
  -18.0451  -26.0071   22.9075 H   0  0  0  0  0  0
  -19.7881  -30.7231   24.2371 H   0  0  0  0  0  0
  -17.4945  -31.6204   24.5202 H   0  0  0  0  0  0
  -15.5327  -30.2934   23.7591 H   0  0  0  0  0  0
  -15.8687  -28.0789   22.6996 H   0  0  0  0  0  0
  -24.5928  -30.7010   25.7806 H   0  0  0  0  0  0
  -24.8949  -32.2804   26.4962 H   0  0  0  0  0  0
  -25.8129  -30.8798   27.0203 H   0  0  0  0  0  0
  -26.2845  -29.6774   24.1163 H   0  0  0  0  0  0
  -27.4152  -29.7277   25.4495 H   0  0  0  0  0  0
  -27.8647  -30.4368   23.9168 H   0  0  0  0  0  0
  -27.2693  -33.3577   26.2084 H   0  0  0  0  0  0
  -28.3837  -32.6873   25.0266 H   0  0  0  0  0  0
  -28.0768  -31.8393   26.5334 H   0  0  0  0  0  0
  -28.2607  -38.0100   24.7507 H   0  0  0  0  0  0
  -28.1068  -36.2636   24.6302 H   0  0  0  0  0  0
  -27.2303  -37.1486   25.8867 H   0  0  0  0  0  0
  -20.9259  -29.8774   21.6983 H   0  0  0  0  0  0
  -26.0197  -38.2879   24.1397 H   0  0  0  0  0  0
  -26.1630  -20.2753   19.1871 H   0  0  0  0  0  0
  -26.3469  -18.1682   18.0210 H   0  0  0  0  0  0
  -29.6948  -19.3610   21.4667 H   0  0  0  0  0  0
  -26.5129  -24.9720   21.3531 H   0  0  0  0  0  0
  -29.6452  -22.2739   21.5860 H   0  0  0  0  0  0
  -29.2603  -22.2730   19.8273 H   0  0  0  0  0  0
  -29.5674  -25.3093   21.0461 H   0  0  0  0  0  0
  -28.5517  -26.2784   22.0841 H   0  0  0  0  0  0
  -27.5898  -16.3613   17.4338 H   0  0  0  0  0  0
  -29.0563  -15.9178   18.0952 H   0  0  0  0  0  0
  -28.8959  -15.3766   20.4539 H   0  0  0  0  0  0
  1 25  1  0  0  0
  1 30  2  0  0  0
  1 85  1  0  0  0
  2  3  1  0  0  0
  2 25  1  0  0  0
  2 88  1  0  0  0
  2 89  1  0  0  0
  3  4  1  0  0  0
  3 90  1  0  0  0
  3 91  1  0  0  0
  4  5  1  0  0  0
  4 92  1  0  0  0
  4 93  1  0  0  0
  5  6  1  0  0  0
  5 26  1  0  0  0
  5 94  1  0  0  0
  6 25  1  0  0  0
  6 95  1  0  0  0
  6 96  1  0  0  0
  7  8  2  0  0  0
  7 26  1  0  0  0
  7 29  1  0  0  0
  8  9  1  0  0  0
  8 22  1  0  0  0
  9 10  1  0  0  0
  9 27  2  0  0  0
 10 11  2  0  0  0
 10 15  1  0  0  0
 11 12  1  0  0  0
 11 97  1  0  0  0
 12 13  2  0  0  0
 12 98  1  0  0  0
 13 14  1  0  0  0
 13 31  1  0  0  0
 14 15  2  0  0  0
 14 99  1  0  0  0
 15100  1  0  0  0
 16 17  2  0  0  0
 16 21  1  0  0  0
 16 31  1  0  0  0
 17 18  1  0  0  0
 17101  1  0  0  0
 18 19  2  0  0  0
 18102  1  0  0  0
 19 20  1  0  0  0
 19 24  1  0  0  0
 20 21  2  0  0  0
 20103  1  0  0  0
 21 23  1  0  0  0
 22 28  1  0  0  0
 22 32  2  0  0  0
 26 27  1  0  0  0
 28104  1  0  0  0
 28105  1  0  0  0
 29106  1  0  0  0
 29107  1  0  0  0
 33 34  1  0  0  0
 33 66  1  0  0  0
 33 70  2  0  0  0
 34 36  1  0  0  0
 34 59  1  0  0  0
 34108  1  0  0  0
 35 44  2  0  0  0
 35 45  1  0  0  0
 35 68  1  0  0  0
 36 56  1  0  0  0
 36109  1  0  0  0
 37 39  1  0  0  0
 37 47  1  0  0  0
 37 66  1  0  0  0
 37110  1  0  0  0
 38 43  2  0  0  0
 38 46  1  0  0  0
 38 47  1  0  0  0
 39 64  1  0  0  0
 39 67  2  0  0  0
 40 52  1  0  0  0
 40 53  2  0  0  0
 40 58  1  0  0  0
 41111  1  0  0  0
 41112  1  0  0  0
 41113  1  0  0  0
 41 48  1  0  0  0
 42 43  1  0  0  0
 42 66  1  0  0  0
 42114  1  0  0  0
 42115  1  0  0  0
 43 44  1  0  0  0
 44116  1  0  0  0
 45 46  2  0  0  0
 45117  1  0  0  0
 46118  1  0  0  0
 47119  1  0  0  0
 47120  1  0  0  0
 48 56  1  0  0  0
 48 65  1  0  0  0
 48121  1  0  0  0
 49 50  1  0  0  0
 49 53  1  0  0  0
 49 64  1  0  0  0
 49122  1  0  0  0
 50 51  1  0  0  0
 50123  1  0  0  0
 50124  1  0  0  0
 51 52  1  0  0  0
 51125  1  0  0  0
 51126  1  0  0  0
 52127  1  0  0  0
 52128  1  0  0  0
 53 54  1  0  0  0
 54 55  2  0  0  0
 54129  1  0  0  0
 55 57  1  0  0  0
 55130  1  0  0  0
 56 69  2  0  0  0
 57 58  2  0  0  0
 57131  1  0  0  0
 58132  1  0  0  0
 59 60  1  0  0  0
 59 61  1  0  0  0
 59 62  1  0  0  0
 60133  1  0  0  0
 60134  1  0  0  0
 60135  1  0  0  0
 61136  1  0  0  0
 61137  1  0  0  0
 61138  1  0  0  0
 62139  1  0  0  0
 62140  1  0  0  0
 62141  1  0  0  0
 63 65  1  0  0  0
 63142  1  0  0  0
 63143  1  0  0  0
 63144  1  0  0  0
 64145  1  0  0  0
 65146  1  0  0  0
 68 82  1  0  0  0
 71 72  2  0  0  0
 71 75  1  0  0  0
 71147  1  0  0  0
 72 76  1  0  0  0
 72148  1  0  0  0
 73 74  1  0  0  0
 73 75  2  0  0  0
 73149  1  0  0  0
 74 76  2  0  0  0
 74 80  1  0  0  0
 75 83  1  0  0  0
 76 84  1  0  0  0
 77 78  1  0  0  0
 77 79  2  0  0  0
 77 81  1  0  0  0
 78 83  1  0  0  0
 78 86  2  0  0  0
 79 82  1  0  0  0
 79150  1  0  0  0
 80 85  1  0  0  0
 80 87  2  0  0  0
 81 83  1  0  0  0
 81151  1  0  0  0
 81152  1  0  0  0
 82153  1  0  0  0
 82154  1  0  0  0
 84155  1  0  0  0
 84156  1  0  0  0
 85157  1  0  0  0
M  ISO  4   1 100  68 101  82 101  85 100
M  END
> <chiral flag>
0

> <version>
0

> <s_m_source_file>
/data/baiqing/PycharmProjects/Reinvent-master-3.2/result/LINK_invent/BTK/process_docking_weight1_custom_product_contain_oxygen_bond_distance_aromatic_linkinvent_7_9_3/rearranged_h_0075.sdf

> <i_m_source_file_index>
34

> <r_mmod_Potential_Energy-OPLS-2005>
-7.18368148803711

> <r_mmod_Stretch_Energy-OPLS-2005>
39.5202980041504

> <r_mmod_Bend_Energy-OPLS-2005>
160.162002563477

> <r_mmod_Torsional_Energy-OPLS-2005>
278.261444091797

> <r_mmod_Improper_Torsional_Energy-OPLS-2005>
19.5602512359619

> <r_mmod_Van_der_Waal_Energy-OPLS-2005>
149.153167724609

> <r_mmod_Electrostatic_Energy-OPLS-2005>
-447.855377197266

> <r_mmod_Solvation_Energy-OPLS-2005>
-227.446182250977

> <b_mmod_Minimization_Converged-OPLS-2005>
0

> <r_mmod_RMS_Derivative-OPLS-2005>
3.31319761276245

$$$$
35
                    3D
 Structure written by MMmdl.
160169  0  0  1  0            999 V2000
  -30.6602  -14.5635   20.6418 C   0  0  0  0  0  0
  -30.4410  -12.3894   19.4426 C   0  0  0  0  0  0
  -29.5078  -12.5416   18.2179 C   0  0  0  0  0  0
  -28.0285  -12.3655   18.6226 C   0  0  0  0  0  0
  -27.6615  -13.1957   19.8782 C   0  0  2  0  0  0
  -28.6946  -12.9533   20.9939 C   0  0  0  0  0  0
  -25.2620  -13.8059   20.5638 C   0  0  0  0  0  0
  -24.1871  -13.0378   20.9158 C   0  0  0  0  0  0
  -24.6404  -11.6833   20.8741 C   0  0  0  0  0  0
  -23.9068  -10.4228   21.0414 C   0  0  0  0  0  0
  -24.3597   -9.4150   21.9212 C   0  0  0  0  0  0
  -23.6256   -8.2201   22.0790 C   0  0  0  0  0  0
  -22.4237   -8.0262   21.3559 C   0  0  0  0  0  0
  -21.9873   -9.0233   20.4673 C   0  0  0  0  0  0
  -22.7218  -10.2089   20.3083 C   0  0  0  0  0  0
  -21.6840   -6.0706   22.5287 C   0  0  0  0  0  0
  -21.3996   -6.5635   23.8206 C   0  0  0  0  0  0
  -21.3677   -5.6810   24.9178 C   0  0  0  0  0  0
  -21.6045   -4.3066   24.7244 C   0  0  0  0  0  0
  -21.8814   -3.8136   23.4377 C   0  0  0  0  0  0
  -21.9188   -4.6936   22.3419 C   0  0  0  0  0  0
  -22.7918  -13.5210   21.1809 C   0  0  0  0  0  0
  -22.1677   -4.2121   21.0990 F   0  0  0  0  0  0
  -21.5637   -3.4559   25.7761 F   0  0  0  0  0  0
  -30.0168  -13.3556   20.4794 N   0  0  0  0  0  0
  -26.3028  -12.9217   20.3334 N   0  0  0  0  0  0
  -25.9319  -11.6407   20.5777 N   0  0  0  0  0  0
  -22.0557  -12.8231   22.0365 N   0  0  0  0  0  0
  -25.4346  -15.1774   20.3988 N   0  0  0  0  0  0
  -31.7467  -14.7800   20.0894 O   0  0  0  0  0  0
  -21.6635   -6.8832   21.4227 O   0  0  0  0  0  0
  -22.3647  -14.5529   20.6634 O   0  0  0  0  0  0
  -24.6277  -31.8602   23.2072 C   0  0  0  0  0  0
  -25.9136  -32.4771   23.8364 C   0  0  1  0  0  0
  -27.2010  -27.3230   20.1087 C   0  0  0  0  0  0
  -25.5957  -33.8578   24.2306 N   0  0  0  0  0  0
  -23.4193  -30.4929   21.5494 C   0  0  2  0  0  0
  -24.8598  -28.9573   20.1063 C   0  0  0  0  0  0
  -22.7480  -29.4650   22.4912 C   0  0  0  0  0  0
  -18.0280  -28.1380   22.8477 C   0  0  0  0  0  0
  -24.1491  -36.7284   23.2636 C   0  0  0  0  0  0
  -25.9631  -30.7918   21.3819 C   0  0  0  0  0  0
  -26.0311  -29.4260   20.7137 C   0  0  0  0  0  0
  -27.2087  -28.6212   20.7047 C   0  0  0  0  0  0
  -26.0027  -26.9121   19.4752 C   0  0  0  0  0  0
  -24.8471  -27.7085   19.4760 C   0  0  0  0  0  0
  -23.6325  -29.8401   20.1598 C   0  0  0  0  0  0
  -25.4122  -36.3088   24.0335 C   0  0  1  0  0  0
  -20.5893  -28.3691   23.1259 C   0  0  2  0  0  0
  -20.6776  -26.9412   22.5400 C   0  0  0  0  0  0
  -19.5755  -26.6374   21.5196 C   0  0  0  0  0  0
  -18.1929  -26.7919   22.1610 C   0  0  0  0  0  0
  -19.1541  -28.8850   23.2857 C   0  0  0  0  0  0
  -18.9462  -30.1455   23.8860 C   0  0  0  0  0  0
  -17.6460  -30.6572   24.0562 C   0  0  0  0  0  0
  -25.9062  -34.9454   23.5119 C   0  0  0  0  0  0
  -16.5351  -29.9072   23.6329 C   0  0  0  0  0  0
  -16.7272  -28.6504   23.0334 C   0  0  0  0  0  0
  -26.4514  -31.6575   25.0736 C   0  0  0  0  0  0
  -25.3749  -31.3692   26.1457 C   0  0  0  0  0  0
  -27.0390  -30.3004   24.6214 C   0  0  0  0  0  0
  -27.6068  -32.4305   25.7505 C   0  0  0  0  0  0
  -27.5600  -37.1794   24.8455 C   0  0  0  0  0  0
  -21.4196  -29.3052   22.3665 N   0  0  0  0  0  0
  -26.4278  -37.3803   23.9437 N   0  0  0  0  0  0
  -24.6886  -31.0650   22.1017 N   0  0  0  0  0  0
  -23.4208  -28.8143   23.2948 O   0  0  0  0  0  0
  -28.3014  -26.4544   20.1700 O   0  0  0  0  0  0
  -26.5629  -34.8920   22.4682 O   0  0  0  0  0  0
  -23.5445  -32.1389   23.7424 O   0  0  0  0  0  0
  -29.3786  -18.0556   22.1624 C   0  0  0  0  0  0
  -29.2907  -19.4620   21.9876 C   0  0  0  0  0  0
  -30.1929  -19.2070   19.7842 C   0  0  0  0  0  0
  -29.9087  -17.1517   21.1850 C   0  0  0  0  0  0
  -29.7323  -20.0868   20.8046 C   0  0  0  0  0  0
  -30.2685  -17.7878   19.9463 C   0  0  0  0  0  0
  -30.3832  -24.3586   20.5629 C   0  0  0  0  0  0
  -29.1095  -23.9756   20.3750 C   0  0  0  0  0  0
  -30.0290  -15.6496   21.5876 C   0  0  0  0  0  0
  -31.5112  -23.3807   20.8300 C   0  0  0  0  0  0
  -28.7301  -22.4543   20.4556 C   0  0  0  0  0  0
  -31.1970  -21.9567   20.3354 C   0  0  0  0  0  0
  -27.9999  -25.0117   20.0342 C   0  0  0  0  0  0
  -29.6846  -15.2973   22.7631 N   0  0  0  0  0  0
  -29.8605  -21.5146   20.7238 N   0  0  0  0  0  0
  -30.7297  -17.0706   18.8377 N   0  0  0  0  0  0
  -31.4806  -12.5337   19.1463 H   0  0  0  0  0  0
  -30.3981  -11.3731   19.8377 H   0  0  0  0  0  0
  -29.7769  -11.8242   17.4393 H   0  0  0  0  0  0
  -29.6418  -13.5327   17.7761 H   0  0  0  0  0  0
  -27.8614  -11.3051   18.8139 H   0  0  0  0  0  0
  -27.3712  -12.6366   17.7951 H   0  0  0  0  0  0
  -27.7113  -14.2469   19.5991 H   0  0  0  0  0  0
  -28.7134  -11.8940   21.2510 H   0  0  0  0  0  0
  -28.3872  -13.4415   21.9147 H   0  0  0  0  0  0
  -25.2712   -9.5643   22.4832 H   0  0  0  0  0  0
  -23.9970   -7.4564   22.7497 H   0  0  0  0  0  0
  -21.0811   -8.8764   19.8954 H   0  0  0  0  0  0
  -22.3681  -10.9659   19.6247 H   0  0  0  0  0  0
  -21.1984   -7.6139   23.9688 H   0  0  0  0  0  0
  -21.1525   -6.0552   25.9070 H   0  0  0  0  0  0
  -22.0573   -2.7609   23.2885 H   0  0  0  0  0  0
  -22.4180  -11.9882   22.4724 H   0  0  0  0  0  0
  -21.1213  -13.1336   22.2605 H   0  0  0  0  0  0
  -24.6563  -15.8233   20.4847 H   0  0  0  0  0  0
  -26.2811  -15.6110   20.0488 H   0  0  0  0  0  0
  -26.7193  -32.5450   23.1095 H   0  0  0  0  0  0
  -25.0155  -33.9687   25.0485 H   0  0  0  0  0  0
  -22.7139  -31.3152   21.4126 H   0  0  0  0  0  0
  -23.3780  -35.9578   23.3243 H   0  0  0  0  0  0
  -24.3593  -36.8962   22.2059 H   0  0  0  0  0  0
  -23.7166  -37.6441   23.6681 H   0  0  0  0  0  0
  -26.1095  -31.5619   20.6238 H   0  0  0  0  0  0
  -26.8394  -30.8231   22.0183 H   0  0  0  0  0  0
  -28.1078  -28.9725   21.1921 H   0  0  0  0  0  0
  -25.9188  -25.9567   18.9815 H   0  0  0  0  0  0
  -23.9501  -27.3509   18.9908 H   0  0  0  0  0  0
  -23.7582  -30.6234   19.4099 H   0  0  0  0  0  0
  -22.7481  -29.2780   19.8482 H   0  0  0  0  0  0
  -25.1279  -36.1948   25.0815 H   0  0  0  0  0  0
  -20.9965  -28.3260   24.1384 H   0  0  0  0  0  0
  -20.5668  -26.2289   23.3603 H   0  0  0  0  0  0
  -21.6646  -26.7431   22.1199 H   0  0  0  0  0  0
  -19.6924  -25.6278   21.1232 H   0  0  0  0  0  0
  -19.6686  -27.3174   20.6724 H   0  0  0  0  0  0
  -17.4199  -26.6651   21.4015 H   0  0  0  0  0  0
  -18.0347  -26.0050   22.9005 H   0  0  0  0  0  0
  -19.7943  -30.7296   24.2187 H   0  0  0  0  0  0
  -17.5019  -31.6247   24.5187 H   0  0  0  0  0  0
  -15.5364  -30.2970   23.7670 H   0  0  0  0  0  0
  -15.8674  -28.0838   22.7024 H   0  0  0  0  0  0
  -24.5903  -30.7068   25.7773 H   0  0  0  0  0  0
  -24.8965  -32.2850   26.4936 H   0  0  0  0  0  0
  -25.8076  -30.8810   27.0198 H   0  0  0  0  0  0
  -26.2988  -29.6710   24.1263 H   0  0  0  0  0  0
  -27.4111  -29.7298   25.4734 H   0  0  0  0  0  0
  -27.8838  -30.4296   23.9446 H   0  0  0  0  0  0
  -27.2680  -33.3603   26.2090 H   0  0  0  0  0  0
  -28.3878  -32.6870   25.0331 H   0  0  0  0  0  0
  -28.0737  -31.8421   26.5414 H   0  0  0  0  0  0
  -28.2558  -38.0163   24.7636 H   0  0  0  0  0  0
  -28.1158  -36.2701   24.6114 H   0  0  0  0  0  0
  -27.2335  -37.1246   25.8857 H   0  0  0  0  0  0
  -20.9364  -29.8816   21.6923 H   0  0  0  0  0  0
  -26.0170  -38.2861   24.1498 H   0  0  0  0  0  0
  -29.0475  -17.6811   23.1193 H   0  0  0  0  0  0
  -28.9424  -20.0711   22.8080 H   0  0  0  0  0  0
  -30.5403  -19.6429   18.8577 H   0  0  0  0  0  0
  -30.6461  -25.4068   20.5156 H   0  0  0  0  0  0
  -31.7116  -23.3785   21.9021 H   0  0  0  0  0  0
  -32.4181  -23.7393   20.3423 H   0  0  0  0  0  0
  -28.2516  -22.1645   19.5181 H   0  0  0  0  0  0
  -27.9779  -22.3292   21.2360 H   0  0  0  0  0  0
  -31.9463  -21.2588   20.7151 H   0  0  0  0  0  0
  -31.2620  -21.9271   19.2466 H   0  0  0  0  0  0
  -27.1380  -24.7631   20.6587 H   0  0  0  0  0  0
  -27.7202  -24.8074   18.9991 H   0  0  0  0  0  0
  -29.3289  -16.0753   23.3016 H   0  0  0  0  0  0
  -31.2604  -16.2210   19.0393 H   0  0  0  0  0  0
  -31.1349  -17.5882   18.0662 H   0  0  0  0  0  0
  1 25  1  0  0  0
  1 30  2  0  0  0
  1 79  1  0  0  0
  2  3  1  0  0  0
  2 25  1  0  0  0
  2 87  1  0  0  0
  2 88  1  0  0  0
  3  4  1  0  0  0
  3 89  1  0  0  0
  3 90  1  0  0  0
  4  5  1  0  0  0
  4 91  1  0  0  0
  4 92  1  0  0  0
  5  6  1  0  0  0
  5 26  1  0  0  0
  5 93  1  0  0  0
  6 25  1  0  0  0
  6 94  1  0  0  0
  6 95  1  0  0  0
  7  8  2  0  0  0
  7 26  1  0  0  0
  7 29  1  0  0  0
  8  9  1  0  0  0
  8 22  1  0  0  0
  9 10  1  0  0  0
  9 27  2  0  0  0
 10 11  2  0  0  0
 10 15  1  0  0  0
 11 12  1  0  0  0
 11 96  1  0  0  0
 12 13  2  0  0  0
 12 97  1  0  0  0
 13 14  1  0  0  0
 13 31  1  0  0  0
 14 15  2  0  0  0
 14 98  1  0  0  0
 15 99  1  0  0  0
 16 17  2  0  0  0
 16 21  1  0  0  0
 16 31  1  0  0  0
 17 18  1  0  0  0
 17100  1  0  0  0
 18 19  2  0  0  0
 18101  1  0  0  0
 19 20  1  0  0  0
 19 24  1  0  0  0
 20 21  2  0  0  0
 20102  1  0  0  0
 21 23  1  0  0  0
 22 28  1  0  0  0
 22 32  2  0  0  0
 26 27  1  0  0  0
 28103  1  0  0  0
 28104  1  0  0  0
 29105  1  0  0  0
 29106  1  0  0  0
 33 34  1  0  0  0
 33 66  1  0  0  0
 33 70  2  0  0  0
 34 36  1  0  0  0
 34 59  1  0  0  0
 34107  1  0  0  0
 35 44  2  0  0  0
 35 45  1  0  0  0
 35 68  1  0  0  0
 36 56  1  0  0  0
 36108  1  0  0  0
 37 39  1  0  0  0
 37 47  1  0  0  0
 37 66  1  0  0  0
 37109  1  0  0  0
 38 43  2  0  0  0
 38 46  1  0  0  0
 38 47  1  0  0  0
 39 64  1  0  0  0
 39 67  2  0  0  0
 40 52  1  0  0  0
 40 53  2  0  0  0
 40 58  1  0  0  0
 41110  1  0  0  0
 41111  1  0  0  0
 41112  1  0  0  0
 41 48  1  0  0  0
 42 43  1  0  0  0
 42 66  1  0  0  0
 42113  1  0  0  0
 42114  1  0  0  0
 43 44  1  0  0  0
 44115  1  0  0  0
 45 46  2  0  0  0
 45116  1  0  0  0
 46117  1  0  0  0
 47118  1  0  0  0
 47119  1  0  0  0
 48 56  1  0  0  0
 48 65  1  0  0  0
 48120  1  0  0  0
 49 50  1  0  0  0
 49 53  1  0  0  0
 49 64  1  0  0  0
 49121  1  0  0  0
 50 51  1  0  0  0
 50122  1  0  0  0
 50123  1  0  0  0
 51 52  1  0  0  0
 51124  1  0  0  0
 51125  1  0  0  0
 52126  1  0  0  0
 52127  1  0  0  0
 53 54  1  0  0  0
 54 55  2  0  0  0
 54128  1  0  0  0
 55 57  1  0  0  0
 55129  1  0  0  0
 56 69  2  0  0  0
 57 58  2  0  0  0
 57130  1  0  0  0
 58131  1  0  0  0
 59 60  1  0  0  0
 59 61  1  0  0  0
 59 62  1  0  0  0
 60132  1  0  0  0
 60133  1  0  0  0
 60134  1  0  0  0
 61135  1  0  0  0
 61136  1  0  0  0
 61137  1  0  0  0
 62138  1  0  0  0
 62139  1  0  0  0
 62140  1  0  0  0
 63 65  1  0  0  0
 63141  1  0  0  0
 63142  1  0  0  0
 63143  1  0  0  0
 64144  1  0  0  0
 65145  1  0  0  0
 68 83  1  0  0  0
 71 72  2  0  0  0
 71 74  1  0  0  0
 71146  1  0  0  0
 72 75  1  0  0  0
 72147  1  0  0  0
 73 75  2  0  0  0
 73 76  1  0  0  0
 73148  1  0  0  0
 74 76  2  0  0  0
 74 79  1  0  0  0
 75 85  1  0  0  0
 76 86  1  0  0  0
 77 78  2  0  0  0
 77 80  1  0  0  0
 77149  1  0  0  0
 78 81  1  0  0  0
 78 83  1  0  0  0
 79 84  2  0  0  0
 80 82  1  0  0  0
 80150  1  0  0  0
 80151  1  0  0  0
 81 85  1  0  0  0
 81152  1  0  0  0
 81153  1  0  0  0
 82 85  1  0  0  0
 82154  1  0  0  0
 82155  1  0  0  0
 83156  1  0  0  0
 83157  1  0  0  0
 84158  1  0  0  0
 86159  1  0  0  0
 86160  1  0  0  0
M  ISO  4   1 100  68 101  79 100  83 101
M  END
> <chiral flag>
0

> <version>
0

> <s_m_source_file>
/data/baiqing/PycharmProjects/Reinvent-master-3.2/result/LINK_invent/BTK/process_docking_weight1_custom_product_contain_oxygen_bond_distance_aromatic_linkinvent_7_9_3/rearranged_h_0075.sdf

> <i_m_source_file_index>
35

> <r_mmod_Potential_Energy-OPLS-2005>
305.826263427734

> <r_mmod_Stretch_Energy-OPLS-2005>
89.1577224731445

> <r_mmod_Bend_Energy-OPLS-2005>
151.257949829102

> <r_mmod_Torsional_Energy-OPLS-2005>
223.273208618164

> <r_mmod_Improper_Torsional_Energy-OPLS-2005>
9.11320495605469

> <r_mmod_Van_der_Waal_Energy-OPLS-2005>
182.266021728516

> <r_mmod_Electrostatic_Energy-OPLS-2005>
-179.869049072266

> <r_mmod_Solvation_Energy-OPLS-2005>
-208.143600463867

> <b_mmod_Minimization_Converged-OPLS-2005>
0

> <r_mmod_RMS_Derivative-OPLS-2005>
4.51834487915039

$$$$
36
                    3D
 Structure written by MMmdl.
159167  0  0  1  0            999 V2000
  -30.6119  -14.6590   20.4895 C   0  0  0  0  0  0
  -30.4415  -12.4031   19.4502 C   0  0  0  0  0  0
  -29.5077  -12.5088   18.2227 C   0  0  0  0  0  0
  -28.0310  -12.3431   18.6357 C   0  0  0  0  0  0
  -27.6512  -13.2169   19.8608 C   0  0  2  0  0  0
  -28.6990  -13.0787   20.9895 C   0  0  0  0  0  0
  -25.2543  -13.8157   20.5687 C   0  0  0  0  0  0
  -24.1814  -13.0412   20.9168 C   0  0  0  0  0  0
  -24.6394  -11.6893   20.8727 C   0  0  0  0  0  0
  -23.9068  -10.4278   21.0400 C   0  0  0  0  0  0
  -24.3620   -9.4198   21.9182 C   0  0  0  0  0  0
  -23.6293   -8.2236   22.0758 C   0  0  0  0  0  0
  -22.4276   -8.0276   21.3544 C   0  0  0  0  0  0
  -21.9912   -9.0247   20.4643 C   0  0  0  0  0  0
  -22.7242  -10.2124   20.3049 C   0  0  0  0  0  0
  -21.6852   -6.0734   22.5282 C   0  0  0  0  0  0
  -21.4012   -6.5640   23.8213 C   0  0  0  0  0  0
  -21.3659   -5.6793   24.9175 C   0  0  0  0  0  0
  -21.6046   -4.3056   24.7227 C   0  0  0  0  0  0
  -21.8820   -3.8146   23.4350 C   0  0  0  0  0  0
  -21.9194   -4.6962   22.3406 C   0  0  0  0  0  0
  -22.7839  -13.5210   21.1846 C   0  0  0  0  0  0
  -22.1664   -4.2149   21.0983 F   0  0  0  0  0  0
  -21.5629   -3.4537   25.7738 F   0  0  0  0  0  0
  -30.0122  -13.4269   20.4231 N   0  0  0  0  0  0
  -26.2981  -12.9348   20.3320 N   0  0  0  0  0  0
  -25.9326  -11.6499   20.5754 N   0  0  0  0  0  0
  -22.0495  -12.8193   22.0409 N   0  0  0  0  0  0
  -25.4195  -15.1885   20.4177 N   0  0  0  0  0  0
  -31.7828  -14.8206   20.1325 O   0  0  0  0  0  0
  -21.6636   -6.8878   21.4244 O   0  0  0  0  0  0
  -22.3517  -14.5518   20.6709 O   0  0  0  0  0  0
  -24.6253  -31.8596   23.2023 C   0  0  0  0  0  0
  -25.9103  -32.4777   23.8355 C   0  0  1  0  0  0
  -27.2263  -27.3182   20.1267 C   0  0  0  0  0  0
  -25.5919  -33.8579   24.2280 N   0  0  0  0  0  0
  -23.4193  -30.4817   21.5450 C   0  0  2  0  0  0
  -24.8667  -28.9322   20.1150 C   0  0  0  0  0  0
  -22.7469  -29.4622   22.4950 C   0  0  0  0  0  0
  -18.0283  -28.1385   22.8490 C   0  0  0  0  0  0
  -24.1487  -36.7291   23.2642 C   0  0  0  0  0  0
  -25.9595  -30.7904   21.3730 C   0  0  0  0  0  0
  -26.0344  -29.4160   20.7186 C   0  0  0  0  0  0
  -27.2181  -28.6214   20.7117 C   0  0  0  0  0  0
  -26.0403  -26.8870   19.4934 C   0  0  0  0  0  0
  -24.8715  -27.6732   19.4931 C   0  0  0  0  0  0
  -23.6343  -29.8129   20.1615 C   0  0  0  0  0  0
  -25.4114  -36.3085   24.0331 C   0  0  1  0  0  0
  -20.5882  -28.3686   23.1290 C   0  0  2  0  0  0
  -20.6770  -26.9409   22.5416 C   0  0  0  0  0  0
  -19.5746  -26.6385   21.5215 C   0  0  0  0  0  0
  -18.1927  -26.7930   22.1624 C   0  0  0  0  0  0
  -19.1536  -28.8854   23.2885 C   0  0  0  0  0  0
  -18.9460  -30.1459   23.8896 C   0  0  0  0  0  0
  -17.6460  -30.6588   24.0566 C   0  0  0  0  0  0
  -25.9051  -34.9452   23.5107 C   0  0  0  0  0  0
  -16.5351  -29.9086   23.6331 C   0  0  0  0  0  0
  -16.7271  -28.6503   23.0354 C   0  0  0  0  0  0
  -26.4488  -31.6586   25.0724 C   0  0  0  0  0  0
  -25.3723  -31.3710   26.1448 C   0  0  0  0  0  0
  -27.0341  -30.3017   24.6173 C   0  0  0  0  0  0
  -27.6041  -32.4324   25.7502 C   0  0  0  0  0  0
  -27.5579  -37.1805   24.8465 C   0  0  0  0  0  0
  -21.4183  -29.3039   22.3687 N   0  0  0  0  0  0
  -26.4293  -37.3780   23.9406 N   0  0  0  0  0  0
  -24.6867  -31.0608   22.0971 N   0  0  0  0  0  0
  -23.4194  -28.8167   23.3033 O   0  0  0  0  0  0
  -28.3581  -26.4922   20.1389 O   0  0  0  0  0  0
  -26.5627  -34.8918   22.4678 O   0  0  0  0  0  0
  -23.5415  -32.1393   23.7350 O   0  0  0  0  0  0
  -31.0619  -19.3399   20.5274 C   0  0  0  0  0  0
  -31.0779  -17.9100   20.5437 C   0  0  0  0  0  0
  -28.6660  -19.3537   20.7242 C   0  0  0  0  0  0
  -29.8631  -20.1080   20.6358 C   0  0  0  0  0  0
  -29.8802  -17.1605   20.6772 C   0  0  0  0  0  0
  -28.6811  -17.9246   20.7522 C   0  0  0  0  0  0
  -29.9311  -21.6218   20.7496 C   0  0  0  0  0  0
  -30.6881  -24.6166   20.1027 C   0  0  0  0  0  0
  -29.0861  -24.1875   18.2594 C   0  0  0  0  0  0
  -28.2128  -25.0443   20.4494 C   0  0  0  0  0  0
  -29.2807  -24.0619   19.7821 C   0  0  0  0  0  0
  -30.8645  -22.0841   21.5759 N   0  0  0  0  0  0
  -29.7750  -15.7026   20.7837 N   0  0  0  0  0  0
  -29.1551  -22.5511   20.0867 N   0  3  0  0  0  0
  -27.5059  -17.2603   20.8683 F   0  0  0  0  0  0
  -31.4817  -12.5333   19.1463 H   0  0  0  0  0  0
  -30.3819  -11.4094   19.8966 H   0  0  0  0  0  0
  -29.7734  -11.7555   17.4794 H   0  0  0  0  0  0
  -29.6452  -13.4768   17.7383 H   0  0  0  0  0  0
  -27.8706  -11.2903   18.8709 H   0  0  0  0  0  0
  -27.3757  -12.5685   17.7933 H   0  0  0  0  0  0
  -27.6624  -14.2497   19.5129 H   0  0  0  0  0  0
  -28.7150  -12.0575   21.3741 H   0  0  0  0  0  0
  -28.4436  -13.7115   21.8408 H   0  0  0  0  0  0
  -25.2771   -9.5669   22.4749 H   0  0  0  0  0  0
  -24.0003   -7.4626   22.7475 H   0  0  0  0  0  0
  -21.0848   -8.8765   19.8943 H   0  0  0  0  0  0
  -22.3712  -10.9660   19.6149 H   0  0  0  0  0  0
  -21.2003   -7.6148   23.9716 H   0  0  0  0  0  0
  -21.1481   -6.0525   25.9079 H   0  0  0  0  0  0
  -22.0601   -2.7610   23.2848 H   0  0  0  0  0  0
  -22.4129  -11.9848   22.4772 H   0  0  0  0  0  0
  -21.1111  -13.1201   22.2625 H   0  0  0  0  0  0
  -24.6516  -15.8335   20.5645 H   0  0  0  0  0  0
  -26.2859  -15.6639   20.1959 H   0  0  0  0  0  0
  -26.7176  -32.5455   23.1109 H   0  0  0  0  0  0
  -25.0050  -33.9726   25.0413 H   0  0  0  0  0  0
  -22.7126  -31.3018   21.4010 H   0  0  0  0  0  0
  -23.3754  -35.9619   23.3303 H   0  0  0  0  0  0
  -24.3577  -36.8916   22.2056 H   0  0  0  0  0  0
  -23.7234  -37.6488   23.6667 H   0  0  0  0  0  0
  -26.0901  -31.5528   20.6037 H   0  0  0  0  0  0
  -26.8400  -30.8413   22.0018 H   0  0  0  0  0  0
  -28.1172  -28.9904   21.1851 H   0  0  0  0  0  0
  -26.0039  -25.9344   18.9858 H   0  0  0  0  0  0
  -23.9791  -27.3004   19.0092 H   0  0  0  0  0  0
  -23.7533  -30.5883   19.4037 H   0  0  0  0  0  0
  -22.7540  -29.2420   19.8605 H   0  0  0  0  0  0
  -25.1295  -36.1939   25.0825 H   0  0  0  0  0  0
  -20.9974  -28.3262   24.1410 H   0  0  0  0  0  0
  -20.5672  -26.2294   23.3615 H   0  0  0  0  0  0
  -21.6640  -26.7442   22.1207 H   0  0  0  0  0  0
  -19.6905  -25.6299   21.1241 H   0  0  0  0  0  0
  -19.6681  -27.3198   20.6747 H   0  0  0  0  0  0
  -17.4197  -26.6688   21.4026 H   0  0  0  0  0  0
  -18.0318  -26.0073   22.9016 H   0  0  0  0  0  0
  -19.7935  -30.7277   24.2259 H   0  0  0  0  0  0
  -17.5014  -31.6267   24.5171 H   0  0  0  0  0  0
  -15.5351  -30.2988   23.7655 H   0  0  0  0  0  0
  -15.8674  -28.0824   22.7066 H   0  0  0  0  0  0
  -24.5896  -30.7066   25.7766 H   0  0  0  0  0  0
  -24.8914  -32.2872   26.4888 H   0  0  0  0  0  0
  -25.8048  -30.8871   27.0215 H   0  0  0  0  0  0
  -26.2919  -29.6766   24.1193 H   0  0  0  0  0  0
  -27.4042  -29.7270   25.4674 H   0  0  0  0  0  0
  -27.8783  -30.4313   23.9398 H   0  0  0  0  0  0
  -27.2638  -33.3609   26.2098 H   0  0  0  0  0  0
  -28.3842  -32.6910   25.0331 H   0  0  0  0  0  0
  -28.0721  -31.8443   26.5407 H   0  0  0  0  0  0
  -28.2594  -38.0105   24.7520 H   0  0  0  0  0  0
  -28.1079  -36.2639   24.6287 H   0  0  0  0  0  0
  -27.2300  -37.1445   25.8869 H   0  0  0  0  0  0
  -20.9358  -29.8764   21.6901 H   0  0  0  0  0  0
  -26.0175  -38.2855   24.1408 H   0  0  0  0  0  0
  -32.0089  -19.8576   20.4518 H   0  0  0  0  0  0
  -32.0275  -17.3990   20.4796 H   0  0  0  0  0  0
  -27.7195  -19.8640   20.8200 H   0  0  0  0  0  0
  -30.8415  -25.5897   19.6342 H   0  0  0  0  0  0
  -31.4836  -23.9687   19.7335 H   0  0  0  0  0  0
  -30.8284  -24.7706   21.1727 H   0  0  0  0  0  0
  -29.2286  -25.2150   17.9215 H   0  0  0  0  0  0
  -28.0803  -23.8930   17.9584 H   0  0  0  0  0  0
  -29.7936  -23.5652   17.7104 H   0  0  0  0  0  0
  -28.2960  -24.9538   21.5331 H   0  0  0  0  0  0
  -27.2158  -24.6713   20.2221 H   0  0  0  0  0  0
  -31.4048  -21.4351   22.1281 H   0  0  0  0  0  0
  -30.9947  -23.0699   21.7224 H   0  0  0  0  0  0
  -28.8423  -15.3987   21.0139 H   0  0  0  0  0  0
  -28.3626  -22.1259   19.6214 H   0  0  0  0  0  0
  1 25  1  0  0  0
  1 30  2  0  0  0
  1 83  1  0  0  0
  2  3  1  0  0  0
  2 25  1  0  0  0
  2 86  1  0  0  0
  2 87  1  0  0  0
  3  4  1  0  0  0
  3 88  1  0  0  0
  3 89  1  0  0  0
  4  5  1  0  0  0
  4 90  1  0  0  0
  4 91  1  0  0  0
  5  6  1  0  0  0
  5 26  1  0  0  0
  5 92  1  0  0  0
  6 25  1  0  0  0
  6 93  1  0  0  0
  6 94  1  0  0  0
  7  8  2  0  0  0
  7 26  1  0  0  0
  7 29  1  0  0  0
  8  9  1  0  0  0
  8 22  1  0  0  0
  9 10  1  0  0  0
  9 27  2  0  0  0
 10 11  2  0  0  0
 10 15  1  0  0  0
 11 12  1  0  0  0
 11 95  1  0  0  0
 12 13  2  0  0  0
 12 96  1  0  0  0
 13 14  1  0  0  0
 13 31  1  0  0  0
 14 15  2  0  0  0
 14 97  1  0  0  0
 15 98  1  0  0  0
 16 17  2  0  0  0
 16 21  1  0  0  0
 16 31  1  0  0  0
 17 18  1  0  0  0
 17 99  1  0  0  0
 18 19  2  0  0  0
 18100  1  0  0  0
 19 20  1  0  0  0
 19 24  1  0  0  0
 20 21  2  0  0  0
 20101  1  0  0  0
 21 23  1  0  0  0
 22 28  1  0  0  0
 22 32  2  0  0  0
 26 27  1  0  0  0
 28102  1  0  0  0
 28103  1  0  0  0
 29104  1  0  0  0
 29105  1  0  0  0
 33 34  1  0  0  0
 33 66  1  0  0  0
 33 70  2  0  0  0
 34 36  1  0  0  0
 34 59  1  0  0  0
 34106  1  0  0  0
 35 44  2  0  0  0
 35 45  1  0  0  0
 35 68  1  0  0  0
 36 56  1  0  0  0
 36107  1  0  0  0
 37 39  1  0  0  0
 37 47  1  0  0  0
 37 66  1  0  0  0
 37108  1  0  0  0
 38 43  2  0  0  0
 38 46  1  0  0  0
 38 47  1  0  0  0
 39 64  1  0  0  0
 39 67  2  0  0  0
 40 52  1  0  0  0
 40 53  2  0  0  0
 40 58  1  0  0  0
 41109  1  0  0  0
 41110  1  0  0  0
 41111  1  0  0  0
 41 48  1  0  0  0
 42 43  1  0  0  0
 42 66  1  0  0  0
 42112  1  0  0  0
 42113  1  0  0  0
 43 44  1  0  0  0
 44114  1  0  0  0
 45 46  2  0  0  0
 45115  1  0  0  0
 46116  1  0  0  0
 47117  1  0  0  0
 47118  1  0  0  0
 48 56  1  0  0  0
 48 65  1  0  0  0
 48119  1  0  0  0
 49 50  1  0  0  0
 49 53  1  0  0  0
 49 64  1  0  0  0
 49120  1  0  0  0
 50 51  1  0  0  0
 50121  1  0  0  0
 50122  1  0  0  0
 51 52  1  0  0  0
 51123  1  0  0  0
 51124  1  0  0  0
 52125  1  0  0  0
 52126  1  0  0  0
 53 54  1  0  0  0
 54 55  2  0  0  0
 54127  1  0  0  0
 55 57  1  0  0  0
 55128  1  0  0  0
 56 69  2  0  0  0
 57 58  2  0  0  0
 57129  1  0  0  0
 58130  1  0  0  0
 59 60  1  0  0  0
 59 61  1  0  0  0
 59 62  1  0  0  0
 60131  1  0  0  0
 60132  1  0  0  0
 60133  1  0  0  0
 61134  1  0  0  0
 61135  1  0  0  0
 61136  1  0  0  0
 62137  1  0  0  0
 62138  1  0  0  0
 62139  1  0  0  0
 63 65  1  0  0  0
 63140  1  0  0  0
 63141  1  0  0  0
 63142  1  0  0  0
 64143  1  0  0  0
 65144  1  0  0  0
 68 80  1  0  0  0
 71 72  2  0  0  0
 71 74  1  0  0  0
 71145  1  0  0  0
 72 75  1  0  0  0
 72146  1  0  0  0
 73 74  2  0  0  0
 73 76  1  0  0  0
 73147  1  0  0  0
 74 77  1  0  0  0
 75 76  2  0  0  0
 75 83  1  0  0  0
 76 85  1  0  0  0
 77 82  1  0  0  0
 77 84  2  0  0  0
 78148  1  0  0  0
 78149  1  0  0  0
 78150  1  0  0  0
 78 81  1  0  0  0
 79 81  1  0  0  0
 79151  1  0  0  0
 79152  1  0  0  0
 79153  1  0  0  0
 80 81  1  0  0  0
 80154  1  0  0  0
 80155  1  0  0  0
 81 84  1  0  0  0
 82156  1  0  0  0
 82157  1  0  0  0
 83158  1  0  0  0
 84159  1  0  0  0
M  CHG  1  84   1
M  ISO  4   1 100  68 101  80 101  83 100
M  END
> <chiral flag>
0

> <version>
0

> <s_m_source_file>
/data/baiqing/PycharmProjects/Reinvent-master-3.2/result/LINK_invent/BTK/process_docking_weight1_custom_product_contain_oxygen_bond_distance_aromatic_linkinvent_7_9_3/rearranged_h_0075.sdf

> <i_m_source_file_index>
36

> <r_mmod_Potential_Energy-OPLS-2005>
-210.09748840332

> <r_mmod_Stretch_Energy-OPLS-2005>
86.1280136108398

> <r_mmod_Bend_Energy-OPLS-2005>
158.165084838867

> <r_mmod_Torsional_Energy-OPLS-2005>
232.222091674805

> <r_mmod_Improper_Torsional_Energy-OPLS-2005>
4.85293197631836

> <r_mmod_Van_der_Waal_Energy-OPLS-2005>
147.699615478516

> <r_mmod_Electrostatic_Energy-OPLS-2005>
-482.179809570312

> <r_mmod_Solvation_Energy-OPLS-2005>
-407.097534179688

> <b_mmod_Minimization_Converged-OPLS-2005>
0

> <r_mmod_RMS_Derivative-OPLS-2005>
0.722852408885956

$$$$
37
                    3D
 Structure written by MMmdl.
161170  0  0  1  0            999 V2000
  -30.6907  -14.7770   20.3974 C   0  0  0  0  0  0
  -30.4032  -12.4788   19.4770 C   0  0  0  0  0  0
  -29.4995  -12.4885   18.2309 C   0  0  0  0  0  0
  -28.0269  -12.3218   18.6500 C   0  0  0  0  0  0
  -27.6238  -13.2546   19.8263 C   0  0  2  0  0  0
  -28.6748  -13.2815   20.9556 C   0  0  0  0  0  0
  -25.2427  -13.8256   20.5723 C   0  0  0  0  0  0
  -24.1757  -13.0458   20.9244 C   0  0  0  0  0  0
  -24.6384  -11.6948   20.8762 C   0  0  0  0  0  0
  -23.9082  -10.4305   21.0405 C   0  0  0  0  0  0
  -24.3628   -9.4215   21.9178 C   0  0  0  0  0  0
  -23.6300   -8.2251   22.0750 C   0  0  0  0  0  0
  -22.4285   -8.0285   21.3546 C   0  0  0  0  0  0
  -21.9927   -9.0265   20.4651 C   0  0  0  0  0  0
  -22.7257  -10.2141   20.3052 C   0  0  0  0  0  0
  -21.6859   -6.0738   22.5279 C   0  0  0  0  0  0
  -21.4029   -6.5638   23.8216 C   0  0  0  0  0  0
  -21.3665   -5.6784   24.9174 C   0  0  0  0  0  0
  -21.6043   -4.3049   24.7224 C   0  0  0  0  0  0
  -21.8812   -3.8145   23.4344 C   0  0  0  0  0  0
  -21.9191   -4.6963   22.3401 C   0  0  0  0  0  0
  -22.7768  -13.5214   21.1887 C   0  0  0  0  0  0
  -22.1651   -4.2146   21.0980 F   0  0  0  0  0  0
  -21.5627   -3.4534   25.7740 F   0  0  0  0  0  0
  -29.9595  -13.6085   20.3310 N   0  0  0  0  0  0
  -26.2861  -12.9504   20.3234 N   0  0  0  0  0  0
  -25.9315  -11.6627   20.5742 N   0  0  0  0  0  0
  -22.0411  -12.8215   22.0443 N   0  0  0  0  0  0
  -25.4062  -15.1985   20.4156 N   0  0  0  0  0  0
  -31.9129  -14.6511   20.3403 O   0  0  0  0  0  0
  -21.6645   -6.8885   21.4242 O   0  0  0  0  0  0
  -22.3453  -14.5513   20.6710 O   0  0  0  0  0  0
  -24.6357  -31.8538   23.1973 C   0  0  0  0  0  0
  -25.9169  -32.4743   23.8327 C   0  0  1  0  0  0
  -27.2060  -27.2332   20.1222 C   0  0  0  0  0  0
  -25.5958  -33.8541   24.2250 N   0  0  0  0  0  0
  -23.4323  -30.4805   21.5418 C   0  0  2  0  0  0
  -24.8759  -28.9269   20.1105 C   0  0  0  0  0  0
  -22.7529  -29.4605   22.4892 C   0  0  0  0  0  0
  -18.0295  -28.1381   22.8486 C   0  0  0  0  0  0
  -24.1493  -36.7272   23.2638 C   0  0  0  0  0  0
  -25.9835  -30.7577   21.3816 C   0  0  0  0  0  0
  -26.0527  -29.3799   20.7193 C   0  0  0  0  0  0
  -27.2235  -28.5483   20.7102 C   0  0  0  0  0  0
  -26.0009  -26.8610   19.4831 C   0  0  0  0  0  0
  -24.8568  -27.6767   19.4815 C   0  0  0  0  0  0
  -23.6508  -29.8197   20.1567 C   0  0  0  0  0  0
  -25.4120  -36.3052   24.0321 C   0  0  1  0  0  0
  -20.5906  -28.3694   23.1259 C   0  0  2  0  0  0
  -20.6779  -26.9407   22.5402 C   0  0  0  0  0  0
  -19.5752  -26.6379   21.5210 C   0  0  0  0  0  0
  -18.1934  -26.7921   22.1628 C   0  0  0  0  0  0
  -19.1554  -28.8856   23.2865 C   0  0  0  0  0  0
  -18.9468  -30.1456   23.8886 C   0  0  0  0  0  0
  -17.6464  -30.6580   24.0565 C   0  0  0  0  0  0
  -25.9063  -34.9425   23.5086 C   0  0  0  0  0  0
  -16.5354  -29.9076   23.6335 C   0  0  0  0  0  0
  -16.7281  -28.6493   23.0363 C   0  0  0  0  0  0
  -26.4516  -31.6571   25.0729 C   0  0  0  0  0  0
  -25.3742  -31.3733   26.1456 C   0  0  0  0  0  0
  -27.0360  -30.2980   24.6238 C   0  0  0  0  0  0
  -27.6056  -32.4317   25.7515 C   0  0  0  0  0  0
  -27.5579  -37.1797   24.8466 C   0  0  0  0  0  0
  -21.4238  -29.3045   22.3652 N   0  0  0  0  0  0
  -26.4283  -37.3760   23.9408 N   0  0  0  0  0  0
  -24.7028  -31.0493   22.0953 N   0  0  0  0  0  0
  -23.4230  -28.8139   23.2994 O   0  0  0  0  0  0
  -28.2800  -26.3035   20.1691 O   0  0  0  0  0  0
  -26.5630  -34.8900   22.4655 O   0  0  0  0  0  0
  -23.5498  -32.1358   23.7262 O   0  0  0  0  0  0
  -33.1037  -19.0752   19.5894 C   0  0  0  0  0  0
  -33.0807  -17.8740   18.8857 C   0  0  0  0  0  0
  -31.9250  -19.5111   20.2025 C   0  0  0  0  0  0
  -31.9650  -17.0352   19.0015 C   0  0  0  0  0  0
  -30.7111  -18.7643   20.1758 C   0  0  0  0  0  0
  -30.8487  -17.3135   19.8483 C   0  0  0  0  0  0
  -29.4764  -20.9199   19.6380 C   0  0  0  0  0  0
  -28.3283  -21.3454   21.6459 C   0  0  0  0  0  0
  -28.7285  -19.8351   21.5098 C   0  0  0  0  0  0
  -28.5830  -22.0433   20.2858 C   0  0  1  0  0  0
  -30.0377  -23.9564   21.3942 C   0  0  0  0  0  0
  -27.9603  -24.8208   20.1206 C   0  0  0  0  0  0
  -29.0584  -23.6266   20.2567 C   0  0  2  0  0  0
  -29.5624  -19.7090   20.3180 N   0  0  0  0  0  0
  -30.1114  -16.0618   20.2639 N   0  0  0  0  0  0
  -30.0163  -21.1333   18.5477 O   0  0  0  0  0  0
  -31.4497  -12.5514   19.1774 H   0  0  0  0  0  0
  -30.3153  -11.5323   20.0129 H   0  0  0  0  0  0
  -29.7890  -11.6922   17.5440 H   0  0  0  0  0  0
  -29.6306  -13.4245   17.6856 H   0  0  0  0  0  0
  -27.8874  -11.2801   18.9406 H   0  0  0  0  0  0
  -27.3704  -12.4844   17.7943 H   0  0  0  0  0  0
  -27.5885  -14.2586   19.4017 H   0  0  0  0  0  0
  -28.7244  -12.3215   21.4714 H   0  0  0  0  0  0
  -28.4151  -14.0310   21.7053 H   0  0  0  0  0  0
  -25.2765   -9.5693   22.4760 H   0  0  0  0  0  0
  -24.0002   -7.4646   22.7474 H   0  0  0  0  0  0
  -21.0855   -8.8798   19.8961 H   0  0  0  0  0  0
  -22.3716  -10.9681   19.6166 H   0  0  0  0  0  0
  -21.2031   -7.6146   23.9725 H   0  0  0  0  0  0
  -21.1494   -6.0515   25.9080 H   0  0  0  0  0  0
  -22.0586   -2.7605   23.2844 H   0  0  0  0  0  0
  -22.4029  -11.9903   22.4872 H   0  0  0  0  0  0
  -21.1016  -13.1235   22.2611 H   0  0  0  0  0  0
  -24.6342  -15.8474   20.5316 H   0  0  0  0  0  0
  -26.2501  -15.6454   20.0819 H   0  0  0  0  0  0
  -26.7242  -32.5377   23.1065 H   0  0  0  0  0  0
  -25.0127  -33.9665   25.0416 H   0  0  0  0  0  0
  -22.7287  -31.3034   21.3984 H   0  0  0  0  0  0
  -23.3746  -35.9614   23.3290 H   0  0  0  0  0  0
  -24.3585  -36.8908   22.2056 H   0  0  0  0  0  0
  -23.7248  -37.6470   23.6673 H   0  0  0  0  0  0
  -26.1325  -31.5160   20.6118 H   0  0  0  0  0  0
  -26.8579  -30.8020   22.0194 H   0  0  0  0  0  0
  -28.1258  -28.8914   21.1967 H   0  0  0  0  0  0
  -25.8970  -25.9135   18.9800 H   0  0  0  0  0  0
  -23.9564  -27.3257   18.9955 H   0  0  0  0  0  0
  -23.7834  -30.5983   19.4047 H   0  0  0  0  0  0
  -22.7662  -29.2601   19.8475 H   0  0  0  0  0  0
  -25.1300  -36.1894   25.0811 H   0  0  0  0  0  0
  -21.0005  -28.3260   24.1378 H   0  0  0  0  0  0
  -20.5673  -26.2305   23.3608 H   0  0  0  0  0  0
  -21.6648  -26.7414   22.1210 H   0  0  0  0  0  0
  -19.6903  -25.6289   21.1242 H   0  0  0  0  0  0
  -19.6683  -27.3189   20.6742 H   0  0  0  0  0  0
  -17.4207  -26.6677   21.4025 H   0  0  0  0  0  0
  -18.0325  -26.0053   22.9018 H   0  0  0  0  0  0
  -19.7940  -30.7283   24.2250 H   0  0  0  0  0  0
  -17.5012  -31.6262   24.5166 H   0  0  0  0  0  0
  -15.5354  -30.2980   23.7649 H   0  0  0  0  0  0
  -15.8683  -28.0806   22.7086 H   0  0  0  0  0  0
  -24.5941  -30.7036   25.7815 H   0  0  0  0  0  0
  -24.8905  -32.2901   26.4834 H   0  0  0  0  0  0
  -25.8077  -30.8973   27.0263 H   0  0  0  0  0  0
  -26.2946  -29.6728   24.1250 H   0  0  0  0  0  0
  -27.4011  -29.7237   25.4764 H   0  0  0  0  0  0
  -27.8841  -30.4229   23.9502 H   0  0  0  0  0  0
  -27.2661  -33.3640   26.2034 H   0  0  0  0  0  0
  -28.3911  -32.6837   25.0381 H   0  0  0  0  0  0
  -28.0675  -31.8480   26.5489 H   0  0  0  0  0  0
  -28.2588  -38.0102   24.7513 H   0  0  0  0  0  0
  -28.1075  -36.2630   24.6285 H   0  0  0  0  0  0
  -27.2296  -37.1447   25.8868 H   0  0  0  0  0  0
  -20.9412  -29.8793   21.6881 H   0  0  0  0  0  0
  -26.0150  -38.2824   24.1416 H   0  0  0  0  0  0
  -33.9811  -19.7074   19.5710 H   0  0  0  0  0  0
  -33.9413  -17.5597   18.3118 H   0  0  0  0  0  0
  -31.9360  -20.5198   20.5938 H   0  0  0  0  0  0
  -32.0557  -16.0883   18.4888 H   0  0  0  0  0  0
  -28.9282  -21.7927   22.4366 H   0  0  0  0  0  0
  -27.2863  -21.4505   21.9497 H   0  0  0  0  0  0
  -27.8438  -19.2115   21.3756 H   0  0  0  0  0  0
  -29.2539  -19.4790   22.3969 H   0  0  0  0  0  0
  -27.6594  -21.9923   19.7083 H   0  0  0  0  0  0
  -30.8157  -23.1983   21.4879 H   0  0  0  0  0  0
  -29.5215  -24.0359   22.3510 H   0  0  0  0  0  0
  -30.5319  -24.9123   21.2158 H   0  0  0  0  0  0
  -27.1923  -24.6422   20.8738 H   0  0  0  0  0  0
  -27.4906  -24.6211   19.1586 H   0  0  0  0  0  0
  -29.6532  -23.7171   19.3468 H   0  0  0  0  0  0
  -29.1158  -16.1352   20.4105 H   0  0  0  0  0  0
  1 25  1  0  0  0
  1 30  2  0  0  0
  1 85  1  0  0  0
  2  3  1  0  0  0
  2 25  1  0  0  0
  2 87  1  0  0  0
  2 88  1  0  0  0
  3  4  1  0  0  0
  3 89  1  0  0  0
  3 90  1  0  0  0
  4  5  1  0  0  0
  4 91  1  0  0  0
  4 92  1  0  0  0
  5  6  1  0  0  0
  5 26  1  0  0  0
  5 93  1  0  0  0
  6 25  1  0  0  0
  6 94  1  0  0  0
  6 95  1  0  0  0
  7  8  2  0  0  0
  7 26  1  0  0  0
  7 29  1  0  0  0
  8  9  1  0  0  0
  8 22  1  0  0  0
  9 10  1  0  0  0
  9 27  2  0  0  0
 10 11  2  0  0  0
 10 15  1  0  0  0
 11 12  1  0  0  0
 11 96  1  0  0  0
 12 13  2  0  0  0
 12 97  1  0  0  0
 13 14  1  0  0  0
 13 31  1  0  0  0
 14 15  2  0  0  0
 14 98  1  0  0  0
 15 99  1  0  0  0
 16 17  2  0  0  0
 16 21  1  0  0  0
 16 31  1  0  0  0
 17 18  1  0  0  0
 17100  1  0  0  0
 18 19  2  0  0  0
 18101  1  0  0  0
 19 20  1  0  0  0
 19 24  1  0  0  0
 20 21  2  0  0  0
 20102  1  0  0  0
 21 23  1  0  0  0
 22 28  1  0  0  0
 22 32  2  0  0  0
 26 27  1  0  0  0
 28103  1  0  0  0
 28104  1  0  0  0
 29105  1  0  0  0
 29106  1  0  0  0
 33 34  1  0  0  0
 33 66  1  0  0  0
 33 70  2  0  0  0
 34 36  1  0  0  0
 34 59  1  0  0  0
 34107  1  0  0  0
 35 44  2  0  0  0
 35 45  1  0  0  0
 35 68  1  0  0  0
 36 56  1  0  0  0
 36108  1  0  0  0
 37 39  1  0  0  0
 37 47  1  0  0  0
 37 66  1  0  0  0
 37109  1  0  0  0
 38 43  2  0  0  0
 38 46  1  0  0  0
 38 47  1  0  0  0
 39 64  1  0  0  0
 39 67  2  0  0  0
 40 52  1  0  0  0
 40 53  2  0  0  0
 40 58  1  0  0  0
 41110  1  0  0  0
 41111  1  0  0  0
 41112  1  0  0  0
 41 48  1  0  0  0
 42 43  1  0  0  0
 42 66  1  0  0  0
 42113  1  0  0  0
 42114  1  0  0  0
 43 44  1  0  0  0
 44115  1  0  0  0
 45 46  2  0  0  0
 45116  1  0  0  0
 46117  1  0  0  0
 47118  1  0  0  0
 47119  1  0  0  0
 48 56  1  0  0  0
 48 65  1  0  0  0
 48120  1  0  0  0
 49 50  1  0  0  0
 49 53  1  0  0  0
 49 64  1  0  0  0
 49121  1  0  0  0
 50 51  1  0  0  0
 50122  1  0  0  0
 50123  1  0  0  0
 51 52  1  0  0  0
 51124  1  0  0  0
 51125  1  0  0  0
 52126  1  0  0  0
 52127  1  0  0  0
 53 54  1  0  0  0
 54 55  2  0  0  0
 54128  1  0  0  0
 55 57  1  0  0  0
 55129  1  0  0  0
 56 69  2  0  0  0
 57 58  2  0  0  0
 57130  1  0  0  0
 58131  1  0  0  0
 59 60  1  0  0  0
 59 61  1  0  0  0
 59 62  1  0  0  0
 60132  1  0  0  0
 60133  1  0  0  0
 60134  1  0  0  0
 61135  1  0  0  0
 61136  1  0  0  0
 61137  1  0  0  0
 62138  1  0  0  0
 62139  1  0  0  0
 62140  1  0  0  0
 63 65  1  0  0  0
 63141  1  0  0  0
 63142  1  0  0  0
 63143  1  0  0  0
 64144  1  0  0  0
 65145  1  0  0  0
 68 82  1  0  0  0
 71 72  2  0  0  0
 71 73  1  0  0  0
 71146  1  0  0  0
 72 74  1  0  0  0
 72147  1  0  0  0
 73 75  2  0  0  0
 73148  1  0  0  0
 74 76  2  0  0  0
 74149  1  0  0  0
 75 76  1  0  0  0
 75 84  1  0  0  0
 76 85  1  0  0  0
 77 80  1  0  0  0
 77 84  1  0  0  0
 77 86  2  0  0  0
 78 79  1  0  0  0
 78150  1  0  0  0
 78151  1  0  0  0
 78 80  1  0  0  0
 79 84  1  0  0  0
 79152  1  0  0  0
 79153  1  0  0  0
 80 83  1  0  0  0
 80154  1  0  0  0
 81155  1  0  0  0
 81156  1  0  0  0
 81157  1  0  0  0
 81 83  1  0  0  0
 82 83  1  0  0  0
 82158  1  0  0  0
 82159  1  0  0  0
 83160  1  0  0  0
 85161  1  0  0  0
M  ISO  4   1 100  68 101  82 101  85 100
M  END
> <chiral flag>
0

> <version>
0

> <s_m_source_file>
/data/baiqing/PycharmProjects/Reinvent-master-3.2/result/LINK_invent/BTK/process_docking_weight1_custom_product_contain_oxygen_bond_distance_aromatic_linkinvent_7_9_3/rearranged_h_0075.sdf

> <i_m_source_file_index>
37

> <r_mmod_Potential_Energy-OPLS-2005>
547.351623535156

> <r_mmod_Stretch_Energy-OPLS-2005>
165.670455932617

> <r_mmod_Bend_Energy-OPLS-2005>
258.747863769531

> <r_mmod_Torsional_Energy-OPLS-2005>
399.243957519531

> <r_mmod_Improper_Torsional_Energy-OPLS-2005>
8.92711925506592

> <r_mmod_Van_der_Waal_Energy-OPLS-2005>
165.729431152344

> <r_mmod_Electrostatic_Energy-OPLS-2005>
-348.986206054688

> <r_mmod_Solvation_Energy-OPLS-2005>
-223.423248291016

> <b_mmod_Minimization_Converged-OPLS-2005>
0

> <r_mmod_RMS_Derivative-OPLS-2005>
1.8550044298172

$$$$
38
                    3D
 Structure written by MMmdl.
157166  0  0  1  0            999 V2000
  -30.6259  -14.6672   20.4581 C   0  0  0  0  0  0
  -30.4420  -12.4032   19.4482 C   0  0  0  0  0  0
  -29.5073  -12.5031   18.2219 C   0  0  0  0  0  0
  -28.0305  -12.3413   18.6378 C   0  0  0  0  0  0
  -27.6519  -13.2190   19.8607 C   0  0  2  0  0  0
  -28.7054  -13.1020   20.9868 C   0  0  0  0  0  0
  -25.2558  -13.8181   20.5727 C   0  0  0  0  0  0
  -24.1828  -13.0432   20.9194 C   0  0  0  0  0  0
  -24.6403  -11.6907   20.8744 C   0  0  0  0  0  0
  -23.9072  -10.4286   21.0407 C   0  0  0  0  0  0
  -24.3623   -9.4203   21.9189 C   0  0  0  0  0  0
  -23.6296   -8.2247   22.0754 C   0  0  0  0  0  0
  -22.4282   -8.0282   21.3543 C   0  0  0  0  0  0
  -21.9915   -9.0252   20.4644 C   0  0  0  0  0  0
  -22.7242  -10.2131   20.3053 C   0  0  0  0  0  0
  -21.6851   -6.0738   22.5278 C   0  0  0  0  0  0
  -21.4008   -6.5642   23.8210 C   0  0  0  0  0  0
  -21.3667   -5.6795   24.9174 C   0  0  0  0  0  0
  -21.6050   -4.3058   24.7223 C   0  0  0  0  0  0
  -21.8820   -3.8149   23.4342 C   0  0  0  0  0  0
  -21.9193   -4.6968   22.3402 C   0  0  0  0  0  0
  -22.7850  -13.5223   21.1854 C   0  0  0  0  0  0
  -22.1661   -4.2155   21.0980 F   0  0  0  0  0  0
  -21.5639   -3.4540   25.7735 F   0  0  0  0  0  0
  -30.0167  -13.4389   20.4082 N   0  0  0  0  0  0
  -26.2997  -12.9369   20.3358 N   0  0  0  0  0  0
  -25.9340  -11.6515   20.5789 N   0  0  0  0  0  0
  -22.0496  -12.8222   22.0419 N   0  0  0  0  0  0
  -25.4181  -15.1920   20.4222 N   0  0  0  0  0  0
  -31.8121  -14.8126   20.1515 O   0  0  0  0  0  0
  -21.6646   -6.8880   21.4235 O   0  0  0  0  0  0
  -22.3527  -14.5528   20.6696 O   0  0  0  0  0  0
  -24.6288  -31.8604   23.2053 C   0  0  0  0  0  0
  -25.9138  -32.4779   23.8375 C   0  0  1  0  0  0
  -27.2192  -27.3060   20.0957 C   0  0  0  0  0  0
  -25.5952  -33.8583   24.2298 N   0  0  0  0  0  0
  -23.4214  -30.4878   21.5494 C   0  0  2  0  0  0
  -24.8655  -28.9487   20.1120 C   0  0  0  0  0  0
  -22.7481  -29.4635   22.4950 C   0  0  0  0  0  0
  -18.0287  -28.1390   22.8487 C   0  0  0  0  0  0
  -24.1491  -36.7282   23.2637 C   0  0  0  0  0  0
  -25.9678  -30.7838   21.3826 C   0  0  0  0  0  0
  -26.0396  -29.4130   20.7185 C   0  0  0  0  0  0
  -27.2187  -28.6021   20.7060 C   0  0  0  0  0  0
  -26.0163  -26.9133   19.4571 C   0  0  0  0  0  0
  -24.8560  -27.7027   19.4763 C   0  0  0  0  0  0
  -23.6354  -29.8303   20.1632 C   0  0  0  0  0  0
  -25.4120  -36.3082   24.0326 C   0  0  1  0  0  0
  -20.5888  -28.3695   23.1280 C   0  0  2  0  0  0
  -20.6784  -26.9418   22.5406 C   0  0  0  0  0  0
  -19.5750  -26.6384   21.5221 C   0  0  0  0  0  0
  -18.1929  -26.7934   22.1628 C   0  0  0  0  0  0
  -19.1537  -28.8860   23.2879 C   0  0  0  0  0  0
  -18.9464  -30.1466   23.8890 C   0  0  0  0  0  0
  -17.6459  -30.6591   24.0562 C   0  0  0  0  0  0
  -25.9057  -34.9448   23.5106 C   0  0  0  0  0  0
  -16.5349  -29.9082   23.6339 C   0  0  0  0  0  0
  -16.7270  -28.6500   23.0358 C   0  0  0  0  0  0
  -26.4513  -31.6584   25.0747 C   0  0  0  0  0  0
  -25.3737  -31.3727   26.1461 C   0  0  0  0  0  0
  -27.0364  -30.2997   24.6228 C   0  0  0  0  0  0
  -27.6069  -32.4319   25.7516 C   0  0  0  0  0  0
  -27.5579  -37.1802   24.8467 C   0  0  0  0  0  0
  -21.4194  -29.3046   22.3677 N   0  0  0  0  0  0
  -26.4299  -37.3775   23.9400 N   0  0  0  0  0  0
  -24.6915  -31.0600   22.1020 N   0  0  0  0  0  0
  -23.4193  -28.8168   23.3035 O   0  0  0  0  0  0
  -28.3213  -26.4224   20.1395 O   0  0  0  0  0  0
  -26.5611  -34.8908   22.4664 O   0  0  0  0  0  0
  -23.5445  -32.1422   23.7362 O   0  0  0  0  0  0
  -30.9680  -19.4038   20.7946 C   0  0  0  0  0  0
  -31.0168  -17.9734   20.8494 C   0  0  0  0  0  0
  -28.7243  -19.3171   19.9525 C   0  0  0  0  0  0
  -29.8148  -20.1310   20.3652 C   0  0  0  0  0  0
  -29.9061  -17.1783   20.4647 C   0  0  0  0  0  0
  -28.7726  -17.8885   19.9866 C   0  0  0  0  0  0
  -28.7336  -22.4871   19.9928 C   0  0  0  0  0  0
  -29.0290  -23.8142   20.1173 C   0  0  0  0  0  0
  -30.3884  -23.8339   20.6063 C   0  0  0  0  0  0
  -31.1099  -24.9352   20.8691 C   0  0  0  0  0  0
  -30.8948  -22.4003   20.7729 C   0  0  0  0  0  0
  -28.0564  -25.0039   19.7718 C   0  0  0  0  0  0
  -29.7581  -21.5788   20.3453 N   0  0  0  0  0  0
  -27.6864  -17.1486   19.5122 N   0  0  0  0  0  0
  -29.7798  -15.7288   20.6280 N   0  0  0  0  0  0
  -31.4806  -12.5314   19.1409 H   0  0  0  0  0  0
  -30.3833  -11.4132   19.9034 H   0  0  0  0  0  0
  -29.7723  -11.7467   17.4819 H   0  0  0  0  0  0
  -29.6450  -13.4692   17.7338 H   0  0  0  0  0  0
  -27.8695  -11.2892   18.8752 H   0  0  0  0  0  0
  -27.3737  -12.5658   17.7963 H   0  0  0  0  0  0
  -27.6556  -14.2485   19.5054 H   0  0  0  0  0  0
  -28.7233  -12.0916   21.3973 H   0  0  0  0  0  0
  -28.4581  -13.7610   21.8211 H   0  0  0  0  0  0
  -25.2767   -9.5689   22.4767 H   0  0  0  0  0  0
  -24.0007   -7.4637   22.7470 H   0  0  0  0  0  0
  -21.0849   -8.8758   19.8946 H   0  0  0  0  0  0
  -22.3697  -10.9666   19.6163 H   0  0  0  0  0  0
  -21.1987   -7.6146   23.9719 H   0  0  0  0  0  0
  -21.1499   -6.0522   25.9080 H   0  0  0  0  0  0
  -22.0596   -2.7611   23.2840 H   0  0  0  0  0  0
  -22.4112  -11.9873   22.4789 H   0  0  0  0  0  0
  -21.1109  -13.1241   22.2623 H   0  0  0  0  0  0
  -24.6441  -15.8313   20.5605 H   0  0  0  0  0  0
  -26.2738  -15.6819   20.1657 H   0  0  0  0  0  0
  -26.7199  -32.5437   23.1116 H   0  0  0  0  0  0
  -25.0122  -33.9735   25.0456 H   0  0  0  0  0  0
  -22.7162  -31.3099   21.4099 H   0  0  0  0  0  0
  -23.3753  -35.9615   23.3326 H   0  0  0  0  0  0
  -24.3579  -36.8880   22.2048 H   0  0  0  0  0  0
  -23.7246  -37.6490   23.6641 H   0  0  0  0  0  0
  -26.1081  -31.5505   20.6198 H   0  0  0  0  0  0
  -26.8440  -30.8249   22.0178 H   0  0  0  0  0  0
  -28.1155  -28.9523   21.1971 H   0  0  0  0  0  0
  -25.9214  -25.9746   18.9343 H   0  0  0  0  0  0
  -23.9575  -27.3437   18.9931 H   0  0  0  0  0  0
  -23.7541  -30.6098   19.4101 H   0  0  0  0  0  0
  -22.7540  -29.2620   19.8596 H   0  0  0  0  0  0
  -25.1307  -36.1941   25.0821 H   0  0  0  0  0  0
  -20.9982  -28.3272   24.1400 H   0  0  0  0  0  0
  -20.5717  -26.2302   23.3605 H   0  0  0  0  0  0
  -21.6650  -26.7470   22.1179 H   0  0  0  0  0  0
  -19.6915  -25.6298   21.1249 H   0  0  0  0  0  0
  -19.6690  -27.3192   20.6750 H   0  0  0  0  0  0
  -17.4208  -26.6693   21.4021 H   0  0  0  0  0  0
  -18.0319  -26.0071   22.9014 H   0  0  0  0  0  0
  -19.7940  -30.7292   24.2250 H   0  0  0  0  0  0
  -17.5008  -31.6275   24.5156 H   0  0  0  0  0  0
  -15.5348  -30.2975   23.7673 H   0  0  0  0  0  0
  -15.8669  -28.0810   22.7081 H   0  0  0  0  0  0
  -24.5915  -30.7076   25.7782 H   0  0  0  0  0  0
  -24.8921  -32.2892   26.4874 H   0  0  0  0  0  0
  -25.8051  -30.8907   27.0243 H   0  0  0  0  0  0
  -26.2959  -29.6736   24.1239 H   0  0  0  0  0  0
  -27.4031  -29.7270   25.4757 H   0  0  0  0  0  0
  -27.8841  -30.4266   23.9492 H   0  0  0  0  0  0
  -27.2684  -33.3621   26.2087 H   0  0  0  0  0  0
  -28.3881  -32.6881   25.0350 H   0  0  0  0  0  0
  -28.0727  -31.8449   26.5436 H   0  0  0  0  0  0
  -28.2609  -38.0090   24.7507 H   0  0  0  0  0  0
  -28.1072  -36.2625   24.6318 H   0  0  0  0  0  0
  -27.2291  -37.1471   25.8868 H   0  0  0  0  0  0
  -20.9375  -29.8762   21.6877 H   0  0  0  0  0  0
  -26.0184  -38.2854   24.1396 H   0  0  0  0  0  0
  -31.8492  -19.9404   21.1145 H   0  0  0  0  0  0
  -31.9117  -17.4945   21.2209 H   0  0  0  0  0  0
  -27.8262  -19.7962   19.5935 H   0  0  0  0  0  0
  -27.7951  -22.0768   19.6445 H   0  0  0  0  0  0
  -30.7098  -25.9280   20.7307 H   0  0  0  0  0  0
  -32.1249  -24.8571   21.2311 H   0  0  0  0  0  0
  -31.1549  -22.2047   21.8145 H   0  0  0  0  0  0
  -31.7709  -22.2268   20.1455 H   0  0  0  0  0  0
  -27.1182  -24.6983   20.2371 H   0  0  0  0  0  0
  -27.9050  -24.9642   18.6919 H   0  0  0  0  0  0
  -26.9860  -17.6998   19.0275 H   0  0  0  0  0  0
  -27.9708  -16.3802   18.9156 H   0  0  0  0  0  0
  -28.8171  -15.4442   20.7236 H   0  0  0  0  0  0
  1 25  1  0  0  0
  1 30  2  0  0  0
  1 85  1  0  0  0
  2  3  1  0  0  0
  2 25  1  0  0  0
  2 86  1  0  0  0
  2 87  1  0  0  0
  3  4  1  0  0  0
  3 88  1  0  0  0
  3 89  1  0  0  0
  4  5  1  0  0  0
  4 90  1  0  0  0
  4 91  1  0  0  0
  5  6  1  0  0  0
  5 26  1  0  0  0
  5 92  1  0  0  0
  6 25  1  0  0  0
  6 93  1  0  0  0
  6 94  1  0  0  0
  7  8  2  0  0  0
  7 26  1  0  0  0
  7 29  1  0  0  0
  8  9  1  0  0  0
  8 22  1  0  0  0
  9 10  1  0  0  0
  9 27  2  0  0  0
 10 11  2  0  0  0
 10 15  1  0  0  0
 11 12  1  0  0  0
 11 95  1  0  0  0
 12 13  2  0  0  0
 12 96  1  0  0  0
 13 14  1  0  0  0
 13 31  1  0  0  0
 14 15  2  0  0  0
 14 97  1  0  0  0
 15 98  1  0  0  0
 16 17  2  0  0  0
 16 21  1  0  0  0
 16 31  1  0  0  0
 17 18  1  0  0  0
 17 99  1  0  0  0
 18 19  2  0  0  0
 18100  1  0  0  0
 19 20  1  0  0  0
 19 24  1  0  0  0
 20 21  2  0  0  0
 20101  1  0  0  0
 21 23  1  0  0  0
 22 28  1  0  0  0
 22 32  2  0  0  0
 26 27  1  0  0  0
 28102  1  0  0  0
 28103  1  0  0  0
 29104  1  0  0  0
 29105  1  0  0  0
 33 34  1  0  0  0
 33 66  1  0  0  0
 33 70  2  0  0  0
 34 36  1  0  0  0
 34 59  1  0  0  0
 34106  1  0  0  0
 35 44  2  0  0  0
 35 45  1  0  0  0
 35 68  1  0  0  0
 36 56  1  0  0  0
 36107  1  0  0  0
 37 39  1  0  0  0
 37 47  1  0  0  0
 37 66  1  0  0  0
 37108  1  0  0  0
 38 43  2  0  0  0
 38 46  1  0  0  0
 38 47  1  0  0  0
 39 64  1  0  0  0
 39 67  2  0  0  0
 40 52  1  0  0  0
 40 53  2  0  0  0
 40 58  1  0  0  0
 41109  1  0  0  0
 41110  1  0  0  0
 41111  1  0  0  0
 41 48  1  0  0  0
 42 43  1  0  0  0
 42 66  1  0  0  0
 42112  1  0  0  0
 42113  1  0  0  0
 43 44  1  0  0  0
 44114  1  0  0  0
 45 46  2  0  0  0
 45115  1  0  0  0
 46116  1  0  0  0
 47117  1  0  0  0
 47118  1  0  0  0
 48 56  1  0  0  0
 48 65  1  0  0  0
 48119  1  0  0  0
 49 50  1  0  0  0
 49 53  1  0  0  0
 49 64  1  0  0  0
 49120  1  0  0  0
 50 51  1  0  0  0
 50121  1  0  0  0
 50122  1  0  0  0
 51 52  1  0  0  0
 51123  1  0  0  0
 51124  1  0  0  0
 52125  1  0  0  0
 52126  1  0  0  0
 53 54  1  0  0  0
 54 55  2  0  0  0
 54127  1  0  0  0
 55 57  1  0  0  0
 55128  1  0  0  0
 56 69  2  0  0  0
 57 58  2  0  0  0
 57129  1  0  0  0
 58130  1  0  0  0
 59 60  1  0  0  0
 59 61  1  0  0  0
 59 62  1  0  0  0
 60131  1  0  0  0
 60132  1  0  0  0
 60133  1  0  0  0
 61134  1  0  0  0
 61135  1  0  0  0
 61136  1  0  0  0
 62137  1  0  0  0
 62138  1  0  0  0
 62139  1  0  0  0
 63 65  1  0  0  0
 63140  1  0  0  0
 63141  1  0  0  0
 63142  1  0  0  0
 64143  1  0  0  0
 65144  1  0  0  0
 68 82  1  0  0  0
 71 72  2  0  0  0
 71 74  1  0  0  0
 71145  1  0  0  0
 72 75  1  0  0  0
 72146  1  0  0  0
 73 74  2  0  0  0
 73 76  1  0  0  0
 73147  1  0  0  0
 74 83  1  0  0  0
 75 76  2  0  0  0
 75 85  1  0  0  0
 76 84  1  0  0  0
 77 78  2  0  0  0
 77 83  1  0  0  0
 77148  1  0  0  0
 78 79  1  0  0  0
 78 82  1  0  0  0
 79 80  2  0  0  0
 79 81  1  0  0  0
 80149  1  0  0  0
 80150  1  0  0  0
 81 83  1  0  0  0
 81151  1  0  0  0
 81152  1  0  0  0
 82153  1  0  0  0
 82154  1  0  0  0
 84155  1  0  0  0
 84156  1  0  0  0
 85157  1  0  0  0
M  ISO  4   1 100  68 101  82 101  85 100
M  END
> <chiral flag>
0

> <version>
0

> <s_m_source_file>
/data/baiqing/PycharmProjects/Reinvent-master-3.2/result/LINK_invent/BTK/process_docking_weight1_custom_product_contain_oxygen_bond_distance_aromatic_linkinvent_7_9_3/rearranged_h_0075.sdf

> <i_m_source_file_index>
38

> <r_mmod_Potential_Energy-OPLS-2005>
79.045295715332

> <r_mmod_Stretch_Energy-OPLS-2005>
81.2455673217773

> <r_mmod_Bend_Energy-OPLS-2005>
240.28337097168

> <r_mmod_Torsional_Energy-OPLS-2005>
214.131591796875

> <r_mmod_Improper_Torsional_Energy-OPLS-2005>
11.7855129241943

> <r_mmod_Van_der_Waal_Energy-OPLS-2005>
149.580749511719

> <r_mmod_Electrostatic_Energy-OPLS-2005>
-466.882934570312

> <r_mmod_Solvation_Energy-OPLS-2005>
-210.490386962891

> <b_mmod_Minimization_Converged-OPLS-2005>
0

> <r_mmod_RMS_Derivative-OPLS-2005>
1.39087188243866

$$$$
39
                    3D
 Structure written by MMmdl.
164173  0  0  1  0            999 V2000
  -29.0780  -16.2227   21.0124 C   0  0  0  0  0  0
  -30.1175  -13.7586   19.8180 C   0  0  0  0  0  0
  -29.5262  -12.9605   18.5662 C   0  0  0  0  0  0
  -28.1708  -12.3277   18.8842 C   0  0  0  0  0  0
  -27.4687  -13.2839   19.8541 C   0  0  2  0  0  0
  -28.2573  -13.6546   21.1114 C   0  0  0  0  0  0
  -25.1633  -13.8106   20.5641 C   0  0  0  0  0  0
  -24.1158  -13.0280   20.9301 C   0  0  0  0  0  0
  -24.5880  -11.6785   20.8733 C   0  0  0  0  0  0
  -23.8765  -10.4177   21.0455 C   0  0  0  0  0  0
  -24.3457   -9.4149   21.9203 C   0  0  0  0  0  0
  -23.6208   -8.2151   22.0751 C   0  0  0  0  0  0
  -22.4188   -8.0171   21.3539 C   0  0  0  0  0  0
  -21.9759   -9.0102   20.4635 C   0  0  0  0  0  0
  -22.7003  -10.2004   20.3062 C   0  0  0  0  0  0
  -21.6819   -6.0671   22.5292 C   0  0  0  0  0  0
  -21.3983   -6.5600   23.8217 C   0  0  0  0  0  0
  -21.3650   -5.6768   24.9188 C   0  0  0  0  0  0
  -21.6046   -4.3030   24.7247 C   0  0  0  0  0  0
  -21.8824   -3.8107   23.4373 C   0  0  0  0  0  0
  -21.9182   -4.6910   22.3423 C   0  0  0  0  0  0
  -22.7297  -13.5101   21.2059 C   0  0  0  0  0  0
  -22.1660   -4.2099   21.1003 F   0  0  0  0  0  0
  -21.5635   -3.4525   25.7769 F   0  0  0  0  0  0
  -29.1253  -14.7164   20.6573 N   0  0  0  0  0  0
  -26.1706  -12.9212   20.2733 N   0  0  0  0  0  0
  -25.8670  -11.6369   20.5369 N   0  0  0  0  0  0
  -22.0012  -12.8102   22.0643 N   0  0  0  0  0  0
  -25.3501  -15.1893   20.4339 N   0  0  0  0  0  0
  -30.3373  -16.3764   20.7728 O   0  0  0  0  0  0
  -21.6581   -6.8766   21.4234 O   0  0  0  0  0  0
  -22.3087  -14.5463   20.6937 O   0  0  0  0  0  0
  -24.7552  -31.9157   23.2859 C   0  0  0  0  0  0
  -26.0066  -32.5337   23.9175 C   0  0  1  0  0  0
  -26.0334  -27.3941   20.2354 C   0  0  0  0  0  0
  -25.6563  -33.9033   24.2896 N   0  0  0  0  0  0
  -23.8477  -30.2487   21.7747 C   0  0  2  0  0  0
  -25.1295  -29.6664   19.6646 C   0  0  0  0  0  0
  -23.9667  -28.8207   22.6778 C   0  0  0  0  0  0
  -18.2797  -27.5541   22.9094 C   0  0  0  0  0  0
  -24.1505  -36.7406   23.2534 C   0  0  0  0  0  0
  -26.2223  -30.8510   21.5556 C   0  0  0  0  0  0
  -26.1527  -29.6806   20.6067 C   0  0  0  0  0  0
  -26.7648  -28.4566   20.8409 C   0  0  0  0  0  0
  -25.9713  -27.5111   18.8805 C   0  0  0  0  0  0
  -25.1455  -28.6443   18.6507 C   0  0  0  0  0  0
  -23.9636  -30.4787   20.1787 C   0  0  0  0  0  0
  -25.4093  -36.3307   24.0330 C   0  0  1  0  0  0
  -21.9389  -26.6244   22.0293 C   0  0  2  0  0  0
  -21.1410  -25.5403   20.9748 C   0  0  0  0  0  0
  -19.3595  -25.5402   20.9001 C   0  0  0  0  0  0
  -18.1457  -26.2881   21.8975 C   0  0  0  0  0  0
  -19.6619  -27.9520   23.3895 C   0  0  0  0  0  0
  -19.4448  -29.2775   24.0744 C   0  0  0  0  0  0
  -18.2248  -30.0731   24.1571 C   0  0  0  0  0  0
  -25.9133  -34.9691   23.5251 C   0  0  0  0  0  0
  -17.0076  -29.5945   23.6555 C   0  0  0  0  0  0
  -17.0616  -28.3230   23.0650 C   0  0  0  0  0  0
  -26.5033  -31.6943   25.1500 C   0  0  0  0  0  0
  -25.3993  -31.3903   26.1908 C   0  0  0  0  0  0
  -27.1398  -30.3467   24.7256 C   0  0  0  0  0  0
  -27.6322  -32.4766   25.8482 C   0  0  0  0  0  0
  -27.5617  -37.1877   24.8424 C   0  0  0  0  0  0
  -23.5052  -27.4287   22.4673 N   0  0  0  0  0  0
  -26.4270  -37.3990   23.9459 N   0  0  0  0  0  0
  -24.9383  -31.0640   22.2548 N   0  0  0  0  0  0
  -24.2117  -28.9846   23.8377 O   0  0  0  0  0  0
  -24.5783  -27.2454   20.4045 O   0  0  0  0  0  0
  -26.5426  -34.9004   22.4655 O   0  0  0  0  0  0
  -23.6427  -32.1844   23.7729 O   0  0  0  0  0  0
  -25.5855  -22.2920   23.3322 C   0  0  0  0  0  0
  -24.6210  -23.5744   23.7493 C   0  0  0  0  0  0
  -23.0601  -22.6475   22.8890 C   0  0  0  0  0  0
  -25.5459  -20.8676   22.5975 C   0  0  0  0  0  0
  -24.0198  -21.3517   22.4636 C   0  0  0  0  0  0
  -23.1090  -24.0717   23.6310 C   0  0  0  0  0  0
  -21.8584  -27.3697   24.2411 C   0  0  0  0  0  0
  -20.2297  -27.7707   21.2763 C   0  0  0  0  0  0
  -20.3135  -25.7677   23.2517 C   0  0  0  0  0  0
  -21.5132  -28.7473   22.0958 C   0  0  1  0  0  0
  -23.1962  -20.3163   21.7216 C   0  0  0  0  0  0
  -20.9046  -30.1998   21.9427 C   0  0  0  0  0  0
  -27.0144  -19.2415   22.1729 C   0  0  0  0  0  0
  -22.8696  -28.1583   20.3546 C   0  0  0  0  0  0
  -21.8650  -25.6319   24.1181 N   0  0  0  0  0  0
  -27.8202  -17.4066   21.4914 N   0  0  0  0  0  0
  -22.0559  -27.9261   25.3273 O   0  0  0  0  0  0
  -30.9280  -14.3754   19.4334 H   0  0  0  0  0  0
  -30.6227  -13.0694   20.4937 H   0  0  0  0  0  0
  -30.2366  -12.2122   18.2104 H   0  0  0  0  0  0
  -29.3963  -13.6663   17.7451 H   0  0  0  0  0  0
  -28.3215  -11.3582   19.3601 H   0  0  0  0  0  0
  -27.5855  -12.1607   17.9794 H   0  0  0  0  0  0
  -27.3183  -14.1774   19.2452 H   0  0  0  0  0  0
  -28.7533  -12.8046   21.5803 H   0  0  0  0  0  0
  -27.6198  -14.0831   21.8857 H   0  0  0  0  0  0
  -25.2595   -9.5689   22.4768 H   0  0  0  0  0  0
  -23.9952   -7.4546   22.7461 H   0  0  0  0  0  0
  -21.0696   -8.8566   19.8946 H   0  0  0  0  0  0
  -22.3433  -10.9538   19.6183 H   0  0  0  0  0  0
  -21.1962   -7.6108   23.9704 H   0  0  0  0  0  0
  -21.1474   -6.0504   25.9089 H   0  0  0  0  0  0
  -22.0618   -2.7569   23.2889 H   0  0  0  0  0  0
  -22.3643  -11.9750   22.4981 H   0  0  0  0  0  0
  -21.0655  -13.1131   22.2907 H   0  0  0  0  0  0
  -24.5739  -15.8319   20.5515 H   0  0  0  0  0  0
  -26.1150  -15.5820   19.9017 H   0  0  0  0  0  0
  -26.8368  -32.5933   23.2161 H   0  0  0  0  0  0
  -25.0954  -34.0254   25.1201 H   0  0  0  0  0  0
  -23.0305  -30.8494   22.0595 H   0  0  0  0  0  0
  -23.3820  -35.9676   23.3110 H   0  0  0  0  0  0
  -24.3679  -36.9067   22.1969 H   0  0  0  0  0  0
  -23.7150  -37.6566   23.6537 H   0  0  0  0  0  0
  -26.4700  -31.7476   20.9843 H   0  0  0  0  0  0
  -27.0648  -30.6759   22.2121 H   0  0  0  0  0  0
  -27.4091  -28.2987   21.6945 H   0  0  0  0  0  0
  -25.7702  -26.6561   18.2511 H   0  0  0  0  0  0
  -24.4240  -28.6331   17.8447 H   0  0  0  0  0  0
  -24.2507  -31.5164   19.9995 H   0  0  0  0  0  0
  -23.0478  -30.5262   19.5969 H   0  0  0  0  0  0
  -25.1182  -36.2223   25.0807 H   0  0  0  0  0  0
  -22.5999  -25.7662   22.0859 H   0  0  0  0  0  0
  -21.4093  -24.5104   21.2304 H   0  0  0  0  0  0
  -21.5213  -25.5620   19.9557 H   0  0  0  0  0  0
  -19.0673  -24.4936   20.8176 H   0  0  0  0  0  0
  -19.1259  -25.8885   19.8908 H   0  0  0  0  0  0
  -17.3284  -26.5317   21.2160 H   0  0  0  0  0  0
  -17.7191  -25.4958   22.5118 H   0  0  0  0  0  0
  -20.3244  -29.7614   24.4771 H   0  0  0  0  0  0
  -18.2594  -31.0436   24.6329 H   0  0  0  0  0  0
  -16.0898  -30.1605   23.7185 H   0  0  0  0  0  0
  -16.1440  -27.9351   22.6436 H   0  0  0  0  0  0
  -24.6406  -30.7077   25.8090 H   0  0  0  0  0  0
  -24.8908  -32.2983   26.5156 H   0  0  0  0  0  0
  -25.8165  -30.9216   27.0829 H   0  0  0  0  0  0
  -26.4777  -29.7022   24.1608 H   0  0  0  0  0  0
  -27.4431  -29.7708   25.6010 H   0  0  0  0  0  0
  -28.0472  -30.4962   24.1396 H   0  0  0  0  0  0
  -27.2734  -33.4015   26.3009 H   0  0  0  0  0  0
  -28.4269  -32.7442   25.1506 H   0  0  0  0  0  0
  -28.0877  -31.8951   26.6514 H   0  0  0  0  0  0
  -28.2462  -38.0348   24.7790 H   0  0  0  0  0  0
  -28.1304  -36.2921   24.5857 H   0  0  0  0  0  0
  -27.2391  -37.1030   25.8820 H   0  0  0  0  0  0
  -24.0765  -26.7927   23.0075 H   0  0  0  0  0  0
  -26.0156  -38.3023   24.1661 H   0  0  0  0  0  0
  -26.5920  -22.4836   23.6700 H   0  0  0  0  0  0
  -25.2105  -24.3185   24.2678 H   0  0  0  0  0  0
  -22.0468  -22.4873   22.5447 H   0  0  0  0  0  0
  -19.3347  -28.3518   21.0265 H   0  0  0  0  0  0
  -20.4962  -27.6261   20.2272 H   0  0  0  0  0  0
  -20.0962  -24.7329   22.9759 H   0  0  0  0  0  0
  -19.5935  -25.7765   24.0811 H   0  0  0  0  0  0
  -22.7671  -20.7534   20.8191 H   0  0  0  0  0  0
  -22.3823  -19.9585   22.3536 H   0  0  0  0  0  0
  -23.7950  -19.4542   21.4251 H   0  0  0  0  0  0
  -19.8242  -30.2244   21.8154 H   0  0  0  0  0  0
  -21.2362  -30.6741   21.0206 H   0  0  0  0  0  0
  -21.1228  -30.8622   22.7823 H   0  0  0  0  0  0
  -26.9560  -18.8814   23.1987 H   0  0  0  0  0  0
  -27.9208  -19.8432   22.1565 H   0  0  0  0  0  0
  -22.6149  -28.6684   19.4323 H   0  0  0  0  0  0
  -22.4439  -27.3270   19.8201 H   0  0  0  0  0  0
  -27.0082  -16.8022   21.5275 H   0  0  0  0  0  0
  1 25  1  0  0  0
  1 30  2  0  0  0
  1 86  1  0  0  0
  2  3  1  0  0  0
  2 25  1  0  0  0
  2 88  1  0  0  0
  2 89  1  0  0  0
  3  4  1  0  0  0
  3 90  1  0  0  0
  3 91  1  0  0  0
  4  5  1  0  0  0
  4 92  1  0  0  0
  4 93  1  0  0  0
  5  6  1  0  0  0
  5 26  1  0  0  0
  5 94  1  0  0  0
  6 25  1  0  0  0
  6 95  1  0  0  0
  6 96  1  0  0  0
  7  8  2  0  0  0
  7 26  1  0  0  0
  7 29  1  0  0  0
  8  9  1  0  0  0
  8 22  1  0  0  0
  9 10  1  0  0  0
  9 27  2  0  0  0
 10 11  2  0  0  0
 10 15  1  0  0  0
 11 12  1  0  0  0
 11 97  1  0  0  0
 12 13  2  0  0  0
 12 98  1  0  0  0
 13 14  1  0  0  0
 13 31  1  0  0  0
 14 15  2  0  0  0
 14 99  1  0  0  0
 15100  1  0  0  0
 16 17  2  0  0  0
 16 21  1  0  0  0
 16 31  1  0  0  0
 17 18  1  0  0  0
 17101  1  0  0  0
 18 19  2  0  0  0
 18102  1  0  0  0
 19 20  1  0  0  0
 19 24  1  0  0  0
 20 21  2  0  0  0
 20103  1  0  0  0
 21 23  1  0  0  0
 22 28  1  0  0  0
 22 32  2  0  0  0
 26 27  1  0  0  0
 28104  1  0  0  0
 28105  1  0  0  0
 29106  1  0  0  0
 29107  1  0  0  0
 33 34  1  0  0  0
 33 66  1  0  0  0
 33 70  2  0  0  0
 34 36  1  0  0  0
 34 59  1  0  0  0
 34108  1  0  0  0
 35 44  2  0  0  0
 35 45  1  0  0  0
 35 68  1  0  0  0
 36 56  1  0  0  0
 36109  1  0  0  0
 37 39  1  0  0  0
 37 47  1  0  0  0
 37 66  1  0  0  0
 37110  1  0  0  0
 38 43  2  0  0  0
 38 46  1  0  0  0
 38 47  1  0  0  0
 39 64  1  0  0  0
 39 67  2  0  0  0
 40 52  1  0  0  0
 40 53  2  0  0  0
 40 58  1  0  0  0
 41111  1  0  0  0
 41112  1  0  0  0
 41113  1  0  0  0
 41 48  1  0  0  0
 42 43  1  0  0  0
 42 66  1  0  0  0
 42114  1  0  0  0
 42115  1  0  0  0
 43 44  1  0  0  0
 44116  1  0  0  0
 45 46  2  0  0  0
 45117  1  0  0  0
 46118  1  0  0  0
 47119  1  0  0  0
 47120  1  0  0  0
 48 56  1  0  0  0
 48 65  1  0  0  0
 48121  1  0  0  0
 49 50  1  0  0  0
 49 53  1  0  0  0
 49 64  1  0  0  0
 49122  1  0  0  0
 50 51  1  0  0  0
 50123  1  0  0  0
 50124  1  0  0  0
 51 52  1  0  0  0
 51125  1  0  0  0
 51126  1  0  0  0
 52127  1  0  0  0
 52128  1  0  0  0
 53 54  1  0  0  0
 54 55  2  0  0  0
 54129  1  0  0  0
 55 57  1  0  0  0
 55130  1  0  0  0
 56 69  2  0  0  0
 57 58  2  0  0  0
 57131  1  0  0  0
 58132  1  0  0  0
 59 60  1  0  0  0
 59 61  1  0  0  0
 59 62  1  0  0  0
 60133  1  0  0  0
 60134  1  0  0  0
 60135  1  0  0  0
 61136  1  0  0  0
 61137  1  0  0  0
 61138  1  0  0  0
 62139  1  0  0  0
 62140  1  0  0  0
 62141  1  0  0  0
 63 65  1  0  0  0
 63142  1  0  0  0
 63143  1  0  0  0
 63144  1  0  0  0
 64145  1  0  0  0
 65146  1  0  0  0
 68 84  1  0  0  0
 71 72  2  0  0  0
 71 74  1  0  0  0
 71147  1  0  0  0
 72 76  1  0  0  0
 72148  1  0  0  0
 73 75  1  0  0  0
 73 76  2  0  0  0
 73149  1  0  0  0
 74 75  2  0  0  0
 74 83  1  0  0  0
 75 81  1  0  0  0
 76 85  1  0  0  0
 77 80  1  0  0  0
 77 85  1  0  0  0
 77 87  2  0  0  0
 78 79  1  0  0  0
 78 80  1  0  0  0
 78150  1  0  0  0
 78151  1  0  0  0
 79 85  1  0  0  0
 79152  1  0  0  0
 79153  1  0  0  0
 80 82  1  0  0  0
 80 84  1  0  0  0
 81154  1  0  0  0
 81155  1  0  0  0
 81156  1  0  0  0
 82157  1  0  0  0
 82158  1  0  0  0
 82159  1  0  0  0
 83 86  1  0  0  0
 83160  1  0  0  0
 83161  1  0  0  0
 84162  1  0  0  0
 84163  1  0  0  0
 86164  1  0  0  0
M  ISO  4   1 100  68 101  84 101  86 100
M  END
> <chiral flag>
0

> <version>
0

> <s_m_source_file>
/data/baiqing/PycharmProjects/Reinvent-master-3.2/result/LINK_invent/BTK/process_docking_weight1_custom_product_contain_oxygen_bond_distance_aromatic_linkinvent_7_9_3/rearranged_h_0075.sdf

> <i_m_source_file_index>
39

> <r_mmod_Potential_Energy-OPLS-2005>
24579.220703125

> <r_mmod_Stretch_Energy-OPLS-2005>
11422.2353515625

> <r_mmod_Bend_Energy-OPLS-2005>
2439.34057617188

> <r_mmod_Torsional_Energy-OPLS-2005>
711.088073730469

> <r_mmod_Improper_Torsional_Energy-OPLS-2005>
67.5800476074219

> <r_mmod_Van_der_Waal_Energy-OPLS-2005>
3752.43774414062

> <r_mmod_Electrostatic_Energy-OPLS-2005>
-349.139190673828

> <r_mmod_Solvation_Energy-OPLS-2005>
-234.780212402344

> <b_mmod_Minimization_Converged-OPLS-2005>
0

> <r_mmod_RMS_Derivative-OPLS-2005>
7.29299640655518

$$$$
40
                    3D
 Structure written by MMmdl.
158166  0  0  1  0            999 V2000
  -30.6332  -14.7227   20.4737 C   0  0  0  0  0  0
  -30.4265  -12.4381   19.4931 C   0  0  0  0  0  0
  -29.5127  -12.5161   18.2488 C   0  0  0  0  0  0
  -28.0328  -12.3526   18.6468 C   0  0  0  0  0  0
  -27.6469  -13.2382   19.8622 C   0  0  2  0  0  0
  -28.6890  -13.1575   21.0025 C   0  0  0  0  0  0
  -25.2482  -13.8235   20.5721 C   0  0  0  0  0  0
  -24.1798  -13.0476   20.9217 C   0  0  0  0  0  0
  -24.6389  -11.6933   20.8753 C   0  0  0  0  0  0
  -23.9093  -10.4306   21.0383 C   0  0  0  0  0  0
  -24.3645   -9.4213   21.9140 C   0  0  0  0  0  0
  -23.6298   -8.2249   22.0738 C   0  0  0  0  0  0
  -22.4270   -8.0278   21.3565 C   0  0  0  0  0  0
  -21.9919   -9.0256   20.4668 C   0  0  0  0  0  0
  -22.7263  -10.2112   20.3051 C   0  0  0  0  0  0
  -21.6830   -6.0727   22.5280 C   0  0  0  0  0  0
  -21.4016   -6.5653   23.8206 C   0  0  0  0  0  0
  -21.3680   -5.6793   24.9182 C   0  0  0  0  0  0
  -21.6036   -4.3051   24.7224 C   0  0  0  0  0  0
  -21.8826   -3.8134   23.4353 C   0  0  0  0  0  0
  -21.9200   -4.6956   22.3418 C   0  0  0  0  0  0
  -22.7796  -13.5191   21.1870 C   0  0  0  0  0  0
  -22.1641   -4.2155   21.0985 F   0  0  0  0  0  0
  -21.5645   -3.4528   25.7730 F   0  0  0  0  0  0
  -30.0014  -13.4975   20.4371 N   0  0  0  0  0  0
  -26.2960  -12.9448   20.3341 N   0  0  0  0  0  0
  -25.9345  -11.6583   20.5790 N   0  0  0  0  0  0
  -22.0444  -12.8208   22.0460 N   0  0  0  0  0  0
  -25.4201  -15.1961   20.4157 N   0  0  0  0  0  0
  -31.7998  -14.8151   20.0783 O   0  0  0  0  0  0
  -21.6667   -6.8855   21.4232 O   0  0  0  0  0  0
  -22.3472  -14.5511   20.6730 O   0  0  0  0  0  0
  -24.6403  -31.8508   23.1966 C   0  0  0  0  0  0
  -25.9201  -32.4730   23.8321 C   0  0  1  0  0  0
  -27.1916  -27.2255   20.1168 C   0  0  0  0  0  0
  -25.5952  -33.8529   24.2244 N   0  0  0  0  0  0
  -23.4346  -30.4787   21.5450 C   0  0  2  0  0  0
  -24.8713  -28.9192   20.1068 C   0  0  0  0  0  0
  -22.7507  -29.4612   22.4923 C   0  0  0  0  0  0
  -18.0311  -28.1383   22.8485 C   0  0  0  0  0  0
  -24.1479  -36.7272   23.2640 C   0  0  0  0  0  0
  -25.9900  -30.7431   21.3859 C   0  0  0  0  0  0
  -26.0498  -29.3664   20.7189 C   0  0  0  0  0  0
  -27.2169  -28.5357   20.7080 C   0  0  0  0  0  0
  -25.9996  -26.8534   19.4646 C   0  0  0  0  0  0
  -24.8521  -27.6665   19.4704 C   0  0  0  0  0  0
  -23.6507  -29.8189   20.1587 C   0  0  0  0  0  0
  -25.4112  -36.3057   24.0339 C   0  0  1  0  0  0
  -20.5913  -28.3713   23.1249 C   0  0  2  0  0  0
  -20.6785  -26.9424   22.5408 C   0  0  0  0  0  0
  -19.5762  -26.6371   21.5216 C   0  0  0  0  0  0
  -18.1942  -26.7928   22.1620 C   0  0  0  0  0  0
  -19.1555  -28.8868   23.2863 C   0  0  0  0  0  0
  -18.9482  -30.1466   23.8885 C   0  0  0  0  0  0
  -17.6473  -30.6589   24.0558 C   0  0  0  0  0  0
  -25.9067  -34.9433   23.5107 C   0  0  0  0  0  0
  -16.5374  -29.9090   23.6325 C   0  0  0  0  0  0
  -16.7283  -28.6508   23.0356 C   0  0  0  0  0  0
  -26.4529  -31.6586   25.0766 C   0  0  0  0  0  0
  -25.3720  -31.3747   26.1476 C   0  0  0  0  0  0
  -27.0389  -30.2995   24.6308 C   0  0  0  0  0  0
  -27.6059  -32.4362   25.7500 C   0  0  0  0  0  0
  -27.5595  -37.1784   24.8464 C   0  0  0  0  0  0
  -21.4205  -29.3055   22.3628 N   0  0  0  0  0  0
  -26.4285  -37.3789   23.9420 N   0  0  0  0  0  0
  -24.7090  -31.0436   22.0959 N   0  0  0  0  0  0
  -23.4176  -28.8132   23.3052 O   0  0  0  0  0  0
  -28.2640  -26.3010   20.1210 O   0  0  0  0  0  0
  -26.5657  -34.8909   22.4690 O   0  0  0  0  0  0
  -23.5544  -32.1381   23.7233 O   0  0  0  0  0  0
  -29.5746  -18.4857   20.8047 C   0  0  0  0  0  0
  -29.9470  -19.7130   18.7268 C   0  0  0  0  0  0
  -30.3833  -17.3016   18.8326 C   0  0  0  0  0  0
  -29.5619  -19.7562   20.0823 C   0  0  0  0  0  0
  -29.9706  -17.2188   20.1841 C   0  0  0  0  0  0
  -30.3640  -18.5162   18.1203 C   0  0  0  0  0  0
  -29.3260  -21.1732   20.6169 C   0  0  0  0  0  0
  -28.0966  -23.5485   18.1937 C   0  0  0  0  0  0
  -28.4267  -24.6268   17.1890 C   0  0  0  0  0  0
  -27.9971  -24.8302   20.4127 C   0  0  0  0  0  0
  -28.7034  -23.6067   19.6088 C   0  0  1  0  0  0
  -30.0353  -21.5795   21.6552 N   0  0  0  0  0  0
  -29.9076  -15.8629   20.8010 N   0  0  0  0  0  0
  -28.5239  -22.1319   20.0307 N   0  3  0  0  0  0
  -27.3551  -22.6224   17.8366 O   0  0  0  0  0  0
  -30.7704  -18.5334   16.8297 F   0  0  0  0  0  0
  -31.4760  -12.5416   19.1980 H   0  0  0  0  0  0
  -30.3466  -11.4579   19.9553 H   0  0  0  0  0  0
  -29.7891  -11.7488   17.5216 H   0  0  0  0  0  0
  -29.6552  -13.4746   17.7446 H   0  0  0  0  0  0
  -27.8733  -11.3000   18.8882 H   0  0  0  0  0  0
  -27.3823  -12.5745   17.7944 H   0  0  0  0  0  0
  -27.6462  -14.2696   19.5018 H   0  0  0  0  0  0
  -28.7083  -12.1594   21.4379 H   0  0  0  0  0  0
  -28.4256  -13.8313   21.8183 H   0  0  0  0  0  0
  -25.2771   -9.5681   22.4734 H   0  0  0  0  0  0
  -24.0003   -7.4662   22.7434 H   0  0  0  0  0  0
  -21.0853   -8.8809   19.8973 H   0  0  0  0  0  0
  -22.3717  -10.9674   19.6195 H   0  0  0  0  0  0
  -21.1996   -7.6159   23.9718 H   0  0  0  0  0  0
  -21.1486   -6.0520   25.9081 H   0  0  0  0  0  0
  -22.0593   -2.7588   23.2860 H   0  0  0  0  0  0
  -22.4118  -11.9881   22.4854 H   0  0  0  0  0  0
  -21.1064  -13.1268   22.2657 H   0  0  0  0  0  0
  -24.6639  -15.8577   20.5406 H   0  0  0  0  0  0
  -26.2764  -15.6380   20.1131 H   0  0  0  0  0  0
  -26.7262  -32.5322   23.1032 H   0  0  0  0  0  0
  -25.0062  -33.9626   25.0365 H   0  0  0  0  0  0
  -22.7366  -31.3087   21.4015 H   0  0  0  0  0  0
  -23.3765  -35.9585   23.3274 H   0  0  0  0  0  0
  -24.3590  -36.8927   22.2060 H   0  0  0  0  0  0
  -23.7181  -37.6443   23.6690 H   0  0  0  0  0  0
  -26.1578  -31.4997   20.6151 H   0  0  0  0  0  0
  -26.8544  -30.7715   22.0337 H   0  0  0  0  0  0
  -28.1179  -28.8824   21.1926 H   0  0  0  0  0  0
  -25.9415  -25.9080   18.9422 H   0  0  0  0  0  0
  -23.9555  -27.3160   18.9739 H   0  0  0  0  0  0
  -23.7881  -30.5997   19.4130 H   0  0  0  0  0  0
  -22.7626  -29.2700   19.8458 H   0  0  0  0  0  0
  -25.1284  -36.1911   25.0841 H   0  0  0  0  0  0
  -21.0026  -28.3311   24.1354 H   0  0  0  0  0  0
  -20.5645  -26.2347   23.3639 H   0  0  0  0  0  0
  -21.6657  -26.7403   22.1218 H   0  0  0  0  0  0
  -19.6904  -25.6267   21.1263 H   0  0  0  0  0  0
  -19.6682  -27.3164   20.6726 H   0  0  0  0  0  0
  -17.4201  -26.6698   21.4012 H   0  0  0  0  0  0
  -18.0313  -26.0078   22.9005 H   0  0  0  0  0  0
  -19.7958  -30.7288   24.2231 H   0  0  0  0  0  0
  -17.5034  -31.6255   24.5174 H   0  0  0  0  0  0
  -15.5362  -30.2980   23.7666 H   0  0  0  0  0  0
  -15.8691  -28.0808   22.7083 H   0  0  0  0  0  0
  -24.5872  -30.7132   25.7801 H   0  0  0  0  0  0
  -24.8932  -32.2906   26.4942 H   0  0  0  0  0  0
  -25.8021  -30.8866   27.0223 H   0  0  0  0  0  0
  -26.2996  -29.6705   24.1331 H   0  0  0  0  0  0
  -27.4050  -29.7325   25.4874 H   0  0  0  0  0  0
  -27.8883  -30.4274   23.9596 H   0  0  0  0  0  0
  -27.2648  -33.3655   26.2072 H   0  0  0  0  0  0
  -28.3820  -32.6946   25.0282 H   0  0  0  0  0  0
  -28.0782  -31.8506   26.5387 H   0  0  0  0  0  0
  -28.2596  -38.0111   24.7580 H   0  0  0  0  0  0
  -28.1109  -36.2646   24.6185 H   0  0  0  0  0  0
  -27.2335  -37.1306   25.8877 H   0  0  0  0  0  0
  -20.9446  -29.8764   21.6788 H   0  0  0  0  0  0
  -26.0160  -38.2862   24.1456 H   0  0  0  0  0  0
  -29.2870  -18.4958   21.8471 H   0  0  0  0  0  0
  -29.9916  -20.6205   18.1404 H   0  0  0  0  0  0
  -30.7069  -16.4192   18.2971 H   0  0  0  0  0  0
  -29.2846  -25.2145   17.5042 H   0  0  0  0  0  0
  -27.5649  -25.2814   17.0579 H   0  0  0  0  0  0
  -28.6539  -24.1422   16.2406 H   0  0  0  0  0  0
  -28.2985  -24.7073   21.4516 H   0  0  0  0  0  0
  -26.9275  -24.6244   20.4310 H   0  0  0  0  0  0
  -29.7681  -23.8178   19.5351 H   0  0  0  0  0  0
  -30.6828  -20.9455   22.0887 H   0  0  0  0  0  0
  -29.8701  -22.4867   22.0521 H   0  0  0  0  0  0
  -29.0988  -15.6881   21.3767 H   0  0  0  0  0  0
  -27.8552  -21.7385   19.3680 H   0  0  0  0  0  0
  1 25  1  0  0  0
  1 30  2  0  0  0
  1 83  1  0  0  0
  2  3  1  0  0  0
  2 25  1  0  0  0
  2 87  1  0  0  0
  2 88  1  0  0  0
  3  4  1  0  0  0
  3 89  1  0  0  0
  3 90  1  0  0  0
  4  5  1  0  0  0
  4 91  1  0  0  0
  4 92  1  0  0  0
  5  6  1  0  0  0
  5 26  1  0  0  0
  5 93  1  0  0  0
  6 25  1  0  0  0
  6 94  1  0  0  0
  6 95  1  0  0  0
  7  8  2  0  0  0
  7 26  1  0  0  0
  7 29  1  0  0  0
  8  9  1  0  0  0
  8 22  1  0  0  0
  9 10  1  0  0  0
  9 27  2  0  0  0
 10 11  2  0  0  0
 10 15  1  0  0  0
 11 12  1  0  0  0
 11 96  1  0  0  0
 12 13  2  0  0  0
 12 97  1  0  0  0
 13 14  1  0  0  0
 13 31  1  0  0  0
 14 15  2  0  0  0
 14 98  1  0  0  0
 15 99  1  0  0  0
 16 17  2  0  0  0
 16 21  1  0  0  0
 16 31  1  0  0  0
 17 18  1  0  0  0
 17100  1  0  0  0
 18 19  2  0  0  0
 18101  1  0  0  0
 19 20  1  0  0  0
 19 24  1  0  0  0
 20 21  2  0  0  0
 20102  1  0  0  0
 21 23  1  0  0  0
 22 28  1  0  0  0
 22 32  2  0  0  0
 26 27  1  0  0  0
 28103  1  0  0  0
 28104  1  0  0  0
 29105  1  0  0  0
 29106  1  0  0  0
 33 34  1  0  0  0
 33 66  1  0  0  0
 33 70  2  0  0  0
 34 36  1  0  0  0
 34 59  1  0  0  0
 34107  1  0  0  0
 35 44  2  0  0  0
 35 45  1  0  0  0
 35 68  1  0  0  0
 36 56  1  0  0  0
 36108  1  0  0  0
 37 39  1  0  0  0
 37 47  1  0  0  0
 37 66  1  0  0  0
 37109  1  0  0  0
 38 43  2  0  0  0
 38 46  1  0  0  0
 38 47  1  0  0  0
 39 64  1  0  0  0
 39 67  2  0  0  0
 40 52  1  0  0  0
 40 53  2  0  0  0
 40 58  1  0  0  0
 41110  1  0  0  0
 41111  1  0  0  0
 41112  1  0  0  0
 41 48  1  0  0  0
 42 43  1  0  0  0
 42 66  1  0  0  0
 42113  1  0  0  0
 42114  1  0  0  0
 43 44  1  0  0  0
 44115  1  0  0  0
 45 46  2  0  0  0
 45116  1  0  0  0
 46117  1  0  0  0
 47118  1  0  0  0
 47119  1  0  0  0
 48 56  1  0  0  0
 48 65  1  0  0  0
 48120  1  0  0  0
 49 50  1  0  0  0
 49 53  1  0  0  0
 49 64  1  0  0  0
 49121  1  0  0  0
 50 51  1  0  0  0
 50122  1  0  0  0
 50123  1  0  0  0
 51 52  1  0  0  0
 51124  1  0  0  0
 51125  1  0  0  0
 52126  1  0  0  0
 52127  1  0  0  0
 53 54  1  0  0  0
 54 55  2  0  0  0
 54128  1  0  0  0
 55 57  1  0  0  0
 55129  1  0  0  0
 56 69  2  0  0  0
 57 58  2  0  0  0
 57130  1  0  0  0
 58131  1  0  0  0
 59 60  1  0  0  0
 59 61  1  0  0  0
 59 62  1  0  0  0
 60132  1  0  0  0
 60133  1  0  0  0
 60134  1  0  0  0
 61135  1  0  0  0
 61136  1  0  0  0
 61137  1  0  0  0
 62138  1  0  0  0
 62139  1  0  0  0
 62140  1  0  0  0
 63 65  1  0  0  0
 63141  1  0  0  0
 63142  1  0  0  0
 63143  1  0  0  0
 64144  1  0  0  0
 65145  1  0  0  0
 68 80  1  0  0  0
 71 74  2  0  0  0
 71 75  1  0  0  0
 71146  1  0  0  0
 72 74  1  0  0  0
 72 76  2  0  0  0
 72147  1  0  0  0
 73 75  2  0  0  0
 73 76  1  0  0  0
 73148  1  0  0  0
 74 77  1  0  0  0
 75 83  1  0  0  0
 76 86  1  0  0  0
 77 82  1  0  0  0
 77 84  2  0  0  0
 78 79  1  0  0  0
 78 81  1  0  0  0
 78 85  2  0  0  0
 79149  1  0  0  0
 79150  1  0  0  0
 79151  1  0  0  0
 80152  1  0  0  0
 80153  1  0  0  0
 80 81  1  0  0  0
 81 84  1  0  0  0
 81154  1  0  0  0
 82155  1  0  0  0
 82156  1  0  0  0
 83157  1  0  0  0
 84158  1  0  0  0
M  CHG  1  84   1
M  ISO  4   1 100  68 101  80 101  83 100
M  END
> <chiral flag>
0

> <version>
0

> <s_m_source_file>
/data/baiqing/PycharmProjects/Reinvent-master-3.2/result/LINK_invent/BTK/process_docking_weight1_custom_product_contain_oxygen_bond_distance_aromatic_linkinvent_7_9_3/rearranged_h_0075.sdf

> <i_m_source_file_index>
40

> <r_mmod_Potential_Energy-OPLS-2005>
-160.233840942383

> <r_mmod_Stretch_Energy-OPLS-2005>
130.506103515625

> <r_mmod_Bend_Energy-OPLS-2005>
192.099136352539

> <r_mmod_Torsional_Energy-OPLS-2005>
283.042022705078

> <r_mmod_Improper_Torsional_Energy-OPLS-2005>
7.4493408203125

> <r_mmod_Van_der_Waal_Energy-OPLS-2005>
141.248748779297

> <r_mmod_Electrostatic_Energy-OPLS-2005>
-558.67919921875

> <r_mmod_Solvation_Energy-OPLS-2005>
-446.224365234375

> <b_mmod_Minimization_Converged-OPLS-2005>
0

> <r_mmod_RMS_Derivative-OPLS-2005>
9.39972972869873

$$$$
41
                    3D
 Structure written by MMmdl.
162171  0  0  1  0            999 V2000
  -30.5877  -14.7983   20.4530 C   0  0  0  0  0  0
  -30.4402  -12.4934   19.4598 C   0  0  0  0  0  0
  -29.5104  -12.5049   18.2273 C   0  0  0  0  0  0
  -28.0380  -12.3162   18.6493 C   0  0  0  0  0  0
  -27.6359  -13.2305   19.8379 C   0  0  2  0  0  0
  -28.6874  -13.1933   20.9671 C   0  0  0  0  0  0
  -25.2502  -13.8174   20.5703 C   0  0  0  0  0  0
  -24.1791  -13.0427   20.9221 C   0  0  0  0  0  0
  -24.6387  -11.6908   20.8752 C   0  0  0  0  0  0
  -23.9066  -10.4287   21.0416 C   0  0  0  0  0  0
  -24.3610   -9.4199   21.9188 C   0  0  0  0  0  0
  -23.6284   -8.2237   22.0758 C   0  0  0  0  0  0
  -22.4271   -8.0275   21.3551 C   0  0  0  0  0  0
  -21.9907   -9.0247   20.4653 C   0  0  0  0  0  0
  -22.7240  -10.2128   20.3063 C   0  0  0  0  0  0
  -21.6851   -6.0727   22.5279 C   0  0  0  0  0  0
  -21.4010   -6.5634   23.8209 C   0  0  0  0  0  0
  -21.3664   -5.6792   24.9177 C   0  0  0  0  0  0
  -21.6046   -4.3055   24.7229 C   0  0  0  0  0  0
  -21.8819   -3.8141   23.4352 C   0  0  0  0  0  0
  -21.9189   -4.6955   22.3407 C   0  0  0  0  0  0
  -22.7813  -13.5209   21.1880 C   0  0  0  0  0  0
  -22.1661   -4.2135   21.0985 F   0  0  0  0  0  0
  -21.5632   -3.4546   25.7748 F   0  0  0  0  0  0
  -29.9730  -13.5666   20.3663 N   0  0  0  0  0  0
  -26.2928  -12.9386   20.3250 N   0  0  0  0  0  0
  -25.9318  -11.6535   20.5744 N   0  0  0  0  0  0
  -22.0464  -12.8201   22.0435 N   0  0  0  0  0  0
  -25.4151  -15.1905   20.4128 N   0  0  0  0  0  0
  -31.8008  -14.8848   20.2414 O   0  0  0  0  0  0
  -21.6642   -6.8867   21.4240 O   0  0  0  0  0  0
  -22.3508  -14.5517   20.6726 O   0  0  0  0  0  0
  -24.6346  -31.8532   23.1961 C   0  0  0  0  0  0
  -25.9162  -32.4734   23.8318 C   0  0  1  0  0  0
  -27.2176  -27.2389   20.1472 C   0  0  0  0  0  0
  -25.5942  -33.8538   24.2235 N   0  0  0  0  0  0
  -23.4324  -30.4766   21.5389 C   0  0  2  0  0  0
  -24.8837  -28.9199   20.1092 C   0  0  0  0  0  0
  -22.7517  -29.4602   22.4881 C   0  0  0  0  0  0
  -18.0301  -28.1391   22.8475 C   0  0  0  0  0  0
  -24.1494  -36.7276   23.2640 C   0  0  0  0  0  0
  -25.9806  -30.7602   21.3813 C   0  0  0  0  0  0
  -26.0556  -29.3818   20.7236 C   0  0  0  0  0  0
  -27.2294  -28.5564   20.7284 C   0  0  0  0  0  0
  -26.0310  -26.8593   19.4852 C   0  0  0  0  0  0
  -24.8783  -27.6690   19.4752 C   0  0  0  0  0  0
  -23.6534  -29.8087   20.1559 C   0  0  0  0  0  0
  -25.4120  -36.3056   24.0319 C   0  0  1  0  0  0
  -20.5910  -28.3713   23.1238 C   0  0  2  0  0  0
  -20.6786  -26.9418   22.5401 C   0  0  0  0  0  0
  -19.5757  -26.6381   21.5207 C   0  0  0  0  0  0
  -18.1939  -26.7930   22.1623 C   0  0  0  0  0  0
  -19.1556  -28.8866   23.2857 C   0  0  0  0  0  0
  -18.9477  -30.1467   23.8878 C   0  0  0  0  0  0
  -17.6475  -30.6588   24.0560 C   0  0  0  0  0  0
  -25.9061  -34.9426   23.5078 C   0  0  0  0  0  0
  -16.5366  -29.9084   23.6333 C   0  0  0  0  0  0
  -16.7289  -28.6506   23.0348 C   0  0  0  0  0  0
  -26.4510  -31.6568   25.0725 C   0  0  0  0  0  0
  -25.3724  -31.3739   26.1441 C   0  0  0  0  0  0
  -27.0372  -30.2972   24.6257 C   0  0  0  0  0  0
  -27.6053  -32.4323   25.7505 C   0  0  0  0  0  0
  -27.5575  -37.1797   24.8467 C   0  0  0  0  0  0
  -21.4225  -29.3059   22.3619 N   0  0  0  0  0  0
  -26.4294  -37.3756   23.9402 N   0  0  0  0  0  0
  -24.7013  -31.0494   22.0937 N   0  0  0  0  0  0
  -23.4202  -28.8131   23.2985 O   0  0  0  0  0  0
  -28.2760  -26.2938   20.2015 O   0  0  0  0  0  0
  -26.5640  -34.8903   22.4651 O   0  0  0  0  0  0
  -23.5494  -32.1354   23.7243 O   0  0  0  0  0  0
  -30.2331  -19.9428   22.1590 C   0  0  0  0  0  0
  -29.4795  -18.5776   20.2941 C   0  0  0  0  0  0
  -30.6587  -17.5189   22.1446 C   0  0  0  0  0  0
  -29.5772  -19.9079   20.9084 C   0  0  0  0  0  0
  -30.7695  -18.7835   22.7615 C   0  0  0  0  0  0
  -30.0026  -17.3465   20.9059 C   0  0  0  0  0  0
  -28.6097  -22.3469   21.0575 C   0  0  0  0  0  0
  -28.6382  -23.5367   20.3765 C   0  0  0  0  0  0
  -29.5843  -21.6875   19.0983 C   0  0  0  0  0  0
  -29.3113  -23.2520   19.0448 C   0  0  0  0  0  0
  -28.3820  -23.6051   17.8743 C   0  0  0  0  0  0
  -30.6305  -24.0353   18.9346 C   0  0  0  0  0  0
  -27.9432  -24.9321   20.7833 C   0  0  0  0  0  0
  -29.0888  -21.1871   20.3849 N   0  0  0  0  0  0
  -31.4031  -18.8818   24.0012 N   0  0  0  0  0  0
  -29.7791  -15.9400   20.4417 N   0  0  0  0  0  0
  -31.4763  -12.6410   19.1501 H   0  0  0  0  0  0
  -30.4091  -11.5269   19.9631 H   0  0  0  0  0  0
  -29.8020  -11.7190   17.5275 H   0  0  0  0  0  0
  -29.6209  -13.4487   17.6912 H   0  0  0  0  0  0
  -27.9120  -11.2713   18.9318 H   0  0  0  0  0  0
  -27.3764  -12.4851   17.7997 H   0  0  0  0  0  0
  -27.6167  -14.2443   19.4385 H   0  0  0  0  0  0
  -28.7437  -12.2020   21.4194 H   0  0  0  0  0  0
  -28.4185  -13.8846   21.7681 H   0  0  0  0  0  0
  -25.2754   -9.5681   22.4770 H   0  0  0  0  0  0
  -23.9994   -7.4630   22.7489 H   0  0  0  0  0  0
  -21.0829   -8.8767   19.8960 H   0  0  0  0  0  0
  -22.3688  -10.9667   19.6175 H   0  0  0  0  0  0
  -21.2000   -7.6146   23.9705 H   0  0  0  0  0  0
  -21.1491   -6.0531   25.9076 H   0  0  0  0  0  0
  -22.0592   -2.7606   23.2864 H   0  0  0  0  0  0
  -22.4075  -11.9860   22.4813 H   0  0  0  0  0  0
  -21.1087  -13.1235   22.2650 H   0  0  0  0  0  0
  -24.6423  -15.8380   20.5303 H   0  0  0  0  0  0
  -26.2565  -15.6426   20.0799 H   0  0  0  0  0  0
  -26.7228  -32.5371   23.1054 H   0  0  0  0  0  0
  -25.0079  -33.9667   25.0376 H   0  0  0  0  0  0
  -22.7316  -31.3004   21.3903 H   0  0  0  0  0  0
  -23.3749  -35.9620   23.3305 H   0  0  0  0  0  0
  -24.3579  -36.8904   22.2057 H   0  0  0  0  0  0
  -23.7261  -37.6477   23.6670 H   0  0  0  0  0  0
  -26.1285  -31.5208   20.6137 H   0  0  0  0  0  0
  -26.8548  -30.8053   22.0191 H   0  0  0  0  0  0
  -28.1229  -28.9028   21.2288 H   0  0  0  0  0  0
  -25.9777  -25.9004   18.9886 H   0  0  0  0  0  0
  -23.9857  -27.3146   18.9794 H   0  0  0  0  0  0
  -23.7750  -30.5840   19.3986 H   0  0  0  0  0  0
  -22.7724  -29.2424   19.8492 H   0  0  0  0  0  0
  -25.1306  -36.1890   25.0813 H   0  0  0  0  0  0
  -21.0016  -28.3307   24.1354 H   0  0  0  0  0  0
  -20.5670  -26.2330   23.3622 H   0  0  0  0  0  0
  -21.6651  -26.7426   22.1199 H   0  0  0  0  0  0
  -19.6920  -25.6289   21.1244 H   0  0  0  0  0  0
  -19.6689  -27.3183   20.6727 H   0  0  0  0  0  0
  -17.4205  -26.6671   21.4029 H   0  0  0  0  0  0
  -18.0347  -26.0076   22.9025 H   0  0  0  0  0  0
  -19.7955  -30.7289   24.2227 H   0  0  0  0  0  0
  -17.5032  -31.6260   24.5172 H   0  0  0  0  0  0
  -15.5364  -30.2981   23.7673 H   0  0  0  0  0  0
  -15.8690  -28.0825   22.7065 H   0  0  0  0  0  0
  -24.5895  -30.7088   25.7764 H   0  0  0  0  0  0
  -24.8927  -32.2927   26.4831 H   0  0  0  0  0  0
  -25.8038  -30.8933   27.0232 H   0  0  0  0  0  0
  -26.2980  -29.6698   24.1260 H   0  0  0  0  0  0
  -27.3999  -29.7252   25.4806 H   0  0  0  0  0  0
  -27.8877  -30.4211   23.9550 H   0  0  0  0  0  0
  -27.2636  -33.3621   26.2056 H   0  0  0  0  0  0
  -28.3875  -32.6884   25.0351 H   0  0  0  0  0  0
  -28.0702  -31.8471   26.5445 H   0  0  0  0  0  0
  -28.2595  -38.0089   24.7487 H   0  0  0  0  0  0
  -28.1064  -36.2614   24.6322 H   0  0  0  0  0  0
  -27.2287  -37.1482   25.8870 H   0  0  0  0  0  0
  -20.9418  -29.8776   21.6812 H   0  0  0  0  0  0
  -26.0161  -38.2829   24.1388 H   0  0  0  0  0  0
  -30.3374  -20.8914   22.6664 H   0  0  0  0  0  0
  -28.9626  -18.4964   19.3494 H   0  0  0  0  0  0
  -31.0438  -16.6525   22.6618 H   0  0  0  0  0  0
  -28.1417  -22.1910   22.0210 H   0  0  0  0  0  0
  -30.6488  -21.4651   19.0071 H   0  0  0  0  0  0
  -29.0742  -21.1659   18.2869 H   0  0  0  0  0  0
  -28.1190  -24.6645   17.8800 H   0  0  0  0  0  0
  -27.4547  -23.0319   17.9198 H   0  0  0  0  0  0
  -28.8608  -23.3951   16.9176 H   0  0  0  0  0  0
  -31.2962  -23.8105   19.7710 H   0  0  0  0  0  0
  -30.4506  -25.1103   18.9339 H   0  0  0  0  0  0
  -31.1654  -23.7916   18.0161 H   0  0  0  0  0  0
  -28.0373  -25.0236   21.8656 H   0  0  0  0  0  0
  -26.8825  -24.7283   20.6348 H   0  0  0  0  0  0
  -31.6235  -19.7826   24.4185 H   0  0  0  0  0  0
  -31.9015  -18.0925   24.4033 H   0  0  0  0  0  0
  -28.8187  -15.7325   20.2168 H   0  0  0  0  0  0
  1 25  1  0  0  0
  1 30  2  0  0  0
  1 86  1  0  0  0
  2  3  1  0  0  0
  2 25  1  0  0  0
  2 87  1  0  0  0
  2 88  1  0  0  0
  3  4  1  0  0  0
  3 89  1  0  0  0
  3 90  1  0  0  0
  4  5  1  0  0  0
  4 91  1  0  0  0
  4 92  1  0  0  0
  5  6  1  0  0  0
  5 26  1  0  0  0
  5 93  1  0  0  0
  6 25  1  0  0  0
  6 94  1  0  0  0
  6 95  1  0  0  0
  7  8  2  0  0  0
  7 26  1  0  0  0
  7 29  1  0  0  0
  8  9  1  0  0  0
  8 22  1  0  0  0
  9 10  1  0  0  0
  9 27  2  0  0  0
 10 11  2  0  0  0
 10 15  1  0  0  0
 11 12  1  0  0  0
 11 96  1  0  0  0
 12 13  2  0  0  0
 12 97  1  0  0  0
 13 14  1  0  0  0
 13 31  1  0  0  0
 14 15  2  0  0  0
 14 98  1  0  0  0
 15 99  1  0  0  0
 16 17  2  0  0  0
 16 21  1  0  0  0
 16 31  1  0  0  0
 17 18  1  0  0  0
 17100  1  0  0  0
 18 19  2  0  0  0
 18101  1  0  0  0
 19 20  1  0  0  0
 19 24  1  0  0  0
 20 21  2  0  0  0
 20102  1  0  0  0
 21 23  1  0  0  0
 22 28  1  0  0  0
 22 32  2  0  0  0
 26 27  1  0  0  0
 28103  1  0  0  0
 28104  1  0  0  0
 29105  1  0  0  0
 29106  1  0  0  0
 33 34  1  0  0  0
 33 66  1  0  0  0
 33 70  2  0  0  0
 34 36  1  0  0  0
 34 59  1  0  0  0
 34107  1  0  0  0
 35 44  2  0  0  0
 35 45  1  0  0  0
 35 68  1  0  0  0
 36 56  1  0  0  0
 36108  1  0  0  0
 37 39  1  0  0  0
 37 47  1  0  0  0
 37 66  1  0  0  0
 37109  1  0  0  0
 38 43  2  0  0  0
 38 46  1  0  0  0
 38 47  1  0  0  0
 39 64  1  0  0  0
 39 67  2  0  0  0
 40 52  1  0  0  0
 40 53  2  0  0  0
 40 58  1  0  0  0
 41110  1  0  0  0
 41111  1  0  0  0
 41112  1  0  0  0
 41 48  1  0  0  0
 42 43  1  0  0  0
 42 66  1  0  0  0
 42113  1  0  0  0
 42114  1  0  0  0
 43 44  1  0  0  0
 44115  1  0  0  0
 45 46  2  0  0  0
 45116  1  0  0  0
 46117  1  0  0  0
 47118  1  0  0  0
 47119  1  0  0  0
 48 56  1  0  0  0
 48 65  1  0  0  0
 48120  1  0  0  0
 49 50  1  0  0  0
 49 53  1  0  0  0
 49 64  1  0  0  0
 49121  1  0  0  0
 50 51  1  0  0  0
 50122  1  0  0  0
 50123  1  0  0  0
 51 52  1  0  0  0
 51124  1  0  0  0
 51125  1  0  0  0
 52126  1  0  0  0
 52127  1  0  0  0
 53 54  1  0  0  0
 54 55  2  0  0  0
 54128  1  0  0  0
 55 57  1  0  0  0
 55129  1  0  0  0
 56 69  2  0  0  0
 57 58  2  0  0  0
 57130  1  0  0  0
 58131  1  0  0  0
 59 60  1  0  0  0
 59 61  1  0  0  0
 59 62  1  0  0  0
 60132  1  0  0  0
 60133  1  0  0  0
 60134  1  0  0  0
 61135  1  0  0  0
 61136  1  0  0  0
 61137  1  0  0  0
 62138  1  0  0  0
 62139  1  0  0  0
 62140  1  0  0  0
 63 65  1  0  0  0
 63141  1  0  0  0
 63142  1  0  0  0
 63143  1  0  0  0
 64144  1  0  0  0
 65145  1  0  0  0
 68 83  1  0  0  0
 71 74  2  0  0  0
 71 75  1  0  0  0
 71146  1  0  0  0
 72 74  1  0  0  0
 72 76  2  0  0  0
 72147  1  0  0  0
 73 75  2  0  0  0
 73 76  1  0  0  0
 73148  1  0  0  0
 74 84  1  0  0  0
 75 85  1  0  0  0
 76 86  1  0  0  0
 77 78  2  0  0  0
 77 84  1  0  0  0
 77149  1  0  0  0
 78 80  1  0  0  0
 78 83  1  0  0  0
 79 80  1  0  0  0
 79 84  1  0  0  0
 79150  1  0  0  0
 79151  1  0  0  0
 80 81  1  0  0  0
 80 82  1  0  0  0
 81152  1  0  0  0
 81153  1  0  0  0
 81154  1  0  0  0
 82155  1  0  0  0
 82156  1  0  0  0
 82157  1  0  0  0
 83158  1  0  0  0
 83159  1  0  0  0
 85160  1  0  0  0
 85161  1  0  0  0
 86162  1  0  0  0
M  ISO  4   1 100  68 101  83 101  86 100
M  END
> <chiral flag>
0

> <version>
0

> <s_m_source_file>
/data/baiqing/PycharmProjects/Reinvent-master-3.2/result/LINK_invent/BTK/process_docking_weight1_custom_product_contain_oxygen_bond_distance_aromatic_linkinvent_7_9_3/rearranged_h_0075.sdf

> <i_m_source_file_index>
41

> <r_mmod_Potential_Energy-OPLS-2005>
405.210662841797

> <r_mmod_Stretch_Energy-OPLS-2005>
137.748123168945

> <r_mmod_Bend_Energy-OPLS-2005>
239.874069213867

> <r_mmod_Torsional_Energy-OPLS-2005>
288.592498779297

> <r_mmod_Improper_Torsional_Energy-OPLS-2005>
11.9795341491699

> <r_mmod_Van_der_Waal_Energy-OPLS-2005>
126.018043518066

> <r_mmod_Electrostatic_Energy-OPLS-2005>
-295.430938720703

> <r_mmod_Solvation_Energy-OPLS-2005>
-216.435928344727

> <b_mmod_Minimization_Converged-OPLS-2005>
0

> <r_mmod_RMS_Derivative-OPLS-2005>
2.66952919960022

$$$$
42
                    3D
 Structure written by MMmdl.
160169  0  0  1  0            999 V2000
  -30.6081  -14.7555   20.4429 C   0  0  0  0  0  0
  -30.4334  -12.4526   19.4923 C   0  0  0  0  0  0
  -29.5193  -12.5213   18.2477 C   0  0  0  0  0  0
  -28.0423  -12.3476   18.6509 C   0  0  0  0  0  0
  -27.6481  -13.2382   19.8607 C   0  0  2  0  0  0
  -28.6909  -13.1661   20.9990 C   0  0  0  0  0  0
  -25.2531  -13.8205   20.5712 C   0  0  0  0  0  0
  -24.1809  -13.0448   20.9188 C   0  0  0  0  0  0
  -24.6423  -11.6926   20.8748 C   0  0  0  0  0  0
  -23.9098  -10.4300   21.0411 C   0  0  0  0  0  0
  -24.3640   -9.4206   21.9177 C   0  0  0  0  0  0
  -23.6307   -8.2250   22.0758 C   0  0  0  0  0  0
  -22.4278   -8.0310   21.3560 C   0  0  0  0  0  0
  -21.9915   -9.0284   20.4657 C   0  0  0  0  0  0
  -22.7269  -10.2154   20.3065 C   0  0  0  0  0  0
  -21.6847   -6.0745   22.5279 C   0  0  0  0  0  0
  -21.4013   -6.5638   23.8219 C   0  0  0  0  0  0
  -21.3654   -5.6786   24.9173 C   0  0  0  0  0  0
  -21.6041   -4.3050   24.7214 C   0  0  0  0  0  0
  -21.8820   -3.8157   23.4331 C   0  0  0  0  0  0
  -21.9191   -4.6973   22.3389 C   0  0  0  0  0  0
  -22.7827  -13.5232   21.1850 C   0  0  0  0  0  0
  -22.1660   -4.2170   21.0962 F   0  0  0  0  0  0
  -21.5630   -3.4526   25.7715 F   0  0  0  0  0  0
  -29.9991  -13.5173   20.4294 N   0  0  0  0  0  0
  -26.2980  -12.9426   20.3325 N   0  0  0  0  0  0
  -25.9362  -11.6565   20.5771 N   0  0  0  0  0  0
  -22.0470  -12.8237   22.0425 N   0  0  0  0  0  0
  -25.4244  -15.1940   20.4177 N   0  0  0  0  0  0
  -31.7722  -14.8659   20.0459 O   0  0  0  0  0  0
  -21.6647   -6.8903   21.4253 O   0  0  0  0  0  0
  -22.3500  -14.5537   20.6706 O   0  0  0  0  0  0
  -24.6370  -31.8507   23.1978 C   0  0  0  0  0  0
  -25.9174  -32.4724   23.8334 C   0  0  1  0  0  0
  -27.2165  -27.2150   20.1120 C   0  0  0  0  0  0
  -25.5938  -33.8531   24.2239 N   0  0  0  0  0  0
  -23.4370  -30.4755   21.5428 C   0  0  2  0  0  0
  -24.8840  -28.9256   20.1069 C   0  0  0  0  0  0
  -22.7548  -29.4572   22.4897 C   0  0  0  0  0  0
  -18.0298  -28.1386   22.8479 C   0  0  0  0  0  0
  -24.1477  -36.7275   23.2639 C   0  0  0  0  0  0
  -25.9913  -30.7428   21.3939 C   0  0  0  0  0  0
  -26.0593  -29.3649   20.7283 C   0  0  0  0  0  0
  -27.2249  -28.5208   20.7274 C   0  0  0  0  0  0
  -26.0205  -26.8816   19.4299 C   0  0  0  0  0  0
  -24.8726  -27.6922   19.4471 C   0  0  0  0  0  0
  -23.6577  -29.8174   20.1573 C   0  0  0  0  0  0
  -25.4102  -36.3051   24.0322 C   0  0  1  0  0  0
  -20.5908  -28.3696   23.1249 C   0  0  2  0  0  0
  -20.6766  -26.9397   22.5418 C   0  0  0  0  0  0
  -19.5740  -26.6366   21.5216 C   0  0  0  0  0  0
  -18.1921  -26.7922   22.1624 C   0  0  0  0  0  0
  -19.1557  -28.8862   23.2853 C   0  0  0  0  0  0
  -18.9473  -30.1456   23.8881 C   0  0  0  0  0  0
  -17.6471  -30.6578   24.0562 C   0  0  0  0  0  0
  -25.9056  -34.9420   23.5092 C   0  0  0  0  0  0
  -16.5363  -29.9079   23.6327 C   0  0  0  0  0  0
  -16.7286  -28.6499   23.0349 C   0  0  0  0  0  0
  -26.4498  -31.6578   25.0762 C   0  0  0  0  0  0
  -25.3698  -31.3793   26.1483 C   0  0  0  0  0  0
  -27.0333  -30.2956   24.6341 C   0  0  0  0  0  0
  -27.6044  -32.4337   25.7516 C   0  0  0  0  0  0
  -27.5578  -37.1776   24.8448 C   0  0  0  0  0  0
  -21.4248  -29.3029   22.3640 N   0  0  0  0  0  0
  -26.4270  -37.3762   23.9417 N   0  0  0  0  0  0
  -24.7076  -31.0422   22.0989 N   0  0  0  0  0  0
  -23.4221  -28.8101   23.3007 O   0  0  0  0  0  0
  -28.2729  -26.2532   20.1896 O   0  0  0  0  0  0
  -26.5653  -34.8910   22.4674 O   0  0  0  0  0  0
  -23.5504  -32.1359   23.7230 O   0  0  0  0  0  0
  -28.9288  -19.4417   18.4583 C   0  0  0  0  0  0
  -29.3487  -17.0330   18.6815 C   0  0  0  0  0  0
  -29.6316  -18.5205   20.5923 C   0  0  0  0  0  0
  -28.9498  -18.1398   17.8982 C   0  0  0  0  0  0
  -29.2574  -19.7015   19.8095 C   0  0  0  0  0  0
  -29.6834  -17.1610   20.0454 C   0  0  0  0  0  0
  -28.5083  -22.2247   19.6518 C   0  0  0  0  0  0
  -28.7353  -23.4727   20.1783 C   0  0  0  0  0  0
  -29.6749  -23.1903   21.2447 C   0  0  0  0  0  0
  -30.2007  -24.1156   22.0607 C   0  0  0  0  0  0
  -28.5364  -17.8984   16.4843 C   0  0  0  0  0  0
  -29.9794  -21.6759   21.3151 C   0  0  0  0  0  0
  -27.8110  -19.0184   15.7435 C   0  0  0  0  0  0
  -27.9820  -24.8273   19.7416 C   0  0  0  0  0  0
  -29.1598  -21.0973   20.2457 N   0  0  0  0  0  0
  -29.8705  -15.8831   20.7907 N   0  0  0  0  0  0
  -28.7145  -16.8266   15.8990 O   0  0  0  0  0  0
  -31.4797  -12.5557   19.2012 H   0  0  0  0  0  0
  -30.3567  -11.4749   19.9709 H   0  0  0  0  0  0
  -29.8053  -11.7553   17.5258 H   0  0  0  0  0  0
  -29.6514  -13.4795   17.7426 H   0  0  0  0  0  0
  -27.8901  -11.2975   18.8985 H   0  0  0  0  0  0
  -27.3923  -12.5584   17.8005 H   0  0  0  0  0  0
  -27.6450  -14.2633   19.4912 H   0  0  0  0  0  0
  -28.7153  -12.1664   21.4329 H   0  0  0  0  0  0
  -28.4248  -13.8409   21.8128 H   0  0  0  0  0  0
  -25.2791   -9.5657   22.4757 H   0  0  0  0  0  0
  -24.0012   -7.4613   22.7455 H   0  0  0  0  0  0
  -21.0853   -8.8813   19.8950 H   0  0  0  0  0  0
  -22.3739  -10.9698   19.6185 H   0  0  0  0  0  0
  -21.2015   -7.6142   23.9712 H   0  0  0  0  0  0
  -21.1473   -6.0520   25.9071 H   0  0  0  0  0  0
  -22.0607   -2.7622   23.2815 H   0  0  0  0  0  0
  -22.4083  -11.9911   22.4828 H   0  0  0  0  0  0
  -21.1110  -13.1293   22.2648 H   0  0  0  0  0  0
  -24.6625  -15.8514   20.5384 H   0  0  0  0  0  0
  -26.2854  -15.6361   20.1228 H   0  0  0  0  0  0
  -26.7249  -32.5333   23.1072 H   0  0  0  0  0  0
  -25.0017  -33.9641   25.0340 H   0  0  0  0  0  0
  -22.7356  -31.2990   21.3978 H   0  0  0  0  0  0
  -23.3741  -35.9605   23.3280 H   0  0  0  0  0  0
  -24.3579  -36.8921   22.2059 H   0  0  0  0  0  0
  -23.7223  -37.6462   23.6689 H   0  0  0  0  0  0
  -26.1518  -31.5053   20.6301 H   0  0  0  0  0  0
  -26.8608  -30.7798   22.0382 H   0  0  0  0  0  0
  -28.1172  -28.8447   21.2435 H   0  0  0  0  0  0
  -25.9185  -25.9633   18.8731 H   0  0  0  0  0  0
  -23.9813  -27.3567   18.9354 H   0  0  0  0  0  0
  -23.7913  -30.5966   19.4063 H   0  0  0  0  0  0
  -22.7729  -29.2592   19.8452 H   0  0  0  0  0  0
  -25.1275  -36.1893   25.0813 H   0  0  0  0  0  0
  -21.0000  -28.3286   24.1366 H   0  0  0  0  0  0
  -20.5621  -26.2313   23.3638 H   0  0  0  0  0  0
  -21.6641  -26.7370   22.1247 H   0  0  0  0  0  0
  -19.6889  -25.6277   21.1241 H   0  0  0  0  0  0
  -19.6664  -27.3175   20.6744 H   0  0  0  0  0  0
  -17.4185  -26.6681   21.4028 H   0  0  0  0  0  0
  -18.0299  -26.0070   22.9022 H   0  0  0  0  0  0
  -19.7953  -30.7276   24.2239 H   0  0  0  0  0  0
  -17.5023  -31.6254   24.5175 H   0  0  0  0  0  0
  -15.5360  -30.2972   23.7651 H   0  0  0  0  0  0
  -15.8687  -28.0808   22.7063 H   0  0  0  0  0  0
  -24.5867  -30.7124   25.7860 H   0  0  0  0  0  0
  -24.8894  -32.2983   26.4850 H   0  0  0  0  0  0
  -25.7998  -30.9037   27.0305 H   0  0  0  0  0  0
  -26.2946  -29.6698   24.1320 H   0  0  0  0  0  0
  -27.3885  -29.7241   25.4926 H   0  0  0  0  0  0
  -27.8890  -30.4159   23.9695 H   0  0  0  0  0  0
  -27.2637  -33.3637   26.2080 H   0  0  0  0  0  0
  -28.3846  -32.6897   25.0338 H   0  0  0  0  0  0
  -28.0727  -31.8485   26.5438 H   0  0  0  0  0  0
  -28.2572  -38.0095   24.7534 H   0  0  0  0  0  0
  -28.1095  -36.2634   24.6209 H   0  0  0  0  0  0
  -27.2321  -37.1358   25.8856 H   0  0  0  0  0  0
  -20.9455  -29.8770   21.6847 H   0  0  0  0  0  0
  -26.0143  -38.2824   24.1459 H   0  0  0  0  0  0
  -28.6519  -20.2709   17.8267 H   0  0  0  0  0  0
  -29.3356  -16.0491   18.2327 H   0  0  0  0  0  0
  -29.8538  -18.6553   21.6413 H   0  0  0  0  0  0
  -27.8046  -22.0189   18.8566 H   0  0  0  0  0  0
  -29.9487  -25.1616   21.9631 H   0  0  0  0  0  0
  -30.8971  -23.8416   22.8393 H   0  0  0  0  0  0
  -29.7084  -21.2664   22.2888 H   0  0  0  0  0  0
  -31.0387  -21.4858   21.1350 H   0  0  0  0  0  0
  -27.0226  -19.4392   16.3657 H   0  0  0  0  0  0
  -27.3505  -18.6340   14.8332 H   0  0  0  0  0  0
  -28.5069  -19.8109   15.4719 H   0  0  0  0  0  0
  -26.9654  -24.5819   20.0457 H   0  0  0  0  0  0
  -27.9890  -24.8348   18.6506 H   0  0  0  0  0  0
  -29.0827  -15.6497   21.3768 H   0  0  0  0  0  0
  1 25  1  0  0  0
  1 30  2  0  0  0
  1 86  1  0  0  0
  2  3  1  0  0  0
  2 25  1  0  0  0
  2 88  1  0  0  0
  2 89  1  0  0  0
  3  4  1  0  0  0
  3 90  1  0  0  0
  3 91  1  0  0  0
  4  5  1  0  0  0
  4 92  1  0  0  0
  4 93  1  0  0  0
  5  6  1  0  0  0
  5 26  1  0  0  0
  5 94  1  0  0  0
  6 25  1  0  0  0
  6 95  1  0  0  0
  6 96  1  0  0  0
  7  8  2  0  0  0
  7 26  1  0  0  0
  7 29  1  0  0  0
  8  9  1  0  0  0
  8 22  1  0  0  0
  9 10  1  0  0  0
  9 27  2  0  0  0
 10 11  2  0  0  0
 10 15  1  0  0  0
 11 12  1  0  0  0
 11 97  1  0  0  0
 12 13  2  0  0  0
 12 98  1  0  0  0
 13 14  1  0  0  0
 13 31  1  0  0  0
 14 15  2  0  0  0
 14 99  1  0  0  0
 15100  1  0  0  0
 16 17  2  0  0  0
 16 21  1  0  0  0
 16 31  1  0  0  0
 17 18  1  0  0  0
 17101  1  0  0  0
 18 19  2  0  0  0
 18102  1  0  0  0
 19 20  1  0  0  0
 19 24  1  0  0  0
 20 21  2  0  0  0
 20103  1  0  0  0
 21 23  1  0  0  0
 22 28  1  0  0  0
 22 32  2  0  0  0
 26 27  1  0  0  0
 28104  1  0  0  0
 28105  1  0  0  0
 29106  1  0  0  0
 29107  1  0  0  0
 33 34  1  0  0  0
 33 66  1  0  0  0
 33 70  2  0  0  0
 34 36  1  0  0  0
 34 59  1  0  0  0
 34108  1  0  0  0
 35 44  2  0  0  0
 35 45  1  0  0  0
 35 68  1  0  0  0
 36 56  1  0  0  0
 36109  1  0  0  0
 37 39  1  0  0  0
 37 47  1  0  0  0
 37 66  1  0  0  0
 37110  1  0  0  0
 38 43  2  0  0  0
 38 46  1  0  0  0
 38 47  1  0  0  0
 39 64  1  0  0  0
 39 67  2  0  0  0
 40 52  1  0  0  0
 40 53  2  0  0  0
 40 58  1  0  0  0
 41111  1  0  0  0
 41112  1  0  0  0
 41113  1  0  0  0
 41 48  1  0  0  0
 42 43  1  0  0  0
 42 66  1  0  0  0
 42114  1  0  0  0
 42115  1  0  0  0
 43 44  1  0  0  0
 44116  1  0  0  0
 45 46  2  0  0  0
 45117  1  0  0  0
 46118  1  0  0  0
 47119  1  0  0  0
 47120  1  0  0  0
 48 56  1  0  0  0
 48 65  1  0  0  0
 48121  1  0  0  0
 49 50  1  0  0  0
 49 53  1  0  0  0
 49 64  1  0  0  0
 49122  1  0  0  0
 50 51  1  0  0  0
 50123  1  0  0  0
 50124  1  0  0  0
 51 52  1  0  0  0
 51125  1  0  0  0
 51126  1  0  0  0
 52127  1  0  0  0
 52128  1  0  0  0
 53 54  1  0  0  0
 54 55  2  0  0  0
 54129  1  0  0  0
 55 57  1  0  0  0
 55130  1  0  0  0
 56 69  2  0  0  0
 57 58  2  0  0  0
 57131  1  0  0  0
 58132  1  0  0  0
 59 60  1  0  0  0
 59 61  1  0  0  0
 59 62  1  0  0  0
 60133  1  0  0  0
 60134  1  0  0  0
 60135  1  0  0  0
 61136  1  0  0  0
 61137  1  0  0  0
 61138  1  0  0  0
 62139  1  0  0  0
 62140  1  0  0  0
 62141  1  0  0  0
 63 65  1  0  0  0
 63142  1  0  0  0
 63143  1  0  0  0
 63144  1  0  0  0
 64145  1  0  0  0
 65146  1  0  0  0
 68 84  1  0  0  0
 71 74  2  0  0  0
 71 75  1  0  0  0
 71147  1  0  0  0
 72 74  1  0  0  0
 72 76  2  0  0  0
 72148  1  0  0  0
 73 75  2  0  0  0
 73 76  1  0  0  0
 73149  1  0  0  0
 74 81  1  0  0  0
 75 85  1  0  0  0
 76 86  1  0  0  0
 77 78  2  0  0  0
 77 85  1  0  0  0
 77150  1  0  0  0
 78 79  1  0  0  0
 78 84  1  0  0  0
 79 80  2  0  0  0
 79 82  1  0  0  0
 80151  1  0  0  0
 80152  1  0  0  0
 81 83  1  0  0  0
 81 87  2  0  0  0
 82 85  1  0  0  0
 82153  1  0  0  0
 82154  1  0  0  0
 83155  1  0  0  0
 83156  1  0  0  0
 83157  1  0  0  0
 84158  1  0  0  0
 84159  1  0  0  0
 86160  1  0  0  0
M  ISO  4   1 100  68 101  84 101  86 100
M  END
> <chiral flag>
0

> <version>
0

> <s_m_source_file>
/data/baiqing/PycharmProjects/Reinvent-master-3.2/result/LINK_invent/BTK/process_docking_weight1_custom_product_contain_oxygen_bond_distance_aromatic_linkinvent_7_9_3/rearranged_h_0075.sdf

> <i_m_source_file_index>
42

> <r_mmod_Potential_Energy-OPLS-2005>
315.763336181641

> <r_mmod_Stretch_Energy-OPLS-2005>
138.212432861328

> <r_mmod_Bend_Energy-OPLS-2005>
280.171783447266

> <r_mmod_Torsional_Energy-OPLS-2005>
262.454803466797

> <r_mmod_Improper_Torsional_Energy-OPLS-2005>
6.28176212310791

> <r_mmod_Van_der_Waal_Energy-OPLS-2005>
140.529067993164

> <r_mmod_Electrostatic_Energy-OPLS-2005>
-389.992828369141

> <r_mmod_Solvation_Energy-OPLS-2005>
-227.841003417969

> <b_mmod_Minimization_Converged-OPLS-2005>
0

> <r_mmod_RMS_Derivative-OPLS-2005>
2.43320560455322

$$$$
43
                    3D
 Structure written by MMmdl.
154162  0  0  1  0            999 V2000
  -30.6711  -14.5277   20.5577 C   0  0  0  0  0  0
  -30.4300  -12.3366   19.4340 C   0  0  0  0  0  0
  -29.5014  -12.5153   18.2139 C   0  0  0  0  0  0
  -28.0230  -12.3638   18.6233 C   0  0  0  0  0  0
  -27.6609  -13.2074   19.8745 C   0  0  2  0  0  0
  -28.7024  -13.0045   20.9990 C   0  0  0  0  0  0
  -25.2589  -13.8156   20.5676 C   0  0  0  0  0  0
  -24.1839  -13.0436   20.9174 C   0  0  0  0  0  0
  -24.6389  -11.6904   20.8728 C   0  0  0  0  0  0
  -23.9056  -10.4292   21.0403 C   0  0  0  0  0  0
  -24.3609   -9.4209   21.9181 C   0  0  0  0  0  0
  -23.6283   -8.2247   22.0756 C   0  0  0  0  0  0
  -22.4265   -8.0283   21.3549 C   0  0  0  0  0  0
  -21.9897   -9.0256   20.4654 C   0  0  0  0  0  0
  -22.7227  -10.2132   20.3056 C   0  0  0  0  0  0
  -21.6853   -6.0731   22.5280 C   0  0  0  0  0  0
  -21.4016   -6.5636   23.8213 C   0  0  0  0  0  0
  -21.3656   -5.6790   24.9176 C   0  0  0  0  0  0
  -21.6045   -4.3053   24.7227 C   0  0  0  0  0  0
  -21.8820   -3.8143   23.4348 C   0  0  0  0  0  0
  -21.9191   -4.6958   22.3403 C   0  0  0  0  0  0
  -22.7865  -13.5242   21.1839 C   0  0  0  0  0  0
  -22.1662   -4.2147   21.0980 F   0  0  0  0  0  0
  -21.5625   -3.4535   25.7738 F   0  0  0  0  0  0
  -30.0328  -13.3252   20.4522 N   0  0  0  0  0  0
  -26.3019  -12.9321   20.3352 N   0  0  0  0  0  0
  -25.9316  -11.6485   20.5750 N   0  0  0  0  0  0
  -22.0495  -12.8250   22.0399 N   0  0  0  0  0  0
  -25.4325  -15.1872   20.4091 N   0  0  0  0  0  0
  -31.7867  -14.7308   20.0680 O   0  0  0  0  0  0
  -21.6637   -6.8875   21.4242 O   0  0  0  0  0  0
  -22.3560  -14.5553   20.6687 O   0  0  0  0  0  0
  -24.6181  -31.8647   23.2076 C   0  0  0  0  0  0
  -25.9057  -32.4809   23.8387 C   0  0  1  0  0  0
  -27.2340  -27.4037   20.1045 C   0  0  0  0  0  0
  -25.5896  -33.8606   24.2316 N   0  0  0  0  0  0
  -23.4093  -30.4866   21.5480 C   0  0  2  0  0  0
  -24.8605  -28.9516   20.1106 C   0  0  0  0  0  0
  -22.7432  -29.4628   22.4963 C   0  0  0  0  0  0
  -18.0268  -28.1372   22.8486 C   0  0  0  0  0  0
  -24.1487  -36.7313   23.2639 C   0  0  0  0  0  0
  -25.9419  -30.8220   21.3669 C   0  0  0  0  0  0
  -26.0224  -29.4550   20.7115 C   0  0  0  0  0  0
  -27.2159  -28.6881   20.7070 C   0  0  0  0  0  0
  -26.0597  -26.9254   19.4919 C   0  0  0  0  0  0
  -24.8757  -27.6877   19.4950 C   0  0  0  0  0  0
  -23.6215  -29.8198   20.1626 C   0  0  0  0  0  0
  -25.4107  -36.3103   24.0335 C   0  0  1  0  0  0
  -20.5861  -28.3660   23.1301 C   0  0  2  0  0  0
  -20.6755  -26.9390   22.5414 C   0  0  0  0  0  0
  -19.5739  -26.6373   21.5205 C   0  0  0  0  0  0
  -18.1915  -26.7916   22.1616 C   0  0  0  0  0  0
  -19.1520  -28.8832   23.2893 C   0  0  0  0  0  0
  -18.9448  -30.1436   23.8908 C   0  0  0  0  0  0
  -17.6453  -30.6583   24.0554 C   0  0  0  0  0  0
  -25.9034  -34.9465   23.5124 C   0  0  0  0  0  0
  -16.5342  -29.9083   23.6325 C   0  0  0  0  0  0
  -16.7258  -28.6496   23.0353 C   0  0  0  0  0  0
  -26.4478  -31.6595   25.0727 C   0  0  0  0  0  0
  -25.3738  -31.3714   26.1476 C   0  0  0  0  0  0
  -27.0310  -30.3027   24.6128 C   0  0  0  0  0  0
  -27.6053  -32.4316   25.7489 C   0  0  0  0  0  0
  -27.5577  -37.1812   24.8463 C   0  0  0  0  0  0
  -21.4151  -29.3027   22.3715 N   0  0  0  0  0  0
  -26.4294  -37.3787   23.9404 N   0  0  0  0  0  0
  -24.6746  -31.0721   22.0990 N   0  0  0  0  0  0
  -23.4189  -28.8155   23.3008 O   0  0  0  0  0  0
  -28.3352  -26.5681   20.1349 O   0  0  0  0  0  0
  -26.5601  -34.8920   22.4690 O   0  0  0  0  0  0
  -23.5363  -32.1402   23.7451 O   0  0  0  0  0  0
  -30.3015  -19.2941   21.2847 C   0  0  0  0  0  0
  -30.4219  -17.9213   21.6423 C   0  0  0  0  0  0
  -29.2170  -18.6433   19.2182 C   0  0  0  0  0  0
  -29.6975  -19.6794   20.0604 C   0  0  0  0  0  0
  -29.9553  -16.8940   20.7835 C   0  0  0  0  0  0
  -29.3399  -17.2783   19.5697 C   0  0  0  0  0  0
  -28.3606  -25.6967   21.2103 C   0  0  0  0  0  0
  -29.6015  -21.1000   19.6040 C   0  0  0  0  0  0
  -28.6616  -24.3656   21.2451 C   0  0  0  0  0  0
  -29.0455  -23.5456   20.0851 C   0  0  0  0  0  0
  -29.9816  -15.5114   21.1757 N   0  0  0  0  0  0
  -29.2282  -22.1326   20.4121 N   0  0  0  0  0  0
  -29.8995  -21.3262   18.3192 N   0  3  0  0  0  0
  -29.2098  -23.9569   18.9303 O   0  0  0  0  0  0
  -28.5993  -23.7373   22.4327 O   0  0  0  0  0  0
  -28.8376  -16.3307   18.7407 F   0  0  0  0  0  0
  -31.4738  -12.4434   19.1342 H   0  0  0  0  0  0
  -30.3408  -11.3268   19.8374 H   0  0  0  0  0  0
  -29.7503  -11.7885   17.4395 H   0  0  0  0  0  0
  -29.6603  -13.5000   17.7713 H   0  0  0  0  0  0
  -27.8419  -11.3071   18.8249 H   0  0  0  0  0  0
  -27.3726  -12.6298   17.7893 H   0  0  0  0  0  0
  -27.6971  -14.2519   19.5688 H   0  0  0  0  0  0
  -28.6892  -11.9693   21.3433 H   0  0  0  0  0  0
  -28.4502  -13.6029   21.8756 H   0  0  0  0  0  0
  -25.2752   -9.5683   22.4757 H   0  0  0  0  0  0
  -23.9992   -7.4637   22.7473 H   0  0  0  0  0  0
  -21.0828   -8.8777   19.8962 H   0  0  0  0  0  0
  -22.3687  -10.9672   19.6166 H   0  0  0  0  0  0
  -21.2015   -7.6145   23.9718 H   0  0  0  0  0  0
  -21.1475   -6.0519   25.9079 H   0  0  0  0  0  0
  -22.0600   -2.7605   23.2853 H   0  0  0  0  0  0
  -22.4081  -11.9898   22.4788 H   0  0  0  0  0  0
  -21.1124  -13.1312   22.2607 H   0  0  0  0  0  0
  -24.6646  -15.8421   20.5100 H   0  0  0  0  0  0
  -26.2784  -15.6194   20.0600 H   0  0  0  0  0  0
  -26.7126  -32.5516   23.1150 H   0  0  0  0  0  0
  -25.0042  -33.9762   25.0457 H   0  0  0  0  0  0
  -22.6992  -31.3042   21.4072 H   0  0  0  0  0  0
  -23.3739  -35.9657   23.3319 H   0  0  0  0  0  0
  -24.3579  -36.8914   22.2050 H   0  0  0  0  0  0
  -23.7256  -37.6528   23.6648 H   0  0  0  0  0  0
  -26.0593  -31.5889   20.6001 H   0  0  0  0  0  0
  -26.8273  -30.8744   21.9887 H   0  0  0  0  0  0
  -28.1106  -29.0641   21.1832 H   0  0  0  0  0  0
  -26.0599  -25.9476   19.0308 H   0  0  0  0  0  0
  -23.9824  -27.2945   19.0288 H   0  0  0  0  0  0
  -23.7301  -30.5957   19.4042 H   0  0  0  0  0  0
  -22.7459  -29.2402   19.8653 H   0  0  0  0  0  0
  -25.1284  -36.1968   25.0829 H   0  0  0  0  0  0
  -20.9949  -28.3229   24.1423 H   0  0  0  0  0  0
  -20.5635  -26.2267   23.3602 H   0  0  0  0  0  0
  -21.6630  -26.7416   22.1223 H   0  0  0  0  0  0
  -19.6901  -25.6284   21.1230 H   0  0  0  0  0  0
  -19.6682  -27.3185   20.6734 H   0  0  0  0  0  0
  -17.4181  -26.6653   21.4022 H   0  0  0  0  0  0
  -18.0323  -26.0058   22.9013 H   0  0  0  0  0  0
  -19.7928  -30.7240   24.2289 H   0  0  0  0  0  0
  -17.5012  -31.6266   24.5148 H   0  0  0  0  0  0
  -15.5347  -30.2990   23.7645 H   0  0  0  0  0  0
  -15.8651  -28.0814   22.7080 H   0  0  0  0  0  0
  -24.5893  -30.7085   25.7813 H   0  0  0  0  0  0
  -24.8955  -32.2876   26.4942 H   0  0  0  0  0  0
  -25.8081  -30.8861   27.0223 H   0  0  0  0  0  0
  -26.2862  -29.6790   24.1171 H   0  0  0  0  0  0
  -27.4051  -29.7268   25.4604 H   0  0  0  0  0  0
  -27.8711  -30.4335   23.9305 H   0  0  0  0  0  0
  -27.2673  -33.3605   26.2095 H   0  0  0  0  0  0
  -28.3847  -32.6895   25.0305 H   0  0  0  0  0  0
  -28.0741  -31.8425   26.5383 H   0  0  0  0  0  0
  -28.2606  -38.0097   24.7494 H   0  0  0  0  0  0
  -28.1062  -36.2629   24.6306 H   0  0  0  0  0  0
  -27.2293  -37.1485   25.8865 H   0  0  0  0  0  0
  -20.9307  -29.8780   21.6964 H   0  0  0  0  0  0
  -26.0183  -38.2867   24.1398 H   0  0  0  0  0  0
  -30.6955  -20.0462   21.9550 H   0  0  0  0  0  0
  -30.8782  -17.6597   22.5866 H   0  0  0  0  0  0
  -28.7363  -18.8849   18.2814 H   0  0  0  0  0  0
  -28.0865  -26.2215   22.1165 H   0  0  0  0  0  0
  -29.1431  -15.1908   21.6334 H   0  0  0  0  0  0
  -29.0562  -21.8476   21.3644 H   0  0  0  0  0  0
  -30.2585  -20.5888   17.7342 H   0  0  0  0  0  0
  -29.8219  -22.2681   17.9567 H   0  0  0  0  0  0
  -28.3394  -24.3774   23.0826 H   0  0  0  0  0  0
  1 25  1  0  0  0
  1 30  2  0  0  0
  1 81  1  0  0  0
  2  3  1  0  0  0
  2 25  1  0  0  0
  2 87  1  0  0  0
  2 88  1  0  0  0
  3  4  1  0  0  0
  3 89  1  0  0  0
  3 90  1  0  0  0
  4  5  1  0  0  0
  4 91  1  0  0  0
  4 92  1  0  0  0
  5  6  1  0  0  0
  5 26  1  0  0  0
  5 93  1  0  0  0
  6 25  1  0  0  0
  6 94  1  0  0  0
  6 95  1  0  0  0
  7  8  2  0  0  0
  7 26  1  0  0  0
  7 29  1  0  0  0
  8  9  1  0  0  0
  8 22  1  0  0  0
  9 10  1  0  0  0
  9 27  2  0  0  0
 10 11  2  0  0  0
 10 15  1  0  0  0
 11 12  1  0  0  0
 11 96  1  0  0  0
 12 13  2  0  0  0
 12 97  1  0  0  0
 13 14  1  0  0  0
 13 31  1  0  0  0
 14 15  2  0  0  0
 14 98  1  0  0  0
 15 99  1  0  0  0
 16 17  2  0  0  0
 16 21  1  0  0  0
 16 31  1  0  0  0
 17 18  1  0  0  0
 17100  1  0  0  0
 18 19  2  0  0  0
 18101  1  0  0  0
 19 20  1  0  0  0
 19 24  1  0  0  0
 20 21  2  0  0  0
 20102  1  0  0  0
 21 23  1  0  0  0
 22 28  1  0  0  0
 22 32  2  0  0  0
 26 27  1  0  0  0
 28103  1  0  0  0
 28104  1  0  0  0
 29105  1  0  0  0
 29106  1  0  0  0
 33 34  1  0  0  0
 33 66  1  0  0  0
 33 70  2  0  0  0
 34 36  1  0  0  0
 34 59  1  0  0  0
 34107  1  0  0  0
 35 44  2  0  0  0
 35 45  1  0  0  0
 35 68  1  0  0  0
 36 56  1  0  0  0
 36108  1  0  0  0
 37 39  1  0  0  0
 37 47  1  0  0  0
 37 66  1  0  0  0
 37109  1  0  0  0
 38 43  2  0  0  0
 38 46  1  0  0  0
 38 47  1  0  0  0
 39 64  1  0  0  0
 39 67  2  0  0  0
 40 52  1  0  0  0
 40 53  2  0  0  0
 40 58  1  0  0  0
 41110  1  0  0  0
 41111  1  0  0  0
 41112  1  0  0  0
 41 48  1  0  0  0
 42 43  1  0  0  0
 42 66  1  0  0  0
 42113  1  0  0  0
 42114  1  0  0  0
 43 44  1  0  0  0
 44115  1  0  0  0
 45 46  2  0  0  0
 45116  1  0  0  0
 46117  1  0  0  0
 47118  1  0  0  0
 47119  1  0  0  0
 48 56  1  0  0  0
 48 65  1  0  0  0
 48120  1  0  0  0
 49 50  1  0  0  0
 49 53  1  0  0  0
 49 64  1  0  0  0
 49121  1  0  0  0
 50 51  1  0  0  0
 50122  1  0  0  0
 50123  1  0  0  0
 51 52  1  0  0  0
 51124  1  0  0  0
 51125  1  0  0  0
 52126  1  0  0  0
 52127  1  0  0  0
 53 54  1  0  0  0
 54 55  2  0  0  0
 54128  1  0  0  0
 55 57  1  0  0  0
 55129  1  0  0  0
 56 69  2  0  0  0
 57 58  2  0  0  0
 57130  1  0  0  0
 58131  1  0  0  0
 59 60  1  0  0  0
 59 61  1  0  0  0
 59 62  1  0  0  0
 60132  1  0  0  0
 60133  1  0  0  0
 60134  1  0  0  0
 61135  1  0  0  0
 61136  1  0  0  0
 61137  1  0  0  0
 62138  1  0  0  0
 62139  1  0  0  0
 62140  1  0  0  0
 63 65  1  0  0  0
 63141  1  0  0  0
 63142  1  0  0  0
 63143  1  0  0  0
 64144  1  0  0  0
 65145  1  0  0  0
 68 77  1  0  0  0
 71 72  2  0  0  0
 71 74  1  0  0  0
 71146  1  0  0  0
 72 75  1  0  0  0
 72147  1  0  0  0
 73 74  2  0  0  0
 73 76  1  0  0  0
 73148  1  0  0  0
 74 78  1  0  0  0
 75 76  2  0  0  0
 75 81  1  0  0  0
 76 86  1  0  0  0
 77 79  2  0  0  0
 77149  1  0  0  0
 78 82  1  0  0  0
 78 83  2  0  0  0
 79 80  1  0  0  0
 79 85  1  0  0  0
 80 82  1  0  0  0
 80 84  2  0  0  0
 81150  1  0  0  0
 82151  1  0  0  0
 83152  1  0  0  0
 83153  1  0  0  0
 85154  1  0  0  0
M  CHG  1  83   1
M  ISO  4   1 100  68 101  77 101  81 100
M  END
> <chiral flag>
0

> <version>
0

> <s_m_source_file>
/data/baiqing/PycharmProjects/Reinvent-master-3.2/result/LINK_invent/BTK/process_docking_weight1_custom_product_contain_oxygen_bond_distance_aromatic_linkinvent_7_9_3/rearranged_h_0075.sdf

> <i_m_source_file_index>
43

> <r_mmod_Potential_Energy-OPLS-2005>
-396.089202880859

> <r_mmod_Stretch_Energy-OPLS-2005>
47.8683090209961

> <r_mmod_Bend_Energy-OPLS-2005>
118.215644836426

> <r_mmod_Torsional_Energy-OPLS-2005>
242.293853759766

> <r_mmod_Improper_Torsional_Energy-OPLS-2005>
5.00553798675537

> <r_mmod_Van_der_Waal_Energy-OPLS-2005>
156.54963684082

> <r_mmod_Electrostatic_Energy-OPLS-2005>
-543.996459960938

> <r_mmod_Solvation_Energy-OPLS-2005>
-443.335052490234

> <b_mmod_Minimization_Converged-OPLS-2005>
0

> <r_mmod_RMS_Derivative-OPLS-2005>
0.811362564563751

$$$$
44
                    3D
 Structure written by MMmdl.
157166  0  0  1  0            999 V2000
  -30.6629  -14.5705   20.5290 C   0  0  0  0  0  0
  -30.4361  -12.3506   19.4532 C   0  0  0  0  0  0
  -29.5105  -12.4857   18.2252 C   0  0  0  0  0  0
  -28.0302  -12.3397   18.6339 C   0  0  0  0  0  0
  -27.6570  -13.2104   19.8632 C   0  0  2  0  0  0
  -28.6986  -13.0465   20.9941 C   0  0  0  0  0  0
  -25.2570  -13.8157   20.5674 C   0  0  0  0  0  0
  -24.1826  -13.0426   20.9165 C   0  0  0  0  0  0
  -24.6387  -11.6893   20.8712 C   0  0  0  0  0  0
  -23.9058  -10.4276   21.0399 C   0  0  0  0  0  0
  -24.3602   -9.4193   21.9180 C   0  0  0  0  0  0
  -23.6278   -8.2236   22.0758 C   0  0  0  0  0  0
  -22.4263   -8.0274   21.3545 C   0  0  0  0  0  0
  -21.9891   -9.0254   20.4654 C   0  0  0  0  0  0
  -22.7225  -10.2128   20.3058 C   0  0  0  0  0  0
  -21.6844   -6.0733   22.5276 C   0  0  0  0  0  0
  -21.4019   -6.5637   23.8210 C   0  0  0  0  0  0
  -21.3660   -5.6788   24.9171 C   0  0  0  0  0  0
  -21.6041   -4.3054   24.7219 C   0  0  0  0  0  0
  -21.8820   -3.8144   23.4341 C   0  0  0  0  0  0
  -21.9181   -4.6960   22.3393 C   0  0  0  0  0  0
  -22.7845  -13.5225   21.1824 C   0  0  0  0  0  0
  -22.1651   -4.2148   21.0972 F   0  0  0  0  0  0
  -21.5620   -3.4539   25.7736 F   0  0  0  0  0  0
  -30.0246  -13.3663   20.4378 N   0  0  0  0  0  0
  -26.2998  -12.9334   20.3303 N   0  0  0  0  0  0
  -25.9306  -11.6485   20.5723 N   0  0  0  0  0  0
  -22.0473  -12.8257   22.0402 N   0  0  0  0  0  0
  -25.4258  -15.1889   20.4100 N   0  0  0  0  0  0
  -31.8131  -14.7280   20.1103 O   0  0  0  0  0  0
  -21.6622   -6.8880   21.4243 O   0  0  0  0  0  0
  -22.3521  -14.5515   20.6656 O   0  0  0  0  0  0
  -24.6217  -31.8653   23.2062 C   0  0  0  0  0  0
  -25.9082  -32.4811   23.8384 C   0  0  1  0  0  0
  -27.2315  -27.3809   20.0991 C   0  0  0  0  0  0
  -25.5907  -33.8613   24.2301 N   0  0  0  0  0  0
  -23.4128  -30.4894   21.5495 C   0  0  2  0  0  0
  -24.8565  -28.9501   20.1158 C   0  0  0  0  0  0
  -22.7455  -29.4652   22.4973 C   0  0  0  0  0  0
  -18.0285  -28.1383   22.8508 C   0  0  0  0  0  0
  -24.1479  -36.7315   23.2645 C   0  0  0  0  0  0
  -25.9499  -30.8119   21.3701 C   0  0  0  0  0  0
  -26.0238  -29.4458   20.7088 C   0  0  0  0  0  0
  -27.2148  -28.6746   20.6860 C   0  0  0  0  0  0
  -26.0356  -26.9107   19.5048 C   0  0  0  0  0  0
  -24.8597  -27.6841   19.5085 C   0  0  0  0  0  0
  -23.6226  -29.8246   20.1653 C   0  0  0  0  0  0
  -25.4107  -36.3112   24.0330 C   0  0  1  0  0  0
  -20.5881  -28.3681   23.1302 C   0  0  2  0  0  0
  -20.6767  -26.9407   22.5419 C   0  0  0  0  0  0
  -19.5740  -26.6390   21.5218 C   0  0  0  0  0  0
  -18.1921  -26.7933   22.1628 C   0  0  0  0  0  0
  -19.1535  -28.8847   23.2905 C   0  0  0  0  0  0
  -18.9460  -30.1451   23.8925 C   0  0  0  0  0  0
  -17.6460  -30.6587   24.0574 C   0  0  0  0  0  0
  -25.9044  -34.9475   23.5119 C   0  0  0  0  0  0
  -16.5354  -29.9093   23.6332 C   0  0  0  0  0  0
  -16.7272  -28.6501   23.0367 C   0  0  0  0  0  0
  -26.4475  -31.6633   25.0757 C   0  0  0  0  0  0
  -25.3720  -31.3782   26.1506 C   0  0  0  0  0  0
  -27.0340  -30.3062   24.6227 C   0  0  0  0  0  0
  -27.6052  -32.4380   25.7500 C   0  0  0  0  0  0
  -27.5579  -37.1810   24.8461 C   0  0  0  0  0  0
  -21.4169  -29.3039   22.3699 N   0  0  0  0  0  0
  -26.4297  -37.3797   23.9401 N   0  0  0  0  0  0
  -24.6798  -31.0710   22.0985 N   0  0  0  0  0  0
  -23.4192  -28.8201   23.3043 O   0  0  0  0  0  0
  -28.3893  -26.6096   20.1087 O   0  0  0  0  0  0
  -26.5625  -34.8933   22.4691 O   0  0  0  0  0  0
  -23.5387  -32.1446   23.7398 O   0  0  0  0  0  0
  -29.4889  -19.2432   21.9296 C   0  0  0  0  0  0
  -29.2807  -17.8446   21.7954 C   0  0  0  0  0  0
  -31.1183  -17.7129   20.2326 C   0  0  0  0  0  0
  -30.5393  -19.8975   21.2433 C   0  0  0  0  0  0
  -30.1219  -17.0388   20.9862 C   0  0  0  0  0  0
  -31.3308  -19.1129   20.3652 C   0  0  0  0  0  0
  -29.6150  -22.8614   20.4702 C   0  0  0  0  0  0
  -31.0456  -21.2504   21.7227 C   0  0  0  0  0  0
  -30.4493  -24.9026   21.4218 C   0  0  0  0  0  0
  -31.2464  -23.6824   21.8861 C   0  0  0  0  0  0
  -29.6179  -24.4046   20.2482 C   0  0  2  0  0  0
  -28.2522  -25.1560   20.1209 C   0  0  0  0  0  0
  -30.5817  -22.4863   21.3434 N   0  0  0  0  0  0
  -29.8991  -15.6049   20.9744 N   0  0  0  0  0  0
  -28.8381  -22.1118   19.8725 O   0  0  0  0  0  0
  -31.9714  -21.1823   22.5434 O   0  0  0  0  0  0
  -32.3580  -19.6810   19.6880 F   0  0  0  0  0  0
  -31.4806  -12.4589   19.1563 H   0  0  0  0  0  0
  -30.3564  -11.3539   19.8910 H   0  0  0  0  0  0
  -29.7692  -11.7320   17.4812 H   0  0  0  0  0  0
  -29.6690  -13.4504   17.7423 H   0  0  0  0  0  0
  -27.8579  -11.2882   18.8664 H   0  0  0  0  0  0
  -27.3802  -12.5726   17.7895 H   0  0  0  0  0  0
  -27.6853  -14.2461   19.5235 H   0  0  0  0  0  0
  -28.6924  -12.0222   21.3705 H   0  0  0  0  0  0
  -28.4477  -13.6756   21.8505 H   0  0  0  0  0  0
  -25.2756   -9.5669   22.4745 H   0  0  0  0  0  0
  -23.9984   -7.4629   22.7481 H   0  0  0  0  0  0
  -21.0815   -8.8783   19.8964 H   0  0  0  0  0  0
  -22.3692  -10.9668   19.6166 H   0  0  0  0  0  0
  -21.2037   -7.6148   23.9727 H   0  0  0  0  0  0
  -21.1475   -6.0510   25.9076 H   0  0  0  0  0  0
  -22.0597   -2.7607   23.2832 H   0  0  0  0  0  0
  -22.4068  -11.9948   22.4853 H   0  0  0  0  0  0
  -21.1089  -13.1322   22.2579 H   0  0  0  0  0  0
  -24.6558  -15.8400   20.5184 H   0  0  0  0  0  0
  -26.2709  -15.6335   20.0750 H   0  0  0  0  0  0
  -26.7161  -32.5492   23.1147 H   0  0  0  0  0  0
  -25.0019  -33.9759   25.0422 H   0  0  0  0  0  0
  -22.7053  -31.3093   21.4085 H   0  0  0  0  0  0
  -23.3734  -35.9657   23.3329 H   0  0  0  0  0  0
  -24.3571  -36.8923   22.2056 H   0  0  0  0  0  0
  -23.7230  -37.6520   23.6659 H   0  0  0  0  0  0
  -26.0844  -31.5805   20.6078 H   0  0  0  0  0  0
  -26.8284  -30.8521   22.0029 H   0  0  0  0  0  0
  -28.1191  -29.0590   21.1379 H   0  0  0  0  0  0
  -25.9859  -25.9447   19.0284 H   0  0  0  0  0  0
  -23.9618  -27.2938   19.0483 H   0  0  0  0  0  0
  -23.7394  -30.6012   19.4089 H   0  0  0  0  0  0
  -22.7432  -29.2530   19.8634 H   0  0  0  0  0  0
  -25.1274  -36.1990   25.0824 H   0  0  0  0  0  0
  -20.9989  -28.3257   24.1418 H   0  0  0  0  0  0
  -20.5675  -26.2288   23.3617 H   0  0  0  0  0  0
  -21.6637  -26.7450   22.1203 H   0  0  0  0  0  0
  -19.6897  -25.6307   21.1231 H   0  0  0  0  0  0
  -19.6662  -27.3215   20.6759 H   0  0  0  0  0  0
  -17.4192  -26.6714   21.4025 H   0  0  0  0  0  0
  -18.0300  -26.0061   22.9002 H   0  0  0  0  0  0
  -19.7937  -30.7257   24.2306 H   0  0  0  0  0  0
  -17.5017  -31.6266   24.5174 H   0  0  0  0  0  0
  -15.5352  -30.2998   23.7635 H   0  0  0  0  0  0
  -15.8676  -28.0812   22.7088 H   0  0  0  0  0  0
  -24.5829  -30.7211   25.7831 H   0  0  0  0  0  0
  -24.8980  -32.2961   26.5000 H   0  0  0  0  0  0
  -25.8031  -30.8889   27.0251 H   0  0  0  0  0  0
  -26.2934  -29.6794   24.1247 H   0  0  0  0  0  0
  -27.4034  -29.7342   25.4752 H   0  0  0  0  0  0
  -27.8797  -30.4353   23.9470 H   0  0  0  0  0  0
  -27.2666  -33.3655   26.2137 H   0  0  0  0  0  0
  -28.3813  -32.7010   25.0296 H   0  0  0  0  0  0
  -28.0805  -31.8502   26.5366 H   0  0  0  0  0  0
  -28.2615  -38.0090   24.7509 H   0  0  0  0  0  0
  -28.1058  -36.2627   24.6286 H   0  0  0  0  0  0
  -27.2312  -37.1473   25.8871 H   0  0  0  0  0  0
  -20.9348  -29.8767   21.6911 H   0  0  0  0  0  0
  -26.0187  -38.2882   24.1387 H   0  0  0  0  0  0
  -28.8934  -19.7958   22.6427 H   0  0  0  0  0  0
  -28.4932  -17.3841   22.3776 H   0  0  0  0  0  0
  -31.7739  -17.1675   19.5707 H   0  0  0  0  0  0
  -31.0992  -25.7309   21.1372 H   0  0  0  0  0  0
  -29.8031  -25.2588   22.2256 H   0  0  0  0  0  0
  -31.3042  -23.6582   22.9762 H   0  0  0  0  0  0
  -32.2672  -23.7352   21.5016 H   0  0  0  0  0  0
  -30.1828  -24.5691   19.3301 H   0  0  0  0  0  0
  -27.5904  -24.8662   20.9406 H   0  0  0  0  0  0
  -27.7851  -24.8151   19.1971 H   0  0  0  0  0  0
  -29.0083  -15.3080   21.3418 H   0  0  0  0  0  0
  1 25  1  0  0  0
  1 30  2  0  0  0
  1 84  1  0  0  0
  2  3  1  0  0  0
  2 25  1  0  0  0
  2 88  1  0  0  0
  2 89  1  0  0  0
  3  4  1  0  0  0
  3 90  1  0  0  0
  3 91  1  0  0  0
  4  5  1  0  0  0
  4 92  1  0  0  0
  4 93  1  0  0  0
  5  6  1  0  0  0
  5 26  1  0  0  0
  5 94  1  0  0  0
  6 25  1  0  0  0
  6 95  1  0  0  0
  6 96  1  0  0  0
  7  8  2  0  0  0
  7 26  1  0  0  0
  7 29  1  0  0  0
  8  9  1  0  0  0
  8 22  1  0  0  0
  9 10  1  0  0  0
  9 27  2  0  0  0
 10 11  2  0  0  0
 10 15  1  0  0  0
 11 12  1  0  0  0
 11 97  1  0  0  0
 12 13  2  0  0  0
 12 98  1  0  0  0
 13 14  1  0  0  0
 13 31  1  0  0  0
 14 15  2  0  0  0
 14 99  1  0  0  0
 15100  1  0  0  0
 16 17  2  0  0  0
 16 21  1  0  0  0
 16 31  1  0  0  0
 17 18  1  0  0  0
 17101  1  0  0  0
 18 19  2  0  0  0
 18102  1  0  0  0
 19 20  1  0  0  0
 19 24  1  0  0  0
 20 21  2  0  0  0
 20103  1  0  0  0
 21 23  1  0  0  0
 22 28  1  0  0  0
 22 32  2  0  0  0
 26 27  1  0  0  0
 28104  1  0  0  0
 28105  1  0  0  0
 29106  1  0  0  0
 29107  1  0  0  0
 33 34  1  0  0  0
 33 66  1  0  0  0
 33 70  2  0  0  0
 34 36  1  0  0  0
 34 59  1  0  0  0
 34108  1  0  0  0
 35 44  2  0  0  0
 35 45  1  0  0  0
 35 68  1  0  0  0
 36 56  1  0  0  0
 36109  1  0  0  0
 37 39  1  0  0  0
 37 47  1  0  0  0
 37 66  1  0  0  0
 37110  1  0  0  0
 38 43  2  0  0  0
 38 46  1  0  0  0
 38 47  1  0  0  0
 39 64  1  0  0  0
 39 67  2  0  0  0
 40 52  1  0  0  0
 40 53  2  0  0  0
 40 58  1  0  0  0
 41111  1  0  0  0
 41112  1  0  0  0
 41113  1  0  0  0
 41 48  1  0  0  0
 42 43  1  0  0  0
 42 66  1  0  0  0
 42114  1  0  0  0
 42115  1  0  0  0
 43 44  1  0  0  0
 44116  1  0  0  0
 45 46  2  0  0  0
 45117  1  0  0  0
 46118  1  0  0  0
 47119  1  0  0  0
 47120  1  0  0  0
 48 56  1  0  0  0
 48 65  1  0  0  0
 48121  1  0  0  0
 49 50  1  0  0  0
 49 53  1  0  0  0
 49 64  1  0  0  0
 49122  1  0  0  0
 50 51  1  0  0  0
 50123  1  0  0  0
 50124  1  0  0  0
 51 52  1  0  0  0
 51125  1  0  0  0
 51126  1  0  0  0
 52127  1  0  0  0
 52128  1  0  0  0
 53 54  1  0  0  0
 54 55  2  0  0  0
 54129  1  0  0  0
 55 57  1  0  0  0
 55130  1  0  0  0
 56 69  2  0  0  0
 57 58  2  0  0  0
 57131  1  0  0  0
 58132  1  0  0  0
 59 60  1  0  0  0
 59 61  1  0  0  0
 59 62  1  0  0  0
 60133  1  0  0  0
 60134  1  0  0  0
 60135  1  0  0  0
 61136  1  0  0  0
 61137  1  0  0  0
 61138  1  0  0  0
 62139  1  0  0  0
 62140  1  0  0  0
 62141  1  0  0  0
 63 65  1  0  0  0
 63142  1  0  0  0
 63143  1  0  0  0
 63144  1  0  0  0
 64145  1  0  0  0
 65146  1  0  0  0
 68 82  1  0  0  0
 71 72  2  0  0  0
 71 74  1  0  0  0
 71147  1  0  0  0
 72 75  1  0  0  0
 72148  1  0  0  0
 73 75  2  0  0  0
 73 76  1  0  0  0
 73149  1  0  0  0
 74 76  2  0  0  0
 74 78  1  0  0  0
 75 84  1  0  0  0
 76 87  1  0  0  0
 77 81  1  0  0  0
 77 83  1  0  0  0
 77 85  2  0  0  0
 78 83  1  0  0  0
 78 86  2  0  0  0
 79 80  1  0  0  0
 79 81  1  0  0  0
 79150  1  0  0  0
 79151  1  0  0  0
 80 83  1  0  0  0
 80152  1  0  0  0
 80153  1  0  0  0
 81 82  1  0  0  0
 81154  1  0  0  0
 82155  1  0  0  0
 82156  1  0  0  0
 84157  1  0  0  0
M  ISO  4   1 100  68 101  82 101  84 100
M  END
> <chiral flag>
0

> <version>
0

> <s_m_source_file>
/data/baiqing/PycharmProjects/Reinvent-master-3.2/result/LINK_invent/BTK/process_docking_weight1_custom_product_contain_oxygen_bond_distance_aromatic_linkinvent_7_9_3/rearranged_h_0075.sdf

> <i_m_source_file_index>
44

> <r_mmod_Potential_Energy-OPLS-2005>
102.366188049316

> <r_mmod_Stretch_Energy-OPLS-2005>
55.3138313293457

> <r_mmod_Bend_Energy-OPLS-2005>
165.281585693359

> <r_mmod_Torsional_Energy-OPLS-2005>
284.762573242188

> <r_mmod_Improper_Torsional_Energy-OPLS-2005>
6.74298810958862

> <r_mmod_Van_der_Waal_Energy-OPLS-2005>
149.272369384766

> <r_mmod_Electrostatic_Energy-OPLS-2005>
-364.840515136719

> <r_mmod_Solvation_Energy-OPLS-2005>
-221.153991699219

> <b_mmod_Minimization_Converged-OPLS-2005>
0

> <r_mmod_RMS_Derivative-OPLS-2005>
2.38823199272156

$$$$
45
                    3D
 Structure written by MMmdl.
157165  0  0  1  0            999 V2000
  -30.7468  -14.4474   20.5615 C   0  0  0  0  0  0
  -30.4049  -12.2827   19.4436 C   0  0  0  0  0  0
  -29.4972  -12.5078   18.2200 C   0  0  0  0  0  0
  -28.0164  -12.3837   18.6215 C   0  0  0  0  0  0
  -27.6632  -13.2198   19.8813 C   0  0  2  0  0  0
  -28.7013  -13.0306   21.0113 C   0  0  0  0  0  0
  -25.2615  -13.8164   20.5738 C   0  0  0  0  0  0
  -24.1851  -13.0414   20.9182 C   0  0  0  0  0  0
  -24.6422  -11.6891   20.8751 C   0  0  0  0  0  0
  -23.9065  -10.4280   21.0411 C   0  0  0  0  0  0
  -24.3601   -9.4193   21.9188 C   0  0  0  0  0  0
  -23.6283   -8.2232   22.0754 C   0  0  0  0  0  0
  -22.4282   -8.0263   21.3538 C   0  0  0  0  0  0
  -21.9905   -9.0242   20.4658 C   0  0  0  0  0  0
  -22.7222  -10.2131   20.3080 C   0  0  0  0  0  0
  -21.6880   -6.0712   22.5277 C   0  0  0  0  0  0
  -21.4008   -6.5623   23.8193 C   0  0  0  0  0  0
  -21.3666   -5.6790   24.9161 C   0  0  0  0  0  0
  -21.6052   -4.3054   24.7227 C   0  0  0  0  0  0
  -21.8825   -3.8124   23.4359 C   0  0  0  0  0  0
  -21.9187   -4.6930   22.3398 C   0  0  0  0  0  0
  -22.7878  -13.5213   21.1857 C   0  0  0  0  0  0
  -22.1680   -4.2101   21.0988 F   0  0  0  0  0  0
  -21.5625   -3.4554   25.7751 F   0  0  0  0  0  0
  -30.0374  -13.2913   20.4547 N   0  0  0  0  0  0
  -26.3049  -12.9367   20.3416 N   0  0  0  0  0  0
  -25.9355  -11.6509   20.5765 N   0  0  0  0  0  0
  -22.0514  -12.8233   22.0440 N   0  0  0  0  0  0
  -25.4402  -15.1861   20.4206 N   0  0  0  0  0  0
  -31.8880  -14.5371   20.1029 O   0  0  0  0  0  0
  -21.6662   -6.8856   21.4239 O   0  0  0  0  0  0
  -22.3584  -14.5541   20.6734 O   0  0  0  0  0  0
  -24.6062  -31.8725   23.2142 C   0  0  0  0  0  0
  -25.8983  -32.4836   23.8437 C   0  0  1  0  0  0
  -27.2378  -27.4866   20.0844 C   0  0  0  0  0  0
  -25.5907  -33.8641   24.2382 N   0  0  0  0  0  0
  -23.3905  -30.4988   21.5535 C   0  0  2  0  0  0
  -24.8402  -28.9758   20.1076 C   0  0  0  0  0  0
  -22.7432  -29.4660   22.5021 C   0  0  0  0  0  0
  -18.0319  -28.1460   22.8467 C   0  0  0  0  0  0
  -24.1501  -36.7290   23.2650 C   0  0  0  0  0  0
  -25.9155  -30.8546   21.3613 C   0  0  0  0  0  0
  -25.9927  -29.4946   20.7061 C   0  0  0  0  0  0
  -27.1924  -28.7549   20.6967 C   0  0  0  0  0  0
  -26.0645  -26.9714   19.4805 C   0  0  0  0  0  0
  -24.8682  -27.7123   19.4924 C   0  0  0  0  0  0
  -23.5943  -29.8318   20.1632 C   0  0  0  0  0  0
  -25.4106  -36.3088   24.0354 C   0  0  1  0  0  0
  -20.5881  -28.3660   23.1368 C   0  0  2  0  0  0
  -20.6756  -26.9415   22.5432 C   0  0  0  0  0  0
  -19.5817  -26.6576   21.5110 C   0  0  0  0  0  0
  -18.1928  -26.8100   22.1404 C   0  0  0  0  0  0
  -19.1576  -28.8838   23.2972 C   0  0  0  0  0  0
  -18.9524  -30.1412   23.9056 C   0  0  0  0  0  0
  -17.6536  -30.6584   24.0732 C   0  0  0  0  0  0
  -25.9023  -34.9470   23.5148 C   0  0  0  0  0  0
  -16.5408  -29.9129   23.6457 C   0  0  0  0  0  0
  -16.7304  -28.6593   23.0384 C   0  0  0  0  0  0
  -26.4464  -31.6562   25.0715 C   0  0  0  0  0  0
  -25.3779  -31.3659   26.1491 C   0  0  0  0  0  0
  -27.0325  -30.3024   24.6054 C   0  0  0  0  0  0
  -27.6069  -32.4249   25.7447 C   0  0  0  0  0  0
  -27.5571  -37.1791   24.8464 C   0  0  0  0  0  0
  -21.4152  -29.3045   22.3807 N   0  0  0  0  0  0
  -26.4276  -37.3760   23.9422 N   0  0  0  0  0  0
  -24.6552  -31.0885   22.1013 N   0  0  0  0  0  0
  -23.4270  -28.8181   23.2995 O   0  0  0  0  0  0
  -28.4384  -26.8202   20.0799 O   0  0  0  0  0  0
  -26.5613  -34.8908   22.4725 O   0  0  0  0  0  0
  -23.5289  -32.1457   23.7580 O   0  0  0  0  0  0
  -31.6838  -18.7515   19.8876 C   0  0  0  0  0  0
  -30.7932  -19.6871   20.4235 C   0  0  0  0  0  0
  -31.4881  -17.3850   20.1207 C   0  0  0  0  0  0
  -29.4781  -17.8777   21.4050 C   0  0  0  0  0  0
  -29.6756  -19.2641   21.1795 C   0  0  0  0  0  0
  -30.3794  -16.9119   20.8792 C   0  0  0  0  0  0
  -29.3099  -22.6686   21.2539 C   0  0  0  0  0  0
  -28.6771  -20.2993   21.7082 C   0  0  0  0  0  0
  -30.0011  -23.4061   20.1024 C   0  0  0  0  0  0
  -29.8561  -24.9309   20.0940 C   0  0  0  0  0  0
  -28.4139  -25.4106   19.9342 C   0  0  0  0  0  0
  -30.1089  -15.5115   21.0941 N   0  0  0  0  0  0
  -28.7115  -21.5233   20.9082 N   0  0  0  0  0  0
  -29.4021  -23.0698   22.4160 O   0  0  0  0  0  0
  -31.4548  -12.3328   19.1477 H   0  0  0  0  0  0
  -30.2648  -11.2780   19.8442 H   0  0  0  0  0  0
  -29.7361  -11.7941   17.4291 H   0  0  0  0  0  0
  -29.6853  -13.4978   17.8046 H   0  0  0  0  0  0
  -27.8042  -11.3295   18.7929 H   0  0  0  0  0  0
  -27.3805  -12.6915   17.7903 H   0  0  0  0  0  0
  -27.7026  -14.2684   19.5820 H   0  0  0  0  0  0
  -28.6666  -12.0130   21.4024 H   0  0  0  0  0  0
  -28.4742  -13.6802   21.8563 H   0  0  0  0  0  0
  -25.2750   -9.5691   22.4752 H   0  0  0  0  0  0
  -24.0002   -7.4641   22.7490 H   0  0  0  0  0  0
  -21.0818   -8.8746   19.8999 H   0  0  0  0  0  0
  -22.3642  -10.9661   19.6204 H   0  0  0  0  0  0
  -21.2026   -7.6143   23.9672 H   0  0  0  0  0  0
  -21.1492   -6.0543   25.9058 H   0  0  0  0  0  0
  -22.0610   -2.7589   23.2883 H   0  0  0  0  0  0
  -22.4115  -11.9858   22.4770 H   0  0  0  0  0  0
  -21.1143  -13.1298   22.2681 H   0  0  0  0  0  0
  -24.6869  -15.8531   20.5413 H   0  0  0  0  0  0
  -26.3098  -15.6159   20.1264 H   0  0  0  0  0  0
  -26.7065  -32.5596   23.1232 H   0  0  0  0  0  0
  -24.9980  -33.9831   25.0466 H   0  0  0  0  0  0
  -22.6760  -31.3159   21.4206 H   0  0  0  0  0  0
  -23.3731  -35.9647   23.3302 H   0  0  0  0  0  0
  -24.3583  -36.8905   22.2062 H   0  0  0  0  0  0
  -23.7299  -37.6511   23.6664 H   0  0  0  0  0  0
  -26.0342  -31.6227   20.5943 H   0  0  0  0  0  0
  -26.7993  -30.9005   21.9821 H   0  0  0  0  0  0
  -28.0862  -29.1553   21.1595 H   0  0  0  0  0  0
  -26.0657  -26.0165   18.9764 H   0  0  0  0  0  0
  -23.9799  -27.3094   19.0241 H   0  0  0  0  0  0
  -23.6817  -30.6095   19.4041 H   0  0  0  0  0  0
  -22.7263  -29.2357   19.8759 H   0  0  0  0  0  0
  -25.1280  -36.1947   25.0844 H   0  0  0  0  0  0
  -20.9989  -28.3191   24.1480 H   0  0  0  0  0  0
  -20.5591  -26.2198   23.3539 H   0  0  0  0  0  0
  -21.6674  -26.7540   22.1301 H   0  0  0  0  0  0
  -19.7067  -25.6605   21.0882 H   0  0  0  0  0  0
  -19.6942  -27.3605   20.6848 H   0  0  0  0  0  0
  -17.4259  -26.6973   21.3719 H   0  0  0  0  0  0
  -18.0191  -26.0179   22.8678 H   0  0  0  0  0  0
  -19.8014  -30.7192   24.2451 H   0  0  0  0  0  0
  -17.5097  -31.6252   24.5327 H   0  0  0  0  0  0
  -15.5432  -30.3053   23.7804 H   0  0  0  0  0  0
  -15.8671  -28.0987   22.7010 H   0  0  0  0  0  0
  -24.5949  -30.7010   25.7836 H   0  0  0  0  0  0
  -24.8984  -32.2817   26.4953 H   0  0  0  0  0  0
  -25.8153  -30.8828   27.0236 H   0  0  0  0  0  0
  -26.2894  -29.6737   24.1132 H   0  0  0  0  0  0
  -27.4192  -29.7281   25.4488 H   0  0  0  0  0  0
  -27.8672  -30.4387   23.9169 H   0  0  0  0  0  0
  -27.2732  -33.3540   26.2073 H   0  0  0  0  0  0
  -28.3815  -32.6791   25.0201 H   0  0  0  0  0  0
  -28.0778  -31.8319   26.5299 H   0  0  0  0  0  0
  -28.2585  -38.0080   24.7461 H   0  0  0  0  0  0
  -28.1066  -36.2612   24.6313 H   0  0  0  0  0  0
  -27.2306  -37.1471   25.8870 H   0  0  0  0  0  0
  -20.9226  -29.8921   21.7214 H   0  0  0  0  0  0
  -26.0156  -38.2845   24.1336 H   0  0  0  0  0  0
  -32.5171  -19.0940   19.2896 H   0  0  0  0  0  0
  -30.9927  -20.7295   20.2218 H   0  0  0  0  0  0
  -32.2229  -16.7379   19.6697 H   0  0  0  0  0  0
  -28.6085  -17.5660   21.9705 H   0  0  0  0  0  0
  -28.8797  -20.5003   22.7631 H   0  0  0  0  0  0
  -27.6673  -19.8873   21.6562 H   0  0  0  0  0  0
  -29.6539  -23.0064   19.1492 H   0  0  0  0  0  0
  -31.0647  -23.1691   20.1509 H   0  0  0  0  0  0
  -30.4380  -25.3055   19.2486 H   0  0  0  0  0  0
  -30.3091  -25.3668   20.9858 H   0  0  0  0  0  0
  -27.7641  -24.9753   20.6957 H   0  0  0  0  0  0
  -28.0476  -25.1165   18.9495 H   0  0  0  0  0  0
  -29.2335  -15.2924   21.5456 H   0  0  0  0  0  0
  -28.6265  -21.3630   19.9130 H   0  0  0  0  0  0
  1 25  1  0  0  0
  1 30  2  0  0  0
  1 82  1  0  0  0
  2  3  1  0  0  0
  2 25  1  0  0  0
  2 85  1  0  0  0
  2 86  1  0  0  0
  3  4  1  0  0  0
  3 87  1  0  0  0
  3 88  1  0  0  0
  4  5  1  0  0  0
  4 89  1  0  0  0
  4 90  1  0  0  0
  5  6  1  0  0  0
  5 26  1  0  0  0
  5 91  1  0  0  0
  6 25  1  0  0  0
  6 92  1  0  0  0
  6 93  1  0  0  0
  7  8  2  0  0  0
  7 26  1  0  0  0
  7 29  1  0  0  0
  8  9  1  0  0  0
  8 22  1  0  0  0
  9 10  1  0  0  0
  9 27  2  0  0  0
 10 11  2  0  0  0
 10 15  1  0  0  0
 11 12  1  0  0  0
 11 94  1  0  0  0
 12 13  2  0  0  0
 12 95  1  0  0  0
 13 14  1  0  0  0
 13 31  1  0  0  0
 14 15  2  0  0  0
 14 96  1  0  0  0
 15 97  1  0  0  0
 16 17  2  0  0  0
 16 21  1  0  0  0
 16 31  1  0  0  0
 17 18  1  0  0  0
 17 98  1  0  0  0
 18 19  2  0  0  0
 18 99  1  0  0  0
 19 20  1  0  0  0
 19 24  1  0  0  0
 20 21  2  0  0  0
 20100  1  0  0  0
 21 23  1  0  0  0
 22 28  1  0  0  0
 22 32  2  0  0  0
 26 27  1  0  0  0
 28101  1  0  0  0
 28102  1  0  0  0
 29103  1  0  0  0
 29104  1  0  0  0
 33 34  1  0  0  0
 33 66  1  0  0  0
 33 70  2  0  0  0
 34 36  1  0  0  0
 34 59  1  0  0  0
 34105  1  0  0  0
 35 44  2  0  0  0
 35 45  1  0  0  0
 35 68  1  0  0  0
 36 56  1  0  0  0
 36106  1  0  0  0
 37 39  1  0  0  0
 37 47  1  0  0  0
 37 66  1  0  0  0
 37107  1  0  0  0
 38 43  2  0  0  0
 38 46  1  0  0  0
 38 47  1  0  0  0
 39 64  1  0  0  0
 39 67  2  0  0  0
 40 52  1  0  0  0
 40 53  2  0  0  0
 40 58  1  0  0  0
 41108  1  0  0  0
 41109  1  0  0  0
 41110  1  0  0  0
 41 48  1  0  0  0
 42 43  1  0  0  0
 42 66  1  0  0  0
 42111  1  0  0  0
 42112  1  0  0  0
 43 44  1  0  0  0
 44113  1  0  0  0
 45 46  2  0  0  0
 45114  1  0  0  0
 46115  1  0  0  0
 47116  1  0  0  0
 47117  1  0  0  0
 48 56  1  0  0  0
 48 65  1  0  0  0
 48118  1  0  0  0
 49 50  1  0  0  0
 49 53  1  0  0  0
 49 64  1  0  0  0
 49119  1  0  0  0
 50 51  1  0  0  0
 50120  1  0  0  0
 50121  1  0  0  0
 51 52  1  0  0  0
 51122  1  0  0  0
 51123  1  0  0  0
 52124  1  0  0  0
 52125  1  0  0  0
 53 54  1  0  0  0
 54 55  2  0  0  0
 54126  1  0  0  0
 55 57  1  0  0  0
 55127  1  0  0  0
 56 69  2  0  0  0
 57 58  2  0  0  0
 57128  1  0  0  0
 58129  1  0  0  0
 59 60  1  0  0  0
 59 61  1  0  0  0
 59 62  1  0  0  0
 60130  1  0  0  0
 60131  1  0  0  0
 60132  1  0  0  0
 61133  1  0  0  0
 61134  1  0  0  0
 61135  1  0  0  0
 62136  1  0  0  0
 62137  1  0  0  0
 62138  1  0  0  0
 63 65  1  0  0  0
 63139  1  0  0  0
 63140  1  0  0  0
 63141  1  0  0  0
 64142  1  0  0  0
 65143  1  0  0  0
 68 81  1  0  0  0
 71 72  2  0  0  0
 71 73  1  0  0  0
 71144  1  0  0  0
 72 75  1  0  0  0
 72145  1  0  0  0
 73 76  2  0  0  0
 73146  1  0  0  0
 74 75  2  0  0  0
 74 76  1  0  0  0
 74147  1  0  0  0
 75 78  1  0  0  0
 76 82  1  0  0  0
 77 79  1  0  0  0
 77 83  1  0  0  0
 77 84  2  0  0  0
 78 83  1  0  0  0
 78148  1  0  0  0
 78149  1  0  0  0
 79 80  1  0  0  0
 79150  1  0  0  0
 79151  1  0  0  0
 80 81  1  0  0  0
 80152  1  0  0  0
 80153  1  0  0  0
 81154  1  0  0  0
 81155  1  0  0  0
 82156  1  0  0  0
 83157  1  0  0  0
M  ISO  4   1 100  68 101  81 101  82 100
M  END
> <chiral flag>
0

> <version>
0

> <s_m_source_file>
/data/baiqing/PycharmProjects/Reinvent-master-3.2/result/LINK_invent/BTK/process_docking_weight1_custom_product_contain_oxygen_bond_distance_aromatic_linkinvent_7_9_3/rearranged_h_0075.sdf

> <i_m_source_file_index>
45

> <r_mmod_Potential_Energy-OPLS-2005>
-165.289016723633

> <r_mmod_Stretch_Energy-OPLS-2005>
35.4242286682129

> <r_mmod_Bend_Energy-OPLS-2005>
102.426948547363

> <r_mmod_Torsional_Energy-OPLS-2005>
210.467224121094

> <r_mmod_Improper_Torsional_Energy-OPLS-2005>
5.59003734588623

> <r_mmod_Van_der_Waal_Energy-OPLS-2005>
172.608367919922

> <r_mmod_Electrostatic_Energy-OPLS-2005>
-465.573211669922

> <r_mmod_Solvation_Energy-OPLS-2005>
-240.933349609375

> <b_mmod_Minimization_Converged-OPLS-2005>
0

> <r_mmod_RMS_Derivative-OPLS-2005>
6.16086769104004

$$$$
46
                    3D
 Structure written by MMmdl.
161170  0  0  1  0            999 V2000
  -30.5977  -14.7832   20.4380 C   0  0  0  0  0  0
  -30.4298  -12.4722   19.4909 C   0  0  0  0  0  0
  -29.5179  -12.5160   18.2449 C   0  0  0  0  0  0
  -28.0429  -12.3298   18.6529 C   0  0  0  0  0  0
  -27.6383  -13.2371   19.8454 C   0  0  2  0  0  0
  -28.6783  -13.1947   20.9874 C   0  0  0  0  0  0
  -25.2494  -13.8203   20.5679 C   0  0  0  0  0  0
  -24.1796  -13.0443   20.9201 C   0  0  0  0  0  0
  -24.6398  -11.6922   20.8739 C   0  0  0  0  0  0
  -23.9071  -10.4302   21.0405 C   0  0  0  0  0  0
  -24.3619   -9.4212   21.9185 C   0  0  0  0  0  0
  -23.6293   -8.2251   22.0758 C   0  0  0  0  0  0
  -22.4269   -8.0291   21.3555 C   0  0  0  0  0  0
  -21.9913   -9.0260   20.4660 C   0  0  0  0  0  0
  -22.7247  -10.2138   20.3060 C   0  0  0  0  0  0
  -21.6856   -6.0735   22.5283 C   0  0  0  0  0  0
  -21.4016   -6.5635   23.8213 C   0  0  0  0  0  0
  -21.3658   -5.6791   24.9176 C   0  0  0  0  0  0
  -21.6040   -4.3052   24.7225 C   0  0  0  0  0  0
  -21.8819   -3.8146   23.4348 C   0  0  0  0  0  0
  -21.9192   -4.6966   22.3405 C   0  0  0  0  0  0
  -22.7816  -13.5223   21.1851 C   0  0  0  0  0  0
  -22.1661   -4.2149   21.0983 F   0  0  0  0  0  0
  -21.5624   -3.4541   25.7741 F   0  0  0  0  0  0
  -29.9784  -13.5492   20.4076 N   0  0  0  0  0  0
  -26.2920  -12.9418   20.3237 N   0  0  0  0  0  0
  -25.9322  -11.6553   20.5720 N   0  0  0  0  0  0
  -22.0454  -12.8232   22.0420 N   0  0  0  0  0  0
  -25.4170  -15.1926   20.4068 N   0  0  0  0  0  0
  -31.7946  -14.8419   20.1417 O   0  0  0  0  0  0
  -21.6636   -6.8884   21.4250 O   0  0  0  0  0  0
  -22.3502  -14.5528   20.6694 O   0  0  0  0  0  0
  -24.6341  -31.8527   23.1972 C   0  0  0  0  0  0
  -25.9175  -32.4720   23.8313 C   0  0  1  0  0  0
  -27.2089  -27.2403   20.1464 C   0  0  0  0  0  0
  -25.5983  -33.8528   24.2262 N   0  0  0  0  0  0
  -23.4306  -30.4759   21.5388 C   0  0  2  0  0  0
  -24.8780  -28.9162   20.1116 C   0  0  0  0  0  0
  -22.7509  -29.4597   22.4894 C   0  0  0  0  0  0
  -18.0304  -28.1382   22.8462 C   0  0  0  0  0  0
  -24.1497  -36.7251   23.2637 C   0  0  0  0  0  0
  -25.9775  -30.7595   21.3801 C   0  0  0  0  0  0
  -26.0492  -29.3789   20.7259 C   0  0  0  0  0  0
  -27.2230  -28.5540   20.7294 C   0  0  0  0  0  0
  -26.0255  -26.8539   19.4920 C   0  0  0  0  0  0
  -24.8715  -27.6630   19.4794 C   0  0  0  0  0  0
  -23.6519  -29.8099   20.1547 C   0  0  0  0  0  0
  -25.4112  -36.3042   24.0335 C   0  0  1  0  0  0
  -20.5905  -28.3688   23.1254 C   0  0  2  0  0  0
  -20.6786  -26.9405   22.5402 C   0  0  0  0  0  0
  -19.5768  -26.6382   21.5198 C   0  0  0  0  0  0
  -18.1941  -26.7929   22.1594 C   0  0  0  0  0  0
  -19.1554  -28.8852   23.2852 C   0  0  0  0  0  0
  -18.9476  -30.1454   23.8871 C   0  0  0  0  0  0
  -17.6472  -30.6575   24.0554 C   0  0  0  0  0  0
  -25.9053  -34.9414   23.5085 C   0  0  0  0  0  0
  -16.5362  -29.9071   23.6337 C   0  0  0  0  0  0
  -16.7286  -28.6496   23.0338 C   0  0  0  0  0  0
  -26.4546  -31.6533   25.0701 C   0  0  0  0  0  0
  -25.3781  -31.3690   26.1435 C   0  0  0  0  0  0
  -27.0380  -30.2934   24.6197 C   0  0  0  0  0  0
  -27.6121  -32.4250   25.7465 C   0  0  0  0  0  0
  -27.5578  -37.1777   24.8465 C   0  0  0  0  0  0
  -21.4218  -29.3032   22.3633 N   0  0  0  0  0  0
  -26.4280  -37.3746   23.9424 N   0  0  0  0  0  0
  -24.6991  -31.0485   22.0944 N   0  0  0  0  0  0
  -23.4210  -28.8145   23.3001 O   0  0  0  0  0  0
  -28.2798  -26.3178   20.1585 O   0  0  0  0  0  0
  -26.5605  -34.8896   22.4642 O   0  0  0  0  0  0
  -23.5492  -32.1371   23.7265 O   0  0  0  0  0  0
  -31.1398  -17.7065   19.3930 C   0  0  0  0  0  0
  -31.3764  -19.0237   18.9498 C   0  0  0  0  0  0
  -29.2475  -18.5290   20.6485 C   0  0  0  0  0  0
  -29.4828  -19.9186   20.2311 C   0  0  0  0  0  0
  -30.0673  -17.3798   20.2538 C   0  0  0  0  0  0
  -30.5642  -20.1225   19.3337 C   0  0  0  0  0  0
  -27.3419  -21.1560   20.0184 C   0  0  0  0  0  0
  -26.9140  -22.6139   20.2541 C   0  0  1  0  0  0
  -28.2014  -23.4705   20.1173 C   0  0  1  0  0  0
  -25.7413  -23.0284   19.3541 C   0  0  0  0  0  0
  -31.5423  -21.5442   17.6515 C   0  0  0  0  0  0
  -28.0829  -24.9623   20.8058 C   0  0  0  0  0  0
  -28.6504  -21.0554   20.6267 N   0  0  0  0  0  0
  -29.8296  -15.9400   20.6303 N   0  0  0  0  0  0
  -29.1733  -22.4692   20.6597 O   0  0  0  0  0  0
  -30.7801  -21.3952   18.8425 O   0  0  0  0  0  0
  -31.4749  -12.5829   19.1949 H   0  0  0  0  0  0
  -30.3614  -11.5006   19.9815 H   0  0  0  0  0  0
  -29.8110  -11.7477   17.5278 H   0  0  0  0  0  0
  -29.6417  -13.4725   17.7339 H   0  0  0  0  0  0
  -27.9067  -11.2825   18.9249 H   0  0  0  0  0  0
  -27.3889  -12.5098   17.7989 H   0  0  0  0  0  0
  -27.6286  -14.2535   19.4498 H   0  0  0  0  0  0
  -28.7189  -12.2056   21.4476 H   0  0  0  0  0  0
  -28.4052  -13.8926   21.7807 H   0  0  0  0  0  0
  -25.2763   -9.5688   22.4758 H   0  0  0  0  0  0
  -23.9999   -7.4644   22.7474 H   0  0  0  0  0  0
  -21.0842   -8.8782   19.8973 H   0  0  0  0  0  0
  -22.3699  -10.9669   19.6164 H   0  0  0  0  0  0
  -21.2016   -7.6145   23.9712 H   0  0  0  0  0  0
  -21.1473   -6.0523   25.9073 H   0  0  0  0  0  0
  -22.0599   -2.7610   23.2848 H   0  0  0  0  0  0
  -22.4036  -11.9893   22.4833 H   0  0  0  0  0  0
  -21.1075  -13.1281   22.2602 H   0  0  0  0  0  0
  -24.6468  -15.8451   20.5102 H   0  0  0  0  0  0
  -26.2544  -15.6295   20.0441 H   0  0  0  0  0  0
  -26.7233  -32.5382   23.1043 H   0  0  0  0  0  0
  -25.0230  -33.9650   25.0476 H   0  0  0  0  0  0
  -22.7277  -31.2983   21.3914 H   0  0  0  0  0  0
  -23.3766  -35.9577   23.3282 H   0  0  0  0  0  0
  -24.3603  -36.8885   22.2057 H   0  0  0  0  0  0
  -23.7235  -37.6442   23.6658 H   0  0  0  0  0  0
  -26.1218  -31.5193   20.6107 H   0  0  0  0  0  0
  -26.8524  -30.8085   22.0163 H   0  0  0  0  0  0
  -28.1208  -28.9032   21.2200 H   0  0  0  0  0  0
  -25.9952  -25.9022   18.9858 H   0  0  0  0  0  0
  -23.9822  -27.3090   18.9760 H   0  0  0  0  0  0
  -23.7846  -30.5871   19.4009 H   0  0  0  0  0  0
  -22.7690  -29.2482   19.8438 H   0  0  0  0  0  0
  -25.1293  -36.1874   25.0826 H   0  0  0  0  0  0
  -20.9998  -28.3272   24.1374 H   0  0  0  0  0  0
  -20.5664  -26.2303   23.3604 H   0  0  0  0  0  0
  -21.6663  -26.7418   22.1220 H   0  0  0  0  0  0
  -19.6927  -25.6289   21.1243 H   0  0  0  0  0  0
  -19.6716  -27.3184   20.6720 H   0  0  0  0  0  0
  -17.4221  -26.6686   21.3982 H   0  0  0  0  0  0
  -18.0328  -26.0063   22.8983 H   0  0  0  0  0  0
  -19.7952  -30.7276   24.2225 H   0  0  0  0  0  0
  -17.5030  -31.6250   24.5159 H   0  0  0  0  0  0
  -15.5360  -30.2957   23.7671 H   0  0  0  0  0  0
  -15.8697  -28.0810   22.7048 H   0  0  0  0  0  0
  -24.6036  -30.6917   25.7811 H   0  0  0  0  0  0
  -24.8880  -32.2847   26.4748 H   0  0  0  0  0  0
  -25.8156  -30.9008   27.0265 H   0  0  0  0  0  0
  -26.2951  -29.6654   24.1265 H   0  0  0  0  0  0
  -27.4086  -29.7222   25.4718 H   0  0  0  0  0  0
  -27.8832  -30.4163   23.9424 H   0  0  0  0  0  0
  -27.2768  -33.3576   26.2003 H   0  0  0  0  0  0
  -28.3963  -32.6736   25.0304 H   0  0  0  0  0  0
  -28.0747  -31.8379   26.5407 H   0  0  0  0  0  0
  -28.2585  -38.0082   24.7524 H   0  0  0  0  0  0
  -28.1085  -36.2618   24.6265 H   0  0  0  0  0  0
  -27.2317  -37.1415   25.8873 H   0  0  0  0  0  0
  -20.9390  -29.8745   21.6839 H   0  0  0  0  0  0
  -26.0153  -38.2816   24.1423 H   0  0  0  0  0  0
  -31.8077  -16.9476   19.0171 H   0  0  0  0  0  0
  -32.2146  -19.1629   18.2853 H   0  0  0  0  0  0
  -28.4055  -18.3483   21.3003 H   0  0  0  0  0  0
  -27.4109  -20.9317   18.9526 H   0  0  0  0  0  0
  -26.6407  -20.4516   20.4690 H   0  0  0  0  0  0
  -26.5797  -22.6776   21.2914 H   0  0  0  0  0  0
  -28.4312  -23.5951   19.0582 H   0  0  0  0  0  0
  -26.0447  -23.1164   18.3101 H   0  0  0  0  0  0
  -25.3206  -23.9793   19.6720 H   0  0  0  0  0  0
  -24.9328  -22.2988   19.4081 H   0  0  0  0  0  0
  -31.4626  -22.5726   17.2972 H   0  0  0  0  0  0
  -31.1686  -20.8952   16.8585 H   0  0  0  0  0  0
  -32.5991  -21.3404   17.8201 H   0  0  0  0  0  0
  -28.8076  -24.9570   21.6194 H   0  0  0  0  0  0
  -27.1314  -25.0009   21.3367 H   0  0  0  0  0  0
  -28.9045  -15.7434   20.9837 H   0  0  0  0  0  0
  1 25  1  0  0  0
  1 30  2  0  0  0
  1 84  1  0  0  0
  2  3  1  0  0  0
  2 25  1  0  0  0
  2 87  1  0  0  0
  2 88  1  0  0  0
  3  4  1  0  0  0
  3 89  1  0  0  0
  3 90  1  0  0  0
  4  5  1  0  0  0
  4 91  1  0  0  0
  4 92  1  0  0  0
  5  6  1  0  0  0
  5 26  1  0  0  0
  5 93  1  0  0  0
  6 25  1  0  0  0
  6 94  1  0  0  0
  6 95  1  0  0  0
  7  8  2  0  0  0
  7 26  1  0  0  0
  7 29  1  0  0  0
  8  9  1  0  0  0
  8 22  1  0  0  0
  9 10  1  0  0  0
  9 27  2  0  0  0
 10 11  2  0  0  0
 10 15  1  0  0  0
 11 12  1  0  0  0
 11 96  1  0  0  0
 12 13  2  0  0  0
 12 97  1  0  0  0
 13 14  1  0  0  0
 13 31  1  0  0  0
 14 15  2  0  0  0
 14 98  1  0  0  0
 15 99  1  0  0  0
 16 17  2  0  0  0
 16 21  1  0  0  0
 16 31  1  0  0  0
 17 18  1  0  0  0
 17100  1  0  0  0
 18 19  2  0  0  0
 18101  1  0  0  0
 19 20  1  0  0  0
 19 24  1  0  0  0
 20 21  2  0  0  0
 20102  1  0  0  0
 21 23  1  0  0  0
 22 28  1  0  0  0
 22 32  2  0  0  0
 26 27  1  0  0  0
 28103  1  0  0  0
 28104  1  0  0  0
 29105  1  0  0  0
 29106  1  0  0  0
 33 34  1  0  0  0
 33 66  1  0  0  0
 33 70  2  0  0  0
 34 36  1  0  0  0
 34 59  1  0  0  0
 34107  1  0  0  0
 35 44  2  0  0  0
 35 45  1  0  0  0
 35 68  1  0  0  0
 36 56  1  0  0  0
 36108  1  0  0  0
 37 39  1  0  0  0
 37 47  1  0  0  0
 37 66  1  0  0  0
 37109  1  0  0  0
 38 43  2  0  0  0
 38 46  1  0  0  0
 38 47  1  0  0  0
 39 64  1  0  0  0
 39 67  2  0  0  0
 40 52  1  0  0  0
 40 53  2  0  0  0
 40 58  1  0  0  0
 41110  1  0  0  0
 41111  1  0  0  0
 41112  1  0  0  0
 41 48  1  0  0  0
 42 43  1  0  0  0
 42 66  1  0  0  0
 42113  1  0  0  0
 42114  1  0  0  0
 43 44  1  0  0  0
 44115  1  0  0  0
 45 46  2  0  0  0
 45116  1  0  0  0
 46117  1  0  0  0
 47118  1  0  0  0
 47119  1  0  0  0
 48 56  1  0  0  0
 48 65  1  0  0  0
 48120  1  0  0  0
 49 50  1  0  0  0
 49 53  1  0  0  0
 49 64  1  0  0  0
 49121  1  0  0  0
 50 51  1  0  0  0
 50122  1  0  0  0
 50123  1  0  0  0
 51 52  1  0  0  0
 51124  1  0  0  0
 51125  1  0  0  0
 52126  1  0  0  0
 52127  1  0  0  0
 53 54  1  0  0  0
 54 55  2  0  0  0
 54128  1  0  0  0
 55 57  1  0  0  0
 55129  1  0  0  0
 56 69  2  0  0  0
 57 58  2  0  0  0
 57130  1  0  0  0
 58131  1  0  0  0
 59 60  1  0  0  0
 59 61  1  0  0  0
 59 62  1  0  0  0
 60132  1  0  0  0
 60133  1  0  0  0
 60134  1  0  0  0
 61135  1  0  0  0
 61136  1  0  0  0
 61137  1  0  0  0
 62138  1  0  0  0
 62139  1  0  0  0
 62140  1  0  0  0
 63 65  1  0  0  0
 63141  1  0  0  0
 63142  1  0  0  0
 63143  1  0  0  0
 64144  1  0  0  0
 65145  1  0  0  0
 68 82  1  0  0  0
 71 72  2  0  0  0
 71 75  1  0  0  0
 71146  1  0  0  0
 72 76  1  0  0  0
 72147  1  0  0  0
 73 74  1  0  0  0
 73 75  2  0  0  0
 73148  1  0  0  0
 74 76  2  0  0  0
 74 83  1  0  0  0
 75 84  1  0  0  0
 76 86  1  0  0  0
 77 78  1  0  0  0
 77 83  1  0  0  0
 77149  1  0  0  0
 77150  1  0  0  0
 78 79  1  0  0  0
 78 80  1  0  0  0
 78151  1  0  0  0
 79 82  1  0  0  0
 79 85  1  0  0  0
 79152  1  0  0  0
 80153  1  0  0  0
 80154  1  0  0  0
 80155  1  0  0  0
 81 86  1  0  0  0
 81156  1  0  0  0
 81157  1  0  0  0
 81158  1  0  0  0
 82159  1  0  0  0
 82160  1  0  0  0
 83 85  1  0  0  0
 84161  1  0  0  0
M  ISO  4   1 100  68 101  82 101  84 100
M  END
> <chiral flag>
0

> <version>
0

> <s_m_source_file>
/data/baiqing/PycharmProjects/Reinvent-master-3.2/result/LINK_invent/BTK/process_docking_weight1_custom_product_contain_oxygen_bond_distance_aromatic_linkinvent_7_9_3/rearranged_h_0075.sdf

> <i_m_source_file_index>
46

> <r_mmod_Potential_Energy-OPLS-2005>
337.972564697266

> <r_mmod_Stretch_Energy-OPLS-2005>
151.847152709961

> <r_mmod_Bend_Energy-OPLS-2005>
211.836776733398

> <r_mmod_Torsional_Energy-OPLS-2005>
271.131103515625

> <r_mmod_Improper_Torsional_Energy-OPLS-2005>
8.83119964599609

> <r_mmod_Van_der_Waal_Energy-OPLS-2005>
139.37255859375

> <r_mmod_Electrostatic_Energy-OPLS-2005>
-311.740783691406

> <r_mmod_Solvation_Energy-OPLS-2005>
-234.922332763672

> <b_mmod_Minimization_Converged-OPLS-2005>
0

> <r_mmod_RMS_Derivative-OPLS-2005>
2.05846643447876

$$$$
47
                    3D
 Structure written by MMmdl.
154162  0  0  1  0            999 V2000
  -30.7134  -14.5171   20.5512 C   0  0  0  0  0  0
  -30.4168  -12.3338   19.4303 C   0  0  0  0  0  0
  -29.4930  -12.5096   18.2076 C   0  0  0  0  0  0
  -28.0152  -12.3666   18.6194 C   0  0  0  0  0  0
  -27.6565  -13.2181   19.8678 C   0  0  2  0  0  0
  -28.7026  -13.0479   20.9934 C   0  0  0  0  0  0
  -25.2577  -13.8184   20.5684 C   0  0  0  0  0  0
  -24.1844  -13.0441   20.9181 C   0  0  0  0  0  0
  -24.6420  -11.6911   20.8748 C   0  0  0  0  0  0
  -23.9083  -10.4293   21.0405 C   0  0  0  0  0  0
  -24.3637   -9.4213   21.9189 C   0  0  0  0  0  0
  -23.6310   -8.2253   22.0760 C   0  0  0  0  0  0
  -22.4294   -8.0287   21.3549 C   0  0  0  0  0  0
  -21.9927   -9.0255   20.4645 C   0  0  0  0  0  0
  -22.7255  -10.2129   20.3050 C   0  0  0  0  0  0
  -21.6847   -6.0748   22.5283 C   0  0  0  0  0  0
  -21.4014   -6.5652   23.8220 C   0  0  0  0  0  0
  -21.3660   -5.6805   24.9179 C   0  0  0  0  0  0
  -21.6035   -4.3069   24.7227 C   0  0  0  0  0  0
  -21.8821   -3.8163   23.4350 C   0  0  0  0  0  0
  -21.9196   -4.6978   22.3408 C   0  0  0  0  0  0
  -22.7870  -13.5246   21.1858 C   0  0  0  0  0  0
  -22.1656   -4.2169   21.0980 F   0  0  0  0  0  0
  -21.5632   -3.4544   25.7742 F   0  0  0  0  0  0
  -30.0264  -13.3461   20.4270 N   0  0  0  0  0  0
  -26.3021  -12.9371   20.3358 N   0  0  0  0  0  0
  -25.9355  -11.6519   20.5794 N   0  0  0  0  0  0
  -22.0506  -12.8213   22.0389 N   0  0  0  0  0  0
  -25.4268  -15.1906   20.4081 N   0  0  0  0  0  0
  -31.8575  -14.6456   20.1066 O   0  0  0  0  0  0
  -21.6646   -6.8888   21.4243 O   0  0  0  0  0  0
  -22.3554  -14.5566   20.6727 O   0  0  0  0  0  0
  -24.6196  -31.8653   23.2133 C   0  0  0  0  0  0
  -25.9079  -32.4813   23.8412 C   0  0  1  0  0  0
  -27.2234  -27.3944   20.0993 C   0  0  0  0  0  0
  -25.5931  -33.8620   24.2347 N   0  0  0  0  0  0
  -23.4090  -30.4965   21.5525 C   0  0  2  0  0  0
  -24.8557  -28.9664   20.1137 C   0  0  0  0  0  0
  -22.7421  -29.4695   22.4960 C   0  0  0  0  0  0
  -18.0272  -28.1418   22.8504 C   0  0  0  0  0  0
  -24.1475  -36.7294   23.2635 C   0  0  0  0  0  0
  -25.9439  -30.8218   21.3722 C   0  0  0  0  0  0
  -26.0217  -29.4557   20.7148 C   0  0  0  0  0  0
  -27.2112  -28.6804   20.7019 C   0  0  0  0  0  0
  -26.0368  -26.9522   19.4642 C   0  0  0  0  0  0
  -24.8610  -27.7169   19.4819 C   0  0  0  0  0  0
  -23.6201  -29.8357   20.1658 C   0  0  0  0  0  0
  -25.4099  -36.3097   24.0331 C   0  0  1  0  0  0
  -20.5868  -28.3718   23.1290 C   0  0  2  0  0  0
  -20.6771  -26.9445   22.5409 C   0  0  0  0  0  0
  -19.5743  -26.6407   21.5222 C   0  0  0  0  0  0
  -18.1919  -26.7977   22.1620 C   0  0  0  0  0  0
  -19.1525  -28.8872   23.2911 C   0  0  0  0  0  0
  -18.9453  -30.1470   23.8950 C   0  0  0  0  0  0
  -17.6449  -30.6620   24.0580 C   0  0  0  0  0  0
  -25.9029  -34.9465   23.5116 C   0  0  0  0  0  0
  -16.5337  -29.9119   23.6348 C   0  0  0  0  0  0
  -16.7250  -28.6528   23.0376 C   0  0  0  0  0  0
  -26.4514  -31.6597   25.0732 C   0  0  0  0  0  0
  -25.3778  -31.3680   26.1478 C   0  0  0  0  0  0
  -27.0352  -30.3033   24.6141 C   0  0  0  0  0  0
  -27.6078  -32.4323   25.7500 C   0  0  0  0  0  0
  -27.5579  -37.1807   24.8470 C   0  0  0  0  0  0
  -21.4135  -29.3085   22.3685 N   0  0  0  0  0  0
  -26.4287  -37.3788   23.9414 N   0  0  0  0  0  0
  -24.6770  -31.0733   22.1052 N   0  0  0  0  0  0
  -23.4160  -28.8205   23.2999 O   0  0  0  0  0  0
  -28.3440  -26.5720   20.1496 O   0  0  0  0  0  0
  -26.5569  -34.8917   22.4672 O   0  0  0  0  0  0
  -23.5377  -32.1420   23.7511 O   0  0  0  0  0  0
  -32.2686  -18.5146   21.8014 C   0  0  0  0  0  0
  -31.4196  -19.6064   21.5479 C   0  0  0  0  0  0
  -31.8115  -17.1965   21.6277 C   0  0  0  0  0  0
  -29.6329  -18.0579   20.9661 C   0  0  0  0  0  0
  -30.0808  -19.4087   21.1322 C   0  0  0  0  0  0
  -30.4907  -16.9403   21.1882 C   0  0  0  0  0  0
  -29.1906  -20.5996   20.8986 C   0  0  0  0  0  0
  -29.2197  -24.2014   20.5556 C   0  0  0  0  0  0
  -27.6970  -20.3402   20.7753 C   0  0  0  0  0  0
  -28.0215  -25.1736   20.4194 C   0  0  0  0  0  0
  -29.6986  -21.8005   20.8275 N   0  0  0  0  0  0
  -30.0161  -15.5878   21.0104 N   0  0  0  0  0  0
  -28.8748  -22.8947   20.6691 N   0  0  0  0  0  0
  -30.3892  -24.6051   20.5553 O   0  0  0  0  0  0
  -31.4627  -12.4200   19.1299 H   0  0  0  0  0  0
  -30.3146  -11.3325   19.8508 H   0  0  0  0  0  0
  -29.7390  -11.7784   17.4374 H   0  0  0  0  0  0
  -29.6559  -13.4907   17.7594 H   0  0  0  0  0  0
  -27.8288  -11.3117   18.8204 H   0  0  0  0  0  0
  -27.3640  -12.6347   17.7852 H   0  0  0  0  0  0
  -27.6831  -14.2603   19.5474 H   0  0  0  0  0  0
  -28.6911  -12.0292   21.3828 H   0  0  0  0  0  0
  -28.4683  -13.6906   21.8413 H   0  0  0  0  0  0
  -25.2775   -9.5697   22.4765 H   0  0  0  0  0  0
  -24.0017   -7.4648   22.7482 H   0  0  0  0  0  0
  -21.0864   -8.8765   19.8953 H   0  0  0  0  0  0
  -22.3718  -10.9668   19.6158 H   0  0  0  0  0  0
  -21.1991   -7.6159   23.9734 H   0  0  0  0  0  0
  -21.1471   -6.0526   25.9081 H   0  0  0  0  0  0
  -22.0600   -2.7625   23.2836 H   0  0  0  0  0  0
  -22.4122  -11.9852   22.4730 H   0  0  0  0  0  0
  -21.1115  -13.1221   22.2598 H   0  0  0  0  0  0
  -24.6539  -15.8394   20.5088 H   0  0  0  0  0  0
  -26.2710  -15.6332   20.0684 H   0  0  0  0  0  0
  -26.7149  -32.5524   23.1169 H   0  0  0  0  0  0
  -25.0131  -33.9786   25.0527 H   0  0  0  0  0  0
  -22.7015  -31.3171   21.4136 H   0  0  0  0  0  0
  -23.3753  -35.9607   23.3269 H   0  0  0  0  0  0
  -24.3570  -36.8947   22.2059 H   0  0  0  0  0  0
  -23.7203  -37.6476   23.6671 H   0  0  0  0  0  0
  -26.0549  -31.5877   20.6039 H   0  0  0  0  0  0
  -26.8318  -30.8773   21.9896 H   0  0  0  0  0  0
  -28.1052  -29.0523   21.1829 H   0  0  0  0  0  0
  -25.9829  -26.0137   18.9357 H   0  0  0  0  0  0
  -23.9690  -27.3427   18.9983 H   0  0  0  0  0  0
  -23.7334  -30.6114   19.4079 H   0  0  0  0  0  0
  -22.7442  -29.2571   19.8662 H   0  0  0  0  0  0
  -25.1292  -36.1951   25.0828 H   0  0  0  0  0  0
  -20.9996  -28.3307   24.1391 H   0  0  0  0  0  0
  -20.5675  -26.2340   23.3618 H   0  0  0  0  0  0
  -21.6626  -26.7498   22.1176 H   0  0  0  0  0  0
  -19.6885  -25.6314   21.1246 H   0  0  0  0  0  0
  -19.6677  -27.3213   20.6751 H   0  0  0  0  0  0
  -17.4193  -26.6765   21.4012 H   0  0  0  0  0  0
  -18.0295  -26.0100   22.8991 H   0  0  0  0  0  0
  -19.7922  -30.7270   24.2361 H   0  0  0  0  0  0
  -17.5006  -31.6316   24.5152 H   0  0  0  0  0  0
  -15.5349  -30.3037   23.7661 H   0  0  0  0  0  0
  -15.8652  -28.0847   22.7115 H   0  0  0  0  0  0
  -24.6001  -30.6981   25.7807 H   0  0  0  0  0  0
  -24.8910  -32.2805   26.4918 H   0  0  0  0  0  0
  -25.8141  -30.8866   27.0231 H   0  0  0  0  0  0
  -26.2904  -29.6762   24.1228 H   0  0  0  0  0  0
  -27.4146  -29.7325   25.4617 H   0  0  0  0  0  0
  -27.8726  -30.4322   23.9281 H   0  0  0  0  0  0
  -27.2718  -33.3653   26.2041 H   0  0  0  0  0  0
  -28.3926  -32.6841   25.0352 H   0  0  0  0  0  0
  -28.0703  -31.8459   26.5450 H   0  0  0  0  0  0
  -28.2593  -38.0110   24.7529 H   0  0  0  0  0  0
  -28.1096  -36.2648   24.6291 H   0  0  0  0  0  0
  -27.2292  -37.1429   25.8872 H   0  0  0  0  0  0
  -20.9308  -29.8820   21.6903 H   0  0  0  0  0  0
  -26.0168  -38.2852   24.1458 H   0  0  0  0  0  0
  -33.2824  -18.6886   22.1362 H   0  0  0  0  0  0
  -31.8078  -20.6057   21.6917 H   0  0  0  0  0  0
  -32.4940  -16.3852   21.8380 H   0  0  0  0  0  0
  -28.6181  -17.8677   20.6522 H   0  0  0  0  0  0
  -27.4860  -19.7040   19.9151 H   0  0  0  0  0  0
  -27.0809  -21.2289   20.6502 H   0  0  0  0  0  0
  -27.3269  -19.8336   21.6684 H   0  0  0  0  0  0
  -27.4368  -25.1194   21.3417 H   0  0  0  0  0  0
  -27.4213  -24.7380   19.6220 H   0  0  0  0  0  0
  -29.0321  -15.4264   21.1638 H   0  0  0  0  0  0
  -27.8877  -22.6741   20.6497 H   0  0  0  0  0  0
  1 25  1  0  0  0
  1 30  2  0  0  0
  1 82  1  0  0  0
  2  3  1  0  0  0
  2 25  1  0  0  0
  2 85  1  0  0  0
  2 86  1  0  0  0
  3  4  1  0  0  0
  3 87  1  0  0  0
  3 88  1  0  0  0
  4  5  1  0  0  0
  4 89  1  0  0  0
  4 90  1  0  0  0
  5  6  1  0  0  0
  5 26  1  0  0  0
  5 91  1  0  0  0
  6 25  1  0  0  0
  6 92  1  0  0  0
  6 93  1  0  0  0
  7  8  2  0  0  0
  7 26  1  0  0  0
  7 29  1  0  0  0
  8  9  1  0  0  0
  8 22  1  0  0  0
  9 10  1  0  0  0
  9 27  2  0  0  0
 10 11  2  0  0  0
 10 15  1  0  0  0
 11 12  1  0  0  0
 11 94  1  0  0  0
 12 13  2  0  0  0
 12 95  1  0  0  0
 13 14  1  0  0  0
 13 31  1  0  0  0
 14 15  2  0  0  0
 14 96  1  0  0  0
 15 97  1  0  0  0
 16 17  2  0  0  0
 16 21  1  0  0  0
 16 31  1  0  0  0
 17 18  1  0  0  0
 17 98  1  0  0  0
 18 19  2  0  0  0
 18 99  1  0  0  0
 19 20  1  0  0  0
 19 24  1  0  0  0
 20 21  2  0  0  0
 20100  1  0  0  0
 21 23  1  0  0  0
 22 28  1  0  0  0
 22 32  2  0  0  0
 26 27  1  0  0  0
 28101  1  0  0  0
 28102  1  0  0  0
 29103  1  0  0  0
 29104  1  0  0  0
 33 34  1  0  0  0
 33 66  1  0  0  0
 33 70  2  0  0  0
 34 36  1  0  0  0
 34 59  1  0  0  0
 34105  1  0  0  0
 35 44  2  0  0  0
 35 45  1  0  0  0
 35 68  1  0  0  0
 36 56  1  0  0  0
 36106  1  0  0  0
 37 39  1  0  0  0
 37 47  1  0  0  0
 37 66  1  0  0  0
 37107  1  0  0  0
 38 43  2  0  0  0
 38 46  1  0  0  0
 38 47  1  0  0  0
 39 64  1  0  0  0
 39 67  2  0  0  0
 40 52  1  0  0  0
 40 53  2  0  0  0
 40 58  1  0  0  0
 41108  1  0  0  0
 41109  1  0  0  0
 41110  1  0  0  0
 41 48  1  0  0  0
 42 43  1  0  0  0
 42 66  1  0  0  0
 42111  1  0  0  0
 42112  1  0  0  0
 43 44  1  0  0  0
 44113  1  0  0  0
 45 46  2  0  0  0
 45114  1  0  0  0
 46115  1  0  0  0
 47116  1  0  0  0
 47117  1  0  0  0
 48 56  1  0  0  0
 48 65  1  0  0  0
 48118  1  0  0  0
 49 50  1  0  0  0
 49 53  1  0  0  0
 49 64  1  0  0  0
 49119  1  0  0  0
 50 51  1  0  0  0
 50120  1  0  0  0
 50121  1  0  0  0
 51 52  1  0  0  0
 51122  1  0  0  0
 51123  1  0  0  0
 52124  1  0  0  0
 52125  1  0  0  0
 53 54  1  0  0  0
 54 55  2  0  0  0
 54126  1  0  0  0
 55 57  1  0  0  0
 55127  1  0  0  0
 56 69  2  0  0  0
 57 58  2  0  0  0
 57128  1  0  0  0
 58129  1  0  0  0
 59 60  1  0  0  0
 59 61  1  0  0  0
 59 62  1  0  0  0
 60130  1  0  0  0
 60131  1  0  0  0
 60132  1  0  0  0
 61133  1  0  0  0
 61134  1  0  0  0
 61135  1  0  0  0
 62136  1  0  0  0
 62137  1  0  0  0
 62138  1  0  0  0
 63 65  1  0  0  0
 63139  1  0  0  0
 63140  1  0  0  0
 63141  1  0  0  0
 64142  1  0  0  0
 65143  1  0  0  0
 68 80  1  0  0  0
 71 72  2  0  0  0
 71 73  1  0  0  0
 71144  1  0  0  0
 72 75  1  0  0  0
 72145  1  0  0  0
 73 76  2  0  0  0
 73146  1  0  0  0
 74 75  2  0  0  0
 74 76  1  0  0  0
 74147  1  0  0  0
 75 77  1  0  0  0
 76 82  1  0  0  0
 77 79  1  0  0  0
 77 81  2  0  0  0
 78 80  1  0  0  0
 78 83  1  0  0  0
 78 84  2  0  0  0
 79148  1  0  0  0
 79149  1  0  0  0
 79150  1  0  0  0
 80151  1  0  0  0
 80152  1  0  0  0
 81 83  1  0  0  0
 82153  1  0  0  0
 83154  1  0  0  0
M  ISO  4   1 100  68 101  80 101  82 100
M  END
> <chiral flag>
0

> <version>
0

> <s_m_source_file>
/data/baiqing/PycharmProjects/Reinvent-master-3.2/result/LINK_invent/BTK/process_docking_weight1_custom_product_contain_oxygen_bond_distance_aromatic_linkinvent_7_9_3/rearranged_h_0075.sdf

> <i_m_source_file_index>
47

> <r_mmod_Potential_Energy-OPLS-2005>
-14.3917999267578

> <r_mmod_Stretch_Energy-OPLS-2005>
52.8304901123047

> <r_mmod_Bend_Energy-OPLS-2005>
108.092872619629

> <r_mmod_Torsional_Energy-OPLS-2005>
215.870788574219

> <r_mmod_Improper_Torsional_Energy-OPLS-2005>
4.16993856430054

> <r_mmod_Van_der_Waal_Energy-OPLS-2005>
171.475662231445

> <r_mmod_Electrostatic_Energy-OPLS-2005>
-329.398010253906

> <r_mmod_Solvation_Energy-OPLS-2005>
-260.621612548828

> <b_mmod_Minimization_Converged-OPLS-2005>
0

> <r_mmod_RMS_Derivative-OPLS-2005>
2.59941267967224

$$$$
48
                    3D
 Structure written by MMmdl.
167176  0  0  1  0            999 V2000
  -30.7124  -14.4275   20.5196 C   0  0  0  0  0  0
  -30.4188  -12.2717   19.4105 C   0  0  0  0  0  0
  -29.4869  -12.4840   18.1955 C   0  0  0  0  0  0
  -28.0060  -12.3634   18.6100 C   0  0  0  0  0  0
  -27.6600  -13.1990   19.8713 C   0  0  2  0  0  0
  -28.7045  -12.9600   20.9838 C   0  0  0  0  0  0
  -25.2591  -13.8147   20.5671 C   0  0  0  0  0  0
  -24.1818  -13.0438   20.9153 C   0  0  0  0  0  0
  -24.6371  -11.6898   20.8727 C   0  0  0  0  0  0
  -23.9040  -10.4283   21.0403 C   0  0  0  0  0  0
  -24.3600   -9.4196   21.9174 C   0  0  0  0  0  0
  -23.6278   -8.2228   22.0752 C   0  0  0  0  0  0
  -22.4265   -8.0255   21.3528 C   0  0  0  0  0  0
  -21.9888   -9.0242   20.4641 C   0  0  0  0  0  0
  -22.7217  -10.2125   20.3050 C   0  0  0  0  0  0
  -21.6852   -6.0710   22.5257 C   0  0  0  0  0  0
  -21.4028   -6.5615   23.8192 C   0  0  0  0  0  0
  -21.3657   -5.6772   24.9158 C   0  0  0  0  0  0
  -21.6049   -4.3029   24.7223 C   0  0  0  0  0  0
  -21.8828   -3.8115   23.4344 C   0  0  0  0  0  0
  -21.9211   -4.6936   22.3402 C   0  0  0  0  0  0
  -22.7853  -13.5239   21.1842 C   0  0  0  0  0  0
  -22.1661   -4.2106   21.0983 F   0  0  0  0  0  0
  -21.5660   -3.4529   25.7752 F   0  0  0  0  0  0
  -30.0342  -13.2545   20.4301 N   0  0  0  0  0  0
  -26.3015  -12.9301   20.3372 N   0  0  0  0  0  0
  -25.9294  -11.6460   20.5736 N   0  0  0  0  0  0
  -22.0518  -12.8236   22.0416 N   0  0  0  0  0  0
  -25.4353  -15.1843   20.4083 N   0  0  0  0  0  0
  -31.8962  -14.5598   20.2053 O   0  0  0  0  0  0
  -21.6636   -6.8838   21.4209 O   0  0  0  0  0  0
  -22.3502  -14.5535   20.6674 O   0  0  0  0  0  0
  -24.6078  -31.8700   23.2161 C   0  0  0  0  0  0
  -25.8964  -32.4843   23.8445 C   0  0  1  0  0  0
  -27.2218  -27.4765   20.0801 C   0  0  0  0  0  0
  -25.5833  -33.8648   24.2356 N   0  0  0  0  0  0
  -23.3938  -30.4968   21.5551 C   0  0  2  0  0  0
  -24.8415  -28.9752   20.1064 C   0  0  0  0  0  0
  -22.7376  -29.4673   22.5011 C   0  0  0  0  0  0
  -18.0275  -28.1352   22.8504 C   0  0  0  0  0  0
  -24.1486  -36.7344   23.2640 C   0  0  0  0  0  0
  -25.9206  -30.8468   21.3649 C   0  0  0  0  0  0
  -25.9982  -29.4872   20.7088 C   0  0  0  0  0  0
  -27.1947  -28.7395   20.7023 C   0  0  0  0  0  0
  -26.0610  -26.9806   19.4510 C   0  0  0  0  0  0
  -24.8659  -27.7199   19.4755 C   0  0  0  0  0  0
  -23.5963  -29.8304   20.1679 C   0  0  0  0  0  0
  -25.4107  -36.3139   24.0338 C   0  0  1  0  0  0
  -20.5858  -28.3682   23.1360 C   0  0  2  0  0  0
  -20.6772  -26.9422   22.5463 C   0  0  0  0  0  0
  -19.5776  -26.6384   21.5237 C   0  0  0  0  0  0
  -18.1936  -26.7925   22.1585 C   0  0  0  0  0  0
  -19.1507  -28.8824   23.2927 C   0  0  0  0  0  0
  -18.9397  -30.1432   23.8902 C   0  0  0  0  0  0
  -17.6391  -30.6548   24.0546 C   0  0  0  0  0  0
  -25.9012  -34.9497   23.5158 C   0  0  0  0  0  0
  -16.5294  -29.9041   23.6286 C   0  0  0  0  0  0
  -16.7248  -28.6453   23.0341 C   0  0  0  0  0  0
  -26.4423  -31.6621   25.0753 C   0  0  0  0  0  0
  -25.3719  -31.3687   26.1519 C   0  0  0  0  0  0
  -27.0253  -30.3080   24.6081 C   0  0  0  0  0  0
  -27.6016  -32.4346   25.7488 C   0  0  0  0  0  0
  -27.5588  -37.1824   24.8461 C   0  0  0  0  0  0
  -21.4105  -29.3076   22.3772 N   0  0  0  0  0  0
  -26.4314  -37.3810   23.9397 N   0  0  0  0  0  0
  -24.6592  -31.0825   22.1044 N   0  0  0  0  0  0
  -23.4164  -28.8211   23.3023 O   0  0  0  0  0  0
  -28.3541  -26.7045   20.1004 O   0  0  0  0  0  0
  -26.5600  -34.8918   22.4724 O   0  0  0  0  0  0
  -23.5259  -32.1458   23.7540 O   0  0  0  0  0  0
  -27.6817  -17.8673   23.0854 C   0  0  0  0  0  0
  -28.6606  -17.4606   20.9116 C   0  0  0  0  0  0
  -29.0602  -15.8854   22.7297 C   0  0  0  0  0  0
  -27.8833  -18.2980   21.7456 C   0  0  0  0  0  0
  -28.2677  -16.6841   23.5791 C   0  0  0  0  0  0
  -29.2278  -16.2601   21.3780 C   0  0  0  0  0  0
  -27.5803  -21.3103   19.5598 C   0  0  0  0  0  0
  -27.4961  -24.7376   21.2790 C   0  0  0  0  0  0
  -27.2057  -19.8482   19.8465 C   0  0  0  0  0  0
  -26.7666  -20.4583   22.2463 C   0  0  0  0  0  0
  -26.4619  -21.8655   21.6727 C   0  0  2  0  0  0
  -24.9721  -21.9833   21.2859 C   0  0  0  0  0  0
  -27.8260  -23.6128   20.2804 C   0  0  0  0  0  0
  -28.4684  -25.9287   21.3001 C   0  0  0  0  0  0
  -27.3372  -19.5230   21.2760 N   0  0  0  0  0  0
  -27.3009  -22.2394   20.5071 N   0  0  0  0  0  0
  -28.0622  -16.3101   24.9086 N   0  0  0  0  0  0
  -29.9516  -15.5197   20.4077 N   0  0  0  0  0  0
  -28.1684  -21.5742   18.5056 O   0  0  0  0  0  0
  -26.4488  -24.7869   21.9298 O   0  0  0  0  0  0
  -31.4624  -12.3669   19.1040 H   0  0  0  0  0  0
  -30.3171  -11.2581   19.8003 H   0  0  0  0  0  0
  -29.7137  -11.7522   17.4189 H   0  0  0  0  0  0
  -29.6658  -13.4665   17.7515 H   0  0  0  0  0  0
  -27.8014  -11.3089   18.8009 H   0  0  0  0  0  0
  -27.3572  -12.6499   17.7808 H   0  0  0  0  0  0
  -27.7092  -14.2493   19.5853 H   0  0  0  0  0  0
  -28.6696  -11.9260   21.3304 H   0  0  0  0  0  0
  -28.4657  -13.5618   21.8543 H   0  0  0  0  0  0
  -25.2764   -9.5684   22.4703 H   0  0  0  0  0  0
  -24.0010   -7.4629   22.7482 H   0  0  0  0  0  0
  -21.0813   -8.8751   19.8940 H   0  0  0  0  0  0
  -22.3672  -10.9656   19.6130 H   0  0  0  0  0  0
  -21.1990   -7.6115   23.9684 H   0  0  0  0  0  0
  -21.1477   -6.0498   25.9057 H   0  0  0  0  0  0
  -22.0613   -2.7572   23.2873 H   0  0  0  0  0  0
  -22.4180  -11.9905   22.4771 H   0  0  0  0  0  0
  -21.1111  -13.1188   22.2619 H   0  0  0  0  0  0
  -24.6779  -15.8462   20.5344 H   0  0  0  0  0  0
  -26.3128  -15.6193   20.1535 H   0  0  0  0  0  0
  -26.7044  -32.5566   23.1226 H   0  0  0  0  0  0
  -24.9983  -33.9843   25.0498 H   0  0  0  0  0  0
  -22.6785  -31.3120   21.4232 H   0  0  0  0  0  0
  -23.3739  -35.9689   23.3324 H   0  0  0  0  0  0
  -24.3581  -36.8927   22.2052 H   0  0  0  0  0  0
  -23.7243  -37.6557   23.6641 H   0  0  0  0  0  0
  -26.0258  -31.6182   20.6016 H   0  0  0  0  0  0
  -26.8108  -30.8993   21.9793 H   0  0  0  0  0  0
  -28.0873  -29.1243   21.1759 H   0  0  0  0  0  0
  -26.0754  -26.0186   18.9591 H   0  0  0  0  0  0
  -23.9766  -27.3262   19.0011 H   0  0  0  0  0  0
  -23.6879  -30.6056   19.4059 H   0  0  0  0  0  0
  -22.7220  -29.2423   19.8791 H   0  0  0  0  0  0
  -25.1277  -36.2045   25.0837 H   0  0  0  0  0  0
  -20.9945  -28.3256   24.1501 H   0  0  0  0  0  0
  -20.5700  -26.2319   23.3678 H   0  0  0  0  0  0
  -21.6642  -26.7454   22.1230 H   0  0  0  0  0  0
  -19.6976  -25.6295   21.1281 H   0  0  0  0  0  0
  -19.6764  -27.3181   20.6767 H   0  0  0  0  0  0
  -17.4223  -26.6732   21.3950 H   0  0  0  0  0  0
  -18.0278  -26.0009   22.8901 H   0  0  0  0  0  0
  -19.7862  -30.7281   24.2243 H   0  0  0  0  0  0
  -17.4893  -31.6244   24.5127 H   0  0  0  0  0  0
  -15.5283  -30.2931   23.7551 H   0  0  0  0  0  0
  -15.8662  -28.0745   22.7041 H   0  0  0  0  0  0
  -24.5875  -30.7035   25.7870 H   0  0  0  0  0  0
  -24.8923  -32.2829   26.5040 H   0  0  0  0  0  0
  -25.8104  -30.8826   27.0244 H   0  0  0  0  0  0
  -26.2795  -29.6859   24.1110 H   0  0  0  0  0  0
  -27.4025  -29.7269   25.4501 H   0  0  0  0  0  0
  -27.8629  -30.4420   23.9226 H   0  0  0  0  0  0
  -27.2641  -33.3624   26.2118 H   0  0  0  0  0  0
  -28.3796  -32.6939   25.0297 H   0  0  0  0  0  0
  -28.0736  -31.8455   26.5358 H   0  0  0  0  0  0
  -28.2615  -38.0113   24.7493 H   0  0  0  0  0  0
  -28.1077  -36.2638   24.6326 H   0  0  0  0  0  0
  -27.2292  -37.1510   25.8860 H   0  0  0  0  0  0
  -20.9249  -29.8850   21.7043 H   0  0  0  0  0  0
  -26.0213  -38.2896   24.1393 H   0  0  0  0  0  0
  -27.0721  -18.4409   23.7674 H   0  0  0  0  0  0
  -28.8677  -17.7130   19.8861 H   0  0  0  0  0  0
  -29.5217  -14.9890   23.1187 H   0  0  0  0  0  0
  -27.7964  -19.2342   19.1763 H   0  0  0  0  0  0
  -26.1715  -19.6902   19.5444 H   0  0  0  0  0  0
  -25.8753  -20.0342   22.7123 H   0  0  0  0  0  0
  -27.4936  -20.5895   23.0497 H   0  0  0  0  0  0
  -26.6389  -22.5238   22.5189 H   0  0  0  0  0  0
  -24.3298  -21.8471   22.1560 H   0  0  0  0  0  0
  -24.6871  -21.2323   20.5496 H   0  0  0  0  0  0
  -24.7354  -22.9612   20.8643 H   0  0  0  0  0  0
  -28.9120  -23.5604   20.2014 H   0  0  0  0  0  0
  -27.4687  -23.9627   19.3102 H   0  0  0  0  0  0
  -28.2717  -26.5503   22.1738 H   0  0  0  0  0  0
  -29.4884  -25.5565   21.3956 H   0  0  0  0  0  0
  -27.6604  -16.9697   25.5700 H   0  0  0  0  0  0
  -28.6577  -15.6154   25.3472 H   0  0  0  0  0  0
  -30.3178  -16.1138   19.6787 H   0  0  0  0  0  0
  1 25  1  0  0  0
  1 30  2  0  0  0
  1 88  1  0  0  0
  2  3  1  0  0  0
  2 25  1  0  0  0
  2 91  1  0  0  0
  2 92  1  0  0  0
  3  4  1  0  0  0
  3 93  1  0  0  0
  3 94  1  0  0  0
  4  5  1  0  0  0
  4 95  1  0  0  0
  4 96  1  0  0  0
  5  6  1  0  0  0
  5 26  1  0  0  0
  5 97  1  0  0  0
  6 25  1  0  0  0
  6 98  1  0  0  0
  6 99  1  0  0  0
  7  8  2  0  0  0
  7 26  1  0  0  0
  7 29  1  0  0  0
  8  9  1  0  0  0
  8 22  1  0  0  0
  9 10  1  0  0  0
  9 27  2  0  0  0
 10 11  2  0  0  0
 10 15  1  0  0  0
 11 12  1  0  0  0
 11100  1  0  0  0
 12 13  2  0  0  0
 12101  1  0  0  0
 13 14  1  0  0  0
 13 31  1  0  0  0
 14 15  2  0  0  0
 14102  1  0  0  0
 15103  1  0  0  0
 16 17  2  0  0  0
 16 21  1  0  0  0
 16 31  1  0  0  0
 17 18  1  0  0  0
 17104  1  0  0  0
 18 19  2  0  0  0
 18105  1  0  0  0
 19 20  1  0  0  0
 19 24  1  0  0  0
 20 21  2  0  0  0
 20106  1  0  0  0
 21 23  1  0  0  0
 22 28  1  0  0  0
 22 32  2  0  0  0
 26 27  1  0  0  0
 28107  1  0  0  0
 28108  1  0  0  0
 29109  1  0  0  0
 29110  1  0  0  0
 33 34  1  0  0  0
 33 66  1  0  0  0
 33 70  2  0  0  0
 34 36  1  0  0  0
 34 59  1  0  0  0
 34111  1  0  0  0
 35 44  2  0  0  0
 35 45  1  0  0  0
 35 68  1  0  0  0
 36 56  1  0  0  0
 36112  1  0  0  0
 37 39  1  0  0  0
 37 47  1  0  0  0
 37 66  1  0  0  0
 37113  1  0  0  0
 38 43  2  0  0  0
 38 46  1  0  0  0
 38 47  1  0  0  0
 39 64  1  0  0  0
 39 67  2  0  0  0
 40 52  1  0  0  0
 40 53  2  0  0  0
 40 58  1  0  0  0
 41114  1  0  0  0
 41115  1  0  0  0
 41116  1  0  0  0
 41 48  1  0  0  0
 42 43  1  0  0  0
 42 66  1  0  0  0
 42117  1  0  0  0
 42118  1  0  0  0
 43 44  1  0  0  0
 44119  1  0  0  0
 45 46  2  0  0  0
 45120  1  0  0  0
 46121  1  0  0  0
 47122  1  0  0  0
 47123  1  0  0  0
 48 56  1  0  0  0
 48 65  1  0  0  0
 48124  1  0  0  0
 49 50  1  0  0  0
 49 53  1  0  0  0
 49 64  1  0  0  0
 49125  1  0  0  0
 50 51  1  0  0  0
 50126  1  0  0  0
 50127  1  0  0  0
 51 52  1  0  0  0
 51128  1  0  0  0
 51129  1  0  0  0
 52130  1  0  0  0
 52131  1  0  0  0
 53 54  1  0  0  0
 54 55  2  0  0  0
 54132  1  0  0  0
 55 57  1  0  0  0
 55133  1  0  0  0
 56 69  2  0  0  0
 57 58  2  0  0  0
 57134  1  0  0  0
 58135  1  0  0  0
 59 60  1  0  0  0
 59 61  1  0  0  0
 59 62  1  0  0  0
 60136  1  0  0  0
 60137  1  0  0  0
 60138  1  0  0  0
 61139  1  0  0  0
 61140  1  0  0  0
 61141  1  0  0  0
 62142  1  0  0  0
 62143  1  0  0  0
 62144  1  0  0  0
 63 65  1  0  0  0
 63145  1  0  0  0
 63146  1  0  0  0
 63147  1  0  0  0
 64148  1  0  0  0
 65149  1  0  0  0
 68 84  1  0  0  0
 71 74  2  0  0  0
 71 75  1  0  0  0
 71150  1  0  0  0
 72 74  1  0  0  0
 72 76  2  0  0  0
 72151  1  0  0  0
 73 75  2  0  0  0
 73 76  1  0  0  0
 73152  1  0  0  0
 74 85  1  0  0  0
 75 87  1  0  0  0
 76 88  1  0  0  0
 77 79  1  0  0  0
 77 86  1  0  0  0
 77 89  2  0  0  0
 78 83  1  0  0  0
 78 84  1  0  0  0
 78 90  2  0  0  0
 79 85  1  0  0  0
 79153  1  0  0  0
 79154  1  0  0  0
 80 81  1  0  0  0
 80 85  1  0  0  0
 80155  1  0  0  0
 80156  1  0  0  0
 81 82  1  0  0  0
 81 86  1  0  0  0
 81157  1  0  0  0
 82158  1  0  0  0
 82159  1  0  0  0
 82160  1  0  0  0
 83 86  1  0  0  0
 83161  1  0  0  0
 83162  1  0  0  0
 84163  1  0  0  0
 84164  1  0  0  0
 87165  1  0  0  0
 87166  1  0  0  0
 88167  1  0  0  0
M  ISO  4   1 100  68 101  84 101  88 100
M  END
> <chiral flag>
0

> <version>
0

> <s_m_source_file>
/data/baiqing/PycharmProjects/Reinvent-master-3.2/result/LINK_invent/BTK/process_docking_weight1_custom_product_contain_oxygen_bond_distance_aromatic_linkinvent_7_9_3/rearranged_h_0075.sdf

> <i_m_source_file_index>
48

> <r_mmod_Potential_Energy-OPLS-2005>
203.093338012695

> <r_mmod_Stretch_Energy-OPLS-2005>
40.6239128112793

> <r_mmod_Bend_Energy-OPLS-2005>
152.276062011719

> <r_mmod_Torsional_Energy-OPLS-2005>
335.391723632812

> <r_mmod_Improper_Torsional_Energy-OPLS-2005>
24.3931579589844

> <r_mmod_Van_der_Waal_Energy-OPLS-2005>
180.76611328125

> <r_mmod_Electrostatic_Energy-OPLS-2005>
-298.980407714844

> <r_mmod_Solvation_Energy-OPLS-2005>
-247.543167114258

> <b_mmod_Minimization_Converged-OPLS-2005>
0

> <r_mmod_RMS_Derivative-OPLS-2005>
3.81054973602295

$$$$
49
                    3D
 Structure written by MMmdl.
158167  0  0  1  0            999 V2000
  -30.6437  -14.6893   20.5824 C   0  0  0  0  0  0
  -30.4351  -12.4464   19.4676 C   0  0  0  0  0  0
  -29.5088  -12.5273   18.2343 C   0  0  0  0  0  0
  -28.0367  -12.3382   18.6443 C   0  0  0  0  0  0
  -27.6478  -13.2223   19.8562 C   0  0  2  0  0  0
  -28.6819  -13.0990   20.9909 C   0  0  0  0  0  0
  -25.2535  -13.8181   20.5685 C   0  0  0  0  0  0
  -24.1808  -13.0437   20.9187 C   0  0  0  0  0  0
  -24.6389  -11.6912   20.8724 C   0  0  0  0  0  0
  -23.9060  -10.4288   21.0393 C   0  0  0  0  0  0
  -24.3616   -9.4207   21.9174 C   0  0  0  0  0  0
  -23.6298   -8.2240   22.0747 C   0  0  0  0  0  0
  -22.4276   -8.0278   21.3542 C   0  0  0  0  0  0
  -21.9904   -9.0245   20.4642 C   0  0  0  0  0  0
  -22.7227  -10.2128   20.3046 C   0  0  0  0  0  0
  -21.6849   -6.0739   22.5286 C   0  0  0  0  0  0
  -21.4012   -6.5644   23.8218 C   0  0  0  0  0  0
  -21.3661   -5.6796   24.9180 C   0  0  0  0  0  0
  -21.6039   -4.3057   24.7227 C   0  0  0  0  0  0
  -21.8823   -3.8152   23.4349 C   0  0  0  0  0  0
  -21.9192   -4.6969   22.3409 C   0  0  0  0  0  0
  -22.7835  -13.5227   21.1865 C   0  0  0  0  0  0
  -22.1663   -4.2154   21.0985 F   0  0  0  0  0  0
  -21.5625   -3.4542   25.7742 F   0  0  0  0  0  0
  -30.0003  -13.4720   20.4479 N   0  0  0  0  0  0
  -26.2951  -12.9367   20.3262 N   0  0  0  0  0  0
  -25.9311  -11.6512   20.5707 N   0  0  0  0  0  0
  -22.0497  -12.8208   22.0427 N   0  0  0  0  0  0
  -25.4259  -15.1908   20.4161 N   0  0  0  0  0  0
  -31.7377  -14.8668   20.0344 O   0  0  0  0  0  0
  -21.6636   -6.8880   21.4245 O   0  0  0  0  0  0
  -22.3514  -14.5529   20.6709 O   0  0  0  0  0  0
  -24.6317  -31.8550   23.1989 C   0  0  0  0  0  0
  -25.9149  -32.4746   23.8322 C   0  0  1  0  0  0
  -27.2212  -27.2683   20.1233 C   0  0  0  0  0  0
  -25.5961  -33.8553   24.2259 N   0  0  0  0  0  0
  -23.4273  -30.4799   21.5416 C   0  0  2  0  0  0
  -24.8744  -28.9295   20.1074 C   0  0  0  0  0  0
  -22.7496  -29.4606   22.4901 C   0  0  0  0  0  0
  -18.0293  -28.1390   22.8466 C   0  0  0  0  0  0
  -24.1495  -36.7278   23.2633 C   0  0  0  0  0  0
  -25.9737  -30.7708   21.3778 C   0  0  0  0  0  0
  -26.0458  -29.3940   20.7188 C   0  0  0  0  0  0
  -27.2205  -28.5754   20.7185 C   0  0  0  0  0  0
  -26.0287  -26.8794   19.4696 C   0  0  0  0  0  0
  -24.8709  -27.6806   19.4706 C   0  0  0  0  0  0
  -23.6453  -29.8169   20.1564 C   0  0  0  0  0  0
  -25.4110  -36.3061   24.0329 C   0  0  1  0  0  0
  -20.5897  -28.3704   23.1260 C   0  0  2  0  0  0
  -20.6785  -26.9425   22.5407 C   0  0  0  0  0  0
  -19.5764  -26.6387   21.5211 C   0  0  0  0  0  0
  -18.1937  -26.7933   22.1613 C   0  0  0  0  0  0
  -19.1548  -28.8860   23.2858 C   0  0  0  0  0  0
  -18.9470  -30.1460   23.8881 C   0  0  0  0  0  0
  -17.6469  -30.6588   24.0558 C   0  0  0  0  0  0
  -25.9048  -34.9435   23.5082 C   0  0  0  0  0  0
  -16.5355  -29.9084   23.6339 C   0  0  0  0  0  0
  -16.7279  -28.6506   23.0342 C   0  0  0  0  0  0
  -26.4520  -31.6562   25.0704 C   0  0  0  0  0  0
  -25.3763  -31.3749   26.1446 C   0  0  0  0  0  0
  -27.0326  -30.2955   24.6198 C   0  0  0  0  0  0
  -27.6096  -32.4284   25.7461 C   0  0  0  0  0  0
  -27.5581  -37.1774   24.8457 C   0  0  0  0  0  0
  -21.4208  -29.3037   22.3635 N   0  0  0  0  0  0
  -26.4275  -37.3767   23.9423 N   0  0  0  0  0  0
  -24.6966  -31.0536   22.0952 N   0  0  0  0  0  0
  -23.4197  -28.8155   23.3007 O   0  0  0  0  0  0
  -28.3153  -26.3710   20.1971 O   0  0  0  0  0  0
  -26.5616  -34.8915   22.4646 O   0  0  0  0  0  0
  -23.5472  -32.1368   23.7298 O   0  0  0  0  0  0
  -28.7983  -19.3291   21.7552 C   0  0  0  0  0  0
  -30.1282  -19.3041   19.8167 C   0  0  0  0  0  0
  -29.0002  -17.9229   21.9169 C   0  0  0  0  0  0
  -30.3411  -17.8834   19.9612 C   0  0  0  0  0  0
  -29.3662  -20.1212   20.7168 C   0  0  0  0  0  0
  -29.8070  -17.1295   21.0481 C   0  0  0  0  0  0
  -28.4797  -22.6013   21.3566 C   0  0  0  0  0  0
  -29.4159  -22.4690   19.5119 C   0  0  0  0  0  0
  -29.1042  -23.7338   20.4233 C   0  0  2  0  0  0
  -30.2957  -24.3854   21.1317 C   0  0  0  0  0  0
  -30.0775  -15.3708   22.8017 C   0  0  0  0  0  0
  -28.0813  -24.8998   19.9624 C   0  0  0  0  0  0
  -29.1901  -21.5985   20.6728 N   0  0  0  0  0  0
  -30.0640  -15.6871   21.3613 N   0  0  0  0  0  0
  -27.6890  -22.5402   22.2743 O   0  0  0  0  0  0
  -31.4745  -12.5793   19.1637 H   0  0  0  0  0  0
  -30.3865  -11.4541   19.9185 H   0  0  0  0  0  0
  -29.7915  -11.7727   17.4988 H   0  0  0  0  0  0
  -29.6316  -13.4951   17.7452 H   0  0  0  0  0  0
  -27.8979  -11.2867   18.8981 H   0  0  0  0  0  0
  -27.3761  -12.5377   17.7992 H   0  0  0  0  0  0
  -27.6626  -14.2544   19.5061 H   0  0  0  0  0  0
  -28.7090  -12.0811   21.3827 H   0  0  0  0  0  0
  -28.3695  -13.7242   21.8217 H   0  0  0  0  0  0
  -25.2767   -9.5687   22.4733 H   0  0  0  0  0  0
  -24.0012   -7.4637   22.7463 H   0  0  0  0  0  0
  -21.0836   -8.8763   19.8952 H   0  0  0  0  0  0
  -22.3685  -10.9661   19.6151 H   0  0  0  0  0  0
  -21.1999   -7.6149   23.9721 H   0  0  0  0  0  0
  -21.1477   -6.0526   25.9082 H   0  0  0  0  0  0
  -22.0594   -2.7614   23.2850 H   0  0  0  0  0  0
  -22.4128  -11.9876   22.4810 H   0  0  0  0  0  0
  -21.1115  -13.1224   22.2641 H   0  0  0  0  0  0
  -24.6677  -15.8511   20.5482 H   0  0  0  0  0  0
  -26.2894  -15.6321   20.1252 H   0  0  0  0  0  0
  -26.7213  -32.5406   23.1056 H   0  0  0  0  0  0
  -25.0146  -33.9686   25.0434 H   0  0  0  0  0  0
  -22.7241  -31.3031   21.3984 H   0  0  0  0  0  0
  -23.3766  -35.9602   23.3268 H   0  0  0  0  0  0
  -24.3592  -36.8924   22.2053 H   0  0  0  0  0  0
  -23.7238  -37.6466   23.6670 H   0  0  0  0  0  0
  -26.1133  -31.5331   20.6098 H   0  0  0  0  0  0
  -26.8509  -30.8166   22.0111 H   0  0  0  0  0  0
  -28.1137  -28.9263   21.2173 H   0  0  0  0  0  0
  -25.9564  -25.9316   18.9584 H   0  0  0  0  0  0
  -23.9790  -27.3223   18.9758 H   0  0  0  0  0  0
  -23.7722  -30.5963   19.4039 H   0  0  0  0  0  0
  -22.7638  -29.2523   19.8480 H   0  0  0  0  0  0
  -25.1295  -36.1888   25.0823 H   0  0  0  0  0  0
  -20.9993  -28.3293   24.1378 H   0  0  0  0  0  0
  -20.5671  -26.2328   23.3614 H   0  0  0  0  0  0
  -21.6658  -26.7435   22.1215 H   0  0  0  0  0  0
  -19.6923  -25.6293   21.1250 H   0  0  0  0  0  0
  -19.6716  -27.3194   20.6737 H   0  0  0  0  0  0
  -17.4217  -26.6683   21.4001 H   0  0  0  0  0  0
  -18.0326  -26.0080   22.9019 H   0  0  0  0  0  0
  -19.7940  -30.7283   24.2250 H   0  0  0  0  0  0
  -17.5022  -31.6263   24.5168 H   0  0  0  0  0  0
  -15.5350  -30.2980   23.7681 H   0  0  0  0  0  0
  -15.8678  -28.0831   22.7053 H   0  0  0  0  0  0
  -24.5943  -30.7067   25.7813 H   0  0  0  0  0  0
  -24.8952  -32.2937   26.4807 H   0  0  0  0  0  0
  -25.8097  -30.8991   27.0250 H   0  0  0  0  0  0
  -26.2870  -29.6710   24.1251 H   0  0  0  0  0  0
  -27.4008  -29.7215   25.4712 H   0  0  0  0  0  0
  -27.8776  -30.4192   23.9420 H   0  0  0  0  0  0
  -27.2728  -33.3612   26.1995 H   0  0  0  0  0  0
  -28.3915  -32.6774   25.0277 H   0  0  0  0  0  0
  -28.0746  -31.8425   26.5401 H   0  0  0  0  0  0
  -28.2581  -38.0090   24.7523 H   0  0  0  0  0  0
  -28.1091  -36.2614   24.6238 H   0  0  0  0  0  0
  -27.2318  -37.1386   25.8868 H   0  0  0  0  0  0
  -20.9396  -29.8744   21.6828 H   0  0  0  0  0  0
  -26.0152  -38.2832   24.1458 H   0  0  0  0  0  0
  -28.1862  -19.8233   22.4966 H   0  0  0  0  0  0
  -30.6113  -19.7908   18.9829 H   0  0  0  0  0  0
  -28.5156  -17.4661   22.7662 H   0  0  0  0  0  0
  -30.9719  -17.3886   19.2372 H   0  0  0  0  0  0
  -30.4363  -22.4323   19.1265 H   0  0  0  0  0  0
  -28.6849  -22.3018   18.7173 H   0  0  0  0  0  0
  -31.0264  -23.6465   21.4624 H   0  0  0  0  0  0
  -29.9786  -24.9433   22.0144 H   0  0  0  0  0  0
  -30.8183  -25.0783   20.4721 H   0  0  0  0  0  0
  -30.6834  -16.1000   23.3419 H   0  0  0  0  0  0
  -30.5006  -14.3903   23.0363 H   0  0  0  0  0  0
  -29.0723  -15.3865   23.2230 H   0  0  0  0  0  0
  -27.1155  -24.6612   20.4110 H   0  0  0  0  0  0
  -27.9288  -24.7916   18.8882 H   0  0  0  0  0  0
  1 25  1  0  0  0
  1 30  2  0  0  0
  1 84  1  0  0  0
  2  3  1  0  0  0
  2 25  1  0  0  0
  2 86  1  0  0  0
  2 87  1  0  0  0
  3  4  1  0  0  0
  3 88  1  0  0  0
  3 89  1  0  0  0
  4  5  1  0  0  0
  4 90  1  0  0  0
  4 91  1  0  0  0
  5  6  1  0  0  0
  5 26  1  0  0  0
  5 92  1  0  0  0
  6 25  1  0  0  0
  6 93  1  0  0  0
  6 94  1  0  0  0
  7  8  2  0  0  0
  7 26  1  0  0  0
  7 29  1  0  0  0
  8  9  1  0  0  0
  8 22  1  0  0  0
  9 10  1  0  0  0
  9 27  2  0  0  0
 10 11  2  0  0  0
 10 15  1  0  0  0
 11 12  1  0  0  0
 11 95  1  0  0  0
 12 13  2  0  0  0
 12 96  1  0  0  0
 13 14  1  0  0  0
 13 31  1  0  0  0
 14 15  2  0  0  0
 14 97  1  0  0  0
 15 98  1  0  0  0
 16 17  2  0  0  0
 16 21  1  0  0  0
 16 31  1  0  0  0
 17 18  1  0  0  0
 17 99  1  0  0  0
 18 19  2  0  0  0
 18100  1  0  0  0
 19 20  1  0  0  0
 19 24  1  0  0  0
 20 21  2  0  0  0
 20101  1  0  0  0
 21 23  1  0  0  0
 22 28  1  0  0  0
 22 32  2  0  0  0
 26 27  1  0  0  0
 28102  1  0  0  0
 28103  1  0  0  0
 29104  1  0  0  0
 29105  1  0  0  0
 33 34  1  0  0  0
 33 66  1  0  0  0
 33 70  2  0  0  0
 34 36  1  0  0  0
 34 59  1  0  0  0
 34106  1  0  0  0
 35 44  2  0  0  0
 35 45  1  0  0  0
 35 68  1  0  0  0
 36 56  1  0  0  0
 36107  1  0  0  0
 37 39  1  0  0  0
 37 47  1  0  0  0
 37 66  1  0  0  0
 37108  1  0  0  0
 38 43  2  0  0  0
 38 46  1  0  0  0
 38 47  1  0  0  0
 39 64  1  0  0  0
 39 67  2  0  0  0
 40 52  1  0  0  0
 40 53  2  0  0  0
 40 58  1  0  0  0
 41109  1  0  0  0
 41110  1  0  0  0
 41111  1  0  0  0
 41 48  1  0  0  0
 42 43  1  0  0  0
 42 66  1  0  0  0
 42112  1  0  0  0
 42113  1  0  0  0
 43 44  1  0  0  0
 44114  1  0  0  0
 45 46  2  0  0  0
 45115  1  0  0  0
 46116  1  0  0  0
 47117  1  0  0  0
 47118  1  0  0  0
 48 56  1  0  0  0
 48 65  1  0  0  0
 48119  1  0  0  0
 49 50  1  0  0  0
 49 53  1  0  0  0
 49 64  1  0  0  0
 49120  1  0  0  0
 50 51  1  0  0  0
 50121  1  0  0  0
 50122  1  0  0  0
 51 52  1  0  0  0
 51123  1  0  0  0
 51124  1  0  0  0
 52125  1  0  0  0
 52126  1  0  0  0
 53 54  1  0  0  0
 54 55  2  0  0  0
 54127  1  0  0  0
 55 57  1  0  0  0
 55128  1  0  0  0
 56 69  2  0  0  0
 57 58  2  0  0  0
 57129  1  0  0  0
 58130  1  0  0  0
 59 60  1  0  0  0
 59 61  1  0  0  0
 59 62  1  0  0  0
 60131  1  0  0  0
 60132  1  0  0  0
 60133  1  0  0  0
 61134  1  0  0  0
 61135  1  0  0  0
 61136  1  0  0  0
 62137  1  0  0  0
 62138  1  0  0  0
 62139  1  0  0  0
 63 65  1  0  0  0
 63140  1  0  0  0
 63141  1  0  0  0
 63142  1  0  0  0
 64143  1  0  0  0
 65144  1  0  0  0
 68 82  1  0  0  0
 71 73  2  0  0  0
 71 75  1  0  0  0
 71145  1  0  0  0
 72 74  1  0  0  0
 72 75  2  0  0  0
 72146  1  0  0  0
 73 76  1  0  0  0
 73147  1  0  0  0
 74 76  2  0  0  0
 74148  1  0  0  0
 75 83  1  0  0  0
 76 84  1  0  0  0
 77 79  1  0  0  0
 77 83  1  0  0  0
 77 85  2  0  0  0
 78 79  1  0  0  0
 78 83  1  0  0  0
 78149  1  0  0  0
 78150  1  0  0  0
 79 80  1  0  0  0
 79 82  1  0  0  0
 80151  1  0  0  0
 80152  1  0  0  0
 80153  1  0  0  0
 81 84  1  0  0  0
 81154  1  0  0  0
 81155  1  0  0  0
 81156  1  0  0  0
 82157  1  0  0  0
 82158  1  0  0  0
M  ISO  4   1 100  68 101  82 101  84 100
M  END
> <chiral flag>
0

> <version>
0

> <s_m_source_file>
/data/baiqing/PycharmProjects/Reinvent-master-3.2/result/LINK_invent/BTK/process_docking_weight1_custom_product_contain_oxygen_bond_distance_aromatic_linkinvent_7_9_3/rearranged_h_0075.sdf

> <i_m_source_file_index>
49

> <r_mmod_Potential_Energy-OPLS-2005>
323.776519775391

> <r_mmod_Stretch_Energy-OPLS-2005>
120.273368835449

> <r_mmod_Bend_Energy-OPLS-2005>
203.279037475586

> <r_mmod_Torsional_Energy-OPLS-2005>
299.830535888672

> <r_mmod_Improper_Torsional_Energy-OPLS-2005>
3.7621386051178

> <r_mmod_Van_der_Waal_Energy-OPLS-2005>
150.763824462891

> <r_mmod_Electrostatic_Energy-OPLS-2005>
-322.555358886719

> <r_mmod_Solvation_Energy-OPLS-2005>
-202.280807495117

> <b_mmod_Minimization_Converged-OPLS-2005>
0

> <r_mmod_RMS_Derivative-OPLS-2005>
1.75935685634613

$$$$
50
                    3D
 Structure written by MMmdl.
155164  0  0  1  0            999 V2000
  -30.5975  -14.7976   20.4502 C   0  0  0  0  0  0
  -30.4342  -12.4822   19.4931 C   0  0  0  0  0  0
  -29.5244  -12.5462   18.2462 C   0  0  0  0  0  0
  -28.0452  -12.3709   18.6438 C   0  0  0  0  0  0
  -27.6477  -13.2455   19.8622 C   0  0  2  0  0  0
  -28.6905  -13.1834   21.0005 C   0  0  0  0  0  0
  -25.2482  -13.8194   20.5642 C   0  0  0  0  0  0
  -24.1780  -13.0428   20.9165 C   0  0  0  0  0  0
  -24.6383  -11.6906   20.8695 C   0  0  0  0  0  0
  -23.9043  -10.4287   21.0368 C   0  0  0  0  0  0
  -24.3579   -9.4215   21.9173 C   0  0  0  0  0  0
  -23.6262   -8.2231   22.0753 C   0  0  0  0  0  0
  -22.4263   -8.0249   21.3511 C   0  0  0  0  0  0
  -21.9884   -9.0233   20.4625 C   0  0  0  0  0  0
  -22.7200  -10.2129   20.3028 C   0  0  0  0  0  0
  -21.6856   -6.0702   22.5278 C   0  0  0  0  0  0
  -21.4013   -6.5612   23.8203 C   0  0  0  0  0  0
  -21.3665   -5.6776   24.9176 C   0  0  0  0  0  0
  -21.6064   -4.3025   24.7223 C   0  0  0  0  0  0
  -21.8827   -3.8120   23.4329 C   0  0  0  0  0  0
  -21.9191   -4.6934   22.3399 C   0  0  0  0  0  0
  -22.7810  -13.5235   21.1846 C   0  0  0  0  0  0
  -22.1648   -4.2107   21.0962 F   0  0  0  0  0  0
  -21.5648   -3.4503   25.7741 F   0  0  0  0  0  0
  -29.9950  -13.5500   20.4292 N   0  0  0  0  0  0
  -26.2969  -12.9446   20.3310 N   0  0  0  0  0  0
  -25.9335  -11.6570   20.5719 N   0  0  0  0  0  0
  -22.0404  -12.8277   22.0390 N   0  0  0  0  0  0
  -25.4168  -15.1926   20.4029 N   0  0  0  0  0  0
  -31.7574  -14.9111   20.0458 O   0  0  0  0  0  0
  -21.6610   -6.8851   21.4239 O   0  0  0  0  0  0
  -22.3532  -14.5569   20.6724 O   0  0  0  0  0  0
  -24.6426  -31.8520   23.1925 C   0  0  0  0  0  0
  -25.9239  -32.4724   23.8277 C   0  0  1  0  0  0
  -27.2276  -27.2047   20.1282 C   0  0  0  0  0  0
  -25.6018  -33.8511   24.2224 N   0  0  0  0  0  0
  -23.4412  -30.4728   21.5402 C   0  0  2  0  0  0
  -24.8880  -28.9134   20.1125 C   0  0  0  0  0  0
  -22.7573  -29.4583   22.4910 C   0  0  0  0  0  0
  -18.0303  -28.1380   22.8483 C   0  0  0  0  0  0
  -24.1500  -36.7236   23.2643 C   0  0  0  0  0  0
  -25.9962  -30.7425   21.3856 C   0  0  0  0  0  0
  -26.0673  -29.3631   20.7210 C   0  0  0  0  0  0
  -27.2388  -28.5252   20.7163 C   0  0  0  0  0  0
  -26.0169  -26.8439   19.4874 C   0  0  0  0  0  0
  -24.8699  -27.6596   19.4899 C   0  0  0  0  0  0
  -23.6648  -29.8094   20.1587 C   0  0  0  0  0  0
  -25.4123  -36.3025   24.0341 C   0  0  1  0  0  0
  -20.5914  -28.3699   23.1271 C   0  0  2  0  0  0
  -20.6800  -26.9416   22.5406 C   0  0  0  0  0  0
  -19.5781  -26.6370   21.5219 C   0  0  0  0  0  0
  -18.1961  -26.7932   22.1619 C   0  0  0  0  0  0
  -19.1557  -28.8863   23.2857 C   0  0  0  0  0  0
  -18.9461  -30.1469   23.8861 C   0  0  0  0  0  0
  -17.6448  -30.6576   24.0540 C   0  0  0  0  0  0
  -25.9064  -34.9413   23.5064 C   0  0  0  0  0  0
  -16.5335  -29.9048   23.6363 C   0  0  0  0  0  0
  -16.7288  -28.6481   23.0372 C   0  0  0  0  0  0
  -26.4528  -31.6563   25.0706 C   0  0  0  0  0  0
  -25.3706  -31.3736   26.1399 C   0  0  0  0  0  0
  -27.0398  -30.2972   24.6252 C   0  0  0  0  0  0
  -27.6058  -32.4322   25.7501 C   0  0  0  0  0  0
  -27.5582  -37.1768   24.8453 C   0  0  0  0  0  0
  -21.4264  -29.3029   22.3663 N   0  0  0  0  0  0
  -26.4280  -37.3752   23.9422 N   0  0  0  0  0  0
  -24.7124  -31.0411   22.0943 N   0  0  0  0  0  0
  -23.4268  -28.8150   23.3055 O   0  0  0  0  0  0
  -28.2942  -26.2500   20.1997 O   0  0  0  0  0  0
  -26.5618  -34.8914   22.4624 O   0  0  0  0  0  0
  -23.5575  -32.1368   23.7202 O   0  0  0  0  0  0
  -29.7792  -18.6126   21.1276 C   0  0  0  0  0  0
  -29.7289  -17.7658   19.0662 C   0  0  0  0  0  0
  -29.8575  -17.3535   20.3709 C   0  0  0  0  0  0
  -29.5754  -19.6791   20.2318 C   0  0  0  0  0  0
  -28.8531  -23.4736   20.2741 C   0  0  0  0  0  0
  -28.6902  -22.1770   19.7956 C   0  0  0  0  0  0
  -29.8596  -23.3162   21.3073 C   0  0  0  0  0  0
  -30.4379  -24.3166   21.9961 C   0  0  0  0  0  0
  -30.2242  -21.8315   21.4768 C   0  0  0  0  0  0
  -27.7327  -21.7562   18.6895 C   0  0  0  0  0  0
  -28.0033  -24.7898   19.8562 C   0  0  0  0  0  0
  -29.4428  -21.1370   20.4488 N   0  0  0  0  0  0
  -29.8610  -15.9240   20.8394 N   0  0  0  0  0  0
  -29.5533  -19.1440   18.9683 O   0  0  0  0  0  0
  -31.4808  -12.5960   19.2070 H   0  0  0  0  0  0
  -30.3589  -11.5009   19.9660 H   0  0  0  0  0  0
  -29.8185  -11.7820   17.5240 H   0  0  0  0  0  0
  -29.6558  -13.5096   17.7490 H   0  0  0  0  0  0
  -27.8820  -11.3186   18.8741 H   0  0  0  0  0  0
  -27.3991  -12.6005   17.7959 H   0  0  0  0  0  0
  -27.6443  -14.2726   19.4982 H   0  0  0  0  0  0
  -28.7261  -12.1857   21.4407 H   0  0  0  0  0  0
  -28.4102  -13.8551   21.8128 H   0  0  0  0  0  0
  -25.2687   -9.5738   22.4784 H   0  0  0  0  0  0
  -23.9940   -7.4635   22.7519 H   0  0  0  0  0  0
  -21.0791   -8.8757   19.8959 H   0  0  0  0  0  0
  -22.3609  -10.9657   19.6153 H   0  0  0  0  0  0
  -21.1992   -7.6120   23.9710 H   0  0  0  0  0  0
  -21.1500   -6.0484   25.9098 H   0  0  0  0  0  0
  -22.0612   -2.7583   23.2813 H   0  0  0  0  0  0
  -22.3878  -11.9870   22.4743 H   0  0  0  0  0  0
  -21.1077  -13.1490   22.2646 H   0  0  0  0  0  0
  -24.6355  -15.8357   20.4707 H   0  0  0  0  0  0
  -26.2648  -15.6336   20.0678 H   0  0  0  0  0  0
  -26.7326  -32.5315   23.1024 H   0  0  0  0  0  0
  -25.0246  -33.9608   25.0429 H   0  0  0  0  0  0
  -22.7393  -31.2939   21.3898 H   0  0  0  0  0  0
  -23.3785  -35.9542   23.3255 H   0  0  0  0  0  0
  -24.3610  -36.8893   22.2069 H   0  0  0  0  0  0
  -23.7227  -37.6415   23.6688 H   0  0  0  0  0  0
  -26.1583  -31.5044   20.6215 H   0  0  0  0  0  0
  -26.8685  -30.7769   22.0286 H   0  0  0  0  0  0
  -28.1367  -28.8677   21.2107 H   0  0  0  0  0  0
  -25.9033  -25.8898   18.9949 H   0  0  0  0  0  0
  -23.9702  -27.2928   19.0147 H   0  0  0  0  0  0
  -23.8026  -30.5857   19.4042 H   0  0  0  0  0  0
  -22.7810  -29.2471   19.8504 H   0  0  0  0  0  0
  -25.1315  -36.1832   25.0840 H   0  0  0  0  0  0
  -20.9988  -28.3247   24.1395 H   0  0  0  0  0  0
  -20.5753  -26.2293   23.3601 H   0  0  0  0  0  0
  -21.6664  -26.7467   22.1164 H   0  0  0  0  0  0
  -19.6931  -25.6266   21.1298 H   0  0  0  0  0  0
  -19.6742  -27.3157   20.6736 H   0  0  0  0  0  0
  -17.4248  -26.6710   21.3985 H   0  0  0  0  0  0
  -18.0288  -26.0053   22.8994 H   0  0  0  0  0  0
  -19.7924  -30.7316   24.2205 H   0  0  0  0  0  0
  -17.4987  -31.6258   24.5137 H   0  0  0  0  0  0
  -15.5336  -30.2923   23.7727 H   0  0  0  0  0  0
  -15.8691  -28.0798   22.7108 H   0  0  0  0  0  0
  -24.5883  -30.7105   25.7674 H   0  0  0  0  0  0
  -24.8898  -32.2920   26.4784 H   0  0  0  0  0  0
  -25.7991  -30.8902   27.0184 H   0  0  0  0  0  0
  -26.3007  -29.6674   24.1293 H   0  0  0  0  0  0
  -27.4067  -29.7295   25.4796 H   0  0  0  0  0  0
  -27.8897  -30.4208   23.9540 H   0  0  0  0  0  0
  -27.2640  -33.3627   26.2039 H   0  0  0  0  0  0
  -28.3909  -32.6858   25.0365 H   0  0  0  0  0  0
  -28.0689  -31.8461   26.5445 H   0  0  0  0  0  0
  -28.2549  -38.0103   24.7558 H   0  0  0  0  0  0
  -28.1117  -36.2643   24.6204 H   0  0  0  0  0  0
  -27.2309  -37.1336   25.8847 H   0  0  0  0  0  0
  -20.9478  -29.8746   21.6837 H   0  0  0  0  0  0
  -26.0132  -38.2823   24.1387 H   0  0  0  0  0  0
  -29.8358  -18.7223   22.2021 H   0  0  0  0  0  0
  -29.6798  -17.2379   18.1211 H   0  0  0  0  0  0
  -30.1786  -25.3517   21.8297 H   0  0  0  0  0  0
  -31.2100  -24.1169   22.7263 H   0  0  0  0  0  0
  -29.9615  -21.4884   22.4792 H   0  0  0  0  0  0
  -31.2954  -21.6894   21.3248 H   0  0  0  0  0  0
  -28.2071  -21.0638   17.9939 H   0  0  0  0  0  0
  -27.3920  -22.6041   18.0951 H   0  0  0  0  0  0
  -26.8517  -21.2654   19.1030 H   0  0  0  0  0  0
  -27.0313  -24.5533   20.2884 H   0  0  0  0  0  0
  -27.8857  -24.7452   18.7739 H   0  0  0  0  0  0
  -29.0433  -15.6770   21.3761 H   0  0  0  0  0  0
  1 25  1  0  0  0
  1 30  2  0  0  0
  1 83  1  0  0  0
  2  3  1  0  0  0
  2 25  1  0  0  0
  2 85  1  0  0  0
  2 86  1  0  0  0
  3  4  1  0  0  0
  3 87  1  0  0  0
  3 88  1  0  0  0
  4  5  1  0  0  0
  4 89  1  0  0  0
  4 90  1  0  0  0
  5  6  1  0  0  0
  5 26  1  0  0  0
  5 91  1  0  0  0
  6 25  1  0  0  0
  6 92  1  0  0  0
  6 93  1  0  0  0
  7  8  2  0  0  0
  7 26  1  0  0  0
  7 29  1  0  0  0
  8  9  1  0  0  0
  8 22  1  0  0  0
  9 10  1  0  0  0
  9 27  2  0  0  0
 10 11  2  0  0  0
 10 15  1  0  0  0
 11 12  1  0  0  0
 11 94  1  0  0  0
 12 13  2  0  0  0
 12 95  1  0  0  0
 13 14  1  0  0  0
 13 31  1  0  0  0
 14 15  2  0  0  0
 14 96  1  0  0  0
 15 97  1  0  0  0
 16 17  2  0  0  0
 16 21  1  0  0  0
 16 31  1  0  0  0
 17 18  1  0  0  0
 17 98  1  0  0  0
 18 19  2  0  0  0
 18 99  1  0  0  0
 19 20  1  0  0  0
 19 24  1  0  0  0
 20 21  2  0  0  0
 20100  1  0  0  0
 21 23  1  0  0  0
 22 28  1  0  0  0
 22 32  2  0  0  0
 26 27  1  0  0  0
 28101  1  0  0  0
 28102  1  0  0  0
 29103  1  0  0  0
 29104  1  0  0  0
 33 34  1  0  0  0
 33 66  1  0  0  0
 33 70  2  0  0  0
 34 36  1  0  0  0
 34 59  1  0  0  0
 34105  1  0  0  0
 35 44  2  0  0  0
 35 45  1  0  0  0
 35 68  1  0  0  0
 36 56  1  0  0  0
 36106  1  0  0  0
 37 39  1  0  0  0
 37 47  1  0  0  0
 37 66  1  0  0  0
 37107  1  0  0  0
 38 43  2  0  0  0
 38 46  1  0  0  0
 38 47  1  0  0  0
 39 64  1  0  0  0
 39 67  2  0  0  0
 40 52  1  0  0  0
 40 53  2  0  0  0
 40 58  1  0  0  0
 41108  1  0  0  0
 41109  1  0  0  0
 41110  1  0  0  0
 41 48  1  0  0  0
 42 43  1  0  0  0
 42 66  1  0  0  0
 42111  1  0  0  0
 42112  1  0  0  0
 43 44  1  0  0  0
 44113  1  0  0  0
 45 46  2  0  0  0
 45114  1  0  0  0
 46115  1  0  0  0
 47116  1  0  0  0
 47117  1  0  0  0
 48 56  1  0  0  0
 48 65  1  0  0  0
 48118  1  0  0  0
 49 50  1  0  0  0
 49 53  1  0  0  0
 49 64  1  0  0  0
 49119  1  0  0  0
 50 51  1  0  0  0
 50120  1  0  0  0
 50121  1  0  0  0
 51 52  1  0  0  0
 51122  1  0  0  0
 51123  1  0  0  0
 52124  1  0  0  0
 52125  1  0  0  0
 53 54  1  0  0  0
 54 55  2  0  0  0
 54126  1  0  0  0
 55 57  1  0  0  0
 55127  1  0  0  0
 56 69  2  0  0  0
 57 58  2  0  0  0
 57128  1  0  0  0
 58129  1  0  0  0
 59 60  1  0  0  0
 59 61  1  0  0  0
 59 62  1  0  0  0
 60130  1  0  0  0
 60131  1  0  0  0
 60132  1  0  0  0
 61133  1  0  0  0
 61134  1  0  0  0
 61135  1  0  0  0
 62136  1  0  0  0
 62137  1  0  0  0
 62138  1  0  0  0
 63 65  1  0  0  0
 63139  1  0  0  0
 63140  1  0  0  0
 63141  1  0  0  0
 64142  1  0  0  0
 65143  1  0  0  0
 68 81  1  0  0  0
 71 73  1  0  0  0
 71 74  2  0  0  0
 71144  1  0  0  0
 72 73  2  0  0  0
 72 84  1  0  0  0
 72145  1  0  0  0
 73 83  1  0  0  0
 74 82  1  0  0  0
 74 84  1  0  0  0
 75 76  2  0  0  0
 75 77  1  0  0  0
 75 81  1  0  0  0
 76 80  1  0  0  0
 76 82  1  0  0  0
 77 78  2  0  0  0
 77 79  1  0  0  0
 78146  1  0  0  0
 78147  1  0  0  0
 79 82  1  0  0  0
 79148  1  0  0  0
 79149  1  0  0  0
 80150  1  0  0  0
 80151  1  0  0  0
 80152  1  0  0  0
 81153  1  0  0  0
 81154  1  0  0  0
 83155  1  0  0  0
M  ISO  4   1 100  68 101  81 101  83 100
M  END
> <chiral flag>
0

> <version>
0

> <s_m_source_file>
/data/baiqing/PycharmProjects/Reinvent-master-3.2/result/LINK_invent/BTK/process_docking_weight1_custom_product_contain_oxygen_bond_distance_aromatic_linkinvent_7_9_3/rearranged_h_0075.sdf

> <i_m_source_file_index>
50

> <r_mmod_Potential_Energy-OPLS-2005>
363.106994628906

> <r_mmod_Stretch_Energy-OPLS-2005>
152.895629882812

> <r_mmod_Bend_Energy-OPLS-2005>
289.0634765625

> <r_mmod_Torsional_Energy-OPLS-2005>
240.058975219727

> <r_mmod_Improper_Torsional_Energy-OPLS-2005>
4.76861572265625

> <r_mmod_Van_der_Waal_Energy-OPLS-2005>
113.716934204102

> <r_mmod_Electrostatic_Energy-OPLS-2005>
-339.684295654297

> <r_mmod_Solvation_Energy-OPLS-2005>
-214.712890625

> <b_mmod_Minimization_Converged-OPLS-2005>
0

> <r_mmod_RMS_Derivative-OPLS-2005>
4.88768100738525

$$$$
51
                    3D
 Structure written by MMmdl.
157165  0  0  1  0            999 V2000
  -30.5888  -14.6306   20.5626 C   0  0  0  0  0  0
  -30.4351  -12.4020   19.4532 C   0  0  0  0  0  0
  -29.5103  -12.5595   18.2269 C   0  0  0  0  0  0
  -28.0278  -12.3876   18.6219 C   0  0  0  0  0  0
  -27.6553  -13.2145   19.8821 C   0  0  2  0  0  0
  -28.6921  -13.0211   21.0079 C   0  0  0  0  0  0
  -25.2597  -13.8176   20.5816 C   0  0  0  0  0  0
  -24.1830  -13.0433   20.9203 C   0  0  0  0  0  0
  -24.6378  -11.6904   20.8723 C   0  0  0  0  0  0
  -23.9050  -10.4289   21.0395 C   0  0  0  0  0  0
  -24.3607   -9.4215   21.9184 C   0  0  0  0  0  0
  -23.6295   -8.2246   22.0745 C   0  0  0  0  0  0
  -22.4284   -8.0268   21.3534 C   0  0  0  0  0  0
  -21.9910   -9.0237   20.4646 C   0  0  0  0  0  0
  -22.7217  -10.2125   20.3057 C   0  0  0  0  0  0
  -21.6843   -6.0760   22.5292 C   0  0  0  0  0  0
  -21.4018   -6.5659   23.8234 C   0  0  0  0  0  0
  -21.3667   -5.6806   24.9198 C   0  0  0  0  0  0
  -21.6042   -4.3068   24.7236 C   0  0  0  0  0  0
  -21.8810   -3.8172   23.4349 C   0  0  0  0  0  0
  -21.9194   -4.6997   22.3415 C   0  0  0  0  0  0
  -22.7862  -13.5246   21.1828 C   0  0  0  0  0  0
  -22.1647   -4.2196   21.0986 F   0  0  0  0  0  0
  -21.5646   -3.4537   25.7742 F   0  0  0  0  0  0
  -30.0080  -13.3907   20.4667 N   0  0  0  0  0  0
  -26.2988  -12.9337   20.3385 N   0  0  0  0  0  0
  -25.9303  -11.6496   20.5758 N   0  0  0  0  0  0
  -22.0454  -12.8258   22.0370 N   0  0  0  0  0  0
  -25.4392  -15.1915   20.4469 N   0  0  0  0  0  0
  -31.7220  -14.8339   20.1180 O   0  0  0  0  0  0
  -21.6614   -6.8888   21.4248 O   0  0  0  0  0  0
  -22.3591  -14.5563   20.6666 O   0  0  0  0  0  0
  -24.6239  -31.8630   23.2006 C   0  0  0  0  0  0
  -25.9097  -32.4788   23.8349 C   0  0  1  0  0  0
  -27.2150  -27.3138   20.1582 C   0  0  0  0  0  0
  -25.5915  -33.8595   24.2273 N   0  0  0  0  0  0
  -23.4184  -30.4816   21.5452 C   0  0  2  0  0  0
  -24.8685  -28.9361   20.1087 C   0  0  0  0  0  0
  -22.7465  -29.4643   22.4995 C   0  0  0  0  0  0
  -18.0255  -28.1364   22.8505 C   0  0  0  0  0  0
  -24.1495  -36.7301   23.2641 C   0  0  0  0  0  0
  -25.9586  -30.7941   21.3744 C   0  0  0  0  0  0
  -26.0331  -29.4204   20.7212 C   0  0  0  0  0  0
  -27.2134  -28.6221   20.7283 C   0  0  0  0  0  0
  -26.0459  -26.8903   19.4951 C   0  0  0  0  0  0
  -24.8787  -27.6790   19.4794 C   0  0  0  0  0  0
  -23.6311  -29.8090   20.1625 C   0  0  0  0  0  0
  -25.4123  -36.3113   24.0324 C   0  0  1  0  0  0
  -20.5865  -28.3680   23.1307 C   0  0  2  0  0  0
  -20.6763  -26.9416   22.5430 C   0  0  0  0  0  0
  -19.5726  -26.6379   21.5251 C   0  0  0  0  0  0
  -18.1894  -26.7912   22.1637 C   0  0  0  0  0  0
  -19.1510  -28.8838   23.2895 C   0  0  0  0  0  0
  -18.9448  -30.1445   23.8913 C   0  0  0  0  0  0
  -17.6442  -30.6595   24.0548 C   0  0  0  0  0  0
  -25.9074  -34.9482   23.5122 C   0  0  0  0  0  0
  -16.5335  -29.9091   23.6326 C   0  0  0  0  0  0
  -16.7240  -28.6481   23.0380 C   0  0  0  0  0  0
  -26.4449  -31.6572   25.0721 C   0  0  0  0  0  0
  -25.3665  -31.3714   26.1439 C   0  0  0  0  0  0
  -27.0240  -30.2967   24.6190 C   0  0  0  0  0  0
  -27.6045  -32.4263   25.7468 C   0  0  0  0  0  0
  -27.5594  -37.1798   24.8444 C   0  0  0  0  0  0
  -21.4175  -29.3046   22.3726 N   0  0  0  0  0  0
  -26.4295  -37.3817   23.9412 N   0  0  0  0  0  0
  -24.6847  -31.0635   22.0957 N   0  0  0  0  0  0
  -23.4177  -28.8223   23.3117 O   0  0  0  0  0  0
  -28.3127  -26.4479   20.2246 O   0  0  0  0  0  0
  -26.5666  -34.8940   22.4709 O   0  0  0  0  0  0
  -23.5396  -32.1451   23.7329 O   0  0  0  0  0  0
  -28.5110  -19.2498   21.2167 C   0  0  0  0  0  0
  -30.4353  -19.1955   19.7815 C   0  0  0  0  0  0
  -28.6955  -17.8500   21.4699 C   0  0  0  0  0  0
  -30.6203  -17.8055   20.0342 C   0  0  0  0  0  0
  -29.3728  -19.9655   20.3414 C   0  0  0  0  0  0
  -29.7356  -17.0783   20.8670 C   0  0  0  0  0  0
  -29.1373  -21.4064   19.8228 C   0  0  0  0  0  0
  -26.9027  -24.8795   21.6741 C   0  0  0  0  0  0
  -29.3301  -25.2514   21.9979 C   0  0  0  0  0  0
  -28.5687  -23.8671   19.9935 C   0  0  0  0  0  0
  -28.2356  -25.1248   20.9244 C   0  0  0  0  0  0
  -29.7949  -15.6272   21.0860 N   0  0  0  0  0  0
  -28.6755  -22.4615   20.5684 N   0  0  0  0  0  0
  -29.4404  -21.6126   18.6464 O   0  0  0  0  0  0
  -31.4763  -12.5394   19.1636 H   0  0  0  0  0  0
  -30.3674  -11.3878   19.8504 H   0  0  0  0  0  0
  -29.7819  -11.8440   17.4491 H   0  0  0  0  0  0
  -29.6598  -13.5493   17.7934 H   0  0  0  0  0  0
  -27.8485  -11.3278   18.8045 H   0  0  0  0  0  0
  -27.3813  -12.6727   17.7889 H   0  0  0  0  0  0
  -27.6866  -14.2637   19.5887 H   0  0  0  0  0  0
  -28.7013  -11.9824   21.3425 H   0  0  0  0  0  0
  -28.4302  -13.6078   21.8881 H   0  0  0  0  0  0
  -25.2733   -9.5740   22.4782 H   0  0  0  0  0  0
  -24.0027   -7.4649   22.7450 H   0  0  0  0  0  0
  -21.0849   -8.8724   19.8940 H   0  0  0  0  0  0
  -22.3632  -10.9670   19.6200 H   0  0  0  0  0  0
  -21.1977   -7.6153   23.9772 H   0  0  0  0  0  0
  -21.1512   -6.0519   25.9108 H   0  0  0  0  0  0
  -22.0581   -2.7634   23.2832 H   0  0  0  0  0  0
  -22.3968  -11.9907   22.4830 H   0  0  0  0  0  0
  -21.1090  -13.1364   22.2519 H   0  0  0  0  0  0
  -24.7002  -15.8550   20.6538 H   0  0  0  0  0  0
  -26.3208  -15.6362   20.2223 H   0  0  0  0  0  0
  -26.7180  -32.5446   23.1114 H   0  0  0  0  0  0
  -24.9947  -33.9736   25.0334 H   0  0  0  0  0  0
  -22.7115  -31.3013   21.3998 H   0  0  0  0  0  0
  -23.3786  -35.9604   23.3260 H   0  0  0  0  0  0
  -24.3625  -36.8972   22.2073 H   0  0  0  0  0  0
  -23.7190  -37.6462   23.6691 H   0  0  0  0  0  0
  -26.0973  -31.5579   20.6077 H   0  0  0  0  0  0
  -26.8370  -30.8444   22.0062 H   0  0  0  0  0  0
  -28.1077  -28.9886   21.2149 H   0  0  0  0  0  0
  -26.0295  -25.9212   19.0179 H   0  0  0  0  0  0
  -23.9898  -27.3069   18.9869 H   0  0  0  0  0  0
  -23.7347  -30.5794   19.3992 H   0  0  0  0  0  0
  -22.7553  -29.2251   19.8717 H   0  0  0  0  0  0
  -25.1312  -36.1981   25.0815 H   0  0  0  0  0  0
  -20.9935  -28.3260   24.1433 H   0  0  0  0  0  0
  -20.5710  -26.2306   23.3634 H   0  0  0  0  0  0
  -21.6623  -26.7481   22.1192 H   0  0  0  0  0  0
  -19.6902  -25.6301   21.1259 H   0  0  0  0  0  0
  -19.6643  -27.3205   20.6796 H   0  0  0  0  0  0
  -17.4188  -26.6695   21.4007 H   0  0  0  0  0  0
  -18.0245  -26.0027   22.8995 H   0  0  0  0  0  0
  -19.7933  -30.7248   24.2296 H   0  0  0  0  0  0
  -17.5005  -31.6292   24.5130 H   0  0  0  0  0  0
  -15.5337  -30.3003   23.7654 H   0  0  0  0  0  0
  -15.8618  -28.0803   22.7130 H   0  0  0  0  0  0
  -24.5796  -30.7141   25.7713 H   0  0  0  0  0  0
  -24.8903  -32.2884   26.4924 H   0  0  0  0  0  0
  -25.7957  -30.8786   27.0177 H   0  0  0  0  0  0
  -26.2798  -29.6753   24.1190 H   0  0  0  0  0  0
  -27.3851  -29.7202   25.4721 H   0  0  0  0  0  0
  -27.8724  -30.4180   23.9454 H   0  0  0  0  0  0
  -27.2698  -33.3566   26.2059 H   0  0  0  0  0  0
  -28.3830  -32.6804   25.0264 H   0  0  0  0  0  0
  -28.0722  -31.8355   26.5350 H   0  0  0  0  0  0
  -28.2581  -38.0127   24.7586 H   0  0  0  0  0  0
  -28.1129  -36.2683   24.6165 H   0  0  0  0  0  0
  -27.2337  -37.1304   25.8845 H   0  0  0  0  0  0
  -20.9380  -29.8716   21.6870 H   0  0  0  0  0  0
  -26.0185  -38.2898   24.1430 H   0  0  0  0  0  0
  -27.6656  -19.7583   21.6626 H   0  0  0  0  0  0
  -31.1144  -19.6792   19.0912 H   0  0  0  0  0  0
  -27.9877  -17.3561   22.1212 H   0  0  0  0  0  0
  -31.4384  -17.3027   19.5404 H   0  0  0  0  0  0
  -26.0937  -24.6072   20.9985 H   0  0  0  0  0  0
  -26.5835  -25.7564   22.2385 H   0  0  0  0  0  0
  -26.9944  -24.0670   22.3951 H   0  0  0  0  0  0
  -29.4790  -24.3193   22.5437 H   0  0  0  0  0  0
  -29.0747  -26.0165   22.7314 H   0  0  0  0  0  0
  -30.2881  -25.5281   21.5585 H   0  0  0  0  0  0
  -29.5217  -24.0840   19.5109 H   0  0  0  0  0  0
  -27.8381  -23.8395   19.1837 H   0  0  0  0  0  0
  -28.9845  -15.2485   21.5531 H   0  0  0  0  0  0
  -28.3949  -22.3015   21.5266 H   0  0  0  0  0  0
  1 25  1  0  0  0
  1 30  2  0  0  0
  1 82  1  0  0  0
  2  3  1  0  0  0
  2 25  1  0  0  0
  2 85  1  0  0  0
  2 86  1  0  0  0
  3  4  1  0  0  0
  3 87  1  0  0  0
  3 88  1  0  0  0
  4  5  1  0  0  0
  4 89  1  0  0  0
  4 90  1  0  0  0
  5  6  1  0  0  0
  5 26  1  0  0  0
  5 91  1  0  0  0
  6 25  1  0  0  0
  6 92  1  0  0  0
  6 93  1  0  0  0
  7  8  2  0  0  0
  7 26  1  0  0  0
  7 29  1  0  0  0
  8  9  1  0  0  0
  8 22  1  0  0  0
  9 10  1  0  0  0
  9 27  2  0  0  0
 10 11  2  0  0  0
 10 15  1  0  0  0
 11 12  1  0  0  0
 11 94  1  0  0  0
 12 13  2  0  0  0
 12 95  1  0  0  0
 13 14  1  0  0  0
 13 31  1  0  0  0
 14 15  2  0  0  0
 14 96  1  0  0  0
 15 97  1  0  0  0
 16 17  2  0  0  0
 16 21  1  0  0  0
 16 31  1  0  0  0
 17 18  1  0  0  0
 17 98  1  0  0  0
 18 19  2  0  0  0
 18 99  1  0  0  0
 19 20  1  0  0  0
 19 24  1  0  0  0
 20 21  2  0  0  0
 20100  1  0  0  0
 21 23  1  0  0  0
 22 28  1  0  0  0
 22 32  2  0  0  0
 26 27  1  0  0  0
 28101  1  0  0  0
 28102  1  0  0  0
 29103  1  0  0  0
 29104  1  0  0  0
 33 34  1  0  0  0
 33 66  1  0  0  0
 33 70  2  0  0  0
 34 36  1  0  0  0
 34 59  1  0  0  0
 34105  1  0  0  0
 35 44  2  0  0  0
 35 45  1  0  0  0
 35 68  1  0  0  0
 36 56  1  0  0  0
 36106  1  0  0  0
 37 39  1  0  0  0
 37 47  1  0  0  0
 37 66  1  0  0  0
 37107  1  0  0  0
 38 43  2  0  0  0
 38 46  1  0  0  0
 38 47  1  0  0  0
 39 64  1  0  0  0
 39 67  2  0  0  0
 40 52  1  0  0  0
 40 53  2  0  0  0
 40 58  1  0  0  0
 41108  1  0  0  0
 41109  1  0  0  0
 41110  1  0  0  0
 41 48  1  0  0  0
 42 43  1  0  0  0
 42 66  1  0  0  0
 42111  1  0  0  0
 42112  1  0  0  0
 43 44  1  0  0  0
 44113  1  0  0  0
 45 46  2  0  0  0
 45114  1  0  0  0
 46115  1  0  0  0
 47116  1  0  0  0
 47117  1  0  0  0
 48 56  1  0  0  0
 48 65  1  0  0  0
 48118  1  0  0  0
 49 50  1  0  0  0
 49 53  1  0  0  0
 49 64  1  0  0  0
 49119  1  0  0  0
 50 51  1  0  0  0
 50120  1  0  0  0
 50121  1  0  0  0
 51 52  1  0  0  0
 51122  1  0  0  0
 51123  1  0  0  0
 52124  1  0  0  0
 52125  1  0  0  0
 53 54  1  0  0  0
 54 55  2  0  0  0
 54126  1  0  0  0
 55 57  1  0  0  0
 55127  1  0  0  0
 56 69  2  0  0  0
 57 58  2  0  0  0
 57128  1  0  0  0
 58129  1  0  0  0
 59 60  1  0  0  0
 59 61  1  0  0  0
 59 62  1  0  0  0
 60130  1  0  0  0
 60131  1  0  0  0
 60132  1  0  0  0
 61133  1  0  0  0
 61134  1  0  0  0
 61135  1  0  0  0
 62136  1  0  0  0
 62137  1  0  0  0
 62138  1  0  0  0
 63 65  1  0  0  0
 63139  1  0  0  0
 63140  1  0  0  0
 63141  1  0  0  0
 64142  1  0  0  0
 65143  1  0  0  0
 68 81  1  0  0  0
 71 73  2  0  0  0
 71 75  1  0  0  0
 71144  1  0  0  0
 72 74  1  0  0  0
 72 75  2  0  0  0
 72145  1  0  0  0
 73 76  1  0  0  0
 73146  1  0  0  0
 74 76  2  0  0  0
 74147  1  0  0  0
 75 77  1  0  0  0
 76 82  1  0  0  0
 77 83  1  0  0  0
 77 84  2  0  0  0
 78148  1  0  0  0
 78149  1  0  0  0
 78150  1  0  0  0
 78 81  1  0  0  0
 79 81  1  0  0  0
 79151  1  0  0  0
 79152  1  0  0  0
 79153  1  0  0  0
 80 81  1  0  0  0
 80 83  1  0  0  0
 80154  1  0  0  0
 80155  1  0  0  0
 82156  1  0  0  0
 83157  1  0  0  0
M  ISO  4   1 100  68 101  81 101  82 100
M  END
> <chiral flag>
0

> <version>
0

> <s_m_source_file>
/data/baiqing/PycharmProjects/Reinvent-master-3.2/result/LINK_invent/BTK/process_docking_weight1_custom_product_contain_oxygen_bond_distance_aromatic_linkinvent_7_9_3/rearranged_h_0075.sdf

> <i_m_source_file_index>
51

> <r_mmod_Potential_Energy-OPLS-2005>
5.78716087341309

> <r_mmod_Stretch_Energy-OPLS-2005>
87.5783386230469

> <r_mmod_Bend_Energy-OPLS-2005>
158.724624633789

> <r_mmod_Torsional_Energy-OPLS-2005>
257.791381835938

> <r_mmod_Improper_Torsional_Energy-OPLS-2005>
4.42222261428833

> <r_mmod_Van_der_Waal_Energy-OPLS-2005>
145.061553955078

> <r_mmod_Electrostatic_Energy-OPLS-2005>
-471.621765136719

> <r_mmod_Solvation_Energy-OPLS-2005>
-226.963333129883

> <b_mmod_Minimization_Converged-OPLS-2005>
0

> <r_mmod_RMS_Derivative-OPLS-2005>
4.11599636077881

$$$$
52
                    3D
 Structure written by MMmdl.
165173  0  0  1  0            999 V2000
  -30.6840  -14.4940   20.5666 C   0  0  0  0  0  0
  -30.4332  -12.3171   19.4273 C   0  0  0  0  0  0
  -29.5011  -12.4959   18.2101 C   0  0  0  0  0  0
  -28.0204  -12.3566   18.6205 C   0  0  0  0  0  0
  -27.6625  -13.2030   19.8710 C   0  0  2  0  0  0
  -28.7031  -12.9888   20.9938 C   0  0  0  0  0  0
  -25.2595  -13.8162   20.5650 C   0  0  0  0  0  0
  -24.1849  -13.0446   20.9174 C   0  0  0  0  0  0
  -24.6391  -11.6910   20.8734 C   0  0  0  0  0  0
  -23.9050  -10.4300   21.0406 C   0  0  0  0  0  0
  -24.3606   -9.4215   21.9181 C   0  0  0  0  0  0
  -23.6288   -8.2245   22.0747 C   0  0  0  0  0  0
  -22.4269   -8.0282   21.3541 C   0  0  0  0  0  0
  -21.9908   -9.0254   20.4636 C   0  0  0  0  0  0
  -22.7228  -10.2138   20.3047 C   0  0  0  0  0  0
  -21.6856   -6.0737   22.5280 C   0  0  0  0  0  0
  -21.4012   -6.5637   23.8214 C   0  0  0  0  0  0
  -21.3655   -5.6786   24.9174 C   0  0  0  0  0  0
  -21.6041   -4.3052   24.7225 C   0  0  0  0  0  0
  -21.8821   -3.8146   23.4347 C   0  0  0  0  0  0
  -21.9193   -4.6965   22.3405 C   0  0  0  0  0  0
  -22.7867  -13.5249   21.1845 C   0  0  0  0  0  0
  -22.1661   -4.2151   21.0984 F   0  0  0  0  0  0
  -21.5628   -3.4536   25.7738 F   0  0  0  0  0  0
  -30.0349  -13.3029   20.4452 N   0  0  0  0  0  0
  -26.3024  -12.9315   20.3330 N   0  0  0  0  0  0
  -25.9316  -11.6485   20.5756 N   0  0  0  0  0  0
  -22.0493  -12.8242   22.0389 N   0  0  0  0  0  0
  -25.4332  -15.1869   20.4007 N   0  0  0  0  0  0
  -31.8142  -14.6775   20.1056 O   0  0  0  0  0  0
  -21.6635   -6.8877   21.4238 O   0  0  0  0  0  0
  -22.3558  -14.5558   20.6686 O   0  0  0  0  0  0
  -24.6163  -31.8661   23.2089 C   0  0  0  0  0  0
  -25.9036  -32.4821   23.8401 C   0  0  1  0  0  0
  -27.2375  -27.4200   20.1016 C   0  0  0  0  0  0
  -25.5895  -33.8622   24.2334 N   0  0  0  0  0  0
  -23.4055  -30.4894   21.5487 C   0  0  2  0  0  0
  -24.8536  -28.9498   20.1152 C   0  0  0  0  0  0
  -22.7408  -29.4657   22.4983 C   0  0  0  0  0  0
  -18.0274  -28.1402   22.8502 C   0  0  0  0  0  0
  -24.1469  -36.7300   23.2644 C   0  0  0  0  0  0
  -25.9366  -30.8287   21.3610 C   0  0  0  0  0  0
  -26.0151  -29.4621   20.7065 C   0  0  0  0  0  0
  -27.2124  -28.7074   20.6889 C   0  0  0  0  0  0
  -26.0561  -26.9212   19.5079 C   0  0  0  0  0  0
  -24.8695  -27.6808   19.5110 C   0  0  0  0  0  0
  -23.6149  -29.8178   20.1648 C   0  0  0  0  0  0
  -25.4094  -36.3111   24.0345 C   0  0  1  0  0  0
  -20.5866  -28.3681   23.1327 C   0  0  2  0  0  0
  -20.6750  -26.9419   22.5422 C   0  0  0  0  0  0
  -19.5726  -26.6425   21.5215 C   0  0  0  0  0  0
  -18.1910  -26.7955   22.1634 C   0  0  0  0  0  0
  -19.1525  -28.8857   23.2916 C   0  0  0  0  0  0
  -18.9454  -30.1465   23.8926 C   0  0  0  0  0  0
  -17.6457  -30.6605   24.0592 C   0  0  0  0  0  0
  -25.9029  -34.9477   23.5139 C   0  0  0  0  0  0
  -16.5351  -29.9111   23.6354 C   0  0  0  0  0  0
  -16.7264  -28.6533   23.0370 C   0  0  0  0  0  0
  -26.4457  -31.6603   25.0736 C   0  0  0  0  0  0
  -25.3715  -31.3707   26.1472 C   0  0  0  0  0  0
  -27.0306  -30.3051   24.6128 C   0  0  0  0  0  0
  -27.6046  -32.4319   25.7485 C   0  0  0  0  0  0
  -27.5567  -37.1808   24.8469 C   0  0  0  0  0  0
  -21.4136  -29.3041   22.3716 N   0  0  0  0  0  0
  -26.4281  -37.3794   23.9417 N   0  0  0  0  0  0
  -24.6710  -31.0756   22.0983 N   0  0  0  0  0  0
  -23.4160  -28.8200   23.3040 O   0  0  0  0  0  0
  -28.3991  -26.6732   20.1044 O   0  0  0  0  0  0
  -26.5609  -34.8924   22.4712 O   0  0  0  0  0  0
  -23.5344  -32.1428   23.7462 O   0  0  0  0  0  0
  -31.4533  -18.9769   20.9310 C   0  0  0  0  0  0
  -29.1281  -19.1151   21.6095 C   0  0  0  0  0  0
  -31.3451  -17.5688   20.8238 C   0  0  0  0  0  0
  -29.0200  -17.7083   21.4988 C   0  0  0  0  0  0
  -30.3543  -19.7665   21.3517 C   0  0  0  0  0  0
  -30.1268  -16.9081   21.1250 C   0  0  0  0  0  0
  -30.5226  -21.2081   21.6511 C   0  0  0  0  0  0
  -28.2058  -23.4855   22.9941 C   0  0  0  0  0  0
  -30.1603  -25.8766   22.0638 C   0  0  0  0  0  0
  -30.6523  -24.4786   20.0651 C   0  0  0  0  0  0
  -28.2810  -25.2853   20.5020 C   0  0  0  0  0  0
  -29.4496  -23.4735   22.0866 C   0  0  2  0  0  0
  -29.6010  -24.7494   21.1614 C   0  0  0  0  0  0
  -31.6621  -21.5903   22.2285 N   0  0  0  0  0  0
  -29.9402  -15.4841   21.1077 N   0  0  0  0  0  0
  -29.5543  -22.1331   21.4345 N   0  3  0  0  0  0
  -31.4750  -12.4292   19.1219 H   0  0  0  0  0  0
  -30.3520  -11.3075   19.8327 H   0  0  0  0  0  0
  -29.7455  -11.7613   17.4409 H   0  0  0  0  0  0
  -29.6686  -13.4750   17.7587 H   0  0  0  0  0  0
  -27.8307  -11.3018   18.8231 H   0  0  0  0  0  0
  -27.3729  -12.6242   17.7852 H   0  0  0  0  0  0
  -27.7056  -14.2488   19.5659 H   0  0  0  0  0  0
  -28.6834  -11.9523   21.3346 H   0  0  0  0  0  0
  -28.4570  -13.5854   21.8730 H   0  0  0  0  0  0
  -25.2754   -9.5694   22.4752 H   0  0  0  0  0  0
  -23.9999   -7.4638   22.7472 H   0  0  0  0  0  0
  -21.0840   -8.8766   19.8945 H   0  0  0  0  0  0
  -22.3688  -10.9666   19.6148 H   0  0  0  0  0  0
  -21.2000   -7.6142   23.9715 H   0  0  0  0  0  0
  -21.1473   -6.0516   25.9075 H   0  0  0  0  0  0
  -22.0603   -2.7607   23.2846 H   0  0  0  0  0  0
  -22.4085  -11.9901   22.4786 H   0  0  0  0  0  0
  -21.1098  -13.1263   22.2556 H   0  0  0  0  0  0
  -24.6596  -15.8381   20.4827 H   0  0  0  0  0  0
  -26.2691  -15.6131   20.0214 H   0  0  0  0  0  0
  -26.7108  -32.5528   23.1165 H   0  0  0  0  0  0
  -24.9993  -33.9776   25.0443 H   0  0  0  0  0  0
  -22.6977  -31.3098   21.4070 H   0  0  0  0  0  0
  -23.3743  -35.9624   23.3325 H   0  0  0  0  0  0
  -24.3556  -36.8902   22.2058 H   0  0  0  0  0  0
  -23.7208  -37.6505   23.6640 H   0  0  0  0  0  0
  -26.0540  -31.5932   20.5920 H   0  0  0  0  0  0
  -26.8232  -30.8841   21.9800 H   0  0  0  0  0  0
  -28.1100  -29.0998   21.1467 H   0  0  0  0  0  0
  -26.0517  -25.9481   19.0380 H   0  0  0  0  0  0
  -23.9748  -27.2836   19.0504 H   0  0  0  0  0  0
  -23.7232  -30.5914   19.4043 H   0  0  0  0  0  0
  -22.7403  -29.2360   19.8677 H   0  0  0  0  0  0
  -25.1272  -36.1984   25.0843 H   0  0  0  0  0  0
  -20.9991  -28.3248   24.1438 H   0  0  0  0  0  0
  -20.5673  -26.2285   23.3605 H   0  0  0  0  0  0
  -21.6615  -26.7460   22.1205 H   0  0  0  0  0  0
  -19.6878  -25.6353   21.1218 H   0  0  0  0  0  0
  -19.6674  -27.3266   20.6771 H   0  0  0  0  0  0
  -17.4187  -26.6750   21.4024 H   0  0  0  0  0  0
  -18.0293  -26.0093   22.9029 H   0  0  0  0  0  0
  -19.7919  -30.7285   24.2310 H   0  0  0  0  0  0
  -17.5011  -31.6286   24.5198 H   0  0  0  0  0  0
  -15.5358  -30.3038   23.7647 H   0  0  0  0  0  0
  -15.8660  -28.0867   22.7078 H   0  0  0  0  0  0
  -24.5890  -30.7052   25.7793 H   0  0  0  0  0  0
  -24.8888  -32.2856   26.4925 H   0  0  0  0  0  0
  -25.8059  -30.8865   27.0227 H   0  0  0  0  0  0
  -26.2862  -29.6810   24.1160 H   0  0  0  0  0  0
  -27.4055  -29.7294   25.4607 H   0  0  0  0  0  0
  -27.8707  -30.4392   23.9306 H   0  0  0  0  0  0
  -27.2692  -33.3628   26.2067 H   0  0  0  0  0  0
  -28.3834  -32.6868   25.0287 H   0  0  0  0  0  0
  -28.0729  -31.8439   26.5383 H   0  0  0  0  0  0
  -28.2605  -38.0086   24.7523 H   0  0  0  0  0  0
  -28.1047  -36.2631   24.6289 H   0  0  0  0  0  0
  -27.2296  -37.1459   25.8875 H   0  0  0  0  0  0
  -20.9306  -29.8764   21.6934 H   0  0  0  0  0  0
  -26.0175  -38.2872   24.1428 H   0  0  0  0  0  0
  -32.4080  -19.4421   20.7261 H   0  0  0  0  0  0
  -28.2727  -19.6849   21.9456 H   0  0  0  0  0  0
  -32.2272  -17.0164   20.5362 H   0  0  0  0  0  0
  -28.0709  -17.2448   21.7315 H   0  0  0  0  0  0
  -28.0902  -24.4395   23.5085 H   0  0  0  0  0  0
  -28.2833  -22.7208   23.7667 H   0  0  0  0  0  0
  -27.2891  -23.2852   22.4391 H   0  0  0  0  0  0
  -30.4255  -26.7634   21.4888 H   0  0  0  0  0  0
  -31.0696  -25.5716   22.5822 H   0  0  0  0  0  0
  -29.4414  -26.1854   22.8202 H   0  0  0  0  0  0
  -30.8576  -25.3748   19.4785 H   0  0  0  0  0  0
  -30.3158  -23.7090   19.3694 H   0  0  0  0  0  0
  -31.5975  -24.1392   20.4893 H   0  0  0  0  0  0
  -27.4559  -25.2080   21.2090 H   0  0  0  0  0  0
  -28.0067  -24.6713   19.6431 H   0  0  0  0  0  0
  -30.2776  -23.5279   22.7929 H   0  0  0  0  0  0
  -32.3493  -20.8908   22.4667 H   0  0  0  0  0  0
  -31.8766  -22.5532   22.4215 H   0  0  0  0  0  0
  -29.0437  -15.1668   21.4393 H   0  0  0  0  0  0
  -28.7808  -21.8411   20.8518 H   0  0  0  0  0  0
  1 25  1  0  0  0
  1 30  2  0  0  0
  1 85  1  0  0  0
  2  3  1  0  0  0
  2 25  1  0  0  0
  2 87  1  0  0  0
  2 88  1  0  0  0
  3  4  1  0  0  0
  3 89  1  0  0  0
  3 90  1  0  0  0
  4  5  1  0  0  0
  4 91  1  0  0  0
  4 92  1  0  0  0
  5  6  1  0  0  0
  5 26  1  0  0  0
  5 93  1  0  0  0
  6 25  1  0  0  0
  6 94  1  0  0  0
  6 95  1  0  0  0
  7  8  2  0  0  0
  7 26  1  0  0  0
  7 29  1  0  0  0
  8  9  1  0  0  0
  8 22  1  0  0  0
  9 10  1  0  0  0
  9 27  2  0  0  0
 10 11  2  0  0  0
 10 15  1  0  0  0
 11 12  1  0  0  0
 11 96  1  0  0  0
 12 13  2  0  0  0
 12 97  1  0  0  0
 13 14  1  0  0  0
 13 31  1  0  0  0
 14 15  2  0  0  0
 14 98  1  0  0  0
 15 99  1  0  0  0
 16 17  2  0  0  0
 16 21  1  0  0  0
 16 31  1  0  0  0
 17 18  1  0  0  0
 17100  1  0  0  0
 18 19  2  0  0  0
 18101  1  0  0  0
 19 20  1  0  0  0
 19 24  1  0  0  0
 20 21  2  0  0  0
 20102  1  0  0  0
 21 23  1  0  0  0
 22 28  1  0  0  0
 22 32  2  0  0  0
 26 27  1  0  0  0
 28103  1  0  0  0
 28104  1  0  0  0
 29105  1  0  0  0
 29106  1  0  0  0
 33 34  1  0  0  0
 33 66  1  0  0  0
 33 70  2  0  0  0
 34 36  1  0  0  0
 34 59  1  0  0  0
 34107  1  0  0  0
 35 44  2  0  0  0
 35 45  1  0  0  0
 35 68  1  0  0  0
 36 56  1  0  0  0
 36108  1  0  0  0
 37 39  1  0  0  0
 37 47  1  0  0  0
 37 66  1  0  0  0
 37109  1  0  0  0
 38 43  2  0  0  0
 38 46  1  0  0  0
 38 47  1  0  0  0
 39 64  1  0  0  0
 39 67  2  0  0  0
 40 52  1  0  0  0
 40 53  2  0  0  0
 40 58  1  0  0  0
 41110  1  0  0  0
 41111  1  0  0  0
 41112  1  0  0  0
 41 48  1  0  0  0
 42 43  1  0  0  0
 42 66  1  0  0  0
 42113  1  0  0  0
 42114  1  0  0  0
 43 44  1  0  0  0
 44115  1  0  0  0
 45 46  2  0  0  0
 45116  1  0  0  0
 46117  1  0  0  0
 47118  1  0  0  0
 47119  1  0  0  0
 48 56  1  0  0  0
 48 65  1  0  0  0
 48120  1  0  0  0
 49 50  1  0  0  0
 49 53  1  0  0  0
 49 64  1  0  0  0
 49121  1  0  0  0
 50 51  1  0  0  0
 50122  1  0  0  0
 50123  1  0  0  0
 51 52  1  0  0  0
 51124  1  0  0  0
 51125  1  0  0  0
 52126  1  0  0  0
 52127  1  0  0  0
 53 54  1  0  0  0
 54 55  2  0  0  0
 54128  1  0  0  0
 55 57  1  0  0  0
 55129  1  0  0  0
 56 69  2  0  0  0
 57 58  2  0  0  0
 57130  1  0  0  0
 58131  1  0  0  0
 59 60  1  0  0  0
 59 61  1  0  0  0
 59 62  1  0  0  0
 60132  1  0  0  0
 60133  1  0  0  0
 60134  1  0  0  0
 61135  1  0  0  0
 61136  1  0  0  0
 61137  1  0  0  0
 62138  1  0  0  0
 62139  1  0  0  0
 62140  1  0  0  0
 63 65  1  0  0  0
 63141  1  0  0  0
 63142  1  0  0  0
 63143  1  0  0  0
 64144  1  0  0  0
 65145  1  0  0  0
 68 81  1  0  0  0
 71 73  2  0  0  0
 71 75  1  0  0  0
 71146  1  0  0  0
 72 74  1  0  0  0
 72 75  2  0  0  0
 72147  1  0  0  0
 73 76  1  0  0  0
 73148  1  0  0  0
 74 76  2  0  0  0
 74149  1  0  0  0
 75 77  1  0  0  0
 76 85  1  0  0  0
 77 84  1  0  0  0
 77 86  2  0  0  0
 78150  1  0  0  0
 78151  1  0  0  0
 78152  1  0  0  0
 78 82  1  0  0  0
 79153  1  0  0  0
 79154  1  0  0  0
 79155  1  0  0  0
 79 83  1  0  0  0
 80 83  1  0  0  0
 80156  1  0  0  0
 80157  1  0  0  0
 80158  1  0  0  0
 81 83  1  0  0  0
 81159  1  0  0  0
 81160  1  0  0  0
 82 83  1  0  0  0
 82 86  1  0  0  0
 82161  1  0  0  0
 84162  1  0  0  0
 84163  1  0  0  0
 85164  1  0  0  0
 86165  1  0  0  0
M  CHG  1  86   1
M  ISO  4   1 100  68 101  81 101  85 100
M  END
> <chiral flag>
0

> <version>
0

> <s_m_source_file>
/data/baiqing/PycharmProjects/Reinvent-master-3.2/result/LINK_invent/BTK/process_docking_weight1_custom_product_contain_oxygen_bond_distance_aromatic_linkinvent_7_9_3/rearranged_h_0075.sdf

> <i_m_source_file_index>
52

> <r_mmod_Potential_Energy-OPLS-2005>
-205.569686889648

> <r_mmod_Stretch_Energy-OPLS-2005>
47.1549873352051

> <r_mmod_Bend_Energy-OPLS-2005>
117.03182220459

> <r_mmod_Torsional_Energy-OPLS-2005>
264.909912109375

> <r_mmod_Improper_Torsional_Energy-OPLS-2005>
4.5762505531311

> <r_mmod_Van_der_Waal_Energy-OPLS-2005>
164.436126708984

> <r_mmod_Electrostatic_Energy-OPLS-2005>
-415.346069335938

> <r_mmod_Solvation_Energy-OPLS-2005>
-403.207946777344

> <b_mmod_Minimization_Converged-OPLS-2005>
0

> <r_mmod_RMS_Derivative-OPLS-2005>
2.13961362838745

$$$$
53
                    3D
 Structure written by MMmdl.
154163  0  0  1  0            999 V2000
  -30.6179  -14.6819   20.5525 C   0  0  0  0  0  0
  -30.4439  -12.4376   19.4575 C   0  0  0  0  0  0
  -29.5127  -12.5468   18.2267 C   0  0  0  0  0  0
  -28.0314  -12.3743   18.6224 C   0  0  0  0  0  0
  -27.6541  -13.2174   19.8670 C   0  0  2  0  0  0
  -28.6941  -13.0188   20.9864 C   0  0  0  0  0  0
  -25.2539  -13.8161   20.5653 C   0  0  0  0  0  0
  -24.1817  -13.0424   20.9159 C   0  0  0  0  0  0
  -24.6392  -11.6895   20.8706 C   0  0  0  0  0  0
  -23.9060  -10.4287   21.0391 C   0  0  0  0  0  0
  -24.3613   -9.4204   21.9177 C   0  0  0  0  0  0
  -23.6289   -8.2240   22.0752 C   0  0  0  0  0  0
  -22.4272   -8.0279   21.3544 C   0  0  0  0  0  0
  -21.9905   -9.0249   20.4643 C   0  0  0  0  0  0
  -22.7232  -10.2128   20.3046 C   0  0  0  0  0  0
  -21.6855   -6.0728   22.5278 C   0  0  0  0  0  0
  -21.4014   -6.5637   23.8213 C   0  0  0  0  0  0
  -21.3660   -5.6785   24.9176 C   0  0  0  0  0  0
  -21.6044   -4.3048   24.7223 C   0  0  0  0  0  0
  -21.8820   -3.8143   23.4349 C   0  0  0  0  0  0
  -21.9193   -4.6954   22.3405 C   0  0  0  0  0  0
  -22.7843  -13.5218   21.1844 C   0  0  0  0  0  0
  -22.1662   -4.2145   21.0980 F   0  0  0  0  0  0
  -21.5629   -3.4539   25.7737 F   0  0  0  0  0  0
  -30.0080  -13.4405   20.4617 N   0  0  0  0  0  0
  -26.2983  -12.9345   20.3304 N   0  0  0  0  0  0
  -25.9314  -11.6489   20.5699 N   0  0  0  0  0  0
  -22.0494  -12.8216   22.0408 N   0  0  0  0  0  0
  -25.4230  -15.1883   20.4070 N   0  0  0  0  0  0
  -31.7244  -14.8653   20.0309 O   0  0  0  0  0  0
  -21.6639   -6.8876   21.4242 O   0  0  0  0  0  0
  -22.3523  -14.5529   20.6697 O   0  0  0  0  0  0
  -24.6266  -31.8575   23.1991 C   0  0  0  0  0  0
  -25.9115  -32.4762   23.8328 C   0  0  1  0  0  0
  -27.2314  -27.2997   20.1092 C   0  0  0  0  0  0
  -25.5918  -33.8569   24.2257 N   0  0  0  0  0  0
  -23.4213  -30.4803   21.5426 C   0  0  2  0  0  0
  -24.8683  -28.9264   20.1101 C   0  0  0  0  0  0
  -22.7466  -29.4625   22.4940 C   0  0  0  0  0  0
  -18.0286  -28.1403   22.8502 C   0  0  0  0  0  0
  -24.1488  -36.7286   23.2644 C   0  0  0  0  0  0
  -25.9626  -30.7806   21.3722 C   0  0  0  0  0  0
  -26.0362  -29.4051   20.7147 C   0  0  0  0  0  0
  -27.2151  -28.6021   20.7061 C   0  0  0  0  0  0
  -26.0327  -26.8669   19.4984 C   0  0  0  0  0  0
  -24.8683  -27.6632   19.4963 C   0  0  0  0  0  0
  -23.6361  -29.8096   20.1593 C   0  0  0  0  0  0
  -25.4115  -36.3074   24.0326 C   0  0  1  0  0  0
  -20.5874  -28.3717   23.1289 C   0  0  2  0  0  0
  -20.6773  -26.9439   22.5389 C   0  0  0  0  0  0
  -19.5725  -26.6402   21.5212 C   0  0  0  0  0  0
  -18.1921  -26.7946   22.1640 C   0  0  0  0  0  0
  -19.1534  -28.8873   23.2893 C   0  0  0  0  0  0
  -18.9465  -30.1477   23.8895 C   0  0  0  0  0  0
  -17.6476  -30.6612   24.0567 C   0  0  0  0  0  0
  -25.9054  -34.9445   23.5096 C   0  0  0  0  0  0
  -16.5356  -29.9119   23.6352 C   0  0  0  0  0  0
  -16.7269  -28.6527   23.0373 C   0  0  0  0  0  0
  -26.4489  -31.6583   25.0706 C   0  0  0  0  0  0
  -25.3720  -31.3712   26.1426 C   0  0  0  0  0  0
  -27.0338  -30.3010   24.6167 C   0  0  0  0  0  0
  -27.6040  -32.4319   25.7486 C   0  0  0  0  0  0
  -27.5575  -37.1799   24.8469 C   0  0  0  0  0  0
  -21.4174  -29.3083   22.3700 N   0  0  0  0  0  0
  -26.4294  -37.3767   23.9401 N   0  0  0  0  0  0
  -24.6893  -31.0570   22.0950 N   0  0  0  0  0  0
  -23.4184  -28.8149   23.3010 O   0  0  0  0  0  0
  -28.3757  -26.4807   20.1679 O   0  0  0  0  0  0
  -26.5633  -34.8916   22.4671 O   0  0  0  0  0  0
  -23.5433  -32.1383   23.7316 O   0  0  0  0  0  0
  -28.9336  -17.8342   19.9147 C   0  0  0  0  0  0
  -28.6793  -19.2297   19.6992 C   0  0  0  0  0  0
  -30.3944  -19.7856   21.2125 C   0  0  0  0  0  0
  -29.9069  -17.3506   20.8318 C   0  0  0  0  0  0
  -29.3569  -20.2959   20.3712 C   0  0  0  0  0  0
  -30.6665  -18.3958   21.4498 C   0  0  0  0  0  0
  -29.5916  -22.9406   20.7341 C   0  0  0  0  0  0
  -28.0364  -22.4691   19.5339 C   0  0  0  0  0  0
  -29.8959  -15.8737   21.3192 C   0  0  0  0  0  0
  -28.3168  -23.7711   20.3605 C   0  0  0  0  0  0
  -28.4783  -25.1342   19.5313 C   0  0  0  0  0  0
  -29.3124  -15.6740   22.4279 N   0  0  0  0  0  0
  -29.0166  -21.7384   20.2492 N   0  0  0  0  0  0
  -31.6731  -18.1016   22.3749 N   0  0  0  0  0  0
  -30.6634  -23.1590   21.2639 O   0  0  0  0  0  0
  -27.2736  -22.1330   18.6493 O   0  0  0  0  0  0
  -31.4818  -12.5796   19.1529 H   0  0  0  0  0  0
  -30.4038  -11.4316   19.8786 H   0  0  0  0  0  0
  -29.7889  -11.8048   17.4762 H   0  0  0  0  0  0
  -29.6513  -13.5222   17.7560 H   0  0  0  0  0  0
  -27.8599  -11.3175   18.8245 H   0  0  0  0  0  0
  -27.3847  -12.6321   17.7829 H   0  0  0  0  0  0
  -27.6856  -14.2644   19.5669 H   0  0  0  0  0  0
  -28.7306  -11.9666   21.2751 H   0  0  0  0  0  0
  -28.3831  -13.5224   21.8955 H   0  0  0  0  0  0
  -25.2766   -9.5685   22.4749 H   0  0  0  0  0  0
  -24.0002   -7.4634   22.7476 H   0  0  0  0  0  0
  -21.0832   -8.8761   19.8951 H   0  0  0  0  0  0
  -22.3691  -10.9658   19.6153 H   0  0  0  0  0  0
  -21.2007   -7.6148   23.9714 H   0  0  0  0  0  0
  -21.1482   -6.0521   25.9077 H   0  0  0  0  0  0
  -22.0599   -2.7608   23.2849 H   0  0  0  0  0  0
  -22.4111  -11.9878   22.4803 H   0  0  0  0  0  0
  -21.1115  -13.1240   22.2620 H   0  0  0  0  0  0
  -24.6576  -15.8434   20.5217 H   0  0  0  0  0  0
  -26.2852  -15.6322   20.1197 H   0  0  0  0  0  0
  -26.7178  -32.5424   23.1072 H   0  0  0  0  0  0
  -25.0027  -33.9704   25.0378 H   0  0  0  0  0  0
  -22.7172  -31.3011   21.3976 H   0  0  0  0  0  0
  -23.3750  -35.9620   23.3307 H   0  0  0  0  0  0
  -24.3571  -36.8912   22.2057 H   0  0  0  0  0  0
  -23.7242  -37.6488   23.6672 H   0  0  0  0  0  0
  -26.0971  -31.5439   20.6049 H   0  0  0  0  0  0
  -26.8424  -30.8294   22.0029 H   0  0  0  0  0  0
  -28.1126  -28.9673   21.1864 H   0  0  0  0  0  0
  -25.9558  -25.8946   19.0392 H   0  0  0  0  0  0
  -23.9691  -27.2865   19.0294 H   0  0  0  0  0  0
  -23.7547  -30.5842   19.4003 H   0  0  0  0  0  0
  -22.7551  -29.2381   19.8599 H   0  0  0  0  0  0
  -25.1303  -36.1923   25.0818 H   0  0  0  0  0  0
  -20.9963  -28.3273   24.1410 H   0  0  0  0  0  0
  -20.5728  -26.2305   23.3589 H   0  0  0  0  0  0
  -21.6646  -26.7507   22.1143 H   0  0  0  0  0  0
  -19.6890  -25.6320   21.1243 H   0  0  0  0  0  0
  -19.6656  -27.3218   20.6750 H   0  0  0  0  0  0
  -17.4184  -26.6710   21.4047 H   0  0  0  0  0  0
  -18.0314  -26.0098   22.9037 H   0  0  0  0  0  0
  -19.7942  -30.7296   24.2242 H   0  0  0  0  0  0
  -17.5032  -31.6297   24.5160 H   0  0  0  0  0  0
  -15.5353  -30.3026   23.7690 H   0  0  0  0  0  0
  -15.8656  -28.0853   22.7099 H   0  0  0  0  0  0
  -24.5902  -30.7050   25.7749 H   0  0  0  0  0  0
  -24.8894  -32.2873   26.4847 H   0  0  0  0  0  0
  -25.8042  -30.8891   27.0208 H   0  0  0  0  0  0
  -26.2918  -29.6752   24.1187 H   0  0  0  0  0  0
  -27.4041  -29.7263   25.4670 H   0  0  0  0  0  0
  -27.8785  -30.4296   23.9389 H   0  0  0  0  0  0
  -27.2649  -33.3630   26.2040 H   0  0  0  0  0  0
  -28.3868  -32.6863   25.0328 H   0  0  0  0  0  0
  -28.0687  -31.8456   26.5423 H   0  0  0  0  0  0
  -28.2607  -38.0082   24.7501 H   0  0  0  0  0  0
  -28.1056  -36.2614   24.6322 H   0  0  0  0  0  0
  -27.2285  -37.1479   25.8870 H   0  0  0  0  0  0
  -20.9344  -29.8858   21.6969 H   0  0  0  0  0  0
  -26.0174  -38.2848   24.1387 H   0  0  0  0  0  0
  -28.3020  -17.1182   19.4108 H   0  0  0  0  0  0
  -27.8829  -19.4809   19.0116 H   0  0  0  0  0  0
  -30.9866  -20.5096   21.7555 H   0  0  0  0  0  0
  -27.6141  -23.8794   21.1859 H   0  0  0  0  0  0
  -27.8628  -25.1004   18.6338 H   0  0  0  0  0  0
  -29.4866  -25.1385   19.1147 H   0  0  0  0  0  0
  -28.9316  -16.5388   22.7944 H   0  0  0  0  0  0
  -31.6588  -17.1887   22.8183 H   0  0  0  0  0  0
  -31.9553  -18.8372   23.0167 H   0  0  0  0  0  0
  1 25  1  0  0  0
  1 30  2  0  0  0
  1 79  1  0  0  0
  2  3  1  0  0  0
  2 25  1  0  0  0
  2 87  1  0  0  0
  2 88  1  0  0  0
  3  4  1  0  0  0
  3 89  1  0  0  0
  3 90  1  0  0  0
  4  5  1  0  0  0
  4 91  1  0  0  0
  4 92  1  0  0  0
  5  6  1  0  0  0
  5 26  1  0  0  0
  5 93  1  0  0  0
  6 25  1  0  0  0
  6 94  1  0  0  0
  6 95  1  0  0  0
  7  8  2  0  0  0
  7 26  1  0  0  0
  7 29  1  0  0  0
  8  9  1  0  0  0
  8 22  1  0  0  0
  9 10  1  0  0  0
  9 27  2  0  0  0
 10 11  2  0  0  0
 10 15  1  0  0  0
 11 12  1  0  0  0
 11 96  1  0  0  0
 12 13  2  0  0  0
 12 97  1  0  0  0
 13 14  1  0  0  0
 13 31  1  0  0  0
 14 15  2  0  0  0
 14 98  1  0  0  0
 15 99  1  0  0  0
 16 17  2  0  0  0
 16 21  1  0  0  0
 16 31  1  0  0  0
 17 18  1  0  0  0
 17100  1  0  0  0
 18 19  2  0  0  0
 18101  1  0  0  0
 19 20  1  0  0  0
 19 24  1  0  0  0
 20 21  2  0  0  0
 20102  1  0  0  0
 21 23  1  0  0  0
 22 28  1  0  0  0
 22 32  2  0  0  0
 26 27  1  0  0  0
 28103  1  0  0  0
 28104  1  0  0  0
 29105  1  0  0  0
 29106  1  0  0  0
 33 34  1  0  0  0
 33 66  1  0  0  0
 33 70  2  0  0  0
 34 36  1  0  0  0
 34 59  1  0  0  0
 34107  1  0  0  0
 35 44  2  0  0  0
 35 45  1  0  0  0
 35 68  1  0  0  0
 36 56  1  0  0  0
 36108  1  0  0  0
 37 39  1  0  0  0
 37 47  1  0  0  0
 37 66  1  0  0  0
 37109  1  0  0  0
 38 43  2  0  0  0
 38 46  1  0  0  0
 38 47  1  0  0  0
 39 64  1  0  0  0
 39 67  2  0  0  0
 40 52  1  0  0  0
 40 53  2  0  0  0
 40 58  1  0  0  0
 41110  1  0  0  0
 41111  1  0  0  0
 41112  1  0  0  0
 41 48  1  0  0  0
 42 43  1  0  0  0
 42 66  1  0  0  0
 42113  1  0  0  0
 42114  1  0  0  0
 43 44  1  0  0  0
 44115  1  0  0  0
 45 46  2  0  0  0
 45116  1  0  0  0
 46117  1  0  0  0
 47118  1  0  0  0
 47119  1  0  0  0
 48 56  1  0  0  0
 48 65  1  0  0  0
 48120  1  0  0  0
 49 50  1  0  0  0
 49 53  1  0  0  0
 49 64  1  0  0  0
 49121  1  0  0  0
 50 51  1  0  0  0
 50122  1  0  0  0
 50123  1  0  0  0
 51 52  1  0  0  0
 51124  1  0  0  0
 51125  1  0  0  0
 52126  1  0  0  0
 52127  1  0  0  0
 53 54  1  0  0  0
 54 55  2  0  0  0
 54128  1  0  0  0
 55 57  1  0  0  0
 55129  1  0  0  0
 56 69  2  0  0  0
 57 58  2  0  0  0
 57130  1  0  0  0
 58131  1  0  0  0
 59 60  1  0  0  0
 59 61  1  0  0  0
 59 62  1  0  0  0
 60132  1  0  0  0
 60133  1  0  0  0
 60134  1  0  0  0
 61135  1  0  0  0
 61136  1  0  0  0
 61137  1  0  0  0
 62138  1  0  0  0
 62139  1  0  0  0
 62140  1  0  0  0
 63 65  1  0  0  0
 63141  1  0  0  0
 63142  1  0  0  0
 63143  1  0  0  0
 64144  1  0  0  0
 65145  1  0  0  0
 68 81  1  0  0  0
 71 72  2  0  0  0
 71 74  1  0  0  0
 71146  1  0  0  0
 72 75  1  0  0  0
 72147  1  0  0  0
 73 75  2  0  0  0
 73 76  1  0  0  0
 73148  1  0  0  0
 74 76  2  0  0  0
 74 79  1  0  0  0
 75 83  1  0  0  0
 76 84  1  0  0  0
 77 80  1  0  0  0
 77 83  1  0  0  0
 77 85  2  0  0  0
 78 80  1  0  0  0
 78 83  1  0  0  0
 78 86  2  0  0  0
 79 82  2  0  0  0
 80 81  1  0  0  0
 80149  1  0  0  0
 81150  1  0  0  0
 81151  1  0  0  0
 82152  1  0  0  0
 84153  1  0  0  0
 84154  1  0  0  0
M  ISO  4   1 100  68 101  79 100  81 101
M  END
> <chiral flag>
0

> <version>
0

> <s_m_source_file>
/data/baiqing/PycharmProjects/Reinvent-master-3.2/result/LINK_invent/BTK/process_docking_weight1_custom_product_contain_oxygen_bond_distance_aromatic_linkinvent_7_9_3/rearranged_h_0075.sdf

> <i_m_source_file_index>
53

> <r_mmod_Potential_Energy-OPLS-2005>
246.156585693359

> <r_mmod_Stretch_Energy-OPLS-2005>
109.223915100098

> <r_mmod_Bend_Energy-OPLS-2005>
195.275115966797

> <r_mmod_Torsional_Energy-OPLS-2005>
202.317077636719

> <r_mmod_Improper_Torsional_Energy-OPLS-2005>
8.20353984832764

> <r_mmod_Van_der_Waal_Energy-OPLS-2005>
141.078506469727

> <r_mmod_Electrostatic_Energy-OPLS-2005>
-233.796112060547

> <r_mmod_Solvation_Energy-OPLS-2005>
-231.307510375977

> <b_mmod_Minimization_Converged-OPLS-2005>
0

> <r_mmod_RMS_Derivative-OPLS-2005>
1.85580146312714

$$$$
54
                    3D
 Structure written by MMmdl.
159168  0  0  1  0            999 V2000
  -30.6121  -14.6483   20.5532 C   0  0  0  0  0  0
  -30.4478  -12.4109   19.4620 C   0  0  0  0  0  0
  -29.5127  -12.5224   18.2354 C   0  0  0  0  0  0
  -28.0370  -12.3463   18.6472 C   0  0  0  0  0  0
  -27.6583  -13.2154   19.8776 C   0  0  2  0  0  0
  -28.6993  -13.0518   21.0079 C   0  0  0  0  0  0
  -25.2587  -13.8176   20.5741 C   0  0  0  0  0  0
  -24.1838  -13.0435   20.9186 C   0  0  0  0  0  0
  -24.6398  -11.6895   20.8723 C   0  0  0  0  0  0
  -23.9061  -10.4283   21.0391 C   0  0  0  0  0  0
  -24.3604   -9.4200   21.9181 C   0  0  0  0  0  0
  -23.6277   -8.2237   22.0758 C   0  0  0  0  0  0
  -22.4263   -8.0272   21.3546 C   0  0  0  0  0  0
  -21.9899   -9.0242   20.4645 C   0  0  0  0  0  0
  -22.7229  -10.2121   20.3052 C   0  0  0  0  0  0
  -21.6849   -6.0725   22.5274 C   0  0  0  0  0  0
  -21.4018   -6.5630   23.8204 C   0  0  0  0  0  0
  -21.3659   -5.6786   24.9172 C   0  0  0  0  0  0
  -21.6048   -4.3054   24.7228 C   0  0  0  0  0  0
  -21.8822   -3.8139   23.4354 C   0  0  0  0  0  0
  -21.9194   -4.6948   22.3403 C   0  0  0  0  0  0
  -22.7863  -13.5229   21.1838 C   0  0  0  0  0  0
  -22.1659   -4.2130   21.0979 F   0  0  0  0  0  0
  -21.5626   -3.4543   25.7746 F   0  0  0  0  0  0
  -30.0178  -13.4142   20.4596 N   0  0  0  0  0  0
  -26.3012  -12.9346   20.3383 N   0  0  0  0  0  0
  -25.9331  -11.6493   20.5778 N   0  0  0  0  0  0
  -22.0494  -12.8218   22.0380 N   0  0  0  0  0  0
  -25.4325  -15.1897   20.4202 N   0  0  0  0  0  0
  -31.7429  -14.8460   20.0947 O   0  0  0  0  0  0
  -21.6636   -6.8860   21.4235 O   0  0  0  0  0  0
  -22.3549  -14.5533   20.6676 O   0  0  0  0  0  0
  -24.6244  -31.8574   23.2039 C   0  0  0  0  0  0
  -25.9096  -32.4772   23.8353 C   0  0  1  0  0  0
  -27.2360  -27.3326   20.1276 C   0  0  0  0  0  0
  -25.5916  -33.8572   24.2299 N   0  0  0  0  0  0
  -23.4200  -30.4791   21.5423 C   0  0  2  0  0  0
  -24.8735  -28.9346   20.1112 C   0  0  0  0  0  0
  -22.7471  -29.4600   22.4916 C   0  0  0  0  0  0
  -18.0275  -28.1372   22.8453 C   0  0  0  0  0  0
  -24.1479  -36.7277   23.2642 C   0  0  0  0  0  0
  -25.9581  -30.7950   21.3716 C   0  0  0  0  0  0
  -26.0385  -29.4229   20.7170 C   0  0  0  0  0  0
  -27.2266  -28.6351   20.7130 C   0  0  0  0  0  0
  -26.0537  -26.8943   19.4936 C   0  0  0  0  0  0
  -24.8833  -27.6764   19.4880 C   0  0  0  0  0  0
  -23.6376  -29.8099   20.1586 C   0  0  0  0  0  0
  -25.4107  -36.3076   24.0336 C   0  0  1  0  0  0
  -20.5879  -28.3662   23.1268 C   0  0  2  0  0  0
  -20.6765  -26.9382   22.5401 C   0  0  0  0  0  0
  -19.5751  -26.6374   21.5185 C   0  0  0  0  0  0
  -18.1933  -26.7916   22.1587 C   0  0  0  0  0  0
  -19.1529  -28.8835   23.2858 C   0  0  0  0  0  0
  -18.9470  -30.1442   23.8872 C   0  0  0  0  0  0
  -17.6471  -30.6570   24.0551 C   0  0  0  0  0  0
  -25.9045  -34.9442   23.5120 C   0  0  0  0  0  0
  -16.5356  -29.9081   23.6333 C   0  0  0  0  0  0
  -16.7269  -28.6507   23.0328 C   0  0  0  0  0  0
  -26.4498  -31.6581   25.0711 C   0  0  0  0  0  0
  -25.3749  -31.3706   26.1451 C   0  0  0  0  0  0
  -27.0346  -30.3025   24.6144 C   0  0  0  0  0  0
  -27.6073  -32.4304   25.7465 C   0  0  0  0  0  0
  -27.5571  -37.1795   24.8464 C   0  0  0  0  0  0
  -21.4186  -29.3036   22.3687 N   0  0  0  0  0  0
  -26.4282  -37.3774   23.9411 N   0  0  0  0  0  0
  -24.6856  -31.0595   22.0977 N   0  0  0  0  0  0
  -23.4191  -28.8132   23.2981 O   0  0  0  0  0  0
  -28.3356  -26.4670   20.1615 O   0  0  0  0  0  0
  -26.5608  -34.8894   22.4686 O   0  0  0  0  0  0
  -23.5410  -32.1352   23.7393 O   0  0  0  0  0  0
  -30.4832  -19.3027   20.0007 C   0  0  0  0  0  0
  -30.6477  -17.8875   20.1223 C   0  0  0  0  0  0
  -28.8415  -17.8495   21.6859 C   0  0  0  0  0  0
  -28.6699  -19.2689   21.5726 C   0  0  0  0  0  0
  -29.4942  -20.0630   20.7016 C   0  0  0  0  0  0
  -29.8143  -17.1095   20.9632 C   0  0  0  0  0  0
  -29.7066  -23.6611   19.4906 C   0  0  0  0  0  0
  -28.8092  -23.8748   20.4549 C   0  0  0  0  0  0
  -27.5875  -19.8311   22.4180 C   0  0  0  0  0  0
  -30.1289  -22.1967   19.4090 C   0  0  0  0  0  0
  -28.5335  -22.5235   21.1462 C   0  0  0  0  0  0
  -26.1690  -19.5109   21.9656 C   0  0  0  0  0  0
  -28.1205  -25.2113   20.9130 C   0  0  0  0  0  0
  -29.3816  -21.4982   20.4691 N   0  0  0  0  0  0
  -29.8438  -15.6466   21.1013 N   0  0  0  0  0  0
  -27.7749  -20.5040   23.4364 O   0  0  0  0  0  0
  -31.4876  -12.5533   19.1595 H   0  0  0  0  0  0
  -30.4024  -11.4105   19.8930 H   0  0  0  0  0  0
  -29.7840  -11.7731   17.4893 H   0  0  0  0  0  0
  -29.6412  -13.4946   17.7588 H   0  0  0  0  0  0
  -27.8830  -11.2912   18.8779 H   0  0  0  0  0  0
  -27.3773  -12.5719   17.8084 H   0  0  0  0  0  0
  -27.6830  -14.2543   19.5485 H   0  0  0  0  0  0
  -28.7143  -12.0229   21.3641 H   0  0  0  0  0  0
  -28.4322  -13.6554   21.8759 H   0  0  0  0  0  0
  -25.2742   -9.5684   22.4755 H   0  0  0  0  0  0
  -23.9976   -7.4646   22.7500 H   0  0  0  0  0  0
  -21.0824   -8.8762   19.8965 H   0  0  0  0  0  0
  -22.3685  -10.9650   19.6163 H   0  0  0  0  0  0
  -21.2012   -7.6144   23.9705 H   0  0  0  0  0  0
  -21.1477   -6.0523   25.9067 H   0  0  0  0  0  0
  -22.0606   -2.7601   23.2866 H   0  0  0  0  0  0
  -22.4106  -11.9866   22.4743 H   0  0  0  0  0  0
  -21.1126  -13.1262   22.2598 H   0  0  0  0  0  0
  -24.6664  -15.8437   20.5364 H   0  0  0  0  0  0
  -26.2871  -15.6306   20.1027 H   0  0  0  0  0  0
  -26.7136  -32.5442   23.1071 H   0  0  0  0  0  0
  -25.0099  -33.9739   25.0470 H   0  0  0  0  0  0
  -22.7146  -31.2992   21.3922 H   0  0  0  0  0  0
  -23.3759  -35.9589   23.3272 H   0  0  0  0  0  0
  -24.3565  -36.8943   22.2058 H   0  0  0  0  0  0
  -23.7202  -37.6459   23.6680 H   0  0  0  0  0  0
  -26.0804  -31.5591   20.6020 H   0  0  0  0  0  0
  -26.8412  -30.8508   21.9953 H   0  0  0  0  0  0
  -28.1191  -29.0069   21.1959 H   0  0  0  0  0  0
  -26.0290  -25.9235   19.0163 H   0  0  0  0  0  0
  -23.9918  -27.2976   19.0072 H   0  0  0  0  0  0
  -23.7554  -30.5829   19.3972 H   0  0  0  0  0  0
  -22.7612  -29.2337   19.8592 H   0  0  0  0  0  0
  -25.1302  -36.1917   25.0834 H   0  0  0  0  0  0
  -20.9961  -28.3194   24.1372 H   0  0  0  0  0  0
  -20.5619  -26.2265   23.3596 H   0  0  0  0  0  0
  -21.6631  -26.7371   22.1204 H   0  0  0  0  0  0
  -19.6937  -25.6291   21.1211 H   0  0  0  0  0  0
  -19.6731  -27.3177   20.6713 H   0  0  0  0  0  0
  -17.4215  -26.6629   21.3998 H   0  0  0  0  0  0
  -18.0345  -26.0051   22.8982 H   0  0  0  0  0  0
  -19.7950  -30.7264   24.2217 H   0  0  0  0  0  0
  -17.5032  -31.6254   24.5161 H   0  0  0  0  0  0
  -15.5373  -30.2986   23.7702 H   0  0  0  0  0  0
  -15.8643  -28.0867   22.7024 H   0  0  0  0  0  0
  -24.5908  -30.7086   25.7762 H   0  0  0  0  0  0
  -24.8963  -32.2882   26.4903 H   0  0  0  0  0  0
  -25.8100  -30.8845   27.0204 H   0  0  0  0  0  0
  -26.2914  -29.6742   24.1228 H   0  0  0  0  0  0
  -27.4144  -29.7317   25.4630 H   0  0  0  0  0  0
  -27.8725  -30.4346   23.9288 H   0  0  0  0  0  0
  -27.2740  -33.3674   26.1936 H   0  0  0  0  0  0
  -28.3934  -32.6752   25.0306 H   0  0  0  0  0  0
  -28.0644  -31.8455   26.5460 H   0  0  0  0  0  0
  -28.2589  -38.0085   24.7508 H   0  0  0  0  0  0
  -28.1079  -36.2633   24.6316 H   0  0  0  0  0  0
  -27.2282  -37.1443   25.8862 H   0  0  0  0  0  0
  -20.9370  -29.8804   21.6934 H   0  0  0  0  0  0
  -26.0163  -38.2849   24.1451 H   0  0  0  0  0  0
  -31.1591  -19.8023   19.3240 H   0  0  0  0  0  0
  -31.4210  -17.4070   19.5407 H   0  0  0  0  0  0
  -28.1839  -17.3068   22.3519 H   0  0  0  0  0  0
  -30.1167  -24.4164   18.8351 H   0  0  0  0  0  0
  -31.2055  -22.1122   19.5621 H   0  0  0  0  0  0
  -29.8840  -21.7913   18.4265 H   0  0  0  0  0  0
  -27.4721  -22.2861   21.0632 H   0  0  0  0  0  0
  -28.7930  -22.5985   22.2032 H   0  0  0  0  0  0
  -26.1004  -19.6075   20.8828 H   0  0  0  0  0  0
  -25.4502  -20.1916   22.4216 H   0  0  0  0  0  0
  -25.9091  -18.4895   22.2403 H   0  0  0  0  0  0
  -28.4591  -25.4001   21.9334 H   0  0  0  0  0  0
  -27.0555  -24.9903   21.0064 H   0  0  0  0  0  0
  -29.0421  -15.2644   21.5806 H   0  0  0  0  0  0
  1 25  1  0  0  0
  1 30  2  0  0  0
  1 85  1  0  0  0
  2  3  1  0  0  0
  2 25  1  0  0  0
  2 87  1  0  0  0
  2 88  1  0  0  0
  3  4  1  0  0  0
  3 89  1  0  0  0
  3 90  1  0  0  0
  4  5  1  0  0  0
  4 91  1  0  0  0
  4 92  1  0  0  0
  5  6  1  0  0  0
  5 26  1  0  0  0
  5 93  1  0  0  0
  6 25  1  0  0  0
  6 94  1  0  0  0
  6 95  1  0  0  0
  7  8  2  0  0  0
  7 26  1  0  0  0
  7 29  1  0  0  0
  8  9  1  0  0  0
  8 22  1  0  0  0
  9 10  1  0  0  0
  9 27  2  0  0  0
 10 11  2  0  0  0
 10 15  1  0  0  0
 11 12  1  0  0  0
 11 96  1  0  0  0
 12 13  2  0  0  0
 12 97  1  0  0  0
 13 14  1  0  0  0
 13 31  1  0  0  0
 14 15  2  0  0  0
 14 98  1  0  0  0
 15 99  1  0  0  0
 16 17  2  0  0  0
 16 21  1  0  0  0
 16 31  1  0  0  0
 17 18  1  0  0  0
 17100  1  0  0  0
 18 19  2  0  0  0
 18101  1  0  0  0
 19 20  1  0  0  0
 19 24  1  0  0  0
 20 21  2  0  0  0
 20102  1  0  0  0
 21 23  1  0  0  0
 22 28  1  0  0  0
 22 32  2  0  0  0
 26 27  1  0  0  0
 28103  1  0  0  0
 28104  1  0  0  0
 29105  1  0  0  0
 29106  1  0  0  0
 33 34  1  0  0  0
 33 66  1  0  0  0
 33 70  2  0  0  0
 34 36  1  0  0  0
 34 59  1  0  0  0
 34107  1  0  0  0
 35 44  2  0  0  0
 35 45  1  0  0  0
 35 68  1  0  0  0
 36 56  1  0  0  0
 36108  1  0  0  0
 37 39  1  0  0  0
 37 47  1  0  0  0
 37 66  1  0  0  0
 37109  1  0  0  0
 38 43  2  0  0  0
 38 46  1  0  0  0
 38 47  1  0  0  0
 39 64  1  0  0  0
 39 67  2  0  0  0
 40 52  1  0  0  0
 40 53  2  0  0  0
 40 58  1  0  0  0
 41110  1  0  0  0
 41111  1  0  0  0
 41112  1  0  0  0
 41 48  1  0  0  0
 42 43  1  0  0  0
 42 66  1  0  0  0
 42113  1  0  0  0
 42114  1  0  0  0
 43 44  1  0  0  0
 44115  1  0  0  0
 45 46  2  0  0  0
 45116  1  0  0  0
 46117  1  0  0  0
 47118  1  0  0  0
 47119  1  0  0  0
 48 56  1  0  0  0
 48 65  1  0  0  0
 48120  1  0  0  0
 49 50  1  0  0  0
 49 53  1  0  0  0
 49 64  1  0  0  0
 49121  1  0  0  0
 50 51  1  0  0  0
 50122  1  0  0  0
 50123  1  0  0  0
 51 52  1  0  0  0
 51124  1  0  0  0
 51125  1  0  0  0
 52126  1  0  0  0
 52127  1  0  0  0
 53 54  1  0  0  0
 54 55  2  0  0  0
 54128  1  0  0  0
 55 57  1  0  0  0
 55129  1  0  0  0
 56 69  2  0  0  0
 57 58  2  0  0  0
 57130  1  0  0  0
 58131  1  0  0  0
 59 60  1  0  0  0
 59 61  1  0  0  0
 59 62  1  0  0  0
 60132  1  0  0  0
 60133  1  0  0  0
 60134  1  0  0  0
 61135  1  0  0  0
 61136  1  0  0  0
 61137  1  0  0  0
 62138  1  0  0  0
 62139  1  0  0  0
 62140  1  0  0  0
 63 65  1  0  0  0
 63141  1  0  0  0
 63142  1  0  0  0
 63143  1  0  0  0
 64144  1  0  0  0
 65145  1  0  0  0
 68 83  1  0  0  0
 71 72  2  0  0  0
 71 75  1  0  0  0
 71146  1  0  0  0
 72 76  1  0  0  0
 72147  1  0  0  0
 73 74  1  0  0  0
 73 76  2  0  0  0
 73148  1  0  0  0
 74 75  2  0  0  0
 74 79  1  0  0  0
 75 84  1  0  0  0
 76 85  1  0  0  0
 77 78  2  0  0  0
 77 80  1  0  0  0
 77149  1  0  0  0
 78 81  1  0  0  0
 78 83  1  0  0  0
 79 82  1  0  0  0
 79 86  2  0  0  0
 80 84  1  0  0  0
 80150  1  0  0  0
 80151  1  0  0  0
 81 84  1  0  0  0
 81152  1  0  0  0
 81153  1  0  0  0
 82154  1  0  0  0
 82155  1  0  0  0
 82156  1  0  0  0
 83157  1  0  0  0
 83158  1  0  0  0
 85159  1  0  0  0
M  ISO  4   1 100  68 101  83 101  85 100
M  END
> <chiral flag>
0

> <version>
0

> <s_m_source_file>
/data/baiqing/PycharmProjects/Reinvent-master-3.2/result/LINK_invent/BTK/process_docking_weight1_custom_product_contain_oxygen_bond_distance_aromatic_linkinvent_7_9_3/rearranged_h_0075.sdf

> <i_m_source_file_index>
54

> <r_mmod_Potential_Energy-OPLS-2005>
148.483047485352

> <r_mmod_Stretch_Energy-OPLS-2005>
83.4560394287109

> <r_mmod_Bend_Energy-OPLS-2005>
223.596252441406

> <r_mmod_Torsional_Energy-OPLS-2005>
259.066955566406

> <r_mmod_Improper_Torsional_Energy-OPLS-2005>
2.89560079574585

> <r_mmod_Van_der_Waal_Energy-OPLS-2005>
140.363327026367

> <r_mmod_Electrostatic_Energy-OPLS-2005>
-368.174682617188

> <r_mmod_Solvation_Energy-OPLS-2005>
-240.894317626953

> <b_mmod_Minimization_Converged-OPLS-2005>
0

> <r_mmod_RMS_Derivative-OPLS-2005>
2.88802742958069

$$$$
55
                    3D
 Structure written by MMmdl.
166175  0  0  1  0            999 V2000
  -30.6925  -14.5126   20.4106 C   0  0  0  0  0  0
  -30.4210  -12.2919   19.4426 C   0  0  0  0  0  0
  -29.4982  -12.4546   18.2164 C   0  0  0  0  0  0
  -28.0187  -12.3298   18.6283 C   0  0  0  0  0  0
  -27.6536  -13.2036   19.8580 C   0  0  2  0  0  0
  -28.7040  -13.0692   20.9866 C   0  0  0  0  0  0
  -25.2576  -13.8144   20.5674 C   0  0  0  0  0  0
  -24.1834  -13.0427   20.9188 C   0  0  0  0  0  0
  -24.6392  -11.6898   20.8744 C   0  0  0  0  0  0
  -23.9059  -10.4289   21.0413 C   0  0  0  0  0  0
  -24.3602   -9.4200   21.9192 C   0  0  0  0  0  0
  -23.6280   -8.2237   22.0755 C   0  0  0  0  0  0
  -22.4264   -8.0277   21.3542 C   0  0  0  0  0  0
  -21.9895   -9.0258   20.4651 C   0  0  0  0  0  0
  -22.7227  -10.2139   20.3065 C   0  0  0  0  0  0
  -21.6852   -6.0731   22.5280 C   0  0  0  0  0  0
  -21.4016   -6.5634   23.8210 C   0  0  0  0  0  0
  -21.3658   -5.6781   24.9173 C   0  0  0  0  0  0
  -21.6036   -4.3045   24.7225 C   0  0  0  0  0  0
  -21.8818   -3.8145   23.4349 C   0  0  0  0  0  0
  -21.9194   -4.6964   22.3404 C   0  0  0  0  0  0
  -22.7860  -13.5237   21.1847 C   0  0  0  0  0  0
  -22.1657   -4.2153   21.0984 F   0  0  0  0  0  0
  -21.5630   -3.4525   25.7736 F   0  0  0  0  0  0
  -30.0343  -13.3241   20.4138 N   0  0  0  0  0  0
  -26.2999  -12.9300   20.3317 N   0  0  0  0  0  0
  -25.9314  -11.6475   20.5771 N   0  0  0  0  0  0
  -22.0469  -12.8253   22.0401 N   0  0  0  0  0  0
  -25.4304  -15.1861   20.4060 N   0  0  0  0  0  0
  -31.9045  -14.5996   20.2218 O   0  0  0  0  0  0
  -21.6632   -6.8874   21.4236 O   0  0  0  0  0  0
  -22.3557  -14.5547   20.6692 O   0  0  0  0  0  0
  -24.6166  -31.8686   23.2097 C   0  0  0  0  0  0
  -25.9057  -32.4827   23.8389 C   0  0  1  0  0  0
  -27.2301  -27.4294   20.0943 C   0  0  0  0  0  0
  -25.5907  -33.8622   24.2326 N   0  0  0  0  0  0
  -23.4023  -30.4936   21.5527 C   0  0  2  0  0  0
  -24.8448  -28.9622   20.1158 C   0  0  0  0  0  0
  -22.7418  -29.4669   22.5002 C   0  0  0  0  0  0
  -18.0276  -28.1384   22.8493 C   0  0  0  0  0  0
  -24.1482  -36.7323   23.2634 C   0  0  0  0  0  0
  -25.9314  -30.8353   21.3594 C   0  0  0  0  0  0
  -26.0082  -29.4693   20.7074 C   0  0  0  0  0  0
  -27.2035  -28.7127   20.6906 C   0  0  0  0  0  0
  -26.0426  -26.9433   19.4945 C   0  0  0  0  0  0
  -24.8572  -27.6978   19.5068 C   0  0  0  0  0  0
  -23.6079  -29.8291   20.1667 C   0  0  0  0  0  0
  -25.4099  -36.3114   24.0337 C   0  0  1  0  0  0
  -20.5866  -28.3671   23.1323 C   0  0  2  0  0  0
  -20.6766  -26.9408   22.5421 C   0  0  0  0  0  0
  -19.5744  -26.6390   21.5214 C   0  0  0  0  0  0
  -18.1920  -26.7930   22.1625 C   0  0  0  0  0  0
  -19.1521  -28.8841   23.2910 C   0  0  0  0  0  0
  -18.9450  -30.1444   23.8921 C   0  0  0  0  0  0
  -17.6455  -30.6586   24.0568 C   0  0  0  0  0  0
  -25.9029  -34.9480   23.5128 C   0  0  0  0  0  0
  -16.5349  -29.9093   23.6320 C   0  0  0  0  0  0
  -16.7263  -28.6507   23.0344 C   0  0  0  0  0  0
  -26.4469  -31.6600   25.0719 C   0  0  0  0  0  0
  -25.3735  -31.3728   26.1476 C   0  0  0  0  0  0
  -27.0285  -30.3043   24.6082 C   0  0  0  0  0  0
  -27.6047  -32.4314   25.7485 C   0  0  0  0  0  0
  -27.5574  -37.1817   24.8461 C   0  0  0  0  0  0
  -21.4142  -29.3044   22.3746 N   0  0  0  0  0  0
  -26.4289  -37.3795   23.9403 N   0  0  0  0  0  0
  -24.6692  -31.0796   22.0996 N   0  0  0  0  0  0
  -23.4189  -28.8208   23.3047 O   0  0  0  0  0  0
  -28.3973  -26.6859   20.1184 O   0  0  0  0  0  0
  -26.5593  -34.8935   22.4691 O   0  0  0  0  0  0
  -23.5362  -32.1437   23.7502 O   0  0  0  0  0  0
  -31.3334  -18.8853   19.3537 C   0  0  0  0  0  0
  -29.3271  -18.6355   20.6864 C   0  0  0  0  0  0
  -31.4263  -20.2380   19.7407 C   0  0  0  0  0  0
  -29.4057  -19.9997   21.0529 C   0  0  0  0  0  0
  -30.2613  -18.0636   19.7889 C   0  0  0  0  0  0
  -30.4438  -20.8248   20.5637 C   0  0  0  0  0  0
  -30.7348  -24.9655   20.2719 C   0  0  0  0  0  0
  -29.4934  -24.4604   20.3969 C   0  0  0  0  0  0
  -31.9985  -24.1600   20.5318 C   0  0  0  0  0  0
  -29.2587  -23.0040   20.8070 C   0  0  0  0  0  0
  -31.7381  -22.8334   21.2749 C   0  0  0  0  0  0
  -31.0398  -16.3170   18.0658 C   0  0  0  0  0  0
  -28.6533  -16.7085   18.4588 C   0  0  0  0  0  0
  -28.2320  -25.2571   20.0773 C   0  0  0  0  0  0
  -30.0145  -16.6561   19.1879 C   0  0  0  0  0  0
  -30.4877  -22.2052   20.8500 N   0  0  0  0  0  0
  -29.8789  -15.5719   20.2007 N   0  0  0  0  0  0
  -31.4662  -12.3731   19.1382 H   0  0  0  0  0  0
  -30.3102  -11.3014   19.8856 H   0  0  0  0  0  0
  -29.7395  -11.7027   17.4641 H   0  0  0  0  0  0
  -29.6667  -13.4202   17.7410 H   0  0  0  0  0  0
  -27.8308  -11.2786   18.8528 H   0  0  0  0  0  0
  -27.3745  -12.5781   17.7854 H   0  0  0  0  0  0
  -27.6629  -14.2327   19.5093 H   0  0  0  0  0  0
  -28.6754  -12.0707   21.4235 H   0  0  0  0  0  0
  -28.4907  -13.7665   21.7985 H   0  0  0  0  0  0
  -25.2742   -9.5677   22.4768 H   0  0  0  0  0  0
  -23.9988   -7.4629   22.7473 H   0  0  0  0  0  0
  -21.0826   -8.8782   19.8959 H   0  0  0  0  0  0
  -22.3684  -10.9677   19.6180 H   0  0  0  0  0  0
  -21.1998   -7.6136   23.9716 H   0  0  0  0  0  0
  -21.1477   -6.0512   25.9073 H   0  0  0  0  0  0
  -22.0601   -2.7608   23.2854 H   0  0  0  0  0  0
  -22.4037  -11.9903   22.4804 H   0  0  0  0  0  0
  -21.1105  -13.1332   22.2591 H   0  0  0  0  0  0
  -24.6627  -15.8397   20.5146 H   0  0  0  0  0  0
  -26.2744  -15.6230   20.0622 H   0  0  0  0  0  0
  -26.7135  -32.5535   23.1161 H   0  0  0  0  0  0
  -25.0052  -33.9772   25.0467 H   0  0  0  0  0  0
  -22.6909  -31.3106   21.4161 H   0  0  0  0  0  0
  -23.3731  -35.9669   23.3318 H   0  0  0  0  0  0
  -24.3578  -36.8917   22.2043 H   0  0  0  0  0  0
  -23.7257  -37.6544   23.6637 H   0  0  0  0  0  0
  -26.0374  -31.5984   20.5873 H   0  0  0  0  0  0
  -26.8230  -30.8938   21.9716 H   0  0  0  0  0  0
  -28.1007  -29.0998   21.1520 H   0  0  0  0  0  0
  -26.0035  -25.9804   19.0080 H   0  0  0  0  0  0
  -23.9626  -27.3002   19.0468 H   0  0  0  0  0  0
  -23.7173  -30.6046   19.4079 H   0  0  0  0  0  0
  -22.7302  -29.2516   19.8702 H   0  0  0  0  0  0
  -25.1272  -36.1979   25.0831 H   0  0  0  0  0  0
  -20.9945  -28.3237   24.1449 H   0  0  0  0  0  0
  -20.5674  -26.2275   23.3603 H   0  0  0  0  0  0
  -21.6643  -26.7459   22.1216 H   0  0  0  0  0  0
  -19.6905  -25.6307   21.1236 H   0  0  0  0  0  0
  -19.6677  -27.3208   20.6753 H   0  0  0  0  0  0
  -17.4191  -26.6685   21.4026 H   0  0  0  0  0  0
  -18.0313  -26.0067   22.9011 H   0  0  0  0  0  0
  -19.7926  -30.7255   24.2302 H   0  0  0  0  0  0
  -17.5010  -31.6266   24.5174 H   0  0  0  0  0  0
  -15.5349  -30.3006   23.7619 H   0  0  0  0  0  0
  -15.8664  -28.0832   22.7051 H   0  0  0  0  0  0
  -24.5898  -30.7074   25.7834 H   0  0  0  0  0  0
  -24.8936  -32.2897   26.4909 H   0  0  0  0  0  0
  -25.8087  -30.8915   27.0244 H   0  0  0  0  0  0
  -26.2823  -29.6827   24.1119 H   0  0  0  0  0  0
  -27.4046  -29.7250   25.4525 H   0  0  0  0  0  0
  -27.8660  -30.4362   23.9227 H   0  0  0  0  0  0
  -27.2665  -33.3600   26.2093 H   0  0  0  0  0  0
  -28.3841  -32.6900   25.0303 H   0  0  0  0  0  0
  -28.0733  -31.8423   26.5379 H   0  0  0  0  0  0
  -28.2614  -38.0090   24.7490 H   0  0  0  0  0  0
  -28.1052  -36.2634   24.6307 H   0  0  0  0  0  0
  -27.2304  -37.1497   25.8867 H   0  0  0  0  0  0
  -20.9296  -29.8779   21.6977 H   0  0  0  0  0  0
  -26.0184  -38.2879   24.1393 H   0  0  0  0  0  0
  -32.0841  -18.5234   18.6695 H   0  0  0  0  0  0
  -28.4972  -18.0466   21.0480 H   0  0  0  0  0  0
  -32.2323  -20.8364   19.3399 H   0  0  0  0  0  0
  -28.6450  -20.4094   21.7022 H   0  0  0  0  0  0
  -30.8723  -25.9848   19.9389 H   0  0  0  0  0  0
  -32.7066  -24.7695   21.0950 H   0  0  0  0  0  0
  -32.4622  -23.9586   19.5653 H   0  0  0  0  0  0
  -28.5649  -22.5580   20.0916 H   0  0  0  0  0  0
  -28.7683  -22.9845   21.7822 H   0  0  0  0  0  0
  -31.6535  -23.0351   22.3438 H   0  0  0  0  0  0
  -32.5943  -22.1655   21.1667 H   0  0  0  0  0  0
  -30.9861  -17.0346   17.2454 H   0  0  0  0  0  0
  -30.8657  -15.3370   17.6247 H   0  0  0  0  0  0
  -32.0689  -16.3255   18.4238 H   0  0  0  0  0  0
  -28.6439  -17.4991   17.7068 H   0  0  0  0  0  0
  -27.8197  -16.9013   19.1339 H   0  0  0  0  0  0
  -28.4377  -15.7755   17.9367 H   0  0  0  0  0  0
  -27.4668  -24.9630   20.7985 H   0  0  0  0  0  0
  -27.8999  -24.9386   19.0891 H   0  0  0  0  0  0
  -28.9269  -15.4003   20.4793 H   0  0  0  0  0  0
  1 25  1  0  0  0
  1 30  2  0  0  0
  1 87  1  0  0  0
  2  3  1  0  0  0
  2 25  1  0  0  0
  2 88  1  0  0  0
  2 89  1  0  0  0
  3  4  1  0  0  0
  3 90  1  0  0  0
  3 91  1  0  0  0
  4  5  1  0  0  0
  4 92  1  0  0  0
  4 93  1  0  0  0
  5  6  1  0  0  0
  5 26  1  0  0  0
  5 94  1  0  0  0
  6 25  1  0  0  0
  6 95  1  0  0  0
  6 96  1  0  0  0
  7  8  2  0  0  0
  7 26  1  0  0  0
  7 29  1  0  0  0
  8  9  1  0  0  0
  8 22  1  0  0  0
  9 10  1  0  0  0
  9 27  2  0  0  0
 10 11  2  0  0  0
 10 15  1  0  0  0
 11 12  1  0  0  0
 11 97  1  0  0  0
 12 13  2  0  0  0
 12 98  1  0  0  0
 13 14  1  0  0  0
 13 31  1  0  0  0
 14 15  2  0  0  0
 14 99  1  0  0  0
 15100  1  0  0  0
 16 17  2  0  0  0
 16 21  1  0  0  0
 16 31  1  0  0  0
 17 18  1  0  0  0
 17101  1  0  0  0
 18 19  2  0  0  0
 18102  1  0  0  0
 19 20  1  0  0  0
 19 24  1  0  0  0
 20 21  2  0  0  0
 20103  1  0  0  0
 21 23  1  0  0  0
 22 28  1  0  0  0
 22 32  2  0  0  0
 26 27  1  0  0  0
 28104  1  0  0  0
 28105  1  0  0  0
 29106  1  0  0  0
 29107  1  0  0  0
 33 34  1  0  0  0
 33 66  1  0  0  0
 33 70  2  0  0  0
 34 36  1  0  0  0
 34 59  1  0  0  0
 34108  1  0  0  0
 35 44  2  0  0  0
 35 45  1  0  0  0
 35 68  1  0  0  0
 36 56  1  0  0  0
 36109  1  0  0  0
 37 39  1  0  0  0
 37 47  1  0  0  0
 37 66  1  0  0  0
 37110  1  0  0  0
 38 43  2  0  0  0
 38 46  1  0  0  0
 38 47  1  0  0  0
 39 64  1  0  0  0
 39 67  2  0  0  0
 40 52  1  0  0  0
 40 53  2  0  0  0
 40 58  1  0  0  0
 41111  1  0  0  0
 41112  1  0  0  0
 41113  1  0  0  0
 41 48  1  0  0  0
 42 43  1  0  0  0
 42 66  1  0  0  0
 42114  1  0  0  0
 42115  1  0  0  0
 43 44  1  0  0  0
 44116  1  0  0  0
 45 46  2  0  0  0
 45117  1  0  0  0
 46118  1  0  0  0
 47119  1  0  0  0
 47120  1  0  0  0
 48 56  1  0  0  0
 48 65  1  0  0  0
 48121  1  0  0  0
 49 50  1  0  0  0
 49 53  1  0  0  0
 49 64  1  0  0  0
 49122  1  0  0  0
 50 51  1  0  0  0
 50123  1  0  0  0
 50124  1  0  0  0
 51 52  1  0  0  0
 51125  1  0  0  0
 51126  1  0  0  0
 52127  1  0  0  0
 52128  1  0  0  0
 53 54  1  0  0  0
 54 55  2  0  0  0
 54129  1  0  0  0
 55 57  1  0  0  0
 55130  1  0  0  0
 56 69  2  0  0  0
 57 58  2  0  0  0
 57131  1  0  0  0
 58132  1  0  0  0
 59 60  1  0  0  0
 59 61  1  0  0  0
 59 62  1  0  0  0
 60133  1  0  0  0
 60134  1  0  0  0
 60135  1  0  0  0
 61136  1  0  0  0
 61137  1  0  0  0
 61138  1  0  0  0
 62139  1  0  0  0
 62140  1  0  0  0
 62141  1  0  0  0
 63 65  1  0  0  0
 63142  1  0  0  0
 63143  1  0  0  0
 63144  1  0  0  0
 64145  1  0  0  0
 65146  1  0  0  0
 68 84  1  0  0  0
 71 73  2  0  0  0
 71 75  1  0  0  0
 71147  1  0  0  0
 72 74  1  0  0  0
 72 75  2  0  0  0
 72148  1  0  0  0
 73 76  1  0  0  0
 73149  1  0  0  0
 74 76  2  0  0  0
 74150  1  0  0  0
 75 85  1  0  0  0
 76 86  1  0  0  0
 77 78  2  0  0  0
 77 79  1  0  0  0
 77151  1  0  0  0
 78 80  1  0  0  0
 78 84  1  0  0  0
 79 81  1  0  0  0
 79152  1  0  0  0
 79153  1  0  0  0
 80 86  1  0  0  0
 80154  1  0  0  0
 80155  1  0  0  0
 81 86  1  0  0  0
 81156  1  0  0  0
 81157  1  0  0  0
 82158  1  0  0  0
 82159  1  0  0  0
 82160  1  0  0  0
 82 85  1  0  0  0
 83 85  1  0  0  0
 83161  1  0  0  0
 83162  1  0  0  0
 83163  1  0  0  0
 84164  1  0  0  0
 84165  1  0  0  0
 85 87  1  0  0  0
 87166  1  0  0  0
M  ISO  4   1 100  68 101  84 101  87 100
M  END
> <chiral flag>
0

> <version>
0

> <s_m_source_file>
/data/baiqing/PycharmProjects/Reinvent-master-3.2/result/LINK_invent/BTK/process_docking_weight1_custom_product_contain_oxygen_bond_distance_aromatic_linkinvent_7_9_3/rearranged_h_0075.sdf

> <i_m_source_file_index>
55

> <r_mmod_Potential_Energy-OPLS-2005>
-0.938118815422058

> <r_mmod_Stretch_Energy-OPLS-2005>
42.0910224914551

> <r_mmod_Bend_Energy-OPLS-2005>
118.318092346191

> <r_mmod_Torsional_Energy-OPLS-2005>
245.891479492188

> <r_mmod_Improper_Torsional_Energy-OPLS-2005>
14.7849349975586

> <r_mmod_Van_der_Waal_Energy-OPLS-2005>
172.558303833008

> <r_mmod_Electrostatic_Energy-OPLS-2005>
-399.585479736328

> <r_mmod_Solvation_Energy-OPLS-2005>
-222.533508300781

> <b_mmod_Minimization_Converged-OPLS-2005>
0

> <r_mmod_RMS_Derivative-OPLS-2005>
1.82921099662781

$$$$
56
                    3D
 Structure written by MMmdl.
162171  0  0  1  0            999 V2000
  -30.6430  -14.6239   20.4793 C   0  0  0  0  0  0
  -30.4331  -12.3787   19.4561 C   0  0  0  0  0  0
  -29.5067  -12.5078   18.2273 C   0  0  0  0  0  0
  -28.0282  -12.3512   18.6372 C   0  0  0  0  0  0
  -27.6535  -13.2137   19.8698 C   0  0  2  0  0  0
  -28.6998  -13.0770   20.9998 C   0  0  0  0  0  0
  -25.2547  -13.8166   20.5692 C   0  0  0  0  0  0
  -24.1793  -13.0431   20.9164 C   0  0  0  0  0  0
  -24.6379  -11.6905   20.8719 C   0  0  0  0  0  0
  -23.9050  -10.4302   21.0404 C   0  0  0  0  0  0
  -24.3612   -9.4218   21.9190 C   0  0  0  0  0  0
  -23.6293   -8.2249   22.0756 C   0  0  0  0  0  0
  -22.4257   -8.0290   21.3567 C   0  0  0  0  0  0
  -21.9898   -9.0252   20.4666 C   0  0  0  0  0  0
  -22.7222  -10.2137   20.3063 C   0  0  0  0  0  0
  -21.6852   -6.0742   22.5275 C   0  0  0  0  0  0
  -21.4011   -6.5639   23.8212 C   0  0  0  0  0  0
  -21.3665   -5.6785   24.9171 C   0  0  0  0  0  0
  -21.6040   -4.3043   24.7222 C   0  0  0  0  0  0
  -21.8818   -3.8152   23.4333 C   0  0  0  0  0  0
  -21.9185   -4.6975   22.3394 C   0  0  0  0  0  0
  -22.7827  -13.5225   21.1843 C   0  0  0  0  0  0
  -22.1661   -4.2159   21.0975 F   0  0  0  0  0  0
  -21.5648   -3.4535   25.7742 F   0  0  0  0  0  0
  -30.0200  -13.4031   20.4369 N   0  0  0  0  0  0
  -26.2979  -12.9332   20.3349 N   0  0  0  0  0  0
  -25.9303  -11.6496   20.5732 N   0  0  0  0  0  0
  -22.0468  -12.8229   22.0412 N   0  0  0  0  0  0
  -25.4303  -15.1881   20.4139 N   0  0  0  0  0  0
  -31.7884  -14.7806   20.0489 O   0  0  0  0  0  0
  -21.6634   -6.8871   21.4233 O   0  0  0  0  0  0
  -22.3496  -14.5534   20.6697 O   0  0  0  0  0  0
  -24.6219  -31.8612   23.2047 C   0  0  0  0  0  0
  -25.9080  -32.4791   23.8365 C   0  0  1  0  0  0
  -27.2280  -27.3572   20.1080 C   0  0  0  0  0  0
  -25.5901  -33.8593   24.2282 N   0  0  0  0  0  0
  -23.4115  -30.4848   21.5465 C   0  0  2  0  0  0
  -24.8563  -28.9371   20.1120 C   0  0  0  0  0  0
  -22.7442  -29.4630   22.4967 C   0  0  0  0  0  0
  -18.0282  -28.1380   22.8491 C   0  0  0  0  0  0
  -24.1486  -36.7307   23.2637 C   0  0  0  0  0  0
  -25.9472  -30.8036   21.3659 C   0  0  0  0  0  0
  -26.0206  -29.4322   20.7110 C   0  0  0  0  0  0
  -27.2081  -28.6513   20.6990 C   0  0  0  0  0  0
  -26.0409  -26.8961   19.4951 C   0  0  0  0  0  0
  -24.8653  -27.6728   19.4984 C   0  0  0  0  0  0
  -23.6225  -29.8135   20.1626 C   0  0  0  0  0  0
  -25.4102  -36.3091   24.0332 C   0  0  1  0  0  0
  -20.5872  -28.3675   23.1303 C   0  0  2  0  0  0
  -20.6767  -26.9410   22.5412 C   0  0  0  0  0  0
  -19.5750  -26.6389   21.5205 C   0  0  0  0  0  0
  -18.1926  -26.7930   22.1614 C   0  0  0  0  0  0
  -19.1532  -28.8847   23.2895 C   0  0  0  0  0  0
  -18.9459  -30.1446   23.8914 C   0  0  0  0  0  0
  -17.6465  -30.6585   24.0561 C   0  0  0  0  0  0
  -25.9037  -34.9460   23.5113 C   0  0  0  0  0  0
  -16.5351  -29.9087   23.6324 C   0  0  0  0  0  0
  -16.7269  -28.6491   23.0355 C   0  0  0  0  0  0
  -26.4477  -31.6605   25.0734 C   0  0  0  0  0  0
  -25.3726  -31.3737   26.1480 C   0  0  0  0  0  0
  -27.0291  -30.3034   24.6149 C   0  0  0  0  0  0
  -27.6053  -32.4323   25.7490 C   0  0  0  0  0  0
  -27.5576  -37.1798   24.8451 C   0  0  0  0  0  0
  -21.4155  -29.3039   22.3708 N   0  0  0  0  0  0
  -26.4276  -37.3786   23.9415 N   0  0  0  0  0  0
  -24.6791  -31.0666   22.0968 N   0  0  0  0  0  0
  -23.4190  -28.8179   23.3030 O   0  0  0  0  0  0
  -28.3815  -26.5759   20.1414 O   0  0  0  0  0  0
  -26.5615  -34.8919   22.4682 O   0  0  0  0  0  0
  -23.5395  -32.1390   23.7406 O   0  0  0  0  0  0
  -28.7777  -19.2888   18.8125 C   0  0  0  0  0  0
  -29.9691  -18.2435   20.6744 C   0  0  0  0  0  0
  -28.9032  -16.8539   18.9838 C   0  0  0  0  0  0
  -29.5484  -19.4394   19.9854 C   0  0  0  0  0  0
  -28.4472  -18.0133   18.3235 C   0  0  0  0  0  0
  -29.6529  -16.9306   20.1797 C   0  0  0  0  0  0
  -29.9107  -23.1476   20.9346 C   0  0  0  0  0  0
  -31.1252  -22.9156   21.7230 C   0  0  0  0  0  0
  -29.2181  -21.9208   20.4391 C   0  0  0  0  0  0
  -31.4068  -23.6304   22.8286 C   0  0  0  0  0  0
  -29.4910  -24.4454   20.7550 C   0  0  0  0  0  0
  -32.0740  -21.8152   21.3153 C   0  0  0  0  0  0
  -31.4640  -20.9329   20.2283 C   0  0  0  0  0  0
  -28.2833  -25.1145   20.0701 C   0  0  0  0  0  0
  -30.0063  -20.7763   20.3419 N   0  0  0  0  0  0
  -27.6546  -17.9005   17.1826 N   0  0  0  0  0  0
  -29.9036  -15.6913   20.9045 N   0  0  0  0  0  0
  -28.0115  -21.9091   20.1731 O   0  0  0  0  0  0
  -31.4765  -12.4893   19.1582 H   0  0  0  0  0  0
  -30.3562  -11.3855   19.9010 H   0  0  0  0  0  0
  -29.7691  -11.7621   17.4770 H   0  0  0  0  0  0
  -29.6551  -13.4803   17.7547 H   0  0  0  0  0  0
  -27.8506  -11.2970   18.8573 H   0  0  0  0  0  0
  -27.3784  -12.5965   17.7975 H   0  0  0  0  0  0
  -27.6665  -14.2468   19.5341 H   0  0  0  0  0  0
  -28.7015  -12.0601   21.3958 H   0  0  0  0  0  0
  -28.4472  -13.7196   21.8419 H   0  0  0  0  0  0
  -25.2774   -9.5702   22.4742 H   0  0  0  0  0  0
  -24.0040   -7.4622   22.7440 H   0  0  0  0  0  0
  -21.0862   -8.8772   19.8942 H   0  0  0  0  0  0
  -22.3711  -10.9675   19.6159 H   0  0  0  0  0  0
  -21.2011   -7.6147   23.9713 H   0  0  0  0  0  0
  -21.1483   -6.0523   25.9071 H   0  0  0  0  0  0
  -22.0594   -2.7621   23.2825 H   0  0  0  0  0  0
  -22.4086  -11.9919   22.4841 H   0  0  0  0  0  0
  -21.1079  -13.1257   22.2580 H   0  0  0  0  0  0
  -24.6749  -15.8515   20.5413 H   0  0  0  0  0  0
  -26.2947  -15.6293   20.1267 H   0  0  0  0  0  0
  -26.7148  -32.5465   23.1115 H   0  0  0  0  0  0
  -25.0026  -33.9737   25.0415 H   0  0  0  0  0  0
  -22.7032  -31.3043   21.4038 H   0  0  0  0  0  0
  -23.3749  -35.9636   23.3280 H   0  0  0  0  0  0
  -24.3593  -36.8956   22.2057 H   0  0  0  0  0  0
  -23.7241  -37.6503   23.6679 H   0  0  0  0  0  0
  -26.0681  -31.5672   20.5961 H   0  0  0  0  0  0
  -26.8325  -30.8571   21.9883 H   0  0  0  0  0  0
  -28.1040  -29.0290   21.1701 H   0  0  0  0  0  0
  -26.0091  -25.9304   19.0113 H   0  0  0  0  0  0
  -23.9683  -27.2869   19.0321 H   0  0  0  0  0  0
  -23.7356  -30.5856   19.4009 H   0  0  0  0  0  0
  -22.7430  -29.2384   19.8676 H   0  0  0  0  0  0
  -25.1285  -36.1931   25.0824 H   0  0  0  0  0  0
  -20.9963  -28.3245   24.1423 H   0  0  0  0  0  0
  -20.5658  -26.2292   23.3604 H   0  0  0  0  0  0
  -21.6645  -26.7434   22.1222 H   0  0  0  0  0  0
  -19.6913  -25.6295   21.1252 H   0  0  0  0  0  0
  -19.6692  -27.3190   20.6725 H   0  0  0  0  0  0
  -17.4195  -26.6678   21.4012 H   0  0  0  0  0  0
  -18.0325  -26.0067   22.9008 H   0  0  0  0  0  0
  -19.7940  -30.7255   24.2304 H   0  0  0  0  0  0
  -17.5017  -31.6275   24.5154 H   0  0  0  0  0  0
  -15.5354  -30.2994   23.7632 H   0  0  0  0  0  0
  -15.8663  -28.0808   22.7084 H   0  0  0  0  0  0
  -24.5864  -30.7128   25.7819 H   0  0  0  0  0  0
  -24.8955  -32.2901   26.4959 H   0  0  0  0  0  0
  -25.8061  -30.8868   27.0224 H   0  0  0  0  0  0
  -26.2834  -29.6815   24.1180 H   0  0  0  0  0  0
  -27.4011  -29.7269   25.4630 H   0  0  0  0  0  0
  -27.8704  -30.4341   23.9339 H   0  0  0  0  0  0
  -27.2689  -33.3621   26.2084 H   0  0  0  0  0  0
  -28.3846  -32.6883   25.0305 H   0  0  0  0  0  0
  -28.0737  -31.8438   26.5387 H   0  0  0  0  0  0
  -28.2575  -38.0114   24.7525 H   0  0  0  0  0  0
  -28.1096  -36.2649   24.6231 H   0  0  0  0  0  0
  -27.2316  -37.1402   25.8861 H   0  0  0  0  0  0
  -20.9337  -29.8748   21.6905 H   0  0  0  0  0  0
  -26.0160  -38.2861   24.1430 H   0  0  0  0  0  0
  -28.4707  -20.1666   18.2610 H   0  0  0  0  0  0
  -30.5452  -18.3366   21.5841 H   0  0  0  0  0  0
  -28.6502  -15.8892   18.5738 H   0  0  0  0  0  0
  -30.7592  -24.4133   23.1964 H   0  0  0  0  0  0
  -32.3026  -23.4316   23.4008 H   0  0  0  0  0  0
  -30.1288  -25.2062   21.1793 H   0  0  0  0  0  0
  -32.3042  -21.2015   22.1888 H   0  0  0  0  0  0
  -33.0158  -22.2446   20.9700 H   0  0  0  0  0  0
  -31.9820  -19.9746   20.1926 H   0  0  0  0  0  0
  -31.6477  -21.3952   19.2560 H   0  0  0  0  0  0
  -27.3804  -24.7614   20.5711 H   0  0  0  0  0  0
  -28.2325  -24.7955   19.0281 H   0  0  0  0  0  0
  -27.0491  -18.6859   16.9608 H   0  0  0  0  0  0
  -27.1808  -17.0164   17.0314 H   0  0  0  0  0  0
  -29.1060  -15.3945   21.4455 H   0  0  0  0  0  0
  1 25  1  0  0  0
  1 30  2  0  0  0
  1 87  1  0  0  0
  2  3  1  0  0  0
  2 25  1  0  0  0
  2 89  1  0  0  0
  2 90  1  0  0  0
  3  4  1  0  0  0
  3 91  1  0  0  0
  3 92  1  0  0  0
  4  5  1  0  0  0
  4 93  1  0  0  0
  4 94  1  0  0  0
  5  6  1  0  0  0
  5 26  1  0  0  0
  5 95  1  0  0  0
  6 25  1  0  0  0
  6 96  1  0  0  0
  6 97  1  0  0  0
  7  8  2  0  0  0
  7 26  1  0  0  0
  7 29  1  0  0  0
  8  9  1  0  0  0
  8 22  1  0  0  0
  9 10  1  0  0  0
  9 27  2  0  0  0
 10 11  2  0  0  0
 10 15  1  0  0  0
 11 12  1  0  0  0
 11 98  1  0  0  0
 12 13  2  0  0  0
 12 99  1  0  0  0
 13 14  1  0  0  0
 13 31  1  0  0  0
 14 15  2  0  0  0
 14100  1  0  0  0
 15101  1  0  0  0
 16 17  2  0  0  0
 16 21  1  0  0  0
 16 31  1  0  0  0
 17 18  1  0  0  0
 17102  1  0  0  0
 18 19  2  0  0  0
 18103  1  0  0  0
 19 20  1  0  0  0
 19 24  1  0  0  0
 20 21  2  0  0  0
 20104  1  0  0  0
 21 23  1  0  0  0
 22 28  1  0  0  0
 22 32  2  0  0  0
 26 27  1  0  0  0
 28105  1  0  0  0
 28106  1  0  0  0
 29107  1  0  0  0
 29108  1  0  0  0
 33 34  1  0  0  0
 33 66  1  0  0  0
 33 70  2  0  0  0
 34 36  1  0  0  0
 34 59  1  0  0  0
 34109  1  0  0  0
 35 44  2  0  0  0
 35 45  1  0  0  0
 35 68  1  0  0  0
 36 56  1  0  0  0
 36110  1  0  0  0
 37 39  1  0  0  0
 37 47  1  0  0  0
 37 66  1  0  0  0
 37111  1  0  0  0
 38 43  2  0  0  0
 38 46  1  0  0  0
 38 47  1  0  0  0
 39 64  1  0  0  0
 39 67  2  0  0  0
 40 52  1  0  0  0
 40 53  2  0  0  0
 40 58  1  0  0  0
 41112  1  0  0  0
 41113  1  0  0  0
 41114  1  0  0  0
 41 48  1  0  0  0
 42 43  1  0  0  0
 42 66  1  0  0  0
 42115  1  0  0  0
 42116  1  0  0  0
 43 44  1  0  0  0
 44117  1  0  0  0
 45 46  2  0  0  0
 45118  1  0  0  0
 46119  1  0  0  0
 47120  1  0  0  0
 47121  1  0  0  0
 48 56  1  0  0  0
 48 65  1  0  0  0
 48122  1  0  0  0
 49 50  1  0  0  0
 49 53  1  0  0  0
 49 64  1  0  0  0
 49123  1  0  0  0
 50 51  1  0  0  0
 50124  1  0  0  0
 50125  1  0  0  0
 51 52  1  0  0  0
 51126  1  0  0  0
 51127  1  0  0  0
 52128  1  0  0  0
 52129  1  0  0  0
 53 54  1  0  0  0
 54 55  2  0  0  0
 54130  1  0  0  0
 55 57  1  0  0  0
 55131  1  0  0  0
 56 69  2  0  0  0
 57 58  2  0  0  0
 57132  1  0  0  0
 58133  1  0  0  0
 59 60  1  0  0  0
 59 61  1  0  0  0
 59 62  1  0  0  0
 60134  1  0  0  0
 60135  1  0  0  0
 60136  1  0  0  0
 61137  1  0  0  0
 61138  1  0  0  0
 61139  1  0  0  0
 62140  1  0  0  0
 62141  1  0  0  0
 62142  1  0  0  0
 63 65  1  0  0  0
 63143  1  0  0  0
 63144  1  0  0  0
 63145  1  0  0  0
 64146  1  0  0  0
 65147  1  0  0  0
 68 84  1  0  0  0
 71 74  2  0  0  0
 71 75  1  0  0  0
 71148  1  0  0  0
 72 74  1  0  0  0
 72 76  2  0  0  0
 72149  1  0  0  0
 73 75  2  0  0  0
 73 76  1  0  0  0
 73150  1  0  0  0
 74 85  1  0  0  0
 75 86  1  0  0  0
 76 87  1  0  0  0
 77 78  1  0  0  0
 77 79  1  0  0  0
 77 81  2  0  0  0
 78 80  2  0  0  0
 78 82  1  0  0  0
 79 85  1  0  0  0
 79 88  2  0  0  0
 80151  1  0  0  0
 80152  1  0  0  0
 81 84  1  0  0  0
 81153  1  0  0  0
 82 83  1  0  0  0
 82154  1  0  0  0
 82155  1  0  0  0
 83 85  1  0  0  0
 83156  1  0  0  0
 83157  1  0  0  0
 84158  1  0  0  0
 84159  1  0  0  0
 86160  1  0  0  0
 86161  1  0  0  0
 87162  1  0  0  0
M  ISO  4   1 100  68 101  84 101  87 100
M  END
> <chiral flag>
0

> <version>
0

> <s_m_source_file>
/data/baiqing/PycharmProjects/Reinvent-master-3.2/result/LINK_invent/BTK/process_docking_weight1_custom_product_contain_oxygen_bond_distance_aromatic_linkinvent_7_9_3/rearranged_h_0075.sdf

> <i_m_source_file_index>
56

> <r_mmod_Potential_Energy-OPLS-2005>
243.931427001953

> <r_mmod_Stretch_Energy-OPLS-2005>
73.8523941040039

> <r_mmod_Bend_Energy-OPLS-2005>
144.152633666992

> <r_mmod_Torsional_Energy-OPLS-2005>
358.894836425781

> <r_mmod_Improper_Torsional_Energy-OPLS-2005>
11.9750556945801

> <r_mmod_Van_der_Waal_Energy-OPLS-2005>
160.978164672852

> <r_mmod_Electrostatic_Energy-OPLS-2005>
-317.726989746094

> <r_mmod_Solvation_Energy-OPLS-2005>
-225.74885559082

> <b_mmod_Minimization_Converged-OPLS-2005>
0

> <r_mmod_RMS_Derivative-OPLS-2005>
3.06611299514771

$$$$
57
                    3D
 Structure written by MMmdl.
157166  0  0  1  0            999 V2000
  -30.7287  -14.4885   20.5116 C   0  0  0  0  0  0
  -30.4172  -12.3034   19.4174 C   0  0  0  0  0  0
  -29.4851  -12.4506   18.1992 C   0  0  0  0  0  0
  -28.0079  -12.3212   18.6243 C   0  0  0  0  0  0
  -27.6460  -13.1903   19.8596 C   0  0  2  0  0  0
  -28.7039  -13.0559   20.9782 C   0  0  0  0  0  0
  -25.2567  -13.8103   20.5703 C   0  0  0  0  0  0
  -24.1813  -13.0406   20.9213 C   0  0  0  0  0  0
  -24.6353  -11.6868   20.8784 C   0  0  0  0  0  0
  -23.9021  -10.4272   21.0438 C   0  0  0  0  0  0
  -24.3588   -9.4188   21.9205 C   0  0  0  0  0  0
  -23.6271   -8.2223   22.0762 C   0  0  0  0  0  0
  -22.4254   -8.0268   21.3548 C   0  0  0  0  0  0
  -21.9888   -9.0241   20.4652 C   0  0  0  0  0  0
  -22.7210  -10.2121   20.3066 C   0  0  0  0  0  0
  -21.6844   -6.0726   22.5282 C   0  0  0  0  0  0
  -21.4008   -6.5637   23.8215 C   0  0  0  0  0  0
  -21.3649   -5.6792   24.9178 C   0  0  0  0  0  0
  -21.6041   -4.3054   24.7233 C   0  0  0  0  0  0
  -21.8820   -3.8144   23.4359 C   0  0  0  0  0  0
  -21.9190   -4.6958   22.3411 C   0  0  0  0  0  0
  -22.7842  -13.5225   21.1865 C   0  0  0  0  0  0
  -22.1661   -4.2142   21.0990 F   0  0  0  0  0  0
  -21.5627   -3.4541   25.7747 F   0  0  0  0  0  0
  -30.0214  -13.3314   20.3873 N   0  0  0  0  0  0
  -26.2962  -12.9216   20.3373 N   0  0  0  0  0  0
  -25.9269  -11.6407   20.5829 N   0  0  0  0  0  0
  -22.0473  -12.8223   22.0417 N   0  0  0  0  0  0
  -25.4302  -15.1820   20.4071 N   0  0  0  0  0  0
  -31.9223  -14.5749   20.2216 O   0  0  0  0  0  0
  -21.6627   -6.8864   21.4240 O   0  0  0  0  0  0
  -22.3541  -14.5533   20.6703 O   0  0  0  0  0  0
  -24.6122  -31.8693   23.2111 C   0  0  0  0  0  0
  -25.9027  -32.4826   23.8398 C   0  0  1  0  0  0
  -27.2352  -27.4556   20.1056 C   0  0  0  0  0  0
  -25.5893  -33.8624   24.2337 N   0  0  0  0  0  0
  -23.3989  -30.4922   21.5506 C   0  0  2  0  0  0
  -24.8470  -28.9592   20.1152 C   0  0  0  0  0  0
  -22.7396  -29.4666   22.4998 C   0  0  0  0  0  0
  -18.0268  -28.1375   22.8494 C   0  0  0  0  0  0
  -24.1483  -36.7314   23.2635 C   0  0  0  0  0  0
  -25.9242  -30.8441   21.3588 C   0  0  0  0  0  0
  -26.0043  -29.4791   20.7087 C   0  0  0  0  0  0
  -27.2042  -28.7358   20.6972 C   0  0  0  0  0  0
  -26.0658  -26.9438   19.5033 C   0  0  0  0  0  0
  -24.8716  -27.6903   19.5080 C   0  0  0  0  0  0
  -23.6065  -29.8223   20.1652 C   0  0  0  0  0  0
  -25.4101  -36.3113   24.0342 C   0  0  1  0  0  0
  -20.5857  -28.3658   23.1324 C   0  0  2  0  0  0
  -20.6760  -26.9396   22.5420 C   0  0  0  0  0  0
  -19.5742  -26.6387   21.5212 C   0  0  0  0  0  0
  -18.1918  -26.7925   22.1619 C   0  0  0  0  0  0
  -19.1518  -28.8832   23.2908 C   0  0  0  0  0  0
  -18.9446  -30.1440   23.8916 C   0  0  0  0  0  0
  -17.6450  -30.6582   24.0567 C   0  0  0  0  0  0
  -25.9029  -34.9479   23.5136 C   0  0  0  0  0  0
  -16.5340  -29.9087   23.6326 C   0  0  0  0  0  0
  -16.7258  -28.6505   23.0346 C   0  0  0  0  0  0
  -26.4467  -31.6593   25.0713 C   0  0  0  0  0  0
  -25.3746  -31.3684   26.1469 C   0  0  0  0  0  0
  -27.0295  -30.3042   24.6061 C   0  0  0  0  0  0
  -27.6051  -32.4303   25.7475 C   0  0  0  0  0  0
  -27.5584  -37.1799   24.8457 C   0  0  0  0  0  0
  -21.4128  -29.3030   22.3737 N   0  0  0  0  0  0
  -26.4282  -37.3802   23.9421 N   0  0  0  0  0  0
  -24.6632  -31.0819   22.0994 N   0  0  0  0  0  0
  -23.4179  -28.8212   23.3034 O   0  0  0  0  0  0
  -28.4009  -26.7290   20.1052 O   0  0  0  0  0  0
  -26.5590  -34.8929   22.4696 O   0  0  0  0  0  0
  -23.5323  -32.1430   23.7527 O   0  0  0  0  0  0
  -29.6924  -18.5530   18.6000 C   0  0  0  0  0  0
  -28.8545  -19.9569   20.8653 C   0  0  0  0  0  0
  -29.4092  -17.8210   19.7754 C   0  0  0  0  0  0
  -29.0834  -20.6641   19.6610 C   0  0  0  0  0  0
  -28.9968  -18.5467   20.9352 C   0  0  0  0  0  0
  -29.5426  -19.9453   18.5362 C   0  0  0  0  0  0
  -28.1712  -22.7015   18.5482 C   0  0  0  0  0  0
  -29.5087  -16.3141   19.6577 C   0  0  0  0  0  0
  -29.1835  -23.0175   20.6264 C   0  0  0  0  0  0
  -29.0081  -24.3687   19.9156 C   0  0  2  0  0  0
  -28.3238  -25.4571   20.7606 C   0  0  0  0  0  0
  -28.8584  -22.0738   19.5771 N   0  0  0  0  0  0
  -28.6990  -17.9402   22.1605 N   0  0  0  0  0  0
  -30.0289  -15.6230   20.6920 N   0  0  0  0  0  0
  -27.5798  -22.2003   17.5910 O   0  0  0  0  0  0
  -29.1940  -15.8016   18.5768 O   0  0  0  0  0  0
  -28.2097  -24.0119   18.7975 O   0  0  0  0  0  0
  -29.8666  -20.5829   17.3856 F   0  0  0  0  0  0
  -31.4601  -12.3939   19.1075 H   0  0  0  0  0  0
  -30.3208  -11.3113   19.8611 H   0  0  0  0  0  0
  -29.7222  -11.6900   17.4543 H   0  0  0  0  0  0
  -29.6523  -13.4100   17.7096 H   0  0  0  0  0  0
  -27.8282  -11.2697   18.8518 H   0  0  0  0  0  0
  -27.3515  -12.5645   17.7879 H   0  0  0  0  0  0
  -27.6395  -14.2176   19.5185 H   0  0  0  0  0  0
  -28.6921  -12.0515   21.4028 H   0  0  0  0  0  0
  -28.4856  -13.7392   21.8006 H   0  0  0  0  0  0
  -25.2731   -9.5667   22.4778 H   0  0  0  0  0  0
  -23.9985   -7.4609   22.7469 H   0  0  0  0  0  0
  -21.0827   -8.8753   19.8951 H   0  0  0  0  0  0
  -22.3678  -10.9661   19.6172 H   0  0  0  0  0  0
  -21.2002   -7.6144   23.9715 H   0  0  0  0  0  0
  -21.1463   -6.0526   25.9078 H   0  0  0  0  0  0
  -22.0608   -2.7606   23.2865 H   0  0  0  0  0  0
  -22.4072  -11.9872   22.4795 H   0  0  0  0  0  0
  -21.1093  -13.1260   22.2620 H   0  0  0  0  0  0
  -24.6639  -15.8390   20.5052 H   0  0  0  0  0  0
  -26.2806  -15.6123   20.0680 H   0  0  0  0  0  0
  -26.7102  -32.5551   23.1171 H   0  0  0  0  0  0
  -25.0062  -33.9790   25.0494 H   0  0  0  0  0  0
  -22.6863  -31.3081   21.4115 H   0  0  0  0  0  0
  -23.3751  -35.9637   23.3283 H   0  0  0  0  0  0
  -24.3588  -36.8942   22.2053 H   0  0  0  0  0  0
  -23.7221  -37.6510   23.6656 H   0  0  0  0  0  0
  -26.0297  -31.6105   20.5896 H   0  0  0  0  0  0
  -26.8142  -30.9007   21.9736 H   0  0  0  0  0  0
  -28.0996  -29.1341   21.1538 H   0  0  0  0  0  0
  -26.0794  -25.9717   19.0304 H   0  0  0  0  0  0
  -23.9826  -27.2857   19.0441 H   0  0  0  0  0  0
  -23.7107  -30.5960   19.4035 H   0  0  0  0  0  0
  -22.7320  -29.2387   19.8717 H   0  0  0  0  0  0
  -25.1273  -36.1974   25.0834 H   0  0  0  0  0  0
  -20.9949  -28.3218   24.1443 H   0  0  0  0  0  0
  -20.5663  -26.2263   23.3602 H   0  0  0  0  0  0
  -21.6631  -26.7446   22.1206 H   0  0  0  0  0  0
  -19.6902  -25.6304   21.1226 H   0  0  0  0  0  0
  -19.6685  -27.3213   20.6754 H   0  0  0  0  0  0
  -17.4193  -26.6682   21.4015 H   0  0  0  0  0  0
  -18.0313  -26.0057   22.9004 H   0  0  0  0  0  0
  -19.7925  -30.7251   24.2289 H   0  0  0  0  0  0
  -17.5008  -31.6265   24.5166 H   0  0  0  0  0  0
  -15.5343  -30.2995   23.7643 H   0  0  0  0  0  0
  -15.8657  -28.0834   22.7046 H   0  0  0  0  0  0
  -24.5921  -30.7029   25.7807 H   0  0  0  0  0  0
  -24.8934  -32.2833   26.4936 H   0  0  0  0  0  0
  -25.8111  -30.8842   27.0214 H   0  0  0  0  0  0
  -26.2827  -29.6803   24.1137 H   0  0  0  0  0  0
  -27.4106  -29.7274   25.4499 H   0  0  0  0  0  0
  -27.8642  -30.4374   23.9174 H   0  0  0  0  0  0
  -27.2678  -33.3593   26.2083 H   0  0  0  0  0  0
  -28.3846  -32.6874   25.0290 H   0  0  0  0  0  0
  -28.0733  -31.8403   26.5365 H   0  0  0  0  0  0
  -28.2574  -38.0127   24.7557 H   0  0  0  0  0  0
  -28.1110  -36.2664   24.6210 H   0  0  0  0  0  0
  -27.2316  -37.1359   25.8862 H   0  0  0  0  0  0
  -20.9283  -29.8748   21.6961 H   0  0  0  0  0  0
  -26.0172  -38.2872   24.1457 H   0  0  0  0  0  0
  -30.0239  -18.0378   17.7099 H   0  0  0  0  0  0
  -28.5223  -20.5031   21.7363 H   0  0  0  0  0  0
  -28.4813  -22.9059   21.4541 H   0  0  0  0  0  0
  -30.1977  -22.8840   21.0048 H   0  0  0  0  0  0
  -29.9759  -24.7207   19.5562 H   0  0  0  0  0  0
  -28.8493  -25.5549   21.7112 H   0  0  0  0  0  0
  -27.3054  -25.1545   21.0120 H   0  0  0  0  0  0
  -28.2485  -18.5028   22.8765 H   0  0  0  0  0  0
  -28.3787  -16.9774   22.1863 H   0  0  0  0  0  0
  -30.4089  -16.2536   21.3805 H   0  0  0  0  0  0
  1 25  1  0  0  0
  1 30  2  0  0  0
  1 84  1  0  0  0
  2  3  1  0  0  0
  2 25  1  0  0  0
  2 89  1  0  0  0
  2 90  1  0  0  0
  3  4  1  0  0  0
  3 91  1  0  0  0
  3 92  1  0  0  0
  4  5  1  0  0  0
  4 93  1  0  0  0
  4 94  1  0  0  0
  5  6  1  0  0  0
  5 26  1  0  0  0
  5 95  1  0  0  0
  6 25  1  0  0  0
  6 96  1  0  0  0
  6 97  1  0  0  0
  7  8  2  0  0  0
  7 26  1  0  0  0
  7 29  1  0  0  0
  8  9  1  0  0  0
  8 22  1  0  0  0
  9 10  1  0  0  0
  9 27  2  0  0  0
 10 11  2  0  0  0
 10 15  1  0  0  0
 11 12  1  0  0  0
 11 98  1  0  0  0
 12 13  2  0  0  0
 12 99  1  0  0  0
 13 14  1  0  0  0
 13 31  1  0  0  0
 14 15  2  0  0  0
 14100  1  0  0  0
 15101  1  0  0  0
 16 17  2  0  0  0
 16 21  1  0  0  0
 16 31  1  0  0  0
 17 18  1  0  0  0
 17102  1  0  0  0
 18 19  2  0  0  0
 18103  1  0  0  0
 19 20  1  0  0  0
 19 24  1  0  0  0
 20 21  2  0  0  0
 20104  1  0  0  0
 21 23  1  0  0  0
 22 28  1  0  0  0
 22 32  2  0  0  0
 26 27  1  0  0  0
 28105  1  0  0  0
 28106  1  0  0  0
 29107  1  0  0  0
 29108  1  0  0  0
 33 34  1  0  0  0
 33 66  1  0  0  0
 33 70  2  0  0  0
 34 36  1  0  0  0
 34 59  1  0  0  0
 34109  1  0  0  0
 35 44  2  0  0  0
 35 45  1  0  0  0
 35 68  1  0  0  0
 36 56  1  0  0  0
 36110  1  0  0  0
 37 39  1  0  0  0
 37 47  1  0  0  0
 37 66  1  0  0  0
 37111  1  0  0  0
 38 43  2  0  0  0
 38 46  1  0  0  0
 38 47  1  0  0  0
 39 64  1  0  0  0
 39 67  2  0  0  0
 40 52  1  0  0  0
 40 53  2  0  0  0
 40 58  1  0  0  0
 41112  1  0  0  0
 41113  1  0  0  0
 41114  1  0  0  0
 41 48  1  0  0  0
 42 43  1  0  0  0
 42 66  1  0  0  0
 42115  1  0  0  0
 42116  1  0  0  0
 43 44  1  0  0  0
 44117  1  0  0  0
 45 46  2  0  0  0
 45118  1  0  0  0
 46119  1  0  0  0
 47120  1  0  0  0
 47121  1  0  0  0
 48 56  1  0  0  0
 48 65  1  0  0  0
 48122  1  0  0  0
 49 50  1  0  0  0
 49 53  1  0  0  0
 49 64  1  0  0  0
 49123  1  0  0  0
 50 51  1  0  0  0
 50124  1  0  0  0
 50125  1  0  0  0
 51 52  1  0  0  0
 51126  1  0  0  0
 51127  1  0  0  0
 52128  1  0  0  0
 52129  1  0  0  0
 53 54  1  0  0  0
 54 55  2  0  0  0
 54130  1  0  0  0
 55 57  1  0  0  0
 55131  1  0  0  0
 56 69  2  0  0  0
 57 58  2  0  0  0
 57132  1  0  0  0
 58133  1  0  0  0
 59 60  1  0  0  0
 59 61  1  0  0  0
 59 62  1  0  0  0
 60134  1  0  0  0
 60135  1  0  0  0
 60136  1  0  0  0
 61137  1  0  0  0
 61138  1  0  0  0
 61139  1  0  0  0
 62140  1  0  0  0
 62141  1  0  0  0
 62142  1  0  0  0
 63 65  1  0  0  0
 63143  1  0  0  0
 63144  1  0  0  0
 63145  1  0  0  0
 64146  1  0  0  0
 65147  1  0  0  0
 68 81  1  0  0  0
 71 73  2  0  0  0
 71 76  1  0  0  0
 71148  1  0  0  0
 72 74  1  0  0  0
 72 75  2  0  0  0
 72149  1  0  0  0
 73 75  1  0  0  0
 73 78  1  0  0  0
 74 76  2  0  0  0
 74 82  1  0  0  0
 75 83  1  0  0  0
 76 88  1  0  0  0
 77 82  1  0  0  0
 77 85  2  0  0  0
 77 87  1  0  0  0
 78 84  1  0  0  0
 78 86  2  0  0  0
 79 80  1  0  0  0
 79 82  1  0  0  0
 79150  1  0  0  0
 79151  1  0  0  0
 80 81  1  0  0  0
 80 87  1  0  0  0
 80152  1  0  0  0
 81153  1  0  0  0
 81154  1  0  0  0
 83155  1  0  0  0
 83156  1  0  0  0
 84157  1  0  0  0
M  ISO  4   1 100  68 101  81 101  84 100
M  END
> <chiral flag>
0

> <version>
0

> <s_m_source_file>
/data/baiqing/PycharmProjects/Reinvent-master-3.2/result/LINK_invent/BTK/process_docking_weight1_custom_product_contain_oxygen_bond_distance_aromatic_linkinvent_7_9_3/rearranged_h_0075.sdf

> <i_m_source_file_index>
57

> <r_mmod_Potential_Energy-OPLS-2005>
32.3753318786621

> <r_mmod_Stretch_Energy-OPLS-2005>
35.8306846618652

> <r_mmod_Bend_Energy-OPLS-2005>
126.953353881836

> <r_mmod_Torsional_Energy-OPLS-2005>
353.588439941406

> <r_mmod_Improper_Torsional_Energy-OPLS-2005>
14.2655735015869

> <r_mmod_Van_der_Waal_Energy-OPLS-2005>
155.111206054688

> <r_mmod_Electrostatic_Energy-OPLS-2005>
-444.167877197266

> <r_mmod_Solvation_Energy-OPLS-2005>
-230.949157714844

> <b_mmod_Minimization_Converged-OPLS-2005>
0

> <r_mmod_RMS_Derivative-OPLS-2005>
0.60506397485733

$$$$
58
                    3D
 Structure written by MMmdl.
163172  0  0  1  0            999 V2000
  -30.7267  -14.4899   20.5705 C   0  0  0  0  0  0
  -30.4134  -12.3195   19.4324 C   0  0  0  0  0  0
  -29.4920  -12.5029   18.2105 C   0  0  0  0  0  0
  -28.0148  -12.3628   18.6242 C   0  0  0  0  0  0
  -27.6572  -13.2157   19.8712 C   0  0  2  0  0  0
  -28.7005  -13.0340   20.9973 C   0  0  0  0  0  0
  -25.2566  -13.8183   20.5693 C   0  0  0  0  0  0
  -24.1830  -13.0447   20.9189 C   0  0  0  0  0  0
  -24.6396  -11.6917   20.8746 C   0  0  0  0  0  0
  -23.9070  -10.4296   21.0411 C   0  0  0  0  0  0
  -24.3619   -9.4210   21.9188 C   0  0  0  0  0  0
  -23.6293   -8.2246   22.0758 C   0  0  0  0  0  0
  -22.4276   -8.0285   21.3545 C   0  0  0  0  0  0
  -21.9914   -9.0261   20.4648 C   0  0  0  0  0  0
  -22.7244  -10.2139   20.3058 C   0  0  0  0  0  0
  -21.6851   -6.0739   22.5279 C   0  0  0  0  0  0
  -21.4011   -6.5642   23.8213 C   0  0  0  0  0  0
  -21.3659   -5.6795   24.9175 C   0  0  0  0  0  0
  -21.6046   -4.3057   24.7226 C   0  0  0  0  0  0
  -21.8818   -3.8150   23.4347 C   0  0  0  0  0  0
  -21.9191   -4.6967   22.3402 C   0  0  0  0  0  0
  -22.7852  -13.5236   21.1853 C   0  0  0  0  0  0
  -22.1661   -4.2152   21.0979 F   0  0  0  0  0  0
  -21.5631   -3.4541   25.7738 F   0  0  0  0  0  0
  -30.0271  -13.3283   20.4343 N   0  0  0  0  0  0
  -26.3005  -12.9368   20.3364 N   0  0  0  0  0  0
  -25.9325  -11.6520   20.5778 N   0  0  0  0  0  0
  -22.0495  -12.8221   22.0405 N   0  0  0  0  0  0
  -25.4283  -15.1903   20.4091 N   0  0  0  0  0  0
  -31.8598  -14.6230   20.1002 O   0  0  0  0  0  0
  -21.6638   -6.8884   21.4242 O   0  0  0  0  0  0
  -22.3536  -14.5546   20.6708 O   0  0  0  0  0  0
  -24.6186  -31.8670   23.2106 C   0  0  0  0  0  0
  -25.9068  -32.4818   23.8404 C   0  0  1  0  0  0
  -27.2205  -27.3993   20.0980 C   0  0  0  0  0  0
  -25.5915  -33.8618   24.2329 N   0  0  0  0  0  0
  -23.4071  -30.4943   21.5522 C   0  0  2  0  0  0
  -24.8511  -28.9670   20.1088 C   0  0  0  0  0  0
  -22.7434  -29.4658   22.4973 C   0  0  0  0  0  0
  -18.0279  -28.1380   22.8495 C   0  0  0  0  0  0
  -24.1485  -36.7308   23.2639 C   0  0  0  0  0  0
  -25.9423  -30.8221   21.3711 C   0  0  0  0  0  0
  -26.0166  -29.4581   20.7105 C   0  0  0  0  0  0
  -27.2055  -28.6838   20.7007 C   0  0  0  0  0  0
  -26.0358  -26.9509   19.4634 C   0  0  0  0  0  0
  -24.8581  -27.7146   19.4793 C   0  0  0  0  0  0
  -23.6153  -29.8359   20.1641 C   0  0  0  0  0  0
  -25.4108  -36.3109   24.0337 C   0  0  1  0  0  0
  -20.5874  -28.3671   23.1306 C   0  0  2  0  0  0
  -20.6768  -26.9405   22.5413 C   0  0  0  0  0  0
  -19.5742  -26.6385   21.5215 C   0  0  0  0  0  0
  -18.1922  -26.7928   22.1625 C   0  0  0  0  0  0
  -19.1530  -28.8843   23.2898 C   0  0  0  0  0  0
  -18.9455  -30.1450   23.8904 C   0  0  0  0  0  0
  -17.6457  -30.6585   24.0566 C   0  0  0  0  0  0
  -25.9040  -34.9473   23.5128 C   0  0  0  0  0  0
  -16.5348  -29.9084   23.6330 C   0  0  0  0  0  0
  -16.7268  -28.6501   23.0353 C   0  0  0  0  0  0
  -26.4482  -31.6600   25.0740 C   0  0  0  0  0  0
  -25.3738  -31.3702   26.1477 C   0  0  0  0  0  0
  -27.0324  -30.3041   24.6140 C   0  0  0  0  0  0
  -27.6051  -32.4325   25.7507 C   0  0  0  0  0  0
  -27.5582  -37.1809   24.8466 C   0  0  0  0  0  0
  -21.4157  -29.3038   22.3710 N   0  0  0  0  0  0
  -26.4294  -37.3794   23.9410 N   0  0  0  0  0  0
  -24.6745  -31.0754   22.1020 N   0  0  0  0  0  0
  -23.4194  -28.8192   23.3018 O   0  0  0  0  0  0
  -28.3502  -26.5897   20.1605 O   0  0  0  0  0  0
  -26.5598  -34.8924   22.4687 O   0  0  0  0  0  0
  -23.5370  -32.1436   23.7479 O   0  0  0  0  0  0
  -31.7017  -19.4383   21.8057 C   0  0  0  0  0  0
  -29.8501  -18.0398   21.0589 C   0  0  0  0  0  0
  -31.9005  -17.0106   21.8869 C   0  0  0  0  0  0
  -30.3844  -19.3468   21.2904 C   0  0  0  0  0  0
  -32.4482  -18.2862   22.1123 C   0  0  0  0  0  0
  -30.6059  -16.8634   21.3348 C   0  0  0  0  0  0
  -29.7362  -21.7833   21.5398 C   0  0  0  0  0  0
  -28.1490  -22.0034   19.8075 C   0  0  0  0  0  0
  -28.4973  -20.5274   20.0582 C   0  0  0  0  0  0
  -28.6385  -22.7559   21.0551 C   0  0  1  0  0  0
  -27.5397  -22.7819   22.1479 C   0  0  0  0  0  0
  -29.1505  -24.2186   20.7580 C   0  0  0  0  0  0
  -28.0909  -25.1608   20.1163 C   0  0  0  0  0  0
  -29.6239  -20.5450   20.9848 N   0  0  0  0  0  0
  -33.7359  -18.4114   22.6329 N   0  0  0  0  0  0
  -30.0643  -15.5495   21.0956 N   0  0  0  0  0  0
  -30.5716  -22.1431   22.3750 O   0  0  0  0  0  0
  -31.4593  -12.3997   19.1316 H   0  0  0  0  0  0
  -30.3030  -11.3173   19.8493 H   0  0  0  0  0  0
  -29.7350  -11.7695   17.4405 H   0  0  0  0  0  0
  -29.6592  -13.4844   17.7641 H   0  0  0  0  0  0
  -27.8289  -11.3083   18.8316 H   0  0  0  0  0  0
  -27.3638  -12.6267   17.7900 H   0  0  0  0  0  0
  -27.6909  -14.2585   19.5548 H   0  0  0  0  0  0
  -28.6809  -12.0104   21.3744 H   0  0  0  0  0  0
  -28.4646  -13.6680   21.8531 H   0  0  0  0  0  0
  -25.2763   -9.5682   22.4765 H   0  0  0  0  0  0
  -24.0003   -7.4636   22.7473 H   0  0  0  0  0  0
  -21.0849   -8.8781   19.8948 H   0  0  0  0  0  0
  -22.3708  -10.9681   19.6168 H   0  0  0  0  0  0
  -21.2002   -7.6150   23.9718 H   0  0  0  0  0  0
  -21.1483   -6.0525   25.9079 H   0  0  0  0  0  0
  -22.0598   -2.7613   23.2846 H   0  0  0  0  0  0
  -22.4110  -11.9873   22.4776 H   0  0  0  0  0  0
  -21.1117  -13.1251   22.2625 H   0  0  0  0  0  0
  -24.6613  -15.8457   20.5134 H   0  0  0  0  0  0
  -26.2786  -15.6274   20.0768 H   0  0  0  0  0  0
  -26.7137  -32.5518   23.1163 H   0  0  0  0  0  0
  -25.0078  -33.9782   25.0483 H   0  0  0  0  0  0
  -22.6969  -31.3128   21.4165 H   0  0  0  0  0  0
  -23.3750  -35.9638   23.3309 H   0  0  0  0  0  0
  -24.3574  -36.8917   22.2051 H   0  0  0  0  0  0
  -23.7233  -37.6512   23.6651 H   0  0  0  0  0  0
  -26.0647  -31.5906   20.6065 H   0  0  0  0  0  0
  -26.8266  -30.8680   21.9950 H   0  0  0  0  0  0
  -28.0996  -29.0533   21.1834 H   0  0  0  0  0  0
  -25.9910  -25.9985   18.9560 H   0  0  0  0  0  0
  -23.9655  -27.3346   19.0015 H   0  0  0  0  0  0
  -23.7244  -30.6148   19.4087 H   0  0  0  0  0  0
  -22.7376  -29.2594   19.8660 H   0  0  0  0  0  0
  -25.1282  -36.1976   25.0829 H   0  0  0  0  0  0
  -20.9970  -28.3240   24.1425 H   0  0  0  0  0  0
  -20.5679  -26.2277   23.3602 H   0  0  0  0  0  0
  -21.6637  -26.7443   22.1203 H   0  0  0  0  0  0
  -19.6901  -25.6298   21.1239 H   0  0  0  0  0  0
  -19.6681  -27.3199   20.6751 H   0  0  0  0  0  0
  -17.4195  -26.6688   21.4023 H   0  0  0  0  0  0
  -18.0310  -26.0063   22.9013 H   0  0  0  0  0  0
  -19.7932  -30.7267   24.2271 H   0  0  0  0  0  0
  -17.5010  -31.6267   24.5166 H   0  0  0  0  0  0
  -15.5347  -30.2987   23.7649 H   0  0  0  0  0  0
  -15.8670  -28.0823   22.7060 H   0  0  0  0  0  0
  -24.5925  -30.7035   25.7810 H   0  0  0  0  0  0
  -24.8911  -32.2853   26.4919 H   0  0  0  0  0  0
  -25.8087  -30.8880   27.0240 H   0  0  0  0  0  0
  -26.2881  -29.6796   24.1183 H   0  0  0  0  0  0
  -27.4075  -29.7284   25.4613 H   0  0  0  0  0  0
  -27.8724  -30.4361   23.9317 H   0  0  0  0  0  0
  -27.2668  -33.3618   26.2103 H   0  0  0  0  0  0
  -28.3848  -32.6896   25.0326 H   0  0  0  0  0  0
  -28.0730  -31.8437   26.5407 H   0  0  0  0  0  0
  -28.2603  -38.0104   24.7522 H   0  0  0  0  0  0
  -28.1077  -36.2636   24.6288 H   0  0  0  0  0  0
  -27.2297  -37.1455   25.8869 H   0  0  0  0  0  0
  -20.9315  -29.8773   21.6945 H   0  0  0  0  0  0
  -26.0185  -38.2873   24.1415 H   0  0  0  0  0  0
  -32.1653  -20.4002   21.9642 H   0  0  0  0  0  0
  -28.8532  -17.9313   20.6559 H   0  0  0  0  0  0
  -32.4863  -16.1356   22.1313 H   0  0  0  0  0  0
  -27.0845  -22.1411   19.6133 H   0  0  0  0  0  0
  -28.6843  -22.3553   18.9241 H   0  0  0  0  0  0
  -28.7433  -20.0090   19.1308 H   0  0  0  0  0  0
  -27.6570  -20.0119   20.5252 H   0  0  0  0  0  0
  -27.3298  -21.7867   22.5440 H   0  0  0  0  0  0
  -26.5924  -23.1652   21.7713 H   0  0  0  0  0  0
  -27.8349  -23.4053   22.9928 H   0  0  0  0  0  0
  -30.0344  -24.1856   20.1198 H   0  0  0  0  0  0
  -29.4847  -24.6653   21.6952 H   0  0  0  0  0  0
  -27.1534  -24.9705   20.6369 H   0  0  0  0  0  0
  -27.9403  -24.8605   19.0786 H   0  0  0  0  0  0
  -34.0277  -19.3009   23.0275 H   0  0  0  0  0  0
  -34.1676  -17.6123   23.0881 H   0  0  0  0  0  0
  -29.0829  -15.4122   21.2836 H   0  0  0  0  0  0
  1 25  1  0  0  0
  1 30  2  0  0  0
  1 86  1  0  0  0
  2  3  1  0  0  0
  2 25  1  0  0  0
  2 88  1  0  0  0
  2 89  1  0  0  0
  3  4  1  0  0  0
  3 90  1  0  0  0
  3 91  1  0  0  0
  4  5  1  0  0  0
  4 92  1  0  0  0
  4 93  1  0  0  0
  5  6  1  0  0  0
  5 26  1  0  0  0
  5 94  1  0  0  0
  6 25  1  0  0  0
  6 95  1  0  0  0
  6 96  1  0  0  0
  7  8  2  0  0  0
  7 26  1  0  0  0
  7 29  1  0  0  0
  8  9  1  0  0  0
  8 22  1  0  0  0
  9 10  1  0  0  0
  9 27  2  0  0  0
 10 11  2  0  0  0
 10 15  1  0  0  0
 11 12  1  0  0  0
 11 97  1  0  0  0
 12 13  2  0  0  0
 12 98  1  0  0  0
 13 14  1  0  0  0
 13 31  1  0  0  0
 14 15  2  0  0  0
 14 99  1  0  0  0
 15100  1  0  0  0
 16 17  2  0  0  0
 16 21  1  0  0  0
 16 31  1  0  0  0
 17 18  1  0  0  0
 17101  1  0  0  0
 18 19  2  0  0  0
 18102  1  0  0  0
 19 20  1  0  0  0
 19 24  1  0  0  0
 20 21  2  0  0  0
 20103  1  0  0  0
 21 23  1  0  0  0
 22 28  1  0  0  0
 22 32  2  0  0  0
 26 27  1  0  0  0
 28104  1  0  0  0
 28105  1  0  0  0
 29106  1  0  0  0
 29107  1  0  0  0
 33 34  1  0  0  0
 33 66  1  0  0  0
 33 70  2  0  0  0
 34 36  1  0  0  0
 34 59  1  0  0  0
 34108  1  0  0  0
 35 44  2  0  0  0
 35 45  1  0  0  0
 35 68  1  0  0  0
 36 56  1  0  0  0
 36109  1  0  0  0
 37 39  1  0  0  0
 37 47  1  0  0  0
 37 66  1  0  0  0
 37110  1  0  0  0
 38 43  2  0  0  0
 38 46  1  0  0  0
 38 47  1  0  0  0
 39 64  1  0  0  0
 39 67  2  0  0  0
 40 52  1  0  0  0
 40 53  2  0  0  0
 40 58  1  0  0  0
 41111  1  0  0  0
 41112  1  0  0  0
 41113  1  0  0  0
 41 48  1  0  0  0
 42 43  1  0  0  0
 42 66  1  0  0  0
 42114  1  0  0  0
 42115  1  0  0  0
 43 44  1  0  0  0
 44116  1  0  0  0
 45 46  2  0  0  0
 45117  1  0  0  0
 46118  1  0  0  0
 47119  1  0  0  0
 47120  1  0  0  0
 48 56  1  0  0  0
 48 65  1  0  0  0
 48121  1  0  0  0
 49 50  1  0  0  0
 49 53  1  0  0  0
 49 64  1  0  0  0
 49122  1  0  0  0
 50 51  1  0  0  0
 50123  1  0  0  0
 50124  1  0  0  0
 51 52  1  0  0  0
 51125  1  0  0  0
 51126  1  0  0  0
 52127  1  0  0  0
 52128  1  0  0  0
 53 54  1  0  0  0
 54 55  2  0  0  0
 54129  1  0  0  0
 55 57  1  0  0  0
 55130  1  0  0  0
 56 69  2  0  0  0
 57 58  2  0  0  0
 57131  1  0  0  0
 58132  1  0  0  0
 59 60  1  0  0  0
 59 61  1  0  0  0
 59 62  1  0  0  0
 60133  1  0  0  0
 60134  1  0  0  0
 60135  1  0  0  0
 61136  1  0  0  0
 61137  1  0  0  0
 61138  1  0  0  0
 62139  1  0  0  0
 62140  1  0  0  0
 62141  1  0  0  0
 63 65  1  0  0  0
 63142  1  0  0  0
 63143  1  0  0  0
 63144  1  0  0  0
 64145  1  0  0  0
 65146  1  0  0  0
 68 83  1  0  0  0
 71 74  2  0  0  0
 71 75  1  0  0  0
 71147  1  0  0  0
 72 74  1  0  0  0
 72 76  2  0  0  0
 72148  1  0  0  0
 73 75  2  0  0  0
 73 76  1  0  0  0
 73149  1  0  0  0
 74 84  1  0  0  0
 75 85  1  0  0  0
 76 86  1  0  0  0
 77 80  1  0  0  0
 77 84  1  0  0  0
 77 87  2  0  0  0
 78 79  1  0  0  0
 78 80  1  0  0  0
 78150  1  0  0  0
 78151  1  0  0  0
 79 84  1  0  0  0
 79152  1  0  0  0
 79153  1  0  0  0
 80 81  1  0  0  0
 80 82  1  0  0  0
 81154  1  0  0  0
 81155  1  0  0  0
 81156  1  0  0  0
 82 83  1  0  0  0
 82157  1  0  0  0
 82158  1  0  0  0
 83159  1  0  0  0
 83160  1  0  0  0
 85161  1  0  0  0
 85162  1  0  0  0
 86163  1  0  0  0
M  ISO  4   1 100  68 101  83 101  86 100
M  END
> <chiral flag>
0

> <version>
0

> <s_m_source_file>
/data/baiqing/PycharmProjects/Reinvent-master-3.2/result/LINK_invent/BTK/process_docking_weight1_custom_product_contain_oxygen_bond_distance_aromatic_linkinvent_7_9_3/rearranged_h_0075.sdf

> <i_m_source_file_index>
58

> <r_mmod_Potential_Energy-OPLS-2005>
110.65860748291

> <r_mmod_Stretch_Energy-OPLS-2005>
51.4430847167969

> <r_mmod_Bend_Energy-OPLS-2005>
132.719467163086

> <r_mmod_Torsional_Energy-OPLS-2005>
283.144012451172

> <r_mmod_Improper_Torsional_Energy-OPLS-2005>
6.33948755264282

> <r_mmod_Van_der_Waal_Energy-OPLS-2005>
166.545104980469

> <r_mmod_Electrostatic_Energy-OPLS-2005>
-315.438354492188

> <r_mmod_Solvation_Energy-OPLS-2005>
-234.822952270508

> <b_mmod_Minimization_Converged-OPLS-2005>
0

> <r_mmod_RMS_Derivative-OPLS-2005>
0.428286284208298

$$$$
59
                    3D
 Structure written by MMmdl.
161170  0  0  1  0            999 V2000
  -30.6319  -14.7641   20.3134 C   0  0  0  0  0  0
  -30.4273  -12.4507   19.4339 C   0  0  0  0  0  0
  -29.4847  -12.4468   18.2123 C   0  0  0  0  0  0
  -28.0188  -12.2906   18.6567 C   0  0  0  0  0  0
  -27.6326  -13.2158   19.8443 C   0  0  2  0  0  0
  -28.7028  -13.2237   20.9524 C   0  0  0  0  0  0
  -25.2525  -13.8133   20.5878 C   0  0  0  0  0  0
  -24.1771  -13.0400   20.9256 C   0  0  0  0  0  0
  -24.6350  -11.6881   20.8788 C   0  0  0  0  0  0
  -23.9031  -10.4271   21.0427 C   0  0  0  0  0  0
  -24.3591   -9.4188   21.9199 C   0  0  0  0  0  0
  -23.6269   -8.2224   22.0760 C   0  0  0  0  0  0
  -22.4254   -8.0269   21.3550 C   0  0  0  0  0  0
  -21.9891   -9.0241   20.4653 C   0  0  0  0  0  0
  -22.7214  -10.2121   20.3066 C   0  0  0  0  0  0
  -21.6845   -6.0727   22.5285 C   0  0  0  0  0  0
  -21.4011   -6.5634   23.8219 C   0  0  0  0  0  0
  -21.3656   -5.6791   24.9184 C   0  0  0  0  0  0
  -21.6043   -4.3053   24.7232 C   0  0  0  0  0  0
  -21.8818   -3.8141   23.4355 C   0  0  0  0  0  0
  -21.9187   -4.6956   22.3409 C   0  0  0  0  0  0
  -22.7796  -13.5212   21.1874 C   0  0  0  0  0  0
  -22.1654   -4.2142   21.0987 F   0  0  0  0  0  0
  -21.5629   -3.4535   25.7742 F   0  0  0  0  0  0
  -29.9769  -13.5539   20.3031 N   0  0  0  0  0  0
  -26.2928  -12.9316   20.3423 N   0  0  0  0  0  0
  -25.9284  -11.6474   20.5841 N   0  0  0  0  0  0
  -22.0409  -12.8229   22.0422 N   0  0  0  0  0  0
  -25.4258  -15.1858   20.4519 N   0  0  0  0  0  0
  -31.8631  -14.7654   20.3904 O   0  0  0  0  0  0
  -21.6624   -6.8865   21.4244 O   0  0  0  0  0  0
  -22.3508  -14.5517   20.6698 O   0  0  0  0  0  0
  -24.6296  -31.8560   23.1982 C   0  0  0  0  0  0
  -25.9132  -32.4756   23.8324 C   0  0  1  0  0  0
  -27.2298  -27.2915   20.1034 C   0  0  0  0  0  0
  -25.5939  -33.8558   24.2255 N   0  0  0  0  0  0
  -23.4249  -30.4781   21.5414 C   0  0  2  0  0  0
  -24.8721  -28.9289   20.1053 C   0  0  0  0  0  0
  -22.7492  -29.4603   22.4915 C   0  0  0  0  0  0
  -18.0292  -28.1385   22.8484 C   0  0  0  0  0  0
  -24.1494  -36.7286   23.2637 C   0  0  0  0  0  0
  -25.9687  -30.7771   21.3734 C   0  0  0  0  0  0
  -26.0421  -29.4031   20.7109 C   0  0  0  0  0  0
  -27.2196  -28.5931   20.7049 C   0  0  0  0  0  0
  -26.0291  -26.8672   19.5048 C   0  0  0  0  0  0
  -24.8678  -27.6647   19.4955 C   0  0  0  0  0  0
  -23.6406  -29.8113   20.1567 C   0  0  0  0  0  0
  -25.4120  -36.3069   24.0323 C   0  0  1  0  0  0
  -20.5893  -28.3694   23.1272 C   0  0  2  0  0  0
  -20.6782  -26.9414   22.5407 C   0  0  0  0  0  0
  -19.5758  -26.6383   21.5212 C   0  0  0  0  0  0
  -18.1938  -26.7927   22.1622 C   0  0  0  0  0  0
  -19.1544  -28.8857   23.2873 C   0  0  0  0  0  0
  -18.9467  -30.1458   23.8890 C   0  0  0  0  0  0
  -17.6467  -30.6586   24.0561 C   0  0  0  0  0  0
  -25.9059  -34.9440   23.5090 C   0  0  0  0  0  0
  -16.5358  -29.9083   23.6332 C   0  0  0  0  0  0
  -16.7280  -28.6500   23.0355 C   0  0  0  0  0  0
  -26.4508  -31.6577   25.0708 C   0  0  0  0  0  0
  -25.3735  -31.3726   26.1431 C   0  0  0  0  0  0
  -27.0357  -30.2995   24.6187 C   0  0  0  0  0  0
  -27.6061  -32.4319   25.7484 C   0  0  0  0  0  0
  -27.5582  -37.1799   24.8463 C   0  0  0  0  0  0
  -21.4202  -29.3039   22.3658 N   0  0  0  0  0  0
  -26.4295  -37.3767   23.9404 N   0  0  0  0  0  0
  -24.6933  -31.0542   22.0944 N   0  0  0  0  0  0
  -23.4197  -28.8155   23.3019 O   0  0  0  0  0  0
  -28.3342  -26.4231   20.2017 O   0  0  0  0  0  0
  -26.5627  -34.8914   22.4657 O   0  0  0  0  0  0
  -23.5451  -32.1376   23.7290 O   0  0  0  0  0  0
  -29.8891  -19.5293   20.5301 C   0  0  0  0  0  0
  -30.2650  -18.1316   20.5344 C   0  0  0  0  0  0
  -27.9978  -18.9865   19.2053 C   0  0  0  0  0  0
  -28.3857  -17.6166   19.1456 C   0  0  0  0  0  0
  -28.7402  -20.0254   19.8412 C   0  0  0  0  0  0
  -29.5405  -17.1184   19.8270 C   0  0  0  0  0  0
  -28.8635  -22.7145   19.9923 C   0  0  0  0  0  0
  -28.1992  -23.7921   19.4365 C   0  0  0  0  0  0
  -27.1413  -23.1632   18.6690 C   0  0  0  0  0  0
  -26.3597  -23.7393   17.7399 C   0  0  0  0  0  0
  -27.1171  -21.6759   18.9163 C   0  0  0  0  0  0
  -27.5439  -16.7564   18.2133 C   0  0  0  0  0  0
  -30.7278  -15.8231   18.1857 C   0  0  0  0  0  0
  -28.6427  -25.3157   19.2538 C   0  0  0  0  0  0
  -28.3043  -21.4197   19.7309 N   0  0  0  0  0  0
  -30.0711  -15.7645   19.5107 N   0  0  0  0  0  0
  -31.4617  -12.5835   19.1103 H   0  0  0  0  0  0
  -30.3887  -11.4987   19.9652 H   0  0  0  0  0  0
  -29.7551  -11.6404   17.5296 H   0  0  0  0  0  0
  -29.5867  -13.3681   17.6413 H   0  0  0  0  0  0
  -27.8839  -11.2480   18.9471 H   0  0  0  0  0  0
  -27.3482  -12.4585   17.8134 H   0  0  0  0  0  0
  -27.5985  -14.2209   19.4453 H   0  0  0  0  0  0
  -28.7611  -12.2587   21.4573 H   0  0  0  0  0  0
  -28.4599  -13.9682   21.7130 H   0  0  0  0  0  0
  -25.2735   -9.5657   22.4774 H   0  0  0  0  0  0
  -23.9979   -7.4609   22.7471 H   0  0  0  0  0  0
  -21.0830   -8.8758   19.8952 H   0  0  0  0  0  0
  -22.3681  -10.9663   19.6176 H   0  0  0  0  0  0
  -21.2010   -7.6143   23.9720 H   0  0  0  0  0  0
  -21.1479   -6.0525   25.9087 H   0  0  0  0  0  0
  -22.0599   -2.7602   23.2863 H   0  0  0  0  0  0
  -22.4003  -11.9911   22.4867 H   0  0  0  0  0  0
  -21.1018  -13.1269   22.2566 H   0  0  0  0  0  0
  -24.6731  -15.8457   20.6138 H   0  0  0  0  0  0
  -26.3090  -15.6323   20.2424 H   0  0  0  0  0  0
  -26.7197  -32.5410   23.1065 H   0  0  0  0  0  0
  -25.0092  -33.9696   25.0405 H   0  0  0  0  0  0
  -22.7207  -31.2996   21.3960 H   0  0  0  0  0  0
  -23.3754  -35.9620   23.3297 H   0  0  0  0  0  0
  -24.3584  -36.8912   22.2053 H   0  0  0  0  0  0
  -23.7250  -37.6487   23.6665 H   0  0  0  0  0  0
  -26.1060  -31.5410   20.6069 H   0  0  0  0  0  0
  -26.8465  -30.8225   22.0062 H   0  0  0  0  0  0
  -28.1151  -28.9496   21.1944 H   0  0  0  0  0  0
  -25.9505  -25.8750   19.1082 H   0  0  0  0  0  0
  -23.9633  -27.2809   19.0434 H   0  0  0  0  0  0
  -23.7607  -30.5879   19.4007 H   0  0  0  0  0  0
  -22.7601  -29.2418   19.8537 H   0  0  0  0  0  0
  -25.1303  -36.1915   25.0816 H   0  0  0  0  0  0
  -20.9989  -28.3275   24.1393 H   0  0  0  0  0  0
  -20.5693  -26.2303   23.3608 H   0  0  0  0  0  0
  -21.6649  -26.7447   22.1195 H   0  0  0  0  0  0
  -19.6923  -25.6294   21.1242 H   0  0  0  0  0  0
  -19.6697  -27.3193   20.6741 H   0  0  0  0  0  0
  -17.4209  -26.6677   21.4023 H   0  0  0  0  0  0
  -18.0339  -26.0068   22.9018 H   0  0  0  0  0  0
  -19.7944  -30.7276   24.2257 H   0  0  0  0  0  0
  -17.5021  -31.6268   24.5162 H   0  0  0  0  0  0
  -15.5357  -30.2985   23.7660 H   0  0  0  0  0  0
  -15.8679  -28.0817   22.7076 H   0  0  0  0  0  0
  -24.5905  -30.7084   25.7755 H   0  0  0  0  0  0
  -24.8937  -32.2899   26.4854 H   0  0  0  0  0  0
  -25.8053  -30.8899   27.0207 H   0  0  0  0  0  0
  -26.2938  -29.6731   24.1223 H   0  0  0  0  0  0
  -27.4057  -29.7267   25.4701 H   0  0  0  0  0  0
  -27.8806  -30.4270   23.9416 H   0  0  0  0  0  0
  -27.2667  -33.3621   26.2052 H   0  0  0  0  0  0
  -28.3879  -32.6875   25.0320 H   0  0  0  0  0  0
  -28.0722  -31.8451   26.5410 H   0  0  0  0  0  0
  -28.2595  -38.0099   24.7508 H   0  0  0  0  0  0
  -28.1082  -36.2629   24.6293 H   0  0  0  0  0  0
  -27.2297  -37.1449   25.8865 H   0  0  0  0  0  0
  -20.9387  -29.8747   21.6850 H   0  0  0  0  0  0
  -26.0172  -38.2841   24.1400 H   0  0  0  0  0  0
  -30.5245  -20.2311   21.0505 H   0  0  0  0  0  0
  -31.1860  -17.8573   21.0283 H   0  0  0  0  0  0
  -27.0987  -19.2213   18.6589 H   0  0  0  0  0  0
  -29.8000  -22.7512   20.5331 H   0  0  0  0  0  0
  -26.4338  -24.7769   17.4583 H   0  0  0  0  0  0
  -25.6424  -23.1445   17.1918 H   0  0  0  0  0  0
  -27.1657  -21.1776   17.9469 H   0  0  0  0  0  0
  -26.2041  -21.3802   19.4355 H   0  0  0  0  0  0
  -26.5171  -16.6953   18.5679 H   0  0  0  0  0  0
  -27.9213  -15.7507   18.0629 H   0  0  0  0  0  0
  -27.5130  -17.2191   17.2265 H   0  0  0  0  0  0
  -31.4923  -16.6019   18.1836 H   0  0  0  0  0  0
  -30.0262  -16.0602   17.3882 H   0  0  0  0  0  0
  -31.2284  -14.8997   17.8874 H   0  0  0  0  0  0
  -28.3528  -25.6442   18.2563 H   0  0  0  0  0  0
  -29.7314  -25.2870   19.2076 H   0  0  0  0  0  0
  1 25  1  0  0  0
  1 30  2  0  0  0
  1 86  1  0  0  0
  2  3  1  0  0  0
  2 25  1  0  0  0
  2 87  1  0  0  0
  2 88  1  0  0  0
  3  4  1  0  0  0
  3 89  1  0  0  0
  3 90  1  0  0  0
  4  5  1  0  0  0
  4 91  1  0  0  0
  4 92  1  0  0  0
  5  6  1  0  0  0
  5 26  1  0  0  0
  5 93  1  0  0  0
  6 25  1  0  0  0
  6 94  1  0  0  0
  6 95  1  0  0  0
  7  8  2  0  0  0
  7 26  1  0  0  0
  7 29  1  0  0  0
  8  9  1  0  0  0
  8 22  1  0  0  0
  9 10  1  0  0  0
  9 27  2  0  0  0
 10 11  2  0  0  0
 10 15  1  0  0  0
 11 12  1  0  0  0
 11 96  1  0  0  0
 12 13  2  0  0  0
 12 97  1  0  0  0
 13 14  1  0  0  0
 13 31  1  0  0  0
 14 15  2  0  0  0
 14 98  1  0  0  0
 15 99  1  0  0  0
 16 17  2  0  0  0
 16 21  1  0  0  0
 16 31  1  0  0  0
 17 18  1  0  0  0
 17100  1  0  0  0
 18 19  2  0  0  0
 18101  1  0  0  0
 19 20  1  0  0  0
 19 24  1  0  0  0
 20 21  2  0  0  0
 20102  1  0  0  0
 21 23  1  0  0  0
 22 28  1  0  0  0
 22 32  2  0  0  0
 26 27  1  0  0  0
 28103  1  0  0  0
 28104  1  0  0  0
 29105  1  0  0  0
 29106  1  0  0  0
 33 34  1  0  0  0
 33 66  1  0  0  0
 33 70  2  0  0  0
 34 36  1  0  0  0
 34 59  1  0  0  0
 34107  1  0  0  0
 35 44  2  0  0  0
 35 45  1  0  0  0
 35 68  1  0  0  0
 36 56  1  0  0  0
 36108  1  0  0  0
 37 39  1  0  0  0
 37 47  1  0  0  0
 37 66  1  0  0  0
 37109  1  0  0  0
 38 43  2  0  0  0
 38 46  1  0  0  0
 38 47  1  0  0  0
 39 64  1  0  0  0
 39 67  2  0  0  0
 40 52  1  0  0  0
 40 53  2  0  0  0
 40 58  1  0  0  0
 41110  1  0  0  0
 41111  1  0  0  0
 41112  1  0  0  0
 41 48  1  0  0  0
 42 43  1  0  0  0
 42 66  1  0  0  0
 42113  1  0  0  0
 42114  1  0  0  0
 43 44  1  0  0  0
 44115  1  0  0  0
 45 46  2  0  0  0
 45116  1  0  0  0
 46117  1  0  0  0
 47118  1  0  0  0
 47119  1  0  0  0
 48 56  1  0  0  0
 48 65  1  0  0  0
 48120  1  0  0  0
 49 50  1  0  0  0
 49 53  1  0  0  0
 49 64  1  0  0  0
 49121  1  0  0  0
 50 51  1  0  0  0
 50122  1  0  0  0
 50123  1  0  0  0
 51 52  1  0  0  0
 51124  1  0  0  0
 51125  1  0  0  0
 52126  1  0  0  0
 52127  1  0  0  0
 53 54  1  0  0  0
 54 55  2  0  0  0
 54128  1  0  0  0
 55 57  1  0  0  0
 55129  1  0  0  0
 56 69  2  0  0  0
 57 58  2  0  0  0
 57130  1  0  0  0
 58131  1  0  0  0
 59 60  1  0  0  0
 59 61  1  0  0  0
 59 62  1  0  0  0
 60132  1  0  0  0
 60133  1  0  0  0
 60134  1  0  0  0
 61135  1  0  0  0
 61136  1  0  0  0
 61137  1  0  0  0
 62138  1  0  0  0
 62139  1  0  0  0
 62140  1  0  0  0
 63 65  1  0  0  0
 63141  1  0  0  0
 63142  1  0  0  0
 63143  1  0  0  0
 64144  1  0  0  0
 65145  1  0  0  0
 68 84  1  0  0  0
 71 72  2  0  0  0
 71 75  1  0  0  0
 71146  1  0  0  0
 72 76  1  0  0  0
 72147  1  0  0  0
 73 74  1  0  0  0
 73 75  2  0  0  0
 73148  1  0  0  0
 74 76  2  0  0  0
 74 82  1  0  0  0
 75 85  1  0  0  0
 76 86  1  0  0  0
 77 78  2  0  0  0
 77 85  1  0  0  0
 77149  1  0  0  0
 78 79  1  0  0  0
 78 84  1  0  0  0
 79 80  2  0  0  0
 79 81  1  0  0  0
 80150  1  0  0  0
 80151  1  0  0  0
 81 85  1  0  0  0
 81152  1  0  0  0
 81153  1  0  0  0
 82154  1  0  0  0
 82155  1  0  0  0
 82156  1  0  0  0
 83 86  1  0  0  0
 83157  1  0  0  0
 83158  1  0  0  0
 83159  1  0  0  0
 84160  1  0  0  0
 84161  1  0  0  0
M  ISO  4   1 100  68 101  84 101  86 100
M  END
> <chiral flag>
0

> <version>
0

> <s_m_source_file>
/data/baiqing/PycharmProjects/Reinvent-master-3.2/result/LINK_invent/BTK/process_docking_weight1_custom_product_contain_oxygen_bond_distance_aromatic_linkinvent_7_9_3/rearranged_h_0075.sdf

> <i_m_source_file_index>
59

> <r_mmod_Potential_Energy-OPLS-2005>
532.701904296875

> <r_mmod_Stretch_Energy-OPLS-2005>
112.224700927734

> <r_mmod_Bend_Energy-OPLS-2005>
307.955718994141

> <r_mmod_Torsional_Energy-OPLS-2005>
319.032135009766

> <r_mmod_Improper_Torsional_Energy-OPLS-2005>
38.2766342163086

> <r_mmod_Van_der_Waal_Energy-OPLS-2005>
149.321853637695

> <r_mmod_Electrostatic_Energy-OPLS-2005>
-302.725708007812

> <r_mmod_Solvation_Energy-OPLS-2005>
-196.688278198242

> <b_mmod_Minimization_Converged-OPLS-2005>
0

> <r_mmod_RMS_Derivative-OPLS-2005>
1.03063440322876

$$$$
60
                    3D
 Structure written by MMmdl.
162170  0  0  1  0            999 V2000
  -30.6750  -14.5129   20.5576 C   0  0  0  0  0  0
  -30.4301  -12.3287   19.4253 C   0  0  0  0  0  0
  -29.4965  -12.5063   18.2087 C   0  0  0  0  0  0
  -28.0178  -12.3629   18.6221 C   0  0  0  0  0  0
  -27.6604  -13.2078   19.8744 C   0  0  2  0  0  0
  -28.7042  -12.9979   20.9951 C   0  0  0  0  0  0
  -25.2588  -13.8164   20.5699 C   0  0  0  0  0  0
  -24.1834  -13.0436   20.9161 C   0  0  0  0  0  0
  -24.6394  -11.6904   20.8726 C   0  0  0  0  0  0
  -23.9063  -10.4291   21.0399 C   0  0  0  0  0  0
  -24.3617   -9.4209   21.9179 C   0  0  0  0  0  0
  -23.6293   -8.2244   22.0753 C   0  0  0  0  0  0
  -22.4272   -8.0283   21.3546 C   0  0  0  0  0  0
  -21.9908   -9.0254   20.4646 C   0  0  0  0  0  0
  -22.7236  -10.2131   20.3050 C   0  0  0  0  0  0
  -21.6853   -6.0737   22.5282 C   0  0  0  0  0  0
  -21.4011   -6.5641   23.8215 C   0  0  0  0  0  0
  -21.3660   -5.6794   24.9179 C   0  0  0  0  0  0
  -21.6044   -4.3057   24.7228 C   0  0  0  0  0  0
  -21.8820   -3.8149   23.4349 C   0  0  0  0  0  0
  -21.9193   -4.6966   22.3405 C   0  0  0  0  0  0
  -22.7857  -13.5234   21.1839 C   0  0  0  0  0  0
  -22.1661   -4.2152   21.0983 F   0  0  0  0  0  0
  -21.5630   -3.4540   25.7740 F   0  0  0  0  0  0
  -30.0310  -13.3172   20.4403 N   0  0  0  0  0  0
  -26.3025  -12.9335   20.3382 N   0  0  0  0  0  0
  -25.9323  -11.6492   20.5770 N   0  0  0  0  0  0
  -22.0503  -12.8221   22.0400 N   0  0  0  0  0  0
  -25.4301  -15.1890   20.4189 N   0  0  0  0  0  0
  -31.8148  -14.6928   20.1195 O   0  0  0  0  0  0
  -21.6639   -6.8879   21.4244 O   0  0  0  0  0  0
  -22.3536  -14.5544   20.6704 O   0  0  0  0  0  0
  -24.6159  -31.8664   23.2087 C   0  0  0  0  0  0
  -25.9042  -32.4812   23.8391 C   0  0  1  0  0  0
  -27.2326  -27.4102   20.1046 C   0  0  0  0  0  0
  -25.5888  -33.8610   24.2316 N   0  0  0  0  0  0
  -23.4072  -30.4896   21.5486 C   0  0  2  0  0  0
  -24.8571  -28.9521   20.1166 C   0  0  0  0  0  0
  -22.7433  -29.4642   22.4967 C   0  0  0  0  0  0
  -18.0285  -28.1383   22.8481 C   0  0  0  0  0  0
  -24.1492  -36.7313   23.2640 C   0  0  0  0  0  0
  -25.9384  -30.8214   21.3703 C   0  0  0  0  0  0
  -26.0167  -29.4512   20.7255 C   0  0  0  0  0  0
  -27.2083  -28.6841   20.7266 C   0  0  0  0  0  0
  -26.0645  -26.9421   19.4724 C   0  0  0  0  0  0
  -24.8757  -27.6947   19.4898 C   0  0  0  0  0  0
  -23.6203  -29.8219   20.1637 C   0  0  0  0  0  0
  -25.4107  -36.3101   24.0342 C   0  0  1  0  0  0
  -20.5873  -28.3664   23.1313 C   0  0  2  0  0  0
  -20.6770  -26.9396   22.5418 C   0  0  0  0  0  0
  -19.5746  -26.6384   21.5215 C   0  0  0  0  0  0
  -18.1926  -26.7926   22.1624 C   0  0  0  0  0  0
  -19.1534  -28.8840   23.2892 C   0  0  0  0  0  0
  -18.9457  -30.1446   23.8900 C   0  0  0  0  0  0
  -17.6459  -30.6581   24.0562 C   0  0  0  0  0  0
  -25.9034  -34.9469   23.5128 C   0  0  0  0  0  0
  -16.5350  -29.9086   23.6329 C   0  0  0  0  0  0
  -16.7272  -28.6510   23.0335 C   0  0  0  0  0  0
  -26.4460  -31.6591   25.0726 C   0  0  0  0  0  0
  -25.3721  -31.3710   26.1473 C   0  0  0  0  0  0
  -27.0297  -30.3033   24.6106 C   0  0  0  0  0  0
  -27.6034  -32.4312   25.7485 C   0  0  0  0  0  0
  -27.5580  -37.1805   24.8466 C   0  0  0  0  0  0
  -21.4152  -29.3028   22.3710 N   0  0  0  0  0  0
  -26.4291  -37.3787   23.9413 N   0  0  0  0  0  0
  -24.6718  -31.0748   22.1004 N   0  0  0  0  0  0
  -23.4187  -28.8192   23.3027 O   0  0  0  0  0  0
  -28.3610  -26.6148   20.0555 O   0  0  0  0  0  0
  -26.5602  -34.8919   22.4695 O   0  0  0  0  0  0
  -23.5343  -32.1426   23.7465 O   0  0  0  0  0  0
  -29.0656  -19.1757   21.0678 C   0  0  0  0  0  0
  -31.3733  -17.5802   21.0007 C   0  0  0  0  0  0
  -30.3227  -19.8293   21.0756 C   0  0  0  0  0  0
  -31.4881  -18.9940   21.0349 C   0  0  0  0  0  0
  -30.1106  -16.9434   21.0108 C   0  0  0  0  0  0
  -28.9632  -17.7645   21.0416 C   0  0  0  0  0  0
  -30.3905  -21.3508   21.2178 C   0  0  0  0  0  0
  -28.7483  -23.9734   22.8216 C   0  0  0  0  0  0
  -27.0759  -24.0042   20.9741 C   0  0  0  0  0  0
  -29.5232  -23.5940   20.4446 C   0  0  0  0  0  0
  -28.7217  -25.9466   21.2788 C   0  0  0  0  0  0
  -28.5193  -24.3832   21.3506 C   0  0  0  0  0  0
  -32.7872  -19.5105   21.0329 N   0  0  0  0  0  0
  -29.9140  -15.5188   21.0444 N   0  0  0  0  0  0
  -29.4814  -22.1118   20.5689 N   0  0  0  0  0  0
  -31.2916  -21.8687   21.8835 O   0  0  0  0  0  0
  -27.7397  -17.1829   21.0548 F   0  0  0  0  0  0
  -31.4723  -12.4413   19.1215 H   0  0  0  0  0  0
  -30.3454  -11.3193   19.8305 H   0  0  0  0  0  0
  -29.7402  -11.7742   17.4378 H   0  0  0  0  0  0
  -29.6577  -13.4878   17.7590 H   0  0  0  0  0  0
  -27.8322  -11.3071   18.8234 H   0  0  0  0  0  0
  -27.3663  -12.6310   17.7897 H   0  0  0  0  0  0
  -27.6985  -14.2540   19.5698 H   0  0  0  0  0  0
  -28.6904  -11.9620   21.3372 H   0  0  0  0  0  0
  -28.4626  -13.5960   21.8748 H   0  0  0  0  0  0
  -25.2761   -9.5688   22.4753 H   0  0  0  0  0  0
  -24.0008   -7.4634   22.7468 H   0  0  0  0  0  0
  -21.0841   -8.8768   19.8949 H   0  0  0  0  0  0
  -22.3694  -10.9670   19.6159 H   0  0  0  0  0  0
  -21.1999   -7.6148   23.9722 H   0  0  0  0  0  0
  -21.1481   -6.0522   25.9082 H   0  0  0  0  0  0
  -22.0598   -2.7611   23.2848 H   0  0  0  0  0  0
  -22.4114  -11.9876   22.4778 H   0  0  0  0  0  0
  -21.1124  -13.1248   22.2615 H   0  0  0  0  0  0
  -24.6710  -15.8440   20.5675 H   0  0  0  0  0  0
  -26.3095  -15.6505   20.2181 H   0  0  0  0  0  0
  -26.7111  -32.5524   23.1150 H   0  0  0  0  0  0
  -25.0042  -33.9770   25.0460 H   0  0  0  0  0  0
  -22.6967  -31.3065   21.4062 H   0  0  0  0  0  0
  -23.3745  -35.9654   23.3312 H   0  0  0  0  0  0
  -24.3593  -36.8919   22.2054 H   0  0  0  0  0  0
  -23.7253  -37.6525   23.6648 H   0  0  0  0  0  0
  -26.0562  -31.5815   20.5966 H   0  0  0  0  0  0
  -26.8243  -30.8780   21.9907 H   0  0  0  0  0  0
  -28.1042  -29.0638   21.1979 H   0  0  0  0  0  0
  -26.0708  -25.9875   18.9673 H   0  0  0  0  0  0
  -23.9882  -27.3076   19.0087 H   0  0  0  0  0  0
  -23.7317  -30.5958   19.4030 H   0  0  0  0  0  0
  -22.7445  -29.2434   19.8645 H   0  0  0  0  0  0
  -25.1279  -36.1960   25.0835 H   0  0  0  0  0  0
  -20.9964  -28.3221   24.1434 H   0  0  0  0  0  0
  -20.5680  -26.2259   23.3599 H   0  0  0  0  0  0
  -21.6638  -26.7439   22.1199 H   0  0  0  0  0  0
  -19.6910  -25.6303   21.1230 H   0  0  0  0  0  0
  -19.6700  -27.3207   20.6754 H   0  0  0  0  0  0
  -17.4199  -26.6676   21.4026 H   0  0  0  0  0  0
  -18.0324  -26.0070   22.9020 H   0  0  0  0  0  0
  -19.7937  -30.7264   24.2260 H   0  0  0  0  0  0
  -17.5020  -31.6262   24.5166 H   0  0  0  0  0  0
  -15.5351  -30.2989   23.7661 H   0  0  0  0  0  0
  -15.8670  -28.0844   22.7029 H   0  0  0  0  0  0
  -24.5890  -30.7062   25.7808 H   0  0  0  0  0  0
  -24.8919  -32.2880   26.4906 H   0  0  0  0  0  0
  -25.8066  -30.8884   27.0239 H   0  0  0  0  0  0
  -26.2851  -29.6800   24.1138 H   0  0  0  0  0  0
  -27.4058  -29.7252   25.4557 H   0  0  0  0  0  0
  -27.8689  -30.4364   23.9272 H   0  0  0  0  0  0
  -27.2647  -33.3602   26.2080 H   0  0  0  0  0  0
  -28.3824  -32.6885   25.0299 H   0  0  0  0  0  0
  -28.0717  -31.8428   26.5386 H   0  0  0  0  0  0
  -28.2586  -38.0109   24.7503 H   0  0  0  0  0  0
  -28.1081  -36.2637   24.6288 H   0  0  0  0  0  0
  -27.2303  -37.1449   25.8871 H   0  0  0  0  0  0
  -20.9320  -29.8754   21.6931 H   0  0  0  0  0  0
  -26.0180  -38.2867   24.1410 H   0  0  0  0  0  0
  -28.1557  -19.7550   21.1150 H   0  0  0  0  0  0
  -32.2718  -16.9804   20.9914 H   0  0  0  0  0  0
  -28.5561  -22.9135   22.9894 H   0  0  0  0  0  0
  -28.0935  -24.5229   23.4983 H   0  0  0  0  0  0
  -29.7751  -24.1718   23.1299 H   0  0  0  0  0  0
  -26.8622  -22.9588   21.1982 H   0  0  0  0  0  0
  -26.8984  -24.1433   19.9085 H   0  0  0  0  0  0
  -26.3495  -24.6105   21.5171 H   0  0  0  0  0  0
  -30.5366  -23.9528   20.6307 H   0  0  0  0  0  0
  -29.3258  -23.8408   19.4005 H   0  0  0  0  0  0
  -28.1892  -26.4116   22.1112 H   0  0  0  0  0  0
  -29.7730  -26.1718   21.4627 H   0  0  0  0  0  0
  -33.5445  -18.9037   21.3328 H   0  0  0  0  0  0
  -32.8960  -20.4623   21.3781 H   0  0  0  0  0  0
  -28.9808  -15.2378   21.3052 H   0  0  0  0  0  0
  -28.7788  -21.6286   20.0273 H   0  0  0  0  0  0
  1 25  1  0  0  0
  1 30  2  0  0  0
  1 84  1  0  0  0
  2  3  1  0  0  0
  2 25  1  0  0  0
  2 88  1  0  0  0
  2 89  1  0  0  0
  3  4  1  0  0  0
  3 90  1  0  0  0
  3 91  1  0  0  0
  4  5  1  0  0  0
  4 92  1  0  0  0
  4 93  1  0  0  0
  5  6  1  0  0  0
  5 26  1  0  0  0
  5 94  1  0  0  0
  6 25  1  0  0  0
  6 95  1  0  0  0
  6 96  1  0  0  0
  7  8  2  0  0  0
  7 26  1  0  0  0
  7 29  1  0  0  0
  8  9  1  0  0  0
  8 22  1  0  0  0
  9 10  1  0  0  0
  9 27  2  0  0  0
 10 11  2  0  0  0
 10 15  1  0  0  0
 11 12  1  0  0  0
 11 97  1  0  0  0
 12 13  2  0  0  0
 12 98  1  0  0  0
 13 14  1  0  0  0
 13 31  1  0  0  0
 14 15  2  0  0  0
 14 99  1  0  0  0
 15100  1  0  0  0
 16 17  2  0  0  0
 16 21  1  0  0  0
 16 31  1  0  0  0
 17 18  1  0  0  0
 17101  1  0  0  0
 18 19  2  0  0  0
 18102  1  0  0  0
 19 20  1  0  0  0
 19 24  1  0  0  0
 20 21  2  0  0  0
 20103  1  0  0  0
 21 23  1  0  0  0
 22 28  1  0  0  0
 22 32  2  0  0  0
 26 27  1  0  0  0
 28104  1  0  0  0
 28105  1  0  0  0
 29106  1  0  0  0
 29107  1  0  0  0
 33 34  1  0  0  0
 33 66  1  0  0  0
 33 70  2  0  0  0
 34 36  1  0  0  0
 34 59  1  0  0  0
 34108  1  0  0  0
 35 44  2  0  0  0
 35 45  1  0  0  0
 35 68  1  0  0  0
 36 56  1  0  0  0
 36109  1  0  0  0
 37 39  1  0  0  0
 37 47  1  0  0  0
 37 66  1  0  0  0
 37110  1  0  0  0
 38 43  2  0  0  0
 38 46  1  0  0  0
 38 47  1  0  0  0
 39 64  1  0  0  0
 39 67  2  0  0  0
 40 52  1  0  0  0
 40 53  2  0  0  0
 40 58  1  0  0  0
 41111  1  0  0  0
 41112  1  0  0  0
 41113  1  0  0  0
 41 48  1  0  0  0
 42 43  1  0  0  0
 42 66  1  0  0  0
 42114  1  0  0  0
 42115  1  0  0  0
 43 44  1  0  0  0
 44116  1  0  0  0
 45 46  2  0  0  0
 45117  1  0  0  0
 46118  1  0  0  0
 47119  1  0  0  0
 47120  1  0  0  0
 48 56  1  0  0  0
 48 65  1  0  0  0
 48121  1  0  0  0
 49 50  1  0  0  0
 49 53  1  0  0  0
 49 64  1  0  0  0
 49122  1  0  0  0
 50 51  1  0  0  0
 50123  1  0  0  0
 50124  1  0  0  0
 51 52  1  0  0  0
 51125  1  0  0  0
 51126  1  0  0  0
 52127  1  0  0  0
 52128  1  0  0  0
 53 54  1  0  0  0
 54 55  2  0  0  0
 54129  1  0  0  0
 55 57  1  0  0  0
 55130  1  0  0  0
 56 69  2  0  0  0
 57 58  2  0  0  0
 57131  1  0  0  0
 58132  1  0  0  0
 59 60  1  0  0  0
 59 61  1  0  0  0
 59 62  1  0  0  0
 60133  1  0  0  0
 60134  1  0  0  0
 60135  1  0  0  0
 61136  1  0  0  0
 61137  1  0  0  0
 61138  1  0  0  0
 62139  1  0  0  0
 62140  1  0  0  0
 62141  1  0  0  0
 63 65  1  0  0  0
 63142  1  0  0  0
 63143  1  0  0  0
 63144  1  0  0  0
 64145  1  0  0  0
 65146  1  0  0  0
 68 81  1  0  0  0
 71 73  2  0  0  0
 71 76  1  0  0  0
 71147  1  0  0  0
 72 74  2  0  0  0
 72 75  1  0  0  0
 72148  1  0  0  0
 73 74  1  0  0  0
 73 77  1  0  0  0
 74 83  1  0  0  0
 75 76  2  0  0  0
 75 84  1  0  0  0
 76 87  1  0  0  0
 77 85  1  0  0  0
 77 86  2  0  0  0
 78149  1  0  0  0
 78150  1  0  0  0
 78151  1  0  0  0
 78 82  1  0  0  0
 79 82  1  0  0  0
 79152  1  0  0  0
 79153  1  0  0  0
 79154  1  0  0  0
 80 82  1  0  0  0
 80 85  1  0  0  0
 80155  1  0  0  0
 80156  1  0  0  0
 81 82  1  0  0  0
 81157  1  0  0  0
 81158  1  0  0  0
 83159  1  0  0  0
 83160  1  0  0  0
 84161  1  0  0  0
 85162  1  0  0  0
M  ISO  4   1 100  68 101  81 101  84 100
M  END
> <chiral flag>
0

> <version>
0

> <s_m_source_file>
/data/baiqing/PycharmProjects/Reinvent-master-3.2/result/LINK_invent/BTK/process_docking_weight1_custom_product_contain_oxygen_bond_distance_aromatic_linkinvent_7_9_3/rearranged_h_0075.sdf

> <i_m_source_file_index>
60

> <r_mmod_Potential_Energy-OPLS-2005>
-37.2522621154785

> <r_mmod_Stretch_Energy-OPLS-2005>
48.8816566467285

> <r_mmod_Bend_Energy-OPLS-2005>
117.419921875

> <r_mmod_Torsional_Energy-OPLS-2005>
264.433715820312

> <r_mmod_Improper_Torsional_Energy-OPLS-2005>
8.1124439239502

> <r_mmod_Van_der_Waal_Energy-OPLS-2005>
152.585174560547

> <r_mmod_Electrostatic_Energy-OPLS-2005>
-427.338104248047

> <r_mmod_Solvation_Energy-OPLS-2005>
-218.709503173828

> <b_mmod_Minimization_Converged-OPLS-2005>
0

> <r_mmod_RMS_Derivative-OPLS-2005>
1.04075169563293

$$$$
61
                    3D
 Structure written by MMmdl.
162171  0  0  1  0            999 V2000
  -30.7304  -14.4521   20.5461 C   0  0  0  0  0  0
  -30.4224  -12.2947   19.4141 C   0  0  0  0  0  0
  -29.5008  -12.5176   18.1985 C   0  0  0  0  0  0
  -28.0233  -12.3786   18.6101 C   0  0  0  0  0  0
  -27.6710  -13.2088   19.8738 C   0  0  2  0  0  0
  -28.7161  -12.9981   20.9952 C   0  0  0  0  0  0
  -25.2662  -13.8151   20.5682 C   0  0  0  0  0  0
  -24.1891  -13.0445   20.9146 C   0  0  0  0  0  0
  -24.6426  -11.6901   20.8691 C   0  0  0  0  0  0
  -23.9078  -10.4310   21.0367 C   0  0  0  0  0  0
  -24.3614   -9.4228   21.9169 C   0  0  0  0  0  0
  -23.6274   -8.2268   22.0760 C   0  0  0  0  0  0
  -22.4252   -8.0301   21.3580 C   0  0  0  0  0  0
  -21.9899   -9.0272   20.4678 C   0  0  0  0  0  0
  -22.7232  -10.2135   20.3057 C   0  0  0  0  0  0
  -21.6865   -6.0726   22.5271 C   0  0  0  0  0  0
  -21.4022   -6.5620   23.8199 C   0  0  0  0  0  0
  -21.3664   -5.6779   24.9159 C   0  0  0  0  0  0
  -21.6046   -4.3039   24.7220 C   0  0  0  0  0  0
  -21.8824   -3.8139   23.4334 C   0  0  0  0  0  0
  -21.9203   -4.6957   22.3392 C   0  0  0  0  0  0
  -22.7924  -13.5289   21.1777 C   0  0  0  0  0  0
  -22.1679   -4.2149   21.0966 F   0  0  0  0  0  0
  -21.5626   -3.4529   25.7739 F   0  0  0  0  0  0
  -30.0514  -13.2804   20.4412 N   0  0  0  0  0  0
  -26.3097  -12.9317   20.3350 N   0  0  0  0  0  0
  -25.9361  -11.6478   20.5698 N   0  0  0  0  0  0
  -22.0522  -12.8342   22.0329 N   0  0  0  0  0  0
  -25.4414  -15.1860   20.4115 N   0  0  0  0  0  0
  -31.8732  -14.5923   20.1003 O   0  0  0  0  0  0
  -21.6639   -6.8882   21.4248 O   0  0  0  0  0  0
  -22.3654  -14.5602   20.6613 O   0  0  0  0  0  0
  -24.6138  -31.8706   23.2155 C   0  0  0  0  0  0
  -25.9054  -32.4842   23.8428 C   0  0  1  0  0  0
  -27.2108  -27.4206   20.1104 C   0  0  0  0  0  0
  -25.5895  -33.8643   24.2364 N   0  0  0  0  0  0
  -23.3991  -30.4992   21.5558 C   0  0  2  0  0  0
  -24.8408  -28.9750   20.1153 C   0  0  0  0  0  0
  -22.7408  -29.4662   22.4987 C   0  0  0  0  0  0
  -18.0273  -28.1402   22.8501 C   0  0  0  0  0  0
  -24.1461  -36.7304   23.2631 C   0  0  0  0  0  0
  -25.9290  -30.8354   21.3709 C   0  0  0  0  0  0
  -26.0025  -29.4687   20.7205 C   0  0  0  0  0  0
  -27.1870  -28.6956   20.7241 C   0  0  0  0  0  0
  -26.0240  -26.9527   19.4899 C   0  0  0  0  0  0
  -24.8451  -27.7156   19.4998 C   0  0  0  0  0  0
  -23.6091  -29.8469   20.1636 C   0  0  0  0  0  0
  -25.4083  -36.3118   24.0346 C   0  0  1  0  0  0
  -20.5855  -28.3681   23.1331 C   0  0  2  0  0  0
  -20.6764  -26.9429   22.5420 C   0  0  0  0  0  0
  -19.5731  -26.6418   21.5213 C   0  0  0  0  0  0
  -18.1907  -26.7953   22.1626 C   0  0  0  0  0  0
  -19.1520  -28.8859   23.2906 C   0  0  0  0  0  0
  -18.9459  -30.1460   23.8925 C   0  0  0  0  0  0
  -17.6462  -30.6610   24.0570 C   0  0  0  0  0  0
  -25.9023  -34.9481   23.5152 C   0  0  0  0  0  0
  -16.5349  -29.9123   23.6315 C   0  0  0  0  0  0
  -16.7260  -28.6526   23.0358 C   0  0  0  0  0  0
  -26.4483  -31.6608   25.0739 C   0  0  0  0  0  0
  -25.3760  -31.3718   26.1498 C   0  0  0  0  0  0
  -27.0300  -30.3053   24.6096 C   0  0  0  0  0  0
  -27.6094  -32.4288   25.7471 C   0  0  0  0  0  0
  -27.5589  -37.1770   24.8444 C   0  0  0  0  0  0
  -21.4132  -29.3056   22.3747 N   0  0  0  0  0  0
  -26.4262  -37.3815   23.9446 N   0  0  0  0  0  0
  -24.6656  -31.0817   22.1063 N   0  0  0  0  0  0
  -23.4186  -28.8171   23.3002 O   0  0  0  0  0  0
  -28.3720  -26.6678   20.1489 O   0  0  0  0  0  0
  -26.5582  -34.8936   22.4712 O   0  0  0  0  0  0
  -23.5332  -32.1463   23.7557 O   0  0  0  0  0  0
  -28.8627  -19.0122   20.5663 C   0  0  0  0  0  0
  -30.8490  -18.6898   19.2004 C   0  0  0  0  0  0
  -28.9888  -17.6879   21.0507 C   0  0  0  0  0  0
  -30.9857  -17.3798   19.7002 C   0  0  0  0  0  0
  -29.7795  -19.5124   19.6142 C   0  0  0  0  0  0
  -30.0352  -16.8430   20.6089 C   0  0  0  0  0  0
  -29.5266  -23.2964   18.8549 C   0  0  0  0  0  0
  -29.5695  -20.7920   18.9158 C   0  0  0  0  0  0
  -29.6803  -23.7461   21.2157 C   0  0  0  0  0  0
  -29.9191  -22.2479   20.9390 C   0  0  0  0  0  0
  -29.5768  -24.4669   19.8497 C   0  0  1  0  0  0
  -30.8152  -25.3492   19.5777 C   0  0  0  0  0  0
  -28.2850  -25.3139   19.6745 C   0  0  0  0  0  0
  -29.6406  -22.0201   19.5114 N   0  0  0  0  0  0
  -30.0353  -15.4822   21.0589 N   0  0  0  0  0  0
  -29.3034  -20.6744   17.6116 N   0  3  0  0  0  0
  -29.3891  -23.4345   17.6325 O   0  0  0  0  0  0
  -31.4706  -12.3662   19.1126 H   0  0  0  0  0  0
  -30.2944  -11.2875   19.8070 H   0  0  0  0  0  0
  -29.7337  -11.8005   17.4106 H   0  0  0  0  0  0
  -29.6795  -13.5056   17.7691 H   0  0  0  0  0  0
  -27.8313  -11.3217   18.7960 H   0  0  0  0  0  0
  -27.3772  -12.6670   17.7801 H   0  0  0  0  0  0
  -27.7186  -14.2559   19.5735 H   0  0  0  0  0  0
  -28.6909  -11.9710   21.3594 H   0  0  0  0  0  0
  -28.4865  -13.6216   21.8605 H   0  0  0  0  0  0
  -25.2748   -9.5708   22.4755 H   0  0  0  0  0  0
  -24.0008   -7.4661   22.7469 H   0  0  0  0  0  0
  -21.0830   -8.8776   19.8981 H   0  0  0  0  0  0
  -22.3680  -10.9669   19.6169 H   0  0  0  0  0  0
  -21.2014   -7.6133   23.9693 H   0  0  0  0  0  0
  -21.1475   -6.0513   25.9061 H   0  0  0  0  0  0
  -22.0599   -2.7603   23.2831 H   0  0  0  0  0  0
  -22.4061  -12.0033   22.4809 H   0  0  0  0  0  0
  -21.1139  -13.1440   22.2429 H   0  0  0  0  0  0
  -24.6752  -15.8429   20.5153 H   0  0  0  0  0  0
  -26.2925  -15.6213   20.0820 H   0  0  0  0  0  0
  -26.7117  -32.5558   23.1186 H   0  0  0  0  0  0
  -25.0014  -33.9814   25.0479 H   0  0  0  0  0  0
  -22.6853  -31.3148   21.4247 H   0  0  0  0  0  0
  -23.3760  -35.9593   23.3248 H   0  0  0  0  0  0
  -24.3565  -36.8984   22.2060 H   0  0  0  0  0  0
  -23.7172  -37.6474   23.6681 H   0  0  0  0  0  0
  -26.0392  -31.6013   20.6013 H   0  0  0  0  0  0
  -26.8173  -30.8894   21.9873 H   0  0  0  0  0  0
  -28.0769  -29.0657   21.2137 H   0  0  0  0  0  0
  -25.9661  -25.9961   18.9945 H   0  0  0  0  0  0
  -23.9501  -27.3335   19.0293 H   0  0  0  0  0  0
  -23.7366  -30.6304   19.4156 H   0  0  0  0  0  0
  -22.7300  -29.2808   19.8512 H   0  0  0  0  0  0
  -25.1234  -36.1973   25.0830 H   0  0  0  0  0  0
  -20.9933  -28.3266   24.1459 H   0  0  0  0  0  0
  -20.5687  -26.2289   23.3601 H   0  0  0  0  0  0
  -21.6632  -26.7487   22.1205 H   0  0  0  0  0  0
  -19.6879  -25.6328   21.1247 H   0  0  0  0  0  0
  -19.6661  -27.3230   20.6738 H   0  0  0  0  0  0
  -17.4173  -26.6727   21.4031 H   0  0  0  0  0  0
  -18.0294  -26.0091   22.9012 H   0  0  0  0  0  0
  -19.7933  -30.7255   24.2327 H   0  0  0  0  0  0
  -17.5026  -31.6296   24.5162 H   0  0  0  0  0  0
  -15.5355  -30.3039   23.7599 H   0  0  0  0  0  0
  -15.8665  -28.0831   22.7088 H   0  0  0  0  0  0
  -24.5885  -30.7124   25.7831 H   0  0  0  0  0  0
  -24.9004  -32.2878   26.5011 H   0  0  0  0  0  0
  -25.8113  -30.8815   27.0213 H   0  0  0  0  0  0
  -26.2823  -29.6821   24.1180 H   0  0  0  0  0  0
  -27.4118  -29.7295   25.4537 H   0  0  0  0  0  0
  -27.8640  -30.4376   23.9201 H   0  0  0  0  0  0
  -27.2766  -33.3582   26.2098 H   0  0  0  0  0  0
  -28.3870  -32.6852   25.0262 H   0  0  0  0  0  0
  -28.0794  -31.8373   26.5341 H   0  0  0  0  0  0
  -28.2530  -38.0143   24.7644 H   0  0  0  0  0  0
  -28.1154  -36.2706   24.6032 H   0  0  0  0  0  0
  -27.2337  -37.1156   25.8843 H   0  0  0  0  0  0
  -20.9285  -29.8837   21.7020 H   0  0  0  0  0  0
  -26.0149  -38.2859   24.1572 H   0  0  0  0  0  0
  -28.0173  -19.6099   20.8767 H   0  0  0  0  0  0
  -31.5531  -19.0484   18.4611 H   0  0  0  0  0  0
  -28.2423  -17.3107   21.7354 H   0  0  0  0  0  0
  -31.8180  -16.8026   19.3290 H   0  0  0  0  0  0
  -30.4953  -24.1478   21.8196 H   0  0  0  0  0  0
  -28.7754  -23.8732   21.8096 H   0  0  0  0  0  0
  -29.2844  -21.6356   21.5798 H   0  0  0  0  0  0
  -30.9540  -21.9743   21.1515 H   0  0  0  0  0  0
  -31.7029  -24.7591   19.3499 H   0  0  0  0  0  0
  -31.0489  -25.9714   20.4434 H   0  0  0  0  0  0
  -30.6406  -26.0238   18.7384 H   0  0  0  0  0  0
  -27.4598  -24.7902   20.1643 H   0  0  0  0  0  0
  -28.0346  -25.3751   18.6125 H   0  0  0  0  0  0
  -29.2140  -15.2018   21.5709 H   0  0  0  0  0  0
  -29.1562  -19.7640   17.2025 H   0  0  0  0  0  0
  -29.1675  -21.5106   17.0574 H   0  0  0  0  0  0
  1 25  1  0  0  0
  1 30  2  0  0  0
  1 85  1  0  0  0
  2  3  1  0  0  0
  2 25  1  0  0  0
  2 88  1  0  0  0
  2 89  1  0  0  0
  3  4  1  0  0  0
  3 90  1  0  0  0
  3 91  1  0  0  0
  4  5  1  0  0  0
  4 92  1  0  0  0
  4 93  1  0  0  0
  5  6  1  0  0  0
  5 26  1  0  0  0
  5 94  1  0  0  0
  6 25  1  0  0  0
  6 95  1  0  0  0
  6 96  1  0  0  0
  7  8  2  0  0  0
  7 26  1  0  0  0
  7 29  1  0  0  0
  8  9  1  0  0  0
  8 22  1  0  0  0
  9 10  1  0  0  0
  9 27  2  0  0  0
 10 11  2  0  0  0
 10 15  1  0  0  0
 11 12  1  0  0  0
 11 97  1  0  0  0
 12 13  2  0  0  0
 12 98  1  0  0  0
 13 14  1  0  0  0
 13 31  1  0  0  0
 14 15  2  0  0  0
 14 99  1  0  0  0
 15100  1  0  0  0
 16 17  2  0  0  0
 16 21  1  0  0  0
 16 31  1  0  0  0
 17 18  1  0  0  0
 17101  1  0  0  0
 18 19  2  0  0  0
 18102  1  0  0  0
 19 20  1  0  0  0
 19 24  1  0  0  0
 20 21  2  0  0  0
 20103  1  0  0  0
 21 23  1  0  0  0
 22 28  1  0  0  0
 22 32  2  0  0  0
 26 27  1  0  0  0
 28104  1  0  0  0
 28105  1  0  0  0
 29106  1  0  0  0
 29107  1  0  0  0
 33 34  1  0  0  0
 33 66  1  0  0  0
 33 70  2  0  0  0
 34 36  1  0  0  0
 34 59  1  0  0  0
 34108  1  0  0  0
 35 44  2  0  0  0
 35 45  1  0  0  0
 35 68  1  0  0  0
 36 56  1  0  0  0
 36109  1  0  0  0
 37 39  1  0  0  0
 37 47  1  0  0  0
 37 66  1  0  0  0
 37110  1  0  0  0
 38 43  2  0  0  0
 38 46  1  0  0  0
 38 47  1  0  0  0
 39 64  1  0  0  0
 39 67  2  0  0  0
 40 52  1  0  0  0
 40 53  2  0  0  0
 40 58  1  0  0  0
 41111  1  0  0  0
 41112  1  0  0  0
 41113  1  0  0  0
 41 48  1  0  0  0
 42 43  1  0  0  0
 42 66  1  0  0  0
 42114  1  0  0  0
 42115  1  0  0  0
 43 44  1  0  0  0
 44116  1  0  0  0
 45 46  2  0  0  0
 45117  1  0  0  0
 46118  1  0  0  0
 47119  1  0  0  0
 47120  1  0  0  0
 48 56  1  0  0  0
 48 65  1  0  0  0
 48121  1  0  0  0
 49 50  1  0  0  0
 49 53  1  0  0  0
 49 64  1  0  0  0
 49122  1  0  0  0
 50 51  1  0  0  0
 50123  1  0  0  0
 50124  1  0  0  0
 51 52  1  0  0  0
 51125  1  0  0  0
 51126  1  0  0  0
 52127  1  0  0  0
 52128  1  0  0  0
 53 54  1  0  0  0
 54 55  2  0  0  0
 54129  1  0  0  0
 55 57  1  0  0  0
 55130  1  0  0  0
 56 69  2  0  0  0
 57 58  2  0  0  0
 57131  1  0  0  0
 58132  1  0  0  0
 59 60  1  0  0  0
 59 61  1  0  0  0
 59 62  1  0  0  0
 60133  1  0  0  0
 60134  1  0  0  0
 60135  1  0  0  0
 61136  1  0  0  0
 61137  1  0  0  0
 61138  1  0  0  0
 62139  1  0  0  0
 62140  1  0  0  0
 62141  1  0  0  0
 63 65  1  0  0  0
 63142  1  0  0  0
 63143  1  0  0  0
 63144  1  0  0  0
 64145  1  0  0  0
 65146  1  0  0  0
 68 83  1  0  0  0
 71 73  2  0  0  0
 71 75  1  0  0  0
 71147  1  0  0  0
 72 74  1  0  0  0
 72 75  2  0  0  0
 72148  1  0  0  0
 73 76  1  0  0  0
 73149  1  0  0  0
 74 76  2  0  0  0
 74150  1  0  0  0
 75 78  1  0  0  0
 76 85  1  0  0  0
 77 81  1  0  0  0
 77 84  1  0  0  0
 77 87  2  0  0  0
 78 84  1  0  0  0
 78 86  2  0  0  0
 79 80  1  0  0  0
 79 81  1  0  0  0
 79151  1  0  0  0
 79152  1  0  0  0
 80 84  1  0  0  0
 80153  1  0  0  0
 80154  1  0  0  0
 81 82  1  0  0  0
 81 83  1  0  0  0
 82155  1  0  0  0
 82156  1  0  0  0
 82157  1  0  0  0
 83158  1  0  0  0
 83159  1  0  0  0
 85160  1  0  0  0
 86161  1  0  0  0
 86162  1  0  0  0
M  CHG  1  86   1
M  ISO  4   1 100  68 101  83 101  85 100
M  END
> <chiral flag>
0

> <version>
0

> <s_m_source_file>
/data/baiqing/PycharmProjects/Reinvent-master-3.2/result/LINK_invent/BTK/process_docking_weight1_custom_product_contain_oxygen_bond_distance_aromatic_linkinvent_7_9_3/rearranged_h_0075.sdf

> <i_m_source_file_index>
61

> <r_mmod_Potential_Energy-OPLS-2005>
-148.192001342773

> <r_mmod_Stretch_Energy-OPLS-2005>
39.614917755127

> <r_mmod_Bend_Energy-OPLS-2005>
128.982788085938

> <r_mmod_Torsional_Energy-OPLS-2005>
278.824493408203

> <r_mmod_Improper_Torsional_Energy-OPLS-2005>
5.19197130203247

> <r_mmod_Van_der_Waal_Energy-OPLS-2005>
179.149063110352

> <r_mmod_Electrostatic_Energy-OPLS-2005>
-390.244476318359

> <r_mmod_Solvation_Energy-OPLS-2005>
-405.625915527344

> <b_mmod_Minimization_Converged-OPLS-2005>
0

> <r_mmod_RMS_Derivative-OPLS-2005>
3.92739272117615

$$$$
62
                    3D
 Structure written by MMmdl.
162171  0  0  1  0            999 V2000
  -30.7693  -14.3036   20.7112 C   0  0  0  0  0  0
  -30.4080  -12.2583   19.3875 C   0  0  0  0  0  0
  -29.4824  -12.5319   18.1887 C   0  0  0  0  0  0
  -28.0034  -12.3914   18.5978 C   0  0  0  0  0  0
  -27.6668  -13.1960   19.8809 C   0  0  2  0  0  0
  -28.6961  -12.8968   20.9925 C   0  0  0  0  0  0
  -25.2590  -13.8148   20.5642 C   0  0  0  0  0  0
  -24.1834  -13.0444   20.9164 C   0  0  0  0  0  0
  -24.6365  -11.6908   20.8705 C   0  0  0  0  0  0
  -23.9029  -10.4298   21.0375 C   0  0  0  0  0  0
  -24.3597   -9.4228   21.9160 C   0  0  0  0  0  0
  -23.6286   -8.2256   22.0734 C   0  0  0  0  0  0
  -22.4263   -8.0281   21.3540 C   0  0  0  0  0  0
  -21.9887   -9.0246   20.4640 C   0  0  0  0  0  0
  -22.7195  -10.2135   20.3034 C   0  0  0  0  0  0
  -21.6858   -6.0737   22.5290 C   0  0  0  0  0  0
  -21.4011   -6.5634   23.8224 C   0  0  0  0  0  0
  -21.3655   -5.6781   24.9183 C   0  0  0  0  0  0
  -21.6048   -4.3050   24.7231 C   0  0  0  0  0  0
  -21.8815   -3.8147   23.4350 C   0  0  0  0  0  0
  -21.9192   -4.6967   22.3409 C   0  0  0  0  0  0
  -22.7863  -13.5256   21.1864 C   0  0  0  0  0  0
  -22.1666   -4.2150   21.0991 F   0  0  0  0  0  0
  -21.5627   -3.4533   25.7746 F   0  0  0  0  0  0
  -30.0474  -13.1811   20.4723 N   0  0  0  0  0  0
  -26.3026  -12.9299   20.3355 N   0  0  0  0  0  0
  -25.9284  -11.6465   20.5714 N   0  0  0  0  0  0
  -22.0506  -12.8250   22.0416 N   0  0  0  0  0  0
  -25.4337  -15.1859   20.4046 N   0  0  0  0  0  0
  -31.7690  -14.6141   20.0536 O   0  0  0  0  0  0
  -21.6633   -6.8881   21.4245 O   0  0  0  0  0  0
  -22.3556  -14.5571   20.6725 O   0  0  0  0  0  0
  -24.6087  -31.8724   23.2126 C   0  0  0  0  0  0
  -25.8966  -32.4872   23.8441 C   0  0  1  0  0  0
  -27.2665  -27.4862   20.0914 C   0  0  0  0  0  0
  -25.5827  -33.8664   24.2357 N   0  0  0  0  0  0
  -23.3950  -30.4931   21.5502 C   0  0  2  0  0  0
  -24.8474  -28.9562   20.1198 C   0  0  0  0  0  0
  -22.7349  -29.4695   22.5006 C   0  0  0  0  0  0
  -18.0271  -28.1392   22.8515 C   0  0  0  0  0  0
  -24.1462  -36.7324   23.2641 C   0  0  0  0  0  0
  -25.9193  -30.8485   21.3611 C   0  0  0  0  0  0
  -25.9979  -29.4835   20.7154 C   0  0  0  0  0  0
  -27.2010  -28.7521   20.7053 C   0  0  0  0  0  0
  -26.0952  -26.9574   19.4929 C   0  0  0  0  0  0
  -24.8888  -27.6878   19.5121 C   0  0  0  0  0  0
  -23.6034  -29.8140   20.1673 C   0  0  0  0  0  0
  -25.4087  -36.3154   24.0369 C   0  0  1  0  0  0
  -20.5869  -28.3667   23.1358 C   0  0  2  0  0  0
  -20.6762  -26.9415   22.5459 C   0  0  0  0  0  0
  -19.5737  -26.6386   21.5249 C   0  0  0  0  0  0
  -18.1910  -26.7936   22.1654 C   0  0  0  0  0  0
  -19.1518  -28.8845   23.2943 C   0  0  0  0  0  0
  -18.9449  -30.1459   23.8943 C   0  0  0  0  0  0
  -17.6448  -30.6593   24.0590 C   0  0  0  0  0  0
  -25.9020  -34.9505   23.5168 C   0  0  0  0  0  0
  -16.5344  -29.9103   23.6341 C   0  0  0  0  0  0
  -16.7271  -28.6528   23.0370 C   0  0  0  0  0  0
  -26.4401  -31.6650   25.0746 C   0  0  0  0  0  0
  -25.3643  -31.3797   26.1485 C   0  0  0  0  0  0
  -27.0204  -30.3085   24.6112 C   0  0  0  0  0  0
  -27.6010  -32.4354   25.7462 C   0  0  0  0  0  0
  -27.5608  -37.1822   24.8458 C   0  0  0  0  0  0
  -21.4094  -29.3027   22.3724 N   0  0  0  0  0  0
  -26.4283  -37.3840   23.9431 N   0  0  0  0  0  0
  -24.6592  -31.0853   22.1023 N   0  0  0  0  0  0
  -23.4121  -28.8223   23.3057 O   0  0  0  0  0  0
  -28.5059  -26.8847   20.0842 O   0  0  0  0  0  0
  -26.5598  -34.8945   22.4732 O   0  0  0  0  0  0
  -23.5296  -32.1441   23.7567 O   0  0  0  0  0  0
  -32.1595  -18.2774   21.9101 C   0  0  0  0  0  0
  -29.7547  -18.6609   22.0705 C   0  0  0  0  0  0
  -31.9356  -16.8906   21.9231 C   0  0  0  0  0  0
  -29.5270  -17.2739   22.0732 C   0  0  0  0  0  0
  -31.0661  -19.1663   21.9429 C   0  0  0  0  0  0
  -30.6157  -16.3899   21.9364 C   0  0  0  0  0  0
  -28.7009  -25.5559   19.8296 C   0  0  0  0  0  0
  -29.8064  -24.9104   20.2567 C   0  0  0  0  0  0
  -29.9651  -23.5080   19.8898 C   0  0  0  0  0  0
  -30.7661  -21.5301   22.8998 C   0  0  0  0  0  0
  -30.7866  -22.9104   22.2450 C   0  0  0  0  0  0
  -30.6719  -21.2514   20.5336 C   0  0  0  0  0  0
  -31.3115  -20.6537   21.7860 C   0  0  2  0  0  0
  -30.4992  -22.6756   20.8192 N   0  0  0  0  0  0
  -30.3504  -15.0163   21.7674 N   0  0  0  0  0  0
  -30.8342  -25.6697   21.0191 N   0  3  0  0  0  0
  -29.6352  -23.0795   18.7768 O   0  0  0  0  0  0
  -31.4536  -12.3474   19.0878 H   0  0  0  0  0  0
  -30.2896  -11.2300   19.7301 H   0  0  0  0  0  0
  -29.7120  -11.8502   17.3683 H   0  0  0  0  0  0
  -29.6632  -13.5389   17.8096 H   0  0  0  0  0  0
  -27.7967  -11.3323   18.7580 H   0  0  0  0  0  0
  -27.3551  -12.7064   17.7792 H   0  0  0  0  0  0
  -27.7372  -14.2551   19.6320 H   0  0  0  0  0  0
  -28.6432  -11.8432   21.2702 H   0  0  0  0  0  0
  -28.4427  -13.4401   21.9038 H   0  0  0  0  0  0
  -25.2741   -9.5718   22.4734 H   0  0  0  0  0  0
  -24.0012   -7.4638   22.7439 H   0  0  0  0  0  0
  -21.0823   -8.8736   19.8955 H   0  0  0  0  0  0
  -22.3621  -10.9663   19.6144 H   0  0  0  0  0  0
  -21.1995   -7.6140   23.9729 H   0  0  0  0  0  0
  -21.1482   -6.0513   25.9089 H   0  0  0  0  0  0
  -22.0595   -2.7606   23.2846 H   0  0  0  0  0  0
  -22.4106  -11.9914   22.4815 H   0  0  0  0  0  0
  -21.1122  -13.1284   22.2624 H   0  0  0  0  0  0
  -24.6663  -15.8421   20.5025 H   0  0  0  0  0  0
  -26.2868  -15.6164   20.0699 H   0  0  0  0  0  0
  -26.7051  -32.5614   23.1242 H   0  0  0  0  0  0
  -24.9944  -33.9867   25.0483 H   0  0  0  0  0  0
  -22.6831  -31.3123   21.4086 H   0  0  0  0  0  0
  -23.3758  -35.9631   23.3283 H   0  0  0  0  0  0
  -24.3545  -36.8914   22.2058 H   0  0  0  0  0  0
  -23.7180  -37.6519   23.6629 H   0  0  0  0  0  0
  -26.0284  -31.6109   20.5905 H   0  0  0  0  0  0
  -26.8101  -30.9072   21.9758 H   0  0  0  0  0  0
  -28.0895  -29.1677   21.1606 H   0  0  0  0  0  0
  -26.0983  -26.0021   18.9928 H   0  0  0  0  0  0
  -24.0028  -27.2771   19.0449 H   0  0  0  0  0  0
  -23.6994  -30.5797   19.3948 H   0  0  0  0  0  0
  -22.7342  -29.2156   19.8854 H   0  0  0  0  0  0
  -25.1279  -36.2033   25.0879 H   0  0  0  0  0  0
  -21.0047  -28.3242   24.1447 H   0  0  0  0  0  0
  -20.5661  -26.2292   23.3643 H   0  0  0  0  0  0
  -21.6648  -26.7436   22.1286 H   0  0  0  0  0  0
  -19.6882  -25.6295   21.1274 H   0  0  0  0  0  0
  -19.6691  -27.3228   20.6793 H   0  0  0  0  0  0
  -17.4231  -26.6755   21.4000 H   0  0  0  0  0  0
  -18.0268  -26.0060   22.9022 H   0  0  0  0  0  0
  -19.7906  -30.7287   24.2320 H   0  0  0  0  0  0
  -17.4994  -31.6294   24.5188 H   0  0  0  0  0  0
  -15.5358  -30.3039   23.7606 H   0  0  0  0  0  0
  -15.8668  -28.0854   22.7066 H   0  0  0  0  0  0
  -24.5847  -30.7087   25.7855 H   0  0  0  0  0  0
  -24.8793  -32.2965   26.4850 H   0  0  0  0  0  0
  -25.7987  -30.9056   27.0279 H   0  0  0  0  0  0
  -26.2765  -29.6910   24.1070 H   0  0  0  0  0  0
  -27.3829  -29.7284   25.4599 H   0  0  0  0  0  0
  -27.8652  -30.4390   23.9345 H   0  0  0  0  0  0
  -27.2676  -33.3669   26.2044 H   0  0  0  0  0  0
  -28.3799  -32.6874   25.0253 H   0  0  0  0  0  0
  -28.0673  -31.8441   26.5348 H   0  0  0  0  0  0
  -28.2666  -38.0109   24.7596 H   0  0  0  0  0  0
  -28.1089  -36.2660   24.6180 H   0  0  0  0  0  0
  -27.2337  -37.1366   25.8866 H   0  0  0  0  0  0
  -20.9241  -29.8691   21.6927 H   0  0  0  0  0  0
  -26.0178  -38.2915   24.1452 H   0  0  0  0  0  0
  -33.1719  -18.6480   21.8321 H   0  0  0  0  0  0
  -28.9061  -19.3311   22.1173 H   0  0  0  0  0  0
  -32.7807  -16.2179   21.8635 H   0  0  0  0  0  0
  -28.5120  -16.9008   22.1151 H   0  0  0  0  0  0
  -27.9245  -25.0861   19.2467 H   0  0  0  0  0  0
  -29.7361  -21.2627   23.1328 H   0  0  0  0  0  0
  -31.3406  -21.4596   23.8220 H   0  0  0  0  0  0
  -31.7948  -23.3180   22.3364 H   0  0  0  0  0  0
  -30.0853  -23.5835   22.7374 H   0  0  0  0  0  0
  -29.6869  -20.8186   20.3425 H   0  0  0  0  0  0
  -31.2827  -21.0688   19.6489 H   0  0  0  0  0  0
  -32.3894  -20.8281   21.7185 H   0  0  0  0  0  0
  -29.5263  -14.6546   22.2207 H   0  0  0  0  0  0
  -31.0642  -26.5202   20.5410 H   0  0  0  0  0  0
  -31.6823  -25.1401   21.1110 H   0  0  0  0  0  0
  -30.5086  -25.9145   21.9364 H   0  0  0  0  0  0
  1 25  1  0  0  0
  1 30  2  0  0  0
  1 85  1  0  0  0
  2  3  1  0  0  0
  2 25  1  0  0  0
  2 88  1  0  0  0
  2 89  1  0  0  0
  3  4  1  0  0  0
  3 90  1  0  0  0
  3 91  1  0  0  0
  4  5  1  0  0  0
  4 92  1  0  0  0
  4 93  1  0  0  0
  5  6  1  0  0  0
  5 26  1  0  0  0
  5 94  1  0  0  0
  6 25  1  0  0  0
  6 95  1  0  0  0
  6 96  1  0  0  0
  7  8  2  0  0  0
  7 26  1  0  0  0
  7 29  1  0  0  0
  8  9  1  0  0  0
  8 22  1  0  0  0
  9 10  1  0  0  0
  9 27  2  0  0  0
 10 11  2  0  0  0
 10 15  1  0  0  0
 11 12  1  0  0  0
 11 97  1  0  0  0
 12 13  2  0  0  0
 12 98  1  0  0  0
 13 14  1  0  0  0
 13 31  1  0  0  0
 14 15  2  0  0  0
 14 99  1  0  0  0
 15100  1  0  0  0
 16 17  2  0  0  0
 16 21  1  0  0  0
 16 31  1  0  0  0
 17 18  1  0  0  0
 17101  1  0  0  0
 18 19  2  0  0  0
 18102  1  0  0  0
 19 20  1  0  0  0
 19 24  1  0  0  0
 20 21  2  0  0  0
 20103  1  0  0  0
 21 23  1  0  0  0
 22 28  1  0  0  0
 22 32  2  0  0  0
 26 27  1  0  0  0
 28104  1  0  0  0
 28105  1  0  0  0
 29106  1  0  0  0
 29107  1  0  0  0
 33 34  1  0  0  0
 33 66  1  0  0  0
 33 70  2  0  0  0
 34 36  1  0  0  0
 34 59  1  0  0  0
 34108  1  0  0  0
 35 44  2  0  0  0
 35 45  1  0  0  0
 35 68  1  0  0  0
 36 56  1  0  0  0
 36109  1  0  0  0
 37 39  1  0  0  0
 37 47  1  0  0  0
 37 66  1  0  0  0
 37110  1  0  0  0
 38 43  2  0  0  0
 38 46  1  0  0  0
 38 47  1  0  0  0
 39 64  1  0  0  0
 39 67  2  0  0  0
 40 52  1  0  0  0
 40 53  2  0  0  0
 40 58  1  0  0  0
 41111  1  0  0  0
 41112  1  0  0  0
 41113  1  0  0  0
 41 48  1  0  0  0
 42 43  1  0  0  0
 42 66  1  0  0  0
 42114  1  0  0  0
 42115  1  0  0  0
 43 44  1  0  0  0
 44116  1  0  0  0
 45 46  2  0  0  0
 45117  1  0  0  0
 46118  1  0  0  0
 47119  1  0  0  0
 47120  1  0  0  0
 48 56  1  0  0  0
 48 65  1  0  0  0
 48121  1  0  0  0
 49 50  1  0  0  0
 49 53  1  0  0  0
 49 64  1  0  0  0
 49122  1  0  0  0
 50 51  1  0  0  0
 50123  1  0  0  0
 50124  1  0  0  0
 51 52  1  0  0  0
 51125  1  0  0  0
 51126  1  0  0  0
 52127  1  0  0  0
 52128  1  0  0  0
 53 54  1  0  0  0
 54 55  2  0  0  0
 54129  1  0  0  0
 55 57  1  0  0  0
 55130  1  0  0  0
 56 69  2  0  0  0
 57 58  2  0  0  0
 57131  1  0  0  0
 58132  1  0  0  0
 59 60  1  0  0  0
 59 61  1  0  0  0
 59 62  1  0  0  0
 60133  1  0  0  0
 60134  1  0  0  0
 60135  1  0  0  0
 61136  1  0  0  0
 61137  1  0  0  0
 61138  1  0  0  0
 62139  1  0  0  0
 62140  1  0  0  0
 62141  1  0  0  0
 63 65  1  0  0  0
 63142  1  0  0  0
 63143  1  0  0  0
 63144  1  0  0  0
 64145  1  0  0  0
 65146  1  0  0  0
 68 77  1  0  0  0
 71 73  2  0  0  0
 71 75  1  0  0  0
 71147  1  0  0  0
 72 74  1  0  0  0
 72 75  2  0  0  0
 72148  1  0  0  0
 73 76  1  0  0  0
 73149  1  0  0  0
 74 76  2  0  0  0
 74150  1  0  0  0
 75 83  1  0  0  0
 76 85  1  0  0  0
 77 78  2  0  0  0
 77151  1  0  0  0
 78 79  1  0  0  0
 78 86  1  0  0  0
 79 84  1  0  0  0
 79 87  2  0  0  0
 80 81  1  0  0  0
 80 83  1  0  0  0
 80152  1  0  0  0
 80153  1  0  0  0
 81 84  1  0  0  0
 81154  1  0  0  0
 81155  1  0  0  0
 82 83  1  0  0  0
 82 84  1  0  0  0
 82156  1  0  0  0
 82157  1  0  0  0
 83158  1  0  0  0
 85159  1  0  0  0
 86160  1  0  0  0
 86161  1  0  0  0
 86162  1  0  0  0
M  CHG  1  86   1
M  ISO  4   1 100  68 101  77 101  85 100
M  END
> <chiral flag>
0

> <version>
0

> <s_m_source_file>
/data/baiqing/PycharmProjects/Reinvent-master-3.2/result/LINK_invent/BTK/process_docking_weight1_custom_product_contain_oxygen_bond_distance_aromatic_linkinvent_7_9_3/rearranged_h_0075.sdf

> <i_m_source_file_index>
62

> <r_mmod_Potential_Energy-OPLS-2005>
-293.283752441406

> <r_mmod_Stretch_Energy-OPLS-2005>
33.651180267334

> <r_mmod_Bend_Energy-OPLS-2005>
136.180999755859

> <r_mmod_Torsional_Energy-OPLS-2005>
302.930847167969

> <r_mmod_Improper_Torsional_Energy-OPLS-2005>
4.76912307739258

> <r_mmod_Van_der_Waal_Energy-OPLS-2005>
169.348724365234

> <r_mmod_Electrostatic_Energy-OPLS-2005>
-418.881927490234

> <r_mmod_Solvation_Energy-OPLS-2005>
-532.261901855469

> <b_mmod_Minimization_Converged-OPLS-2005>
0

> <r_mmod_RMS_Derivative-OPLS-2005>
4.33725118637085

$$$$
63
                    3D
 Structure written by MMmdl.
166175  0  0  1  0            999 V2000
  -30.6574  -14.5343   20.5535 C   0  0  0  0  0  0
  -30.4309  -12.3379   19.4318 C   0  0  0  0  0  0
  -29.4992  -12.5183   18.2126 C   0  0  0  0  0  0
  -28.0190  -12.3755   18.6198 C   0  0  0  0  0  0
  -27.6608  -13.2113   19.8795 C   0  0  2  0  0  0
  -28.7034  -12.9970   21.0005 C   0  0  0  0  0  0
  -25.2559  -13.8134   20.5671 C   0  0  0  0  0  0
  -24.1841  -13.0417   20.9219 C   0  0  0  0  0  0
  -24.6401  -11.6876   20.8754 C   0  0  0  0  0  0
  -23.9058  -10.4267   21.0398 C   0  0  0  0  0  0
  -24.3611   -9.4182   21.9185 C   0  0  0  0  0  0
  -23.6287   -8.2219   22.0766 C   0  0  0  0  0  0
  -22.4277   -8.0238   21.3541 C   0  0  0  0  0  0
  -21.9895   -9.0217   20.4655 C   0  0  0  0  0  0
  -22.7212  -10.2108   20.3070 C   0  0  0  0  0  0
  -21.6851   -6.0693   22.5278 C   0  0  0  0  0  0
  -21.3982   -6.5613   23.8199 C   0  0  0  0  0  0
  -21.3676   -5.6786   24.9183 C   0  0  0  0  0  0
  -21.6056   -4.3051   24.7242 C   0  0  0  0  0  0
  -21.8812   -3.8115   23.4369 C   0  0  0  0  0  0
  -21.9199   -4.6916   22.3420 C   0  0  0  0  0  0
  -22.7852  -13.5186   21.1863 C   0  0  0  0  0  0
  -22.1698   -4.2099   21.1006 F   0  0  0  0  0  0
  -21.5664   -3.4552   25.7766 F   0  0  0  0  0  0
  -30.0332  -13.3240   20.4522 N   0  0  0  0  0  0
  -26.3024  -12.9331   20.3401 N   0  0  0  0  0  0
  -25.9337  -11.6482   20.5799 N   0  0  0  0  0  0
  -22.0489  -12.8178   22.0400 N   0  0  0  0  0  0
  -25.4213  -15.1846   20.3950 N   0  0  0  0  0  0
  -31.7761  -14.7435   20.0716 O   0  0  0  0  0  0
  -21.6640   -6.8833   21.4237 O   0  0  0  0  0  0
  -22.3516  -14.5483   20.6704 O   0  0  0  0  0  0
  -24.6201  -31.8637   23.2080 C   0  0  0  0  0  0
  -25.9071  -32.4799   23.8386 C   0  0  1  0  0  0
  -27.2295  -27.3735   20.1006 C   0  0  0  0  0  0
  -25.5916  -33.8601   24.2303 N   0  0  0  0  0  0
  -23.4111  -30.4906   21.5483 C   0  0  2  0  0  0
  -24.8556  -28.9556   20.1129 C   0  0  0  0  0  0
  -22.7450  -29.4639   22.4949 C   0  0  0  0  0  0
  -18.0284  -28.1361   22.8484 C   0  0  0  0  0  0
  -24.1485  -36.7311   23.2630 C   0  0  0  0  0  0
  -25.9484  -30.8116   21.3722 C   0  0  0  0  0  0
  -26.0212  -29.4444   20.7146 C   0  0  0  0  0  0
  -27.2058  -28.6620   20.7041 C   0  0  0  0  0  0
  -26.0300  -26.9167   19.4996 C   0  0  0  0  0  0
  -24.8580  -27.6940   19.5039 C   0  0  0  0  0  0
  -23.6229  -29.8301   20.1615 C   0  0  0  0  0  0
  -25.4107  -36.3099   24.0324 C   0  0  1  0  0  0
  -20.5879  -28.3660   23.1283 C   0  0  2  0  0  0
  -20.6766  -26.9391   22.5398 C   0  0  0  0  0  0
  -19.5752  -26.6369   21.5195 C   0  0  0  0  0  0
  -18.1934  -26.7901   22.1621 C   0  0  0  0  0  0
  -19.1534  -28.8838   23.2874 C   0  0  0  0  0  0
  -18.9460  -30.1437   23.8889 C   0  0  0  0  0  0
  -17.6460  -30.6570   24.0559 C   0  0  0  0  0  0
  -25.9051  -34.9466   23.5111 C   0  0  0  0  0  0
  -16.5352  -29.9071   23.6321 C   0  0  0  0  0  0
  -16.7270  -28.6487   23.0350 C   0  0  0  0  0  0
  -26.4478  -31.6594   25.0731 C   0  0  0  0  0  0
  -25.3743  -31.3765   26.1493 C   0  0  0  0  0  0
  -27.0288  -30.3003   24.6164 C   0  0  0  0  0  0
  -27.6052  -32.4314   25.7494 C   0  0  0  0  0  0
  -27.5592  -37.1796   24.8450 C   0  0  0  0  0  0
  -21.4172  -29.3030   22.3693 N   0  0  0  0  0  0
  -26.4287  -37.3791   23.9420 N   0  0  0  0  0  0
  -24.6784  -31.0710   22.0999 N   0  0  0  0  0  0
  -23.4197  -28.8183   23.3020 O   0  0  0  0  0  0
  -28.3932  -26.6032   20.1669 O   0  0  0  0  0  0
  -26.5603  -34.8923   22.4671 O   0  0  0  0  0  0
  -23.5377  -32.1418   23.7432 O   0  0  0  0  0  0
  -30.5004  -19.0745   19.9239 C   0  0  0  0  0  0
  -30.6067  -17.6625   20.0152 C   0  0  0  0  0  0
  -29.1239  -19.1057   21.9039 C   0  0  0  0  0  0
  -29.1732  -17.6831   21.9718 C   0  0  0  0  0  0
  -29.7619  -19.8439   20.8688 C   0  0  0  0  0  0
  -29.9458  -16.9438   21.0392 C   0  0  0  0  0  0
  -30.1169  -23.4673   19.7889 C   0  0  0  0  0  0
  -28.9588  -24.0805   20.1295 C   0  0  0  0  0  0
  -28.0735  -23.3460   21.0259 C   0  0  0  0  0  0
  -30.5465  -22.1218   20.2041 C   0  0  0  0  0  0
  -26.9493  -23.8974   21.5144 C   0  0  0  0  0  0
  -27.2340  -17.0440   23.1400 C   0  0  0  0  0  0
  -28.4262  -21.9120   21.4305 C   0  0  0  0  0  0
  -26.5660  -16.1994   24.2037 C   0  0  0  0  0  0
  -26.2760  -17.9220   22.3480 C   0  0  0  0  0  0
  -28.5511  -25.3848   19.3833 C   0  0  0  0  0  0
  -28.4969  -16.9685   22.9744 N   0  0  0  0  0  0
  -29.6007  -21.3024   20.7648 N   0  0  0  0  0  0
  -29.9269  -15.5048   21.1489 N   0  0  0  0  0  0
  -31.7111  -21.7554   20.0224 O   0  0  0  0  0  0
  -31.4748  -12.4522   19.1351 H   0  0  0  0  0  0
  -30.3444  -11.3261   19.8328 H   0  0  0  0  0  0
  -29.7422  -11.7887   17.4394 H   0  0  0  0  0  0
  -29.6588  -13.4995   17.7632 H   0  0  0  0  0  0
  -27.8263  -11.3188   18.8059 H   0  0  0  0  0  0
  -27.3722  -12.6560   17.7872 H   0  0  0  0  0  0
  -27.7017  -14.2606   19.5871 H   0  0  0  0  0  0
  -28.6891  -11.9592   21.3380 H   0  0  0  0  0  0
  -28.4557  -13.5883   21.8836 H   0  0  0  0  0  0
  -25.2756   -9.5660   22.4758 H   0  0  0  0  0  0
  -23.9994   -7.4625   22.7508 H   0  0  0  0  0  0
  -21.0821   -8.8713   19.8978 H   0  0  0  0  0  0
  -22.3637  -10.9652   19.6201 H   0  0  0  0  0  0
  -21.1917   -7.6121   23.9675 H   0  0  0  0  0  0
  -21.1554   -6.0540   25.9093 H   0  0  0  0  0  0
  -22.0573   -2.7572   23.2898 H   0  0  0  0  0  0
  -22.4088  -11.9860   22.4841 H   0  0  0  0  0  0
  -21.1095  -13.1191   22.2542 H   0  0  0  0  0  0
  -24.6389  -15.8237   20.4648 H   0  0  0  0  0  0
  -26.2540  -15.6144   20.0159 H   0  0  0  0  0  0
  -26.7146  -32.5484   23.1152 H   0  0  0  0  0  0
  -25.0103  -33.9755   25.0470 H   0  0  0  0  0  0
  -22.7022  -31.3088   21.4095 H   0  0  0  0  0  0
  -23.3748  -35.9641   23.3275 H   0  0  0  0  0  0
  -24.3593  -36.8948   22.2054 H   0  0  0  0  0  0
  -23.7232  -37.6507   23.6657 H   0  0  0  0  0  0
  -26.0776  -31.5783   20.6076 H   0  0  0  0  0  0
  -26.8305  -30.8544   22.0001 H   0  0  0  0  0  0
  -28.1030  -29.0367   21.1768 H   0  0  0  0  0  0
  -25.9339  -25.9439   19.0479 H   0  0  0  0  0  0
  -23.9582  -27.3061   19.0461 H   0  0  0  0  0  0
  -23.7402  -30.6089   19.4073 H   0  0  0  0  0  0
  -22.7446  -29.2568   19.8587 H   0  0  0  0  0  0
  -25.1280  -36.1963   25.0814 H   0  0  0  0  0  0
  -20.9954  -28.3226   24.1405 H   0  0  0  0  0  0
  -20.5659  -26.2283   23.3592 H   0  0  0  0  0  0
  -21.6636  -26.7411   22.1209 H   0  0  0  0  0  0
  -19.6915  -25.6281   21.1228 H   0  0  0  0  0  0
  -19.6683  -27.3173   20.6722 H   0  0  0  0  0  0
  -17.4190  -26.6626   21.4032 H   0  0  0  0  0  0
  -18.0353  -26.0030   22.9022 H   0  0  0  0  0  0
  -19.7941  -30.7246   24.2252 H   0  0  0  0  0  0
  -17.5022  -31.6247   24.5167 H   0  0  0  0  0  0
  -15.5355  -30.2984   23.7632 H   0  0  0  0  0  0
  -15.8668  -28.0804   22.7064 H   0  0  0  0  0  0
  -24.5847  -30.7179   25.7855 H   0  0  0  0  0  0
  -24.9020  -32.2958   26.4969 H   0  0  0  0  0  0
  -25.8078  -30.8905   27.0242 H   0  0  0  0  0  0
  -26.2838  -29.6790   24.1171 H   0  0  0  0  0  0
  -27.3965  -29.7229   25.4663 H   0  0  0  0  0  0
  -27.8733  -30.4282   23.9382 H   0  0  0  0  0  0
  -27.2664  -33.3614   26.2078 H   0  0  0  0  0  0
  -28.3864  -32.6875   25.0321 H   0  0  0  0  0  0
  -28.0710  -31.8429   26.5413 H   0  0  0  0  0  0
  -28.2566  -38.0138   24.7546 H   0  0  0  0  0  0
  -28.1126  -36.2665   24.6193 H   0  0  0  0  0  0
  -27.2321  -37.1347   25.8853 H   0  0  0  0  0  0
  -20.9330  -29.8796   21.6950 H   0  0  0  0  0  0
  -26.0169  -38.2859   24.1453 H   0  0  0  0  0  0
  -30.9944  -19.5532   19.0895 H   0  0  0  0  0  0
  -31.1793  -17.1389   19.2634 H   0  0  0  0  0  0
  -28.5620  -19.6277   22.6633 H   0  0  0  0  0  0
  -30.7639  -23.9642   19.0819 H   0  0  0  0  0  0
  -26.6439  -24.9061   21.2827 H   0  0  0  0  0  0
  -26.3051  -23.3427   22.1830 H   0  0  0  0  0  0
  -27.5508  -21.2851   21.2563 H   0  0  0  0  0  0
  -28.6162  -21.9114   22.5049 H   0  0  0  0  0  0
  -25.6614  -15.7343   23.8125 H   0  0  0  0  0  0
  -26.3000  -16.8158   25.0611 H   0  0  0  0  0  0
  -27.2283  -15.4032   24.5443 H   0  0  0  0  0  0
  -25.2587  -17.5349   22.3994 H   0  0  0  0  0  0
  -26.5555  -17.9686   21.2961 H   0  0  0  0  0  0
  -26.2671  -18.9312   22.7575 H   0  0  0  0  0  0
  -27.7164  -25.1222   18.7427 H   0  0  0  0  0  0
  -29.3367  -25.6238   18.6645 H   0  0  0  0  0  0
  -29.1408  -15.1647   21.6804 H   0  0  0  0  0  0
  1 25  1  0  0  0
  1 30  2  0  0  0
  1 89  1  0  0  0
  2  3  1  0  0  0
  2 25  1  0  0  0
  2 91  1  0  0  0
  2 92  1  0  0  0
  3  4  1  0  0  0
  3 93  1  0  0  0
  3 94  1  0  0  0
  4  5  1  0  0  0
  4 95  1  0  0  0
  4 96  1  0  0  0
  5  6  1  0  0  0
  5 26  1  0  0  0
  5 97  1  0  0  0
  6 25  1  0  0  0
  6 98  1  0  0  0
  6 99  1  0  0  0
  7  8  2  0  0  0
  7 26  1  0  0  0
  7 29  1  0  0  0
  8  9  1  0  0  0
  8 22  1  0  0  0
  9 10  1  0  0  0
  9 27  2  0  0  0
 10 11  2  0  0  0
 10 15  1  0  0  0
 11 12  1  0  0  0
 11100  1  0  0  0
 12 13  2  0  0  0
 12101  1  0  0  0
 13 14  1  0  0  0
 13 31  1  0  0  0
 14 15  2  0  0  0
 14102  1  0  0  0
 15103  1  0  0  0
 16 17  2  0  0  0
 16 21  1  0  0  0
 16 31  1  0  0  0
 17 18  1  0  0  0
 17104  1  0  0  0
 18 19  2  0  0  0
 18105  1  0  0  0
 19 20  1  0  0  0
 19 24  1  0  0  0
 20 21  2  0  0  0
 20106  1  0  0  0
 21 23  1  0  0  0
 22 28  1  0  0  0
 22 32  2  0  0  0
 26 27  1  0  0  0
 28107  1  0  0  0
 28108  1  0  0  0
 29109  1  0  0  0
 29110  1  0  0  0
 33 34  1  0  0  0
 33 66  1  0  0  0
 33 70  2  0  0  0
 34 36  1  0  0  0
 34 59  1  0  0  0
 34111  1  0  0  0
 35 44  2  0  0  0
 35 45  1  0  0  0
 35 68  1  0  0  0
 36 56  1  0  0  0
 36112  1  0  0  0
 37 39  1  0  0  0
 37 47  1  0  0  0
 37 66  1  0  0  0
 37113  1  0  0  0
 38 43  2  0  0  0
 38 46  1  0  0  0
 38 47  1  0  0  0
 39 64  1  0  0  0
 39 67  2  0  0  0
 40 52  1  0  0  0
 40 53  2  0  0  0
 40 58  1  0  0  0
 41114  1  0  0  0
 41115  1  0  0  0
 41116  1  0  0  0
 41 48  1  0  0  0
 42 43  1  0  0  0
 42 66  1  0  0  0
 42117  1  0  0  0
 42118  1  0  0  0
 43 44  1  0  0  0
 44119  1  0  0  0
 45 46  2  0  0  0
 45120  1  0  0  0
 46121  1  0  0  0
 47122  1  0  0  0
 47123  1  0  0  0
 48 56  1  0  0  0
 48 65  1  0  0  0
 48124  1  0  0  0
 49 50  1  0  0  0
 49 53  1  0  0  0
 49 64  1  0  0  0
 49125  1  0  0  0
 50 51  1  0  0  0
 50126  1  0  0  0
 50127  1  0  0  0
 51 52  1  0  0  0
 51128  1  0  0  0
 51129  1  0  0  0
 52130  1  0  0  0
 52131  1  0  0  0
 53 54  1  0  0  0
 54 55  2  0  0  0
 54132  1  0  0  0
 55 57  1  0  0  0
 55133  1  0  0  0
 56 69  2  0  0  0
 57 58  2  0  0  0
 57134  1  0  0  0
 58135  1  0  0  0
 59 60  1  0  0  0
 59 61  1  0  0  0
 59 62  1  0  0  0
 60136  1  0  0  0
 60137  1  0  0  0
 60138  1  0  0  0
 61139  1  0  0  0
 61140  1  0  0  0
 61141  1  0  0  0
 62142  1  0  0  0
 62143  1  0  0  0
 62144  1  0  0  0
 63 65  1  0  0  0
 63145  1  0  0  0
 63146  1  0  0  0
 63147  1  0  0  0
 64148  1  0  0  0
 65149  1  0  0  0
 68 86  1  0  0  0
 71 72  2  0  0  0
 71 75  1  0  0  0
 71150  1  0  0  0
 72 76  1  0  0  0
 72151  1  0  0  0
 73 74  1  0  0  0
 73 75  2  0  0  0
 73152  1  0  0  0
 74 76  2  0  0  0
 74 87  1  0  0  0
 75 88  1  0  0  0
 76 89  1  0  0  0
 77 78  2  0  0  0
 77 80  1  0  0  0
 77153  1  0  0  0
 78 79  1  0  0  0
 78 86  1  0  0  0
 79 81  2  0  0  0
 79 83  1  0  0  0
 80 88  1  0  0  0
 80 90  2  0  0  0
 81154  1  0  0  0
 81155  1  0  0  0
 82 84  1  0  0  0
 82 85  1  0  0  0
 82 87  2  0  0  0
 83 88  1  0  0  0
 83156  1  0  0  0
 83157  1  0  0  0
 84158  1  0  0  0
 84159  1  0  0  0
 84160  1  0  0  0
 85161  1  0  0  0
 85162  1  0  0  0
 85163  1  0  0  0
 86164  1  0  0  0
 86165  1  0  0  0
 89166  1  0  0  0
M  ISO  4   1 100  68 101  86 101  89 100
M  END
> <chiral flag>
0

> <version>
0

> <s_m_source_file>
/data/baiqing/PycharmProjects/Reinvent-master-3.2/result/LINK_invent/BTK/process_docking_weight1_custom_product_contain_oxygen_bond_distance_aromatic_linkinvent_7_9_3/rearranged_h_0075.sdf

> <i_m_source_file_index>
63

> <r_mmod_Potential_Energy-OPLS-2005>
16.2653579711914

> <r_mmod_Stretch_Energy-OPLS-2005>
63.554386138916

> <r_mmod_Bend_Energy-OPLS-2005>
158.46484375

> <r_mmod_Torsional_Energy-OPLS-2005>
268.909057617188

> <r_mmod_Improper_Torsional_Energy-OPLS-2005>
4.01447057723999

> <r_mmod_Van_der_Waal_Energy-OPLS-2005>
180.541290283203

> <r_mmod_Electrostatic_Energy-OPLS-2005>
-465.766052246094

> <r_mmod_Solvation_Energy-OPLS-2005>
-217.068176269531

> <b_mmod_Minimization_Converged-OPLS-2005>
0

> <r_mmod_RMS_Derivative-OPLS-2005>
2.88240647315979

$$$$
64
                    3D
 Structure written by MMmdl.
162171  0  0  1  0            999 V2000
  -30.7483  -14.4605   20.4985 C   0  0  0  0  0  0
  -30.4051  -12.2766   19.4500 C   0  0  0  0  0  0
  -29.4951  -12.4823   18.2185 C   0  0  0  0  0  0
  -28.0087  -12.3812   18.6175 C   0  0  0  0  0  0
  -27.6585  -13.2203   19.8769 C   0  0  2  0  0  0
  -28.7028  -13.0177   20.9975 C   0  0  0  0  0  0
  -25.2578  -13.8171   20.5814 C   0  0  0  0  0  0
  -24.1809  -13.0424   20.9189 C   0  0  0  0  0  0
  -24.6391  -11.6899   20.8728 C   0  0  0  0  0  0
  -23.9086  -10.4269   21.0389 C   0  0  0  0  0  0
  -24.3630   -9.4190   21.9177 C   0  0  0  0  0  0
  -23.6288   -8.2240   22.0760 C   0  0  0  0  0  0
  -22.4278   -8.0287   21.3554 C   0  0  0  0  0  0
  -21.9930   -9.0253   20.4651 C   0  0  0  0  0  0
  -22.7263  -10.2126   20.3035 C   0  0  0  0  0  0
  -21.6844   -6.0741   22.5294 C   0  0  0  0  0  0
  -21.4008   -6.5645   23.8228 C   0  0  0  0  0  0
  -21.3667   -5.6807   24.9195 C   0  0  0  0  0  0
  -21.6026   -4.3063   24.7254 C   0  0  0  0  0  0
  -21.8813   -3.8160   23.4380 C   0  0  0  0  0  0
  -21.9191   -4.6967   22.3434 C   0  0  0  0  0  0
  -22.7829  -13.5200   21.1856 C   0  0  0  0  0  0
  -22.1659   -4.2160   21.1005 F   0  0  0  0  0  0
  -21.5643   -3.4541   25.7764 F   0  0  0  0  0  0
  -30.0376  -13.2966   20.4494 N   0  0  0  0  0  0
  -26.3018  -12.9377   20.3432 N   0  0  0  0  0  0
  -25.9326  -11.6519   20.5791 N   0  0  0  0  0  0
  -22.0489  -12.8164   22.0412 N   0  0  0  0  0  0
  -25.4354  -15.1901   20.4448 N   0  0  0  0  0  0
  -31.8914  -14.5654   20.0454 O   0  0  0  0  0  0
  -21.6644   -6.8884   21.4252 O   0  0  0  0  0  0
  -22.3494  -14.5493   20.6703 O   0  0  0  0  0  0
  -24.6139  -31.8688   23.2110 C   0  0  0  0  0  0
  -25.9041  -32.4822   23.8406 C   0  0  1  0  0  0
  -27.2433  -27.4517   20.0990 C   0  0  0  0  0  0
  -25.5912  -33.8615   24.2340 N   0  0  0  0  0  0
  -23.4018  -30.4891   21.5531 C   0  0  2  0  0  0
  -24.8494  -28.9483   20.1267 C   0  0  0  0  0  0
  -22.7391  -29.4666   22.5037 C   0  0  0  0  0  0
  -18.0256  -28.1370   22.8494 C   0  0  0  0  0  0
  -24.1480  -36.7305   23.2641 C   0  0  0  0  0  0
  -25.9262  -30.8349   21.3636 C   0  0  0  0  0  0
  -26.0070  -29.4648   20.7229 C   0  0  0  0  0  0
  -27.2092  -28.7227   20.7109 C   0  0  0  0  0  0
  -26.0731  -26.9366   19.5074 C   0  0  0  0  0  0
  -24.8748  -27.6778   19.5231 C   0  0  0  0  0  0
  -23.6094  -29.8143   20.1710 C   0  0  0  0  0  0
  -25.4104  -36.3108   24.0343 C   0  0  1  0  0  0
  -20.5840  -28.3651   23.1318 C   0  0  2  0  0  0
  -20.6755  -26.9393   22.5414 C   0  0  0  0  0  0
  -19.5740  -26.6382   21.5213 C   0  0  0  0  0  0
  -18.1909  -26.7924   22.1605 C   0  0  0  0  0  0
  -19.1505  -28.8832   23.2904 C   0  0  0  0  0  0
  -18.9442  -30.1439   23.8916 C   0  0  0  0  0  0
  -17.6449  -30.6584   24.0559 C   0  0  0  0  0  0
  -25.9036  -34.9467   23.5141 C   0  0  0  0  0  0
  -16.5339  -29.9086   23.6333 C   0  0  0  0  0  0
  -16.7246  -28.6496   23.0367 C   0  0  0  0  0  0
  -26.4489  -31.6577   25.0713 C   0  0  0  0  0  0
  -25.3777  -31.3648   26.1477 C   0  0  0  0  0  0
  -27.0324  -30.3028   24.6054 C   0  0  0  0  0  0
  -27.6070  -32.4287   25.7472 C   0  0  0  0  0  0
  -27.5583  -37.1806   24.8465 C   0  0  0  0  0  0
  -21.4120  -29.3033   22.3745 N   0  0  0  0  0  0
  -26.4292  -37.3792   23.9408 N   0  0  0  0  0  0
  -24.6653  -31.0773   22.1023 N   0  0  0  0  0  0
  -23.4154  -28.8231   23.3105 O   0  0  0  0  0  0
  -28.4079  -26.7295   20.0102 O   0  0  0  0  0  0
  -26.5585  -34.8925   22.4696 O   0  0  0  0  0  0
  -23.5331  -32.1442   23.7502 O   0  0  0  0  0  0
  -29.3354  -20.3228   20.8160 C   0  0  0  0  0  0
  -29.3852  -18.9110   20.7426 C   0  0  0  0  0  0
  -31.5223  -20.4635   19.7846 C   0  0  0  0  0  0
  -31.5889  -19.0524   19.7016 C   0  0  0  0  0  0
  -30.3990  -21.1250   20.3387 C   0  0  0  0  0  0
  -30.5191  -18.2594   20.2056 C   0  0  0  0  0  0
  -29.3220  -23.3714   20.8676 C   0  0  0  0  0  0
  -29.5628  -24.6790   20.6760 C   0  0  0  0  0  0
  -30.8430  -24.7704   20.0169 C   0  0  0  0  0  0
  -31.4654  -25.9067   19.6603 C   0  0  0  0  0  0
  -30.0997  -15.8176   20.8614 C   0  0  0  0  0  0
  -31.3840  -23.3728   19.7998 C   0  0  0  0  0  0
  -32.7981  -18.4293   19.0115 C   0  0  0  0  0  0
  -28.6534  -25.8352   21.0941 C   0  0  0  0  0  0
  -30.3349  -22.5402   20.3942 N   0  0  0  0  0  0
  -29.1694  -15.9971   21.8350 N   0  0  0  0  0  0
  -30.5989  -16.8074   20.0766 N   0  3  0  0  0  0
  -31.4566  -12.3164   19.1592 H   0  0  0  0  0  0
  -30.2651  -11.2752   19.8629 H   0  0  0  0  0  0
  -29.7262  -11.7345   17.4576 H   0  0  0  0  0  0
  -29.6956  -13.4509   17.7608 H   0  0  0  0  0  0
  -27.7879  -11.3289   18.8016 H   0  0  0  0  0  0
  -27.3725  -12.6782   17.7821 H   0  0  0  0  0  0
  -27.6935  -14.2702   19.5815 H   0  0  0  0  0  0
  -28.6666  -11.9846   21.3485 H   0  0  0  0  0  0
  -28.4754  -13.6158   21.8755 H   0  0  0  0  0  0
  -25.2794   -9.5684   22.4722 H   0  0  0  0  0  0
  -23.9988   -7.4632   22.7471 H   0  0  0  0  0  0
  -21.0881   -8.8772   19.8952 H   0  0  0  0  0  0
  -22.3748  -10.9657   19.6117 H   0  0  0  0  0  0
  -21.2004   -7.6157   23.9744 H   0  0  0  0  0  0
  -21.1470   -6.0546   25.9101 H   0  0  0  0  0  0
  -22.0584   -2.7627   23.2881 H   0  0  0  0  0  0
  -22.4102  -11.9805   22.4785 H   0  0  0  0  0  0
  -21.1087  -13.1128   22.2609 H   0  0  0  0  0  0
  -24.6986  -15.8540   20.6554 H   0  0  0  0  0  0
  -26.3438  -15.6262   20.3258 H   0  0  0  0  0  0
  -26.7112  -32.5529   23.1175 H   0  0  0  0  0  0
  -25.0133  -33.9792   25.0535 H   0  0  0  0  0  0
  -22.6923  -31.3063   21.4113 H   0  0  0  0  0  0
  -23.3749  -35.9638   23.3325 H   0  0  0  0  0  0
  -24.3577  -36.8894   22.2054 H   0  0  0  0  0  0
  -23.7222  -37.6517   23.6629 H   0  0  0  0  0  0
  -26.0290  -31.5928   20.5862 H   0  0  0  0  0  0
  -26.8189  -30.8984   21.9740 H   0  0  0  0  0  0
  -28.1083  -29.1265   21.1544 H   0  0  0  0  0  0
  -26.0925  -25.9661   19.0310 H   0  0  0  0  0  0
  -23.9851  -27.2697   19.0643 H   0  0  0  0  0  0
  -23.7132  -30.5876   19.4090 H   0  0  0  0  0  0
  -22.7358  -29.2306   19.8771 H   0  0  0  0  0  0
  -25.1284  -36.1986   25.0837 H   0  0  0  0  0  0
  -20.9902  -28.3211   24.1446 H   0  0  0  0  0  0
  -20.5661  -26.2268   23.3605 H   0  0  0  0  0  0
  -21.6625  -26.7455   22.1195 H   0  0  0  0  0  0
  -19.6909  -25.6296   21.1241 H   0  0  0  0  0  0
  -19.6691  -27.3211   20.6756 H   0  0  0  0  0  0
  -17.4185  -26.6678   21.3995 H   0  0  0  0  0  0
  -18.0307  -26.0040   22.8970 H   0  0  0  0  0  0
  -19.7915  -30.7257   24.2279 H   0  0  0  0  0  0
  -17.5000  -31.6267   24.5148 H   0  0  0  0  0  0
  -15.5349  -30.3005   23.7663 H   0  0  0  0  0  0
  -15.8625  -28.0838   22.7093 H   0  0  0  0  0  0
  -24.5954  -30.6997   25.7805 H   0  0  0  0  0  0
  -24.8979  -32.2787   26.4971 H   0  0  0  0  0  0
  -25.8159  -30.8776   27.0198 H   0  0  0  0  0  0
  -26.2842  -29.6758   24.1186 H   0  0  0  0  0  0
  -27.4215  -29.7276   25.4467 H   0  0  0  0  0  0
  -27.8621  -30.4377   23.9113 H   0  0  0  0  0  0
  -27.2720  -33.3602   26.2043 H   0  0  0  0  0  0
  -28.3895  -32.6815   25.0303 H   0  0  0  0  0  0
  -28.0724  -31.8402   26.5393 H   0  0  0  0  0  0
  -28.2596  -38.0110   24.7526 H   0  0  0  0  0  0
  -28.1094  -36.2641   24.6286 H   0  0  0  0  0  0
  -27.2292  -37.1431   25.8867 H   0  0  0  0  0  0
  -20.9293  -29.8753   21.6955 H   0  0  0  0  0  0
  -26.0194  -38.2876   24.1419 H   0  0  0  0  0  0
  -28.4499  -20.7771   21.2335 H   0  0  0  0  0  0
  -28.5290  -18.3504   21.0841 H   0  0  0  0  0  0
  -32.3516  -21.0362   19.3938 H   0  0  0  0  0  0
  -28.4579  -22.9346   21.3459 H   0  0  0  0  0  0
  -31.0261  -26.8738   19.8491 H   0  0  0  0  0  0
  -32.4288  -25.8868   19.1712 H   0  0  0  0  0  0
  -32.3381  -23.2457   20.3144 H   0  0  0  0  0  0
  -31.5141  -23.1717   18.7341 H   0  0  0  0  0  0
  -33.5619  -19.1769   18.7929 H   0  0  0  0  0  0
  -32.5068  -17.9922   18.0544 H   0  0  0  0  0  0
  -33.2662  -17.6600   19.6263 H   0  0  0  0  0  0
  -29.1363  -26.3854   21.9017 H   0  0  0  0  0  0
  -27.7220  -25.4308   21.4915 H   0  0  0  0  0  0
  -28.8437  -16.9189   22.0881 H   0  0  0  0  0  0
  -28.9217  -15.2182   22.4340 H   0  0  0  0  0  0
  -31.3394  -16.4020   19.5197 H   0  0  0  0  0  0
  1 25  1  0  0  0
  1 30  2  0  0  0
  1 81  1  0  0  0
  2  3  1  0  0  0
  2 25  1  0  0  0
  2 88  1  0  0  0
  2 89  1  0  0  0
  3  4  1  0  0  0
  3 90  1  0  0  0
  3 91  1  0  0  0
  4  5  1  0  0  0
  4 92  1  0  0  0
  4 93  1  0  0  0
  5  6  1  0  0  0
  5 26  1  0  0  0
  5 94  1  0  0  0
  6 25  1  0  0  0
  6 95  1  0  0  0
  6 96  1  0  0  0
  7  8  2  0  0  0
  7 26  1  0  0  0
  7 29  1  0  0  0
  8  9  1  0  0  0
  8 22  1  0  0  0
  9 10  1  0  0  0
  9 27  2  0  0  0
 10 11  2  0  0  0
 10 15  1  0  0  0
 11 12  1  0  0  0
 11 97  1  0  0  0
 12 13  2  0  0  0
 12 98  1  0  0  0
 13 14  1  0  0  0
 13 31  1  0  0  0
 14 15  2  0  0  0
 14 99  1  0  0  0
 15100  1  0  0  0
 16 17  2  0  0  0
 16 21  1  0  0  0
 16 31  1  0  0  0
 17 18  1  0  0  0
 17101  1  0  0  0
 18 19  2  0  0  0
 18102  1  0  0  0
 19 20  1  0  0  0
 19 24  1  0  0  0
 20 21  2  0  0  0
 20103  1  0  0  0
 21 23  1  0  0  0
 22 28  1  0  0  0
 22 32  2  0  0  0
 26 27  1  0  0  0
 28104  1  0  0  0
 28105  1  0  0  0
 29106  1  0  0  0
 29107  1  0  0  0
 33 34  1  0  0  0
 33 66  1  0  0  0
 33 70  2  0  0  0
 34 36  1  0  0  0
 34 59  1  0  0  0
 34108  1  0  0  0
 35 44  2  0  0  0
 35 45  1  0  0  0
 35 68  1  0  0  0
 36 56  1  0  0  0
 36109  1  0  0  0
 37 39  1  0  0  0
 37 47  1  0  0  0
 37 66  1  0  0  0
 37110  1  0  0  0
 38 43  2  0  0  0
 38 46  1  0  0  0
 38 47  1  0  0  0
 39 64  1  0  0  0
 39 67  2  0  0  0
 40 52  1  0  0  0
 40 53  2  0  0  0
 40 58  1  0  0  0
 41111  1  0  0  0
 41112  1  0  0  0
 41113  1  0  0  0
 41 48  1  0  0  0
 42 43  1  0  0  0
 42 66  1  0  0  0
 42114  1  0  0  0
 42115  1  0  0  0
 43 44  1  0  0  0
 44116  1  0  0  0
 45 46  2  0  0  0
 45117  1  0  0  0
 46118  1  0  0  0
 47119  1  0  0  0
 47120  1  0  0  0
 48 56  1  0  0  0
 48 65  1  0  0  0
 48121  1  0  0  0
 49 50  1  0  0  0
 49 53  1  0  0  0
 49 64  1  0  0  0
 49122  1  0  0  0
 50 51  1  0  0  0
 50123  1  0  0  0
 50124  1  0  0  0
 51 52  1  0  0  0
 51125  1  0  0  0
 51126  1  0  0  0
 52127  1  0  0  0
 52128  1  0  0  0
 53 54  1  0  0  0
 54 55  2  0  0  0
 54129  1  0  0  0
 55 57  1  0  0  0
 55130  1  0  0  0
 56 69  2  0  0  0
 57 58  2  0  0  0
 57131  1  0  0  0
 58132  1  0  0  0
 59 60  1  0  0  0
 59 61  1  0  0  0
 59 62  1  0  0  0
 60133  1  0  0  0
 60134  1  0  0  0
 60135  1  0  0  0
 61136  1  0  0  0
 61137  1  0  0  0
 61138  1  0  0  0
 62139  1  0  0  0
 62140  1  0  0  0
 62141  1  0  0  0
 63 65  1  0  0  0
 63142  1  0  0  0
 63143  1  0  0  0
 63144  1  0  0  0
 64145  1  0  0  0
 65146  1  0  0  0
 68 84  1  0  0  0
 71 72  2  0  0  0
 71 75  1  0  0  0
 71147  1  0  0  0
 72 76  1  0  0  0
 72148  1  0  0  0
 73 74  1  0  0  0
 73 75  2  0  0  0
 73149  1  0  0  0
 74 76  2  0  0  0
 74 83  1  0  0  0
 75 85  1  0  0  0
 76 87  1  0  0  0
 77 78  2  0  0  0
 77 85  1  0  0  0
 77150  1  0  0  0
 78 79  1  0  0  0
 78 84  1  0  0  0
 79 80  2  0  0  0
 79 82  1  0  0  0
 80151  1  0  0  0
 80152  1  0  0  0
 81 86  1  0  0  0
 81 87  2  0  0  0
 82 85  1  0  0  0
 82153  1  0  0  0
 82154  1  0  0  0
 83155  1  0  0  0
 83156  1  0  0  0
 83157  1  0  0  0
 84158  1  0  0  0
 84159  1  0  0  0
 86160  1  0  0  0
 86161  1  0  0  0
 87162  1  0  0  0
M  CHG  1  87   1
M  ISO  4   1 100  68 101  81 100  84 101
M  END
> <chiral flag>
0

> <version>
0

> <s_m_source_file>
/data/baiqing/PycharmProjects/Reinvent-master-3.2/result/LINK_invent/BTK/process_docking_weight1_custom_product_contain_oxygen_bond_distance_aromatic_linkinvent_7_9_3/rearranged_h_0075.sdf

> <i_m_source_file_index>
64

> <r_mmod_Potential_Energy-OPLS-2005>
41.8263206481934

> <r_mmod_Stretch_Energy-OPLS-2005>
40.5052680969238

> <r_mmod_Bend_Energy-OPLS-2005>
230.398071289062

> <r_mmod_Torsional_Energy-OPLS-2005>
198.253509521484

> <r_mmod_Improper_Torsional_Energy-OPLS-2005>
7.27248334884644

> <r_mmod_Van_der_Waal_Energy-OPLS-2005>
155.461410522461

> <r_mmod_Electrostatic_Energy-OPLS-2005>
-160.9150390625

> <r_mmod_Solvation_Energy-OPLS-2005>
-443.657531738281

> <b_mmod_Minimization_Converged-OPLS-2005>
0

> <r_mmod_RMS_Derivative-OPLS-2005>
3.22338628768921

$$$$
65
                    3D
 Structure written by MMmdl.
161170  0  0  1  0            999 V2000
  -30.6154  -14.7525   20.4224 C   0  0  0  0  0  0
  -30.4310  -12.4510   19.4818 C   0  0  0  0  0  0
  -29.5151  -12.5054   18.2388 C   0  0  0  0  0  0
  -28.0375  -12.3408   18.6444 C   0  0  0  0  0  0
  -27.6425  -13.2385   19.8474 C   0  0  2  0  0  0
  -28.6879  -13.1797   20.9845 C   0  0  0  0  0  0
  -25.2513  -13.8219   20.5699 C   0  0  0  0  0  0
  -24.1803  -13.0454   20.9207 C   0  0  0  0  0  0
  -24.6407  -11.6934   20.8743 C   0  0  0  0  0  0
  -23.9079  -10.4308   21.0400 C   0  0  0  0  0  0
  -24.3624   -9.4220   21.9178 C   0  0  0  0  0  0
  -23.6310   -8.2250   22.0741 C   0  0  0  0  0  0
  -22.4292   -8.0287   21.3534 C   0  0  0  0  0  0
  -21.9919   -9.0251   20.4633 C   0  0  0  0  0  0
  -22.7249  -10.2139   20.3041 C   0  0  0  0  0  0
  -21.6847   -6.0740   22.5277 C   0  0  0  0  0  0
  -21.4005   -6.5636   23.8220 C   0  0  0  0  0  0
  -21.3668   -5.6790   24.9182 C   0  0  0  0  0  0
  -21.6055   -4.3055   24.7227 C   0  0  0  0  0  0
  -21.8819   -3.8142   23.4347 C   0  0  0  0  0  0
  -21.9192   -4.6965   22.3404 C   0  0  0  0  0  0
  -22.7817  -13.5221   21.1867 C   0  0  0  0  0  0
  -22.1657   -4.2142   21.0979 F   0  0  0  0  0  0
  -21.5640   -3.4545   25.7733 F   0  0  0  0  0  0
  -29.9919  -13.5223   20.4069 N   0  0  0  0  0  0
  -26.2947  -12.9436   20.3257 N   0  0  0  0  0  0
  -25.9336  -11.6580   20.5725 N   0  0  0  0  0  0
  -22.0444  -12.8219   22.0415 N   0  0  0  0  0  0
  -25.4215  -15.1939   20.4105 N   0  0  0  0  0  0
  -31.8039  -14.8301   20.0986 O   0  0  0  0  0  0
  -21.6648   -6.8879   21.4234 O   0  0  0  0  0  0
  -22.3505  -14.5524   20.6711 O   0  0  0  0  0  0
  -24.6338  -31.8547   23.2000 C   0  0  0  0  0  0
  -25.9166  -32.4742   23.8344 C   0  0  1  0  0  0
  -27.2150  -27.2468   20.1202 C   0  0  0  0  0  0
  -25.5973  -33.8545   24.2274 N   0  0  0  0  0  0
  -23.4294  -30.4782   21.5441 C   0  0  2  0  0  0
  -24.8745  -28.9263   20.1094 C   0  0  0  0  0  0
  -22.7504  -29.4619   22.4940 C   0  0  0  0  0  0
  -18.0284  -28.1386   22.8484 C   0  0  0  0  0  0
  -24.1493  -36.7263   23.2645 C   0  0  0  0  0  0
  -25.9772  -30.7604   21.3829 C   0  0  0  0  0  0
  -26.0475  -29.3829   20.7234 C   0  0  0  0  0  0
  -27.2182  -28.5547   20.7226 C   0  0  0  0  0  0
  -26.0223  -26.8778   19.4545 C   0  0  0  0  0  0
  -24.8677  -27.6818   19.4650 C   0  0  0  0  0  0
  -23.6453  -29.8126   20.1601 C   0  0  0  0  0  0
  -25.4118  -36.3054   24.0336 C   0  0  1  0  0  0
  -20.5891  -28.3705   23.1267 C   0  0  2  0  0  0
  -20.6775  -26.9426   22.5413 C   0  0  0  0  0  0
  -19.5755  -26.6383   21.5218 C   0  0  0  0  0  0
  -18.1931  -26.7931   22.1615 C   0  0  0  0  0  0
  -19.1539  -28.8859   23.2867 C   0  0  0  0  0  0
  -18.9460  -30.1457   23.8884 C   0  0  0  0  0  0
  -17.6459  -30.6593   24.0546 C   0  0  0  0  0  0
  -25.9065  -34.9433   23.5095 C   0  0  0  0  0  0
  -16.5346  -29.9079   23.6337 C   0  0  0  0  0  0
  -16.7272  -28.6491   23.0372 C   0  0  0  0  0  0
  -26.4536  -31.6561   25.0730 C   0  0  0  0  0  0
  -25.3762  -31.3683   26.1447 C   0  0  0  0  0  0
  -27.0395  -30.2978   24.6231 C   0  0  0  0  0  0
  -27.6091  -32.4307   25.7492 C   0  0  0  0  0  0
  -27.5575  -37.1790   24.8470 C   0  0  0  0  0  0
  -21.4215  -29.3052   22.3664 N   0  0  0  0  0  0
  -26.4284  -37.3761   23.9419 N   0  0  0  0  0  0
  -24.6993  -31.0504   22.0970 N   0  0  0  0  0  0
  -23.4193  -28.8172   23.3058 O   0  0  0  0  0  0
  -28.2944  -26.3248   20.1970 O   0  0  0  0  0  0
  -26.5627  -34.8902   22.4655 O   0  0  0  0  0  0
  -23.5491  -32.1381   23.7289 O   0  0  0  0  0  0
  -30.7084  -18.6192   18.1150 C   0  0  0  0  0  0
  -30.5875  -17.3765   18.7642 C   0  0  0  0  0  0
  -29.5551  -18.5255   20.6327 C   0  0  0  0  0  0
  -30.2794  -19.8309   18.7031 C   0  0  0  0  0  0
  -29.6731  -19.8421   19.9927 C   0  0  0  0  0  0
  -30.0162  -17.2675   20.0501 C   0  0  0  0  0  0
  -28.7768  -22.3402   20.0529 C   0  0  0  0  0  0
  -28.8613  -23.6375   20.5550 C   0  0  0  0  0  0
  -29.6806  -23.7630   21.7703 C   0  0  0  0  0  0
  -29.7850  -24.9091   22.4678 C   0  0  0  0  0  0
  -30.4677  -22.5485   22.2678 C   0  0  0  0  0  0
  -29.7503  -21.2074   22.0074 C   0  0  0  0  0  0
  -30.5488  -21.1082   17.9186 C   0  0  0  0  0  0
  -28.0487  -24.8599   19.8998 C   0  0  0  0  0  0
  -29.3075  -21.1154   20.6172 N   0  0  0  0  0  0
  -29.8615  -15.9036   20.6393 N   0  0  0  0  0  0
  -31.4734  -12.5644   19.1831 H   0  0  0  0  0  0
  -30.3681  -11.4752   19.9661 H   0  0  0  0  0  0
  -29.7987  -11.7303   17.5259 H   0  0  0  0  0  0
  -29.6522  -13.4575   17.7216 H   0  0  0  0  0  0
  -27.8822  -11.2912   18.8988 H   0  0  0  0  0  0
  -27.3868  -12.5461   17.7931 H   0  0  0  0  0  0
  -27.6341  -14.2603   19.4655 H   0  0  0  0  0  0
  -28.7209  -12.1855   21.4315 H   0  0  0  0  0  0
  -28.4255  -13.8696   21.7882 H   0  0  0  0  0  0
  -25.2762   -9.5711   22.4753 H   0  0  0  0  0  0
  -24.0017   -7.4641   22.7461 H   0  0  0  0  0  0
  -21.0836   -8.8766   19.8945 H   0  0  0  0  0  0
  -22.3691  -10.9669   19.6139 H   0  0  0  0  0  0
  -21.1982   -7.6139   23.9722 H   0  0  0  0  0  0
  -21.1494   -6.0510   25.9082 H   0  0  0  0  0  0
  -22.0592   -2.7599   23.2837 H   0  0  0  0  0  0
  -22.4049  -11.9889   22.4839 H   0  0  0  0  0  0
  -21.1045  -13.1233   22.2580 H   0  0  0  0  0  0
  -24.6574  -15.8505   20.5209 H   0  0  0  0  0  0
  -26.2694  -15.6285   20.0695 H   0  0  0  0  0  0
  -26.7232  -32.5376   23.1083 H   0  0  0  0  0  0
  -25.0154  -33.9679   25.0444 H   0  0  0  0  0  0
  -22.7263  -31.3010   21.3998 H   0  0  0  0  0  0
  -23.3757  -35.9595   23.3305 H   0  0  0  0  0  0
  -24.3589  -36.8881   22.2062 H   0  0  0  0  0  0
  -23.7244  -37.6465   23.6658 H   0  0  0  0  0  0
  -26.1217  -31.5198   20.6133 H   0  0  0  0  0  0
  -26.8530  -30.8056   22.0184 H   0  0  0  0  0  0
  -28.1114  -28.8970   21.2265 H   0  0  0  0  0  0
  -25.9401  -25.9398   18.9254 H   0  0  0  0  0  0
  -23.9737  -27.3297   18.9685 H   0  0  0  0  0  0
  -23.7653  -30.5891   19.4038 H   0  0  0  0  0  0
  -22.7632  -29.2446   19.8583 H   0  0  0  0  0  0
  -25.1305  -36.1901   25.0833 H   0  0  0  0  0  0
  -20.9961  -28.3276   24.1395 H   0  0  0  0  0  0
  -20.5683  -26.2324   23.3623 H   0  0  0  0  0  0
  -21.6634  -26.7473   22.1193 H   0  0  0  0  0  0
  -19.6913  -25.6288   21.1259 H   0  0  0  0  0  0
  -19.6689  -27.3175   20.6735 H   0  0  0  0  0  0
  -17.4218  -26.6708   21.4001 H   0  0  0  0  0  0
  -18.0308  -26.0068   22.8994 H   0  0  0  0  0  0
  -19.7937  -30.7276   24.2259 H   0  0  0  0  0  0
  -17.5014  -31.6276   24.5131 H   0  0  0  0  0  0
  -15.5343  -30.2973   23.7678 H   0  0  0  0  0  0
  -15.8669  -28.0789   22.7129 H   0  0  0  0  0  0
  -24.5983  -30.6980   25.7773 H   0  0  0  0  0  0
  -24.8892  -32.2818   26.4863 H   0  0  0  0  0  0
  -25.8100  -30.8885   27.0230 H   0  0  0  0  0  0
  -26.2980  -29.6700   24.1274 H   0  0  0  0  0  0
  -27.4085  -29.7282   25.4771 H   0  0  0  0  0  0
  -27.8861  -30.4250   23.9479 H   0  0  0  0  0  0
  -27.2721  -33.3640   26.2016 H   0  0  0  0  0  0
  -28.3921  -32.6810   25.0316 H   0  0  0  0  0  0
  -28.0732  -31.8453   26.5442 H   0  0  0  0  0  0
  -28.2591  -38.0088   24.7518 H   0  0  0  0  0  0
  -28.1070  -36.2620   24.6289 H   0  0  0  0  0  0
  -27.2296  -37.1423   25.8872 H   0  0  0  0  0  0
  -20.9419  -29.8746   21.6834 H   0  0  0  0  0  0
  -26.0156  -38.2837   24.1401 H   0  0  0  0  0  0
  -31.1646  -18.6340   17.1334 H   0  0  0  0  0  0
  -30.9342  -16.4975   18.2380 H   0  0  0  0  0  0
  -29.0967  -18.4835   21.6092 H   0  0  0  0  0  0
  -28.1569  -22.1539   19.1860 H   0  0  0  0  0  0
  -29.2692  -25.8178   22.2112 H   0  0  0  0  0  0
  -30.4139  -24.9605   23.3454 H   0  0  0  0  0  0
  -30.6715  -22.6396   23.3358 H   0  0  0  0  0  0
  -31.4377  -22.5454   21.7692 H   0  0  0  0  0  0
  -28.8772  -21.1196   22.6569 H   0  0  0  0  0  0
  -30.4242  -20.3933   22.2805 H   0  0  0  0  0  0
  -31.2377  -20.9368   17.0911 H   0  0  0  0  0  0
  -31.0025  -21.8672   18.5564 H   0  0  0  0  0  0
  -29.6239  -21.5003   17.4971 H   0  0  0  0  0  0
  -27.0258  -24.6147   20.1829 H   0  0  0  0  0  0
  -28.0990  -24.7407   18.8166 H   0  0  0  0  0  0
  -28.9812  -15.7401   21.1049 H   0  0  0  0  0  0
  1 25  1  0  0  0
  1 30  2  0  0  0
  1 86  1  0  0  0
  2  3  1  0  0  0
  2 25  1  0  0  0
  2 87  1  0  0  0
  2 88  1  0  0  0
  3  4  1  0  0  0
  3 89  1  0  0  0
  3 90  1  0  0  0
  4  5  1  0  0  0
  4 91  1  0  0  0
  4 92  1  0  0  0
  5  6  1  0  0  0
  5 26  1  0  0  0
  5 93  1  0  0  0
  6 25  1  0  0  0
  6 94  1  0  0  0
  6 95  1  0  0  0
  7  8  2  0  0  0
  7 26  1  0  0  0
  7 29  1  0  0  0
  8  9  1  0  0  0
  8 22  1  0  0  0
  9 10  1  0  0  0
  9 27  2  0  0  0
 10 11  2  0  0  0
 10 15  1  0  0  0
 11 12  1  0  0  0
 11 96  1  0  0  0
 12 13  2  0  0  0
 12 97  1  0  0  0
 13 14  1  0  0  0
 13 31  1  0  0  0
 14 15  2  0  0  0
 14 98  1  0  0  0
 15 99  1  0  0  0
 16 17  2  0  0  0
 16 21  1  0  0  0
 16 31  1  0  0  0
 17 18  1  0  0  0
 17100  1  0  0  0
 18 19  2  0  0  0
 18101  1  0  0  0
 19 20  1  0  0  0
 19 24  1  0  0  0
 20 21  2  0  0  0
 20102  1  0  0  0
 21 23  1  0  0  0
 22 28  1  0  0  0
 22 32  2  0  0  0
 26 27  1  0  0  0
 28103  1  0  0  0
 28104  1  0  0  0
 29105  1  0  0  0
 29106  1  0  0  0
 33 34  1  0  0  0
 33 66  1  0  0  0
 33 70  2  0  0  0
 34 36  1  0  0  0
 34 59  1  0  0  0
 34107  1  0  0  0
 35 44  2  0  0  0
 35 45  1  0  0  0
 35 68  1  0  0  0
 36 56  1  0  0  0
 36108  1  0  0  0
 37 39  1  0  0  0
 37 47  1  0  0  0
 37 66  1  0  0  0
 37109  1  0  0  0
 38 43  2  0  0  0
 38 46  1  0  0  0
 38 47  1  0  0  0
 39 64  1  0  0  0
 39 67  2  0  0  0
 40 52  1  0  0  0
 40 53  2  0  0  0
 40 58  1  0  0  0
 41110  1  0  0  0
 41111  1  0  0  0
 41112  1  0  0  0
 41 48  1  0  0  0
 42 43  1  0  0  0
 42 66  1  0  0  0
 42113  1  0  0  0
 42114  1  0  0  0
 43 44  1  0  0  0
 44115  1  0  0  0
 45 46  2  0  0  0
 45116  1  0  0  0
 46117  1  0  0  0
 47118  1  0  0  0
 47119  1  0  0  0
 48 56  1  0  0  0
 48 65  1  0  0  0
 48120  1  0  0  0
 49 50  1  0  0  0
 49 53  1  0  0  0
 49 64  1  0  0  0
 49121  1  0  0  0
 50 51  1  0  0  0
 50122  1  0  0  0
 50123  1  0  0  0
 51 52  1  0  0  0
 51124  1  0  0  0
 51125  1  0  0  0
 52126  1  0  0  0
 52127  1  0  0  0
 53 54  1  0  0  0
 54 55  2  0  0  0
 54128  1  0  0  0
 55 57  1  0  0  0
 55129  1  0  0  0
 56 69  2  0  0  0
 57 58  2  0  0  0
 57130  1  0  0  0
 58131  1  0  0  0
 59 60  1  0  0  0
 59 61  1  0  0  0
 59 62  1  0  0  0
 60132  1  0  0  0
 60133  1  0  0  0
 60134  1  0  0  0
 61135  1  0  0  0
 61136  1  0  0  0
 61137  1  0  0  0
 62138  1  0  0  0
 62139  1  0  0  0
 62140  1  0  0  0
 63 65  1  0  0  0
 63141  1  0  0  0
 63142  1  0  0  0
 63143  1  0  0  0
 64144  1  0  0  0
 65145  1  0  0  0
 68 84  1  0  0  0
 71 72  2  0  0  0
 71 74  1  0  0  0
 71146  1  0  0  0
 72 76  1  0  0  0
 72147  1  0  0  0
 73 75  1  0  0  0
 73 76  2  0  0  0
 73148  1  0  0  0
 74 75  2  0  0  0
 74 83  1  0  0  0
 75 85  1  0  0  0
 76 86  1  0  0  0
 77 78  2  0  0  0
 77 85  1  0  0  0
 77149  1  0  0  0
 78 79  1  0  0  0
 78 84  1  0  0  0
 79 80  2  0  0  0
 79 81  1  0  0  0
 80150  1  0  0  0
 80151  1  0  0  0
 81 82  1  0  0  0
 81152  1  0  0  0
 81153  1  0  0  0
 82 85  1  0  0  0
 82154  1  0  0  0
 82155  1  0  0  0
 83156  1  0  0  0
 83157  1  0  0  0
 83158  1  0  0  0
 84159  1  0  0  0
 84160  1  0  0  0
 86161  1  0  0  0
M  ISO  4   1 100  68 101  84 101  86 100
M  END
> <chiral flag>
0

> <version>
0

> <s_m_source_file>
/data/baiqing/PycharmProjects/Reinvent-master-3.2/result/LINK_invent/BTK/process_docking_weight1_custom_product_contain_oxygen_bond_distance_aromatic_linkinvent_7_9_3/rearranged_h_0075.sdf

> <i_m_source_file_index>
65

> <r_mmod_Potential_Energy-OPLS-2005>
272.485076904297

> <r_mmod_Stretch_Energy-OPLS-2005>
138.941558837891

> <r_mmod_Bend_Energy-OPLS-2005>
174.282592773438

> <r_mmod_Torsional_Energy-OPLS-2005>
249.061813354492

> <r_mmod_Improper_Torsional_Energy-OPLS-2005>
5.08493757247925

> <r_mmod_Van_der_Waal_Energy-OPLS-2005>
165.29736328125

> <r_mmod_Electrostatic_Energy-OPLS-2005>
-346.171752929688

> <r_mmod_Solvation_Energy-OPLS-2005>
-207.648620605469

> <b_mmod_Minimization_Converged-OPLS-2005>
0

> <r_mmod_RMS_Derivative-OPLS-2005>
2.32317709922791

$$$$
66
                    3D
 Structure written by MMmdl.
156164  0  0  1  0            999 V2000
  -30.7104  -14.5109   20.5498 C   0  0  0  0  0  0
  -30.4167  -12.3250   19.4365 C   0  0  0  0  0  0
  -29.4943  -12.4992   18.2130 C   0  0  0  0  0  0
  -28.0172  -12.3560   18.6262 C   0  0  0  0  0  0
  -27.6563  -13.2140   19.8689 C   0  0  2  0  0  0
  -28.6994  -13.0394   20.9965 C   0  0  0  0  0  0
  -25.2568  -13.8174   20.5690 C   0  0  0  0  0  0
  -24.1829  -13.0443   20.9192 C   0  0  0  0  0  0
  -24.6390  -11.6912   20.8740 C   0  0  0  0  0  0
  -23.9058  -10.4295   21.0404 C   0  0  0  0  0  0
  -24.3611   -9.4210   21.9181 C   0  0  0  0  0  0
  -23.6291   -8.2243   22.0752 C   0  0  0  0  0  0
  -22.4273   -8.0279   21.3543 C   0  0  0  0  0  0
  -21.9905   -9.0252   20.4645 C   0  0  0  0  0  0
  -22.7230  -10.2134   20.3054 C   0  0  0  0  0  0
  -21.6853   -6.0734   22.5279 C   0  0  0  0  0  0
  -21.4013   -6.5638   23.8211 C   0  0  0  0  0  0
  -21.3659   -5.6792   24.9175 C   0  0  0  0  0  0
  -21.6044   -4.3055   24.7226 C   0  0  0  0  0  0
  -21.8820   -3.8146   23.4347 C   0  0  0  0  0  0
  -21.9193   -4.6962   22.3402 C   0  0  0  0  0  0
  -22.7852  -13.5238   21.1852 C   0  0  0  0  0  0
  -22.1664   -4.2147   21.0980 F   0  0  0  0  0  0
  -21.5628   -3.4537   25.7737 F   0  0  0  0  0  0
  -30.0261  -13.3368   20.4347 N   0  0  0  0  0  0
  -26.2999  -12.9354   20.3348 N   0  0  0  0  0  0
  -25.9319  -11.6509   20.5769 N   0  0  0  0  0  0
  -22.0489  -12.8229   22.0404 N   0  0  0  0  0  0
  -25.4290  -15.1893   20.4096 N   0  0  0  0  0  0
  -31.8489  -14.6377   20.0929 O   0  0  0  0  0  0
  -21.6640   -6.8875   21.4240 O   0  0  0  0  0  0
  -22.3543  -14.5548   20.6704 O   0  0  0  0  0  0
  -24.6176  -31.8665   23.2096 C   0  0  0  0  0  0
  -25.9058  -32.4816   23.8398 C   0  0  1  0  0  0
  -27.2264  -27.4094   20.1018 C   0  0  0  0  0  0
  -25.5910  -33.8615   24.2328 N   0  0  0  0  0  0
  -23.4075  -30.4911   21.5500 C   0  0  2  0  0  0
  -24.8553  -28.9601   20.1090 C   0  0  0  0  0  0
  -22.7431  -29.4653   22.4971 C   0  0  0  0  0  0
  -18.0272  -28.1382   22.8492 C   0  0  0  0  0  0
  -24.1484  -36.7307   23.2636 C   0  0  0  0  0  0
  -25.9403  -30.8253   21.3676 C   0  0  0  0  0  0
  -26.0187  -29.4599   20.7102 C   0  0  0  0  0  0
  -27.2109  -28.6920   20.7043 C   0  0  0  0  0  0
  -26.0500  -26.9415   19.4761 C   0  0  0  0  0  0
  -24.8672  -27.7016   19.4858 C   0  0  0  0  0  0
  -23.6175  -29.8279   20.1632 C   0  0  0  0  0  0
  -25.4103  -36.3107   24.0342 C   0  0  1  0  0  0
  -20.5867  -28.3673   23.1308 C   0  0  2  0  0  0
  -20.6760  -26.9407   22.5415 C   0  0  0  0  0  0
  -19.5741  -26.6388   21.5210 C   0  0  0  0  0  0
  -18.1920  -26.7928   22.1621 C   0  0  0  0  0  0
  -19.1524  -28.8842   23.2896 C   0  0  0  0  0  0
  -18.9450  -30.1445   23.8912 C   0  0  0  0  0  0
  -17.6453  -30.6588   24.0561 C   0  0  0  0  0  0
  -25.9038  -34.9473   23.5131 C   0  0  0  0  0  0
  -16.5343  -29.9088   23.6329 C   0  0  0  0  0  0
  -16.7262  -28.6502   23.0356 C   0  0  0  0  0  0
  -26.4476  -31.6599   25.0732 C   0  0  0  0  0  0
  -25.3739  -31.3714   26.1480 C   0  0  0  0  0  0
  -27.0301  -30.3035   24.6123 C   0  0  0  0  0  0
  -27.6058  -32.4314   25.7490 C   0  0  0  0  0  0
  -27.5587  -37.1794   24.8457 C   0  0  0  0  0  0
  -21.4153  -29.3038   22.3713 N   0  0  0  0  0  0
  -26.4283  -37.3798   23.9427 N   0  0  0  0  0  0
  -24.6735  -31.0749   22.1007 N   0  0  0  0  0  0
  -23.4192  -28.8189   23.3016 O   0  0  0  0  0  0
  -28.3328  -26.5791   20.1496 O   0  0  0  0  0  0
  -26.5594  -34.8929   22.4690 O   0  0  0  0  0  0
  -23.5360  -32.1423   23.7473 O   0  0  0  0  0  0
  -32.1947  -18.6571   21.3955 C   0  0  0  0  0  0
  -31.2336  -19.6850   21.3905 C   0  0  0  0  0  0
  -31.8051  -17.3099   21.2793 C   0  0  0  0  0  0
  -29.4784  -18.0071   21.1212 C   0  0  0  0  0  0
  -29.8621  -19.3776   21.2604 C   0  0  0  0  0  0
  -30.4408  -16.9543   21.1270 C   0  0  0  0  0  0
  -28.0886  -25.3181   20.6803 C   0  0  0  0  0  0
  -28.8627  -20.4735   21.3705 C   0  0  0  0  0  0
  -28.7736  -24.1714   20.4207 C   0  0  0  0  0  0
  -28.2901  -22.9300   21.0641 C   0  0  0  0  0  0
  -29.9793  -24.1315   19.4955 C   0  0  0  0  0  0
  -30.0165  -15.5747   21.0301 N   0  0  0  0  0  0
  -29.0978  -21.7300   20.8827 N   0  0  0  0  0  0
  -27.7316  -20.1826   22.0237 N   0  3  0  0  0  0
  -27.2518  -22.8651   21.7361 O   0  0  0  0  0  0
  -31.4625  -12.4088   19.1353 H   0  0  0  0  0  0
  -30.3113  -11.3236   19.8568 H   0  0  0  0  0  0
  -29.7406  -11.7628   17.4469 H   0  0  0  0  0  0
  -29.6583  -13.4785   17.7605 H   0  0  0  0  0  0
  -27.8362  -11.3021   18.8400 H   0  0  0  0  0  0
  -27.3650  -12.6108   17.7901 H   0  0  0  0  0  0
  -27.6875  -14.2550   19.5466 H   0  0  0  0  0  0
  -28.6821  -12.0172   21.3775 H   0  0  0  0  0  0
  -28.4606  -13.6761   21.8495 H   0  0  0  0  0  0
  -25.2757   -9.5690   22.4754 H   0  0  0  0  0  0
  -24.0003   -7.4634   22.7470 H   0  0  0  0  0  0
  -21.0836   -8.8767   19.8952 H   0  0  0  0  0  0
  -22.3684  -10.9670   19.6164 H   0  0  0  0  0  0
  -21.2004   -7.6147   23.9715 H   0  0  0  0  0  0
  -21.1481   -6.0522   25.9078 H   0  0  0  0  0  0
  -22.0598   -2.7608   23.2846 H   0  0  0  0  0  0
  -22.4099  -11.9884   22.4786 H   0  0  0  0  0  0
  -21.1109  -13.1260   22.2611 H   0  0  0  0  0  0
  -24.6593  -15.8422   20.5091 H   0  0  0  0  0  0
  -26.2730  -15.6234   20.0583 H   0  0  0  0  0  0
  -26.7131  -32.5523   23.1164 H   0  0  0  0  0  0
  -25.0073  -33.9775   25.0482 H   0  0  0  0  0  0
  -22.6972  -31.3090   21.4117 H   0  0  0  0  0  0
  -23.3756  -35.9628   23.3279 H   0  0  0  0  0  0
  -24.3590  -36.8937   22.2055 H   0  0  0  0  0  0
  -23.7218  -37.6502   23.6655 H   0  0  0  0  0  0
  -26.0573  -31.5929   20.6012 H   0  0  0  0  0  0
  -26.8262  -30.8758   21.9892 H   0  0  0  0  0  0
  -28.1050  -29.0639   21.1848 H   0  0  0  0  0  0
  -26.0416  -25.9716   18.9986 H   0  0  0  0  0  0
  -23.9746  -27.3124   19.0153 H   0  0  0  0  0  0
  -23.7263  -30.6054   19.4062 H   0  0  0  0  0  0
  -22.7410  -29.2493   19.8656 H   0  0  0  0  0  0
  -25.1272  -36.1968   25.0831 H   0  0  0  0  0  0
  -20.9958  -28.3238   24.1429 H   0  0  0  0  0  0
  -20.5659  -26.2284   23.3605 H   0  0  0  0  0  0
  -21.6631  -26.7446   22.1209 H   0  0  0  0  0  0
  -19.6903  -25.6301   21.1237 H   0  0  0  0  0  0
  -19.6686  -27.3200   20.6742 H   0  0  0  0  0  0
  -17.4193  -26.6680   21.4019 H   0  0  0  0  0  0
  -18.0322  -26.0065   22.9014 H   0  0  0  0  0  0
  -19.7925  -30.7248   24.2297 H   0  0  0  0  0  0
  -17.5012  -31.6273   24.5153 H   0  0  0  0  0  0
  -15.5345  -30.2995   23.7647 H   0  0  0  0  0  0
  -15.8661  -28.0822   22.7074 H   0  0  0  0  0  0
  -24.5916  -30.7053   25.7822 H   0  0  0  0  0  0
  -24.8922  -32.2871   26.4921 H   0  0  0  0  0  0
  -25.8091  -30.8896   27.0244 H   0  0  0  0  0  0
  -26.2846  -29.6806   24.1165 H   0  0  0  0  0  0
  -27.4045  -29.7266   25.4591 H   0  0  0  0  0  0
  -27.8698  -30.4342   23.9292 H   0  0  0  0  0  0
  -27.2687  -33.3613   26.2083 H   0  0  0  0  0  0
  -28.3857  -32.6873   25.0305 H   0  0  0  0  0  0
  -28.0737  -31.8426   26.5391 H   0  0  0  0  0  0
  -28.2571  -38.0126   24.7562 H   0  0  0  0  0  0
  -28.1114  -36.2662   24.6198 H   0  0  0  0  0  0
  -27.2323  -37.1344   25.8861 H   0  0  0  0  0  0
  -20.9316  -29.8773   21.6945 H   0  0  0  0  0  0
  -26.0171  -38.2869   24.1462 H   0  0  0  0  0  0
  -33.2415  -18.8997   21.5133 H   0  0  0  0  0  0
  -31.5655  -20.7054   21.5258 H   0  0  0  0  0  0
  -32.5830  -16.5633   21.3281 H   0  0  0  0  0  0
  -28.4306  -17.7594   21.0231 H   0  0  0  0  0  0
  -27.2403  -25.3327   21.3553 H   0  0  0  0  0  0
  -30.1847  -25.1171   19.0770 H   0  0  0  0  0  0
  -29.8045  -23.4500   18.6622 H   0  0  0  0  0  0
  -30.8718  -23.8116   20.0344 H   0  0  0  0  0  0
  -29.0559  -15.3809   21.2669 H   0  0  0  0  0  0
  -29.9416  -21.7664   20.3354 H   0  0  0  0  0  0
  -27.6079  -19.2882   22.4701 H   0  0  0  0  0  0
  -27.0611  -20.9249   22.1819 H   0  0  0  0  0  0
  1 25  1  0  0  0
  1 30  2  0  0  0
  1 82  1  0  0  0
  2  3  1  0  0  0
  2 25  1  0  0  0
  2 86  1  0  0  0
  2 87  1  0  0  0
  3  4  1  0  0  0
  3 88  1  0  0  0
  3 89  1  0  0  0
  4  5  1  0  0  0
  4 90  1  0  0  0
  4 91  1  0  0  0
  5  6  1  0  0  0
  5 26  1  0  0  0
  5 92  1  0  0  0
  6 25  1  0  0  0
  6 93  1  0  0  0
  6 94  1  0  0  0
  7  8  2  0  0  0
  7 26  1  0  0  0
  7 29  1  0  0  0
  8  9  1  0  0  0
  8 22  1  0  0  0
  9 10  1  0  0  0
  9 27  2  0  0  0
 10 11  2  0  0  0
 10 15  1  0  0  0
 11 12  1  0  0  0
 11 95  1  0  0  0
 12 13  2  0  0  0
 12 96  1  0  0  0
 13 14  1  0  0  0
 13 31  1  0  0  0
 14 15  2  0  0  0
 14 97  1  0  0  0
 15 98  1  0  0  0
 16 17  2  0  0  0
 16 21  1  0  0  0
 16 31  1  0  0  0
 17 18  1  0  0  0
 17 99  1  0  0  0
 18 19  2  0  0  0
 18100  1  0  0  0
 19 20  1  0  0  0
 19 24  1  0  0  0
 20 21  2  0  0  0
 20101  1  0  0  0
 21 23  1  0  0  0
 22 28  1  0  0  0
 22 32  2  0  0  0
 26 27  1  0  0  0
 28102  1  0  0  0
 28103  1  0  0  0
 29104  1  0  0  0
 29105  1  0  0  0
 33 34  1  0  0  0
 33 66  1  0  0  0
 33 70  2  0  0  0
 34 36  1  0  0  0
 34 59  1  0  0  0
 34106  1  0  0  0
 35 44  2  0  0  0
 35 45  1  0  0  0
 35 68  1  0  0  0
 36 56  1  0  0  0
 36107  1  0  0  0
 37 39  1  0  0  0
 37 47  1  0  0  0
 37 66  1  0  0  0
 37108  1  0  0  0
 38 43  2  0  0  0
 38 46  1  0  0  0
 38 47  1  0  0  0
 39 64  1  0  0  0
 39 67  2  0  0  0
 40 52  1  0  0  0
 40 53  2  0  0  0
 40 58  1  0  0  0
 41109  1  0  0  0
 41110  1  0  0  0
 41111  1  0  0  0
 41 48  1  0  0  0
 42 43  1  0  0  0
 42 66  1  0  0  0
 42112  1  0  0  0
 42113  1  0  0  0
 43 44  1  0  0  0
 44114  1  0  0  0
 45 46  2  0  0  0
 45115  1  0  0  0
 46116  1  0  0  0
 47117  1  0  0  0
 47118  1  0  0  0
 48 56  1  0  0  0
 48 65  1  0  0  0
 48119  1  0  0  0
 49 50  1  0  0  0
 49 53  1  0  0  0
 49 64  1  0  0  0
 49120  1  0  0  0
 50 51  1  0  0  0
 50121  1  0  0  0
 50122  1  0  0  0
 51 52  1  0  0  0
 51123  1  0  0  0
 51124  1  0  0  0
 52125  1  0  0  0
 52126  1  0  0  0
 53 54  1  0  0  0
 54 55  2  0  0  0
 54127  1  0  0  0
 55 57  1  0  0  0
 55128  1  0  0  0
 56 69  2  0  0  0
 57 58  2  0  0  0
 57129  1  0  0  0
 58130  1  0  0  0
 59 60  1  0  0  0
 59 61  1  0  0  0
 59 62  1  0  0  0
 60131  1  0  0  0
 60132  1  0  0  0
 60133  1  0  0  0
 61134  1  0  0  0
 61135  1  0  0  0
 61136  1  0  0  0
 62137  1  0  0  0
 62138  1  0  0  0
 62139  1  0  0  0
 63 65  1  0  0  0
 63140  1  0  0  0
 63141  1  0  0  0
 63142  1  0  0  0
 64143  1  0  0  0
 65144  1  0  0  0
 68 77  1  0  0  0
 71 72  2  0  0  0
 71 73  1  0  0  0
 71145  1  0  0  0
 72 75  1  0  0  0
 72146  1  0  0  0
 73 76  2  0  0  0
 73147  1  0  0  0
 74 75  2  0  0  0
 74 76  1  0  0  0
 74148  1  0  0  0
 75 78  1  0  0  0
 76 82  1  0  0  0
 77 79  2  0  0  0
 77149  1  0  0  0
 78 83  1  0  0  0
 78 84  2  0  0  0
 79 80  1  0  0  0
 79 81  1  0  0  0
 80 83  1  0  0  0
 80 85  2  0  0  0
 81150  1  0  0  0
 81151  1  0  0  0
 81152  1  0  0  0
 82153  1  0  0  0
 83154  1  0  0  0
 84155  1  0  0  0
 84156  1  0  0  0
M  CHG  1  84   1
M  ISO  4   1 100  68 101  77 101  82 100
M  END
> <chiral flag>
0

> <version>
0

> <s_m_source_file>
/data/baiqing/PycharmProjects/Reinvent-master-3.2/result/LINK_invent/BTK/process_docking_weight1_custom_product_contain_oxygen_bond_distance_aromatic_linkinvent_7_9_3/rearranged_h_0075.sdf

> <i_m_source_file_index>
66

> <r_mmod_Potential_Energy-OPLS-2005>
-320.371704101562

> <r_mmod_Stretch_Energy-OPLS-2005>
49.3827247619629

> <r_mmod_Bend_Energy-OPLS-2005>
108.720626831055

> <r_mmod_Torsional_Energy-OPLS-2005>
220.697357177734

> <r_mmod_Improper_Torsional_Energy-OPLS-2005>
4.65176868438721

> <r_mmod_Van_der_Waal_Energy-OPLS-2005>
177.790512084961

> <r_mmod_Electrostatic_Energy-OPLS-2005>
-465.937194824219

> <r_mmod_Solvation_Energy-OPLS-2005>
-437.132843017578

> <b_mmod_Minimization_Converged-OPLS-2005>
0

> <r_mmod_RMS_Derivative-OPLS-2005>
0.407511293888092

$$$$
67
                    3D
 Structure written by MMmdl.
157165  0  0  1  0            999 V2000
  -30.6273  -14.5914   20.4886 C   0  0  0  0  0  0
  -30.4525  -12.3544   19.4437 C   0  0  0  0  0  0
  -29.5295  -12.4774   18.2110 C   0  0  0  0  0  0
  -28.0469  -12.3185   18.6210 C   0  0  0  0  0  0
  -27.6603  -13.1972   19.8411 C   0  0  2  0  0  0
  -28.6985  -13.0326   20.9750 C   0  0  0  0  0  0
  -25.2645  -13.8142   20.5597 C   0  0  0  0  0  0
  -24.1869  -13.0466   20.9181 C   0  0  0  0  0  0
  -24.6380  -11.6914   20.8688 C   0  0  0  0  0  0
  -23.9030  -10.4313   21.0421 C   0  0  0  0  0  0
  -24.3584   -9.4236   21.9194 C   0  0  0  0  0  0
  -23.6271   -8.2263   22.0758 C   0  0  0  0  0  0
  -22.4259   -8.0294   21.3547 C   0  0  0  0  0  0
  -21.9875   -9.0284   20.4681 C   0  0  0  0  0  0
  -22.7193  -10.2169   20.3077 C   0  0  0  0  0  0
  -21.6849   -6.0759   22.5299 C   0  0  0  0  0  0
  -21.4003   -6.5658   23.8243 C   0  0  0  0  0  0
  -21.3615   -5.6802   24.9197 C   0  0  0  0  0  0
  -21.6024   -4.3046   24.7226 C   0  0  0  0  0  0
  -21.8811   -3.8166   23.4343 C   0  0  0  0  0  0
  -21.9186   -4.7006   22.3414 C   0  0  0  0  0  0
  -22.7893  -13.5294   21.1807 C   0  0  0  0  0  0
  -22.1669   -4.2196   21.0983 F   0  0  0  0  0  0
  -21.5625   -3.4521   25.7729 F   0  0  0  0  0  0
  -30.0205  -13.3691   20.4202 N   0  0  0  0  0  0
  -26.3010  -12.9264   20.3101 N   0  0  0  0  0  0
  -25.9275  -11.6449   20.5577 N   0  0  0  0  0  0
  -22.0419  -12.8407   22.0362 N   0  0  0  0  0  0
  -25.4454  -15.1852   20.4041 N   0  0  0  0  0  0
  -31.8006  -14.7543   20.1406 O   0  0  0  0  0  0
  -21.6607   -6.8895   21.4261 O   0  0  0  0  0  0
  -22.3621  -14.5596   20.6600 O   0  0  0  0  0  0
  -24.6228  -31.8684   23.2016 C   0  0  0  0  0  0
  -25.9081  -32.4821   23.8376 C   0  0  1  0  0  0
  -27.2284  -27.3567   20.1218 C   0  0  0  0  0  0
  -25.5899  -33.8614   24.2314 N   0  0  0  0  0  0
  -23.4166  -30.4901   21.5438 C   0  0  2  0  0  0
  -24.8599  -28.9444   20.1156 C   0  0  0  0  0  0
  -22.7480  -29.4666   22.4927 C   0  0  0  0  0  0
  -18.0295  -28.1400   22.8471 C   0  0  0  0  0  0
  -24.1470  -36.7312   23.2629 C   0  0  0  0  0  0
  -25.9524  -30.8068   21.3696 C   0  0  0  0  0  0
  -26.0254  -29.4362   20.7155 C   0  0  0  0  0  0
  -27.2092  -28.6516   20.7140 C   0  0  0  0  0  0
  -26.0387  -26.9034   19.5049 C   0  0  0  0  0  0
  -24.8663  -27.6820   19.5022 C   0  0  0  0  0  0
  -23.6305  -29.8266   20.1571 C   0  0  0  0  0  0
  -25.4076  -36.3114   24.0351 C   0  0  1  0  0  0
  -20.5888  -28.3716   23.1267 C   0  0  2  0  0  0
  -20.6769  -26.9444   22.5405 C   0  0  0  0  0  0
  -19.5744  -26.6399   21.5203 C   0  0  0  0  0  0
  -18.1924  -26.7932   22.1621 C   0  0  0  0  0  0
  -19.1548  -28.8868   23.2865 C   0  0  0  0  0  0
  -18.9485  -30.1466   23.8890 C   0  0  0  0  0  0
  -17.6497  -30.6593   24.0581 C   0  0  0  0  0  0
  -25.9045  -34.9488   23.5139 C   0  0  0  0  0  0
  -16.5381  -29.9120   23.6316 C   0  0  0  0  0  0
  -16.7291  -28.6530   23.0331 C   0  0  0  0  0  0
  -26.4448  -31.6609   25.0742 C   0  0  0  0  0  0
  -25.3661  -31.3847   26.1487 C   0  0  0  0  0  0
  -27.0244  -30.3009   24.6195 C   0  0  0  0  0  0
  -27.6048  -32.4318   25.7467 C   0  0  0  0  0  0
  -27.5614  -37.1750   24.8421 C   0  0  0  0  0  0
  -21.4198  -29.3083   22.3670 N   0  0  0  0  0  0
  -26.4247  -37.3829   23.9478 N   0  0  0  0  0  0
  -24.6814  -31.0719   22.0953 N   0  0  0  0  0  0
  -23.4219  -28.8219   23.3006 O   0  0  0  0  0  0
  -28.3749  -26.5626   20.1698 O   0  0  0  0  0  0
  -26.5628  -34.8963   22.4718 O   0  0  0  0  0  0
  -23.5378  -32.1487   23.7345 O   0  0  0  0  0  0
  -28.8505  -17.8771   21.1318 C   0  0  0  0  0  0
  -31.0983  -17.7627   20.2421 C   0  0  0  0  0  0
  -28.9366  -19.2944   21.1966 C   0  0  0  0  0  0
  -31.1848  -19.1851   20.3054 C   0  0  0  0  0  0
  -29.9407  -17.0753   20.7030 C   0  0  0  0  0  0
  -30.1153  -19.9657   20.8142 C   0  0  0  0  0  0
  -30.5529  -24.5944   19.2032 C   0  0  0  0  0  0
  -31.4120  -25.8317   19.4134 C   0  0  0  0  0  0
  -28.2259  -25.1054   20.0927 C   0  0  0  0  0  0
  -29.5309  -24.2429   20.2900 C   0  0  1  0  0  0
  -29.7910  -15.6308   20.7711 N   0  0  0  0  0  0
  -29.2715  -22.7601   20.2777 N   0  0  0  0  0  0
  -30.6751  -23.8917   18.1927 O   0  0  0  0  0  0
  -29.9444  -21.9668   22.6051 O   0  0  0  0  0  0
  -31.7179  -22.1439   20.8180 O   0  0  0  0  0  0
  -30.3533  -21.7552   21.2066 S   0  0  0  0  0  0
  -31.4987  -12.4775   19.1598 H   0  0  0  0  0  0
  -30.3840  -11.3566   19.8760 H   0  0  0  0  0  0
  -29.8035  -11.7222   17.4692 H   0  0  0  0  0  0
  -29.6812  -13.4439   17.7266 H   0  0  0  0  0  0
  -27.8887  -11.2674   18.8690 H   0  0  0  0  0  0
  -27.3933  -12.5281   17.7746 H   0  0  0  0  0  0
  -27.6893  -14.2288   19.4888 H   0  0  0  0  0  0
  -28.6965  -12.0029   21.3366 H   0  0  0  0  0  0
  -28.4483  -13.6524   21.8366 H   0  0  0  0  0  0
  -25.2748   -9.5738   22.4751 H   0  0  0  0  0  0
  -24.0033   -7.4637   22.7438 H   0  0  0  0  0  0
  -21.0806   -8.8770   19.8974 H   0  0  0  0  0  0
  -22.3644  -10.9696   19.6167 H   0  0  0  0  0  0
  -21.2000   -7.6169   23.9767 H   0  0  0  0  0  0
  -21.1430   -6.0509   25.9093 H   0  0  0  0  0  0
  -22.0625   -2.7636   23.2810 H   0  0  0  0  0  0
  -22.3907  -12.0132   22.4991 H   0  0  0  0  0  0
  -21.1029  -13.1543   22.2362 H   0  0  0  0  0  0
  -24.6823  -15.8416   20.5143 H   0  0  0  0  0  0
  -26.2754  -15.6053   20.0075 H   0  0  0  0  0  0
  -26.7160  -32.5511   23.1142 H   0  0  0  0  0  0
  -24.9944  -33.9737   25.0386 H   0  0  0  0  0  0
  -22.7103  -31.3104   21.4032 H   0  0  0  0  0  0
  -23.3774  -35.9593   23.3165 H   0  0  0  0  0  0
  -24.3628  -36.9047   22.2077 H   0  0  0  0  0  0
  -23.7135  -37.6447   23.6711 H   0  0  0  0  0  0
  -26.0829  -31.5662   20.5976 H   0  0  0  0  0  0
  -26.8325  -30.8571   21.9993 H   0  0  0  0  0  0
  -28.0988  -29.0279   21.1974 H   0  0  0  0  0  0
  -25.9864  -25.9400   19.0215 H   0  0  0  0  0  0
  -23.9714  -27.2953   19.0336 H   0  0  0  0  0  0
  -23.7626  -30.6074   19.4065 H   0  0  0  0  0  0
  -22.7495  -29.2629   19.8448 H   0  0  0  0  0  0
  -25.1210  -36.1961   25.0832 H   0  0  0  0  0  0
  -20.9985  -28.3304   24.1391 H   0  0  0  0  0  0
  -20.5651  -26.2363   23.3631 H   0  0  0  0  0  0
  -21.6647  -26.7464   22.1244 H   0  0  0  0  0  0
  -19.6915  -25.6315   21.1231 H   0  0  0  0  0  0
  -19.6643  -27.3203   20.6724 H   0  0  0  0  0  0
  -17.4201  -26.6693   21.4014 H   0  0  0  0  0  0
  -18.0330  -26.0086   22.9037 H   0  0  0  0  0  0
  -19.7975  -30.7257   24.2266 H   0  0  0  0  0  0
  -17.5071  -31.6258   24.5227 H   0  0  0  0  0  0
  -15.5391  -30.3036   23.7609 H   0  0  0  0  0  0
  -15.8697  -28.0860   22.7022 H   0  0  0  0  0  0
  -24.5772  -30.7250   25.7864 H   0  0  0  0  0  0
  -24.8909  -32.3062   26.4867 H   0  0  0  0  0  0
  -25.7940  -30.9069   27.0305 H   0  0  0  0  0  0
  -26.2823  -29.6823   24.1140 H   0  0  0  0  0  0
  -27.3827  -29.7221   25.4718 H   0  0  0  0  0  0
  -27.8743  -30.4268   23.9485 H   0  0  0  0  0  0
  -27.2679  -33.3578   26.2145 H   0  0  0  0  0  0
  -28.3768  -32.6959   25.0224 H   0  0  0  0  0  0
  -28.0827  -31.8396   26.5285 H   0  0  0  0  0  0
  -28.2494  -38.0195   24.7720 H   0  0  0  0  0  0
  -28.1245  -36.2755   24.5862 H   0  0  0  0  0  0
  -27.2428  -37.0956   25.8839 H   0  0  0  0  0  0
  -20.9389  -29.8879   21.6927 H   0  0  0  0  0  0
  -26.0129  -38.2869   24.1638 H   0  0  0  0  0  0
  -27.9333  -17.4114   21.4680 H   0  0  0  0  0  0
  -31.9525  -17.2191   19.8688 H   0  0  0  0  0  0
  -28.1142  -19.8665   21.5954 H   0  0  0  0  0  0
  -32.1055  -19.6689   20.0112 H   0  0  0  0  0  0
  -32.1433  -25.6350   20.1977 H   0  0  0  0  0  0
  -30.7901  -26.6689   19.7274 H   0  0  0  0  0  0
  -31.9451  -26.1098   18.5045 H   0  0  0  0  0  0
  -27.5058  -24.8022   20.8556 H   0  0  0  0  0  0
  -27.7968  -24.8310   19.1298 H   0  0  0  0  0  0
  -29.9719  -24.5093   21.2521 H   0  0  0  0  0  0
  -28.8644  -15.3239   21.0285 H   0  0  0  0  0  0
  -29.3324  -22.4645   19.3000 H   0  0  0  0  0  0
  1 25  1  0  0  0
  1 30  2  0  0  0
  1 81  1  0  0  0
  2  3  1  0  0  0
  2 25  1  0  0  0
  2 87  1  0  0  0
  2 88  1  0  0  0
  3  4  1  0  0  0
  3 89  1  0  0  0
  3 90  1  0  0  0
  4  5  1  0  0  0
  4 91  1  0  0  0
  4 92  1  0  0  0
  5  6  1  0  0  0
  5 26  1  0  0  0
  5 93  1  0  0  0
  6 25  1  0  0  0
  6 94  1  0  0  0
  6 95  1  0  0  0
  7  8  2  0  0  0
  7 26  1  0  0  0
  7 29  1  0  0  0
  8  9  1  0  0  0
  8 22  1  0  0  0
  9 10  1  0  0  0
  9 27  2  0  0  0
 10 11  2  0  0  0
 10 15  1  0  0  0
 11 12  1  0  0  0
 11 96  1  0  0  0
 12 13  2  0  0  0
 12 97  1  0  0  0
 13 14  1  0  0  0
 13 31  1  0  0  0
 14 15  2  0  0  0
 14 98  1  0  0  0
 15 99  1  0  0  0
 16 17  2  0  0  0
 16 21  1  0  0  0
 16 31  1  0  0  0
 17 18  1  0  0  0
 17100  1  0  0  0
 18 19  2  0  0  0
 18101  1  0  0  0
 19 20  1  0  0  0
 19 24  1  0  0  0
 20 21  2  0  0  0
 20102  1  0  0  0
 21 23  1  0  0  0
 22 28  1  0  0  0
 22 32  2  0  0  0
 26 27  1  0  0  0
 28103  1  0  0  0
 28104  1  0  0  0
 29105  1  0  0  0
 29106  1  0  0  0
 33 34  1  0  0  0
 33 66  1  0  0  0
 33 70  2  0  0  0
 34 36  1  0  0  0
 34 59  1  0  0  0
 34107  1  0  0  0
 35 44  2  0  0  0
 35 45  1  0  0  0
 35 68  1  0  0  0
 36 56  1  0  0  0
 36108  1  0  0  0
 37 39  1  0  0  0
 37 47  1  0  0  0
 37 66  1  0  0  0
 37109  1  0  0  0
 38 43  2  0  0  0
 38 46  1  0  0  0
 38 47  1  0  0  0
 39 64  1  0  0  0
 39 67  2  0  0  0
 40 52  1  0  0  0
 40 53  2  0  0  0
 40 58  1  0  0  0
 41110  1  0  0  0
 41111  1  0  0  0
 41112  1  0  0  0
 41 48  1  0  0  0
 42 43  1  0  0  0
 42 66  1  0  0  0
 42113  1  0  0  0
 42114  1  0  0  0
 43 44  1  0  0  0
 44115  1  0  0  0
 45 46  2  0  0  0
 45116  1  0  0  0
 46117  1  0  0  0
 47118  1  0  0  0
 47119  1  0  0  0
 48 56  1  0  0  0
 48 65  1  0  0  0
 48120  1  0  0  0
 49 50  1  0  0  0
 49 53  1  0  0  0
 49 64  1  0  0  0
 49121  1  0  0  0
 50 51  1  0  0  0
 50122  1  0  0  0
 50123  1  0  0  0
 51 52  1  0  0  0
 51124  1  0  0  0
 51125  1  0  0  0
 52126  1  0  0  0
 52127  1  0  0  0
 53 54  1  0  0  0
 54 55  2  0  0  0
 54128  1  0  0  0
 55 57  1  0  0  0
 55129  1  0  0  0
 56 69  2  0  0  0
 57 58  2  0  0  0
 57130  1  0  0  0
 58131  1  0  0  0
 59 60  1  0  0  0
 59 61  1  0  0  0
 59 62  1  0  0  0
 60132  1  0  0  0
 60133  1  0  0  0
 60134  1  0  0  0
 61135  1  0  0  0
 61136  1  0  0  0
 61137  1  0  0  0
 62138  1  0  0  0
 62139  1  0  0  0
 62140  1  0  0  0
 63 65  1  0  0  0
 63141  1  0  0  0
 63142  1  0  0  0
 63143  1  0  0  0
 64144  1  0  0  0
 65145  1  0  0  0
 68 79  1  0  0  0
 71 73  2  0  0  0
 71 75  1  0  0  0
 71146  1  0  0  0
 72 74  1  0  0  0
 72 75  2  0  0  0
 72147  1  0  0  0
 73 76  1  0  0  0
 73148  1  0  0  0
 74 76  2  0  0  0
 74149  1  0  0  0
 75 81  1  0  0  0
 76 86  1  0  0  0
 77 78  1  0  0  0
 77 80  1  0  0  0
 77 83  2  0  0  0
 78150  1  0  0  0
 78151  1  0  0  0
 78152  1  0  0  0
 79153  1  0  0  0
 79154  1  0  0  0
 79 80  1  0  0  0
 80 82  1  0  0  0
 80155  1  0  0  0
 81156  1  0  0  0
 82157  1  0  0  0
 82 86  1  0  0  0
 84 86  2  0  0  0
 85 86  2  0  0  0
M  ISO  4   1 100  68 101  79 101  81 100
M  END
> <chiral flag>
0

> <version>
0

> <s_m_source_file>
/data/baiqing/PycharmProjects/Reinvent-master-3.2/result/LINK_invent/BTK/process_docking_weight1_custom_product_contain_oxygen_bond_distance_aromatic_linkinvent_7_9_3/rearranged_h_0075.sdf

> <i_m_source_file_index>
67

> <r_mmod_Potential_Energy-OPLS-2005>
-194.030731201172

> <r_mmod_Stretch_Energy-OPLS-2005>
59.6437187194824

> <r_mmod_Bend_Energy-OPLS-2005>
129.343307495117

> <r_mmod_Torsional_Energy-OPLS-2005>
237.132522583008

> <r_mmod_Improper_Torsional_Energy-OPLS-2005>
12.1703176498413

> <r_mmod_Van_der_Waal_Energy-OPLS-2005>
140.919876098633

> <r_mmod_Electrostatic_Energy-OPLS-2005>
-561.174438476562

> <r_mmod_Solvation_Energy-OPLS-2005>
-248.683380126953

> <b_mmod_Minimization_Converged-OPLS-2005>
0

> <r_mmod_RMS_Derivative-OPLS-2005>
4.95751953125

$$$$
68
                    3D
 Structure written by MMmdl.
159168  0  0  1  0            999 V2000
  -30.6813  -14.5578   20.5570 C   0  0  0  0  0  0
  -30.4278  -12.3556   19.4478 C   0  0  0  0  0  0
  -29.5021  -12.5114   18.2229 C   0  0  0  0  0  0
  -28.0228  -12.3666   18.6315 C   0  0  0  0  0  0
  -27.6548  -13.2217   19.8760 C   0  0  2  0  0  0
  -28.6996  -13.0508   21.0024 C   0  0  0  0  0  0
  -25.2555  -13.8192   20.5735 C   0  0  0  0  0  0
  -24.1824  -13.0459   20.9207 C   0  0  0  0  0  0
  -24.6398  -11.6922   20.8747 C   0  0  0  0  0  0
  -23.9083  -10.4300   21.0404 C   0  0  0  0  0  0
  -24.3629   -9.4215   21.9180 C   0  0  0  0  0  0
  -23.6297   -8.2261   22.0757 C   0  0  0  0  0  0
  -22.4280   -8.0293   21.3552 C   0  0  0  0  0  0
  -21.9927   -9.0265   20.4654 C   0  0  0  0  0  0
  -22.7257  -10.2135   20.3057 C   0  0  0  0  0  0
  -21.6856   -6.0750   22.5284 C   0  0  0  0  0  0
  -21.4001   -6.5633   23.8223 C   0  0  0  0  0  0
  -21.3680   -5.6781   24.9176 C   0  0  0  0  0  0
  -21.6053   -4.3052   24.7229 C   0  0  0  0  0  0
  -21.8813   -3.8165   23.4344 C   0  0  0  0  0  0
  -21.9189   -4.6983   22.3402 C   0  0  0  0  0  0
  -22.7839  -13.5234   21.1869 C   0  0  0  0  0  0
  -22.1645   -4.2172   21.0985 F   0  0  0  0  0  0
  -21.5656   -3.4537   25.7750 F   0  0  0  0  0  0
  -30.0208  -13.3675   20.4407 N   0  0  0  0  0  0
  -26.3004  -12.9379   20.3403 N   0  0  0  0  0  0
  -25.9339  -11.6521   20.5807 N   0  0  0  0  0  0
  -22.0473  -12.8247   22.0413 N   0  0  0  0  0  0
  -25.4245  -15.1928   20.4111 N   0  0  0  0  0  0
  -31.8333  -14.6973   20.1326 O   0  0  0  0  0  0
  -21.6645   -6.8888   21.4240 O   0  0  0  0  0  0
  -22.3515  -14.5530   20.6704 O   0  0  0  0  0  0
  -24.6254  -31.8619   23.2048 C   0  0  0  0  0  0
  -25.9111  -32.4775   23.8384 C   0  0  1  0  0  0
  -27.2178  -27.3414   20.1170 C   0  0  0  0  0  0
  -25.5922  -33.8570   24.2297 N   0  0  0  0  0  0
  -23.4162  -30.4859   21.5471 C   0  0  2  0  0  0
  -24.8597  -28.9396   20.1153 C   0  0  0  0  0  0
  -22.7454  -29.4630   22.4945 C   0  0  0  0  0  0
  -18.0268  -28.1358   22.8480 C   0  0  0  0  0  0
  -24.1470  -36.7293   23.2634 C   0  0  0  0  0  0
  -25.9552  -30.8008   21.3691 C   0  0  0  0  0  0
  -26.0279  -29.4288   20.7129 C   0  0  0  0  0  0
  -27.2140  -28.6444   20.6938 C   0  0  0  0  0  0
  -26.0247  -26.8831   19.5224 C   0  0  0  0  0  0
  -24.8591  -27.6699   19.5158 C   0  0  0  0  0  0
  -23.6256  -29.8163   20.1629 C   0  0  0  0  0  0
  -25.4086  -36.3056   24.0327 C   0  0  1  0  0  0
  -20.5858  -28.3666   23.1266 C   0  0  2  0  0  0
  -20.6756  -26.9393   22.5389 C   0  0  0  0  0  0
  -19.5719  -26.6372   21.5203 C   0  0  0  0  0  0
  -18.1912  -26.7910   22.1610 C   0  0  0  0  0  0
  -19.1516  -28.8825   23.2878 C   0  0  0  0  0  0
  -18.9434  -30.1443   23.8887 C   0  0  0  0  0  0
  -17.6435  -30.6583   24.0534 C   0  0  0  0  0  0
  -25.9029  -34.9428   23.5099 C   0  0  0  0  0  0
  -16.5330  -29.9071   23.6314 C   0  0  0  0  0  0
  -16.7262  -28.6468   23.0372 C   0  0  0  0  0  0
  -26.4496  -31.6597   25.0761 C   0  0  0  0  0  0
  -25.3747  -31.3733   26.1500 C   0  0  0  0  0  0
  -27.0362  -30.3026   24.6230 C   0  0  0  0  0  0
  -27.6058  -32.4360   25.7517 C   0  0  0  0  0  0
  -27.5581  -37.1786   24.8451 C   0  0  0  0  0  0
  -21.4163  -29.3064   22.3704 N   0  0  0  0  0  0
  -26.4274  -37.3775   23.9426 N   0  0  0  0  0  0
  -24.6851  -31.0637   22.1000 N   0  0  0  0  0  0
  -23.4189  -28.8182   23.3022 O   0  0  0  0  0  0
  -28.3599  -26.5412   20.0896 O   0  0  0  0  0  0
  -26.5592  -34.8904   22.4666 O   0  0  0  0  0  0
  -23.5423  -32.1421   23.7395 O   0  0  0  0  0  0
  -31.1888  -19.7174   21.3867 C   0  0  0  0  0  0
  -31.6480  -17.3271   21.6312 C   0  0  0  0  0  0
  -29.8996  -19.4606   20.8560 C   0  0  0  0  0  0
  -32.0494  -18.6690   21.7724 C   0  0  0  0  0  0
  -30.3762  -17.0034   21.1047 C   0  0  0  0  0  0
  -29.5060  -18.0787   20.7435 C   0  0  0  0  0  0
  -28.2832  -22.6733   19.7289 C   0  0  0  0  0  0
  -27.7578  -21.6946   18.8088 C   0  0  0  0  0  0
  -29.1170  -21.9130   20.6849 C   0  0  0  0  0  0
  -27.0503  -21.9283   17.6859 C   0  0  0  0  0  0
  -27.9769  -24.0157   19.6993 C   0  0  0  0  0  0
  -28.1325  -20.3218   19.2707 C   0  0  0  0  0  0
  -28.2934  -25.1884   20.6672 C   0  0  0  0  0  0
  -29.0758  -20.5688   20.3608 N   0  0  0  0  0  0
  -33.3128  -18.9651   22.2834 N   0  0  0  0  0  0
  -29.9512  -15.6224   20.9830 N   0  0  0  0  0  0
  -29.7483  -22.3950   21.6297 O   0  0  0  0  0  0
  -28.2798  -17.7481   20.2703 F   0  0  0  0  0  0
  -31.4699  -12.4649   19.1429 H   0  0  0  0  0  0
  -30.3450  -11.3557   19.8754 H   0  0  0  0  0  0
  -29.7551  -11.7735   17.4612 H   0  0  0  0  0  0
  -29.6637  -13.4902   17.7688 H   0  0  0  0  0  0
  -27.8439  -11.3109   18.8413 H   0  0  0  0  0  0
  -27.3763  -12.6256   17.7936 H   0  0  0  0  0  0
  -27.6775  -14.2654   19.5610 H   0  0  0  0  0  0
  -28.6964  -12.0245   21.3739 H   0  0  0  0  0  0
  -28.4605  -13.6821   21.8601 H   0  0  0  0  0  0
  -25.2761   -9.5703   22.4755 H   0  0  0  0  0  0
  -24.0035   -7.4651   22.7456 H   0  0  0  0  0  0
  -21.0880   -8.8756   19.8948 H   0  0  0  0  0  0
  -22.3704  -10.9666   19.6174 H   0  0  0  0  0  0
  -21.1941   -7.6129   23.9729 H   0  0  0  0  0  0
  -21.1522   -6.0512   25.9079 H   0  0  0  0  0  0
  -22.0573   -2.7636   23.2840 H   0  0  0  0  0  0
  -22.4063  -11.9897   22.4805 H   0  0  0  0  0  0
  -21.1089  -13.1295   22.2579 H   0  0  0  0  0  0
  -24.6591  -15.8489   20.5239 H   0  0  0  0  0  0
  -26.2787  -15.6423   20.1078 H   0  0  0  0  0  0
  -26.7190  -32.5418   23.1150 H   0  0  0  0  0  0
  -25.0188  -33.9763   25.0505 H   0  0  0  0  0  0
  -22.7110  -31.3061   21.4015 H   0  0  0  0  0  0
  -23.3749  -35.9622   23.3259 H   0  0  0  0  0  0
  -24.3594  -36.8959   22.2070 H   0  0  0  0  0  0
  -23.7219  -37.6479   23.6684 H   0  0  0  0  0  0
  -26.0806  -31.5647   20.6008 H   0  0  0  0  0  0
  -26.8411  -30.8516   21.9917 H   0  0  0  0  0  0
  -28.1245  -29.0263   21.1353 H   0  0  0  0  0  0
  -25.9731  -25.9121   19.0585 H   0  0  0  0  0  0
  -23.9604  -27.2859   19.0591 H   0  0  0  0  0  0
  -23.7317  -30.5883   19.4002 H   0  0  0  0  0  0
  -22.7497  -29.2352   19.8665 H   0  0  0  0  0  0
  -25.1253  -36.1927   25.0833 H   0  0  0  0  0  0
  -20.9937  -28.3228   24.1383 H   0  0  0  0  0  0
  -20.5626  -26.2306   23.3608 H   0  0  0  0  0  0
  -21.6636  -26.7423   22.1186 H   0  0  0  0  0  0
  -19.6889  -25.6276   21.1256 H   0  0  0  0  0  0
  -19.6650  -27.3150   20.6704 H   0  0  0  0  0  0
  -17.4188  -26.6666   21.4014 H   0  0  0  0  0  0
  -18.0295  -26.0053   22.8987 H   0  0  0  0  0  0
  -19.7919  -30.7272   24.2256 H   0  0  0  0  0  0
  -17.4981  -31.6261   24.5134 H   0  0  0  0  0  0
  -15.5329  -30.2956   23.7661 H   0  0  0  0  0  0
  -15.8657  -28.0777   22.7126 H   0  0  0  0  0  0
  -24.5918  -30.7077   25.7838 H   0  0  0  0  0  0
  -24.8951  -32.2902   26.4941 H   0  0  0  0  0  0
  -25.8099  -30.8916   27.0269 H   0  0  0  0  0  0
  -26.2958  -29.6771   24.1247 H   0  0  0  0  0  0
  -27.4043  -29.7281   25.4742 H   0  0  0  0  0  0
  -27.8807  -30.4309   23.9462 H   0  0  0  0  0  0
  -27.2663  -33.3670   26.2071 H   0  0  0  0  0  0
  -28.3868  -32.6944   25.0349 H   0  0  0  0  0  0
  -28.0726  -31.8525   26.5464 H   0  0  0  0  0  0
  -28.2522  -38.0153   24.7580 H   0  0  0  0  0  0
  -28.1142  -36.2699   24.6132 H   0  0  0  0  0  0
  -27.2317  -37.1230   25.8851 H   0  0  0  0  0  0
  -20.9353  -29.8836   21.6938 H   0  0  0  0  0  0
  -26.0128  -38.2832   24.1518 H   0  0  0  0  0  0
  -31.5550  -20.7310   21.4689 H   0  0  0  0  0  0
  -32.3221  -16.5367   21.9294 H   0  0  0  0  0  0
  -26.7857  -22.9164   17.3412 H   0  0  0  0  0  0
  -26.7159  -21.0988   17.0750 H   0  0  0  0  0  0
  -27.3196  -24.3099   18.9029 H   0  0  0  0  0  0
  -28.5942  -19.7454   18.4681 H   0  0  0  0  0  0
  -27.2464  -19.8038   19.6457 H   0  0  0  0  0  0
  -29.2468  -24.9905   21.1561 H   0  0  0  0  0  0
  -27.5386  -25.1782   21.4560 H   0  0  0  0  0  0
  -33.5479  -19.9111   22.5688 H   0  0  0  0  0  0
  -33.8699  -18.2493   22.7395 H   0  0  0  0  0  0
  -28.9688  -15.4461   21.1338 H   0  0  0  0  0  0
  1 25  1  0  0  0
  1 30  2  0  0  0
  1 86  1  0  0  0
  2  3  1  0  0  0
  2 25  1  0  0  0
  2 89  1  0  0  0
  2 90  1  0  0  0
  3  4  1  0  0  0
  3 91  1  0  0  0
  3 92  1  0  0  0
  4  5  1  0  0  0
  4 93  1  0  0  0
  4 94  1  0  0  0
  5  6  1  0  0  0
  5 26  1  0  0  0
  5 95  1  0  0  0
  6 25  1  0  0  0
  6 96  1  0  0  0
  6 97  1  0  0  0
  7  8  2  0  0  0
  7 26  1  0  0  0
  7 29  1  0  0  0
  8  9  1  0  0  0
  8 22  1  0  0  0
  9 10  1  0  0  0
  9 27  2  0  0  0
 10 11  2  0  0  0
 10 15  1  0  0  0
 11 12  1  0  0  0
 11 98  1  0  0  0
 12 13  2  0  0  0
 12 99  1  0  0  0
 13 14  1  0  0  0
 13 31  1  0  0  0
 14 15  2  0  0  0
 14100  1  0  0  0
 15101  1  0  0  0
 16 17  2  0  0  0
 16 21  1  0  0  0
 16 31  1  0  0  0
 17 18  1  0  0  0
 17102  1  0  0  0
 18 19  2  0  0  0
 18103  1  0  0  0
 19 20  1  0  0  0
 19 24  1  0  0  0
 20 21  2  0  0  0
 20104  1  0  0  0
 21 23  1  0  0  0
 22 28  1  0  0  0
 22 32  2  0  0  0
 26 27  1  0  0  0
 28105  1  0  0  0
 28106  1  0  0  0
 29107  1  0  0  0
 29108  1  0  0  0
 33 34  1  0  0  0
 33 66  1  0  0  0
 33 70  2  0  0  0
 34 36  1  0  0  0
 34 59  1  0  0  0
 34109  1  0  0  0
 35 44  2  0  0  0
 35 45  1  0  0  0
 35 68  1  0  0  0
 36 56  1  0  0  0
 36110  1  0  0  0
 37 39  1  0  0  0
 37 47  1  0  0  0
 37 66  1  0  0  0
 37111  1  0  0  0
 38 43  2  0  0  0
 38 46  1  0  0  0
 38 47  1  0  0  0
 39 64  1  0  0  0
 39 67  2  0  0  0
 40 52  1  0  0  0
 40 53  2  0  0  0
 40 58  1  0  0  0
 41112  1  0  0  0
 41113  1  0  0  0
 41114  1  0  0  0
 41 48  1  0  0  0
 42 43  1  0  0  0
 42 66  1  0  0  0
 42115  1  0  0  0
 42116  1  0  0  0
 43 44  1  0  0  0
 44117  1  0  0  0
 45 46  2  0  0  0
 45118  1  0  0  0
 46119  1  0  0  0
 47120  1  0  0  0
 47121  1  0  0  0
 48 56  1  0  0  0
 48 65  1  0  0  0
 48122  1  0  0  0
 49 50  1  0  0  0
 49 53  1  0  0  0
 49 64  1  0  0  0
 49123  1  0  0  0
 50 51  1  0  0  0
 50124  1  0  0  0
 50125  1  0  0  0
 51 52  1  0  0  0
 51126  1  0  0  0
 51127  1  0  0  0
 52128  1  0  0  0
 52129  1  0  0  0
 53 54  1  0  0  0
 54 55  2  0  0  0
 54130  1  0  0  0
 55 57  1  0  0  0
 55131  1  0  0  0
 56 69  2  0  0  0
 57 58  2  0  0  0
 57132  1  0  0  0
 58133  1  0  0  0
 59 60  1  0  0  0
 59 61  1  0  0  0
 59 62  1  0  0  0
 60134  1  0  0  0
 60135  1  0  0  0
 60136  1  0  0  0
 61137  1  0  0  0
 61138  1  0  0  0
 61139  1  0  0  0
 62140  1  0  0  0
 62141  1  0  0  0
 62142  1  0  0  0
 63 65  1  0  0  0
 63143  1  0  0  0
 63144  1  0  0  0
 63145  1  0  0  0
 64146  1  0  0  0
 65147  1  0  0  0
 68 83  1  0  0  0
 71 73  2  0  0  0
 71 74  1  0  0  0
 71148  1  0  0  0
 72 74  2  0  0  0
 72 75  1  0  0  0
 72149  1  0  0  0
 73 76  1  0  0  0
 73 84  1  0  0  0
 74 85  1  0  0  0
 75 76  2  0  0  0
 75 86  1  0  0  0
 76 88  1  0  0  0
 77 78  1  0  0  0
 77 79  1  0  0  0
 77 81  2  0  0  0
 78 80  2  0  0  0
 78 82  1  0  0  0
 79 84  1  0  0  0
 79 87  2  0  0  0
 80150  1  0  0  0
 80151  1  0  0  0
 81 83  1  0  0  0
 81152  1  0  0  0
 82 84  1  0  0  0
 82153  1  0  0  0
 82154  1  0  0  0
 83155  1  0  0  0
 83156  1  0  0  0
 85157  1  0  0  0
 85158  1  0  0  0
 86159  1  0  0  0
M  ISO  4   1 100  68 101  83 101  86 100
M  END
> <chiral flag>
0

> <version>
0

> <s_m_source_file>
/data/baiqing/PycharmProjects/Reinvent-master-3.2/result/LINK_invent/BTK/process_docking_weight1_custom_product_contain_oxygen_bond_distance_aromatic_linkinvent_7_9_3/rearranged_h_0075.sdf

> <i_m_source_file_index>
68

> <r_mmod_Potential_Energy-OPLS-2005>
106.164482116699

> <r_mmod_Stretch_Energy-OPLS-2005>
69.8292083740234

> <r_mmod_Bend_Energy-OPLS-2005>
180.760726928711

> <r_mmod_Torsional_Energy-OPLS-2005>
282.13134765625

> <r_mmod_Improper_Torsional_Energy-OPLS-2005>
6.13587522506714

> <r_mmod_Van_der_Waal_Energy-OPLS-2005>
151.271530151367

> <r_mmod_Electrostatic_Energy-OPLS-2005>
-397.066986083984

> <r_mmod_Solvation_Energy-OPLS-2005>
-216.799987792969

> <b_mmod_Minimization_Converged-OPLS-2005>
0

> <r_mmod_RMS_Derivative-OPLS-2005>
5.14739322662354

$$$$
69
                    3D
 Structure written by MMmdl.
164173  0  0  1  0            999 V2000
  -30.6346  -14.7032   20.3458 C   0  0  0  0  0  0
  -30.4278  -12.3848   19.4703 C   0  0  0  0  0  0
  -29.4975  -12.3610   18.2370 C   0  0  0  0  0  0
  -28.0114  -12.3010   18.6473 C   0  0  0  0  0  0
  -27.6325  -13.2204   19.8452 C   0  0  2  0  0  0
  -28.6933  -13.1855   20.9637 C   0  0  0  0  0  0
  -25.2405  -13.8110   20.5770 C   0  0  0  0  0  0
  -24.1698  -13.0335   20.9183 C   0  0  0  0  0  0
  -24.6355  -11.6857   20.8764 C   0  0  0  0  0  0
  -23.9063  -10.4244   21.0409 C   0  0  0  0  0  0
  -24.3629   -9.4174   21.9189 C   0  0  0  0  0  0
  -23.6299   -8.2218   22.0763 C   0  0  0  0  0  0
  -22.4281   -8.0267   21.3550 C   0  0  0  0  0  0
  -21.9912   -9.0229   20.4646 C   0  0  0  0  0  0
  -22.7247  -10.2098   20.3047 C   0  0  0  0  0  0
  -21.6852   -6.0726   22.5270 C   0  0  0  0  0  0
  -21.4013   -6.5636   23.8201 C   0  0  0  0  0  0
  -21.3658   -5.6792   24.9170 C   0  0  0  0  0  0
  -21.6042   -4.3052   24.7211 C   0  0  0  0  0  0
  -21.8827   -3.8144   23.4336 C   0  0  0  0  0  0
  -21.9203   -4.6958   22.3396 C   0  0  0  0  0  0
  -22.7717  -13.5121   21.1816 C   0  0  0  0  0  0
  -22.1673   -4.2153   21.0963 F   0  0  0  0  0  0
  -21.5628   -3.4537   25.7723 F   0  0  0  0  0  0
  -29.9893  -13.4893   20.3432 N   0  0  0  0  0  0
  -26.2905  -12.9354   20.3411 N   0  0  0  0  0  0
  -25.9301  -11.6499   20.5870 N   0  0  0  0  0  0
  -22.0379  -12.8148   22.0418 N   0  0  0  0  0  0
  -25.3802  -15.1831   20.4362 N   0  0  0  0  0  0
  -31.8655  -14.7512   20.2787 O   0  0  0  0  0  0
  -21.6637   -6.8877   21.4243 O   0  0  0  0  0  0
  -22.3394  -14.5412   20.6655 O   0  0  0  0  0  0
  -24.6327  -31.8605   23.2024 C   0  0  0  0  0  0
  -25.9160  -32.4778   23.8381 C   0  0  1  0  0  0
  -27.2156  -27.3051   20.1037 C   0  0  0  0  0  0
  -25.5971  -33.8587   24.2309 N   0  0  0  0  0  0
  -23.4233  -30.4868   21.5477 C   0  0  2  0  0  0
  -24.8596  -28.9436   20.1102 C   0  0  0  0  0  0
  -22.7529  -29.4616   22.4927 C   0  0  0  0  0  0
  -18.0300  -28.1419   22.8453 C   0  0  0  0  0  0
  -24.1470  -36.7280   23.2639 C   0  0  0  0  0  0
  -25.9686  -30.7846   21.3734 C   0  0  0  0  0  0
  -26.0311  -29.4128   20.7119 C   0  0  0  0  0  0
  -27.2076  -28.6070   20.6947 C   0  0  0  0  0  0
  -26.0098  -26.8879   19.4867 C   0  0  0  0  0  0
  -24.8529  -27.6887   19.4872 C   0  0  0  0  0  0
  -23.6348  -29.8327   20.1585 C   0  0  0  0  0  0
  -25.4098  -36.3098   24.0339 C   0  0  1  0  0  0
  -20.5907  -28.3718   23.1261 C   0  0  2  0  0  0
  -20.6795  -26.9446   22.5387 C   0  0  0  0  0  0
  -19.5766  -26.6410   21.5197 C   0  0  0  0  0  0
  -18.1944  -26.7966   22.1600 C   0  0  0  0  0  0
  -19.1551  -28.8891   23.2854 C   0  0  0  0  0  0
  -18.9468  -30.1485   23.8876 C   0  0  0  0  0  0
  -17.6460  -30.6608   24.0571 C   0  0  0  0  0  0
  -25.9052  -34.9463   23.5111 C   0  0  0  0  0  0
  -16.5353  -29.9103   23.6331 C   0  0  0  0  0  0
  -16.7284  -28.6533   23.0334 C   0  0  0  0  0  0
  -26.4535  -31.6588   25.0761 C   0  0  0  0  0  0
  -25.3778  -31.3671   26.1487 C   0  0  0  0  0  0
  -27.0366  -30.3027   24.6189 C   0  0  0  0  0  0
  -27.6119  -32.4314   25.7504 C   0  0  0  0  0  0
  -27.5563  -37.1801   24.8487 C   0  0  0  0  0  0
  -21.4235  -29.3046   22.3663 N   0  0  0  0  0  0
  -26.4274  -37.3796   23.9429 N   0  0  0  0  0  0
  -24.6950  -31.0614   22.0958 N   0  0  0  0  0  0
  -23.4247  -28.8154   23.3014 O   0  0  0  0  0  0
  -28.3604  -26.4881   20.1669 O   0  0  0  0  0  0
  -26.5627  -34.8928   22.4685 O   0  0  0  0  0  0
  -23.5487  -32.1402   23.7313 O   0  0  0  0  0  0
  -30.9813  -19.4173   20.2802 C   0  0  0  0  0  0
  -31.0588  -17.9985   20.1470 C   0  0  0  0  0  0
  -28.6167  -19.2759   20.6440 C   0  0  0  0  0  0
  -29.7583  -20.1126   20.5298 C   0  0  0  0  0  0
  -29.9155  -17.1686   20.2628 C   0  0  0  0  0  0
  -28.6899  -17.8560   20.5007 C   0  0  0  0  0  0
  -30.1783  -23.7811   21.0895 C   0  0  0  0  0  0
  -30.6567  -22.4014   21.0912 C   0  0  0  0  0  0
  -31.0378  -24.8034   21.2677 C   0  0  0  0  0  0
  -28.4852  -22.4154   20.2479 C   0  0  0  0  0  0
  -28.7096  -23.9016   20.7432 C   0  0  1  0  0  0
  -27.8463  -24.1317   22.0018 C   0  0  0  0  0  0
  -29.7998  -15.7217   18.3452 C   0  0  0  0  0  0
  -28.3883  -25.0745   19.7054 C   0  0  0  0  0  0
  -29.6732  -21.5883   20.6281 N   0  0  0  0  0  0
  -27.5071  -17.1308   20.4838 N   0  0  0  0  0  0
  -29.9199  -15.7686   19.8144 N   0  0  0  0  0  0
  -31.7722  -22.0315   21.4754 O   0  0  0  0  0  0
  -31.4667  -12.4928   19.1524 H   0  0  0  0  0  0
  -30.3772  -11.4371   20.0096 H   0  0  0  0  0  0
  -29.7327  -11.4853   17.6299 H   0  0  0  0  0  0
  -29.6771  -13.2080   17.5833 H   0  0  0  0  0  0
  -27.8054  -11.2625   18.9093 H   0  0  0  0  0  0
  -27.3823  -12.5248   17.7858 H   0  0  0  0  0  0
  -27.6003  -14.2353   19.4583 H   0  0  0  0  0  0
  -28.7142  -12.2143   21.4594 H   0  0  0  0  0  0
  -28.4532  -13.9231   21.7323 H   0  0  0  0  0  0
  -25.2770   -9.5652   22.4779 H   0  0  0  0  0  0
  -23.9988   -7.4620   22.7507 H   0  0  0  0  0  0
  -21.0830   -8.8760   19.8971 H   0  0  0  0  0  0
  -22.3710  -10.9644   19.6161 H   0  0  0  0  0  0
  -21.2002   -7.6143   23.9705 H   0  0  0  0  0  0
  -21.1471   -6.0518   25.9071 H   0  0  0  0  0  0
  -22.0604   -2.7605   23.2823 H   0  0  0  0  0  0
  -22.3986  -11.9826   22.4855 H   0  0  0  0  0  0
  -21.1000  -13.1184   22.2616 H   0  0  0  0  0  0
  -24.6004  -15.7784   20.6895 H   0  0  0  0  0  0
  -26.2710  -15.6627   20.5557 H   0  0  0  0  0  0
  -26.7239  -32.5410   23.1134 H   0  0  0  0  0  0
  -25.0203  -33.9767   25.0512 H   0  0  0  0  0  0
  -22.7164  -31.3083   21.4124 H   0  0  0  0  0  0
  -23.3742  -35.9603   23.3335 H   0  0  0  0  0  0
  -24.3554  -36.8865   22.2046 H   0  0  0  0  0  0
  -23.7196  -37.6479   23.6631 H   0  0  0  0  0  0
  -26.1167  -31.5411   20.5993 H   0  0  0  0  0  0
  -26.8469  -30.8195   22.0073 H   0  0  0  0  0  0
  -28.1108  -28.9733   21.1591 H   0  0  0  0  0  0
  -25.8941  -25.9360   18.9986 H   0  0  0  0  0  0
  -23.9538  -27.3204   19.0129 H   0  0  0  0  0  0
  -23.7790  -30.6203   19.4190 H   0  0  0  0  0  0
  -22.7474  -29.2872   19.8317 H   0  0  0  0  0  0
  -25.1262  -36.1959   25.0827 H   0  0  0  0  0  0
  -20.9976  -28.3280   24.1393 H   0  0  0  0  0  0
  -20.5717  -26.2334   23.3591 H   0  0  0  0  0  0
  -21.6660  -26.7503   22.1153 H   0  0  0  0  0  0
  -19.6928  -25.6317   21.1238 H   0  0  0  0  0  0
  -19.6695  -27.3214   20.6723 H   0  0  0  0  0  0
  -17.4215  -26.6707   21.4002 H   0  0  0  0  0  0
  -18.0337  -26.0133   22.9017 H   0  0  0  0  0  0
  -19.7939  -30.7315   24.2239 H   0  0  0  0  0  0
  -17.5012  -31.6270   24.5205 H   0  0  0  0  0  0
  -15.5353  -30.3001   23.7678 H   0  0  0  0  0  0
  -15.8685  -28.0853   22.7062 H   0  0  0  0  0  0
  -24.5993  -30.6985   25.7789 H   0  0  0  0  0  0
  -24.8933  -32.2805   26.4947 H   0  0  0  0  0  0
  -25.8137  -30.8832   27.0242 H   0  0  0  0  0  0
  -26.2908  -29.6768   24.1283 H   0  0  0  0  0  0
  -27.4162  -29.7290   25.4651 H   0  0  0  0  0  0
  -27.8743  -30.4338   23.9340 H   0  0  0  0  0  0
  -27.2777  -33.3631   26.2079 H   0  0  0  0  0  0
  -28.3913  -32.6847   25.0301 H   0  0  0  0  0  0
  -28.0823  -31.8455   26.5413 H   0  0  0  0  0  0
  -28.2622  -38.0063   24.7526 H   0  0  0  0  0  0
  -28.1028  -36.2608   24.6322 H   0  0  0  0  0  0
  -27.2318  -37.1461   25.8906 H   0  0  0  0  0  0
  -20.9472  -29.8751   21.6815 H   0  0  0  0  0  0
  -26.0163  -38.2873   24.1435 H   0  0  0  0  0  0
  -31.8957  -19.9712   20.1287 H   0  0  0  0  0  0
  -32.0054  -17.5575   19.8636 H   0  0  0  0  0  0
  -27.6518  -19.7352   20.8046 H   0  0  0  0  0  0
  -32.0893  -24.6321   21.4515 H   0  0  0  0  0  0
  -30.7095  -25.8310   21.2187 H   0  0  0  0  0  0
  -28.3753  -22.3859   19.1627 H   0  0  0  0  0  0
  -27.5755  -21.9884   20.6685 H   0  0  0  0  0  0
  -27.9313  -23.3056   22.7108 H   0  0  0  0  0  0
  -26.7902  -24.2246   21.7381 H   0  0  0  0  0  0
  -28.1323  -25.0442   22.5255 H   0  0  0  0  0  0
  -30.6082  -15.1558   17.8774 H   0  0  0  0  0  0
  -29.8396  -16.7127   17.8901 H   0  0  0  0  0  0
  -28.8520  -15.2877   18.0370 H   0  0  0  0  0  0
  -27.4901  -24.7763   19.1784 H   0  0  0  0  0  0
  -29.1517  -25.0355   18.9283 H   0  0  0  0  0  0
  -26.6598  -17.6890   20.4365 H   0  0  0  0  0  0
  -27.5189  -16.4360   19.7463 H   0  0  0  0  0  0
  1 25  1  0  0  0
  1 30  2  0  0  0
  1 87  1  0  0  0
  2  3  1  0  0  0
  2 25  1  0  0  0
  2 89  1  0  0  0
  2 90  1  0  0  0
  3  4  1  0  0  0
  3 91  1  0  0  0
  3 92  1  0  0  0
  4  5  1  0  0  0
  4 93  1  0  0  0
  4 94  1  0  0  0
  5  6  1  0  0  0
  5 26  1  0  0  0
  5 95  1  0  0  0
  6 25  1  0  0  0
  6 96  1  0  0  0
  6 97  1  0  0  0
  7  8  2  0  0  0
  7 26  1  0  0  0
  7 29  1  0  0  0
  8  9  1  0  0  0
  8 22  1  0  0  0
  9 10  1  0  0  0
  9 27  2  0  0  0
 10 11  2  0  0  0
 10 15  1  0  0  0
 11 12  1  0  0  0
 11 98  1  0  0  0
 12 13  2  0  0  0
 12 99  1  0  0  0
 13 14  1  0  0  0
 13 31  1  0  0  0
 14 15  2  0  0  0
 14100  1  0  0  0
 15101  1  0  0  0
 16 17  2  0  0  0
 16 21  1  0  0  0
 16 31  1  0  0  0
 17 18  1  0  0  0
 17102  1  0  0  0
 18 19  2  0  0  0
 18103  1  0  0  0
 19 20  1  0  0  0
 19 24  1  0  0  0
 20 21  2  0  0  0
 20104  1  0  0  0
 21 23  1  0  0  0
 22 28  1  0  0  0
 22 32  2  0  0  0
 26 27  1  0  0  0
 28105  1  0  0  0
 28106  1  0  0  0
 29107  1  0  0  0
 29108  1  0  0  0
 33 34  1  0  0  0
 33 66  1  0  0  0
 33 70  2  0  0  0
 34 36  1  0  0  0
 34 59  1  0  0  0
 34109  1  0  0  0
 35 44  2  0  0  0
 35 45  1  0  0  0
 35 68  1  0  0  0
 36 56  1  0  0  0
 36110  1  0  0  0
 37 39  1  0  0  0
 37 47  1  0  0  0
 37 66  1  0  0  0
 37111  1  0  0  0
 38 43  2  0  0  0
 38 46  1  0  0  0
 38 47  1  0  0  0
 39 64  1  0  0  0
 39 67  2  0  0  0
 40 52  1  0  0  0
 40 53  2  0  0  0
 40 58  1  0  0  0
 41112  1  0  0  0
 41113  1  0  0  0
 41114  1  0  0  0
 41 48  1  0  0  0
 42 43  1  0  0  0
 42 66  1  0  0  0
 42115  1  0  0  0
 42116  1  0  0  0
 43 44  1  0  0  0
 44117  1  0  0  0
 45 46  2  0  0  0
 45118  1  0  0  0
 46119  1  0  0  0
 47120  1  0  0  0
 47121  1  0  0  0
 48 56  1  0  0  0
 48 65  1  0  0  0
 48122  1  0  0  0
 49 50  1  0  0  0
 49 53  1  0  0  0
 49 64  1  0  0  0
 49123  1  0  0  0
 50 51  1  0  0  0
 50124  1  0  0  0
 50125  1  0  0  0
 51 52  1  0  0  0
 51126  1  0  0  0
 51127  1  0  0  0
 52128  1  0  0  0
 52129  1  0  0  0
 53 54  1  0  0  0
 54 55  2  0  0  0
 54130  1  0  0  0
 55 57  1  0  0  0
 55131  1  0  0  0
 56 69  2  0  0  0
 57 58  2  0  0  0
 57132  1  0  0  0
 58133  1  0  0  0
 59 60  1  0  0  0
 59 61  1  0  0  0
 59 62  1  0  0  0
 60134  1  0  0  0
 60135  1  0  0  0
 60136  1  0  0  0
 61137  1  0  0  0
 61138  1  0  0  0
 61139  1  0  0  0
 62140  1  0  0  0
 62141  1  0  0  0
 62142  1  0  0  0
 63 65  1  0  0  0
 63143  1  0  0  0
 63144  1  0  0  0
 63145  1  0  0  0
 64146  1  0  0  0
 65147  1  0  0  0
 68 84  1  0  0  0
 71 72  2  0  0  0
 71 74  1  0  0  0
 71148  1  0  0  0
 72 75  1  0  0  0
 72149  1  0  0  0
 73 74  2  0  0  0
 73 76  1  0  0  0
 73150  1  0  0  0
 74 85  1  0  0  0
 75 76  2  0  0  0
 75 87  1  0  0  0
 76 86  1  0  0  0
 77 78  1  0  0  0
 77 79  2  0  0  0
 77 81  1  0  0  0
 78 85  1  0  0  0
 78 88  2  0  0  0
 79151  1  0  0  0
 79152  1  0  0  0
 80 81  1  0  0  0
 80 85  1  0  0  0
 80153  1  0  0  0
 80154  1  0  0  0
 81 82  1  0  0  0
 81 84  1  0  0  0
 82155  1  0  0  0
 82156  1  0  0  0
 82157  1  0  0  0
 83 87  1  0  0  0
 83158  1  0  0  0
 83159  1  0  0  0
 83160  1  0  0  0
 84161  1  0  0  0
 84162  1  0  0  0
 86163  1  0  0  0
 86164  1  0  0  0
M  ISO  4   1 100  68 101  84 101  87 100
M  END
> <chiral flag>
0

> <version>
0

> <s_m_source_file>
/data/baiqing/PycharmProjects/Reinvent-master-3.2/result/LINK_invent/BTK/process_docking_weight1_custom_product_contain_oxygen_bond_distance_aromatic_linkinvent_7_9_3/rearranged_h_0075.sdf

> <i_m_source_file_index>
69

> <r_mmod_Potential_Energy-OPLS-2005>
407.110534667969

> <r_mmod_Stretch_Energy-OPLS-2005>
90.7419586181641

> <r_mmod_Bend_Energy-OPLS-2005>
184.609329223633

> <r_mmod_Torsional_Energy-OPLS-2005>
401.100891113281

> <r_mmod_Improper_Torsional_Energy-OPLS-2005>
35.0165367126465

> <r_mmod_Van_der_Waal_Energy-OPLS-2005>
156.273788452148

> <r_mmod_Electrostatic_Energy-OPLS-2005>
-338.45654296875

> <r_mmod_Solvation_Energy-OPLS-2005>
-200.795364379883

> <b_mmod_Minimization_Converged-OPLS-2005>
0

> <r_mmod_RMS_Derivative-OPLS-2005>
3.72352051734924

$$$$
70
                    3D
 Structure written by MMmdl.
147154  0  0  1  0            999 V2000
  -30.5020  -15.0926   20.3912 C   0  0  0  0  0  0
  -30.4376  -12.6864   19.5136 C   0  0  0  0  0  0
  -29.5268  -12.5489   18.2704 C   0  0  0  0  0  0
  -28.0660  -12.3087   18.6922 C   0  0  0  0  0  0
  -27.6198  -13.2625   19.8301 C   0  0  2  0  0  0
  -28.6587  -13.3630   20.9668 C   0  0  0  0  0  0
  -25.2417  -13.8234   20.5729 C   0  0  0  0  0  0
  -24.1753  -13.0436   20.9240 C   0  0  0  0  0  0
  -24.6393  -11.6929   20.8757 C   0  0  0  0  0  0
  -23.9084  -10.4293   21.0406 C   0  0  0  0  0  0
  -24.3631   -9.4206   21.9184 C   0  0  0  0  0  0
  -23.6301   -8.2243   22.0754 C   0  0  0  0  0  0
  -22.4282   -8.0282   21.3545 C   0  0  0  0  0  0
  -21.9922   -9.0256   20.4646 C   0  0  0  0  0  0
  -22.7255  -10.2133   20.3055 C   0  0  0  0  0  0
  -21.6856   -6.0736   22.5279 C   0  0  0  0  0  0
  -21.4017   -6.5640   23.8212 C   0  0  0  0  0  0
  -21.3661   -5.6792   24.9174 C   0  0  0  0  0  0
  -21.6044   -4.3055   24.7225 C   0  0  0  0  0  0
  -21.8819   -3.8147   23.4346 C   0  0  0  0  0  0
  -21.9193   -4.6964   22.3402 C   0  0  0  0  0  0
  -22.7772  -13.5195   21.1893 C   0  0  0  0  0  0
  -22.1662   -4.2149   21.0980 F   0  0  0  0  0  0
  -21.5628   -3.4538   25.7737 F   0  0  0  0  0  0
  -29.9147  -13.8140   20.3529 N   0  0  0  0  0  0
  -26.2845  -12.9491   20.3230 N   0  0  0  0  0  0
  -25.9328  -11.6606   20.5731 N   0  0  0  0  0  0
  -22.0430  -12.8179   22.0451 N   0  0  0  0  0  0
  -25.4050  -15.1968   20.4168 N   0  0  0  0  0  0
  -31.7170  -15.1105   20.1597 O   0  0  0  0  0  0
  -21.6644   -6.8881   21.4241 O   0  0  0  0  0  0
  -22.3450  -14.5496   20.6735 O   0  0  0  0  0  0
  -24.6522  -31.8345   23.1805 C   0  0  0  0  0  0
  -25.9253  -32.4644   23.8227 C   0  0  1  0  0  0
  -27.2160  -27.0353   20.1725 C   0  0  0  0  0  0
  -25.5963  -33.8455   24.2136 N   0  0  0  0  0  0
  -23.4615  -30.4500   21.5273 C   0  0  2  0  0  0
  -24.9138  -28.8570   20.1129 C   0  0  0  0  0  0
  -22.7613  -29.4495   22.4822 C   0  0  0  0  0  0
  -18.0312  -28.1403   22.8471 C   0  0  0  0  0  0
  -24.1493  -36.7235   23.2645 C   0  0  0  0  0  0
  -26.0239  -30.6743   21.3969 C   0  0  0  0  0  0
  -26.0929  -29.2739   20.7441 C   0  0  0  0  0  0
  -27.2417  -28.3796   20.7573 C   0  0  0  0  0  0
  -26.0146  -26.7495   19.4878 C   0  0  0  0  0  0
  -24.8927  -27.6111   19.4675 C   0  0  0  0  0  0
  -23.6955  -29.7724   20.1501 C   0  0  0  0  0  0
  -25.4130  -36.3001   24.0306 C   0  0  1  0  0  0
  -20.5930  -28.3738   23.1213 C   0  0  2  0  0  0
  -20.6793  -26.9431   22.5404 C   0  0  0  0  0  0
  -19.5767  -26.6380   21.5213 C   0  0  0  0  0  0
  -18.1949  -26.7938   22.1623 C   0  0  0  0  0  0
  -19.1571  -28.8890   23.2831 C   0  0  0  0  0  0
  -18.9484  -30.1483   23.8862 C   0  0  0  0  0  0
  -17.6479  -30.6596   24.0558 C   0  0  0  0  0  0
  -25.9085  -34.9379   23.5036 C   0  0  0  0  0  0
  -16.5370  -29.9086   23.6340 C   0  0  0  0  0  0
  -16.7295  -28.6506   23.0358 C   0  0  0  0  0  0
  -26.4542  -31.6550   25.0712 C   0  0  0  0  0  0
  -25.3697  -31.3771   26.1387 C   0  0  0  0  0  0
  -27.0426  -30.2930   24.6374 C   0  0  0  0  0  0
  -27.6049  -32.4342   25.7508 C   0  0  0  0  0  0
  -27.5571  -37.1778   24.8468 C   0  0  0  0  0  0
  -21.4294  -29.3046   22.3572 N   0  0  0  0  0  0
  -26.4286  -37.3723   23.9402 N   0  0  0  0  0  0
  -24.7328  -31.0106   22.0891 N   0  0  0  0  0  0
  -23.4210  -28.8053   23.3018 O   0  0  0  0  0  0
  -28.2428  -25.9889   20.2090 O   0  0  0  0  0  0
  -26.5684  -34.8893   22.4623 O   0  0  0  0  0  0
  -23.5617  -32.1268   23.6963 O   0  0  0  0  0  0
  -28.7883  -23.3192   20.2527 C   0  0  0  0  0  0
  -27.9730  -24.5157   20.3200 C   0  0  0  0  0  0
  -28.3525  -21.8022   20.4120 C   0  0  0  0  0  0
  -28.9850  -19.1992   20.4560 C   0  0  0  0  0  0
  -30.8050  -18.0962   18.9533 C   0  0  0  0  0  0
  -30.0812  -17.9110   20.2996 C   0  0  2  0  0  0
  -29.2225  -20.6355   20.3287 N   0  0  0  0  0  0
  -29.7441  -16.3287   20.4753 N   0  0  0  0  0  0
  -27.1552  -21.5964   20.6284 O   0  0  0  0  0  0
  -27.8445  -18.8035   20.7103 O   0  0  0  0  0  0
  -31.4663  -12.8597   19.1944 H   0  0  0  0  0  0
  -30.4594  -11.7566   20.0843 H   0  0  0  0  0  0
  -29.8730  -11.7345   17.6326 H   0  0  0  0  0  0
  -29.5898  -13.4579   17.6701 H   0  0  0  0  0  0
  -27.9886  -11.2746   19.0297 H   0  0  0  0  0  0
  -27.4003  -12.4001   17.8330 H   0  0  0  0  0  0
  -27.5593  -14.2484   19.3679 H   0  0  0  0  0  0
  -28.7820  -12.4079   21.4797 H   0  0  0  0  0  0
  -28.3322  -14.0817   21.7201 H   0  0  0  0  0  0
  -25.2774   -9.5683   22.4762 H   0  0  0  0  0  0
  -24.0008   -7.4635   22.7474 H   0  0  0  0  0  0
  -21.0853   -8.8777   19.8952 H   0  0  0  0  0  0
  -22.3712  -10.9672   19.6165 H   0  0  0  0  0  0
  -21.2013   -7.6149   23.9716 H   0  0  0  0  0  0
  -21.1483   -6.0523   25.9077 H   0  0  0  0  0  0
  -22.0597   -2.7609   23.2845 H   0  0  0  0  0  0
  -22.4064  -11.9852   22.4845 H   0  0  0  0  0  0
  -21.1042  -13.1188   22.2656 H   0  0  0  0  0  0
  -24.6342  -15.8451   20.5363 H   0  0  0  0  0  0
  -26.2469  -15.6459   20.0809 H   0  0  0  0  0  0
  -26.7318  -32.5218   23.0946 H   0  0  0  0  0  0
  -25.0070  -33.9552   25.0257 H   0  0  0  0  0  0
  -22.7691  -31.2785   21.3646 H   0  0  0  0  0  0
  -23.3757  -35.9565   23.3296 H   0  0  0  0  0  0
  -24.3570  -36.8885   22.2061 H   0  0  0  0  0  0
  -23.7252  -37.6425   23.6700 H   0  0  0  0  0  0
  -26.1916  -31.4203   20.6189 H   0  0  0  0  0  0
  -26.8894  -30.7293   22.0454 H   0  0  0  0  0  0
  -28.1383  -28.6940   21.2726 H   0  0  0  0  0  0
  -25.9184  -25.7997   18.9818 H   0  0  0  0  0  0
  -23.9972  -27.2892   18.9537 H   0  0  0  0  0  0
  -23.8428  -30.5438   19.3933 H   0  0  0  0  0  0
  -22.8079  -29.2209   19.8352 H   0  0  0  0  0  0
  -25.1326  -36.1814   25.0798 H   0  0  0  0  0  0
  -21.0019  -28.3337   24.1335 H   0  0  0  0  0  0
  -20.5682  -26.2353   23.3633 H   0  0  0  0  0  0
  -21.6658  -26.7424   22.1205 H   0  0  0  0  0  0
  -19.6928  -25.6281   21.1266 H   0  0  0  0  0  0
  -19.6705  -27.3170   20.6727 H   0  0  0  0  0  0
  -17.4217  -26.6679   21.4028 H   0  0  0  0  0  0
  -18.0348  -26.0090   22.9031 H   0  0  0  0  0  0
  -19.7959  -30.7309   24.2216 H   0  0  0  0  0  0
  -17.5031  -31.6271   24.5168 H   0  0  0  0  0  0
  -15.5368  -30.2976   23.7685 H   0  0  0  0  0  0
  -15.8695  -28.0813   22.7093 H   0  0  0  0  0  0
  -24.5888  -30.7109   25.7703 H   0  0  0  0  0  0
  -24.8875  -32.2964   26.4721 H   0  0  0  0  0  0
  -25.7954  -30.9002   27.0225 H   0  0  0  0  0  0
  -26.3071  -29.6626   24.1365 H   0  0  0  0  0  0
  -27.3976  -29.7266   25.4994 H   0  0  0  0  0  0
  -27.9005  -30.4134   23.9756 H   0  0  0  0  0  0
  -27.2622  -33.3672   26.1996 H   0  0  0  0  0  0
  -28.3907  -32.6859   25.0374 H   0  0  0  0  0  0
  -28.0665  -31.8531   26.5501 H   0  0  0  0  0  0
  -28.2586  -38.0075   24.7494 H   0  0  0  0  0  0
  -28.1068  -36.2601   24.6323 H   0  0  0  0  0  0
  -27.2282  -37.1457   25.8869 H   0  0  0  0  0  0
  -20.9527  -29.8742   21.6721 H   0  0  0  0  0  0
  -26.0144  -38.2789   24.1394 H   0  0  0  0  0  0
  -29.8401  -23.4814   20.0722 H   0  0  0  0  0  0
  -26.9182  -24.3682   20.5050 H   0  0  0  0  0  0
  -31.0802  -19.1363   18.7761 H   0  0  0  0  0  0
  -30.1752  -17.7774   18.1223 H   0  0  0  0  0  0
  -31.7276  -17.5177   18.9136 H   0  0  0  0  0  0
  -30.8158  -18.1119   21.0802 H   0  0  0  0  0  0
  -30.1875  -20.8627   20.1409 H   0  0  0  0  0  0
  -28.7611  -16.1735   20.6457 H   0  0  0  0  0  0
  1 25  1  0  0  0
  1 30  2  0  0  0
  1 78  1  0  0  0
  2  3  1  0  0  0
  2 25  1  0  0  0
  2 81  1  0  0  0
  2 82  1  0  0  0
  3  4  1  0  0  0
  3 83  1  0  0  0
  3 84  1  0  0  0
  4  5  1  0  0  0
  4 85  1  0  0  0
  4 86  1  0  0  0
  5  6  1  0  0  0
  5 26  1  0  0  0
  5 87  1  0  0  0
  6 25  1  0  0  0
  6 88  1  0  0  0
  6 89  1  0  0  0
  7  8  2  0  0  0
  7 26  1  0  0  0
  7 29  1  0  0  0
  8  9  1  0  0  0
  8 22  1  0  0  0
  9 10  1  0  0  0
  9 27  2  0  0  0
 10 11  2  0  0  0
 10 15  1  0  0  0
 11 12  1  0  0  0
 11 90  1  0  0  0
 12 13  2  0  0  0
 12 91  1  0  0  0
 13 14  1  0  0  0
 13 31  1  0  0  0
 14 15  2  0  0  0
 14 92  1  0  0  0
 15 93  1  0  0  0
 16 17  2  0  0  0
 16 21  1  0  0  0
 16 31  1  0  0  0
 17 18  1  0  0  0
 17 94  1  0  0  0
 18 19  2  0  0  0
 18 95  1  0  0  0
 19 20  1  0  0  0
 19 24  1  0  0  0
 20 21  2  0  0  0
 20 96  1  0  0  0
 21 23  1  0  0  0
 22 28  1  0  0  0
 22 32  2  0  0  0
 26 27  1  0  0  0
 28 97  1  0  0  0
 28 98  1  0  0  0
 29 99  1  0  0  0
 29100  1  0  0  0
 33 34  1  0  0  0
 33 66  1  0  0  0
 33 70  2  0  0  0
 34 36  1  0  0  0
 34 59  1  0  0  0
 34101  1  0  0  0
 35 44  2  0  0  0
 35 45  1  0  0  0
 35 68  1  0  0  0
 36 56  1  0  0  0
 36102  1  0  0  0
 37 39  1  0  0  0
 37 47  1  0  0  0
 37 66  1  0  0  0
 37103  1  0  0  0
 38 43  2  0  0  0
 38 46  1  0  0  0
 38 47  1  0  0  0
 39 64  1  0  0  0
 39 67  2  0  0  0
 40 52  1  0  0  0
 40 53  2  0  0  0
 40 58  1  0  0  0
 41104  1  0  0  0
 41105  1  0  0  0
 41106  1  0  0  0
 41 48  1  0  0  0
 42 43  1  0  0  0
 42 66  1  0  0  0
 42107  1  0  0  0
 42108  1  0  0  0
 43 44  1  0  0  0
 44109  1  0  0  0
 45 46  2  0  0  0
 45110  1  0  0  0
 46111  1  0  0  0
 47112  1  0  0  0
 47113  1  0  0  0
 48 56  1  0  0  0
 48 65  1  0  0  0
 48114  1  0  0  0
 49 50  1  0  0  0
 49 53  1  0  0  0
 49 64  1  0  0  0
 49115  1  0  0  0
 50 51  1  0  0  0
 50116  1  0  0  0
 50117  1  0  0  0
 51 52  1  0  0  0
 51118  1  0  0  0
 51119  1  0  0  0
 52120  1  0  0  0
 52121  1  0  0  0
 53 54  1  0  0  0
 54 55  2  0  0  0
 54122  1  0  0  0
 55 57  1  0  0  0
 55123  1  0  0  0
 56 69  2  0  0  0
 57 58  2  0  0  0
 57124  1  0  0  0
 58125  1  0  0  0
 59 60  1  0  0  0
 59 61  1  0  0  0
 59 62  1  0  0  0
 60126  1  0  0  0
 60127  1  0  0  0
 60128  1  0  0  0
 61129  1  0  0  0
 61130  1  0  0  0
 61131  1  0  0  0
 62132  1  0  0  0
 62133  1  0  0  0
 62134  1  0  0  0
 63 65  1  0  0  0
 63135  1  0  0  0
 63136  1  0  0  0
 63137  1  0  0  0
 64138  1  0  0  0
 65139  1  0  0  0
 68 72  1  0  0  0
 71 72  2  0  0  0
 71 73  1  0  0  0
 71140  1  0  0  0
 72141  1  0  0  0
 73 77  1  0  0  0
 73 79  2  0  0  0
 74 76  1  0  0  0
 74 77  1  0  0  0
 74 80  2  0  0  0
 75142  1  0  0  0
 75143  1  0  0  0
 75144  1  0  0  0
 75 76  1  0  0  0
 76 78  1  0  0  0
 76145  1  0  0  0
 77146  1  0  0  0
 78147  1  0  0  0
M  ISO  4   1 100  68 101  72 101  78 100
M  END
> <chiral flag>
0

> <version>
0

> <s_m_source_file>
/data/baiqing/PycharmProjects/Reinvent-master-3.2/result/LINK_invent/BTK/process_docking_weight1_custom_product_contain_oxygen_bond_distance_aromatic_linkinvent_7_9_3/rearranged_h_0075.sdf

> <i_m_source_file_index>
70

> <r_mmod_Potential_Energy-OPLS-2005>
473.016571044922

> <r_mmod_Stretch_Energy-OPLS-2005>
359.229400634766

> <r_mmod_Bend_Energy-OPLS-2005>
292.882843017578

> <r_mmod_Torsional_Energy-OPLS-2005>
205.211883544922

> <r_mmod_Improper_Torsional_Energy-OPLS-2005>
4.22336149215698

> <r_mmod_Van_der_Waal_Energy-OPLS-2005>
113.914352416992

> <r_mmod_Electrostatic_Energy-OPLS-2005>
-535.440673828125

> <r_mmod_Solvation_Energy-OPLS-2005>
-267.553039550781

> <b_mmod_Minimization_Converged-OPLS-2005>
0

> <r_mmod_RMS_Derivative-OPLS-2005>
0.182136684656143

$$$$
71
                    3D
 Structure written by MMmdl.
161170  0  0  1  0            999 V2000
  -30.7416  -14.4465   20.6297 C   0  0  0  0  0  0
  -30.4156  -12.3158   19.4151 C   0  0  0  0  0  0
  -29.4892  -12.5202   18.2011 C   0  0  0  0  0  0
  -28.0129  -12.3732   18.6151 C   0  0  0  0  0  0
  -27.6598  -13.2117   19.8718 C   0  0  2  0  0  0
  -28.6982  -12.9961   20.9926 C   0  0  0  0  0  0
  -25.2583  -13.8178   20.5682 C   0  0  0  0  0  0
  -24.1836  -13.0447   20.9169 C   0  0  0  0  0  0
  -24.6397  -11.6915   20.8726 C   0  0  0  0  0  0
  -23.9065  -10.4298   21.0398 C   0  0  0  0  0  0
  -24.3616   -9.4215   21.9178 C   0  0  0  0  0  0
  -23.6293   -8.2249   22.0753 C   0  0  0  0  0  0
  -22.4275   -8.0285   21.3543 C   0  0  0  0  0  0
  -21.9907   -9.0257   20.4646 C   0  0  0  0  0  0
  -22.7235  -10.2137   20.3050 C   0  0  0  0  0  0
  -21.6854   -6.0737   22.5281 C   0  0  0  0  0  0
  -21.4015   -6.5639   23.8214 C   0  0  0  0  0  0
  -21.3660   -5.6792   24.9175 C   0  0  0  0  0  0
  -21.6045   -4.3054   24.7225 C   0  0  0  0  0  0
  -21.8819   -3.8147   23.4346 C   0  0  0  0  0  0
  -21.9193   -4.6965   22.3402 C   0  0  0  0  0  0
  -22.7860  -13.5241   21.1843 C   0  0  0  0  0  0
  -22.1661   -4.2150   21.0980 F   0  0  0  0  0  0
  -21.5629   -3.4537   25.7737 F   0  0  0  0  0  0
  -30.0337  -13.2950   20.4464 N   0  0  0  0  0  0
  -26.3018  -12.9354   20.3350 N   0  0  0  0  0  0
  -25.9323  -11.6509   20.5749 N   0  0  0  0  0  0
  -22.0501  -12.8230   22.0400 N   0  0  0  0  0  0
  -25.4314  -15.1895   20.4119 N   0  0  0  0  0  0
  -31.8180  -14.6610   20.0627 O   0  0  0  0  0  0
  -21.6641   -6.8880   21.4242 O   0  0  0  0  0  0
  -22.3540  -14.5548   20.6700 O   0  0  0  0  0  0
  -24.6165  -31.8662   23.2086 C   0  0  0  0  0  0
  -25.9051  -32.4813   23.8389 C   0  0  1  0  0  0
  -27.2286  -27.4182   20.0994 C   0  0  0  0  0  0
  -25.5907  -33.8615   24.2321 N   0  0  0  0  0  0
  -23.4044  -30.4901   21.5496 C   0  0  2  0  0  0
  -24.8492  -28.9556   20.1115 C   0  0  0  0  0  0
  -22.7421  -29.4648   22.4982 C   0  0  0  0  0  0
  -18.0272  -28.1368   22.8493 C   0  0  0  0  0  0
  -24.1490  -36.7310   23.2639 C   0  0  0  0  0  0
  -25.9350  -30.8289   21.3616 C   0  0  0  0  0  0
  -26.0116  -29.4636   20.7054 C   0  0  0  0  0  0
  -27.2064  -28.7052   20.6889 C   0  0  0  0  0  0
  -26.0491  -26.9314   19.4929 C   0  0  0  0  0  0
  -24.8641  -27.6906   19.4996 C   0  0  0  0  0  0
  -23.6116  -29.8230   20.1638 C   0  0  0  0  0  0
  -25.4107  -36.3104   24.0340 C   0  0  1  0  0  0
  -20.5865  -28.3654   23.1312 C   0  0  2  0  0  0
  -20.6758  -26.9390   22.5411 C   0  0  0  0  0  0
  -19.5741  -26.6377   21.5204 C   0  0  0  0  0  0
  -18.1921  -26.7916   22.1618 C   0  0  0  0  0  0
  -19.1523  -28.8830   23.2899 C   0  0  0  0  0  0
  -18.9449  -30.1438   23.8906 C   0  0  0  0  0  0
  -17.6452  -30.6577   24.0560 C   0  0  0  0  0  0
  -25.9040  -34.9472   23.5127 C   0  0  0  0  0  0
  -16.5342  -29.9077   23.6327 C   0  0  0  0  0  0
  -16.7262  -28.6492   23.0349 C   0  0  0  0  0  0
  -26.4472  -31.6597   25.0723 C   0  0  0  0  0  0
  -25.3745  -31.3696   26.1478 C   0  0  0  0  0  0
  -27.0298  -30.3043   24.6092 C   0  0  0  0  0  0
  -27.6052  -32.4310   25.7483 C   0  0  0  0  0  0
  -27.5579  -37.1806   24.8465 C   0  0  0  0  0  0
  -21.4147  -29.3024   22.3723 N   0  0  0  0  0  0
  -26.4290  -37.3789   23.9412 N   0  0  0  0  0  0
  -24.6706  -31.0762   22.0982 N   0  0  0  0  0  0
  -23.4191  -28.8194   23.3027 O   0  0  0  0  0  0
  -28.3865  -26.6626   20.1238 O   0  0  0  0  0  0
  -26.5600  -34.8927   22.4687 O   0  0  0  0  0  0
  -23.5355  -32.1406   23.7481 O   0  0  0  0  0  0
  -29.2491  -19.0735   21.4276 C   0  0  0  0  0  0
  -29.5573  -16.9692   19.5915 C   0  0  0  0  0  0
  -29.6058  -17.7788   21.8808 C   0  0  0  0  0  0
  -29.7929  -16.7016   20.9662 C   0  0  0  0  0  0
  -29.0425  -19.3296   20.0531 C   0  0  0  0  0  0
  -29.1863  -18.2576   19.1476 C   0  0  0  0  0  0
  -28.6678  -21.8392   20.0189 C   0  0  0  0  0  0
  -29.7806  -17.5670   23.3736 C   0  0  0  0  0  0
  -29.6138  -16.0985   23.7621 C   0  0  0  0  0  0
  -30.4817  -15.2019   22.8741 C   0  0  0  0  0  0
  -27.9613  -22.9276   19.1808 C   0  0  0  0  0  0
  -28.5610  -24.3660   19.1770 C   0  0  0  0  0  0
  -28.2419  -25.2517   20.4046 C   0  0  0  0  0  0
  -30.1940  -15.3876   21.4422 N   0  0  0  0  0  0
  -28.6187  -20.5872   19.5143 N   0  0  0  0  0  0
  -29.2327  -22.1367   21.0727 O   0  0  0  0  0  0
  -28.9598  -18.4685   17.8278 F   0  0  0  0  0  0
  -31.4605  -12.4082   19.1135 H   0  0  0  0  0  0
  -30.3116  -11.3033   19.8082 H   0  0  0  0  0  0
  -29.7302  -11.8014   17.4168 H   0  0  0  0  0  0
  -29.6550  -13.5096   17.7716 H   0  0  0  0  0  0
  -27.8264  -11.3164   18.8100 H   0  0  0  0  0  0
  -27.3600  -12.6474   17.7856 H   0  0  0  0  0  0
  -27.7040  -14.2606   19.5781 H   0  0  0  0  0  0
  -28.6719  -11.9643   21.3453 H   0  0  0  0  0  0
  -28.4397  -13.6067   21.8576 H   0  0  0  0  0  0
  -25.2763   -9.5691   22.4749 H   0  0  0  0  0  0
  -24.0005   -7.4638   22.7468 H   0  0  0  0  0  0
  -21.0840   -8.8770   19.8951 H   0  0  0  0  0  0
  -22.3691  -10.9672   19.6156 H   0  0  0  0  0  0
  -21.2006   -7.6147   23.9717 H   0  0  0  0  0  0
  -21.1483   -6.0522   25.9078 H   0  0  0  0  0  0
  -22.0598   -2.7609   23.2843 H   0  0  0  0  0  0
  -22.4118  -11.9887   22.4780 H   0  0  0  0  0  0
  -21.1123  -13.1257   22.2613 H   0  0  0  0  0  0
  -24.6704  -15.8490   20.5313 H   0  0  0  0  0  0
  -26.2976  -15.6297   20.1287 H   0  0  0  0  0  0
  -26.7127  -32.5513   23.1157 H   0  0  0  0  0  0
  -25.0079  -33.9784   25.0480 H   0  0  0  0  0  0
  -22.6935  -31.3071   21.4114 H   0  0  0  0  0  0
  -23.3747  -35.9648   23.3309 H   0  0  0  0  0  0
  -24.3587  -36.8915   22.2051 H   0  0  0  0  0  0
  -23.7249  -37.6522   23.6648 H   0  0  0  0  0  0
  -26.0506  -31.5961   20.5947 H   0  0  0  0  0  0
  -26.8220  -30.8789   21.9820 H   0  0  0  0  0  0
  -28.1050  -29.0933   21.1482 H   0  0  0  0  0  0
  -26.0362  -25.9623   19.0149 H   0  0  0  0  0  0
  -23.9713  -27.2959   19.0343 H   0  0  0  0  0  0
  -23.7191  -30.5986   19.4046 H   0  0  0  0  0  0
  -22.7350  -29.2432   19.8688 H   0  0  0  0  0  0
  -25.1282  -36.1967   25.0832 H   0  0  0  0  0  0
  -20.9957  -28.3210   24.1432 H   0  0  0  0  0  0
  -20.5645  -26.2261   23.3594 H   0  0  0  0  0  0
  -21.6630  -26.7421   22.1212 H   0  0  0  0  0  0
  -19.6901  -25.6290   21.1229 H   0  0  0  0  0  0
  -19.6688  -27.3193   20.6739 H   0  0  0  0  0  0
  -17.4188  -26.6664   21.4022 H   0  0  0  0  0  0
  -18.0331  -26.0047   22.9007 H   0  0  0  0  0  0
  -19.7927  -30.7250   24.2277 H   0  0  0  0  0  0
  -17.5007  -31.6262   24.5152 H   0  0  0  0  0  0
  -15.5343  -30.2977   23.7647 H   0  0  0  0  0  0
  -15.8664  -28.0814   22.7055 H   0  0  0  0  0  0
  -24.5927  -30.7031   25.7817 H   0  0  0  0  0  0
  -24.8924  -32.2843   26.4936 H   0  0  0  0  0  0
  -25.8106  -30.8866   27.0232 H   0  0  0  0  0  0
  -26.2834  -29.6816   24.1147 H   0  0  0  0  0  0
  -27.4069  -29.7275   25.4546 H   0  0  0  0  0  0
  -27.8674  -30.4361   23.9238 H   0  0  0  0  0  0
  -27.2673  -33.3601   26.2086 H   0  0  0  0  0  0
  -28.3847  -32.6877   25.0298 H   0  0  0  0  0  0
  -28.0739  -31.8420   26.5377 H   0  0  0  0  0  0
  -28.2593  -38.0106   24.7512 H   0  0  0  0  0  0
  -28.1076  -36.2638   24.6282 H   0  0  0  0  0  0
  -27.2306  -37.1448   25.8870 H   0  0  0  0  0  0
  -20.9305  -29.8763   21.6964 H   0  0  0  0  0  0
  -26.0180  -38.2870   24.1407 H   0  0  0  0  0  0
  -29.1137  -19.8621   22.1533 H   0  0  0  0  0  0
  -29.6574  -16.1942   18.8464 H   0  0  0  0  0  0
  -29.0649  -18.1781   23.9255 H   0  0  0  0  0  0
  -30.7749  -17.9159   23.6546 H   0  0  0  0  0  0
  -28.5679  -15.8075   23.6514 H   0  0  0  0  0  0
  -29.8653  -15.9555   24.8141 H   0  0  0  0  0  0
  -30.3405  -14.1606   23.1713 H   0  0  0  0  0  0
  -31.5359  -15.4269   23.0487 H   0  0  0  0  0  0
  -26.9159  -22.9670   19.4880 H   0  0  0  0  0  0
  -27.9454  -22.5812   18.1465 H   0  0  0  0  0  0
  -28.1679  -24.8714   18.2950 H   0  0  0  0  0  0
  -29.6405  -24.3231   19.0276 H   0  0  0  0  0  0
  -27.2515  -25.0173   20.7980 H   0  0  0  0  0  0
  -28.9295  -24.9989   21.2121 H   0  0  0  0  0  0
  -28.2335  -20.5177   18.5817 H   0  0  0  0  0  0
  1 25  1  0  0  0
  1 30  2  0  0  0
  1 84  1  0  0  0
  2  3  1  0  0  0
  2 25  1  0  0  0
  2 88  1  0  0  0
  2 89  1  0  0  0
  3  4  1  0  0  0
  3 90  1  0  0  0
  3 91  1  0  0  0
  4  5  1  0  0  0
  4 92  1  0  0  0
  4 93  1  0  0  0
  5  6  1  0  0  0
  5 26  1  0  0  0
  5 94  1  0  0  0
  6 25  1  0  0  0
  6 95  1  0  0  0
  6 96  1  0  0  0
  7  8  2  0  0  0
  7 26  1  0  0  0
  7 29  1  0  0  0
  8  9  1  0  0  0
  8 22  1  0  0  0
  9 10  1  0  0  0
  9 27  2  0  0  0
 10 11  2  0  0  0
 10 15  1  0  0  0
 11 12  1  0  0  0
 11 97  1  0  0  0
 12 13  2  0  0  0
 12 98  1  0  0  0
 13 14  1  0  0  0
 13 31  1  0  0  0
 14 15  2  0  0  0
 14 99  1  0  0  0
 15100  1  0  0  0
 16 17  2  0  0  0
 16 21  1  0  0  0
 16 31  1  0  0  0
 17 18  1  0  0  0
 17101  1  0  0  0
 18 19  2  0  0  0
 18102  1  0  0  0
 19 20  1  0  0  0
 19 24  1  0  0  0
 20 21  2  0  0  0
 20103  1  0  0  0
 21 23  1  0  0  0
 22 28  1  0  0  0
 22 32  2  0  0  0
 26 27  1  0  0  0
 28104  1  0  0  0
 28105  1  0  0  0
 29106  1  0  0  0
 29107  1  0  0  0
 33 34  1  0  0  0
 33 66  1  0  0  0
 33 70  2  0  0  0
 34 36  1  0  0  0
 34 59  1  0  0  0
 34108  1  0  0  0
 35 44  2  0  0  0
 35 45  1  0  0  0
 35 68  1  0  0  0
 36 56  1  0  0  0
 36109  1  0  0  0
 37 39  1  0  0  0
 37 47  1  0  0  0
 37 66  1  0  0  0
 37110  1  0  0  0
 38 43  2  0  0  0
 38 46  1  0  0  0
 38 47  1  0  0  0
 39 64  1  0  0  0
 39 67  2  0  0  0
 40 52  1  0  0  0
 40 53  2  0  0  0
 40 58  1  0  0  0
 41111  1  0  0  0
 41112  1  0  0  0
 41113  1  0  0  0
 41 48  1  0  0  0
 42 43  1  0  0  0
 42 66  1  0  0  0
 42114  1  0  0  0
 42115  1  0  0  0
 43 44  1  0  0  0
 44116  1  0  0  0
 45 46  2  0  0  0
 45117  1  0  0  0
 46118  1  0  0  0
 47119  1  0  0  0
 47120  1  0  0  0
 48 56  1  0  0  0
 48 65  1  0  0  0
 48121  1  0  0  0
 49 50  1  0  0  0
 49 53  1  0  0  0
 49 64  1  0  0  0
 49122  1  0  0  0
 50 51  1  0  0  0
 50123  1  0  0  0
 50124  1  0  0  0
 51 52  1  0  0  0
 51125  1  0  0  0
 51126  1  0  0  0
 52127  1  0  0  0
 52128  1  0  0  0
 53 54  1  0  0  0
 54 55  2  0  0  0
 54129  1  0  0  0
 55 57  1  0  0  0
 55130  1  0  0  0
 56 69  2  0  0  0
 57 58  2  0  0  0
 57131  1  0  0  0
 58132  1  0  0  0
 59 60  1  0  0  0
 59 61  1  0  0  0
 59 62  1  0  0  0
 60133  1  0  0  0
 60134  1  0  0  0
 60135  1  0  0  0
 61136  1  0  0  0
 61137  1  0  0  0
 61138  1  0  0  0
 62139  1  0  0  0
 62140  1  0  0  0
 62141  1  0  0  0
 63 65  1  0  0  0
 63142  1  0  0  0
 63143  1  0  0  0
 63144  1  0  0  0
 64145  1  0  0  0
 65146  1  0  0  0
 68 83  1  0  0  0
 71 73  2  0  0  0
 71 75  1  0  0  0
 71147  1  0  0  0
 72 74  2  0  0  0
 72 76  1  0  0  0
 72148  1  0  0  0
 73 74  1  0  0  0
 73 78  1  0  0  0
 74 84  1  0  0  0
 75 76  2  0  0  0
 75 85  1  0  0  0
 76 87  1  0  0  0
 77 81  1  0  0  0
 77 85  1  0  0  0
 77 86  2  0  0  0
 78 79  1  0  0  0
 78149  1  0  0  0
 78150  1  0  0  0
 79 80  1  0  0  0
 79151  1  0  0  0
 79152  1  0  0  0
 80 84  1  0  0  0
 80153  1  0  0  0
 80154  1  0  0  0
 81 82  1  0  0  0
 81155  1  0  0  0
 81156  1  0  0  0
 82 83  1  0  0  0
 82157  1  0  0  0
 82158  1  0  0  0
 83159  1  0  0  0
 83160  1  0  0  0
 85161  1  0  0  0
M  ISO  4   1 100  68 101  83 101  84 100
M  END
> <chiral flag>
0

> <version>
0

> <s_m_source_file>
/data/baiqing/PycharmProjects/Reinvent-master-3.2/result/LINK_invent/BTK/process_docking_weight1_custom_product_contain_oxygen_bond_distance_aromatic_linkinvent_7_9_3/rearranged_h_0075.sdf

> <i_m_source_file_index>
71

> <r_mmod_Potential_Energy-OPLS-2005>
42.7428970336914

> <r_mmod_Stretch_Energy-OPLS-2005>
45.3238525390625

> <r_mmod_Bend_Energy-OPLS-2005>
113.182624816895

> <r_mmod_Torsional_Energy-OPLS-2005>
297.070495605469

> <r_mmod_Improper_Torsional_Energy-OPLS-2005>
2.95231986045837

> <r_mmod_Van_der_Waal_Energy-OPLS-2005>
155.70573425293

> <r_mmod_Electrostatic_Energy-OPLS-2005>
-376.478942871094

> <r_mmod_Solvation_Energy-OPLS-2005>
-207.217163085938

> <b_mmod_Minimization_Converged-OPLS-2005>
0

> <r_mmod_RMS_Derivative-OPLS-2005>
0.573525071144104

$$$$
72
                    3D
 Structure written by MMmdl.
162171  0  0  1  0            999 V2000
  -30.5843  -14.8153   20.5225 C   0  0  0  0  0  0
  -30.4549  -12.5258   19.4581 C   0  0  0  0  0  0
  -29.5218  -12.5504   18.2238 C   0  0  0  0  0  0
  -28.0408  -12.3619   18.6205 C   0  0  0  0  0  0
  -27.6461  -13.2220   19.8490 C   0  0  2  0  0  0
  -28.6960  -13.0691   20.9651 C   0  0  0  0  0  0
  -25.2490  -13.8161   20.5588 C   0  0  0  0  0  0
  -24.1785  -13.0404   20.9128 C   0  0  0  0  0  0
  -24.6368  -11.6888   20.8640 C   0  0  0  0  0  0
  -23.9026  -10.4280   21.0353 C   0  0  0  0  0  0
  -24.3594   -9.4224   21.9156 C   0  0  0  0  0  0
  -23.6273   -8.2254   22.0748 C   0  0  0  0  0  0
  -22.4253   -8.0273   21.3537 C   0  0  0  0  0  0
  -21.9866   -9.0228   20.4629 C   0  0  0  0  0  0
  -22.7178  -10.2113   20.3028 C   0  0  0  0  0  0
  -21.6857   -6.0718   22.5264 C   0  0  0  0  0  0
  -21.4026   -6.5627   23.8202 C   0  0  0  0  0  0
  -21.3661   -5.6776   24.9160 C   0  0  0  0  0  0
  -21.6058   -4.3033   24.7200 C   0  0  0  0  0  0
  -21.8833   -3.8124   23.4321 C   0  0  0  0  0  0
  -21.9201   -4.6946   22.3373 C   0  0  0  0  0  0
  -22.7820  -13.5218   21.1792 C   0  0  0  0  0  0
  -22.1668   -4.2136   21.0951 F   0  0  0  0  0  0
  -21.5617   -3.4515   25.7706 F   0  0  0  0  0  0
  -29.9730  -13.5635   20.4162 N   0  0  0  0  0  0
  -26.2938  -12.9352   20.3214 N   0  0  0  0  0  0
  -25.9297  -11.6499   20.5623 N   0  0  0  0  0  0
  -22.0487  -12.8223   22.0394 N   0  0  0  0  0  0
  -25.4056  -15.1877   20.3956 N   0  0  0  0  0  0
  -31.7530  -14.8959   20.1234 O   0  0  0  0  0  0
  -21.6637   -6.8854   21.4228 O   0  0  0  0  0  0
  -22.3502  -14.5509   20.6608 O   0  0  0  0  0  0
  -24.6354  -31.8556   23.1951 C   0  0  0  0  0  0
  -25.9167  -32.4762   23.8314 C   0  0  1  0  0  0
  -27.2314  -27.2597   20.1294 C   0  0  0  0  0  0
  -25.5989  -33.8558   24.2262 N   0  0  0  0  0  0
  -23.4327  -30.4736   21.5418 C   0  0  2  0  0  0
  -24.8791  -28.9088   20.1190 C   0  0  0  0  0  0
  -22.7529  -29.4601   22.4968 C   0  0  0  0  0  0
  -18.0277  -28.1429   22.8516 C   0  0  0  0  0  0
  -24.1477  -36.7229   23.2647 C   0  0  0  0  0  0
  -25.9787  -30.7662   21.3732 C   0  0  0  0  0  0
  -26.0523  -29.3844   20.7217 C   0  0  0  0  0  0
  -27.2333  -28.5731   20.7122 C   0  0  0  0  0  0
  -26.0327  -26.8407   19.5180 C   0  0  0  0  0  0
  -24.8718  -27.6427   19.5094 C   0  0  0  0  0  0
  -23.6515  -29.8032   20.1594 C   0  0  0  0  0  0
  -25.4114  -36.3068   24.0345 C   0  0  1  0  0  0
  -20.5890  -28.3724   23.1318 C   0  0  2  0  0  0
  -20.6793  -26.9446   22.5447 C   0  0  0  0  0  0
  -19.5760  -26.6422   21.5260 C   0  0  0  0  0  0
  -18.1925  -26.7978   22.1637 C   0  0  0  0  0  0
  -19.1539  -28.8890   23.2914 C   0  0  0  0  0  0
  -18.9456  -30.1484   23.8934 C   0  0  0  0  0  0
  -17.6459  -30.6633   24.0581 C   0  0  0  0  0  0
  -25.9078  -34.9451   23.5108 C   0  0  0  0  0  0
  -16.5346  -29.9142   23.6353 C   0  0  0  0  0  0
  -16.7264  -28.6552   23.0379 C   0  0  0  0  0  0
  -26.4517  -31.6577   25.0697 C   0  0  0  0  0  0
  -25.3723  -31.3711   26.1397 C   0  0  0  0  0  0
  -27.0362  -30.3005   24.6136 C   0  0  0  0  0  0
  -27.6084  -32.4299   25.7469 C   0  0  0  0  0  0
  -27.5562  -37.1773   24.8482 C   0  0  0  0  0  0
  -21.4231  -29.3053   22.3682 N   0  0  0  0  0  0
  -26.4277  -37.3782   23.9428 N   0  0  0  0  0  0
  -24.7021  -31.0498   22.0941 N   0  0  0  0  0  0
  -23.4204  -28.8186   23.3117 O   0  0  0  0  0  0
  -28.3464  -26.3924   20.0600 O   0  0  0  0  0  0
  -26.5633  -34.8938   22.4653 O   0  0  0  0  0  0
  -23.5502  -32.1393   23.7251 O   0  0  0  0  0  0
  -31.9187  -19.1104   21.5626 C   0  0  0  0  0  0
  -31.1196  -20.1819   21.1062 C   0  0  0  0  0  0
  -31.5485  -17.7645   21.3588 C   0  0  0  0  0  0
  -29.5424  -18.5550   20.2261 C   0  0  0  0  0  0
  -29.9110  -19.9657   20.4048 C   0  0  0  0  0  0
  -30.3398  -17.4214   20.7130 C   0  0  0  0  0  0
  -28.7544  -23.8991   20.0226 C   0  0  0  0  0  0
  -28.9198  -21.2593   18.5461 C   0  0  0  0  0  0
  -28.3537  -25.0843   20.6403 C   0  0  0  0  0  0
  -29.0406  -23.8272   18.5441 C   0  0  0  0  0  0
  -28.9628  -22.4675   20.7093 C   0  0  0  0  0  0
  -28.3601  -22.5741   17.9639 C   0  0  0  0  0  0
  -28.0159  -25.1369   22.1183 C   0  0  0  0  0  0
  -28.7421  -15.9830   21.7831 C   0  0  0  0  0  0
  -29.2015  -21.1864   19.8776 N   0  0  0  0  0  0
  -29.8667  -16.0067   20.8370 N   0  0  0  0  0  0
  -29.0960  -20.3200   17.7611 O   0  0  0  0  0  0
  -31.4831  -12.6972   19.1327 H   0  0  0  0  0  0
  -30.4672  -11.5359   19.9199 H   0  0  0  0  0  0
  -29.8225  -11.7893   17.5029 H   0  0  0  0  0  0
  -29.6388  -13.5112   17.7167 H   0  0  0  0  0  0
  -27.8876  -11.3063   18.8442 H   0  0  0  0  0  0
  -27.3929  -12.5879   17.7735 H   0  0  0  0  0  0
  -27.6579  -14.2557   19.5034 H   0  0  0  0  0  0
  -28.7780  -12.0174   21.2434 H   0  0  0  0  0  0
  -28.3924  -13.5421   21.8910 H   0  0  0  0  0  0
  -25.2772   -9.5718   22.4698 H   0  0  0  0  0  0
  -23.9986   -7.4687   22.7499 H   0  0  0  0  0  0
  -21.0787   -8.8702   19.8980 H   0  0  0  0  0  0
  -22.3608  -10.9609   19.6103 H   0  0  0  0  0  0
  -21.2037   -7.6144   23.9677 H   0  0  0  0  0  0
  -21.1467   -6.0517   25.9060 H   0  0  0  0  0  0
  -22.0611   -2.7583   23.2807 H   0  0  0  0  0  0
  -22.4088  -11.9889   22.4787 H   0  0  0  0  0  0
  -21.1123  -13.1255   22.2612 H   0  0  0  0  0  0
  -24.6318  -15.8317   20.5239 H   0  0  0  0  0  0
  -26.2460  -15.6392   20.0620 H   0  0  0  0  0  0
  -26.7233  -32.5402   23.1066 H   0  0  0  0  0  0
  -25.0192  -33.9701   25.0444 H   0  0  0  0  0  0
  -22.7286  -31.2939   21.3937 H   0  0  0  0  0  0
  -23.3779  -35.9515   23.3326 H   0  0  0  0  0  0
  -24.3563  -36.8807   22.2050 H   0  0  0  0  0  0
  -23.7165  -37.6417   23.6642 H   0  0  0  0  0  0
  -26.1134  -31.5235   20.5995 H   0  0  0  0  0  0
  -26.8603  -30.8217   22.0021 H   0  0  0  0  0  0
  -28.1428  -28.9420   21.1656 H   0  0  0  0  0  0
  -25.9919  -25.8695   19.0444 H   0  0  0  0  0  0
  -23.9735  -27.2706   19.0361 H   0  0  0  0  0  0
  -23.7808  -30.5798   19.4017 H   0  0  0  0  0  0
  -22.7680  -29.2371   19.8579 H   0  0  0  0  0  0
  -25.1277  -36.1926   25.0838 H   0  0  0  0  0  0
  -20.9969  -28.3318   24.1449 H   0  0  0  0  0  0
  -20.5745  -26.2335   23.3651 H   0  0  0  0  0  0
  -21.6666  -26.7526   22.1205 H   0  0  0  0  0  0
  -19.6930  -25.6339   21.1288 H   0  0  0  0  0  0
  -19.6725  -27.3251   20.6805 H   0  0  0  0  0  0
  -17.4226  -26.6783   21.3998 H   0  0  0  0  0  0
  -18.0264  -26.0108   22.9006 H   0  0  0  0  0  0
  -19.7913  -30.7298   24.2362 H   0  0  0  0  0  0
  -17.4997  -31.6321   24.5168 H   0  0  0  0  0  0
  -15.5349  -30.3050   23.7663 H   0  0  0  0  0  0
  -15.8650  -28.0868   22.7108 H   0  0  0  0  0  0
  -24.5989  -30.6962   25.7712 H   0  0  0  0  0  0
  -24.8820  -32.2872   26.4711 H   0  0  0  0  0  0
  -25.8062  -30.8990   27.0222 H   0  0  0  0  0  0
  -26.2940  -29.6751   24.1173 H   0  0  0  0  0  0
  -27.4093  -29.7260   25.4620 H   0  0  0  0  0  0
  -27.8794  -30.4288   23.9338 H   0  0  0  0  0  0
  -27.2749  -33.3678   26.1924 H   0  0  0  0  0  0
  -28.3982  -32.6713   25.0337 H   0  0  0  0  0  0
  -28.0643  -31.8469   26.5480 H   0  0  0  0  0  0
  -28.2621  -38.0038   24.7548 H   0  0  0  0  0  0
  -28.1031  -36.2585   24.6310 H   0  0  0  0  0  0
  -27.2295  -37.1409   25.8892 H   0  0  0  0  0  0
  -20.9455  -29.8675   21.6771 H   0  0  0  0  0  0
  -26.0156  -38.2850   24.1452 H   0  0  0  0  0  0
  -32.8295  -19.3315   22.1038 H   0  0  0  0  0  0
  -31.4759  -21.1866   21.2800 H   0  0  0  0  0  0
  -32.1800  -16.9909   21.7754 H   0  0  0  0  0  0
  -28.6168  -18.3306   19.7141 H   0  0  0  0  0  0
  -30.1219  -23.7789   18.4027 H   0  0  0  0  0  0
  -28.6838  -24.7254   18.0371 H   0  0  0  0  0  0
  -28.0867  -22.2819   21.3326 H   0  0  0  0  0  0
  -29.7935  -22.5976   21.3998 H   0  0  0  0  0  0
  -27.2906  -22.6108   18.1694 H   0  0  0  0  0  0
  -28.4605  -22.5711   16.8784 H   0  0  0  0  0  0
  -28.3086  -26.0970   22.5467 H   0  0  0  0  0  0
  -26.9440  -25.0102   22.2654 H   0  0  0  0  0  0
  -28.5364  -24.3548   22.6716 H   0  0  0  0  0  0
  -28.4904  -16.9781   22.1580 H   0  0  0  0  0  0
  -28.9867  -15.4107   22.6789 H   0  0  0  0  0  0
  -27.8304  -15.6096   21.3331 H   0  0  0  0  0  0
  1 25  1  0  0  0
  1 30  2  0  0  0
  1 86  1  0  0  0
  2  3  1  0  0  0
  2 25  1  0  0  0
  2 88  1  0  0  0
  2 89  1  0  0  0
  3  4  1  0  0  0
  3 90  1  0  0  0
  3 91  1  0  0  0
  4  5  1  0  0  0
  4 92  1  0  0  0
  4 93  1  0  0  0
  5  6  1  0  0  0
  5 26  1  0  0  0
  5 94  1  0  0  0
  6 25  1  0  0  0
  6 95  1  0  0  0
  6 96  1  0  0  0
  7  8  2  0  0  0
  7 26  1  0  0  0
  7 29  1  0  0  0
  8  9  1  0  0  0
  8 22  1  0  0  0
  9 10  1  0  0  0
  9 27  2  0  0  0
 10 11  2  0  0  0
 10 15  1  0  0  0
 11 12  1  0  0  0
 11 97  1  0  0  0
 12 13  2  0  0  0
 12 98  1  0  0  0
 13 14  1  0  0  0
 13 31  1  0  0  0
 14 15  2  0  0  0
 14 99  1  0  0  0
 15100  1  0  0  0
 16 17  2  0  0  0
 16 21  1  0  0  0
 16 31  1  0  0  0
 17 18  1  0  0  0
 17101  1  0  0  0
 18 19  2  0  0  0
 18102  1  0  0  0
 19 20  1  0  0  0
 19 24  1  0  0  0
 20 21  2  0  0  0
 20103  1  0  0  0
 21 23  1  0  0  0
 22 28  1  0  0  0
 22 32  2  0  0  0
 26 27  1  0  0  0
 28104  1  0  0  0
 28105  1  0  0  0
 29106  1  0  0  0
 29107  1  0  0  0
 33 34  1  0  0  0
 33 66  1  0  0  0
 33 70  2  0  0  0
 34 36  1  0  0  0
 34 59  1  0  0  0
 34108  1  0  0  0
 35 44  2  0  0  0
 35 45  1  0  0  0
 35 68  1  0  0  0
 36 56  1  0  0  0
 36109  1  0  0  0
 37 39  1  0  0  0
 37 47  1  0  0  0
 37 66  1  0  0  0
 37110  1  0  0  0
 38 43  2  0  0  0
 38 46  1  0  0  0
 38 47  1  0  0  0
 39 64  1  0  0  0
 39 67  2  0  0  0
 40 52  1  0  0  0
 40 53  2  0  0  0
 40 58  1  0  0  0
 41111  1  0  0  0
 41112  1  0  0  0
 41113  1  0  0  0
 41 48  1  0  0  0
 42 43  1  0  0  0
 42 66  1  0  0  0
 42114  1  0  0  0
 42115  1  0  0  0
 43 44  1  0  0  0
 44116  1  0  0  0
 45 46  2  0  0  0
 45117  1  0  0  0
 46118  1  0  0  0
 47119  1  0  0  0
 47120  1  0  0  0
 48 56  1  0  0  0
 48 65  1  0  0  0
 48121  1  0  0  0
 49 50  1  0  0  0
 49 53  1  0  0  0
 49 64  1  0  0  0
 49122  1  0  0  0
 50 51  1  0  0  0
 50123  1  0  0  0
 50124  1  0  0  0
 51 52  1  0  0  0
 51125  1  0  0  0
 51126  1  0  0  0
 52127  1  0  0  0
 52128  1  0  0  0
 53 54  1  0  0  0
 54 55  2  0  0  0
 54129  1  0  0  0
 55 57  1  0  0  0
 55130  1  0  0  0
 56 69  2  0  0  0
 57 58  2  0  0  0
 57131  1  0  0  0
 58132  1  0  0  0
 59 60  1  0  0  0
 59 61  1  0  0  0
 59 62  1  0  0  0
 60133  1  0  0  0
 60134  1  0  0  0
 60135  1  0  0  0
 61136  1  0  0  0
 61137  1  0  0  0
 61138  1  0  0  0
 62139  1  0  0  0
 62140  1  0  0  0
 62141  1  0  0  0
 63 65  1  0  0  0
 63142  1  0  0  0
 63143  1  0  0  0
 63144  1  0  0  0
 64145  1  0  0  0
 65146  1  0  0  0
 68 79  1  0  0  0
 71 72  2  0  0  0
 71 73  1  0  0  0
 71147  1  0  0  0
 72 75  1  0  0  0
 72148  1  0  0  0
 73 76  2  0  0  0
 73149  1  0  0  0
 74 75  2  0  0  0
 74 76  1  0  0  0
 74150  1  0  0  0
 75 85  1  0  0  0
 76 86  1  0  0  0
 77 79  2  0  0  0
 77 80  1  0  0  0
 77 81  1  0  0  0
 78 82  1  0  0  0
 78 85  1  0  0  0
 78 87  2  0  0  0
 79 83  1  0  0  0
 80 82  1  0  0  0
 80151  1  0  0  0
 80152  1  0  0  0
 81 85  1  0  0  0
 81153  1  0  0  0
 81154  1  0  0  0
 82155  1  0  0  0
 82156  1  0  0  0
 83157  1  0  0  0
 83158  1  0  0  0
 83159  1  0  0  0
 84 86  1  0  0  0
 84160  1  0  0  0
 84161  1  0  0  0
 84162  1  0  0  0
M  ISO  4   1 100  68 101  79 101  86 100
M  END
> <chiral flag>
0

> <version>
0

> <s_m_source_file>
/data/baiqing/PycharmProjects/Reinvent-master-3.2/result/LINK_invent/BTK/process_docking_weight1_custom_product_contain_oxygen_bond_distance_aromatic_linkinvent_7_9_3/rearranged_h_0075.sdf

> <i_m_source_file_index>
72

> <r_mmod_Potential_Energy-OPLS-2005>
499.871948242188

> <r_mmod_Stretch_Energy-OPLS-2005>
159.374893188477

> <r_mmod_Bend_Energy-OPLS-2005>
190.016906738281

> <r_mmod_Torsional_Energy-OPLS-2005>
365.310211181641

> <r_mmod_Improper_Torsional_Energy-OPLS-2005>
8.7740592956543

> <r_mmod_Van_der_Waal_Energy-OPLS-2005>
158.77311706543

> <r_mmod_Electrostatic_Energy-OPLS-2005>
-275.57666015625

> <r_mmod_Solvation_Energy-OPLS-2005>
-198.189163208008

> <b_mmod_Minimization_Converged-OPLS-2005>
0

> <r_mmod_RMS_Derivative-OPLS-2005>
4.31940031051636

$$$$
73
                    3D
 Structure written by MMmdl.
155164  0  0  1  0            999 V2000
  -30.5999  -14.8240   20.4489 C   0  0  0  0  0  0
  -30.4290  -12.5072   19.4842 C   0  0  0  0  0  0
  -29.5111  -12.5145   18.2422 C   0  0  0  0  0  0
  -28.0398  -12.3257   18.6577 C   0  0  0  0  0  0
  -27.6333  -13.2414   19.8432 C   0  0  2  0  0  0
  -28.6776  -13.2233   20.9798 C   0  0  0  0  0  0
  -25.2468  -13.8209   20.5705 C   0  0  0  0  0  0
  -24.1776  -13.0438   20.9224 C   0  0  0  0  0  0
  -24.6383  -11.6922   20.8752 C   0  0  0  0  0  0
  -23.9067  -10.4294   21.0403 C   0  0  0  0  0  0
  -24.3618   -9.4208   21.9181 C   0  0  0  0  0  0
  -23.6294   -8.2243   22.0753 C   0  0  0  0  0  0
  -22.4278   -8.0279   21.3542 C   0  0  0  0  0  0
  -21.9909   -9.0252   20.4645 C   0  0  0  0  0  0
  -22.7238  -10.2130   20.3054 C   0  0  0  0  0  0
  -21.6854   -6.0730   22.5277 C   0  0  0  0  0  0
  -21.4016   -6.5636   23.8209 C   0  0  0  0  0  0
  -21.3662   -5.6789   24.9171 C   0  0  0  0  0  0
  -21.6046   -4.3053   24.7223 C   0  0  0  0  0  0
  -21.8821   -3.8146   23.4345 C   0  0  0  0  0  0
  -21.9191   -4.6959   22.3401 C   0  0  0  0  0  0
  -22.7797  -13.5211   21.1882 C   0  0  0  0  0  0
  -22.1662   -4.2144   21.0978 F   0  0  0  0  0  0
  -21.5631   -3.4538   25.7737 F   0  0  0  0  0  0
  -29.9667  -13.5950   20.3854 N   0  0  0  0  0  0
  -26.2895  -12.9435   20.3257 N   0  0  0  0  0  0
  -25.9314  -11.6568   20.5743 N   0  0  0  0  0  0
  -22.0449  -12.8192   22.0434 N   0  0  0  0  0  0
  -25.4134  -15.1939   20.4125 N   0  0  0  0  0  0
  -31.7990  -14.8652   20.1583 O   0  0  0  0  0  0
  -21.6642   -6.8875   21.4239 O   0  0  0  0  0  0
  -22.3477  -14.5517   20.6732 O   0  0  0  0  0  0
  -24.6364  -31.8508   23.1925 C   0  0  0  0  0  0
  -25.9164  -32.4733   23.8294 C   0  0  1  0  0  0
  -27.2220  -27.2062   20.1338 C   0  0  0  0  0  0
  -25.5943  -33.8537   24.2229 N   0  0  0  0  0  0
  -23.4353  -30.4716   21.5366 C   0  0  2  0  0  0
  -24.8829  -28.9062   20.1092 C   0  0  0  0  0  0
  -22.7530  -29.4586   22.4884 C   0  0  0  0  0  0
  -18.0295  -28.1396   22.8492 C   0  0  0  0  0  0
  -24.1483  -36.7269   23.2637 C   0  0  0  0  0  0
  -25.9843  -30.7469   21.3777 C   0  0  0  0  0  0
  -26.0557  -29.3629   20.7217 C   0  0  0  0  0  0
  -27.2236  -28.5261   20.7200 C   0  0  0  0  0  0
  -26.0183  -26.8255   19.4991 C   0  0  0  0  0  0
  -24.8730  -27.6486   19.4863 C   0  0  0  0  0  0
  -23.6564  -29.8007   20.1541 C   0  0  0  0  0  0
  -25.4114  -36.3062   24.0322 C   0  0  1  0  0  0
  -20.5906  -28.3715   23.1260 C   0  0  2  0  0  0
  -20.6784  -26.9432   22.5411 C   0  0  0  0  0  0
  -19.5758  -26.6393   21.5216 C   0  0  0  0  0  0
  -18.1939  -26.7940   22.1629 C   0  0  0  0  0  0
  -19.1550  -28.8876   23.2869 C   0  0  0  0  0  0
  -18.9468  -30.1471   23.8900 C   0  0  0  0  0  0
  -17.6467  -30.6598   24.0568 C   0  0  0  0  0  0
  -25.9060  -34.9432   23.5083 C   0  0  0  0  0  0
  -16.5360  -29.9098   23.6328 C   0  0  0  0  0  0
  -16.7282  -28.6508   23.0368 C   0  0  0  0  0  0
  -26.4506  -31.6569   25.0703 C   0  0  0  0  0  0
  -25.3706  -31.3735   26.1410 C   0  0  0  0  0  0
  -27.0353  -30.2978   24.6211 C   0  0  0  0  0  0
  -27.6053  -32.4314   25.7491 C   0  0  0  0  0  0
  -27.5574  -37.1799   24.8469 C   0  0  0  0  0  0
  -21.4231  -29.3050   22.3635 N   0  0  0  0  0  0
  -26.4283  -37.3768   23.9409 N   0  0  0  0  0  0
  -24.7050  -31.0427   22.0920 N   0  0  0  0  0  0
  -23.4210  -28.8138   23.3008 O   0  0  0  0  0  0
  -28.3258  -26.3063   20.2232 O   0  0  0  0  0  0
  -26.5640  -34.8919   22.4658 O   0  0  0  0  0  0
  -23.5506  -32.1359   23.7194 O   0  0  0  0  0  0
  -29.4057  -18.6643   20.5024 C   0  0  0  0  0  0
  -31.1977  -20.1673   21.0173 C   0  0  0  0  0  0
  -31.5893  -17.7473   21.0512 C   0  0  0  0  0  0
  -29.8271  -20.0784   20.6597 C   0  0  0  0  0  0
  -30.2552  -17.4645   20.6889 C   0  0  0  0  0  0
  -32.0485  -19.0635   21.2039 C   0  0  0  0  0  0
  -28.1694  -22.0923   19.7315 C   0  0  0  0  0  0
  -29.7025  -22.7046   20.9480 C   0  0  0  0  0  0
  -28.3854  -23.4802   20.5397 C   0  0  2  0  0  0
  -27.2898  -23.6106   21.6024 C   0  0  0  0  0  0
  -28.3768  -24.8802   19.6711 C   0  0  0  0  0  0
  -29.0897  -21.4056   20.5613 N   0  0  0  0  0  0
  -29.8464  -16.0075   20.5943 N   0  0  0  0  0  0
  -27.5596  -21.7247   18.7481 O   0  0  0  0  0  0
  -33.3407  -19.2772   21.5517 F   0  0  0  0  0  0
  -31.4693  -12.6347   19.1793 H   0  0  0  0  0  0
  -30.3855  -11.5432   19.9938 H   0  0  0  0  0  0
  -29.8064  -11.7283   17.5463 H   0  0  0  0  0  0
  -29.6245  -13.4580   17.7059 H   0  0  0  0  0  0
  -27.9098  -11.2807   18.9393 H   0  0  0  0  0  0
  -27.3809  -12.4951   17.8052 H   0  0  0  0  0  0
  -27.6114  -14.2535   19.4395 H   0  0  0  0  0  0
  -28.7346  -12.2386   21.4451 H   0  0  0  0  0  0
  -28.4012  -13.9226   21.7707 H   0  0  0  0  0  0
  -25.2760   -9.5687   22.4755 H   0  0  0  0  0  0
  -24.0005   -7.4634   22.7470 H   0  0  0  0  0  0
  -21.0844   -8.8772   19.8947 H   0  0  0  0  0  0
  -22.3698  -10.9670   19.6167 H   0  0  0  0  0  0
  -21.2011   -7.6145   23.9710 H   0  0  0  0  0  0
  -21.1483   -6.0519   25.9070 H   0  0  0  0  0  0
  -22.0597   -2.7608   23.2845 H   0  0  0  0  0  0
  -22.4075  -11.9862   22.4833 H   0  0  0  0  0  0
  -21.1062  -13.1207   22.2639 H   0  0  0  0  0  0
  -24.6439  -15.8446   20.5269 H   0  0  0  0  0  0
  -26.2516  -15.6350   20.0579 H   0  0  0  0  0  0
  -26.7234  -32.5368   23.1029 H   0  0  0  0  0  0
  -25.0076  -33.9647   25.0370 H   0  0  0  0  0  0
  -22.7337  -31.2947   21.3864 H   0  0  0  0  0  0
  -23.3751  -35.9596   23.3301 H   0  0  0  0  0  0
  -24.3571  -36.8900   22.2053 H   0  0  0  0  0  0
  -23.7229  -37.6463   23.6668 H   0  0  0  0  0  0
  -26.1257  -31.5021   20.6029 H   0  0  0  0  0  0
  -26.8608  -30.8006   22.0117 H   0  0  0  0  0  0
  -28.1218  -28.8723   21.2125 H   0  0  0  0  0  0
  -25.9130  -25.8602   19.0316 H   0  0  0  0  0  0
  -23.9729  -27.2902   19.0053 H   0  0  0  0  0  0
  -23.7856  -30.5742   19.3956 H   0  0  0  0  0  0
  -22.7732  -29.2366   19.8488 H   0  0  0  0  0  0
  -25.1301  -36.1902   25.0815 H   0  0  0  0  0  0
  -20.9999  -28.3299   24.1382 H   0  0  0  0  0  0
  -20.5674  -26.2338   23.3628 H   0  0  0  0  0  0
  -21.6652  -26.7444   22.1218 H   0  0  0  0  0  0
  -19.6915  -25.6298   21.1262 H   0  0  0  0  0  0
  -19.6685  -27.3186   20.6734 H   0  0  0  0  0  0
  -17.4213  -26.6691   21.4031 H   0  0  0  0  0  0
  -18.0337  -26.0074   22.9015 H   0  0  0  0  0  0
  -19.7937  -30.7284   24.2282 H   0  0  0  0  0  0
  -17.5017  -31.6279   24.5169 H   0  0  0  0  0  0
  -15.5363  -30.3011   23.7639 H   0  0  0  0  0  0
  -15.8677  -28.0823   22.7105 H   0  0  0  0  0  0
  -24.5899  -30.7063   25.7735 H   0  0  0  0  0  0
  -24.8865  -32.2908   26.4787 H   0  0  0  0  0  0
  -25.8005  -30.8957   27.0219 H   0  0  0  0  0  0
  -26.2939  -29.6727   24.1214 H   0  0  0  0  0  0
  -27.3995  -29.7249   25.4745 H   0  0  0  0  0  0
  -27.8837  -30.4235   23.9477 H   0  0  0  0  0  0
  -27.2665  -33.3630   26.2034 H   0  0  0  0  0  0
  -28.3893  -32.6845   25.0341 H   0  0  0  0  0  0
  -28.0677  -31.8451   26.5441 H   0  0  0  0  0  0
  -28.2607  -38.0083   24.7525 H   0  0  0  0  0  0
  -28.1063  -36.2625   24.6296 H   0  0  0  0  0  0
  -27.2299  -37.1453   25.8873 H   0  0  0  0  0  0
  -20.9426  -29.8760   21.6822 H   0  0  0  0  0  0
  -26.0162  -38.2841   24.1406 H   0  0  0  0  0  0
  -28.3699  -18.4952   20.2449 H   0  0  0  0  0  0
  -31.6616  -21.1288   21.1712 H   0  0  0  0  0  0
  -32.2997  -16.9592   21.2430 H   0  0  0  0  0  0
  -29.9483  -22.7780   22.0089 H   0  0  0  0  0  0
  -30.5630  -22.9728   20.3290 H   0  0  0  0  0  0
  -27.2219  -22.7252   22.2363 H   0  0  0  0  0  0
  -26.3106  -23.7620   21.1467 H   0  0  0  0  0  0
  -27.4771  -24.4616   22.2572 H   0  0  0  0  0  0
  -29.3150  -24.8847   19.1167 H   0  0  0  0  0  0
  -27.6533  -24.7746   18.8675 H   0  0  0  0  0  0
  -28.8532  -15.8415   20.6499 H   0  0  0  0  0  0
  1 25  1  0  0  0
  1 30  2  0  0  0
  1 83  1  0  0  0
  2  3  1  0  0  0
  2 25  1  0  0  0
  2 86  1  0  0  0
  2 87  1  0  0  0
  3  4  1  0  0  0
  3 88  1  0  0  0
  3 89  1  0  0  0
  4  5  1  0  0  0
  4 90  1  0  0  0
  4 91  1  0  0  0
  5  6  1  0  0  0
  5 26  1  0  0  0
  5 92  1  0  0  0
  6 25  1  0  0  0
  6 93  1  0  0  0
  6 94  1  0  0  0
  7  8  2  0  0  0
  7 26  1  0  0  0
  7 29  1  0  0  0
  8  9  1  0  0  0
  8 22  1  0  0  0
  9 10  1  0  0  0
  9 27  2  0  0  0
 10 11  2  0  0  0
 10 15  1  0  0  0
 11 12  1  0  0  0
 11 95  1  0  0  0
 12 13  2  0  0  0
 12 96  1  0  0  0
 13 14  1  0  0  0
 13 31  1  0  0  0
 14 15  2  0  0  0
 14 97  1  0  0  0
 15 98  1  0  0  0
 16 17  2  0  0  0
 16 21  1  0  0  0
 16 31  1  0  0  0
 17 18  1  0  0  0
 17 99  1  0  0  0
 18 19  2  0  0  0
 18100  1  0  0  0
 19 20  1  0  0  0
 19 24  1  0  0  0
 20 21  2  0  0  0
 20101  1  0  0  0
 21 23  1  0  0  0
 22 28  1  0  0  0
 22 32  2  0  0  0
 26 27  1  0  0  0
 28102  1  0  0  0
 28103  1  0  0  0
 29104  1  0  0  0
 29105  1  0  0  0
 33 34  1  0  0  0
 33 66  1  0  0  0
 33 70  2  0  0  0
 34 36  1  0  0  0
 34 59  1  0  0  0
 34106  1  0  0  0
 35 44  2  0  0  0
 35 45  1  0  0  0
 35 68  1  0  0  0
 36 56  1  0  0  0
 36107  1  0  0  0
 37 39  1  0  0  0
 37 47  1  0  0  0
 37 66  1  0  0  0
 37108  1  0  0  0
 38 43  2  0  0  0
 38 46  1  0  0  0
 38 47  1  0  0  0
 39 64  1  0  0  0
 39 67  2  0  0  0
 40 52  1  0  0  0
 40 53  2  0  0  0
 40 58  1  0  0  0
 41109  1  0  0  0
 41110  1  0  0  0
 41111  1  0  0  0
 41 48  1  0  0  0
 42 43  1  0  0  0
 42 66  1  0  0  0
 42112  1  0  0  0
 42113  1  0  0  0
 43 44  1  0  0  0
 44114  1  0  0  0
 45 46  2  0  0  0
 45115  1  0  0  0
 46116  1  0  0  0
 47117  1  0  0  0
 47118  1  0  0  0
 48 56  1  0  0  0
 48 65  1  0  0  0
 48119  1  0  0  0
 49 50  1  0  0  0
 49 53  1  0  0  0
 49 64  1  0  0  0
 49120  1  0  0  0
 50 51  1  0  0  0
 50121  1  0  0  0
 50122  1  0  0  0
 51 52  1  0  0  0
 51123  1  0  0  0
 51124  1  0  0  0
 52125  1  0  0  0
 52126  1  0  0  0
 53 54  1  0  0  0
 54 55  2  0  0  0
 54127  1  0  0  0
 55 57  1  0  0  0
 55128  1  0  0  0
 56 69  2  0  0  0
 57 58  2  0  0  0
 57129  1  0  0  0
 58130  1  0  0  0
 59 60  1  0  0  0
 59 61  1  0  0  0
 59 62  1  0  0  0
 60131  1  0  0  0
 60132  1  0  0  0
 60133  1  0  0  0
 61134  1  0  0  0
 61135  1  0  0  0
 61136  1  0  0  0
 62137  1  0  0  0
 62138  1  0  0  0
 62139  1  0  0  0
 63 65  1  0  0  0
 63140  1  0  0  0
 63141  1  0  0  0
 63142  1  0  0  0
 64143  1  0  0  0
 65144  1  0  0  0
 68 81  1  0  0  0
 71 74  2  0  0  0
 71 75  1  0  0  0
 71145  1  0  0  0
 72 74  1  0  0  0
 72 76  2  0  0  0
 72146  1  0  0  0
 73 75  2  0  0  0
 73 76  1  0  0  0
 73147  1  0  0  0
 74 82  1  0  0  0
 75 83  1  0  0  0
 76 85  1  0  0  0
 77 79  1  0  0  0
 77 82  1  0  0  0
 77 84  2  0  0  0
 78 79  1  0  0  0
 78 82  1  0  0  0
 78148  1  0  0  0
 78149  1  0  0  0
 79 80  1  0  0  0
 79 81  1  0  0  0
 80150  1  0  0  0
 80151  1  0  0  0
 80152  1  0  0  0
 81153  1  0  0  0
 81154  1  0  0  0
 83155  1  0  0  0
M  ISO  4   1 100  68 101  81 101  83 100
M  END
> <chiral flag>
0

> <version>
0

> <s_m_source_file>
/data/baiqing/PycharmProjects/Reinvent-master-3.2/result/LINK_invent/BTK/process_docking_weight1_custom_product_contain_oxygen_bond_distance_aromatic_linkinvent_7_9_3/rearranged_h_0075.sdf

> <i_m_source_file_index>
73

> <r_mmod_Potential_Energy-OPLS-2005>
362.367279052734

> <r_mmod_Stretch_Energy-OPLS-2005>
180.443771362305

> <r_mmod_Bend_Energy-OPLS-2005>
242.632247924805

> <r_mmod_Torsional_Energy-OPLS-2005>
234.208099365234

> <r_mmod_Improper_Torsional_Energy-OPLS-2005>
8.24419689178467

> <r_mmod_Van_der_Waal_Energy-OPLS-2005>
139.875030517578

> <r_mmod_Electrostatic_Energy-OPLS-2005>
-346.366760253906

> <r_mmod_Solvation_Energy-OPLS-2005>
-217.226181030273

> <b_mmod_Minimization_Converged-OPLS-2005>
0

> <r_mmod_RMS_Derivative-OPLS-2005>
1.32906270027161

$$$$
74
                    3D
 Structure written by MMmdl.
163172  0  0  1  0            999 V2000
  -30.6634  -14.4848   20.5753 C   0  0  0  0  0  0
  -30.4252  -12.3120   19.4251 C   0  0  0  0  0  0
  -29.4932  -12.5199   18.2134 C   0  0  0  0  0  0
  -28.0139  -12.3732   18.6273 C   0  0  0  0  0  0
  -27.6607  -13.2048   19.8871 C   0  0  2  0  0  0
  -28.7026  -12.9724   21.0052 C   0  0  0  0  0  0
  -25.2574  -13.8193   20.5729 C   0  0  0  0  0  0
  -24.1823  -13.0444   20.9256 C   0  0  0  0  0  0
  -24.6391  -11.6927   20.8806 C   0  0  0  0  0  0
  -23.9055  -10.4302   21.0459 C   0  0  0  0  0  0
  -24.3600   -9.4205   21.9229 C   0  0  0  0  0  0
  -23.6279   -8.2225   22.0762 C   0  0  0  0  0  0
  -22.4257   -8.0275   21.3563 C   0  0  0  0  0  0
  -21.9914   -9.0266   20.4677 C   0  0  0  0  0  0
  -22.7242  -10.2150   20.3111 C   0  0  0  0  0  0
  -21.6845   -6.0739   22.5296 C   0  0  0  0  0  0
  -21.3996   -6.5643   23.8228 C   0  0  0  0  0  0
  -21.3672   -5.6801   24.9198 C   0  0  0  0  0  0
  -21.6033   -4.3067   24.7255 C   0  0  0  0  0  0
  -21.8807   -3.8156   23.4375 C   0  0  0  0  0  0
  -21.9186   -4.6961   22.3420 C   0  0  0  0  0  0
  -22.7854  -13.5252   21.1921 C   0  0  0  0  0  0
  -22.1656   -4.2136   21.1001 F   0  0  0  0  0  0
  -21.5633   -3.4555   25.7770 F   0  0  0  0  0  0
  -30.0320  -13.2859   20.4541 N   0  0  0  0  0  0
  -26.3004  -12.9337   20.3455 N   0  0  0  0  0  0
  -25.9316  -11.6504   20.5848 N   0  0  0  0  0  0
  -22.0493  -12.8212   22.0473 N   0  0  0  0  0  0
  -25.4334  -15.1881   20.4036 N   0  0  0  0  0  0
  -31.7978  -14.6900   20.1320 O   0  0  0  0  0  0
  -21.6626   -6.8872   21.4251 O   0  0  0  0  0  0
  -22.3540  -14.5578   20.6818 O   0  0  0  0  0  0
  -24.6160  -31.8669   23.2131 C   0  0  0  0  0  0
  -25.9042  -32.4798   23.8392 C   0  0  1  0  0  0
  -27.2066  -27.3929   20.0708 C   0  0  0  0  0  0
  -25.5899  -33.8605   24.2323 N   0  0  0  0  0  0
  -23.4012  -30.4931   21.5609 C   0  0  2  0  0  0
  -24.8337  -28.9567   20.1161 C   0  0  0  0  0  0
  -22.7386  -29.4671   22.5065 C   0  0  0  0  0  0
  -18.0256  -28.1365   22.8496 C   0  0  0  0  0  0
  -24.1478  -36.7290   23.2648 C   0  0  0  0  0  0
  -25.9366  -30.8099   21.3753 C   0  0  0  0  0  0
  -26.0021  -29.4442   20.7159 C   0  0  0  0  0  0
  -27.1877  -28.6656   20.6979 C   0  0  0  0  0  0
  -26.0113  -26.9232   19.4818 C   0  0  0  0  0  0
  -24.8339  -27.6926   19.5051 C   0  0  0  0  0  0
  -23.6018  -29.8341   20.1727 C   0  0  0  0  0  0
  -25.4106  -36.3105   24.0350 C   0  0  1  0  0  0
  -20.5837  -28.3660   23.1334 C   0  0  2  0  0  0
  -20.6751  -26.9400   22.5440 C   0  0  0  0  0  0
  -19.5740  -26.6391   21.5215 C   0  0  0  0  0  0
  -18.1912  -26.7917   22.1627 C   0  0  0  0  0  0
  -19.1494  -28.8828   23.2908 C   0  0  0  0  0  0
  -18.9433  -30.1438   23.8926 C   0  0  0  0  0  0
  -17.6445  -30.6588   24.0562 C   0  0  0  0  0  0
  -25.9038  -34.9467   23.5140 C   0  0  0  0  0  0
  -16.5328  -29.9088   23.6330 C   0  0  0  0  0  0
  -16.7241  -28.6496   23.0372 C   0  0  0  0  0  0
  -26.4467  -31.6559   25.0717 C   0  0  0  0  0  0
  -25.3747  -31.3658   26.1472 C   0  0  0  0  0  0
  -27.0303  -30.3004   24.6102 C   0  0  0  0  0  0
  -27.6049  -32.4269   25.7470 C   0  0  0  0  0  0
  -27.5577  -37.1807   24.8478 C   0  0  0  0  0  0
  -21.4119  -29.3023   22.3748 N   0  0  0  0  0  0
  -26.4291  -37.3799   23.9417 N   0  0  0  0  0  0
  -24.6701  -31.0740   22.1045 N   0  0  0  0  0  0
  -23.4138  -28.8232   23.3132 O   0  0  0  0  0  0
  -28.3686  -26.6364   20.0729 O   0  0  0  0  0  0
  -26.5626  -34.8926   22.4719 O   0  0  0  0  0  0
  -23.5351  -32.1467   23.7498 O   0  0  0  0  0  0
  -31.3739  -18.9350   20.8246 C   0  0  0  0  0  0
  -31.2641  -17.5522   21.1034 C   0  0  0  0  0  0
  -28.9132  -17.6414   20.5105 C   0  0  0  0  0  0
  -30.2755  -19.6730   20.3149 C   0  0  0  0  0  0
  -30.0389  -16.8783   20.8998 C   0  0  0  0  0  0
  -29.0316  -19.0113   20.1847 C   0  0  0  0  0  0
  -30.5085  -21.0357   19.7754 C   0  0  0  0  0  0
  -28.1661  -23.7448   20.8513 C   0  0  0  0  0  0
  -28.7171  -22.3067   21.0434 C   0  0  0  0  0  0
  -29.9124  -23.4449   19.3037 C   0  0  0  0  0  0
  -28.5199  -24.1141   19.3964 C   0  0  2  0  0  0
  -27.5363  -23.3766   18.4395 C   0  0  0  0  0  0
  -28.5790  -25.6508   19.0351 C   0  0  0  0  0  0
  -29.7734  -22.1557   20.0208 N   0  0  0  0  0  0
  -29.8938  -15.4704   21.0920 N   0  0  0  0  0  0
  -31.5534  -21.1652   18.9580 N   0  3  0  0  0  0
  -27.9498  -19.6526   19.6777 F   0  0  0  0  0  0
  -31.4678  -12.4225   19.1254 H   0  0  0  0  0  0
  -30.3341  -11.2965   19.8144 H   0  0  0  0  0  0
  -29.7329  -11.8135   17.4166 H   0  0  0  0  0  0
  -29.6578  -13.5161   17.8010 H   0  0  0  0  0  0
  -27.8205  -11.3160   18.8179 H   0  0  0  0  0  0
  -27.3599  -12.6556   17.8027 H   0  0  0  0  0  0
  -27.7076  -14.2549   19.5963 H   0  0  0  0  0  0
  -28.6812  -11.9364   21.3429 H   0  0  0  0  0  0
  -28.4660  -13.5624   21.8941 H   0  0  0  0  0  0
  -25.2748   -9.5650   22.4824 H   0  0  0  0  0  0
  -23.9991   -7.4598   22.7462 H   0  0  0  0  0  0
  -21.0845   -8.8837   19.8968 H   0  0  0  0  0  0
  -22.3756  -10.9709   19.6229 H   0  0  0  0  0  0
  -21.2001   -7.6155   23.9739 H   0  0  0  0  0  0
  -21.1491   -6.0537   25.9099 H   0  0  0  0  0  0
  -22.0579   -2.7609   23.2904 H   0  0  0  0  0  0
  -22.4029  -11.9780   22.4727 H   0  0  0  0  0  0
  -21.1177  -13.1317   22.2822 H   0  0  0  0  0  0
  -24.6699  -15.8521   20.4847 H   0  0  0  0  0  0
  -26.2663  -15.5987   20.0056 H   0  0  0  0  0  0
  -26.7098  -32.5490   23.1125 H   0  0  0  0  0  0
  -24.9993  -33.9766   25.0423 H   0  0  0  0  0  0
  -22.6925  -31.3141   21.4328 H   0  0  0  0  0  0
  -23.3751  -35.9619   23.3343 H   0  0  0  0  0  0
  -24.3570  -36.8875   22.2061 H   0  0  0  0  0  0
  -23.7208  -37.6502   23.6624 H   0  0  0  0  0  0
  -26.0727  -31.5795   20.6137 H   0  0  0  0  0  0
  -26.8167  -30.8462   22.0045 H   0  0  0  0  0  0
  -28.0903  -29.0333   21.1651 H   0  0  0  0  0  0
  -25.9542  -25.9527   19.0137 H   0  0  0  0  0  0
  -23.9360  -27.3022   19.0445 H   0  0  0  0  0  0
  -23.7103  -30.6185   19.4233 H   0  0  0  0  0  0
  -22.7181  -29.2663   19.8725 H   0  0  0  0  0  0
  -25.1279  -36.2003   25.0851 H   0  0  0  0  0  0
  -20.9922  -28.3223   24.1448 H   0  0  0  0  0  0
  -20.5668  -26.2254   23.3623 H   0  0  0  0  0  0
  -21.6625  -26.7466   22.1217 H   0  0  0  0  0  0
  -19.6939  -25.6312   21.1220 H   0  0  0  0  0  0
  -19.6687  -27.3213   20.6758 H   0  0  0  0  0  0
  -17.4188  -26.6645   21.4033 H   0  0  0  0  0  0
  -18.0339  -26.0034   22.9005 H   0  0  0  0  0  0
  -19.7909  -30.7238   24.2294 H   0  0  0  0  0  0
  -17.5004  -31.6268   24.5148 H   0  0  0  0  0  0
  -15.5336  -30.3014   23.7650 H   0  0  0  0  0  0
  -15.8626  -28.0831   22.7097 H   0  0  0  0  0  0
  -24.5902  -30.7027   25.7804 H   0  0  0  0  0  0
  -24.8955  -32.2807   26.4963 H   0  0  0  0  0  0
  -25.8102  -30.8790   27.0207 H   0  0  0  0  0  0
  -26.2858  -29.6788   24.1111 H   0  0  0  0  0  0
  -27.4036  -29.7206   25.4557 H   0  0  0  0  0  0
  -27.8710  -30.4342   23.9296 H   0  0  0  0  0  0
  -27.2652  -33.3526   26.2125 H   0  0  0  0  0  0
  -28.3781  -32.6890   25.0234 H   0  0  0  0  0  0
  -28.0785  -31.8346   26.5316 H   0  0  0  0  0  0
  -28.2614  -38.0083   24.7497 H   0  0  0  0  0  0
  -28.1051  -36.2614   24.6324 H   0  0  0  0  0  0
  -27.2298  -37.1481   25.8885 H   0  0  0  0  0  0
  -20.9286  -29.8697   21.6925 H   0  0  0  0  0  0
  -26.0194  -38.2895   24.1411 H   0  0  0  0  0  0
  -32.3317  -19.4184   20.9589 H   0  0  0  0  0  0
  -32.1324  -17.0087   21.4483 H   0  0  0  0  0  0
  -27.9539  -17.1630   20.3846 H   0  0  0  0  0  0
  -28.6348  -24.4236   21.5640 H   0  0  0  0  0  0
  -27.0900  -23.7828   21.0286 H   0  0  0  0  0  0
  -27.9097  -21.5950   20.8824 H   0  0  0  0  0  0
  -29.1128  -22.1362   22.0461 H   0  0  0  0  0  0
  -30.6820  -24.0485   19.7922 H   0  0  0  0  0  0
  -30.2015  -23.3223   18.2582 H   0  0  0  0  0  0
  -27.8559  -23.4196   17.3985 H   0  0  0  0  0  0
  -26.5297  -23.7874   18.4845 H   0  0  0  0  0  0
  -27.4427  -22.3197   18.6860 H   0  0  0  0  0  0
  -29.5816  -25.8677   18.6703 H   0  0  0  0  0  0
  -27.9621  -25.8565   18.1577 H   0  0  0  0  0  0
  -28.9704  -15.1610   21.3542 H   0  0  0  0  0  0
  -32.0519  -20.3336   18.6864 H   0  0  0  0  0  0
  -31.9085  -22.0592   18.6636 H   0  0  0  0  0  0
  1 25  1  0  0  0
  1 30  2  0  0  0
  1 85  1  0  0  0
  2  3  1  0  0  0
  2 25  1  0  0  0
  2 88  1  0  0  0
  2 89  1  0  0  0
  3  4  1  0  0  0
  3 90  1  0  0  0
  3 91  1  0  0  0
  4  5  1  0  0  0
  4 92  1  0  0  0
  4 93  1  0  0  0
  5  6  1  0  0  0
  5 26  1  0  0  0
  5 94  1  0  0  0
  6 25  1  0  0  0
  6 95  1  0  0  0
  6 96  1  0  0  0
  7  8  2  0  0  0
  7 26  1  0  0  0
  7 29  1  0  0  0
  8  9  1  0  0  0
  8 22  1  0  0  0
  9 10  1  0  0  0
  9 27  2  0  0  0
 10 11  2  0  0  0
 10 15  1  0  0  0
 11 12  1  0  0  0
 11 97  1  0  0  0
 12 13  2  0  0  0
 12 98  1  0  0  0
 13 14  1  0  0  0
 13 31  1  0  0  0
 14 15  2  0  0  0
 14 99  1  0  0  0
 15100  1  0  0  0
 16 17  2  0  0  0
 16 21  1  0  0  0
 16 31  1  0  0  0
 17 18  1  0  0  0
 17101  1  0  0  0
 18 19  2  0  0  0
 18102  1  0  0  0
 19 20  1  0  0  0
 19 24  1  0  0  0
 20 21  2  0  0  0
 20103  1  0  0  0
 21 23  1  0  0  0
 22 28  1  0  0  0
 22 32  2  0  0  0
 26 27  1  0  0  0
 28104  1  0  0  0
 28105  1  0  0  0
 29106  1  0  0  0
 29107  1  0  0  0
 33 34  1  0  0  0
 33 66  1  0  0  0
 33 70  2  0  0  0
 34 36  1  0  0  0
 34 59  1  0  0  0
 34108  1  0  0  0
 35 44  2  0  0  0
 35 45  1  0  0  0
 35 68  1  0  0  0
 36 56  1  0  0  0
 36109  1  0  0  0
 37 39  1  0  0  0
 37 47  1  0  0  0
 37 66  1  0  0  0
 37110  1  0  0  0
 38 43  2  0  0  0
 38 46  1  0  0  0
 38 47  1  0  0  0
 39 64  1  0  0  0
 39 67  2  0  0  0
 40 52  1  0  0  0
 40 53  2  0  0  0
 40 58  1  0  0  0
 41111  1  0  0  0
 41112  1  0  0  0
 41113  1  0  0  0
 41 48  1  0  0  0
 42 43  1  0  0  0
 42 66  1  0  0  0
 42114  1  0  0  0
 42115  1  0  0  0
 43 44  1  0  0  0
 44116  1  0  0  0
 45 46  2  0  0  0
 45117  1  0  0  0
 46118  1  0  0  0
 47119  1  0  0  0
 47120  1  0  0  0
 48 56  1  0  0  0
 48 65  1  0  0  0
 48121  1  0  0  0
 49 50  1  0  0  0
 49 53  1  0  0  0
 49 64  1  0  0  0
 49122  1  0  0  0
 50 51  1  0  0  0
 50123  1  0  0  0
 50124  1  0  0  0
 51 52  1  0  0  0
 51125  1  0  0  0
 51126  1  0  0  0
 52127  1  0  0  0
 52128  1  0  0  0
 53 54  1  0  0  0
 54 55  2  0  0  0
 54129  1  0  0  0
 55 57  1  0  0  0
 55130  1  0  0  0
 56 69  2  0  0  0
 57 58  2  0  0  0
 57131  1  0  0  0
 58132  1  0  0  0
 59 60  1  0  0  0
 59 61  1  0  0  0
 59 62  1  0  0  0
 60133  1  0  0  0
 60134  1  0  0  0
 60135  1  0  0  0
 61136  1  0  0  0
 61137  1  0  0  0
 61138  1  0  0  0
 62139  1  0  0  0
 62140  1  0  0  0
 62141  1  0  0  0
 63 65  1  0  0  0
 63142  1  0  0  0
 63143  1  0  0  0
 63144  1  0  0  0
 64145  1  0  0  0
 65146  1  0  0  0
 68 83  1  0  0  0
 71 72  2  0  0  0
 71 74  1  0  0  0
 71147  1  0  0  0
 72 75  1  0  0  0
 72148  1  0  0  0
 73 75  2  0  0  0
 73 76  1  0  0  0
 73149  1  0  0  0
 74 76  2  0  0  0
 74 77  1  0  0  0
 75 85  1  0  0  0
 76 87  1  0  0  0
 77 84  1  0  0  0
 77 86  2  0  0  0
 78 79  1  0  0  0
 78 81  1  0  0  0
 78150  1  0  0  0
 78151  1  0  0  0
 79 84  1  0  0  0
 79152  1  0  0  0
 79153  1  0  0  0
 80 81  1  0  0  0
 80 84  1  0  0  0
 80154  1  0  0  0
 80155  1  0  0  0
 81 82  1  0  0  0
 81 83  1  0  0  0
 82156  1  0  0  0
 82157  1  0  0  0
 82158  1  0  0  0
 83159  1  0  0  0
 83160  1  0  0  0
 85161  1  0  0  0
 86162  1  0  0  0
 86163  1  0  0  0
M  CHG  1  86   1
M  ISO  4   1 100  68 101  83 101  85 100
M  END
> <chiral flag>
0

> <version>
0

> <s_m_source_file>
/data/baiqing/PycharmProjects/Reinvent-master-3.2/result/LINK_invent/BTK/process_docking_weight1_custom_product_contain_oxygen_bond_distance_aromatic_linkinvent_7_9_3/rearranged_h_0075.sdf

> <i_m_source_file_index>
74

> <r_mmod_Potential_Energy-OPLS-2005>
-26.4645118713379

> <r_mmod_Stretch_Energy-OPLS-2005>
44.6612014770508

> <r_mmod_Bend_Energy-OPLS-2005>
153.101623535156

> <r_mmod_Torsional_Energy-OPLS-2005>
316.376892089844

> <r_mmod_Improper_Torsional_Energy-OPLS-2005>
5.92769956588745

> <r_mmod_Van_der_Waal_Energy-OPLS-2005>
160.757202148438

> <r_mmod_Electrostatic_Energy-OPLS-2005>
-328.988433837891

> <r_mmod_Solvation_Energy-OPLS-2005>
-395.759796142578

> <b_mmod_Minimization_Converged-OPLS-2005>
0

> <r_mmod_RMS_Derivative-OPLS-2005>
5.31312990188599

$$$$
75
                    3D
 Structure written by MMmdl.
157166  0  0  1  0            999 V2000
  -30.5423  -14.5566   20.6579 C   0  0  0  0  0  0
  -30.3964  -12.4136   19.3777 C   0  0  0  0  0  0
  -29.4371  -12.4988   18.1649 C   0  0  0  0  0  0
  -27.9645  -12.3445   18.6026 C   0  0  0  0  0  0
  -27.6257  -13.1854   19.8670 C   0  0  2  0  0  0
  -28.6566  -12.9027   20.9792 C   0  0  0  0  0  0
  -25.2566  -13.8181   20.6336 C   0  0  0  0  0  0
  -24.1738  -13.0424   20.9695 C   0  0  0  0  0  0
  -24.6201  -11.6871   20.8827 C   0  0  0  0  0  0
  -23.8917  -10.4269   21.0400 C   0  0  0  0  0  0
  -24.3411   -9.4156   21.9152 C   0  0  0  0  0  0
  -23.6080   -8.2212   22.0708 C   0  0  0  0  0  0
  -22.4089   -8.0240   21.3536 C   0  0  0  0  0  0
  -21.9675   -9.0269   20.4786 C   0  0  0  0  0  0
  -22.6998  -10.2167   20.3188 C   0  0  0  0  0  0
  -21.6742   -6.0673   22.5280 C   0  0  0  0  0  0
  -21.3748   -6.5585   23.8165 C   0  0  0  0  0  0
  -21.3490   -5.6814   24.9161 C   0  0  0  0  0  0
  -21.6044   -4.3060   24.7263 C   0  0  0  0  0  0
  -21.8900   -3.8136   23.4459 C   0  0  0  0  0  0
  -21.9207   -4.6895   22.3440 C   0  0  0  0  0  0
  -22.7877  -13.5259   21.2476 C   0  0  0  0  0  0
  -22.1742   -4.2075   21.1026 F   0  0  0  0  0  0
  -21.5659   -3.4583   25.7814 F   0  0  0  0  0  0
  -29.9557  -13.3337   20.4599 N   0  0  0  0  0  0
  -26.2760  -12.9220   20.3349 N   0  0  0  0  0  0
  -25.9049  -11.6399   20.5723 N   0  0  0  0  0  0
  -22.0434  -12.8381   22.1113 N   0  0  0  0  0  0
  -25.4451  -15.1934   20.5630 N   0  0  0  0  0  0
  -31.6832  -14.7513   20.2201 O   0  0  0  0  0  0
  -21.6528   -6.8790   21.4237 O   0  0  0  0  0  0
  -22.3479  -14.5519   20.7251 O   0  0  0  0  0  0
  -24.6158  -31.8533   23.2159 C   0  0  0  0  0  0
  -25.9023  -32.4702   23.8409 C   0  0  1  0  0  0
  -27.2363  -27.3606   20.1332 C   0  0  0  0  0  0
  -25.5854  -33.8500   24.2308 N   0  0  0  0  0  0
  -23.4096  -30.4841   21.5477 C   0  0  2  0  0  0
  -24.8653  -28.9293   20.1264 C   0  0  0  0  0  0
  -22.7381  -29.4629   22.4932 C   0  0  0  0  0  0
  -18.0266  -28.1349   22.8529 C   0  0  0  0  0  0
  -24.1481  -36.7238   23.2663 C   0  0  0  0  0  0
  -25.9471  -30.7881   21.3954 C   0  0  0  0  0  0
  -26.0212  -29.4205   20.7400 C   0  0  0  0  0  0
  -27.2051  -28.6411   20.7481 C   0  0  0  0  0  0
  -26.0656  -26.9015   19.4945 C   0  0  0  0  0  0
  -24.8819  -27.6706   19.5009 C   0  0  0  0  0  0
  -23.6356  -29.8122   20.1636 C   0  0  0  0  0  0
  -25.4096  -36.2992   24.0352 C   0  0  1  0  0  0
  -20.5840  -28.3610   23.1301 C   0  0  2  0  0  0
  -20.6734  -26.9315   22.5436 C   0  0  0  0  0  0
  -19.5724  -26.6377   21.5208 C   0  0  0  0  0  0
  -18.1913  -26.7914   22.1668 C   0  0  0  0  0  0
  -19.1509  -28.8789   23.2936 C   0  0  0  0  0  0
  -18.9470  -30.1391   23.8924 C   0  0  0  0  0  0
  -17.6491  -30.6541   24.0554 C   0  0  0  0  0  0
  -25.9029  -34.9380   23.5142 C   0  0  0  0  0  0
  -16.5367  -29.9054   23.6309 C   0  0  0  0  0  0
  -16.7282  -28.6475   23.0340 C   0  0  0  0  0  0
  -26.4494  -31.6470   25.0726 C   0  0  0  0  0  0
  -25.3816  -31.3503   26.1492 C   0  0  0  0  0  0
  -27.0317  -30.2893   24.6177 C   0  0  0  0  0  0
  -27.6055  -32.4198   25.7430 C   0  0  0  0  0  0
  -27.5552  -37.1787   24.8506 C   0  0  0  0  0  0
  -21.4094  -29.2993   22.3634 N   0  0  0  0  0  0
  -26.4285  -37.3693   23.9409 N   0  0  0  0  0  0
  -24.6718  -31.0636   22.1083 N   0  0  0  0  0  0
  -23.4150  -28.8127   23.2955 O   0  0  0  0  0  0
  -28.3935  -26.5945   20.0969 O   0  0  0  0  0  0
  -26.5625  -34.8885   22.4729 O   0  0  0  0  0  0
  -23.5362  -32.1253   23.7582 O   0  0  0  0  0  0
  -26.9260  -18.8823   22.3086 C   0  0  0  0  0  0
  -27.8304  -17.8119   22.1424 C   0  0  0  0  0  0
  -27.1371  -20.1106   21.6562 C   0  0  0  0  0  0
  -29.1971  -19.2463   20.7187 C   0  0  0  0  0  0
  -28.9944  -17.9699   21.3609 C   0  0  0  0  0  0
  -28.2577  -20.3199   20.8392 C   0  0  0  0  0  0
  -29.0378  -22.6882   20.5330 C   0  0  0  0  0  0
  -30.0832  -16.8837   21.3113 C   0  0  0  0  0  0
  -27.2244  -23.5282   19.2479 C   0  0  0  0  0  0
  -27.2842  -21.9868   19.2098 C   0  0  0  0  0  0
  -28.5425  -23.9983   19.8460 C   0  0  1  0  0  0
  -28.3810  -25.2870   20.7509 C   0  0  0  0  0  0
  -28.3385  -21.5940   20.1463 N   0  0  0  0  0  0
  -29.7505  -15.5563   21.1951 N   0  0  0  0  0  0
  -30.0089  -22.6698   21.2992 O   0  0  0  0  0  0
  -31.2546  -17.2942   21.3172 O   0  0  0  0  0  0
  -31.4079  -12.6293   19.0405 H   0  0  0  0  0  0
  -30.4197  -11.3826   19.7420 H   0  0  0  0  0  0
  -29.6688  -11.7158   17.4352 H   0  0  0  0  0  0
  -29.5787  -13.4418   17.6287 H   0  0  0  0  0  0
  -27.7959  -11.2847   18.8241 H   0  0  0  0  0  0
  -27.2707  -12.5671   17.7864 H   0  0  0  0  0  0
  -27.6737  -14.2376   19.5866 H   0  0  0  0  0  0
  -28.7056  -11.8251   21.2000 H   0  0  0  0  0  0
  -28.3890  -13.3818   21.9168 H   0  0  0  0  0  0
  -25.2441   -9.5611   22.4809 H   0  0  0  0  0  0
  -23.9815   -7.4638   22.7481 H   0  0  0  0  0  0
  -21.0455   -8.8978   19.9258 H   0  0  0  0  0  0
  -22.3291  -10.9777   19.6433 H   0  0  0  0  0  0
  -21.1475   -7.6040   23.9626 H   0  0  0  0  0  0
  -21.1179   -6.0501   25.9078 H   0  0  0  0  0  0
  -22.0786   -2.7608   23.3069 H   0  0  0  0  0  0
  -22.3843  -12.0001   22.5645 H   0  0  0  0  0  0
  -21.1026  -13.1471   22.3157 H   0  0  0  0  0  0
  -25.9092  -15.6334   19.7757 H   0  0  0  0  0  0
  -24.7574  -15.8040   21.0051 H   0  0  0  0  0  0
  -26.6995  -32.5391   23.1070 H   0  0  0  0  0  0
  -24.9921  -33.9633   25.0396 H   0  0  0  0  0  0
  -22.7032  -31.3025   21.3977 H   0  0  0  0  0  0
  -23.3715  -35.9624   23.3452 H   0  0  0  0  0  0
  -24.3524  -36.8741   22.2051 H   0  0  0  0  0  0
  -23.7323  -37.6511   23.6625 H   0  0  0  0  0  0
  -26.1003  -31.5609   20.6386 H   0  0  0  0  0  0
  -26.8262  -30.8246   22.0305 H   0  0  0  0  0  0
  -28.0854  -29.0141   21.2514 H   0  0  0  0  0  0
  -26.0768  -25.9610   18.9642 H   0  0  0  0  0  0
  -23.9970  -27.2939   19.0002 H   0  0  0  0  0  0
  -23.7704  -30.5850   19.4022 H   0  0  0  0  0  0
  -22.7604  -29.2380   19.8488 H   0  0  0  0  0  0
  -25.1283  -36.1860   25.0853 H   0  0  0  0  0  0
  -20.9964  -28.3230   24.1418 H   0  0  0  0  0  0
  -20.5530  -26.2220   23.3639 H   0  0  0  0  0  0
  -21.6609  -26.7284   22.1272 H   0  0  0  0  0  0
  -19.6818  -25.6303   21.1170 H   0  0  0  0  0  0
  -19.6669  -27.3240   20.6775 H   0  0  0  0  0  0
  -17.4159  -26.6643   21.4089 H   0  0  0  0  0  0
  -18.0345  -26.0016   22.9042 H   0  0  0  0  0  0
  -19.7935  -30.7160   24.2363 H   0  0  0  0  0  0
  -17.5042  -31.6232   24.5113 H   0  0  0  0  0  0
  -15.5347  -30.2985   23.7564 H   0  0  0  0  0  0
  -15.8715  -28.0772   22.7060 H   0  0  0  0  0  0
  -24.6095  -30.6694   25.7863 H   0  0  0  0  0  0
  -24.8905  -32.2591   26.5008 H   0  0  0  0  0  0
  -25.8311  -30.8691   27.0189 H   0  0  0  0  0  0
  -26.2822  -29.6657   24.1313 H   0  0  0  0  0  0
  -27.4039  -29.7105   25.4633 H   0  0  0  0  0  0
  -27.8694  -30.4099   23.9302 H   0  0  0  0  0  0
  -27.2687  -33.3514   26.2003 H   0  0  0  0  0  0
  -28.3844  -32.6747   25.0207 H   0  0  0  0  0  0
  -28.0709  -31.8297   26.5349 H   0  0  0  0  0  0
  -28.2670  -37.9963   24.7350 H   0  0  0  0  0  0
  -28.0928  -36.2497   24.6581 H   0  0  0  0  0  0
  -27.2240  -37.1744   25.8900 H   0  0  0  0  0  0
  -20.9216  -29.8746   21.6886 H   0  0  0  0  0  0
  -26.0169  -38.2789   24.1348 H   0  0  0  0  0  0
  -26.0627  -18.7723   22.9494 H   0  0  0  0  0  0
  -27.6775  -16.8919   22.6780 H   0  0  0  0  0  0
  -26.4332  -20.9173   21.7988 H   0  0  0  0  0  0
  -30.0867  -19.4064   20.1181 H   0  0  0  0  0  0
  -26.3966  -23.8217   19.8956 H   0  0  0  0  0  0
  -27.0302  -23.9617   18.2622 H   0  0  0  0  0  0
  -27.5364  -21.6433   18.2051 H   0  0  0  0  0  0
  -26.3200  -21.5489   19.4645 H   0  0  0  0  0  0
  -29.2714  -24.1974   19.0595 H   0  0  0  0  0  0
  -29.2135  -25.3068   21.4521 H   0  0  0  0  0  0
  -27.5003  -25.1774   21.3821 H   0  0  0  0  0  0
  -28.7927  -15.3182   21.4105 H   0  0  0  0  0  0
  1 25  1  0  0  0
  1 30  2  0  0  0
  1 84  1  0  0  0
  2  3  1  0  0  0
  2 25  1  0  0  0
  2 87  1  0  0  0
  2 88  1  0  0  0
  3  4  1  0  0  0
  3 89  1  0  0  0
  3 90  1  0  0  0
  4  5  1  0  0  0
  4 91  1  0  0  0
  4 92  1  0  0  0
  5  6  1  0  0  0
  5 26  1  0  0  0
  5 93  1  0  0  0
  6 25  1  0  0  0
  6 94  1  0  0  0
  6 95  1  0  0  0
  7  8  2  0  0  0
  7 26  1  0  0  0
  7 29  1  0  0  0
  8  9  1  0  0  0
  8 22  1  0  0  0
  9 10  1  0  0  0
  9 27  2  0  0  0
 10 11  2  0  0  0
 10 15  1  0  0  0
 11 12  1  0  0  0
 11 96  1  0  0  0
 12 13  2  0  0  0
 12 97  1  0  0  0
 13 14  1  0  0  0
 13 31  1  0  0  0
 14 15  2  0  0  0
 14 98  1  0  0  0
 15 99  1  0  0  0
 16 17  2  0  0  0
 16 21  1  0  0  0
 16 31  1  0  0  0
 17 18  1  0  0  0
 17100  1  0  0  0
 18 19  2  0  0  0
 18101  1  0  0  0
 19 20  1  0  0  0
 19 24  1  0  0  0
 20 21  2  0  0  0
 20102  1  0  0  0
 21 23  1  0  0  0
 22 28  1  0  0  0
 22 32  2  0  0  0
 26 27  1  0  0  0
 28103  1  0  0  0
 28104  1  0  0  0
 29105  1  0  0  0
 29106  1  0  0  0
 33 34  1  0  0  0
 33 66  1  0  0  0
 33 70  2  0  0  0
 34 36  1  0  0  0
 34 59  1  0  0  0
 34107  1  0  0  0
 35 44  2  0  0  0
 35 45  1  0  0  0
 35 68  1  0  0  0
 36 56  1  0  0  0
 36108  1  0  0  0
 37 39  1  0  0  0
 37 47  1  0  0  0
 37 66  1  0  0  0
 37109  1  0  0  0
 38 43  2  0  0  0
 38 46  1  0  0  0
 38 47  1  0  0  0
 39 64  1  0  0  0
 39 67  2  0  0  0
 40 52  1  0  0  0
 40 53  2  0  0  0
 40 58  1  0  0  0
 41110  1  0  0  0
 41111  1  0  0  0
 41112  1  0  0  0
 41 48  1  0  0  0
 42 43  1  0  0  0
 42 66  1  0  0  0
 42113  1  0  0  0
 42114  1  0  0  0
 43 44  1  0  0  0
 44115  1  0  0  0
 45 46  2  0  0  0
 45116  1  0  0  0
 46117  1  0  0  0
 47118  1  0  0  0
 47119  1  0  0  0
 48 56  1  0  0  0
 48 65  1  0  0  0
 48120  1  0  0  0
 49 50  1  0  0  0
 49 53  1  0  0  0
 49 64  1  0  0  0
 49121  1  0  0  0
 50 51  1  0  0  0
 50122  1  0  0  0
 50123  1  0  0  0
 51 52  1  0  0  0
 51124  1  0  0  0
 51125  1  0  0  0
 52126  1  0  0  0
 52127  1  0  0  0
 53 54  1  0  0  0
 54 55  2  0  0  0
 54128  1  0  0  0
 55 57  1  0  0  0
 55129  1  0  0  0
 56 69  2  0  0  0
 57 58  2  0  0  0
 57130  1  0  0  0
 58131  1  0  0  0
 59 60  1  0  0  0
 59 61  1  0  0  0
 59 62  1  0  0  0
 60132  1  0  0  0
 60133  1  0  0  0
 60134  1  0  0  0
 61135  1  0  0  0
 61136  1  0  0  0
 61137  1  0  0  0
 62138  1  0  0  0
 62139  1  0  0  0
 62140  1  0  0  0
 63 65  1  0  0  0
 63141  1  0  0  0
 63142  1  0  0  0
 63143  1  0  0  0
 64144  1  0  0  0
 65145  1  0  0  0
 68 82  1  0  0  0
 71 72  2  0  0  0
 71 73  1  0  0  0
 71146  1  0  0  0
 72 75  1  0  0  0
 72147  1  0  0  0
 73 76  2  0  0  0
 73148  1  0  0  0
 74 75  2  0  0  0
 74 76  1  0  0  0
 74149  1  0  0  0
 75 78  1  0  0  0
 76 83  1  0  0  0
 77 81  1  0  0  0
 77 83  1  0  0  0
 77 85  2  0  0  0
 78 84  1  0  0  0
 78 86  2  0  0  0
 79 80  1  0  0  0
 79 81  1  0  0  0
 79150  1  0  0  0
 79151  1  0  0  0
 80 83  1  0  0  0
 80152  1  0  0  0
 80153  1  0  0  0
 81 82  1  0  0  0
 81154  1  0  0  0
 82155  1  0  0  0
 82156  1  0  0  0
 84157  1  0  0  0
M  ISO  4   1 100  68 101  82 101  84 100
M  END
> <chiral flag>
0

> <version>
0

> <s_m_source_file>
/data/baiqing/PycharmProjects/Reinvent-master-3.2/result/LINK_invent/BTK/process_docking_weight1_custom_product_contain_oxygen_bond_distance_aromatic_linkinvent_7_9_3/rearranged_h_0075.sdf

> <i_m_source_file_index>
75

> <r_mmod_Potential_Energy-OPLS-2005>
94.8851089477539

> <r_mmod_Stretch_Energy-OPLS-2005>
65.4957580566406

> <r_mmod_Bend_Energy-OPLS-2005>
141.522598266602

> <r_mmod_Torsional_Energy-OPLS-2005>
341.875427246094

> <r_mmod_Improper_Torsional_Energy-OPLS-2005>
8.3731689453125

> <r_mmod_Van_der_Waal_Energy-OPLS-2005>
140.4580078125

> <r_mmod_Electrostatic_Energy-OPLS-2005>
-404.625

> <r_mmod_Solvation_Energy-OPLS-2005>
-238.381973266602

> <b_mmod_Minimization_Converged-OPLS-2005>
0

> <r_mmod_RMS_Derivative-OPLS-2005>
16.3143463134766

$$$$
76
                    3D
 Structure written by MMmdl.
161170  0  0  1  0            999 V2000
  -30.6466  -14.5436   20.5485 C   0  0  0  0  0  0
  -30.4381  -12.3402   19.4358 C   0  0  0  0  0  0
  -29.5047  -12.5011   18.2152 C   0  0  0  0  0  0
  -28.0252  -12.3532   18.6253 C   0  0  0  0  0  0
  -27.6616  -13.2031   19.8723 C   0  0  2  0  0  0
  -28.7030  -12.9962   20.9960 C   0  0  0  0  0  0
  -25.2604  -13.8148   20.5671 C   0  0  0  0  0  0
  -24.1846  -13.0438   20.9171 C   0  0  0  0  0  0
  -24.6388  -11.6900   20.8730 C   0  0  0  0  0  0
  -23.9049  -10.4294   21.0403 C   0  0  0  0  0  0
  -24.3606   -9.4210   21.9180 C   0  0  0  0  0  0
  -23.6282   -8.2247   22.0752 C   0  0  0  0  0  0
  -22.4268   -8.0280   21.3538 C   0  0  0  0  0  0
  -21.9898   -9.0257   20.4647 C   0  0  0  0  0  0
  -22.7219  -10.2138   20.3055 C   0  0  0  0  0  0
  -21.6857   -6.0730   22.5275 C   0  0  0  0  0  0
  -21.4017   -6.5637   23.8206 C   0  0  0  0  0  0
  -21.3656   -5.6789   24.9170 C   0  0  0  0  0  0
  -21.6042   -4.3051   24.7222 C   0  0  0  0  0  0
  -21.8822   -3.8140   23.4346 C   0  0  0  0  0  0
  -21.9194   -4.6955   22.3401 C   0  0  0  0  0  0
  -22.7873  -13.5246   21.1839 C   0  0  0  0  0  0
  -22.1661   -4.2139   21.0980 F   0  0  0  0  0  0
  -21.5627   -3.4536   25.7736 F   0  0  0  0  0  0
  -30.0306  -13.3293   20.4481 N   0  0  0  0  0  0
  -26.3022  -12.9302   20.3340 N   0  0  0  0  0  0
  -25.9315  -11.6470   20.5758 N   0  0  0  0  0  0
  -22.0515  -12.8245   22.0406 N   0  0  0  0  0  0
  -25.4346  -15.1868   20.4083 N   0  0  0  0  0  0
  -31.7788  -14.7480   20.0985 O   0  0  0  0  0  0
  -21.6639   -6.8871   21.4235 O   0  0  0  0  0  0
  -22.3558  -14.5546   20.6680 O   0  0  0  0  0  0
  -24.6188  -31.8642   23.2059 C   0  0  0  0  0  0
  -25.9062  -32.4799   23.8367 C   0  0  1  0  0  0
  -27.2324  -27.3868   20.1041 C   0  0  0  0  0  0
  -25.5901  -33.8598   24.2295 N   0  0  0  0  0  0
  -23.4088  -30.4871   21.5483 C   0  0  2  0  0  0
  -24.8547  -28.9480   20.1124 C   0  0  0  0  0  0
  -22.7435  -29.4640   22.4975 C   0  0  0  0  0  0
  -18.0279  -28.1381   22.8490 C   0  0  0  0  0  0
  -24.1487  -36.7309   23.2638 C   0  0  0  0  0  0
  -25.9419  -30.8163   21.3646 C   0  0  0  0  0  0
  -26.0180  -29.4479   20.7099 C   0  0  0  0  0  0
  -27.2085  -28.6767   20.6977 C   0  0  0  0  0  0
  -26.0476  -26.9173   19.4909 C   0  0  0  0  0  0
  -24.8673  -27.6848   19.4974 C   0  0  0  0  0  0
  -23.6187  -29.8198   20.1631 C   0  0  0  0  0  0
  -25.4110  -36.3095   24.0331 C   0  0  1  0  0  0
  -20.5871  -28.3669   23.1310 C   0  0  2  0  0  0
  -20.6765  -26.9400   22.5422 C   0  0  0  0  0  0
  -19.5748  -26.6386   21.5214 C   0  0  0  0  0  0
  -18.1927  -26.7924   22.1627 C   0  0  0  0  0  0
  -19.1529  -28.8843   23.2897 C   0  0  0  0  0  0
  -18.9453  -30.1448   23.8909 C   0  0  0  0  0  0
  -17.6457  -30.6582   24.0569 C   0  0  0  0  0  0
  -25.9041  -34.9462   23.5114 C   0  0  0  0  0  0
  -16.5348  -29.9088   23.6325 C   0  0  0  0  0  0
  -16.7268  -28.6508   23.0340 C   0  0  0  0  0  0
  -26.4476  -31.6592   25.0710 C   0  0  0  0  0  0
  -25.3737  -31.3723   26.1461 C   0  0  0  0  0  0
  -27.0298  -30.3024   24.6107 C   0  0  0  0  0  0
  -27.6048  -32.4318   25.7472 C   0  0  0  0  0  0
  -27.5580  -37.1807   24.8464 C   0  0  0  0  0  0
  -21.4159  -29.3029   22.3711 N   0  0  0  0  0  0
  -26.4294  -37.3783   23.9405 N   0  0  0  0  0  0
  -24.6753  -31.0710   22.0978 N   0  0  0  0  0  0
  -23.4188  -28.8185   23.3034 O   0  0  0  0  0  0
  -28.3934  -26.6229   20.1426 O   0  0  0  0  0  0
  -26.5614  -34.8923   22.4681 O   0  0  0  0  0  0
  -23.5371  -32.1411   23.7432 O   0  0  0  0  0  0
  -28.6546  -19.0785   21.3139 C   0  0  0  0  0  0
  -28.7562  -17.6700   21.4218 C   0  0  0  0  0  0
  -30.8985  -17.7288   20.3124 C   0  0  0  0  0  0
  -29.6706  -19.8582   20.7053 C   0  0  0  0  0  0
  -29.8748  -16.9616   20.9246 C   0  0  0  0  0  0
  -30.7995  -19.1437   20.2059 C   0  0  0  0  0  0
  -30.1463  -23.4347   19.3925 C   0  0  0  0  0  0
  -29.7517  -21.9367   19.3184 C   0  0  0  0  0  0
  -29.1906  -23.4677   21.7542 C   0  0  0  0  0  0
  -28.6640  -22.0311   21.5002 C   0  0  0  0  0  0
  -29.5397  -24.3477   20.5043 C   0  0  1  0  0  0
  -30.6364  -25.3528   20.9479 C   0  0  0  0  0  0
  -28.3017  -25.1766   19.9690 C   0  0  0  0  0  0
  -29.5737  -21.2858   20.6250 N   0  0  0  0  0  0
  -29.8707  -15.5238   21.0770 N   0  0  0  0  0  0
  -30.9227  -23.8958   18.5506 O   0  0  0  0  0  0
  -31.8304  -19.8172   19.6378 F   0  0  0  0  0  0
  -31.4799  -12.4618   19.1346 H   0  0  0  0  0  0
  -30.3641  -11.3320   19.8461 H   0  0  0  0  0  0
  -29.7543  -11.7625   17.4520 H   0  0  0  0  0  0
  -29.6622  -13.4789   17.7571 H   0  0  0  0  0  0
  -27.8467  -11.2976   18.8347 H   0  0  0  0  0  0
  -27.3728  -12.6096   17.7894 H   0  0  0  0  0  0
  -27.7004  -14.2480   19.5637 H   0  0  0  0  0  0
  -28.6950  -11.9591   21.3348 H   0  0  0  0  0  0
  -28.4504  -13.5870   21.8776 H   0  0  0  0  0  0
  -25.2759   -9.5684   22.4748 H   0  0  0  0  0  0
  -23.9987   -7.4644   22.7480 H   0  0  0  0  0  0
  -21.0820   -8.8773   19.8965 H   0  0  0  0  0  0
  -22.3672  -10.9675   19.6161 H   0  0  0  0  0  0
  -21.2019   -7.6148   23.9703 H   0  0  0  0  0  0
  -21.1471   -6.0525   25.9069 H   0  0  0  0  0  0
  -22.0606   -2.7602   23.2853 H   0  0  0  0  0  0
  -22.4121  -11.9900   22.4789 H   0  0  0  0  0  0
  -21.1138  -13.1284   22.2615 H   0  0  0  0  0  0
  -24.6692  -15.8431   20.5144 H   0  0  0  0  0  0
  -26.2825  -15.6212   20.0670 H   0  0  0  0  0  0
  -26.7130  -32.5493   23.1123 H   0  0  0  0  0  0
  -25.0041  -33.9751   25.0435 H   0  0  0  0  0  0
  -22.6991  -31.3051   21.4080 H   0  0  0  0  0  0
  -23.3733  -35.9660   23.3317 H   0  0  0  0  0  0
  -24.3575  -36.8909   22.2049 H   0  0  0  0  0  0
  -23.7261  -37.6528   23.6644 H   0  0  0  0  0  0
  -26.0593  -31.5810   20.5955 H   0  0  0  0  0  0
  -26.8279  -30.8691   21.9857 H   0  0  0  0  0  0
  -28.1053  -29.0585   21.1649 H   0  0  0  0  0  0
  -26.0141  -25.9543   19.0026 H   0  0  0  0  0  0
  -23.9742  -27.2959   19.0279 H   0  0  0  0  0  0
  -23.7303  -30.5955   19.4048 H   0  0  0  0  0  0
  -22.7408  -29.2437   19.8648 H   0  0  0  0  0  0
  -25.1290  -36.1955   25.0825 H   0  0  0  0  0  0
  -20.9965  -28.3238   24.1430 H   0  0  0  0  0  0
  -20.5665  -26.2277   23.3614 H   0  0  0  0  0  0
  -21.6635  -26.7437   22.1216 H   0  0  0  0  0  0
  -19.6907  -25.6300   21.1232 H   0  0  0  0  0  0
  -19.6689  -27.3209   20.6754 H   0  0  0  0  0  0
  -17.4197  -26.6670   21.4029 H   0  0  0  0  0  0
  -18.0331  -26.0068   22.9028 H   0  0  0  0  0  0
  -19.7931  -30.7259   24.2285 H   0  0  0  0  0  0
  -17.5011  -31.6259   24.5180 H   0  0  0  0  0  0
  -15.5350  -30.2994   23.7641 H   0  0  0  0  0  0
  -15.8670  -28.0837   22.7037 H   0  0  0  0  0  0
  -24.5902  -30.7074   25.7809 H   0  0  0  0  0  0
  -24.8939  -32.2891   26.4899 H   0  0  0  0  0  0
  -25.8086  -30.8903   27.0225 H   0  0  0  0  0  0
  -26.2843  -29.6795   24.1148 H   0  0  0  0  0  0
  -27.4040  -29.7254   25.4573 H   0  0  0  0  0  0
  -27.8694  -30.4327   23.9274 H   0  0  0  0  0  0
  -27.2657  -33.3603   26.2078 H   0  0  0  0  0  0
  -28.3838  -32.6907   25.0289 H   0  0  0  0  0  0
  -28.0736  -31.8428   26.5365 H   0  0  0  0  0  0
  -28.2611  -38.0090   24.7483 H   0  0  0  0  0  0
  -28.1059  -36.2618   24.6316 H   0  0  0  0  0  0
  -27.2294  -37.1493   25.8868 H   0  0  0  0  0  0
  -20.9327  -29.8749   21.6927 H   0  0  0  0  0  0
  -26.0178  -38.2860   24.1399 H   0  0  0  0  0  0
  -27.7657  -19.5463   21.7082 H   0  0  0  0  0  0
  -27.9460  -17.1343   21.8968 H   0  0  0  0  0  0
  -31.7828  -17.2522   19.9193 H   0  0  0  0  0  0
  -30.5008  -21.4216   18.7195 H   0  0  0  0  0  0
  -28.8182  -21.8653   18.7593 H   0  0  0  0  0  0
  -30.0833  -23.3644   22.3730 H   0  0  0  0  0  0
  -28.4784  -24.0000   22.3860 H   0  0  0  0  0  0
  -27.6687  -22.0671   21.0520 H   0  0  0  0  0  0
  -28.5567  -21.5327   22.4654 H   0  0  0  0  0  0
  -31.5493  -24.8437   21.2605 H   0  0  0  0  0  0
  -30.3010  -25.9578   21.7909 H   0  0  0  0  0  0
  -30.9107  -26.0381   20.1446 H   0  0  0  0  0  0
  -27.4004  -24.8048   20.4591 H   0  0  0  0  0  0
  -28.1570  -24.9890   18.9034 H   0  0  0  0  0  0
  -29.0304  -15.1527   21.4931 H   0  0  0  0  0  0
  1 25  1  0  0  0
  1 30  2  0  0  0
  1 85  1  0  0  0
  2  3  1  0  0  0
  2 25  1  0  0  0
  2 88  1  0  0  0
  2 89  1  0  0  0
  3  4  1  0  0  0
  3 90  1  0  0  0
  3 91  1  0  0  0
  4  5  1  0  0  0
  4 92  1  0  0  0
  4 93  1  0  0  0
  5  6  1  0  0  0
  5 26  1  0  0  0
  5 94  1  0  0  0
  6 25  1  0  0  0
  6 95  1  0  0  0
  6 96  1  0  0  0
  7  8  2  0  0  0
  7 26  1  0  0  0
  7 29  1  0  0  0
  8  9  1  0  0  0
  8 22  1  0  0  0
  9 10  1  0  0  0
  9 27  2  0  0  0
 10 11  2  0  0  0
 10 15  1  0  0  0
 11 12  1  0  0  0
 11 97  1  0  0  0
 12 13  2  0  0  0
 12 98  1  0  0  0
 13 14  1  0  0  0
 13 31  1  0  0  0
 14 15  2  0  0  0
 14 99  1  0  0  0
 15100  1  0  0  0
 16 17  2  0  0  0
 16 21  1  0  0  0
 16 31  1  0  0  0
 17 18  1  0  0  0
 17101  1  0  0  0
 18 19  2  0  0  0
 18102  1  0  0  0
 19 20  1  0  0  0
 19 24  1  0  0  0
 20 21  2  0  0  0
 20103  1  0  0  0
 21 23  1  0  0  0
 22 28  1  0  0  0
 22 32  2  0  0  0
 26 27  1  0  0  0
 28104  1  0  0  0
 28105  1  0  0  0
 29106  1  0  0  0
 29107  1  0  0  0
 33 34  1  0  0  0
 33 66  1  0  0  0
 33 70  2  0  0  0
 34 36  1  0  0  0
 34 59  1  0  0  0
 34108  1  0  0  0
 35 44  2  0  0  0
 35 45  1  0  0  0
 35 68  1  0  0  0
 36 56  1  0  0  0
 36109  1  0  0  0
 37 39  1  0  0  0
 37 47  1  0  0  0
 37 66  1  0  0  0
 37110  1  0  0  0
 38 43  2  0  0  0
 38 46  1  0  0  0
 38 47  1  0  0  0
 39 64  1  0  0  0
 39 67  2  0  0  0
 40 52  1  0  0  0
 40 53  2  0  0  0
 40 58  1  0  0  0
 41111  1  0  0  0
 41112  1  0  0  0
 41113  1  0  0  0
 41 48  1  0  0  0
 42 43  1  0  0  0
 42 66  1  0  0  0
 42114  1  0  0  0
 42115  1  0  0  0
 43 44  1  0  0  0
 44116  1  0  0  0
 45 46  2  0  0  0
 45117  1  0  0  0
 46118  1  0  0  0
 47119  1  0  0  0
 47120  1  0  0  0
 48 56  1  0  0  0
 48 65  1  0  0  0
 48121  1  0  0  0
 49 50  1  0  0  0
 49 53  1  0  0  0
 49 64  1  0  0  0
 49122  1  0  0  0
 50 51  1  0  0  0
 50123  1  0  0  0
 50124  1  0  0  0
 51 52  1  0  0  0
 51125  1  0  0  0
 51126  1  0  0  0
 52127  1  0  0  0
 52128  1  0  0  0
 53 54  1  0  0  0
 54 55  2  0  0  0
 54129  1  0  0  0
 55 57  1  0  0  0
 55130  1  0  0  0
 56 69  2  0  0  0
 57 58  2  0  0  0
 57131  1  0  0  0
 58132  1  0  0  0
 59 60  1  0  0  0
 59 61  1  0  0  0
 59 62  1  0  0  0
 60133  1  0  0  0
 60134  1  0  0  0
 60135  1  0  0  0
 61136  1  0  0  0
 61137  1  0  0  0
 61138  1  0  0  0
 62139  1  0  0  0
 62140  1  0  0  0
 62141  1  0  0  0
 63 65  1  0  0  0
 63142  1  0  0  0
 63143  1  0  0  0
 63144  1  0  0  0
 64145  1  0  0  0
 65146  1  0  0  0
 68 83  1  0  0  0
 71 72  2  0  0  0
 71 74  1  0  0  0
 71147  1  0  0  0
 72 75  1  0  0  0
 72148  1  0  0  0
 73 75  2  0  0  0
 73 76  1  0  0  0
 73149  1  0  0  0
 74 76  2  0  0  0
 74 84  1  0  0  0
 75 85  1  0  0  0
 76 87  1  0  0  0
 77 78  1  0  0  0
 77 81  1  0  0  0
 77 86  2  0  0  0
 78 84  1  0  0  0
 78150  1  0  0  0
 78151  1  0  0  0
 79 80  1  0  0  0
 79 81  1  0  0  0
 79152  1  0  0  0
 79153  1  0  0  0
 80 84  1  0  0  0
 80154  1  0  0  0
 80155  1  0  0  0
 81 82  1  0  0  0
 81 83  1  0  0  0
 82156  1  0  0  0
 82157  1  0  0  0
 82158  1  0  0  0
 83159  1  0  0  0
 83160  1  0  0  0
 85161  1  0  0  0
M  ISO  4   1 100  68 101  83 101  85 100
M  END
> <chiral flag>
0

> <version>
0

> <s_m_source_file>
/data/baiqing/PycharmProjects/Reinvent-master-3.2/result/LINK_invent/BTK/process_docking_weight1_custom_product_contain_oxygen_bond_distance_aromatic_linkinvent_7_9_3/rearranged_h_0075.sdf

> <i_m_source_file_index>
76

> <r_mmod_Potential_Energy-OPLS-2005>
112.447532653809

> <r_mmod_Stretch_Energy-OPLS-2005>
57.9954299926758

> <r_mmod_Bend_Energy-OPLS-2005>
132.763488769531

> <r_mmod_Torsional_Energy-OPLS-2005>
247.546875

> <r_mmod_Improper_Torsional_Energy-OPLS-2005>
6.00095653533936

> <r_mmod_Van_der_Waal_Energy-OPLS-2005>
167.510131835938

> <r_mmod_Electrostatic_Energy-OPLS-2005>
-289.927032470703

> <r_mmod_Solvation_Energy-OPLS-2005>
-232.128128051758

> <b_mmod_Minimization_Converged-OPLS-2005>
0

> <r_mmod_RMS_Derivative-OPLS-2005>
0.905781388282776

$$$$
77
                    3D
 Structure written by MMmdl.
167176  0  0  1  0            999 V2000
  -27.3999  -17.7428   20.5802 C   0  0  0  0  0  0
  -29.2644  -15.0828   19.6081 C   0  0  0  0  0  0
  -29.2436  -13.6806   18.6743 C   0  0  0  0  0  0
  -28.2541  -12.6245   19.1424 C   0  0  0  0  0  0
  -27.3089  -13.5093   19.9295 C   0  0  2  0  0  0
  -27.8267  -14.5634   21.0033 C   0  0  0  0  0  0
  -25.0259  -13.8227   20.5608 C   0  0  0  0  0  0
  -24.0351  -13.0047   20.9433 C   0  0  0  0  0  0
  -24.5686  -11.6772   20.8973 C   0  0  0  0  0  0
  -23.8781  -10.4076   21.0499 C   0  0  0  0  0  0
  -24.3497   -9.4084   21.9247 C   0  0  0  0  0  0
  -23.6242   -8.2100   22.0774 C   0  0  0  0  0  0
  -22.4226   -8.0144   21.3543 C   0  0  0  0  0  0
  -21.9798   -9.0050   20.4618 C   0  0  0  0  0  0
  -22.7047  -10.1927   20.3051 C   0  0  0  0  0  0
  -21.6819   -6.0665   22.5293 C   0  0  0  0  0  0
  -21.3981   -6.5596   23.8215 C   0  0  0  0  0  0
  -21.3656   -5.6766   24.9188 C   0  0  0  0  0  0
  -21.6044   -4.3029   24.7240 C   0  0  0  0  0  0
  -21.8839   -3.8105   23.4371 C   0  0  0  0  0  0
  -21.9191   -4.6906   22.3422 C   0  0  0  0  0  0
  -22.6477  -13.4682   21.2123 C   0  0  0  0  0  0
  -22.1670   -4.2099   21.0999 F   0  0  0  0  0  0
  -21.5640   -3.4531   25.7763 F   0  0  0  0  0  0
  -27.9266  -16.0013   20.3291 N   0  0  0  0  0  0
  -26.0939  -12.9911   20.3602 N   0  0  0  0  0  0
  -25.8632  -11.6833   20.5924 N   0  0  0  0  0  0
  -21.9405  -12.7695   22.0846 N   0  0  0  0  0  0
  -25.0950  -15.2006   20.3446 N   0  0  0  0  0  0
  -28.7623  -17.6826   20.4989 O   0  0  0  0  0  0
  -21.6602   -6.8762   21.4237 O   0  0  0  0  0  0
  -22.2165  -14.5011   20.6985 O   0  0  0  0  0  0
  -24.6212  -31.9017   23.2067 C   0  0  0  0  0  0
  -25.9156  -32.4976   23.8410 C   0  0  1  0  0  0
  -27.2030  -27.4719   20.0063 C   0  0  0  0  0  0
  -25.6029  -33.8738   24.2403 N   0  0  0  0  0  0
  -23.4338  -30.4000   21.6443 C   0  0  2  0  0  0
  -24.8461  -29.0261   20.1103 C   0  0  0  0  0  0
  -23.1549  -29.2258   22.6223 C   0  0  0  0  0  0
  -18.8055  -25.9746   23.3188 C   0  0  0  0  0  0
  -24.1493  -36.7351   23.2621 C   0  0  0  0  0  0
  -25.9520  -30.8320   21.4036 C   0  0  0  0  0  0
  -26.0127  -29.4736   20.7480 C   0  0  0  0  0  0
  -27.1852  -28.6687   20.7605 C   0  0  0  0  0  0
  -26.0826  -27.2232   19.2078 C   0  0  0  0  0  0
  -24.8693  -27.8763   19.3421 C   0  0  0  0  0  0
  -23.5972  -29.8524   20.2159 C   0  0  0  0  0  0
  -25.4119  -36.3194   24.0344 C   0  0  1  0  0  0
  -21.5720  -27.6320   23.7032 C   0  0  2  0  0  0
  -21.7320  -26.1930   23.5306 C   0  0  0  0  0  0
  -20.5859  -25.0695   23.6375 C   0  0  0  0  0  0
  -19.2401  -24.7912   23.0480 C   0  0  0  0  0  0
  -20.1488  -27.5976   23.9544 C   0  0  0  0  0  0
  -20.0801  -29.3344   23.0168 C   0  0  0  0  0  0
  -19.0869  -29.5450   21.4718 C   0  0  0  0  0  0
  -25.9069  -34.9569   23.5146 C   0  0  0  0  0  0
  -17.9594  -28.1567   20.6943 C   0  0  0  0  0  0
  -17.7747  -26.2638   21.4350 C   0  0  0  0  0  0
  -26.4553  -31.6650   25.0710 C   0  0  0  0  0  0
  -25.3766  -31.3630   26.1366 C   0  0  0  0  0  0
  -27.0587  -30.3156   24.6123 C   0  0  0  0  0  0
  -27.6042  -32.4408   25.7561 C   0  0  0  0  0  0
  -27.5605  -37.1833   24.8471 C   0  0  0  0  0  0
  -22.1451  -28.3879   22.4937 N   0  0  0  0  0  0
  -26.4328  -37.3866   23.9406 N   0  0  0  0  0  0
  -24.6737  -31.1120   22.1000 N   0  0  0  0  0  0
  -23.8900  -29.0043   23.5640 O   0  0  0  0  0  0
  -28.2604  -26.5810   20.0015 O   0  0  0  0  0  0
  -26.5574  -34.9016   22.4676 O   0  0  0  0  0  0
  -23.5393  -32.1689   23.7491 O   0  0  0  0  0  0
  -22.5684  -24.9354   20.1402 C   0  0  0  0  0  0
  -24.3488  -22.6202   19.9063 C   0  0  0  0  0  0
  -22.6435  -23.0541   21.4602 C   0  0  0  0  0  0
  -23.7216  -24.0027   19.5890 C   0  0  0  0  0  0
  -21.4977  -24.9797   21.2519 C   0  0  0  0  0  0
  -24.2226  -21.5519   20.9220 C   0  0  0  0  0  0
  -17.2994  -27.8066   23.0382 C   0  0  0  0  0  0
  -24.4698  -24.4853   18.4196 C   0  0  0  0  0  0
  -18.1943  -28.1352   23.0779 C   0  0  0  0  0  0
  -17.0946  -29.2807   22.8805 C   0  0  0  0  0  0
  -16.6246  -29.9992   24.1908 C   0  0  0  0  0  0
  -15.9289  -29.5180   21.8386 C   0  0  0  0  0  0
  -26.8182  -24.4246   19.4966 C   0  0  0  0  0  0
  -28.0961  -25.3359   19.2488 C   0  0  0  0  0  0
  -19.7651  -27.1420   21.7575 N   0  0  0  0  0  0
  -23.8071  -24.9470   17.3645 N   0  0  0  0  0  0
  -25.8367  -19.3911   20.8090 N   0  0  0  0  0  0
  -25.8301  -24.4231   18.3540 N   0  3  0  0  0  0
  -16.3129  -27.1021   23.4889 O   0  0  0  0  0  0
  -29.6810  -15.8133   18.9143 H   0  0  0  0  0  0
  -30.0907  -15.0060   20.3235 H   0  0  0  0  0  0
  -30.2446  -13.2572   18.5961 H   0  0  0  0  0  0
  -28.9720  -13.9626   17.6549 H   0  0  0  0  0  0
  -28.7307  -11.8933   19.7954 H   0  0  0  0  0  0
  -27.7701  -12.0975   18.3187 H   0  0  0  0  0  0
  -26.9512  -14.1153   19.0921 H   0  0  0  0  0  0
  -28.6690  -14.1983   21.6049 H   0  0  0  0  0  0
  -27.1050  -14.6959   21.8087 H   0  0  0  0  0  0
  -25.2606   -9.5685   22.4849 H   0  0  0  0  0  0
  -23.9978   -7.4505   22.7497 H   0  0  0  0  0  0
  -21.0754   -8.8538   19.8907 H   0  0  0  0  0  0
  -22.3497  -10.9492   19.6198 H   0  0  0  0  0  0
  -21.1954   -7.6106   23.9689 H   0  0  0  0  0  0
  -21.1456   -6.0508   25.9085 H   0  0  0  0  0  0
  -22.0617   -2.7566   23.2883 H   0  0  0  0  0  0
  -22.3217  -11.9417   22.5167 H   0  0  0  0  0  0
  -21.0064  -13.0665   22.3288 H   0  0  0  0  0  0
  -24.2858  -15.8122   20.3783 H   0  0  0  0  0  0
  -25.9211  -15.6146   19.9324 H   0  0  0  0  0  0
  -26.7267  -32.5699   23.1205 H   0  0  0  0  0  0
  -25.0246  -33.9864   25.0599 H   0  0  0  0  0  0
  -22.5770  -31.0741   21.6613 H   0  0  0  0  0  0
  -23.3778  -35.9664   23.3311 H   0  0  0  0  0  0
  -24.3597  -36.8923   22.2033 H   0  0  0  0  0  0
  -23.7241  -37.6570   23.6598 H   0  0  0  0  0  0
  -26.1167  -31.5956   20.6409 H   0  0  0  0  0  0
  -26.8252  -30.8527   22.0453 H   0  0  0  0  0  0
  -28.0623  -28.9610   21.3217 H   0  0  0  0  0  0
  -26.1732  -26.6240   18.3342 H   0  0  0  0  0  0
  -24.0242  -27.6126   18.7223 H   0  0  0  0  0  0
  -23.6508  -30.6705   19.4951 H   0  0  0  0  0  0
  -22.7268  -29.2567   19.9380 H   0  0  0  0  0  0
  -25.1289  -36.2055   25.0844 H   0  0  0  0  0  0
  -22.0168  -27.9788   24.6391 H   0  0  0  0  0  0
  -22.2322  -25.9576   24.4747 H   0  0  0  0  0  0
  -22.6344  -25.9881   22.9589 H   0  0  0  0  0  0
  -20.3973  -25.0423   24.7165 H   0  0  0  0  0  0
  -21.1084  -24.1159   23.5614 H   0  0  0  0  0  0
  -19.2180  -24.4940   22.0034 H   0  0  0  0  0  0
  -18.6895  -24.0474   23.6219 H   0  0  0  0  0  0
  -20.6951  -30.1664   23.3455 H   0  0  0  0  0  0
  -19.1420  -30.4956   20.9614 H   0  0  0  0  0  0
  -17.4861  -28.3772   19.7452 H   0  0  0  0  0  0
  -17.2815  -25.4741   20.8875 H   0  0  0  0  0  0
  -24.5928  -30.7088   25.7546 H   0  0  0  0  0  0
  -24.9002  -32.2743   26.4968 H   0  0  0  0  0  0
  -25.8057  -30.8595   27.0025 H   0  0  0  0  0  0
  -26.3347  -29.6852   24.0993 H   0  0  0  0  0  0
  -27.4256  -29.7384   25.4615 H   0  0  0  0  0  0
  -27.9106  -30.4588   23.9471 H   0  0  0  0  0  0
  -27.2532  -33.3562   26.2322 H   0  0  0  0  0  0
  -28.3757  -32.7214   25.0385 H   0  0  0  0  0  0
  -28.0839  -31.8461   26.5334 H   0  0  0  0  0  0
  -28.2628  -38.0133   24.7588 H   0  0  0  0  0  0
  -28.1099  -36.2679   24.6221 H   0  0  0  0  0  0
  -27.2312  -37.1393   25.8870 H   0  0  0  0  0  0
  -21.5161  -28.4645   21.7061 H   0  0  0  0  0  0
  -26.0219  -38.2942   24.1440 H   0  0  0  0  0  0
  -22.5284  -25.8543   19.5748 H   0  0  0  0  0  0
  -25.0915  -22.2751   19.2025 H   0  0  0  0  0  0
  -22.1890  -22.5965   22.3246 H   0  0  0  0  0  0
  -18.4777  -28.7655   24.2358 H   0  0  0  0  0  0
  -19.1342  -27.7243   22.2446 H   0  0  0  0  0  0
  -16.6197  -29.3414   25.0651 H   0  0  0  0  0  0
  -15.6099  -30.3962   24.1637 H   0  0  0  0  0  0
  -17.2771  -30.8414   24.4204 H   0  0  0  0  0  0
  -16.2933  -30.0118   20.9380 H   0  0  0  0  0  0
  -15.1514  -30.1994   22.1750 H   0  0  0  0  0  0
  -15.4061  -28.6129   21.5286 H   0  0  0  0  0  0
  -26.3239  -24.7309   20.4206 H   0  0  0  0  0  0
  -27.1336  -23.3965   19.6765 H   0  0  0  0  0  0
  -28.1924  -25.5822   18.1907 H   0  0  0  0  0  0
  -28.9777  -24.7309   19.4630 H   0  0  0  0  0  0
  -22.7959  -24.9523   17.3744 H   0  0  0  0  0  0
  -24.2636  -25.4176   16.6003 H   0  0  0  0  0  0
  -26.6624  -19.9754   20.7501 H   0  0  0  0  0  0
  -26.2351  -24.3043   17.4362 H   0  0  0  0  0  0
  1 25  1  0  0  0
  1 30  2  0  0  0
  1 87  1  0  0  0
  2  3  1  0  0  0
  2 25  1  0  0  0
  2 90  1  0  0  0
  2 91  1  0  0  0
  3  4  1  0  0  0
  3 92  1  0  0  0
  3 93  1  0  0  0
  4  5  1  0  0  0
  4 94  1  0  0  0
  4 95  1  0  0  0
  5  6  1  0  0  0
  5 26  1  0  0  0
  5 96  1  0  0  0
  6 25  1  0  0  0
  6 97  1  0  0  0
  6 98  1  0  0  0
  7  8  2  0  0  0
  7 26  1  0  0  0
  7 29  1  0  0  0
  8  9  1  0  0  0
  8 22  1  0  0  0
  9 10  1  0  0  0
  9 27  2  0  0  0
 10 11  2  0  0  0
 10 15  1  0  0  0
 11 12  1  0  0  0
 11 99  1  0  0  0
 12 13  2  0  0  0
 12100  1  0  0  0
 13 14  1  0  0  0
 13 31  1  0  0  0
 14 15  2  0  0  0
 14101  1  0  0  0
 15102  1  0  0  0
 16 17  2  0  0  0
 16 21  1  0  0  0
 16 31  1  0  0  0
 17 18  1  0  0  0
 17103  1  0  0  0
 18 19  2  0  0  0
 18104  1  0  0  0
 19 20  1  0  0  0
 19 24  1  0  0  0
 20 21  2  0  0  0
 20105  1  0  0  0
 21 23  1  0  0  0
 22 28  1  0  0  0
 22 32  2  0  0  0
 26 27  1  0  0  0
 28106  1  0  0  0
 28107  1  0  0  0
 29108  1  0  0  0
 29109  1  0  0  0
 33 34  1  0  0  0
 33 66  1  0  0  0
 33 70  2  0  0  0
 34 36  1  0  0  0
 34 59  1  0  0  0
 34110  1  0  0  0
 35 44  2  0  0  0
 35 45  1  0  0  0
 35 68  1  0  0  0
 36 56  1  0  0  0
 36111  1  0  0  0
 37 39  1  0  0  0
 37 47  1  0  0  0
 37 66  1  0  0  0
 37112  1  0  0  0
 38 43  2  0  0  0
 38 46  1  0  0  0
 38 47  1  0  0  0
 39 64  1  0  0  0
 39 67  2  0  0  0
 40 52  1  0  0  0
 40 53  2  0  0  0
 40 58  1  0  0  0
 41113  1  0  0  0
 41114  1  0  0  0
 41115  1  0  0  0
 41 48  1  0  0  0
 42 43  1  0  0  0
 42 66  1  0  0  0
 42116  1  0  0  0
 42117  1  0  0  0
 43 44  1  0  0  0
 44118  1  0  0  0
 45 46  2  0  0  0
 45119  1  0  0  0
 46120  1  0  0  0
 47121  1  0  0  0
 47122  1  0  0  0
 48 56  1  0  0  0
 48 65  1  0  0  0
 48123  1  0  0  0
 49 50  1  0  0  0
 49 53  1  0  0  0
 49 64  1  0  0  0
 49124  1  0  0  0
 50 51  1  0  0  0
 50125  1  0  0  0
 50126  1  0  0  0
 51 52  1  0  0  0
 51127  1  0  0  0
 51128  1  0  0  0
 52129  1  0  0  0
 52130  1  0  0  0
 53 54  1  0  0  0
 54 55  2  0  0  0
 54131  1  0  0  0
 55 57  1  0  0  0
 55132  1  0  0  0
 56 69  2  0  0  0
 57 58  2  0  0  0
 57133  1  0  0  0
 58134  1  0  0  0
 59 60  1  0  0  0
 59 61  1  0  0  0
 59 62  1  0  0  0
 60135  1  0  0  0
 60136  1  0  0  0
 60137  1  0  0  0
 61138  1  0  0  0
 61139  1  0  0  0
 61140  1  0  0  0
 62141  1  0  0  0
 62142  1  0  0  0
 62143  1  0  0  0
 63 65  1  0  0  0
 63144  1  0  0  0
 63145  1  0  0  0
 63146  1  0  0  0
 64147  1  0  0  0
 65148  1  0  0  0
 68 84  1  0  0  0
 71 74  2  0  0  0
 71 75  1  0  0  0
 71149  1  0  0  0
 72 74  1  0  0  0
 72 76  2  0  0  0
 72150  1  0  0  0
 73 75  2  0  0  0
 73 76  1  0  0  0
 73151  1  0  0  0
 74 78  1  0  0  0
 75 85  1  0  0  0
 76 87  1  0  0  0
 77 80  1  0  0  0
 77 85  1  0  0  0
 77 89  2  0  0  0
 78 86  1  0  0  0
 78 88  2  0  0  0
 79 80  1  0  0  0
 79 85  1  0  0  0
 79152  1  0  0  0
 79153  1  0  0  0
 80 81  1  0  0  0
 80 82  1  0  0  0
 81154  1  0  0  0
 81155  1  0  0  0
 81156  1  0  0  0
 82157  1  0  0  0
 82158  1  0  0  0
 82159  1  0  0  0
 83 84  1  0  0  0
 83 88  1  0  0  0
 83160  1  0  0  0
 83161  1  0  0  0
 84162  1  0  0  0
 84163  1  0  0  0
 86164  1  0  0  0
 86165  1  0  0  0
 87166  1  0  0  0
 88167  1  0  0  0
M  CHG  1  88   1
M  ISO  4   1 100  68 101  84 101  87 100
M  END
> <chiral flag>
0

> <version>
0

> <s_m_source_file>
/data/baiqing/PycharmProjects/Reinvent-master-3.2/result/LINK_invent/BTK/process_docking_weight1_custom_product_contain_oxygen_bond_distance_aromatic_linkinvent_7_9_3/rearranged_h_0075.sdf

> <i_m_source_file_index>
77

> <r_mmod_Potential_Energy-OPLS-2005>
42747.421875

> <r_mmod_Stretch_Energy-OPLS-2005>
20618.986328125

> <r_mmod_Bend_Energy-OPLS-2005>
4439.994140625

> <r_mmod_Torsional_Energy-OPLS-2005>
454.746826171875

> <r_mmod_Improper_Torsional_Energy-OPLS-2005>
60.4163856506348

> <r_mmod_Van_der_Waal_Energy-OPLS-2005>
4687.79833984375

> <r_mmod_Electrostatic_Energy-OPLS-2005>
-461.973724365234

> <r_mmod_Solvation_Energy-OPLS-2005>
-448.97119140625

> <b_mmod_Minimization_Converged-OPLS-2005>
0

> <r_mmod_RMS_Derivative-OPLS-2005>
10.0504446029663

$$$$
78
                    3D
 Structure written by MMmdl.
161169  0  0  1  0            999 V2000
  -29.7091  -15.4883   20.6666 C   0  0  0  0  0  0
  -30.2957  -13.0504   19.6956 C   0  0  0  0  0  0
  -29.5192  -12.6711   18.3984 C   0  0  0  0  0  0
  -28.0714  -12.2814   18.7402 C   0  0  0  0  0  0
  -27.5071  -13.2289   19.8241 C   0  0  2  0  0  0
  -28.3948  -13.3467   21.0541 C   0  0  0  0  0  0
  -25.1849  -13.8072   20.5554 C   0  0  0  0  0  0
  -24.1301  -13.0313   20.9237 C   0  0  0  0  0  0
  -24.5938  -11.6798   20.8755 C   0  0  0  0  0  0
  -23.8780  -10.4203   21.0479 C   0  0  0  0  0  0
  -24.3463   -9.4155   21.9220 C   0  0  0  0  0  0
  -23.6213   -8.2157   22.0757 C   0  0  0  0  0  0
  -22.4196   -8.0186   21.3544 C   0  0  0  0  0  0
  -21.9766   -9.0123   20.4646 C   0  0  0  0  0  0
  -22.7013  -10.2030   20.3081 C   0  0  0  0  0  0
  -21.6818   -6.0683   22.5291 C   0  0  0  0  0  0
  -21.3986   -6.5607   23.8217 C   0  0  0  0  0  0
  -21.3648   -5.6771   24.9188 C   0  0  0  0  0  0
  -21.6041   -4.3033   24.7246 C   0  0  0  0  0  0
  -21.8820   -3.8113   23.4371 C   0  0  0  0  0  0
  -21.9182   -4.6920   22.3422 C   0  0  0  0  0  0
  -22.7425  -13.5155   21.1995 C   0  0  0  0  0  0
  -22.1659   -4.2112   21.1000 F   0  0  0  0  0  0
  -21.5634   -3.4523   25.7763 F   0  0  0  0  0  0
  -29.4995  -14.0754   20.5322 N   0  0  0  0  0  0
  -26.1942  -12.9155   20.2714 N   0  0  0  0  0  0
  -25.8725  -11.6336   20.5443 N   0  0  0  0  0  0
  -22.0129  -12.8172   22.0598 N   0  0  0  0  0  0
  -25.3683  -15.1802   20.4122 N   0  0  0  0  0  0
  -30.9416  -15.6201   20.4002 O   0  0  0  0  0  0
  -21.6584   -6.8789   21.4241 O   0  0  0  0  0  0
  -22.3174  -14.5490   20.6847 O   0  0  0  0  0  0
  -24.6599  -31.9638   23.2131 C   0  0  0  0  0  0
  -25.9559  -32.5156   23.8557 C   0  0  1  0  0  0
  -25.2909  -27.2175   20.8062 C   0  0  0  0  0  0
  -25.6446  -33.8886   24.2568 N   0  0  0  0  0  0
  -23.4577  -30.5969   21.5863 C   0  0  2  0  0  0
  -24.8671  -29.3897   19.7113 C   0  0  0  0  0  0
  -23.1486  -29.5250   22.6663 C   0  0  0  0  0  0
  -18.9325  -27.7094   22.2895 C   0  0  0  0  0  0
  -24.1520  -36.7371   23.2597 C   0  0  0  0  0  0
  -25.9687  -30.8531   21.4030 C   0  0  0  0  0  0
  -25.8398  -29.5329   20.6887 C   0  0  0  0  0  0
  -26.1834  -28.2945   21.2367 C   0  0  0  0  0  0
  -25.6158  -27.0923   19.4535 C   0  0  0  0  0  0
  -24.9407  -28.2075   18.8983 C   0  0  0  0  0  0
  -23.5757  -30.1098   20.0680 C   0  0  0  0  0  0
  -25.4151  -36.3245   24.0319 C   0  0  1  0  0  0
  -21.5902  -27.9533   23.5748 C   0  0  2  0  0  0
  -22.7808  -26.2577   22.7811 C   0  0  0  0  0  0
  -21.2678  -25.3311   20.9886 C   0  0  0  0  0  0
  -19.4314  -26.3931   21.1349 C   0  0  0  0  0  0
  -19.8916  -28.3907   23.2408 C   0  0  0  0  0  0
  -19.3585  -29.5928   23.9181 C   0  0  0  0  0  0
  -18.0251  -30.0975   23.9003 C   0  0  0  0  0  0
  -25.9181  -34.9659   23.5140 C   0  0  0  0  0  0
  -17.0714  -29.3379   23.2166 C   0  0  0  0  0  0
  -17.5259  -28.1978   22.4529 C   0  0  0  0  0  0
  -26.4603  -31.6704   25.0871 C   0  0  0  0  0  0
  -25.3682  -31.3804   26.1423 C   0  0  0  0  0  0
  -27.0429  -30.3127   24.6330 C   0  0  0  0  0  0
  -27.6152  -32.4278   25.7815 C   0  0  0  0  0  0
  -27.5612  -37.1900   24.8461 C   0  0  0  0  0  0
  -21.9391  -29.3079   23.0847 N   0  0  0  0  0  0
  -26.4317  -37.3934   23.9420 N   0  0  0  0  0  0
  -24.7080  -31.2276   22.0709 N   0  0  0  0  0  0
  -24.0111  -28.8744   23.2311 O   0  0  0  0  0  0
  -23.7190  -27.1565   20.6933 O   0  0  0  0  0  0
  -26.5526  -34.9063   22.4574 O   0  0  0  0  0  0
  -23.5809  -32.2294   23.7661 O   0  0  0  0  0  0
  -25.2008  -18.9021   22.5846 C   0  0  0  0  0  0
  -26.1330  -20.3185   21.1980 C   0  0  0  0  0  0
  -26.2485  -17.8119   22.2371 C   0  0  0  0  0  0
  -27.1779  -19.2290   20.8464 C   0  0  0  0  0  0
  -24.9640  -20.3330   22.1403 C   0  0  0  0  0  0
  -27.4206  -17.8070   21.3012 C   0  0  0  0  0  0
  -23.7049  -21.5226   22.7586 C   0  0  0  0  0  0
  -20.6283  -25.6406   23.1804 C   0  0  0  0  0  0
  -21.7331  -23.7563   24.8509 C   0  0  0  0  0  0
  -20.2710  -22.9369   23.0494 C   0  0  0  0  0  0
  -21.7562  -27.4547   21.2828 C   0  0  0  0  0  0
  -21.4918  -23.8651   23.3137 C   0  0  0  0  0  0
  -23.2796  -21.0152   23.9065 N   0  0  0  0  0  0
  -28.7631  -16.7584   20.8524 N   0  0  0  0  0  0
  -22.8703  -22.8696   22.5875 N   0  3  0  0  0  0
  -19.7261  -25.8142   24.0140 O   0  0  0  0  0  0
  -31.2776  -13.4333   19.4145 H   0  0  0  0  0  0
  -30.5092  -12.1599   20.2896 H   0  0  0  0  0  0
  -30.0242  -11.8630   17.8662 H   0  0  0  0  0  0
  -29.5102  -13.5294   17.7252 H   0  0  0  0  0  0
  -28.0732  -11.2581   19.1149 H   0  0  0  0  0  0
  -27.4439  -12.2852   17.8489 H   0  0  0  0  0  0
  -27.4305  -14.1998   19.3299 H   0  0  0  0  0  0
  -28.6601  -12.3773   21.4790 H   0  0  0  0  0  0
  -27.9139  -13.9255   21.8467 H   0  0  0  0  0  0
  -25.2611   -9.5677   22.4779 H   0  0  0  0  0  0
  -23.9952   -7.4542   22.7445 H   0  0  0  0  0  0
  -21.0709   -8.8589   19.8954 H   0  0  0  0  0  0
  -22.3449  -10.9567   19.6197 H   0  0  0  0  0  0
  -21.1965   -7.6114   23.9711 H   0  0  0  0  0  0
  -21.1479   -6.0507   25.9090 H   0  0  0  0  0  0
  -22.0618   -2.7578   23.2880 H   0  0  0  0  0  0
  -22.3739  -11.9812   22.4955 H   0  0  0  0  0  0
  -21.0780  -13.1239   22.2870 H   0  0  0  0  0  0
  -24.6088  -15.8395   20.5379 H   0  0  0  0  0  0
  -26.2163  -15.6109   20.0668 H   0  0  0  0  0  0
  -26.7668  -32.5644   23.1317 H   0  0  0  0  0  0
  -25.0759  -34.0035   25.0822 H   0  0  0  0  0  0
  -22.6460  -31.3263   21.6091 H   0  0  0  0  0  0
  -23.3827  -35.9659   23.3256 H   0  0  0  0  0  0
  -24.3629  -36.8989   22.2015 H   0  0  0  0  0  0
  -23.7214  -37.6553   23.6597 H   0  0  0  0  0  0
  -26.2256  -31.6280   20.6797 H   0  0  0  0  0  0
  -26.8220  -30.7542   22.0646 H   0  0  0  0  0  0
  -26.7153  -28.2335   22.1750 H   0  0  0  0  0  0
  -25.3994  -26.1706   18.9320 H   0  0  0  0  0  0
  -24.2817  -28.0590   18.0545 H   0  0  0  0  0  0
  -23.5185  -30.9853   19.4213 H   0  0  0  0  0  0
  -22.7222  -29.4977   19.7888 H   0  0  0  0  0  0
  -25.1305  -36.2112   25.0805 H   0  0  0  0  0  0
  -21.7261  -27.9685   24.6591 H   0  0  0  0  0  0
  -23.0413  -25.6114   23.6118 H   0  0  0  0  0  0
  -23.8425  -26.4250   22.6602 H   0  0  0  0  0  0
  -21.1088  -24.2548   20.9623 H   0  0  0  0  0  0
  -21.7093  -25.4215   19.9898 H   0  0  0  0  0  0
  -18.6504  -25.6349   21.2366 H   0  0  0  0  0  0
  -19.2183  -26.7917   20.1428 H   0  0  0  0  0  0
  -20.0400  -30.1423   24.5567 H   0  0  0  0  0  0
  -17.7492  -30.9778   24.4620 H   0  0  0  0  0  0
  -16.0286  -29.6250   23.2212 H   0  0  0  0  0  0
  -16.7692  -27.6868   21.8739 H   0  0  0  0  0  0
  -24.5869  -30.7244   25.7555 H   0  0  0  0  0  0
  -24.8880  -32.2965   26.4874 H   0  0  0  0  0  0
  -25.7846  -30.8854   27.0203 H   0  0  0  0  0  0
  -26.3038  -29.6964   24.1236 H   0  0  0  0  0  0
  -27.3944  -29.7309   25.4861 H   0  0  0  0  0  0
  -27.8997  -30.4391   23.9708 H   0  0  0  0  0  0
  -27.2798  -33.3549   26.2477 H   0  0  0  0  0  0
  -28.4048  -32.6855   25.0743 H   0  0  0  0  0  0
  -28.0700  -31.8279   26.5708 H   0  0  0  0  0  0
  -28.2599  -38.0231   24.7600 H   0  0  0  0  0  0
  -28.1153  -36.2780   24.6191 H   0  0  0  0  0  0
  -27.2338  -37.1421   25.8861 H   0  0  0  0  0  0
  -21.1795  -29.8976   22.7698 H   0  0  0  0  0  0
  -26.0205  -38.2998   24.1480 H   0  0  0  0  0  0
  -24.4911  -18.5648   23.3249 H   0  0  0  0  0  0
  -26.2733  -21.2523   20.6731 H   0  0  0  0  0  0
  -26.1262  -16.8897   22.7865 H   0  0  0  0  0  0
  -27.9019  -19.5668   20.1200 H   0  0  0  0  0  0
  -20.8818  -24.1156   25.4294 H   0  0  0  0  0  0
  -22.5969  -24.3197   25.1931 H   0  0  0  0  0  0
  -21.8872  -22.7341   25.1848 H   0  0  0  0  0  0
  -19.4473  -23.4601   22.5651 H   0  0  0  0  0  0
  -19.8579  -22.4999   23.9586 H   0  0  0  0  0  0
  -20.5259  -22.1045   22.3930 H   0  0  0  0  0  0
  -21.3494  -28.4551   21.2010 H   0  0  0  0  0  0
  -21.3424  -27.3808   20.2729 H   0  0  0  0  0  0
  -23.7333  -20.1971   24.2854 H   0  0  0  0  0  0
  -22.5654  -21.4730   24.4411 H   0  0  0  0  0  0
  -29.4376  -17.4282   20.5148 H   0  0  0  0  0  0
  -23.1732  -23.3151   21.7264 H   0  0  0  0  0  0
  1 25  1  0  0  0
  1 30  2  0  0  0
  1 84  1  0  0  0
  2  3  1  0  0  0
  2 25  1  0  0  0
  2 87  1  0  0  0
  2 88  1  0  0  0
  3  4  1  0  0  0
  3 89  1  0  0  0
  3 90  1  0  0  0
  4  5  1  0  0  0
  4 91  1  0  0  0
  4 92  1  0  0  0
  5  6  1  0  0  0
  5 26  1  0  0  0
  5 93  1  0  0  0
  6 25  1  0  0  0
  6 94  1  0  0  0
  6 95  1  0  0  0
  7  8  2  0  0  0
  7 26  1  0  0  0
  7 29  1  0  0  0
  8  9  1  0  0  0
  8 22  1  0  0  0
  9 10  1  0  0  0
  9 27  2  0  0  0
 10 11  2  0  0  0
 10 15  1  0  0  0
 11 12  1  0  0  0
 11 96  1  0  0  0
 12 13  2  0  0  0
 12 97  1  0  0  0
 13 14  1  0  0  0
 13 31  1  0  0  0
 14 15  2  0  0  0
 14 98  1  0  0  0
 15 99  1  0  0  0
 16 17  2  0  0  0
 16 21  1  0  0  0
 16 31  1  0  0  0
 17 18  1  0  0  0
 17100  1  0  0  0
 18 19  2  0  0  0
 18101  1  0  0  0
 19 20  1  0  0  0
 19 24  1  0  0  0
 20 21  2  0  0  0
 20102  1  0  0  0
 21 23  1  0  0  0
 22 28  1  0  0  0
 22 32  2  0  0  0
 26 27  1  0  0  0
 28103  1  0  0  0
 28104  1  0  0  0
 29105  1  0  0  0
 29106  1  0  0  0
 33 34  1  0  0  0
 33 66  1  0  0  0
 33 70  2  0  0  0
 34 36  1  0  0  0
 34 59  1  0  0  0
 34107  1  0  0  0
 35 44  2  0  0  0
 35 45  1  0  0  0
 35 68  1  0  0  0
 36 56  1  0  0  0
 36108  1  0  0  0
 37 39  1  0  0  0
 37 47  1  0  0  0
 37 66  1  0  0  0
 37109  1  0  0  0
 38 43  2  0  0  0
 38 46  1  0  0  0
 38 47  1  0  0  0
 39 64  1  0  0  0
 39 67  2  0  0  0
 40 52  1  0  0  0
 40 53  2  0  0  0
 40 58  1  0  0  0
 41110  1  0  0  0
 41111  1  0  0  0
 41112  1  0  0  0
 41 48  1  0  0  0
 42 43  1  0  0  0
 42 66  1  0  0  0
 42113  1  0  0  0
 42114  1  0  0  0
 43 44  1  0  0  0
 44115  1  0  0  0
 45 46  2  0  0  0
 45116  1  0  0  0
 46117  1  0  0  0
 47118  1  0  0  0
 47119  1  0  0  0
 48 56  1  0  0  0
 48 65  1  0  0  0
 48120  1  0  0  0
 49 50  1  0  0  0
 49 53  1  0  0  0
 49 64  1  0  0  0
 49121  1  0  0  0
 50 51  1  0  0  0
 50122  1  0  0  0
 50123  1  0  0  0
 51 52  1  0  0  0
 51124  1  0  0  0
 51125  1  0  0  0
 52126  1  0  0  0
 52127  1  0  0  0
 53 54  1  0  0  0
 54 55  2  0  0  0
 54128  1  0  0  0
 55 57  1  0  0  0
 55129  1  0  0  0
 56 69  2  0  0  0
 57 58  2  0  0  0
 57130  1  0  0  0
 58131  1  0  0  0
 59 60  1  0  0  0
 59 61  1  0  0  0
 59 62  1  0  0  0
 60132  1  0  0  0
 60133  1  0  0  0
 60134  1  0  0  0
 61135  1  0  0  0
 61136  1  0  0  0
 61137  1  0  0  0
 62138  1  0  0  0
 62139  1  0  0  0
 62140  1  0  0  0
 63 65  1  0  0  0
 63141  1  0  0  0
 63142  1  0  0  0
 63143  1  0  0  0
 64144  1  0  0  0
 65145  1  0  0  0
 68 81  1  0  0  0
 71 73  2  0  0  0
 71 75  1  0  0  0
 71146  1  0  0  0
 72 74  1  0  0  0
 72 75  2  0  0  0
 72147  1  0  0  0
 73 76  1  0  0  0
 73148  1  0  0  0
 74 76  2  0  0  0
 74149  1  0  0  0
 75 77  1  0  0  0
 76 84  1  0  0  0
 77 83  1  0  0  0
 77 85  2  0  0  0
 78 81  1  0  0  0
 78 82  1  0  0  0
 78 86  2  0  0  0
 79150  1  0  0  0
 79151  1  0  0  0
 79152  1  0  0  0
 79 82  1  0  0  0
 80 82  1  0  0  0
 80153  1  0  0  0
 80154  1  0  0  0
 80155  1  0  0  0
 81156  1  0  0  0
 81157  1  0  0  0
 82 85  1  0  0  0
 83158  1  0  0  0
 83159  1  0  0  0
 84160  1  0  0  0
 85161  1  0  0  0
M  CHG  1  85   1
M  ISO  4   1 100  68 101  81 101  84 100
M  END
> <chiral flag>
0

> <version>
0

> <s_m_source_file>
/data/baiqing/PycharmProjects/Reinvent-master-3.2/result/LINK_invent/BTK/process_docking_weight1_custom_product_contain_oxygen_bond_distance_aromatic_linkinvent_7_9_3/rearranged_h_0075.sdf

> <i_m_source_file_index>
78

> <r_mmod_Potential_Energy-OPLS-2005>
16001.681640625

> <r_mmod_Stretch_Energy-OPLS-2005>
6782.1279296875

> <r_mmod_Bend_Energy-OPLS-2005>
1550.67785644531

> <r_mmod_Torsional_Energy-OPLS-2005>
581.861328125

> <r_mmod_Improper_Torsional_Energy-OPLS-2005>
60.7596168518066

> <r_mmod_Van_der_Waal_Energy-OPLS-2005>
2140.11450195312

> <r_mmod_Electrostatic_Energy-OPLS-2005>
-392.491119384766

> <r_mmod_Solvation_Energy-OPLS-2005>
-404.481719970703

> <b_mmod_Minimization_Converged-OPLS-2005>
0

> <r_mmod_RMS_Derivative-OPLS-2005>
4.97683954238892

$$$$
79
                    3D
 Structure written by MMmdl.
153162  0  0  1  0            999 V2000
  -30.6243  -14.6476   20.4886 C   0  0  0  0  0  0
  -30.4441  -12.3966   19.4482 C   0  0  0  0  0  0
  -29.5094  -12.5047   18.2227 C   0  0  0  0  0  0
  -28.0329  -12.3417   18.6374 C   0  0  0  0  0  0
  -27.6542  -13.2165   19.8620 C   0  0  2  0  0  0
  -28.7030  -13.0747   20.9893 C   0  0  0  0  0  0
  -25.2547  -13.8154   20.5677 C   0  0  0  0  0  0
  -24.1809  -13.0417   20.9152 C   0  0  0  0  0  0
  -24.6389  -11.6895   20.8715 C   0  0  0  0  0  0
  -23.9059  -10.4283   21.0390 C   0  0  0  0  0  0
  -24.3607   -9.4204   21.9176 C   0  0  0  0  0  0
  -23.6283   -8.2241   22.0753 C   0  0  0  0  0  0
  -22.4264   -8.0277   21.3548 C   0  0  0  0  0  0
  -21.9897   -9.0249   20.4651 C   0  0  0  0  0  0
  -22.7224  -10.2126   20.3052 C   0  0  0  0  0  0
  -21.6855   -6.0729   22.5277 C   0  0  0  0  0  0
  -21.4013   -6.5631   23.8209 C   0  0  0  0  0  0
  -21.3661   -5.6787   24.9174 C   0  0  0  0  0  0
  -21.6047   -4.3050   24.7225 C   0  0  0  0  0  0
  -21.8818   -3.8141   23.4346 C   0  0  0  0  0  0
  -21.9192   -4.6957   22.3403 C   0  0  0  0  0  0
  -22.7833  -13.5220   21.1828 C   0  0  0  0  0  0
  -22.1662   -4.2145   21.0980 F   0  0  0  0  0  0
  -21.5631   -3.4535   25.7738 F   0  0  0  0  0  0
  -30.0187  -13.4190   20.4237 N   0  0  0  0  0  0
  -26.2997  -12.9349   20.3335 N   0  0  0  0  0  0
  -25.9325  -11.6499   20.5748 N   0  0  0  0  0  0
  -22.0478  -12.8234   22.0403 N   0  0  0  0  0  0
  -25.4195  -15.1880   20.4153 N   0  0  0  0  0  0
  -31.7898  -14.8123   20.1173 O   0  0  0  0  0  0
  -21.6636   -6.8870   21.4240 O   0  0  0  0  0  0
  -22.3521  -14.5530   20.6684 O   0  0  0  0  0  0
  -24.6282  -31.8606   23.2039 C   0  0  0  0  0  0
  -25.9123  -32.4787   23.8368 C   0  0  1  0  0  0
  -27.2196  -27.3091   20.1057 C   0  0  0  0  0  0
  -25.5933  -33.8583   24.2291 N   0  0  0  0  0  0
  -23.4221  -30.4880   21.5477 C   0  0  2  0  0  0
  -24.8672  -28.9506   20.1111 C   0  0  0  0  0  0
  -22.7489  -29.4636   22.4930 C   0  0  0  0  0  0
  -18.0293  -28.1390   22.8491 C   0  0  0  0  0  0
  -24.1491  -36.7297   23.2634 C   0  0  0  0  0  0
  -25.9670  -30.7870   21.3798 C   0  0  0  0  0  0
  -26.0397  -29.4155   20.7191 C   0  0  0  0  0  0
  -27.2188  -28.6063   20.7112 C   0  0  0  0  0  0
  -26.0187  -26.9148   19.4619 C   0  0  0  0  0  0
  -24.8591  -27.7048   19.4749 C   0  0  0  0  0  0
  -23.6371  -29.8311   20.1615 C   0  0  0  0  0  0
  -25.4109  -36.3087   24.0333 C   0  0  1  0  0  0
  -20.5896  -28.3700   23.1279 C   0  0  2  0  0  0
  -20.6783  -26.9422   22.5410 C   0  0  0  0  0  0
  -19.5753  -26.6392   21.5215 C   0  0  0  0  0  0
  -18.1935  -26.7934   22.1633 C   0  0  0  0  0  0
  -19.1546  -28.8860   23.2883 C   0  0  0  0  0  0
  -18.9467  -30.1463   23.8900 C   0  0  0  0  0  0
  -17.6464  -30.6590   24.0568 C   0  0  0  0  0  0
  -25.9048  -34.9455   23.5109 C   0  0  0  0  0  0
  -16.5356  -29.9089   23.6332 C   0  0  0  0  0  0
  -16.7281  -28.6509   23.0351 C   0  0  0  0  0  0
  -26.4492  -31.6588   25.0736 C   0  0  0  0  0  0
  -25.3717  -31.3741   26.1463 C   0  0  0  0  0  0
  -27.0320  -30.3005   24.6192 C   0  0  0  0  0  0
  -27.6067  -32.4307   25.7500 C   0  0  0  0  0  0
  -27.5586  -37.1797   24.8458 C   0  0  0  0  0  0
  -21.4201  -29.3055   22.3671 N   0  0  0  0  0  0
  -26.4286  -37.3785   23.9419 N   0  0  0  0  0  0
  -24.6915  -31.0610   22.1004 N   0  0  0  0  0  0
  -23.4208  -28.8158   23.2999 O   0  0  0  0  0  0
  -28.3164  -26.4202   20.1621 O   0  0  0  0  0  0
  -26.5620  -34.8920   22.4679 O   0  0  0  0  0  0
  -23.5441  -32.1414   23.7352 O   0  0  0  0  0  0
  -28.6095  -19.2888   20.7061 C   0  0  0  0  0  0
  -31.0373  -17.9294   20.4266 C   0  0  0  0  0  0
  -29.7603  -20.0964   20.4798 C   0  0  0  0  0  0
  -29.8774  -17.1447   20.6646 C   0  0  0  0  0  0
  -28.6681  -17.8694   20.7956 C   0  0  0  0  0  0
  -30.9811  -19.3592   20.3419 C   0  0  0  0  0  0
  -30.2814  -23.8475   20.5627 C   0  0  0  0  0  0
  -28.9919  -23.8182   20.2318 C   0  0  0  0  0  0
  -28.6167  -22.3888   20.1359 C   0  0  0  0  0  0
  -30.8514  -22.4511   20.6936 C   0  0  0  0  0  0
  -27.9945  -24.9871   19.9261 C   0  0  0  0  0  0
  -29.6941  -21.5808   20.4254 N   0  0  0  0  0  0
  -29.8002  -15.6892   20.8139 N   0  0  0  0  0  0
  -27.4965  -21.9771   19.8211 O   0  0  0  0  0  0
  -27.5248  -17.1781   21.0164 F   0  0  0  0  0  0
  -32.1438  -20.0131   20.1127 F   0  0  0  0  0  0
  -31.4836  -12.5264   19.1415 H   0  0  0  0  0  0
  -30.3855  -11.4024   19.8932 H   0  0  0  0  0  0
  -29.7737  -11.7500   17.4809 H   0  0  0  0  0  0
  -29.6495  -13.4719   17.7367 H   0  0  0  0  0  0
  -27.8737  -11.2889   18.8754 H   0  0  0  0  0  0
  -27.3774  -12.5653   17.7949 H   0  0  0  0  0  0
  -27.6688  -14.2502   19.5157 H   0  0  0  0  0  0
  -28.7162  -12.0534   21.3735 H   0  0  0  0  0  0
  -28.4492  -13.7091   21.8397 H   0  0  0  0  0  0
  -25.2750   -9.5689   22.4749 H   0  0  0  0  0  0
  -23.9999   -7.4637   22.7471 H   0  0  0  0  0  0
  -21.0827   -8.8764   19.8960 H   0  0  0  0  0  0
  -22.3676  -10.9664   19.6163 H   0  0  0  0  0  0
  -21.2003   -7.6138   23.9712 H   0  0  0  0  0  0
  -21.1486   -6.0516   25.9078 H   0  0  0  0  0  0
  -22.0596   -2.7603   23.2847 H   0  0  0  0  0  0
  -22.4084  -11.9907   22.4821 H   0  0  0  0  0  0
  -21.1107  -13.1286   22.2612 H   0  0  0  0  0  0
  -24.6534  -15.8347   20.5631 H   0  0  0  0  0  0
  -26.2939  -15.6629   20.2245 H   0  0  0  0  0  0
  -26.7195  -32.5453   23.1117 H   0  0  0  0  0  0
  -25.0065  -33.9728   25.0431 H   0  0  0  0  0  0
  -22.7170  -31.3100   21.4073 H   0  0  0  0  0  0
  -23.3757  -35.9626   23.3280 H   0  0  0  0  0  0
  -24.3593  -36.8929   22.2052 H   0  0  0  0  0  0
  -23.7237  -37.6492   23.6665 H   0  0  0  0  0  0
  -26.1006  -31.5489   20.6108 H   0  0  0  0  0  0
  -26.8472  -30.8347   22.0092 H   0  0  0  0  0  0
  -28.1141  -28.9556   21.2059 H   0  0  0  0  0  0
  -25.9245  -25.9738   18.9434 H   0  0  0  0  0  0
  -23.9625  -27.3443   18.9894 H   0  0  0  0  0  0
  -23.7598  -30.6108   19.4087 H   0  0  0  0  0  0
  -22.7564  -29.2634   19.8559 H   0  0  0  0  0  0
  -25.1281  -36.1938   25.0825 H   0  0  0  0  0  0
  -20.9994  -28.3275   24.1398 H   0  0  0  0  0  0
  -20.5691  -26.2307   23.3610 H   0  0  0  0  0  0
  -21.6651  -26.7454   22.1198 H   0  0  0  0  0  0
  -19.6912  -25.6302   21.1249 H   0  0  0  0  0  0
  -19.6681  -27.3200   20.6742 H   0  0  0  0  0  0
  -17.4205  -26.6687   21.4037 H   0  0  0  0  0  0
  -18.0332  -26.0072   22.9025 H   0  0  0  0  0  0
  -19.7939  -30.7283   24.2266 H   0  0  0  0  0  0
  -17.5018  -31.6268   24.5172 H   0  0  0  0  0  0
  -15.5357  -30.2990   23.7648 H   0  0  0  0  0  0
  -15.8687  -28.0827   22.7059 H   0  0  0  0  0  0
  -24.5891  -30.7084   25.7801 H   0  0  0  0  0  0
  -24.8901  -32.2909   26.4872 H   0  0  0  0  0  0
  -25.8028  -30.8936   27.0256 H   0  0  0  0  0  0
  -26.2891  -29.6772   24.1199 H   0  0  0  0  0  0
  -27.3993  -29.7243   25.4695 H   0  0  0  0  0  0
  -27.8780  -30.4283   23.9433 H   0  0  0  0  0  0
  -27.2699  -33.3610   26.2087 H   0  0  0  0  0  0
  -28.3871  -32.6856   25.0317 H   0  0  0  0  0  0
  -28.0744  -31.8419   26.5401 H   0  0  0  0  0  0
  -28.2585  -38.0112   24.7540 H   0  0  0  0  0  0
  -28.1096  -36.2647   24.6233 H   0  0  0  0  0  0
  -27.2318  -37.1396   25.8863 H   0  0  0  0  0  0
  -20.9372  -29.8792   21.6901 H   0  0  0  0  0  0
  -26.0163  -38.2857   24.1433 H   0  0  0  0  0  0
  -27.6417  -19.7452   20.8395 H   0  0  0  0  0  0
  -31.9962  -17.4456   20.3139 H   0  0  0  0  0  0
  -30.8787  -24.7383   20.6944 H   0  0  0  0  0  0
  -31.2523  -22.2846   21.6943 H   0  0  0  0  0  0
  -31.6423  -22.3152   19.9564 H   0  0  0  0  0  0
  -27.0986  -24.7415   20.4999 H   0  0  0  0  0  0
  -27.7457  -24.8654   18.8711 H   0  0  0  0  0  0
  -28.8782  -15.3785   21.0817 H   0  0  0  0  0  0
  1 25  1  0  0  0
  1 30  2  0  0  0
  1 83  1  0  0  0
  2  3  1  0  0  0
  2 25  1  0  0  0
  2 87  1  0  0  0
  2 88  1  0  0  0
  3  4  1  0  0  0
  3 89  1  0  0  0
  3 90  1  0  0  0
  4  5  1  0  0  0
  4 91  1  0  0  0
  4 92  1  0  0  0
  5  6  1  0  0  0
  5 26  1  0  0  0
  5 93  1  0  0  0
  6 25  1  0  0  0
  6 94  1  0  0  0
  6 95  1  0  0  0
  7  8  2  0  0  0
  7 26  1  0  0  0
  7 29  1  0  0  0
  8  9  1  0  0  0
  8 22  1  0  0  0
  9 10  1  0  0  0
  9 27  2  0  0  0
 10 11  2  0  0  0
 10 15  1  0  0  0
 11 12  1  0  0  0
 11 96  1  0  0  0
 12 13  2  0  0  0
 12 97  1  0  0  0
 13 14  1  0  0  0
 13 31  1  0  0  0
 14 15  2  0  0  0
 14 98  1  0  0  0
 15 99  1  0  0  0
 16 17  2  0  0  0
 16 21  1  0  0  0
 16 31  1  0  0  0
 17 18  1  0  0  0
 17100  1  0  0  0
 18 19  2  0  0  0
 18101  1  0  0  0
 19 20  1  0  0  0
 19 24  1  0  0  0
 20 21  2  0  0  0
 20102  1  0  0  0
 21 23  1  0  0  0
 22 28  1  0  0  0
 22 32  2  0  0  0
 26 27  1  0  0  0
 28103  1  0  0  0
 28104  1  0  0  0
 29105  1  0  0  0
 29106  1  0  0  0
 33 34  1  0  0  0
 33 66  1  0  0  0
 33 70  2  0  0  0
 34 36  1  0  0  0
 34 59  1  0  0  0
 34107  1  0  0  0
 35 44  2  0  0  0
 35 45  1  0  0  0
 35 68  1  0  0  0
 36 56  1  0  0  0
 36108  1  0  0  0
 37 39  1  0  0  0
 37 47  1  0  0  0
 37 66  1  0  0  0
 37109  1  0  0  0
 38 43  2  0  0  0
 38 46  1  0  0  0
 38 47  1  0  0  0
 39 64  1  0  0  0
 39 67  2  0  0  0
 40 52  1  0  0  0
 40 53  2  0  0  0
 40 58  1  0  0  0
 41110  1  0  0  0
 41111  1  0  0  0
 41112  1  0  0  0
 41 48  1  0  0  0
 42 43  1  0  0  0
 42 66  1  0  0  0
 42113  1  0  0  0
 42114  1  0  0  0
 43 44  1  0  0  0
 44115  1  0  0  0
 45 46  2  0  0  0
 45116  1  0  0  0
 46117  1  0  0  0
 47118  1  0  0  0
 47119  1  0  0  0
 48 56  1  0  0  0
 48 65  1  0  0  0
 48120  1  0  0  0
 49 50  1  0  0  0
 49 53  1  0  0  0
 49 64  1  0  0  0
 49121  1  0  0  0
 50 51  1  0  0  0
 50122  1  0  0  0
 50123  1  0  0  0
 51 52  1  0  0  0
 51124  1  0  0  0
 51125  1  0  0  0
 52126  1  0  0  0
 52127  1  0  0  0
 53 54  1  0  0  0
 54 55  2  0  0  0
 54128  1  0  0  0
 55 57  1  0  0  0
 55129  1  0  0  0
 56 69  2  0  0  0
 57 58  2  0  0  0
 57130  1  0  0  0
 58131  1  0  0  0
 59 60  1  0  0  0
 59 61  1  0  0  0
 59 62  1  0  0  0
 60132  1  0  0  0
 60133  1  0  0  0
 60134  1  0  0  0
 61135  1  0  0  0
 61136  1  0  0  0
 61137  1  0  0  0
 62138  1  0  0  0
 62139  1  0  0  0
 62140  1  0  0  0
 63 65  1  0  0  0
 63141  1  0  0  0
 63142  1  0  0  0
 63143  1  0  0  0
 64144  1  0  0  0
 65145  1  0  0  0
 68 81  1  0  0  0
 71 73  2  0  0  0
 71 75  1  0  0  0
 71146  1  0  0  0
 72 74  1  0  0  0
 72 76  2  0  0  0
 72147  1  0  0  0
 73 76  1  0  0  0
 73 82  1  0  0  0
 74 75  2  0  0  0
 74 83  1  0  0  0
 75 85  1  0  0  0
 76 86  1  0  0  0
 77 78  2  0  0  0
 77 80  1  0  0  0
 77148  1  0  0  0
 78 79  1  0  0  0
 78 81  1  0  0  0
 79 82  1  0  0  0
 79 84  2  0  0  0
 80 82  1  0  0  0
 80149  1  0  0  0
 80150  1  0  0  0
 81151  1  0  0  0
 81152  1  0  0  0
 83153  1  0  0  0
M  ISO  4   1 100  68 101  81 101  83 100
M  END
> <chiral flag>
0

> <version>
0

> <s_m_source_file>
/data/baiqing/PycharmProjects/Reinvent-master-3.2/result/LINK_invent/BTK/process_docking_weight1_custom_product_contain_oxygen_bond_distance_aromatic_linkinvent_7_9_3/rearranged_h_0075.sdf

> <i_m_source_file_index>
79

> <r_mmod_Potential_Energy-OPLS-2005>
110.283851623535

> <r_mmod_Stretch_Energy-OPLS-2005>
85.0678787231445

> <r_mmod_Bend_Energy-OPLS-2005>
195.434341430664

> <r_mmod_Torsional_Energy-OPLS-2005>
236.750427246094

> <r_mmod_Improper_Torsional_Energy-OPLS-2005>
4.3963942527771

> <r_mmod_Van_der_Waal_Energy-OPLS-2005>
152.54704284668

> <r_mmod_Electrostatic_Energy-OPLS-2005>
-417.164886474609

> <r_mmod_Solvation_Energy-OPLS-2005>
-201.612380981445

> <b_mmod_Minimization_Converged-OPLS-2005>
0

> <r_mmod_RMS_Derivative-OPLS-2005>
1.04988610744476

$$$$
80
                    3D
 Structure written by MMmdl.
160169  0  0  1  0            999 V2000
  -30.5856  -14.9287   20.4182 C   0  0  0  0  0  0
  -30.4225  -12.5785   19.5062 C   0  0  0  0  0  0
  -29.5150  -12.5325   18.2562 C   0  0  0  0  0  0
  -28.0448  -12.3292   18.6632 C   0  0  0  0  0  0
  -27.6238  -13.2555   19.8339 C   0  0  2  0  0  0
  -28.6610  -13.2783   20.9717 C   0  0  0  0  0  0
  -25.2436  -13.8244   20.5722 C   0  0  0  0  0  0
  -24.1760  -13.0452   20.9225 C   0  0  0  0  0  0
  -24.6384  -11.6939   20.8735 C   0  0  0  0  0  0
  -23.9077  -10.4300   21.0392 C   0  0  0  0  0  0
  -24.3615   -9.4225   21.9188 C   0  0  0  0  0  0
  -23.6289   -8.2261   22.0763 C   0  0  0  0  0  0
  -22.4276   -8.0285   21.3545 C   0  0  0  0  0  0
  -21.9928   -9.0251   20.4632 C   0  0  0  0  0  0
  -22.7258  -10.2131   20.3037 C   0  0  0  0  0  0
  -21.6858   -6.0736   22.5282 C   0  0  0  0  0  0
  -21.4024   -6.5640   23.8215 C   0  0  0  0  0  0
  -21.3667   -5.6795   24.9178 C   0  0  0  0  0  0
  -21.6042   -4.3058   24.7232 C   0  0  0  0  0  0
  -21.8820   -3.8150   23.4356 C   0  0  0  0  0  0
  -21.9202   -4.6965   22.3407 C   0  0  0  0  0  0
  -22.7782  -13.5208   21.1893 C   0  0  0  0  0  0
  -22.1672   -4.2149   21.0990 F   0  0  0  0  0  0
  -21.5622   -3.4543   25.7747 F   0  0  0  0  0  0
  -29.9391  -13.6918   20.3783 N   0  0  0  0  0  0
  -26.2853  -12.9486   20.3218 N   0  0  0  0  0  0
  -25.9312  -11.6602   20.5705 N   0  0  0  0  0  0
  -22.0445  -12.8179   22.0449 N   0  0  0  0  0  0
  -25.4114  -15.1974   20.4183 N   0  0  0  0  0  0
  -31.7904  -14.9239   20.1509 O   0  0  0  0  0  0
  -21.6644   -6.8881   21.4244 O   0  0  0  0  0  0
  -22.3449  -14.5502   20.6737 O   0  0  0  0  0  0
  -24.6435  -31.8444   23.1894 C   0  0  0  0  0  0
  -25.9207  -32.4694   23.8282 C   0  0  1  0  0  0
  -27.2075  -27.1288   20.1457 C   0  0  0  0  0  0
  -25.5952  -33.8504   24.2193 N   0  0  0  0  0  0
  -23.4477  -30.4640   21.5349 C   0  0  2  0  0  0
  -24.8961  -28.8944   20.1065 C   0  0  0  0  0  0
  -22.7571  -29.4545   22.4859 C   0  0  0  0  0  0
  -18.0307  -28.1396   22.8476 C   0  0  0  0  0  0
  -24.1497  -36.7255   23.2640 C   0  0  0  0  0  0
  -26.0048  -30.7123   21.3934 C   0  0  0  0  0  0
  -26.0727  -29.3246   20.7322 C   0  0  0  0  0  0
  -27.2286  -28.4557   20.7396 C   0  0  0  0  0  0
  -26.0123  -26.8147   19.4610 C   0  0  0  0  0  0
  -24.8797  -27.6543   19.4540 C   0  0  0  0  0  0
  -23.6738  -29.7964   20.1531 C   0  0  0  0  0  0
  -25.4129  -36.3034   24.0314 C   0  0  1  0  0  0
  -20.5919  -28.3730   23.1232 C   0  0  2  0  0  0
  -20.6790  -26.9431   22.5407 C   0  0  0  0  0  0
  -19.5767  -26.6383   21.5213 C   0  0  0  0  0  0
  -18.1949  -26.7935   22.1622 C   0  0  0  0  0  0
  -19.1562  -28.8881   23.2845 C   0  0  0  0  0  0
  -18.9477  -30.1473   23.8878 C   0  0  0  0  0  0
  -17.6475  -30.6593   24.0558 C   0  0  0  0  0  0
  -25.9078  -34.9406   23.5062 C   0  0  0  0  0  0
  -16.5366  -29.9086   23.6331 C   0  0  0  0  0  0
  -16.7291  -28.6501   23.0358 C   0  0  0  0  0  0
  -26.4528  -31.6566   25.0729 C   0  0  0  0  0  0
  -25.3705  -31.3765   26.1419 C   0  0  0  0  0  0
  -27.0387  -30.2955   24.6327 C   0  0  0  0  0  0
  -27.6060  -32.4334   25.7505 C   0  0  0  0  0  0
  -27.5581  -37.1787   24.8464 C   0  0  0  0  0  0
  -21.4266  -29.3047   22.3601 N   0  0  0  0  0  0
  -26.4294  -37.3746   23.9402 N   0  0  0  0  0  0
  -24.7182  -31.0286   22.0937 N   0  0  0  0  0  0
  -23.4207  -28.8095   23.3016 O   0  0  0  0  0  0
  -28.2407  -26.1234   20.2450 O   0  0  0  0  0  0
  -26.5669  -34.8901   22.4644 O   0  0  0  0  0  0
  -23.5552  -32.1334   23.7096 O   0  0  0  0  0  0
  -27.3984  -17.4357   23.6376 C   0  0  0  0  0  0
  -29.2219  -16.2190   22.6958 C   0  0  0  0  0  0
  -28.5185  -18.3585   21.5797 C   0  0  0  0  0  0
  -27.4616  -18.3484   22.5740 C   0  0  0  0  0  0
  -29.2440  -17.0097   21.5113 C   0  0  0  0  0  0
  -28.3381  -16.4247   23.7497 C   0  0  0  0  0  0
  -28.7771  -21.0700   22.0004 C   0  0  0  0  0  0
  -28.1885  -22.5045   21.6620 C   0  0  0  0  0  0
  -28.8163  -21.8994   19.3935 C   0  0  0  0  0  0
  -28.5333  -19.9125   20.9341 C   0  0  1  0  0  0
  -28.7634  -23.1936   20.3853 C   0  0  1  0  0  0
  -27.9755  -24.6215   19.9118 C   0  0  0  0  0  0
  -26.3898  -19.2558   22.5836 N   0  0  0  0  0  0
  -29.9230  -16.1989   20.4339 N   0  0  0  0  0  0
  -29.2991  -20.5247   19.8447 O   0  0  0  0  0  0
  -28.3247  -15.5831   24.8117 F   0  0  0  0  0  0
  -31.4610  -12.7079   19.1981 H   0  0  0  0  0  0
  -30.3941  -11.6273   20.0408 H   0  0  0  0  0  0
  -29.8318  -11.7341   17.5842 H   0  0  0  0  0  0
  -29.6153  -13.4640   17.6962 H   0  0  0  0  0  0
  -27.9260  -11.2858   18.9572 H   0  0  0  0  0  0
  -27.3888  -12.4788   17.8048 H   0  0  0  0  0  0
  -27.5900  -14.2628   19.4163 H   0  0  0  0  0  0
  -28.7453  -12.2998   21.4476 H   0  0  0  0  0  0
  -28.3368  -13.9659   21.7484 H   0  0  0  0  0  0
  -25.2749   -9.5702   22.4772 H   0  0  0  0  0  0
  -23.9997   -7.4663   22.7497 H   0  0  0  0  0  0
  -21.0862   -8.8760   19.8936 H   0  0  0  0  0  0
  -22.3729  -10.9662   19.6133 H   0  0  0  0  0  0
  -21.2013   -7.6149   23.9719 H   0  0  0  0  0  0
  -21.1489   -6.0531   25.9075 H   0  0  0  0  0  0
  -22.0596   -2.7611   23.2874 H   0  0  0  0  0  0
  -22.4092  -11.9853   22.4838 H   0  0  0  0  0  0
  -21.1052  -13.1168   22.2651 H   0  0  0  0  0  0
  -24.6514  -15.8543   20.5527 H   0  0  0  0  0  0
  -26.2718  -15.6415   20.1230 H   0  0  0  0  0  0
  -26.7269  -32.5289   23.1003 H   0  0  0  0  0  0
  -25.0058  -33.9619   25.0313 H   0  0  0  0  0  0
  -22.7509  -31.2906   21.3811 H   0  0  0  0  0  0
  -23.3764  -35.9582   23.3293 H   0  0  0  0  0  0
  -24.3581  -36.8898   22.2056 H   0  0  0  0  0  0
  -23.7248  -37.6446   23.6685 H   0  0  0  0  0  0
  -26.1659  -31.4685   20.6237 H   0  0  0  0  0  0
  -26.8736  -30.7576   22.0382 H   0  0  0  0  0  0
  -28.1206  -28.7727   21.2609 H   0  0  0  0  0  0
  -25.9113  -25.8763   18.9379 H   0  0  0  0  0  0
  -23.9851  -27.3254   18.9429 H   0  0  0  0  0  0
  -23.8105  -30.5726   19.3994 H   0  0  0  0  0  0
  -22.7891  -29.2386   19.8412 H   0  0  0  0  0  0
  -25.1314  -36.1868   25.0806 H   0  0  0  0  0  0
  -21.0003  -28.3324   24.1356 H   0  0  0  0  0  0
  -20.5686  -26.2342   23.3628 H   0  0  0  0  0  0
  -21.6656  -26.7439   22.1203 H   0  0  0  0  0  0
  -19.6935  -25.6287   21.1261 H   0  0  0  0  0  0
  -19.6705  -27.3177   20.6731 H   0  0  0  0  0  0
  -17.4214  -26.6675   21.4028 H   0  0  0  0  0  0
  -18.0355  -26.0083   22.9027 H   0  0  0  0  0  0
  -19.7953  -30.7292   24.2246 H   0  0  0  0  0  0
  -17.5027  -31.6272   24.5165 H   0  0  0  0  0  0
  -15.5364  -30.2981   23.7669 H   0  0  0  0  0  0
  -15.8690  -28.0810   22.7092 H   0  0  0  0  0  0
  -24.5899  -30.7094   25.7745 H   0  0  0  0  0  0
  -24.8872  -32.2946   26.4771 H   0  0  0  0  0  0
  -25.7979  -30.8996   27.0248 H   0  0  0  0  0  0
  -26.3007  -29.6673   24.1326 H   0  0  0  0  0  0
  -27.3975  -29.7264   25.4913 H   0  0  0  0  0  0
  -27.8931  -30.4173   23.9666 H   0  0  0  0  0  0
  -27.2661  -33.3657   26.2027 H   0  0  0  0  0  0
  -28.3896  -32.6860   25.0349 H   0  0  0  0  0  0
  -28.0703  -31.8501   26.5465 H   0  0  0  0  0  0
  -28.2589  -38.0092   24.7499 H   0  0  0  0  0  0
  -28.1087  -36.2618   24.6304 H   0  0  0  0  0  0
  -27.2294  -37.1445   25.8865 H   0  0  0  0  0  0
  -20.9490  -29.8744   21.6759 H   0  0  0  0  0  0
  -26.0164  -38.2817   24.1396 H   0  0  0  0  0  0
  -26.6368  -17.5170   24.4001 H   0  0  0  0  0  0
  -29.8361  -15.3408   22.8145 H   0  0  0  0  0  0
  -28.3679  -20.7956   22.9709 H   0  0  0  0  0  0
  -29.8482  -21.1536   22.1878 H   0  0  0  0  0  0
  -28.3369  -23.1666   22.5153 H   0  0  0  0  0  0
  -27.1082  -22.4048   21.5505 H   0  0  0  0  0  0
  -29.4238  -22.1730   18.5308 H   0  0  0  0  0  0
  -27.8131  -21.7551   18.9897 H   0  0  0  0  0  0
  -27.5240  -20.0090   20.5331 H   0  0  0  0  0  0
  -29.8009  -23.4612   20.5864 H   0  0  0  0  0  0
  -26.9353  -24.4330   20.1743 H   0  0  0  0  0  0
  -27.9871  -24.6008   18.8218 H   0  0  0  0  0  0
  -25.5717  -19.0326   23.1407 H   0  0  0  0  0  0
  -26.1502  -19.7428   21.7277 H   0  0  0  0  0  0
  -30.3450  -16.8085   19.7473 H   0  0  0  0  0  0
  1 25  1  0  0  0
  1 30  2  0  0  0
  1 84  1  0  0  0
  2  3  1  0  0  0
  2 25  1  0  0  0
  2 87  1  0  0  0
  2 88  1  0  0  0
  3  4  1  0  0  0
  3 89  1  0  0  0
  3 90  1  0  0  0
  4  5  1  0  0  0
  4 91  1  0  0  0
  4 92  1  0  0  0
  5  6  1  0  0  0
  5 26  1  0  0  0
  5 93  1  0  0  0
  6 25  1  0  0  0
  6 94  1  0  0  0
  6 95  1  0  0  0
  7  8  2  0  0  0
  7 26  1  0  0  0
  7 29  1  0  0  0
  8  9  1  0  0  0
  8 22  1  0  0  0
  9 10  1  0  0  0
  9 27  2  0  0  0
 10 11  2  0  0  0
 10 15  1  0  0  0
 11 12  1  0  0  0
 11 96  1  0  0  0
 12 13  2  0  0  0
 12 97  1  0  0  0
 13 14  1  0  0  0
 13 31  1  0  0  0
 14 15  2  0  0  0
 14 98  1  0  0  0
 15 99  1  0  0  0
 16 17  2  0  0  0
 16 21  1  0  0  0
 16 31  1  0  0  0
 17 18  1  0  0  0
 17100  1  0  0  0
 18 19  2  0  0  0
 18101  1  0  0  0
 19 20  1  0  0  0
 19 24  1  0  0  0
 20 21  2  0  0  0
 20102  1  0  0  0
 21 23  1  0  0  0
 22 28  1  0  0  0
 22 32  2  0  0  0
 26 27  1  0  0  0
 28103  1  0  0  0
 28104  1  0  0  0
 29105  1  0  0  0
 29106  1  0  0  0
 33 34  1  0  0  0
 33 66  1  0  0  0
 33 70  2  0  0  0
 34 36  1  0  0  0
 34 59  1  0  0  0
 34107  1  0  0  0
 35 44  2  0  0  0
 35 45  1  0  0  0
 35 68  1  0  0  0
 36 56  1  0  0  0
 36108  1  0  0  0
 37 39  1  0  0  0
 37 47  1  0  0  0
 37 66  1  0  0  0
 37109  1  0  0  0
 38 43  2  0  0  0
 38 46  1  0  0  0
 38 47  1  0  0  0
 39 64  1  0  0  0
 39 67  2  0  0  0
 40 52  1  0  0  0
 40 53  2  0  0  0
 40 58  1  0  0  0
 41110  1  0  0  0
 41111  1  0  0  0
 41112  1  0  0  0
 41 48  1  0  0  0
 42 43  1  0  0  0
 42 66  1  0  0  0
 42113  1  0  0  0
 42114  1  0  0  0
 43 44  1  0  0  0
 44115  1  0  0  0
 45 46  2  0  0  0
 45116  1  0  0  0
 46117  1  0  0  0
 47118  1  0  0  0
 47119  1  0  0  0
 48 56  1  0  0  0
 48 65  1  0  0  0
 48120  1  0  0  0
 49 50  1  0  0  0
 49 53  1  0  0  0
 49 64  1  0  0  0
 49121  1  0  0  0
 50 51  1  0  0  0
 50122  1  0  0  0
 50123  1  0  0  0
 51 52  1  0  0  0
 51124  1  0  0  0
 51125  1  0  0  0
 52126  1  0  0  0
 52127  1  0  0  0
 53 54  1  0  0  0
 54 55  2  0  0  0
 54128  1  0  0  0
 55 57  1  0  0  0
 55129  1  0  0  0
 56 69  2  0  0  0
 57 58  2  0  0  0
 57130  1  0  0  0
 58131  1  0  0  0
 59 60  1  0  0  0
 59 61  1  0  0  0
 59 62  1  0  0  0
 60132  1  0  0  0
 60133  1  0  0  0
 60134  1  0  0  0
 61135  1  0  0  0
 61136  1  0  0  0
 61137  1  0  0  0
 62138  1  0  0  0
 62139  1  0  0  0
 62140  1  0  0  0
 63 65  1  0  0  0
 63141  1  0  0  0
 63142  1  0  0  0
 63143  1  0  0  0
 64144  1  0  0  0
 65145  1  0  0  0
 68 82  1  0  0  0
 71 74  2  0  0  0
 71 76  1  0  0  0
 71146  1  0  0  0
 72 75  1  0  0  0
 72 76  2  0  0  0
 72147  1  0  0  0
 73 74  1  0  0  0
 73 75  2  0  0  0
 73 80  1  0  0  0
 74 83  1  0  0  0
 75 84  1  0  0  0
 76 86  1  0  0  0
 77 78  1  0  0  0
 77 80  1  0  0  0
 77148  1  0  0  0
 77149  1  0  0  0
 78 81  1  0  0  0
 78150  1  0  0  0
 78151  1  0  0  0
 79 81  1  0  0  0
 79 85  1  0  0  0
 79152  1  0  0  0
 79153  1  0  0  0
 80 85  1  0  0  0
 80154  1  0  0  0
 81 82  1  0  0  0
 81155  1  0  0  0
 82156  1  0  0  0
 82157  1  0  0  0
 83158  1  0  0  0
 83159  1  0  0  0
 84160  1  0  0  0
M  ISO  4   1 100  68 101  82 101  84 100
M  END
> <chiral flag>
0

> <version>
0

> <s_m_source_file>
/data/baiqing/PycharmProjects/Reinvent-master-3.2/result/LINK_invent/BTK/process_docking_weight1_custom_product_contain_oxygen_bond_distance_aromatic_linkinvent_7_9_3/rearranged_h_0075.sdf

> <i_m_source_file_index>
80

> <r_mmod_Potential_Energy-OPLS-2005>
951.429931640625

> <r_mmod_Stretch_Energy-OPLS-2005>
286.673858642578

> <r_mmod_Bend_Energy-OPLS-2005>
418.019439697266

> <r_mmod_Torsional_Energy-OPLS-2005>
343.141296386719

> <r_mmod_Improper_Torsional_Energy-OPLS-2005>
13.770679473877

> <r_mmod_Van_der_Waal_Energy-OPLS-2005>
164.661163330078

> <r_mmod_Electrostatic_Energy-OPLS-2005>
-258.743072509766

> <r_mmod_Solvation_Energy-OPLS-2005>
-206.243713378906

> <b_mmod_Minimization_Converged-OPLS-2005>
0

> <r_mmod_RMS_Derivative-OPLS-2005>
0.968954205513

$$$$
81
                    3D
 Structure written by MMmdl.
168177  0  0  1  0            999 V2000
  -30.7122  -14.4899   20.6447 C   0  0  0  0  0  0
  -30.4267  -12.3473   19.4284 C   0  0  0  0  0  0
  -29.4946  -12.5329   18.2109 C   0  0  0  0  0  0
  -28.0168  -12.3735   18.6155 C   0  0  0  0  0  0
  -27.6604  -13.2018   19.8758 C   0  0  2  0  0  0
  -28.6939  -12.9495   20.9910 C   0  0  0  0  0  0
  -25.2578  -13.8143   20.5664 C   0  0  0  0  0  0
  -24.1827  -13.0437   20.9173 C   0  0  0  0  0  0
  -24.6369  -11.6899   20.8722 C   0  0  0  0  0  0
  -23.9036  -10.4296   21.0410 C   0  0  0  0  0  0
  -24.3591   -9.4220   21.9200 C   0  0  0  0  0  0
  -23.6276   -8.2250   22.0770 C   0  0  0  0  0  0
  -22.4267   -8.0277   21.3546 C   0  0  0  0  0  0
  -21.9895   -9.0244   20.4650 C   0  0  0  0  0  0
  -22.7216  -10.2130   20.3060 C   0  0  0  0  0  0
  -21.6842   -6.0734   22.5286 C   0  0  0  0  0  0
  -21.4013   -6.5634   23.8219 C   0  0  0  0  0  0
  -21.3657   -5.6784   24.9178 C   0  0  0  0  0  0
  -21.6042   -4.3050   24.7231 C   0  0  0  0  0  0
  -21.8813   -3.8140   23.4351 C   0  0  0  0  0  0
  -21.9185   -4.6956   22.3408 C   0  0  0  0  0  0
  -22.7860  -13.5248   21.1854 C   0  0  0  0  0  0
  -22.1655   -4.2151   21.0979 F   0  0  0  0  0  0
  -21.5625   -3.4535   25.7744 F   0  0  0  0  0  0
  -30.0305  -13.3093   20.4776 N   0  0  0  0  0  0
  -26.3002  -12.9297   20.3330 N   0  0  0  0  0  0
  -25.9287  -11.6466   20.5723 N   0  0  0  0  0  0
  -22.0488  -12.8252   22.0399 N   0  0  0  0  0  0
  -25.4304  -15.1864   20.4086 N   0  0  0  0  0  0
  -31.7543  -14.7366   20.0257 O   0  0  0  0  0  0
  -21.6627   -6.8882   21.4248 O   0  0  0  0  0  0
  -22.3570  -14.5573   20.6717 O   0  0  0  0  0  0
  -24.6176  -31.8659   23.2070 C   0  0  0  0  0  0
  -25.9050  -32.4814   23.8377 C   0  0  1  0  0  0
  -27.2364  -27.4011   20.0995 C   0  0  0  0  0  0
  -25.5909  -33.8610   24.2315 N   0  0  0  0  0  0
  -23.4077  -30.4874   21.5476 C   0  0  2  0  0  0
  -24.8562  -28.9485   20.1147 C   0  0  0  0  0  0
  -22.7422  -29.4659   22.4982 C   0  0  0  0  0  0
  -18.0274  -28.1387   22.8483 C   0  0  0  0  0  0
  -24.1490  -36.7293   23.2641 C   0  0  0  0  0  0
  -25.9404  -30.8190   21.3658 C   0  0  0  0  0  0
  -26.0191  -29.4506   20.7133 C   0  0  0  0  0  0
  -27.2147  -28.6871   20.6976 C   0  0  0  0  0  0
  -26.0570  -26.9264   19.4860 C   0  0  0  0  0  0
  -24.8718  -27.6861   19.4967 C   0  0  0  0  0  0
  -23.6187  -29.8178   20.1642 C   0  0  0  0  0  0
  -25.4119  -36.3099   24.0336 C   0  0  1  0  0  0
  -20.5863  -28.3680   23.1305 C   0  0  2  0  0  0
  -20.6773  -26.9416   22.5413 C   0  0  0  0  0  0
  -19.5759  -26.6382   21.5210 C   0  0  0  0  0  0
  -18.1921  -26.7933   22.1603 C   0  0  0  0  0  0
  -19.1526  -28.8846   23.2888 C   0  0  0  0  0  0
  -18.9458  -30.1453   23.8905 C   0  0  0  0  0  0
  -17.6464  -30.6597   24.0567 C   0  0  0  0  0  0
  -25.9047  -34.9466   23.5122 C   0  0  0  0  0  0
  -16.5360  -29.9098   23.6339 C   0  0  0  0  0  0
  -16.7268  -28.6519   23.0353 C   0  0  0  0  0  0
  -26.4472  -31.6602   25.0712 C   0  0  0  0  0  0
  -25.3734  -31.3681   26.1453 C   0  0  0  0  0  0
  -27.0325  -30.3049   24.6097 C   0  0  0  0  0  0
  -27.6014  -32.4352   25.7500 C   0  0  0  0  0  0
  -27.5591  -37.1808   24.8473 C   0  0  0  0  0  0
  -21.4148  -29.3043   22.3713 N   0  0  0  0  0  0
  -26.4302  -37.3788   23.9424 N   0  0  0  0  0  0
  -24.6733  -31.0734   22.0979 N   0  0  0  0  0  0
  -23.4173  -28.8205   23.3044 O   0  0  0  0  0  0
  -28.3785  -26.6156   20.0949 O   0  0  0  0  0  0
  -26.5613  -34.8917   22.4685 O   0  0  0  0  0  0
  -23.5365  -32.1424   23.7446 O   0  0  0  0  0  0
  -29.3112  -17.5307   20.3508 C   0  0  0  0  0  0
  -29.2090  -18.9263   20.1224 C   0  0  0  0  0  0
  -30.9991  -19.3069   21.6873 C   0  0  0  0  0  0
  -30.2358  -16.9906   21.2776 C   0  0  0  0  0  0
  -31.1063  -17.9108   21.9290 C   0  0  0  0  0  0
  -30.0303  -19.8584   20.8060 C   0  0  0  0  0  0
  -29.2761  -21.9001   19.5316 C   0  0  0  0  0  0
  -29.0486  -23.2407   19.4242 C   0  0  0  0  0  0
  -30.1769  -15.5285   21.6583 C   0  0  0  0  0  0
  -29.5328  -23.4370   21.8567 C   0  0  0  0  0  0
  -30.3596  -22.1325   21.7186 C   0  0  0  0  0  0
  -29.3717  -24.2516   20.5391 C   0  0  1  0  0  0
  -32.1530  -17.4295   22.9256 C   0  0  0  0  0  0
  -30.7030  -24.9537   20.2018 C   0  0  0  0  0  0
  -28.2069  -23.0399   17.1887 C   0  0  0  0  0  0
  -28.2343  -25.3266   20.7484 C   0  0  0  0  0  0
  -29.7610  -15.2268   22.8186 N   0  0  0  0  0  0
  -29.8660  -21.2706   20.6345 N   0  0  0  0  0  0
  -28.4763  -23.8483   18.3291 O   0  0  0  0  0  0
  -31.4677  -12.4655   19.1241 H   0  0  0  0  0  0
  -30.3528  -11.3284   19.8116 H   0  0  0  0  0  0
  -29.7475  -11.8131   17.4309 H   0  0  0  0  0  0
  -29.6484  -13.5217   17.7761 H   0  0  0  0  0  0
  -27.8358  -11.3148   18.8064 H   0  0  0  0  0  0
  -27.3638  -12.6480   17.7867 H   0  0  0  0  0  0
  -27.7138  -14.2551   19.6002 H   0  0  0  0  0  0
  -28.6891  -11.8954   21.2720 H   0  0  0  0  0  0
  -28.3864  -13.4638   21.8947 H   0  0  0  0  0  0
  -25.2730   -9.5707   22.4784 H   0  0  0  0  0  0
  -23.9980   -7.4658   22.7501 H   0  0  0  0  0  0
  -21.0827   -8.8766   19.8954 H   0  0  0  0  0  0
  -22.3677  -10.9674   19.6161 H   0  0  0  0  0  0
  -21.2008   -7.6140   23.9733 H   0  0  0  0  0  0
  -21.1475   -6.0509   25.9089 H   0  0  0  0  0  0
  -22.0581   -2.7605   23.2850 H   0  0  0  0  0  0
  -22.4071  -11.9893   22.4765 H   0  0  0  0  0  0
  -21.1122  -13.1324   22.2628 H   0  0  0  0  0  0
  -24.6647  -15.8416   20.5223 H   0  0  0  0  0  0
  -26.2884  -15.6293   20.1064 H   0  0  0  0  0  0
  -26.7121  -32.5516   23.1135 H   0  0  0  0  0  0
  -25.0111  -33.9788   25.0498 H   0  0  0  0  0  0
  -22.6958  -31.3028   21.4038 H   0  0  0  0  0  0
  -23.3778  -35.9595   23.3263 H   0  0  0  0  0  0
  -24.3590  -36.8963   22.2068 H   0  0  0  0  0  0
  -23.7206  -37.6458   23.6700 H   0  0  0  0  0  0
  -26.0572  -31.5826   20.5965 H   0  0  0  0  0  0
  -26.8265  -30.8724   21.9877 H   0  0  0  0  0  0
  -28.1108  -29.0721   21.1610 H   0  0  0  0  0  0
  -26.0507  -25.9640   18.9936 H   0  0  0  0  0  0
  -23.9809  -27.2951   19.0253 H   0  0  0  0  0  0
  -23.7251  -30.5892   19.4008 H   0  0  0  0  0  0
  -22.7428  -29.2361   19.8728 H   0  0  0  0  0  0
  -25.1300  -36.1954   25.0830 H   0  0  0  0  0  0
  -20.9952  -28.3252   24.1428 H   0  0  0  0  0  0
  -20.5690  -26.2291   23.3598 H   0  0  0  0  0  0
  -21.6646  -26.7456   22.1214 H   0  0  0  0  0  0
  -19.6924  -25.6293   21.1247 H   0  0  0  0  0  0
  -19.6715  -27.3183   20.6732 H   0  0  0  0  0  0
  -17.4209  -26.6700   21.3985 H   0  0  0  0  0  0
  -18.0295  -26.0065   22.8979 H   0  0  0  0  0  0
  -19.7936  -30.7258   24.2282 H   0  0  0  0  0  0
  -17.5028  -31.6277   24.5156 H   0  0  0  0  0  0
  -15.5364  -30.3005   23.7673 H   0  0  0  0  0  0
  -15.8658  -28.0852   22.7062 H   0  0  0  0  0  0
  -24.5944  -30.6985   25.7792 H   0  0  0  0  0  0
  -24.8884  -32.2817   26.4894 H   0  0  0  0  0  0
  -25.8100  -30.8872   27.0214 H   0  0  0  0  0  0
  -26.2872  -29.6798   24.1166 H   0  0  0  0  0  0
  -27.4120  -29.7300   25.4556 H   0  0  0  0  0  0
  -27.8685  -30.4387   23.9227 H   0  0  0  0  0  0
  -27.2613  -33.3689   26.1997 H   0  0  0  0  0  0
  -28.3866  -32.6861   25.0354 H   0  0  0  0  0  0
  -28.0611  -31.8522   26.5495 H   0  0  0  0  0  0
  -28.2578  -38.0136   24.7577 H   0  0  0  0  0  0
  -28.1132  -36.2670   24.6251 H   0  0  0  0  0  0
  -27.2316  -37.1409   25.8877 H   0  0  0  0  0  0
  -20.9313  -29.8770   21.6937 H   0  0  0  0  0  0
  -26.0179  -38.2855   24.1451 H   0  0  0  0  0  0
  -28.6216  -16.8721   19.8427 H   0  0  0  0  0  0
  -28.4432  -19.2686   19.4429 H   0  0  0  0  0  0
  -31.6801  -19.9592   22.2140 H   0  0  0  0  0  0
  -29.0466  -21.2163   18.7285 H   0  0  0  0  0  0
  -29.9708  -24.0611   22.6360 H   0  0  0  0  0  0
  -28.5442  -23.1603   22.2264 H   0  0  0  0  0  0
  -30.3154  -21.6142   22.6777 H   0  0  0  0  0  0
  -31.4089  -22.3665   21.5359 H   0  0  0  0  0  0
  -32.8941  -18.2008   23.1374 H   0  0  0  0  0  0
  -32.6894  -16.5596   22.5446 H   0  0  0  0  0  0
  -31.6807  -17.1524   23.8686 H   0  0  0  0  0  0
  -31.5075  -24.2332   20.0490 H   0  0  0  0  0  0
  -31.0116  -25.6342   20.9954 H   0  0  0  0  0  0
  -30.6211  -25.5341   19.2822 H   0  0  0  0  0  0
  -27.7786  -23.6558   16.3972 H   0  0  0  0  0  0
  -27.4869  -22.2513   17.4121 H   0  0  0  0  0  0
  -29.1219  -22.5931   16.7957 H   0  0  0  0  0  0
  -28.1769  -25.5639   21.8126 H   0  0  0  0  0  0
  -27.2771  -24.8576   20.5193 H   0  0  0  0  0  0
  -29.4889  -16.0620   23.3215 H   0  0  0  0  0  0
  1 25  1  0  0  0
  1 30  2  0  0  0
  1 79  1  0  0  0
  2  3  1  0  0  0
  2 25  1  0  0  0
  2 90  1  0  0  0
  2 91  1  0  0  0
  3  4  1  0  0  0
  3 92  1  0  0  0
  3 93  1  0  0  0
  4  5  1  0  0  0
  4 94  1  0  0  0
  4 95  1  0  0  0
  5  6  1  0  0  0
  5 26  1  0  0  0
  5 96  1  0  0  0
  6 25  1  0  0  0
  6 97  1  0  0  0
  6 98  1  0  0  0
  7  8  2  0  0  0
  7 26  1  0  0  0
  7 29  1  0  0  0
  8  9  1  0  0  0
  8 22  1  0  0  0
  9 10  1  0  0  0
  9 27  2  0  0  0
 10 11  2  0  0  0
 10 15  1  0  0  0
 11 12  1  0  0  0
 11 99  1  0  0  0
 12 13  2  0  0  0
 12100  1  0  0  0
 13 14  1  0  0  0
 13 31  1  0  0  0
 14 15  2  0  0  0
 14101  1  0  0  0
 15102  1  0  0  0
 16 17  2  0  0  0
 16 21  1  0  0  0
 16 31  1  0  0  0
 17 18  1  0  0  0
 17103  1  0  0  0
 18 19  2  0  0  0
 18104  1  0  0  0
 19 20  1  0  0  0
 19 24  1  0  0  0
 20 21  2  0  0  0
 20105  1  0  0  0
 21 23  1  0  0  0
 22 28  1  0  0  0
 22 32  2  0  0  0
 26 27  1  0  0  0
 28106  1  0  0  0
 28107  1  0  0  0
 29108  1  0  0  0
 29109  1  0  0  0
 33 34  1  0  0  0
 33 66  1  0  0  0
 33 70  2  0  0  0
 34 36  1  0  0  0
 34 59  1  0  0  0
 34110  1  0  0  0
 35 44  2  0  0  0
 35 45  1  0  0  0
 35 68  1  0  0  0
 36 56  1  0  0  0
 36111  1  0  0  0
 37 39  1  0  0  0
 37 47  1  0  0  0
 37 66  1  0  0  0
 37112  1  0  0  0
 38 43  2  0  0  0
 38 46  1  0  0  0
 38 47  1  0  0  0
 39 64  1  0  0  0
 39 67  2  0  0  0
 40 52  1  0  0  0
 40 53  2  0  0  0
 40 58  1  0  0  0
 41113  1  0  0  0
 41114  1  0  0  0
 41115  1  0  0  0
 41 48  1  0  0  0
 42 43  1  0  0  0
 42 66  1  0  0  0
 42116  1  0  0  0
 42117  1  0  0  0
 43 44  1  0  0  0
 44118  1  0  0  0
 45 46  2  0  0  0
 45119  1  0  0  0
 46120  1  0  0  0
 47121  1  0  0  0
 47122  1  0  0  0
 48 56  1  0  0  0
 48 65  1  0  0  0
 48123  1  0  0  0
 49 50  1  0  0  0
 49 53  1  0  0  0
 49 64  1  0  0  0
 49124  1  0  0  0
 50 51  1  0  0  0
 50125  1  0  0  0
 50126  1  0  0  0
 51 52  1  0  0  0
 51127  1  0  0  0
 51128  1  0  0  0
 52129  1  0  0  0
 52130  1  0  0  0
 53 54  1  0  0  0
 54 55  2  0  0  0
 54131  1  0  0  0
 55 57  1  0  0  0
 55132  1  0  0  0
 56 69  2  0  0  0
 57 58  2  0  0  0
 57133  1  0  0  0
 58134  1  0  0  0
 59 60  1  0  0  0
 59 61  1  0  0  0
 59 62  1  0  0  0
 60135  1  0  0  0
 60136  1  0  0  0
 60137  1  0  0  0
 61138  1  0  0  0
 61139  1  0  0  0
 61140  1  0  0  0
 62141  1  0  0  0
 62142  1  0  0  0
 62143  1  0  0  0
 63 65  1  0  0  0
 63144  1  0  0  0
 63145  1  0  0  0
 63146  1  0  0  0
 64147  1  0  0  0
 65148  1  0  0  0
 68 86  1  0  0  0
 71 72  2  0  0  0
 71 74  1  0  0  0
 71149  1  0  0  0
 72 76  1  0  0  0
 72150  1  0  0  0
 73 75  1  0  0  0
 73 76  2  0  0  0
 73151  1  0  0  0
 74 75  2  0  0  0
 74 79  1  0  0  0
 75 83  1  0  0  0
 76 88  1  0  0  0
 77 78  2  0  0  0
 77 88  1  0  0  0
 77152  1  0  0  0
 78 82  1  0  0  0
 78 89  1  0  0  0
 79 87  2  0  0  0
 80 81  1  0  0  0
 80 82  1  0  0  0
 80153  1  0  0  0
 80154  1  0  0  0
 81 88  1  0  0  0
 81155  1  0  0  0
 81156  1  0  0  0
 82 84  1  0  0  0
 82 86  1  0  0  0
 83157  1  0  0  0
 83158  1  0  0  0
 83159  1  0  0  0
 84160  1  0  0  0
 84161  1  0  0  0
 84162  1  0  0  0
 85 89  1  0  0  0
 85163  1  0  0  0
 85164  1  0  0  0
 85165  1  0  0  0
 86166  1  0  0  0
 86167  1  0  0  0
 87168  1  0  0  0
M  ISO  4   1 100  68 101  79 100  86 101
M  END
> <chiral flag>
0

> <version>
0

> <s_m_source_file>
/data/baiqing/PycharmProjects/Reinvent-master-3.2/result/LINK_invent/BTK/process_docking_weight1_custom_product_contain_oxygen_bond_distance_aromatic_linkinvent_7_9_3/rearranged_h_0075.sdf

> <i_m_source_file_index>
81

> <r_mmod_Potential_Energy-OPLS-2005>
192.3388671875

> <r_mmod_Stretch_Energy-OPLS-2005>
59.8341865539551

> <r_mmod_Bend_Energy-OPLS-2005>
127.92724609375

> <r_mmod_Torsional_Energy-OPLS-2005>
226.876373291016

> <r_mmod_Improper_Torsional_Energy-OPLS-2005>
2.88221406936646

> <r_mmod_Van_der_Waal_Energy-OPLS-2005>
178.553970336914

> <r_mmod_Electrostatic_Energy-OPLS-2005>
-221.817138671875

> <r_mmod_Solvation_Energy-OPLS-2005>
-197.77604675293

> <b_mmod_Minimization_Converged-OPLS-2005>
0

> <r_mmod_RMS_Derivative-OPLS-2005>
1.83349537849426

$$$$
82
                    3D
 Structure written by MMmdl.
161170  0  0  1  0            999 V2000
  -30.7917  -14.4995   20.5807 C   0  0  0  0  0  0
  -30.4072  -12.3279   19.4643 C   0  0  0  0  0  0
  -29.4959  -12.5002   18.2396 C   0  0  0  0  0  0
  -28.0312  -12.3043   18.6610 C   0  0  0  0  0  0
  -27.6540  -13.2090   19.8646 C   0  0  2  0  0  0
  -28.6961  -13.1167   21.0057 C   0  0  0  0  0  0
  -25.2582  -13.8176   20.5660 C   0  0  0  0  0  0
  -24.1826  -13.0448   20.9172 C   0  0  0  0  0  0
  -24.6398  -11.6912   20.8729 C   0  0  0  0  0  0
  -23.9048  -10.4323   21.0434 C   0  0  0  0  0  0
  -24.3614   -9.4222   21.9193 C   0  0  0  0  0  0
  -23.6317   -8.2243   22.0729 C   0  0  0  0  0  0
  -22.4297   -8.0296   21.3531 C   0  0  0  0  0  0
  -21.9940   -9.0256   20.4615 C   0  0  0  0  0  0
  -22.7241  -10.2156   20.3045 C   0  0  0  0  0  0
  -21.6837   -6.0779   22.5297 C   0  0  0  0  0  0
  -21.4014   -6.5667   23.8229 C   0  0  0  0  0  0
  -21.3664   -5.6805   24.9185 C   0  0  0  0  0  0
  -21.6043   -4.3072   24.7230 C   0  0  0  0  0  0
  -21.8818   -3.8176   23.4355 C   0  0  0  0  0  0
  -21.9207   -4.7014   22.3409 C   0  0  0  0  0  0
  -22.7881  -13.5264   21.1887 C   0  0  0  0  0  0
  -22.1674   -4.2201   21.0992 F   0  0  0  0  0  0
  -21.5618   -3.4533   25.7743 F   0  0  0  0  0  0
  -30.0286  -13.3722   20.4379 N   0  0  0  0  0  0
  -26.2997  -12.9306   20.3355 N   0  0  0  0  0  0
  -25.9311  -11.6467   20.5746 N   0  0  0  0  0  0
  -22.0517  -12.8186   22.0408 N   0  0  0  0  0  0
  -25.4422  -15.1876   20.4066 N   0  0  0  0  0  0
  -31.9364  -14.5295   20.1231 O   0  0  0  0  0  0
  -21.6637   -6.8917   21.4247 O   0  0  0  0  0  0
  -22.3561  -14.5596   20.6812 O   0  0  0  0  0  0
  -24.6066  -31.8713   23.2151 C   0  0  0  0  0  0
  -25.8973  -32.4896   23.8432 C   0  0  1  0  0  0
  -27.2510  -27.4355   20.1486 C   0  0  0  0  0  0
  -25.5801  -33.8704   24.2372 N   0  0  0  0  0  0
  -23.3926  -30.4873   21.5536 C   0  0  2  0  0  0
  -24.8509  -28.9663   20.0948 C   0  0  0  0  0  0
  -22.7414  -29.4613   22.5041 C   0  0  0  0  0  0
  -18.0288  -28.1343   22.8521 C   0  0  0  0  0  0
  -24.1470  -36.7401   23.2631 C   0  0  0  0  0  0
  -25.9069  -30.8538   21.3440 C   0  0  0  0  0  0
  -25.9944  -29.4765   20.7130 C   0  0  0  0  0  0
  -27.1835  -28.7127   20.7503 C   0  0  0  0  0  0
  -26.1050  -26.9580   19.4705 C   0  0  0  0  0  0
  -24.9078  -27.7099   19.4562 C   0  0  0  0  0  0
  -23.6008  -29.8263   20.1582 C   0  0  0  0  0  0
  -25.4085  -36.3158   24.0337 C   0  0  1  0  0  0
  -20.5881  -28.3656   23.1447 C   0  0  2  0  0  0
  -20.6830  -26.9392   22.5493 C   0  0  0  0  0  0
  -19.5807  -26.6337   21.5324 C   0  0  0  0  0  0
  -18.1942  -26.7905   22.1643 C   0  0  0  0  0  0
  -19.1530  -28.8831   23.2949 C   0  0  0  0  0  0
  -18.9423  -30.1459   23.8931 C   0  0  0  0  0  0
  -17.6398  -30.6572   24.0567 C   0  0  0  0  0  0
  -25.9014  -34.9517   23.5167 C   0  0  0  0  0  0
  -16.5346  -29.9040   23.6290 C   0  0  0  0  0  0
  -16.7284  -28.6460   23.0309 C   0  0  0  0  0  0
  -26.4427  -31.6661   25.0738 C   0  0  0  0  0  0
  -25.3759  -31.3736   26.1552 C   0  0  0  0  0  0
  -27.0211  -30.3138   24.5973 C   0  0  0  0  0  0
  -27.6018  -32.4346   25.7515 C   0  0  0  0  0  0
  -27.5585  -37.1852   24.8443 C   0  0  0  0  0  0
  -21.4120  -29.3040   22.3882 N   0  0  0  0  0  0
  -26.4279  -37.3833   23.9412 N   0  0  0  0  0  0
  -24.6544  -31.0850   22.0996 N   0  0  0  0  0  0
  -23.4261  -28.8156   23.3044 O   0  0  0  0  0  0
  -28.4154  -26.7085   20.3455 O   0  0  0  0  0  0
  -26.5609  -34.8972   22.4757 O   0  0  0  0  0  0
  -23.5302  -32.1383   23.7644 O   0  0  0  0  0  0
  -30.7356  -19.1876   20.7007 C   0  0  0  0  0  0
  -30.1685  -20.4814   20.6564 C   0  0  0  0  0  0
  -28.3013  -19.6552   21.9515 C   0  0  0  0  0  0
  -30.1087  -18.1000   21.3585 C   0  0  0  0  0  0
  -28.9117  -20.7397   21.2401 C   0  0  0  0  0  0
  -28.8876  -18.3562   22.0357 C   0  0  0  0  0  0
  -27.3554  -23.7179   18.9457 C   0  0  0  0  0  0
  -28.2898  -24.2241   19.7725 C   0  0  0  0  0  0
  -30.8552  -16.7748   21.3713 C   0  0  0  0  0  0
  -26.6951  -22.3732   19.1460 C   0  0  0  0  0  0
  -28.8717  -23.3356   20.9162 C   0  0  0  0  0  0
  -26.8598  -21.8667   20.5948 C   0  0  0  0  0  0
  -28.8651  -25.6372   19.5041 C   0  0  0  0  0  0
  -28.2387  -21.9895   21.0588 N   0  0  0  0  0  0
  -28.2624  -17.3598   22.8083 N   0  0  0  0  0  0
  -30.1982  -15.6211   21.0613 N   0  0  0  0  0  0
  -32.0624  -16.8227   21.6392 O   0  0  0  0  0  0
  -31.4552  -12.3738   19.1675 H   0  0  0  0  0  0
  -30.2763  -11.3392   19.9099 H   0  0  0  0  0  0
  -29.7595  -11.7833   17.4641 H   0  0  0  0  0  0
  -29.6341  -13.4971   17.8192 H   0  0  0  0  0  0
  -27.9152  -11.2513   18.9298 H   0  0  0  0  0  0
  -27.3538  -12.4800   17.8252 H   0  0  0  0  0  0
  -27.6620  -14.2342   19.4878 H   0  0  0  0  0  0
  -28.6695  -12.1299   21.4685 H   0  0  0  0  0  0
  -28.4507  -13.8284   21.7965 H   0  0  0  0  0  0
  -25.2753   -9.5722   22.4762 H   0  0  0  0  0  0
  -24.0063   -7.4624   22.7409 H   0  0  0  0  0  0
  -21.0896   -8.8795   19.8864 H   0  0  0  0  0  0
  -22.3732  -10.9734   19.6160 H   0  0  0  0  0  0
  -21.1977   -7.6161   23.9755 H   0  0  0  0  0  0
  -21.1472   -6.0528   25.9099 H   0  0  0  0  0  0
  -22.0590   -2.7654   23.2829 H   0  0  0  0  0  0
  -22.4120  -11.9807   22.4732 H   0  0  0  0  0  0
  -21.1155  -13.1213   22.2619 H   0  0  0  0  0  0
  -24.6966  -15.8676   20.4971 H   0  0  0  0  0  0
  -26.3271  -15.6143   20.1546 H   0  0  0  0  0  0
  -26.7063  -32.5687   23.1230 H   0  0  0  0  0  0
  -24.9789  -33.9898   25.0401 H   0  0  0  0  0  0
  -22.6666  -31.2940   21.4287 H   0  0  0  0  0  0
  -23.3692  -35.9767   23.3282 H   0  0  0  0  0  0
  -24.3517  -36.9076   22.2034 H   0  0  0  0  0  0
  -23.7309  -37.6636   23.6696 H   0  0  0  0  0  0
  -25.9745  -31.6055   20.5517 H   0  0  0  0  0  0
  -26.8032  -30.9488   21.9436 H   0  0  0  0  0  0
  -28.0438  -29.0963   21.2831 H   0  0  0  0  0  0
  -26.1153  -25.9982   18.9881 H   0  0  0  0  0  0
  -24.0331  -27.3309   18.9461 H   0  0  0  0  0  0
  -23.7084  -30.6161   19.4159 H   0  0  0  0  0  0
  -22.7166  -29.2567   19.8647 H   0  0  0  0  0  0
  -25.1276  -36.1986   25.0832 H   0  0  0  0  0  0
  -20.9942  -28.3211   24.1589 H   0  0  0  0  0  0
  -20.5920  -26.2239   23.3689 H   0  0  0  0  0  0
  -21.6680  -26.7538   22.1199 H   0  0  0  0  0  0
  -19.7038  -25.6256   21.1352 H   0  0  0  0  0  0
  -19.6770  -27.3145   20.6851 H   0  0  0  0  0  0
  -17.4223  -26.6641   21.4028 H   0  0  0  0  0  0
  -18.0282  -26.0040   22.8997 H   0  0  0  0  0  0
  -19.7872  -30.7337   24.2289 H   0  0  0  0  0  0
  -17.4948  -31.6254   24.5164 H   0  0  0  0  0  0
  -15.5359  -30.2935   23.7592 H   0  0  0  0  0  0
  -15.8675  -28.0829   22.6959 H   0  0  0  0  0  0
  -24.5903  -30.7093   25.7944 H   0  0  0  0  0  0
  -24.8978  -32.2880   26.5075 H   0  0  0  0  0  0
  -25.8163  -30.8900   27.0284 H   0  0  0  0  0  0
  -26.2670  -29.6959   24.1076 H   0  0  0  0  0  0
  -27.4099  -29.7305   25.4325 H   0  0  0  0  0  0
  -27.8462  -30.4537   23.8979 H   0  0  0  0  0  0
  -27.2622  -33.3595   26.2196 H   0  0  0  0  0  0
  -28.3777  -32.6988   25.0323 H   0  0  0  0  0  0
  -28.0722  -31.8419   26.5376 H   0  0  0  0  0  0
  -28.2586  -38.0149   24.7461 H   0  0  0  0  0  0
  -28.1087  -36.2689   24.6259 H   0  0  0  0  0  0
  -27.2320  -37.1526   25.8847 H   0  0  0  0  0  0
  -20.9198  -29.8713   21.7118 H   0  0  0  0  0  0
  -26.0158  -38.2925   24.1381 H   0  0  0  0  0  0
  -31.6840  -19.0145   20.2120 H   0  0  0  0  0  0
  -30.7083  -21.2569   20.1343 H   0  0  0  0  0  0
  -27.3557  -19.8153   22.4459 H   0  0  0  0  0  0
  -27.0088  -24.2889   18.0943 H   0  0  0  0  0  0
  -27.0772  -21.6448   18.4281 H   0  0  0  0  0  0
  -25.6366  -22.4985   18.9167 H   0  0  0  0  0  0
  -28.7511  -23.8883   21.8542 H   0  0  0  0  0  0
  -29.9462  -23.2313   20.7798 H   0  0  0  0  0  0
  -26.4974  -20.8403   20.6322 H   0  0  0  0  0  0
  -26.2549  -22.4545   21.2852 H   0  0  0  0  0  0
  -28.7425  -25.9503   18.4686 H   0  0  0  0  0  0
  -29.9407  -25.5951   19.6708 H   0  0  0  0  0  0
  -27.4915  -17.6065   23.4227 H   0  0  0  0  0  0
  -28.8594  -16.6687   23.2530 H   0  0  0  0  0  0
  -29.1932  -15.6401   21.0993 H   0  0  0  0  0  0
  1 25  1  0  0  0
  1 30  2  0  0  0
  1 86  1  0  0  0
  2  3  1  0  0  0
  2 25  1  0  0  0
  2 88  1  0  0  0
  2 89  1  0  0  0
  3  4  1  0  0  0
  3 90  1  0  0  0
  3 91  1  0  0  0
  4  5  1  0  0  0
  4 92  1  0  0  0
  4 93  1  0  0  0
  5  6  1  0  0  0
  5 26  1  0  0  0
  5 94  1  0  0  0
  6 25  1  0  0  0
  6 95  1  0  0  0
  6 96  1  0  0  0
  7  8  2  0  0  0
  7 26  1  0  0  0
  7 29  1  0  0  0
  8  9  1  0  0  0
  8 22  1  0  0  0
  9 10  1  0  0  0
  9 27  2  0  0  0
 10 11  2  0  0  0
 10 15  1  0  0  0
 11 12  1  0  0  0
 11 97  1  0  0  0
 12 13  2  0  0  0
 12 98  1  0  0  0
 13 14  1  0  0  0
 13 31  1  0  0  0
 14 15  2  0  0  0
 14 99  1  0  0  0
 15100  1  0  0  0
 16 17  2  0  0  0
 16 21  1  0  0  0
 16 31  1  0  0  0
 17 18  1  0  0  0
 17101  1  0  0  0
 18 19  2  0  0  0
 18102  1  0  0  0
 19 20  1  0  0  0
 19 24  1  0  0  0
 20 21  2  0  0  0
 20103  1  0  0  0
 21 23  1  0  0  0
 22 28  1  0  0  0
 22 32  2  0  0  0
 26 27  1  0  0  0
 28104  1  0  0  0
 28105  1  0  0  0
 29106  1  0  0  0
 29107  1  0  0  0
 33 34  1  0  0  0
 33 66  1  0  0  0
 33 70  2  0  0  0
 34 36  1  0  0  0
 34 59  1  0  0  0
 34108  1  0  0  0
 35 44  2  0  0  0
 35 45  1  0  0  0
 35 68  1  0  0  0
 36 56  1  0  0  0
 36109  1  0  0  0
 37 39  1  0  0  0
 37 47  1  0  0  0
 37 66  1  0  0  0
 37110  1  0  0  0
 38 43  2  0  0  0
 38 46  1  0  0  0
 38 47  1  0  0  0
 39 64  1  0  0  0
 39 67  2  0  0  0
 40 52  1  0  0  0
 40 53  2  0  0  0
 40 58  1  0  0  0
 41111  1  0  0  0
 41112  1  0  0  0
 41113  1  0  0  0
 41 48  1  0  0  0
 42 43  1  0  0  0
 42 66  1  0  0  0
 42114  1  0  0  0
 42115  1  0  0  0
 43 44  1  0  0  0
 44116  1  0  0  0
 45 46  2  0  0  0
 45117  1  0  0  0
 46118  1  0  0  0
 47119  1  0  0  0
 47120  1  0  0  0
 48 56  1  0  0  0
 48 65  1  0  0  0
 48121  1  0  0  0
 49 50  1  0  0  0
 49 53  1  0  0  0
 49 64  1  0  0  0
 49122  1  0  0  0
 50 51  1  0  0  0
 50123  1  0  0  0
 50124  1  0  0  0
 51 52  1  0  0  0
 51125  1  0  0  0
 51126  1  0  0  0
 52127  1  0  0  0
 52128  1  0  0  0
 53 54  1  0  0  0
 54 55  2  0  0  0
 54129  1  0  0  0
 55 57  1  0  0  0
 55130  1  0  0  0
 56 69  2  0  0  0
 57 58  2  0  0  0
 57131  1  0  0  0
 58132  1  0  0  0
 59 60  1  0  0  0
 59 61  1  0  0  0
 59 62  1  0  0  0
 60133  1  0  0  0
 60134  1  0  0  0
 60135  1  0  0  0
 61136  1  0  0  0
 61137  1  0  0  0
 61138  1  0  0  0
 62139  1  0  0  0
 62140  1  0  0  0
 62141  1  0  0  0
 63 65  1  0  0  0
 63142  1  0  0  0
 63143  1  0  0  0
 63144  1  0  0  0
 64145  1  0  0  0
 65146  1  0  0  0
 68 83  1  0  0  0
 71 72  2  0  0  0
 71 74  1  0  0  0
 71147  1  0  0  0
 72 75  1  0  0  0
 72148  1  0  0  0
 73 75  2  0  0  0
 73 76  1  0  0  0
 73149  1  0  0  0
 74 76  2  0  0  0
 74 79  1  0  0  0
 75 84  1  0  0  0
 76 85  1  0  0  0
 77 78  2  0  0  0
 77 80  1  0  0  0
 77150  1  0  0  0
 78 81  1  0  0  0
 78 83  1  0  0  0
 79 86  1  0  0  0
 79 87  2  0  0  0
 80 82  1  0  0  0
 80151  1  0  0  0
 80152  1  0  0  0
 81 84  1  0  0  0
 81153  1  0  0  0
 81154  1  0  0  0
 82 84  1  0  0  0
 82155  1  0  0  0
 82156  1  0  0  0
 83157  1  0  0  0
 83158  1  0  0  0
 85159  1  0  0  0
 85160  1  0  0  0
 86161  1  0  0  0
M  ISO  4   1 100  68 101  83 101  86 100
M  END
> <chiral flag>
0

> <version>
0

> <s_m_source_file>
/data/baiqing/PycharmProjects/Reinvent-master-3.2/result/LINK_invent/BTK/process_docking_weight1_custom_product_contain_oxygen_bond_distance_aromatic_linkinvent_7_9_3/rearranged_h_0075.sdf

> <i_m_source_file_index>
82

> <r_mmod_Potential_Energy-OPLS-2005>
125.115058898926

> <r_mmod_Stretch_Energy-OPLS-2005>
56.2585716247559

> <r_mmod_Bend_Energy-OPLS-2005>
154.764205932617

> <r_mmod_Torsional_Energy-OPLS-2005>
241.903335571289

> <r_mmod_Improper_Torsional_Energy-OPLS-2005>
9.05560970306396

> <r_mmod_Van_der_Waal_Energy-OPLS-2005>
170.372589111328

> <r_mmod_Electrostatic_Energy-OPLS-2005>
-301.810638427734

> <r_mmod_Solvation_Energy-OPLS-2005>
-239.614654541016

> <b_mmod_Minimization_Converged-OPLS-2005>
0

> <r_mmod_RMS_Derivative-OPLS-2005>
8.43007278442383

$$$$
83
                    3D
 Structure written by MMmdl.
157166  0  0  1  0            999 V2000
  -30.5944  -14.8759   20.3791 C   0  0  0  0  0  0
  -30.4391  -12.5248   19.4846 C   0  0  0  0  0  0
  -29.5181  -12.4376   18.2474 C   0  0  0  0  0  0
  -28.0416  -12.2847   18.6682 C   0  0  0  0  0  0
  -27.6254  -13.2242   19.8328 C   0  0  2  0  0  0
  -28.6802  -13.2729   20.9577 C   0  0  0  0  0  0
  -25.2493  -13.8157   20.5747 C   0  0  0  0  0  0
  -24.1777  -13.0416   20.9234 C   0  0  0  0  0  0
  -24.6363  -11.6892   20.8779 C   0  0  0  0  0  0
  -23.9040  -10.4280   21.0426 C   0  0  0  0  0  0
  -24.3597   -9.4192   21.9196 C   0  0  0  0  0  0
  -23.6280   -8.2226   22.0753 C   0  0  0  0  0  0
  -22.4263   -8.0273   21.3542 C   0  0  0  0  0  0
  -21.9896   -9.0243   20.4644 C   0  0  0  0  0  0
  -22.7218  -10.2125   20.3063 C   0  0  0  0  0  0
  -21.6844   -6.0729   22.5280 C   0  0  0  0  0  0
  -21.4008   -6.5634   23.8213 C   0  0  0  0  0  0
  -21.3658   -5.6790   24.9174 C   0  0  0  0  0  0
  -21.6044   -4.3052   24.7225 C   0  0  0  0  0  0
  -21.8821   -3.8142   23.4344 C   0  0  0  0  0  0
  -21.9188   -4.6960   22.3400 C   0  0  0  0  0  0
  -22.7805  -13.5211   21.1880 C   0  0  0  0  0  0
  -22.1661   -4.2149   21.0978 F   0  0  0  0  0  0
  -21.5626   -3.4538   25.7736 F   0  0  0  0  0  0
  -29.9568  -13.6430   20.3339 N   0  0  0  0  0  0
  -26.2884  -12.9327   20.3298 N   0  0  0  0  0  0
  -25.9290  -11.6486   20.5796 N   0  0  0  0  0  0
  -22.0441  -12.8215   22.0435 N   0  0  0  0  0  0
  -25.4214  -15.1888   20.4204 N   0  0  0  0  0  0
  -31.8212  -14.8931   20.2384 O   0  0  0  0  0  0
  -21.6626   -6.8870   21.4241 O   0  0  0  0  0  0
  -22.3502  -14.5517   20.6719 O   0  0  0  0  0  0
  -24.6371  -31.8512   23.1956 C   0  0  0  0  0  0
  -25.9170  -32.4736   23.8321 C   0  0  1  0  0  0
  -27.2192  -27.2071   20.1418 C   0  0  0  0  0  0
  -25.5944  -33.8539   24.2241 N   0  0  0  0  0  0
  -23.4380  -30.4727   21.5395 C   0  0  2  0  0  0
  -24.8883  -28.9135   20.1119 C   0  0  0  0  0  0
  -22.7540  -29.4582   22.4888 C   0  0  0  0  0  0
  -18.0300  -28.1392   22.8478 C   0  0  0  0  0  0
  -24.1490  -36.7272   23.2643 C   0  0  0  0  0  0
  -25.9892  -30.7457   21.3869 C   0  0  0  0  0  0
  -26.0624  -29.3624   20.7319 C   0  0  0  0  0  0
  -27.2309  -28.5213   20.7395 C   0  0  0  0  0  0
  -26.0249  -26.8517   19.4750 C   0  0  0  0  0  0
  -24.8772  -27.6668   19.4715 C   0  0  0  0  0  0
  -23.6618  -29.8069   20.1568 C   0  0  0  0  0  0
  -25.4119  -36.3060   24.0326 C   0  0  1  0  0  0
  -20.5909  -28.3714   23.1245 C   0  0  2  0  0  0
  -20.6784  -26.9423   22.5402 C   0  0  0  0  0  0
  -19.5757  -26.6382   21.5208 C   0  0  0  0  0  0
  -18.1940  -26.7930   22.1622 C   0  0  0  0  0  0
  -19.1555  -28.8869   23.2857 C   0  0  0  0  0  0
  -18.9472  -30.1464   23.8884 C   0  0  0  0  0  0
  -17.6469  -30.6591   24.0558 C   0  0  0  0  0  0
  -25.9061  -34.9429   23.5088 C   0  0  0  0  0  0
  -16.5361  -29.9086   23.6330 C   0  0  0  0  0  0
  -16.7284  -28.6502   23.0355 C   0  0  0  0  0  0
  -26.4513  -31.6578   25.0735 C   0  0  0  0  0  0
  -25.3710  -31.3740   26.1440 C   0  0  0  0  0  0
  -27.0372  -30.2985   24.6265 C   0  0  0  0  0  0
  -27.6062  -32.4328   25.7510 C   0  0  0  0  0  0
  -27.5575  -37.1799   24.8468 C   0  0  0  0  0  0
  -21.4241  -29.3052   22.3629 N   0  0  0  0  0  0
  -26.4291  -37.3762   23.9406 N   0  0  0  0  0  0
  -24.7074  -31.0423   22.0966 N   0  0  0  0  0  0
  -23.4209  -28.8124   23.3012 O   0  0  0  0  0  0
  -28.2673  -26.2357   20.1730 O   0  0  0  0  0  0
  -26.5638  -34.8912   22.4661 O   0  0  0  0  0  0
  -23.5502  -32.1364   23.7205 O   0  0  0  0  0  0
  -31.0583  -18.7601   22.6192 C   0  0  0  0  0  0
  -30.5610  -19.9724   22.0961 C   0  0  0  0  0  0
  -30.8199  -17.5216   21.9988 C   0  0  0  0  0  0
  -29.5507  -18.7458   20.3201 C   0  0  0  0  0  0
  -29.7733  -20.0765   20.9196 C   0  0  0  0  0  0
  -30.0685  -17.4434   20.8109 C   0  0  0  0  0  0
  -28.4413  -22.1955   19.7009 C   0  0  0  0  0  0
  -28.0058  -24.7841   20.5242 C   0  0  0  0  0  0
  -29.6775  -22.7067   21.2772 C   0  0  0  0  0  0
  -29.0765  -23.6276   20.1346 C   0  0  1  0  0  0
  -30.0339  -24.1404   19.0478 C   0  0  0  0  0  0
  -29.1720  -16.1777   18.8895 C   0  0  0  0  0  0
  -29.3579  -21.4789   20.5081 N   0  0  0  0  0  0
  -29.8602  -16.0803   20.1826 N   0  0  0  0  0  0
  -27.5470  -21.7956   18.9830 O   0  0  0  0  0  0
  -26.9655  -24.5062   21.1274 O   0  0  0  0  0  0
  -31.4739  -12.6660   19.1674 H   0  0  0  0  0  0
  -30.4219  -11.5890   20.0455 H   0  0  0  0  0  0
  -29.8098  -11.5841   17.6338 H   0  0  0  0  0  0
  -29.6495  -13.3070   17.6064 H   0  0  0  0  0  0
  -27.9084  -11.2471   18.9769 H   0  0  0  0  0  0
  -27.3847  -12.4288   17.8097 H   0  0  0  0  0  0
  -27.5601  -14.2137   19.3961 H   0  0  0  0  0  0
  -28.7571  -12.3144   21.4738 H   0  0  0  0  0  0
  -28.3997  -14.0137   21.7086 H   0  0  0  0  0  0
  -25.2738   -9.5672   22.4775 H   0  0  0  0  0  0
  -23.9991   -7.4611   22.7464 H   0  0  0  0  0  0
  -21.0830   -8.8756   19.8946 H   0  0  0  0  0  0
  -22.3674  -10.9666   19.6176 H   0  0  0  0  0  0
  -21.2004   -7.6145   23.9716 H   0  0  0  0  0  0
  -21.1476   -6.0517   25.9077 H   0  0  0  0  0  0
  -22.0602   -2.7606   23.2842 H   0  0  0  0  0  0
  -22.4049  -11.9884   22.4847 H   0  0  0  0  0  0
  -21.1055  -13.1249   22.2626 H   0  0  0  0  0  0
  -24.6618  -15.8481   20.5482 H   0  0  0  0  0  0
  -26.2891  -15.6313   20.1459 H   0  0  0  0  0  0
  -26.7237  -32.5371   23.1060 H   0  0  0  0  0  0
  -25.0077  -33.9664   25.0378 H   0  0  0  0  0  0
  -22.7380  -31.2972   21.3896 H   0  0  0  0  0  0
  -23.3752  -35.9603   23.3310 H   0  0  0  0  0  0
  -24.3578  -36.8891   22.2055 H   0  0  0  0  0  0
  -23.7241  -37.6475   23.6663 H   0  0  0  0  0  0
  -26.1348  -31.5014   20.6140 H   0  0  0  0  0  0
  -26.8643  -30.7975   22.0233 H   0  0  0  0  0  0
  -28.1262  -28.8564   21.2442 H   0  0  0  0  0  0
  -25.9587  -25.8949   18.9772 H   0  0  0  0  0  0
  -23.9817  -27.3182   18.9754 H   0  0  0  0  0  0
  -23.7935  -30.5830   19.4019 H   0  0  0  0  0  0
  -22.7789  -29.2445   19.8474 H   0  0  0  0  0  0
  -25.1303  -36.1907   25.0817 H   0  0  0  0  0  0
  -21.0000  -28.3297   24.1366 H   0  0  0  0  0  0
  -20.5673  -26.2328   23.3615 H   0  0  0  0  0  0
  -21.6654  -26.7433   22.1204 H   0  0  0  0  0  0
  -19.6921  -25.6289   21.1248 H   0  0  0  0  0  0
  -19.6690  -27.3181   20.6727 H   0  0  0  0  0  0
  -17.4207  -26.6671   21.4030 H   0  0  0  0  0  0
  -18.0346  -26.0079   22.9026 H   0  0  0  0  0  0
  -19.7948  -30.7282   24.2253 H   0  0  0  0  0  0
  -17.5024  -31.6269   24.5162 H   0  0  0  0  0  0
  -15.5361  -30.2982   23.7661 H   0  0  0  0  0  0
  -15.8687  -28.0812   22.7083 H   0  0  0  0  0  0
  -24.5897  -30.7084   25.7757 H   0  0  0  0  0  0
  -24.8888  -32.2906   26.4841 H   0  0  0  0  0  0
  -25.8004  -30.8928   27.0236 H   0  0  0  0  0  0
  -26.2975  -29.6725   24.1265 H   0  0  0  0  0  0
  -27.4002  -29.7267   25.4815 H   0  0  0  0  0  0
  -27.8875  -30.4249   23.9564 H   0  0  0  0  0  0
  -27.2678  -33.3645   26.2056 H   0  0  0  0  0  0
  -28.3887  -32.6858   25.0344 H   0  0  0  0  0  0
  -28.0716  -31.8472   26.5451 H   0  0  0  0  0  0
  -28.2602  -38.0088   24.7502 H   0  0  0  0  0  0
  -28.1063  -36.2616   24.6313 H   0  0  0  0  0  0
  -27.2290  -37.1475   25.8871 H   0  0  0  0  0  0
  -20.9442  -29.8771   21.6820 H   0  0  0  0  0  0
  -26.0169  -38.2837   24.1393 H   0  0  0  0  0  0
  -31.6476  -18.7851   23.5251 H   0  0  0  0  0  0
  -30.8142  -20.8616   22.6534 H   0  0  0  0  0  0
  -31.2337  -16.6323   22.4532 H   0  0  0  0  0  0
  -28.9564  -18.7432   19.4189 H   0  0  0  0  0  0
  -29.1272  -22.7629   22.2198 H   0  0  0  0  0  0
  -30.7449  -22.8634   21.4387 H   0  0  0  0  0  0
  -29.5568  -24.8512   18.3727 H   0  0  0  0  0  0
  -30.4203  -23.3318   18.4262 H   0  0  0  0  0  0
  -30.8954  -24.6380   19.4920 H   0  0  0  0  0  0
  -29.6697  -16.9073   18.2499 H   0  0  0  0  0  0
  -28.1387  -16.4961   19.0290 H   0  0  0  0  0  0
  -29.1607  -15.2593   18.3116 H   0  0  0  0  0  0
  1 25  1  0  0  0
  1 30  2  0  0  0
  1 84  1  0  0  0
  2  3  1  0  0  0
  2 25  1  0  0  0
  2 87  1  0  0  0
  2 88  1  0  0  0
  3  4  1  0  0  0
  3 89  1  0  0  0
  3 90  1  0  0  0
  4  5  1  0  0  0
  4 91  1  0  0  0
  4 92  1  0  0  0
  5  6  1  0  0  0
  5 26  1  0  0  0
  5 93  1  0  0  0
  6 25  1  0  0  0
  6 94  1  0  0  0
  6 95  1  0  0  0
  7  8  2  0  0  0
  7 26  1  0  0  0
  7 29  1  0  0  0
  8  9  1  0  0  0
  8 22  1  0  0  0
  9 10  1  0  0  0
  9 27  2  0  0  0
 10 11  2  0  0  0
 10 15  1  0  0  0
 11 12  1  0  0  0
 11 96  1  0  0  0
 12 13  2  0  0  0
 12 97  1  0  0  0
 13 14  1  0  0  0
 13 31  1  0  0  0
 14 15  2  0  0  0
 14 98  1  0  0  0
 15 99  1  0  0  0
 16 17  2  0  0  0
 16 21  1  0  0  0
 16 31  1  0  0  0
 17 18  1  0  0  0
 17100  1  0  0  0
 18 19  2  0  0  0
 18101  1  0  0  0
 19 20  1  0  0  0
 19 24  1  0  0  0
 20 21  2  0  0  0
 20102  1  0  0  0
 21 23  1  0  0  0
 22 28  1  0  0  0
 22 32  2  0  0  0
 26 27  1  0  0  0
 28103  1  0  0  0
 28104  1  0  0  0
 29105  1  0  0  0
 29106  1  0  0  0
 33 34  1  0  0  0
 33 66  1  0  0  0
 33 70  2  0  0  0
 34 36  1  0  0  0
 34 59  1  0  0  0
 34107  1  0  0  0
 35 44  2  0  0  0
 35 45  1  0  0  0
 35 68  1  0  0  0
 36 56  1  0  0  0
 36108  1  0  0  0
 37 39  1  0  0  0
 37 47  1  0  0  0
 37 66  1  0  0  0
 37109  1  0  0  0
 38 43  2  0  0  0
 38 46  1  0  0  0
 38 47  1  0  0  0
 39 64  1  0  0  0
 39 67  2  0  0  0
 40 52  1  0  0  0
 40 53  2  0  0  0
 40 58  1  0  0  0
 41110  1  0  0  0
 41111  1  0  0  0
 41112  1  0  0  0
 41 48  1  0  0  0
 42 43  1  0  0  0
 42 66  1  0  0  0
 42113  1  0  0  0
 42114  1  0  0  0
 43 44  1  0  0  0
 44115  1  0  0  0
 45 46  2  0  0  0
 45116  1  0  0  0
 46117  1  0  0  0
 47118  1  0  0  0
 47119  1  0  0  0
 48 56  1  0  0  0
 48 65  1  0  0  0
 48120  1  0  0  0
 49 50  1  0  0  0
 49 53  1  0  0  0
 49 64  1  0  0  0
 49121  1  0  0  0
 50 51  1  0  0  0
 50122  1  0  0  0
 50123  1  0  0  0
 51 52  1  0  0  0
 51124  1  0  0  0
 51125  1  0  0  0
 52126  1  0  0  0
 52127  1  0  0  0
 53 54  1  0  0  0
 54 55  2  0  0  0
 54128  1  0  0  0
 55 57  1  0  0  0
 55129  1  0  0  0
 56 69  2  0  0  0
 57 58  2  0  0  0
 57130  1  0  0  0
 58131  1  0  0  0
 59 60  1  0  0  0
 59 61  1  0  0  0
 59 62  1  0  0  0
 60132  1  0  0  0
 60133  1  0  0  0
 60134  1  0  0  0
 61135  1  0  0  0
 61136  1  0  0  0
 61137  1  0  0  0
 62138  1  0  0  0
 62139  1  0  0  0
 62140  1  0  0  0
 63 65  1  0  0  0
 63141  1  0  0  0
 63142  1  0  0  0
 63143  1  0  0  0
 64144  1  0  0  0
 65145  1  0  0  0
 68 78  1  0  0  0
 71 72  2  0  0  0
 71 73  1  0  0  0
 71146  1  0  0  0
 72 75  1  0  0  0
 72147  1  0  0  0
 73 76  2  0  0  0
 73148  1  0  0  0
 74 75  2  0  0  0
 74 76  1  0  0  0
 74149  1  0  0  0
 75 83  1  0  0  0
 76 84  1  0  0  0
 77 80  1  0  0  0
 77 83  1  0  0  0
 77 85  2  0  0  0
 78 86  2  0  0  0
 78 80  1  0  0  0
 79 80  1  0  0  0
 79 83  1  0  0  0
 79150  1  0  0  0
 79151  1  0  0  0
 80 81  1  0  0  0
 81152  1  0  0  0
 81153  1  0  0  0
 81154  1  0  0  0
 82 84  1  0  0  0
 82155  1  0  0  0
 82156  1  0  0  0
 82157  1  0  0  0
M  ISO  4   1 100  68 101  78 101  84 100
M  END
> <chiral flag>
0

> <version>
0

> <s_m_source_file>
/data/baiqing/PycharmProjects/Reinvent-master-3.2/result/LINK_invent/BTK/process_docking_weight1_custom_product_contain_oxygen_bond_distance_aromatic_linkinvent_7_9_3/rearranged_h_0075.sdf

> <i_m_source_file_index>
83

> <r_mmod_Potential_Energy-OPLS-2005>
553.297607421875

> <r_mmod_Stretch_Energy-OPLS-2005>
199.414108276367

> <r_mmod_Bend_Energy-OPLS-2005>
228.820358276367

> <r_mmod_Torsional_Energy-OPLS-2005>
310.578674316406

> <r_mmod_Improper_Torsional_Energy-OPLS-2005>
12.828462600708

> <r_mmod_Van_der_Waal_Energy-OPLS-2005>
145.846328735352

> <r_mmod_Electrostatic_Energy-OPLS-2005>
-274.118774414062

> <r_mmod_Solvation_Energy-OPLS-2005>
-219.857666015625

> <b_mmod_Minimization_Converged-OPLS-2005>
0

> <r_mmod_RMS_Derivative-OPLS-2005>
0.887007057666779

$$$$
84
                    3D
 Structure written by MMmdl.
161170  0  0  1  0            999 V2000
  -30.6057  -14.7381   20.4405 C   0  0  0  0  0  0
  -30.4326  -12.4412   19.4859 C   0  0  0  0  0  0
  -29.5177  -12.5139   18.2434 C   0  0  0  0  0  0
  -28.0411  -12.3461   18.6486 C   0  0  0  0  0  0
  -27.6493  -13.2335   19.8610 C   0  0  2  0  0  0
  -28.6910  -13.1513   20.9982 C   0  0  0  0  0  0
  -25.2551  -13.8214   20.5731 C   0  0  0  0  0  0
  -24.1823  -13.0463   20.9202 C   0  0  0  0  0  0
  -24.6400  -11.6929   20.8739 C   0  0  0  0  0  0
  -23.9060  -10.4307   21.0402 C   0  0  0  0  0  0
  -24.3617   -9.4224   21.9170 C   0  0  0  0  0  0
  -23.6293   -8.2255   22.0745 C   0  0  0  0  0  0
  -22.4267   -8.0289   21.3542 C   0  0  0  0  0  0
  -21.9904   -9.0269   20.4641 C   0  0  0  0  0  0
  -22.7238  -10.2150   20.3047 C   0  0  0  0  0  0
  -21.6857   -6.0741   22.5269 C   0  0  0  0  0  0
  -21.4028   -6.5646   23.8208 C   0  0  0  0  0  0
  -21.3659   -5.6790   24.9166 C   0  0  0  0  0  0
  -21.6038   -4.3053   24.7208 C   0  0  0  0  0  0
  -21.8823   -3.8152   23.4331 C   0  0  0  0  0  0
  -21.9201   -4.6970   22.3391 C   0  0  0  0  0  0
  -22.7840  -13.5256   21.1840 C   0  0  0  0  0  0
  -22.1668   -4.2170   21.0963 F   0  0  0  0  0  0
  -21.5612   -3.4525   25.7718 F   0  0  0  0  0  0
  -29.9965  -13.5021   20.4246 N   0  0  0  0  0  0
  -26.2979  -12.9421   20.3329 N   0  0  0  0  0  0
  -25.9339  -11.6557   20.5757 N   0  0  0  0  0  0
  -22.0473  -12.8263   22.0402 N   0  0  0  0  0  0
  -25.4327  -15.1933   20.4208 N   0  0  0  0  0  0
  -31.7852  -14.8383   20.0867 O   0  0  0  0  0  0
  -21.6643   -6.8885   21.4233 O   0  0  0  0  0  0
  -22.3532  -14.5554   20.6673 O   0  0  0  0  0  0
  -24.6320  -31.8546   23.2001 C   0  0  0  0  0  0
  -25.9154  -32.4742   23.8336 C   0  0  1  0  0  0
  -27.1919  -27.2404   20.1226 C   0  0  0  0  0  0
  -25.5935  -33.8544   24.2257 N   0  0  0  0  0  0
  -23.4289  -30.4817   21.5460 C   0  0  2  0  0  0
  -24.8702  -28.9358   20.1067 C   0  0  0  0  0  0
  -22.7511  -29.4589   22.4897 C   0  0  0  0  0  0
  -18.0290  -28.1405   22.8478 C   0  0  0  0  0  0
  -24.1489  -36.7291   23.2641 C   0  0  0  0  0  0
  -25.9807  -30.7557   21.3911 C   0  0  0  0  0  0
  -26.0457  -29.3824   20.7250 C   0  0  0  0  0  0
  -27.2126  -28.5479   20.7233 C   0  0  0  0  0  0
  -26.0037  -26.8878   19.4453 C   0  0  0  0  0  0
  -24.8568  -27.6981   19.4538 C   0  0  0  0  0  0
  -23.6455  -29.8281   20.1579 C   0  0  0  0  0  0
  -25.4120  -36.3069   24.0323 C   0  0  1  0  0  0
  -20.5896  -28.3713   23.1256 C   0  0  2  0  0  0
  -20.6789  -26.9432   22.5394 C   0  0  0  0  0  0
  -19.5753  -26.6377   21.5210 C   0  0  0  0  0  0
  -18.1928  -26.7939   22.1616 C   0  0  0  0  0  0
  -19.1543  -28.8875   23.2855 C   0  0  0  0  0  0
  -18.9458  -30.1474   23.8871 C   0  0  0  0  0  0
  -17.6455  -30.6590   24.0567 C   0  0  0  0  0  0
  -25.9055  -34.9434   23.5096 C   0  0  0  0  0  0
  -16.5352  -29.9085   23.6340 C   0  0  0  0  0  0
  -16.7273  -28.6513   23.0351 C   0  0  0  0  0  0
  -26.4505  -31.6588   25.0739 C   0  0  0  0  0  0
  -25.3708  -31.3765   26.1448 C   0  0  0  0  0  0
  -27.0372  -30.2983   24.6300 C   0  0  0  0  0  0
  -27.6042  -32.4360   25.7515 C   0  0  0  0  0  0
  -27.5590  -37.1804   24.8459 C   0  0  0  0  0  0
  -21.4214  -29.3056   22.3638 N   0  0  0  0  0  0
  -26.4303  -37.3759   23.9390 N   0  0  0  0  0  0
  -24.6996  -31.0488   22.1007 N   0  0  0  0  0  0
  -23.4208  -28.8107   23.2986 O   0  0  0  0  0  0
  -28.2523  -26.3012   20.1726 O   0  0  0  0  0  0
  -26.5621  -34.8912   22.4664 O   0  0  0  0  0  0
  -23.5462  -32.1394   23.7274 O   0  0  0  0  0  0
  -30.4741  -18.6617   18.1965 C   0  0  0  0  0  0
  -29.9985  -19.8268   18.8331 C   0  0  0  0  0  0
  -30.4441  -17.4022   18.8307 C   0  0  0  0  0  0
  -29.4496  -18.4681   20.7747 C   0  0  0  0  0  0
  -29.4763  -19.7843   20.1426 C   0  0  0  0  0  0
  -29.9322  -17.2438   20.1404 C   0  0  0  0  0  0
  -29.8824  -23.2840   21.2303 C   0  0  0  0  0  0
  -30.1393  -21.7773   21.4304 C   0  0  0  0  0  0
  -28.2105  -22.0888   20.1074 C   0  0  0  0  0  0
  -28.8639  -23.5641   20.1220 C   0  0  2  0  0  0
  -28.6921  -23.9882   17.5482 C   0  0  0  0  0  0
  -29.6055  -23.8052   18.7804 C   0  0  0  0  0  0
  -27.9003  -24.8456   20.4243 C   0  0  0  0  0  0
  -29.0689  -21.0342   20.7603 N   0  0  0  0  0  0
  -29.8419  -15.8678   20.7091 N   0  0  0  0  0  0
  -30.4437  -24.1614   21.8921 O   0  0  0  0  0  0
  -31.4801  -12.5456   19.1949 H   0  0  0  0  0  0
  -30.3547  -11.4606   19.9605 H   0  0  0  0  0  0
  -29.7975  -11.7480   17.5196 H   0  0  0  0  0  0
  -29.6573  -13.4736   17.7448 H   0  0  0  0  0  0
  -27.8862  -11.2945   18.8933 H   0  0  0  0  0  0
  -27.3900  -12.5618   17.8007 H   0  0  0  0  0  0
  -27.6506  -14.2603   19.4946 H   0  0  0  0  0  0
  -28.7202  -12.1472   21.4240 H   0  0  0  0  0  0
  -28.4296  -13.8212   21.8186 H   0  0  0  0  0  0
  -25.2778   -9.5695   22.4728 H   0  0  0  0  0  0
  -24.0019   -7.4638   22.7448 H   0  0  0  0  0  0
  -21.0837   -8.8789   19.8927 H   0  0  0  0  0  0
  -22.3712  -10.9684   19.6142 H   0  0  0  0  0  0
  -21.2034   -7.6155   23.9723 H   0  0  0  0  0  0
  -21.1467   -6.0510   25.9071 H   0  0  0  0  0  0
  -22.0601   -2.7609   23.2818 H   0  0  0  0  0  0
  -22.4098  -11.9970   22.4861 H   0  0  0  0  0  0
  -21.1053  -13.1245   22.2521 H   0  0  0  0  0  0
  -24.6757  -15.8593   20.5317 H   0  0  0  0  0  0
  -26.2915  -15.6247   20.1047 H   0  0  0  0  0  0
  -26.7199  -32.5357   23.1049 H   0  0  0  0  0  0
  -25.0077  -33.9662   25.0396 H   0  0  0  0  0  0
  -22.7268  -31.3064   21.4062 H   0  0  0  0  0  0
  -23.3739  -35.9633   23.3295 H   0  0  0  0  0  0
  -24.3594  -36.8917   22.2061 H   0  0  0  0  0  0
  -23.7255  -37.6494   23.6671 H   0  0  0  0  0  0
  -26.1385  -31.5212   20.6310 H   0  0  0  0  0  0
  -26.8510  -30.7861   22.0358 H   0  0  0  0  0  0
  -28.1095  -28.8821   21.2253 H   0  0  0  0  0  0
  -25.9250  -25.9675   18.8881 H   0  0  0  0  0  0
  -23.9638  -27.3596   18.9463 H   0  0  0  0  0  0
  -23.7750  -30.6123   19.4103 H   0  0  0  0  0  0
  -22.7604  -29.2686   19.8474 H   0  0  0  0  0  0
  -25.1294  -36.1928   25.0813 H   0  0  0  0  0  0
  -20.9983  -28.3294   24.1379 H   0  0  0  0  0  0
  -20.5715  -26.2314   23.3599 H   0  0  0  0  0  0
  -21.6656  -26.7463   22.1173 H   0  0  0  0  0  0
  -19.6923  -25.6274   21.1259 H   0  0  0  0  0  0
  -19.6699  -27.3179   20.6736 H   0  0  0  0  0  0
  -17.4209  -26.6683   21.4013 H   0  0  0  0  0  0
  -18.0330  -26.0087   22.9018 H   0  0  0  0  0  0
  -19.7930  -30.7311   24.2216 H   0  0  0  0  0  0
  -17.5002  -31.6266   24.5185 H   0  0  0  0  0  0
  -15.5353  -30.2981   23.7675 H   0  0  0  0  0  0
  -15.8674  -28.0827   22.7074 H   0  0  0  0  0  0
  -24.5843  -30.7168   25.7759 H   0  0  0  0  0  0
  -24.8948  -32.2948   26.4890 H   0  0  0  0  0  0
  -25.7985  -30.8897   27.0212 H   0  0  0  0  0  0
  -26.2978  -29.6701   24.1309 H   0  0  0  0  0  0
  -27.3988  -29.7294   25.4872 H   0  0  0  0  0  0
  -27.8888  -30.4219   23.9610 H   0  0  0  0  0  0
  -27.2614  -33.3646   26.2093 H   0  0  0  0  0  0
  -28.3843  -32.6954   25.0347 H   0  0  0  0  0  0
  -28.0725  -31.8500   26.5425 H   0  0  0  0  0  0
  -28.2598  -38.0113   24.7497 H   0  0  0  0  0  0
  -28.1100  -36.2632   24.6290 H   0  0  0  0  0  0
  -27.2300  -37.1468   25.8865 H   0  0  0  0  0  0
  -20.9408  -29.8792   21.6850 H   0  0  0  0  0  0
  -26.0180  -38.2830   24.1376 H   0  0  0  0  0  0
  -30.8669  -18.7387   17.1933 H   0  0  0  0  0  0
  -30.0553  -20.7602   18.2951 H   0  0  0  0  0  0
  -30.7953  -16.5472   18.2693 H   0  0  0  0  0  0
  -29.0418  -18.3974   21.7732 H   0  0  0  0  0  0
  -30.1579  -21.5463   22.4967 H   0  0  0  0  0  0
  -31.1147  -21.5222   21.0134 H   0  0  0  0  0  0
  -27.9296  -21.7735   19.1040 H   0  0  0  0  0  0
  -27.2720  -22.1252   20.6655 H   0  0  0  0  0  0
  -29.2898  -24.1481   16.6503 H   0  0  0  0  0  0
  -28.0379  -24.8542   17.6540 H   0  0  0  0  0  0
  -28.0640  -23.1178   17.3558 H   0  0  0  0  0  0
  -30.2937  -22.9821   18.5872 H   0  0  0  0  0  0
  -30.2342  -24.6904   18.8776 H   0  0  0  0  0  0
  -27.6186  -24.8030   21.4767 H   0  0  0  0  0  0
  -26.9793  -24.5810   19.9137 H   0  0  0  0  0  0
  -28.9906  -15.6745   21.2167 H   0  0  0  0  0  0
  1 25  1  0  0  0
  1 30  2  0  0  0
  1 85  1  0  0  0
  2  3  1  0  0  0
  2 25  1  0  0  0
  2 87  1  0  0  0
  2 88  1  0  0  0
  3  4  1  0  0  0
  3 89  1  0  0  0
  3 90  1  0  0  0
  4  5  1  0  0  0
  4 91  1  0  0  0
  4 92  1  0  0  0
  5  6  1  0  0  0
  5 26  1  0  0  0
  5 93  1  0  0  0
  6 25  1  0  0  0
  6 94  1  0  0  0
  6 95  1  0  0  0
  7  8  2  0  0  0
  7 26  1  0  0  0
  7 29  1  0  0  0
  8  9  1  0  0  0
  8 22  1  0  0  0
  9 10  1  0  0  0
  9 27  2  0  0  0
 10 11  2  0  0  0
 10 15  1  0  0  0
 11 12  1  0  0  0
 11 96  1  0  0  0
 12 13  2  0  0  0
 12 97  1  0  0  0
 13 14  1  0  0  0
 13 31  1  0  0  0
 14 15  2  0  0  0
 14 98  1  0  0  0
 15 99  1  0  0  0
 16 17  2  0  0  0
 16 21  1  0  0  0
 16 31  1  0  0  0
 17 18  1  0  0  0
 17100  1  0  0  0
 18 19  2  0  0  0
 18101  1  0  0  0
 19 20  1  0  0  0
 19 24  1  0  0  0
 20 21  2  0  0  0
 20102  1  0  0  0
 21 23  1  0  0  0
 22 28  1  0  0  0
 22 32  2  0  0  0
 26 27  1  0  0  0
 28103  1  0  0  0
 28104  1  0  0  0
 29105  1  0  0  0
 29106  1  0  0  0
 33 34  1  0  0  0
 33 66  1  0  0  0
 33 70  2  0  0  0
 34 36  1  0  0  0
 34 59  1  0  0  0
 34107  1  0  0  0
 35 44  2  0  0  0
 35 45  1  0  0  0
 35 68  1  0  0  0
 36 56  1  0  0  0
 36108  1  0  0  0
 37 39  1  0  0  0
 37 47  1  0  0  0
 37 66  1  0  0  0
 37109  1  0  0  0
 38 43  2  0  0  0
 38 46  1  0  0  0
 38 47  1  0  0  0
 39 64  1  0  0  0
 39 67  2  0  0  0
 40 52  1  0  0  0
 40 53  2  0  0  0
 40 58  1  0  0  0
 41110  1  0  0  0
 41111  1  0  0  0
 41112  1  0  0  0
 41 48  1  0  0  0
 42 43  1  0  0  0
 42 66  1  0  0  0
 42113  1  0  0  0
 42114  1  0  0  0
 43 44  1  0  0  0
 44115  1  0  0  0
 45 46  2  0  0  0
 45116  1  0  0  0
 46117  1  0  0  0
 47118  1  0  0  0
 47119  1  0  0  0
 48 56  1  0  0  0
 48 65  1  0  0  0
 48120  1  0  0  0
 49 50  1  0  0  0
 49 53  1  0  0  0
 49 64  1  0  0  0
 49121  1  0  0  0
 50 51  1  0  0  0
 50122  1  0  0  0
 50123  1  0  0  0
 51 52  1  0  0  0
 51124  1  0  0  0
 51125  1  0  0  0
 52126  1  0  0  0
 52127  1  0  0  0
 53 54  1  0  0  0
 54 55  2  0  0  0
 54128  1  0  0  0
 55 57  1  0  0  0
 55129  1  0  0  0
 56 69  2  0  0  0
 57 58  2  0  0  0
 57130  1  0  0  0
 58131  1  0  0  0
 59 60  1  0  0  0
 59 61  1  0  0  0
 59 62  1  0  0  0
 60132  1  0  0  0
 60133  1  0  0  0
 60134  1  0  0  0
 61135  1  0  0  0
 61136  1  0  0  0
 61137  1  0  0  0
 62138  1  0  0  0
 62139  1  0  0  0
 62140  1  0  0  0
 63 65  1  0  0  0
 63141  1  0  0  0
 63142  1  0  0  0
 63143  1  0  0  0
 64144  1  0  0  0
 65145  1  0  0  0
 68 83  1  0  0  0
 71 72  2  0  0  0
 71 73  1  0  0  0
 71146  1  0  0  0
 72 75  1  0  0  0
 72147  1  0  0  0
 73 76  2  0  0  0
 73148  1  0  0  0
 74 75  2  0  0  0
 74 76  1  0  0  0
 74149  1  0  0  0
 75 84  1  0  0  0
 76 85  1  0  0  0
 77 78  1  0  0  0
 77 80  1  0  0  0
 77 86  2  0  0  0
 78 84  1  0  0  0
 78150  1  0  0  0
 78151  1  0  0  0
 79 80  1  0  0  0
 79 84  1  0  0  0
 79152  1  0  0  0
 79153  1  0  0  0
 80 82  1  0  0  0
 80 83  1  0  0  0
 81 82  1  0  0  0
 81154  1  0  0  0
 81155  1  0  0  0
 81156  1  0  0  0
 82157  1  0  0  0
 82158  1  0  0  0
 83159  1  0  0  0
 83160  1  0  0  0
 85161  1  0  0  0
M  ISO  4   1 100  68 101  83 101  85 100
M  END
> <chiral flag>
0

> <version>
0

> <s_m_source_file>
/data/baiqing/PycharmProjects/Reinvent-master-3.2/result/LINK_invent/BTK/process_docking_weight1_custom_product_contain_oxygen_bond_distance_aromatic_linkinvent_7_9_3/rearranged_h_0075.sdf

> <i_m_source_file_index>
84

> <r_mmod_Potential_Energy-OPLS-2005>
320.071502685547

> <r_mmod_Stretch_Energy-OPLS-2005>
127.937759399414

> <r_mmod_Bend_Energy-OPLS-2005>
192.187774658203

> <r_mmod_Torsional_Energy-OPLS-2005>
286.516754150391

> <r_mmod_Improper_Torsional_Energy-OPLS-2005>
8.59182548522949

> <r_mmod_Van_der_Waal_Energy-OPLS-2005>
134.99626159668

> <r_mmod_Electrostatic_Energy-OPLS-2005>
-283.189514160156

> <r_mmod_Solvation_Energy-OPLS-2005>
-239.810531616211

> <b_mmod_Minimization_Converged-OPLS-2005>
0

> <r_mmod_RMS_Derivative-OPLS-2005>
2.82750153541565

$$$$
85
                    3D
 Structure written by MMmdl.
151159  0  0  1  0            999 V2000
  -30.6278  -14.5931   20.5427 C   0  0  0  0  0  0
  -30.4460  -12.3762   19.4334 C   0  0  0  0  0  0
  -29.5074  -12.5122   18.2123 C   0  0  0  0  0  0
  -28.0290  -12.3551   18.6229 C   0  0  0  0  0  0
  -27.6588  -13.2060   19.8676 C   0  0  2  0  0  0
  -28.7035  -13.0166   20.9908 C   0  0  0  0  0  0
  -25.2583  -13.8157   20.5658 C   0  0  0  0  0  0
  -24.1827  -13.0447   20.9161 C   0  0  0  0  0  0
  -24.6370  -11.6910   20.8721 C   0  0  0  0  0  0
  -23.9037  -10.4304   21.0405 C   0  0  0  0  0  0
  -24.3591   -9.4225   21.9186 C   0  0  0  0  0  0
  -23.6263   -8.2265   22.0769 C   0  0  0  0  0  0
  -22.4251   -8.0293   21.3557 C   0  0  0  0  0  0
  -21.9866   -9.0257   20.4662 C   0  0  0  0  0  0
  -22.7202  -10.2136   20.3064 C   0  0  0  0  0  0
  -21.6855   -6.0723   22.5272 C   0  0  0  0  0  0
  -21.4022   -6.5629   23.8207 C   0  0  0  0  0  0
  -21.3657   -5.6778   24.9170 C   0  0  0  0  0  0
  -21.6044   -4.3038   24.7213 C   0  0  0  0  0  0
  -21.8826   -3.8134   23.4334 C   0  0  0  0  0  0
  -21.9201   -4.6950   22.3398 C   0  0  0  0  0  0
  -22.7865  -13.5277   21.1822 C   0  0  0  0  0  0
  -22.1671   -4.2136   21.0975 F   0  0  0  0  0  0
  -21.5635   -3.4526   25.7729 F   0  0  0  0  0  0
  -30.0253  -13.3693   20.4392 N   0  0  0  0  0  0
  -26.3005  -12.9308   20.3319 N   0  0  0  0  0  0
  -25.9298  -11.6480   20.5748 N   0  0  0  0  0  0
  -22.0483  -12.8300   22.0381 N   0  0  0  0  0  0
  -25.4289  -15.1875   20.4080 N   0  0  0  0  0  0
  -31.7671  -14.8047   20.1122 O   0  0  0  0  0  0
  -21.6641   -6.8871   21.4239 O   0  0  0  0  0  0
  -22.3567  -14.5586   20.6666 O   0  0  0  0  0  0
  -24.6214  -31.8660   23.2064 C   0  0  0  0  0  0
  -25.9103  -32.4793   23.8375 C   0  0  1  0  0  0
  -27.2252  -27.3493   20.1015 C   0  0  0  0  0  0
  -25.5947  -33.8597   24.2317 N   0  0  0  0  0  0
  -23.4122  -30.4877   21.5507 C   0  0  2  0  0  0
  -24.8577  -28.9491   20.1125 C   0  0  0  0  0  0
  -22.7446  -29.4644   22.4967 C   0  0  0  0  0  0
  -18.0295  -28.1376   22.8468 C   0  0  0  0  0  0
  -24.1489  -36.7297   23.2631 C   0  0  0  0  0  0
  -25.9526  -30.8014   21.3750 C   0  0  0  0  0  0
  -26.0244  -29.4299   20.7184 C   0  0  0  0  0  0
  -27.2063  -28.6368   20.7120 C   0  0  0  0  0  0
  -26.0405  -26.9277   19.4513 C   0  0  0  0  0  0
  -24.8662  -27.7015   19.4725 C   0  0  0  0  0  0
  -23.6239  -29.8259   20.1636 C   0  0  0  0  0  0
  -25.4105  -36.3091   24.0328 C   0  0  1  0  0  0
  -20.5883  -28.3666   23.1278 C   0  0  2  0  0  0
  -20.6775  -26.9388   22.5389 C   0  0  0  0  0  0
  -19.5752  -26.6371   21.5196 C   0  0  0  0  0  0
  -18.1926  -26.7937   22.1583 C   0  0  0  0  0  0
  -19.1538  -28.8834   23.2889 C   0  0  0  0  0  0
  -18.9464  -30.1436   23.8893 C   0  0  0  0  0  0
  -17.6464  -30.6565   24.0575 C   0  0  0  0  0  0
  -25.9050  -34.9462   23.5117 C   0  0  0  0  0  0
  -16.5356  -29.9075   23.6324 C   0  0  0  0  0  0
  -16.7284  -28.6504   23.0330 C   0  0  0  0  0  0
  -26.4502  -31.6585   25.0719 C   0  0  0  0  0  0
  -25.3755  -31.3730   26.1455 C   0  0  0  0  0  0
  -27.0344  -30.3018   24.6149 C   0  0  0  0  0  0
  -27.6065  -32.4303   25.7498 C   0  0  0  0  0  0
  -27.5576  -37.1796   24.8462 C   0  0  0  0  0  0
  -21.4172  -29.3036   22.3692 N   0  0  0  0  0  0
  -26.4294  -37.3768   23.9406 N   0  0  0  0  0  0
  -24.6811  -31.0670   22.1024 N   0  0  0  0  0  0
  -23.4196  -28.8184   23.3013 O   0  0  0  0  0  0
  -28.3644  -26.5394   20.1594 O   0  0  0  0  0  0
  -26.5592  -34.8924   22.4671 O   0  0  0  0  0  0
  -23.5385  -32.1452   23.7415 O   0  0  0  0  0  0
  -29.2175  -17.7565   19.9621 C   0  0  0  0  0  0
  -30.4023  -17.7610   22.0727 C   0  0  0  0  0  0
  -28.9721  -19.1573   20.0870 C   0  0  0  0  0  0
  -30.1558  -19.1577   22.1977 C   0  0  0  0  0  0
  -29.9029  -17.0234   20.9718 C   0  0  0  0  0  0
  -29.3969  -19.8718   21.2341 C   0  0  0  0  0  0
  -29.1230  -24.1564   20.6908 C   0  0  0  0  0  0
  -28.2807  -25.1146   19.7849 C   0  0  0  0  0  0
  -29.8268  -15.5793   21.0305 N   0  0  0  0  0  0
  -29.0532  -22.7540   20.4393 N   0  0  0  0  0  0
  -29.7870  -24.6138   21.6273 O   0  0  0  0  0  0
  -29.4392  -21.9788   22.8997 O   0  0  0  0  0  0
  -27.2681  -21.4216   21.7341 O   0  0  0  0  0  0
  -28.7358  -21.5496   21.6799 S   0  0  0  0  0  0
  -31.4852  -12.5143   19.1319 H   0  0  0  0  0  0
  -30.3918  -11.3705   19.8496 H   0  0  0  0  0  0
  -29.7579  -11.7698   17.4531 H   0  0  0  0  0  0
  -29.6504  -13.4863   17.7416 H   0  0  0  0  0  0
  -27.8537  -11.3002   18.8330 H   0  0  0  0  0  0
  -27.3827  -12.6065   17.7829 H   0  0  0  0  0  0
  -27.6911  -14.2504   19.5552 H   0  0  0  0  0  0
  -28.7109  -11.9814   21.3341 H   0  0  0  0  0  0
  -28.4408  -13.6065   21.8696 H   0  0  0  0  0  0
  -25.2741   -9.5700   22.4753 H   0  0  0  0  0  0
  -23.9967   -7.4660   22.7487 H   0  0  0  0  0  0
  -21.0799   -8.8779   19.8965 H   0  0  0  0  0  0
  -22.3655  -10.9674   19.6173 H   0  0  0  0  0  0
  -21.2026   -7.6125   23.9702 H   0  0  0  0  0  0
  -21.1461   -6.0507   25.9064 H   0  0  0  0  0  0
  -22.0600   -2.7588   23.2841 H   0  0  0  0  0  0
  -22.4073  -11.9957   22.4776 H   0  0  0  0  0  0
  -21.1115  -13.1373   22.2600 H   0  0  0  0  0  0
  -24.6578  -15.8379   20.5135 H   0  0  0  0  0  0
  -26.2766  -15.6302   20.0788 H   0  0  0  0  0  0
  -26.7161  -32.5471   23.1110 H   0  0  0  0  0  0
  -25.0145  -33.9746   25.0489 H   0  0  0  0  0  0
  -22.7002  -31.3046   21.4122 H   0  0  0  0  0  0
  -23.3750  -35.9632   23.3310 H   0  0  0  0  0  0
  -24.3574  -36.8903   22.2047 H   0  0  0  0  0  0
  -23.7256  -37.6505   23.6646 H   0  0  0  0  0  0
  -26.0785  -31.5625   20.6020 H   0  0  0  0  0  0
  -26.8361  -30.8520   22.0011 H   0  0  0  0  0  0
  -28.1019  -28.9996   21.1981 H   0  0  0  0  0  0
  -25.9791  -25.9963   18.9144 H   0  0  0  0  0  0
  -23.9755  -27.3319   18.9819 H   0  0  0  0  0  0
  -23.7397  -30.6076   19.4107 H   0  0  0  0  0  0
  -22.7439  -29.2554   19.8627 H   0  0  0  0  0  0
  -25.1276  -36.1952   25.0814 H   0  0  0  0  0  0
  -20.9993  -28.3227   24.1389 H   0  0  0  0  0  0
  -20.5698  -26.2263   23.3576 H   0  0  0  0  0  0
  -21.6629  -26.7428   22.1148 H   0  0  0  0  0  0
  -19.6925  -25.6293   21.1228 H   0  0  0  0  0  0
  -19.6702  -27.3188   20.6735 H   0  0  0  0  0  0
  -17.4224  -26.6733   21.3947 H   0  0  0  0  0  0
  -18.0253  -26.0059   22.8955 H   0  0  0  0  0  0
  -19.7937  -30.7246   24.2268 H   0  0  0  0  0  0
  -17.5016  -31.6244   24.5184 H   0  0  0  0  0  0
  -15.5346  -30.2971   23.7635 H   0  0  0  0  0  0
  -15.8706  -28.0835   22.7013 H   0  0  0  0  0  0
  -24.5924  -30.7068   25.7806 H   0  0  0  0  0  0
  -24.8940  -32.2909   26.4857 H   0  0  0  0  0  0
  -25.8082  -30.8940   27.0256 H   0  0  0  0  0  0
  -26.2926  -29.6758   24.1178 H   0  0  0  0  0  0
  -27.4077  -29.7247   25.4624 H   0  0  0  0  0  0
  -27.8773  -30.4295   23.9349 H   0  0  0  0  0  0
  -27.2680  -33.3600   26.2085 H   0  0  0  0  0  0
  -28.3888  -32.6877   25.0346 H   0  0  0  0  0  0
  -28.0736  -31.8436   26.5420 H   0  0  0  0  0  0
  -28.2582  -38.0102   24.7478 H   0  0  0  0  0  0
  -28.1077  -36.2623   24.6314 H   0  0  0  0  0  0
  -27.2280  -37.1464   25.8862 H   0  0  0  0  0  0
  -20.9351  -29.8803   21.6942 H   0  0  0  0  0  0
  -26.0188  -38.2842   24.1416 H   0  0  0  0  0  0
  -28.7939  -17.2318   19.1170 H   0  0  0  0  0  0
  -30.8960  -17.2452   22.8849 H   0  0  0  0  0  0
  -28.3702  -19.6649   19.3501 H   0  0  0  0  0  0
  -30.4640  -19.6614   23.1040 H   0  0  0  0  0  0
  -27.2725  -24.7124   19.8549 H   0  0  0  0  0  0
  -28.6057  -25.0071   18.7494 H   0  0  0  0  0  0
  -28.9385  -15.2182   21.3435 H   0  0  0  0  0  0
  -28.5716  -22.4632   19.5885 H   0  0  0  0  0  0
  1 25  1  0  0  0
  1 30  2  0  0  0
  1 79  1  0  0  0
  2  3  1  0  0  0
  2 25  1  0  0  0
  2 85  1  0  0  0
  2 86  1  0  0  0
  3  4  1  0  0  0
  3 87  1  0  0  0
  3 88  1  0  0  0
  4  5  1  0  0  0
  4 89  1  0  0  0
  4 90  1  0  0  0
  5  6  1  0  0  0
  5 26  1  0  0  0
  5 91  1  0  0  0
  6 25  1  0  0  0
  6 92  1  0  0  0
  6 93  1  0  0  0
  7  8  2  0  0  0
  7 26  1  0  0  0
  7 29  1  0  0  0
  8  9  1  0  0  0
  8 22  1  0  0  0
  9 10  1  0  0  0
  9 27  2  0  0  0
 10 11  2  0  0  0
 10 15  1  0  0  0
 11 12  1  0  0  0
 11 94  1  0  0  0
 12 13  2  0  0  0
 12 95  1  0  0  0
 13 14  1  0  0  0
 13 31  1  0  0  0
 14 15  2  0  0  0
 14 96  1  0  0  0
 15 97  1  0  0  0
 16 17  2  0  0  0
 16 21  1  0  0  0
 16 31  1  0  0  0
 17 18  1  0  0  0
 17 98  1  0  0  0
 18 19  2  0  0  0
 18 99  1  0  0  0
 19 20  1  0  0  0
 19 24  1  0  0  0
 20 21  2  0  0  0
 20100  1  0  0  0
 21 23  1  0  0  0
 22 28  1  0  0  0
 22 32  2  0  0  0
 26 27  1  0  0  0
 28101  1  0  0  0
 28102  1  0  0  0
 29103  1  0  0  0
 29104  1  0  0  0
 33 34  1  0  0  0
 33 66  1  0  0  0
 33 70  2  0  0  0
 34 36  1  0  0  0
 34 59  1  0  0  0
 34105  1  0  0  0
 35 44  2  0  0  0
 35 45  1  0  0  0
 35 68  1  0  0  0
 36 56  1  0  0  0
 36106  1  0  0  0
 37 39  1  0  0  0
 37 47  1  0  0  0
 37 66  1  0  0  0
 37107  1  0  0  0
 38 43  2  0  0  0
 38 46  1  0  0  0
 38 47  1  0  0  0
 39 64  1  0  0  0
 39 67  2  0  0  0
 40 52  1  0  0  0
 40 53  2  0  0  0
 40 58  1  0  0  0
 41108  1  0  0  0
 41109  1  0  0  0
 41110  1  0  0  0
 41 48  1  0  0  0
 42 43  1  0  0  0
 42 66  1  0  0  0
 42111  1  0  0  0
 42112  1  0  0  0
 43 44  1  0  0  0
 44113  1  0  0  0
 45 46  2  0  0  0
 45114  1  0  0  0
 46115  1  0  0  0
 47116  1  0  0  0
 47117  1  0  0  0
 48 56  1  0  0  0
 48 65  1  0  0  0
 48118  1  0  0  0
 49 50  1  0  0  0
 49 53  1  0  0  0
 49 64  1  0  0  0
 49119  1  0  0  0
 50 51  1  0  0  0
 50120  1  0  0  0
 50121  1  0  0  0
 51 52  1  0  0  0
 51122  1  0  0  0
 51123  1  0  0  0
 52124  1  0  0  0
 52125  1  0  0  0
 53 54  1  0  0  0
 54 55  2  0  0  0
 54126  1  0  0  0
 55 57  1  0  0  0
 55127  1  0  0  0
 56 69  2  0  0  0
 57 58  2  0  0  0
 57128  1  0  0  0
 58129  1  0  0  0
 59 60  1  0  0  0
 59 61  1  0  0  0
 59 62  1  0  0  0
 60130  1  0  0  0
 60131  1  0  0  0
 60132  1  0  0  0
 61133  1  0  0  0
 61134  1  0  0  0
 61135  1  0  0  0
 62136  1  0  0  0
 62137  1  0  0  0
 62138  1  0  0  0
 63 65  1  0  0  0
 63139  1  0  0  0
 63140  1  0  0  0
 63141  1  0  0  0
 64142  1  0  0  0
 65143  1  0  0  0
 68 78  1  0  0  0
 71 73  2  0  0  0
 71 75  1  0  0  0
 71144  1  0  0  0
 72 74  1  0  0  0
 72 75  2  0  0  0
 72145  1  0  0  0
 73 76  1  0  0  0
 73146  1  0  0  0
 74 76  2  0  0  0
 74147  1  0  0  0
 75 79  1  0  0  0
 76 84  1  0  0  0
 77 78  1  0  0  0
 77 80  1  0  0  0
 77 81  2  0  0  0
 78148  1  0  0  0
 78149  1  0  0  0
 79150  1  0  0  0
 80151  1  0  0  0
 80 84  1  0  0  0
 82 84  2  0  0  0
 83 84  2  0  0  0
M  ISO  4   1 100  68 101  78 101  79 100
M  END
> <chiral flag>
0

> <version>
0

> <s_m_source_file>
/data/baiqing/PycharmProjects/Reinvent-master-3.2/result/LINK_invent/BTK/process_docking_weight1_custom_product_contain_oxygen_bond_distance_aromatic_linkinvent_7_9_3/rearranged_h_0075.sdf

> <i_m_source_file_index>
85

> <r_mmod_Potential_Energy-OPLS-2005>
-108.573295593262

> <r_mmod_Stretch_Energy-OPLS-2005>
62.5946311950684

> <r_mmod_Bend_Energy-OPLS-2005>
131.083267211914

> <r_mmod_Torsional_Energy-OPLS-2005>
284.260559082031

> <r_mmod_Improper_Torsional_Energy-OPLS-2005>
10.8862018585205

> <r_mmod_Van_der_Waal_Energy-OPLS-2005>
140.139663696289

> <r_mmod_Electrostatic_Energy-OPLS-2005>
-478.614807128906

> <r_mmod_Solvation_Energy-OPLS-2005>
-294.174987792969

> <b_mmod_Minimization_Converged-OPLS-2005>
0

> <r_mmod_RMS_Derivative-OPLS-2005>
3.87706613540649

$$$$
86
                    3D
 Structure written by MMmdl.
165174  0  0  1  0            999 V2000
  -30.6178  -14.6360   20.4772 C   0  0  0  0  0  0
  -30.4262  -12.3790   19.4587 C   0  0  0  0  0  0
  -29.4996  -12.5013   18.2283 C   0  0  0  0  0  0
  -28.0218  -12.3404   18.6382 C   0  0  0  0  0  0
  -27.6428  -13.2172   19.8605 C   0  0  2  0  0  0
  -28.6886  -13.0808   20.9917 C   0  0  0  0  0  0
  -25.2479  -13.8180   20.5682 C   0  0  0  0  0  0
  -24.1765  -13.0440   20.9186 C   0  0  0  0  0  0
  -24.6331  -11.6896   20.8738 C   0  0  0  0  0  0
  -23.9025  -10.4279   21.0409 C   0  0  0  0  0  0
  -24.3577   -9.4192   21.9188 C   0  0  0  0  0  0
  -23.6257   -8.2234   22.0762 C   0  0  0  0  0  0
  -22.4259   -8.0249   21.3530 C   0  0  0  0  0  0
  -21.9880   -9.0227   20.4635 C   0  0  0  0  0  0
  -22.7202  -10.2105   20.3048 C   0  0  0  0  0  0
  -21.6845   -6.0704   22.5268 C   0  0  0  0  0  0
  -21.4027   -6.5624   23.8192 C   0  0  0  0  0  0
  -21.3668   -5.6789   24.9166 C   0  0  0  0  0  0
  -21.6049   -4.3052   24.7230 C   0  0  0  0  0  0
  -21.8809   -3.8121   23.4357 C   0  0  0  0  0  0
  -21.9184   -4.6932   22.3395 C   0  0  0  0  0  0
  -22.7783  -13.5201   21.1869 C   0  0  0  0  0  0
  -22.1645   -4.2102   21.0981 F   0  0  0  0  0  0
  -21.5629   -3.4536   25.7750 F   0  0  0  0  0  0
  -30.0065  -13.4107   20.4246 N   0  0  0  0  0  0
  -26.2904  -12.9350   20.3313 N   0  0  0  0  0  0
  -25.9253  -11.6500   20.5780 N   0  0  0  0  0  0
  -22.0442  -12.8177   22.0425 N   0  0  0  0  0  0
  -25.4184  -15.1909   20.4031 N   0  0  0  0  0  0
  -31.7976  -14.7878   20.1489 O   0  0  0  0  0  0
  -21.6634   -6.8838   21.4223 O   0  0  0  0  0  0
  -22.3429  -14.5490   20.6697 O   0  0  0  0  0  0
  -24.6250  -31.8571   23.2046 C   0  0  0  0  0  0
  -25.9133  -32.4731   23.8322 C   0  0  1  0  0  0
  -27.2252  -27.3023   20.1588 C   0  0  0  0  0  0
  -25.5962  -33.8523   24.2228 N   0  0  0  0  0  0
  -23.4180  -30.4894   21.5360 C   0  0  2  0  0  0
  -24.8699  -28.9400   20.1058 C   0  0  0  0  0  0
  -22.7452  -29.4641   22.4796 C   0  0  0  0  0  0
  -18.0279  -28.1396   22.8418 C   0  0  0  0  0  0
  -24.1501  -36.7298   23.2621 C   0  0  0  0  0  0
  -25.9594  -30.7876   21.3779 C   0  0  0  0  0  0
  -26.0339  -29.4114   20.7255 C   0  0  0  0  0  0
  -27.2099  -28.6047   20.7459 C   0  0  0  0  0  0
  -26.0394  -26.8824   19.5093 C   0  0  0  0  0  0
  -24.8760  -27.6799   19.4873 C   0  0  0  0  0  0
  -23.6425  -29.8324   20.1451 C   0  0  0  0  0  0
  -25.4123  -36.3039   24.0291 C   0  0  1  0  0  0
  -20.5872  -28.3750   23.1210 C   0  0  2  0  0  0
  -20.6833  -26.9463   22.5388 C   0  0  0  0  0  0
  -19.5826  -26.6387   21.5166 C   0  0  0  0  0  0
  -18.1973  -26.7927   22.1554 C   0  0  0  0  0  0
  -19.1530  -28.8872   23.2814 C   0  0  0  0  0  0
  -18.9483  -30.1458   23.8864 C   0  0  0  0  0  0
  -17.6514  -30.6607   24.0537 C   0  0  0  0  0  0
  -25.9070  -34.9411   23.5066 C   0  0  0  0  0  0
  -16.5383  -29.9118   23.6317 C   0  0  0  0  0  0
  -16.7279  -28.6532   23.0312 C   0  0  0  0  0  0
  -26.4557  -31.6523   25.0666 C   0  0  0  0  0  0
  -25.3783  -31.3668   26.1383 C   0  0  0  0  0  0
  -27.0420  -30.2939   24.6126 C   0  0  0  0  0  0
  -27.6086  -32.4275   25.7476 C   0  0  0  0  0  0
  -27.5571  -37.1835   24.8447 C   0  0  0  0  0  0
  -21.4153  -29.3105   22.3578 N   0  0  0  0  0  0
  -26.4266  -37.3749   23.9398 N   0  0  0  0  0  0
  -24.6848  -31.0637   22.0954 N   0  0  0  0  0  0
  -23.4179  -28.8133   23.2846 O   0  0  0  0  0  0
  -28.3415  -26.4461   20.2433 O   0  0  0  0  0  0
  -26.5633  -34.8904   22.4622 O   0  0  0  0  0  0
  -23.5447  -32.1390   23.7414 O   0  0  0  0  0  0
  -28.9004  -19.3650   20.1395 C   0  0  0  0  0  0
  -28.8431  -17.9439   20.1529 C   0  0  0  0  0  0
  -31.0979  -17.8557   20.9364 C   0  0  0  0  0  0
  -31.1581  -19.2900   20.9864 C   0  0  0  0  0  0
  -30.0334  -20.1066   20.5747 C   0  0  0  0  0  0
  -29.9366  -17.1424   20.5640 C   0  0  0  0  0  0
  -28.9162  -22.4249   20.8326 C   0  0  0  0  0  0
  -30.4926  -23.8472   19.8202 C   0  0  0  0  0  0
  -31.0933  -22.4550   20.1325 C   0  0  0  0  0  0
  -29.2456  -23.9558   20.6950 C   0  0  1  0  0  0
  -33.6197  -19.8472   20.5765 C   0  0  0  0  0  0
  -32.1852  -19.2330   23.8690 C   0  0  0  0  0  0
  -28.1180  -24.9741   20.1862 C   0  0  0  0  0  0
  -32.4562  -19.8527   21.5772 C   0  0  2  0  0  0
  -29.9791  -21.5965   20.5551 N   0  0  0  0  0  0
  -29.7705  -15.6950   20.6806 N   0  0  0  0  0  0
  -27.7995  -22.0441   21.1982 O   0  0  0  0  0  0
  -32.9328  -19.0730   22.6713 O   0  0  0  0  0  0
  -31.4717  -12.4897   19.1682 H   0  0  0  0  0  0
  -30.3423  -11.3880   19.9047 H   0  0  0  0  0  0
  -29.7626  -11.7508   17.4814 H   0  0  0  0  0  0
  -29.6444  -13.4739   17.7547 H   0  0  0  0  0  0
  -27.8563  -11.2898   18.8751 H   0  0  0  0  0  0
  -27.3669  -12.5678   17.7961 H   0  0  0  0  0  0
  -27.6565  -14.2489   19.5100 H   0  0  0  0  0  0
  -28.6919  -12.0649   21.3909 H   0  0  0  0  0  0
  -28.4366  -13.7301   21.8330 H   0  0  0  0  0  0
  -25.2712   -9.5673   22.4760 H   0  0  0  0  0  0
  -23.9950   -7.4632   22.7488 H   0  0  0  0  0  0
  -21.0810   -8.8705   19.8945 H   0  0  0  0  0  0
  -22.3633  -10.9620   19.6140 H   0  0  0  0  0  0
  -21.2043   -7.6131   23.9677 H   0  0  0  0  0  0
  -21.1510   -6.0534   25.9063 H   0  0  0  0  0  0
  -22.0588   -2.7582   23.2873 H   0  0  0  0  0  0
  -22.4062  -11.9835   22.4813 H   0  0  0  0  0  0
  -21.1060  -13.1163   22.2671 H   0  0  0  0  0  0
  -24.6481  -15.8449   20.4847 H   0  0  0  0  0  0
  -26.2653  -15.6239   20.0627 H   0  0  0  0  0  0
  -26.7167  -32.5427   23.1044 H   0  0  0  0  0  0
  -25.0135  -33.9613   25.0395 H   0  0  0  0  0  0
  -22.7109  -31.3113   21.3942 H   0  0  0  0  0  0
  -23.3731  -35.9661   23.3267 H   0  0  0  0  0  0
  -24.3602  -36.8960   22.2047 H   0  0  0  0  0  0
  -23.7323  -37.6509   23.6692 H   0  0  0  0  0  0
  -26.0937  -31.5498   20.6096 H   0  0  0  0  0  0
  -26.8371  -30.8336   22.0114 H   0  0  0  0  0  0
  -28.0902  -28.9560   21.2653 H   0  0  0  0  0  0
  -25.9879  -25.9182   19.0276 H   0  0  0  0  0  0
  -23.9880  -27.3135   18.9914 H   0  0  0  0  0  0
  -23.7909  -30.6227   19.4071 H   0  0  0  0  0  0
  -22.7578  -29.2865   19.8152 H   0  0  0  0  0  0
  -25.1329  -36.1827   25.0784 H   0  0  0  0  0  0
  -20.9953  -28.3409   24.1321 H   0  0  0  0  0  0
  -20.5760  -26.2371   23.3616 H   0  0  0  0  0  0
  -21.6715  -26.7553   22.1163 H   0  0  0  0  0  0
  -19.7044  -25.6269   21.1264 H   0  0  0  0  0  0
  -19.6789  -27.3128   20.6617 H   0  0  0  0  0  0
  -17.4261  -26.6561   21.3950 H   0  0  0  0  0  0
  -18.0420  -26.0074   22.8965 H   0  0  0  0  0  0
  -19.7990  -30.7213   24.2240 H   0  0  0  0  0  0
  -17.5112  -31.6269   24.5166 H   0  0  0  0  0  0
  -15.5404  -30.3060   23.7681 H   0  0  0  0  0  0
  -15.8634  -28.0900   22.7040 H   0  0  0  0  0  0
  -24.5943  -30.7017   25.7760 H   0  0  0  0  0  0
  -24.9002  -32.2847   26.4808 H   0  0  0  0  0  0
  -25.8127  -30.8878   27.0150 H   0  0  0  0  0  0
  -26.2989  -29.6635   24.1234 H   0  0  0  0  0  0
  -27.4200  -29.7247   25.4625 H   0  0  0  0  0  0
  -27.8827  -30.4210   23.9285 H   0  0  0  0  0  0
  -27.2631  -33.3555   26.2039 H   0  0  0  0  0  0
  -28.3956  -32.6857   25.0369 H   0  0  0  0  0  0
  -28.0675  -31.8378   26.5425 H   0  0  0  0  0  0
  -28.2565  -38.0161   24.7505 H   0  0  0  0  0  0
  -28.1090  -36.2690   24.6250 H   0  0  0  0  0  0
  -27.2280  -37.1438   25.8843 H   0  0  0  0  0  0
  -20.9286  -29.8857   21.6846 H   0  0  0  0  0  0
  -26.0116  -38.2783   24.1474 H   0  0  0  0  0  0
  -28.0296  -19.8944   19.7831 H   0  0  0  0  0  0
  -27.9259  -17.4727   19.8317 H   0  0  0  0  0  0
  -31.9590  -17.2877   21.2540 H   0  0  0  0  0  0
  -30.1942  -23.8984   18.7720 H   0  0  0  0  0  0
  -31.2067  -24.6511   20.0083 H   0  0  0  0  0  0
  -31.8071  -22.5861   20.9433 H   0  0  0  0  0  0
  -31.6254  -22.0532   19.2721 H   0  0  0  0  0  0
  -29.5386  -24.2644   21.7012 H   0  0  0  0  0  0
  -33.3967  -20.4295   19.6826 H   0  0  0  0  0  0
  -33.8797  -18.8347   20.2603 H   0  0  0  0  0  0
  -34.5114  -20.2775   21.0346 H   0  0  0  0  0  0
  -32.6374  -18.6314   24.6563 H   0  0  0  0  0  0
  -31.1515  -18.9031   23.7496 H   0  0  0  0  0  0
  -32.1839  -20.2734   24.1999 H   0  0  0  0  0  0
  -27.2229  -24.7640   20.7759 H   0  0  0  0  0  0
  -27.8656  -24.7068   19.1592 H   0  0  0  0  0  0
  -32.3070  -20.8567   21.9585 H   0  0  0  0  0  0
  -28.8192  -15.3962   20.8289 H   0  0  0  0  0  0
  1 25  1  0  0  0
  1 30  2  0  0  0
  1 86  1  0  0  0
  2  3  1  0  0  0
  2 25  1  0  0  0
  2 89  1  0  0  0
  2 90  1  0  0  0
  3  4  1  0  0  0
  3 91  1  0  0  0
  3 92  1  0  0  0
  4  5  1  0  0  0
  4 93  1  0  0  0
  4 94  1  0  0  0
  5  6  1  0  0  0
  5 26  1  0  0  0
  5 95  1  0  0  0
  6 25  1  0  0  0
  6 96  1  0  0  0
  6 97  1  0  0  0
  7  8  2  0  0  0
  7 26  1  0  0  0
  7 29  1  0  0  0
  8  9  1  0  0  0
  8 22  1  0  0  0
  9 10  1  0  0  0
  9 27  2  0  0  0
 10 11  2  0  0  0
 10 15  1  0  0  0
 11 12  1  0  0  0
 11 98  1  0  0  0
 12 13  2  0  0  0
 12 99  1  0  0  0
 13 14  1  0  0  0
 13 31  1  0  0  0
 14 15  2  0  0  0
 14100  1  0  0  0
 15101  1  0  0  0
 16 17  2  0  0  0
 16 21  1  0  0  0
 16 31  1  0  0  0
 17 18  1  0  0  0
 17102  1  0  0  0
 18 19  2  0  0  0
 18103  1  0  0  0
 19 20  1  0  0  0
 19 24  1  0  0  0
 20 21  2  0  0  0
 20104  1  0  0  0
 21 23  1  0  0  0
 22 28  1  0  0  0
 22 32  2  0  0  0
 26 27  1  0  0  0
 28105  1  0  0  0
 28106  1  0  0  0
 29107  1  0  0  0
 29108  1  0  0  0
 33 34  1  0  0  0
 33 66  1  0  0  0
 33 70  2  0  0  0
 34 36  1  0  0  0
 34 59  1  0  0  0
 34109  1  0  0  0
 35 44  2  0  0  0
 35 45  1  0  0  0
 35 68  1  0  0  0
 36 56  1  0  0  0
 36110  1  0  0  0
 37 39  1  0  0  0
 37 47  1  0  0  0
 37 66  1  0  0  0
 37111  1  0  0  0
 38 43  2  0  0  0
 38 46  1  0  0  0
 38 47  1  0  0  0
 39 64  1  0  0  0
 39 67  2  0  0  0
 40 52  1  0  0  0
 40 53  2  0  0  0
 40 58  1  0  0  0
 41112  1  0  0  0
 41113  1  0  0  0
 41114  1  0  0  0
 41 48  1  0  0  0
 42 43  1  0  0  0
 42 66  1  0  0  0
 42115  1  0  0  0
 42116  1  0  0  0
 43 44  1  0  0  0
 44117  1  0  0  0
 45 46  2  0  0  0
 45118  1  0  0  0
 46119  1  0  0  0
 47120  1  0  0  0
 47121  1  0  0  0
 48 56  1  0  0  0
 48 65  1  0  0  0
 48122  1  0  0  0
 49 50  1  0  0  0
 49 53  1  0  0  0
 49 64  1  0  0  0
 49123  1  0  0  0
 50 51  1  0  0  0
 50124  1  0  0  0
 50125  1  0  0  0
 51 52  1  0  0  0
 51126  1  0  0  0
 51127  1  0  0  0
 52128  1  0  0  0
 52129  1  0  0  0
 53 54  1  0  0  0
 54 55  2  0  0  0
 54130  1  0  0  0
 55 57  1  0  0  0
 55131  1  0  0  0
 56 69  2  0  0  0
 57 58  2  0  0  0
 57132  1  0  0  0
 58133  1  0  0  0
 59 60  1  0  0  0
 59 61  1  0  0  0
 59 62  1  0  0  0
 60134  1  0  0  0
 60135  1  0  0  0
 60136  1  0  0  0
 61137  1  0  0  0
 61138  1  0  0  0
 61139  1  0  0  0
 62140  1  0  0  0
 62141  1  0  0  0
 62142  1  0  0  0
 63 65  1  0  0  0
 63143  1  0  0  0
 63144  1  0  0  0
 63145  1  0  0  0
 64146  1  0  0  0
 65147  1  0  0  0
 68 83  1  0  0  0
 71 72  2  0  0  0
 71 75  1  0  0  0
 71148  1  0  0  0
 72 76  1  0  0  0
 72149  1  0  0  0
 73 74  1  0  0  0
 73 76  2  0  0  0
 73150  1  0  0  0
 74 75  2  0  0  0
 74 84  1  0  0  0
 75 85  1  0  0  0
 76 86  1  0  0  0
 77 80  1  0  0  0
 77 85  1  0  0  0
 77 87  2  0  0  0
 78 79  1  0  0  0
 78 80  1  0  0  0
 78151  1  0  0  0
 78152  1  0  0  0
 79 85  1  0  0  0
 79153  1  0  0  0
 79154  1  0  0  0
 80 83  1  0  0  0
 80155  1  0  0  0
 81156  1  0  0  0
 81157  1  0  0  0
 81158  1  0  0  0
 81 84  1  0  0  0
 82 88  1  0  0  0
 82159  1  0  0  0
 82160  1  0  0  0
 82161  1  0  0  0
 83162  1  0  0  0
 83163  1  0  0  0
 84 88  1  0  0  0
 84164  1  0  0  0
 86165  1  0  0  0
M  ISO  4   1 100  68 101  83 101  86 100
M  END
> <chiral flag>
0

> <version>
0

> <s_m_source_file>
/data/baiqing/PycharmProjects/Reinvent-master-3.2/result/LINK_invent/BTK/process_docking_weight1_custom_product_contain_oxygen_bond_distance_aromatic_linkinvent_7_9_3/rearranged_h_0075.sdf

> <i_m_source_file_index>
86

> <r_mmod_Potential_Energy-OPLS-2005>
171.297821044922

> <r_mmod_Stretch_Energy-OPLS-2005>
91.3331680297852

> <r_mmod_Bend_Energy-OPLS-2005>
180.02473449707

> <r_mmod_Torsional_Energy-OPLS-2005>
287.781280517578

> <r_mmod_Improper_Torsional_Energy-OPLS-2005>
6.34898710250854

> <r_mmod_Van_der_Waal_Energy-OPLS-2005>
142.115585327148

> <r_mmod_Electrostatic_Energy-OPLS-2005>
-366.546081542969

> <r_mmod_Solvation_Energy-OPLS-2005>
-225.361907958984

> <b_mmod_Minimization_Converged-OPLS-2005>
0

> <r_mmod_RMS_Derivative-OPLS-2005>
4.26405572891235

$$$$
87
                    3D
 Structure written by MMmdl.
159167  0  0  1  0            999 V2000
  -30.7019  -14.4431   20.6063 C   0  0  0  0  0  0
  -30.4279  -12.3023   19.4068 C   0  0  0  0  0  0
  -29.4914  -12.5116   18.1988 C   0  0  0  0  0  0
  -28.0129  -12.3711   18.6142 C   0  0  0  0  0  0
  -27.6641  -13.2003   19.8789 C   0  0  2  0  0  0
  -28.7058  -12.9506   20.9925 C   0  0  0  0  0  0
  -25.2603  -13.8148   20.5685 C   0  0  0  0  0  0
  -24.1838  -13.0431   20.9150 C   0  0  0  0  0  0
  -24.6385  -11.6896   20.8718 C   0  0  0  0  0  0
  -23.9050  -10.4288   21.0396 C   0  0  0  0  0  0
  -24.3605   -9.4208   21.9177 C   0  0  0  0  0  0
  -23.6283   -8.2243   22.0753 C   0  0  0  0  0  0
  -22.4265   -8.0279   21.3544 C   0  0  0  0  0  0
  -21.9895   -9.0251   20.4648 C   0  0  0  0  0  0
  -22.7221  -10.2131   20.3051 C   0  0  0  0  0  0
  -21.6852   -6.0731   22.5278 C   0  0  0  0  0  0
  -21.4015   -6.5636   23.8211 C   0  0  0  0  0  0
  -21.3659   -5.6790   24.9174 C   0  0  0  0  0  0
  -21.6044   -4.3053   24.7226 C   0  0  0  0  0  0
  -21.8820   -3.8144   23.4348 C   0  0  0  0  0  0
  -21.9193   -4.6959   22.3402 C   0  0  0  0  0  0
  -22.7866  -13.5241   21.1828 C   0  0  0  0  0  0
  -22.1662   -4.2144   21.0980 F   0  0  0  0  0  0
  -21.5628   -3.4538   25.7741 F   0  0  0  0  0  0
  -30.0392  -13.2663   20.4461 N   0  0  0  0  0  0
  -26.3037  -12.9306   20.3388 N   0  0  0  0  0  0
  -25.9312  -11.6470   20.5761 N   0  0  0  0  0  0
  -22.0507  -12.8238   22.0391 N   0  0  0  0  0  0
  -25.4340  -15.1869   20.4159 N   0  0  0  0  0  0
  -31.8118  -14.6617   20.1103 O   0  0  0  0  0  0
  -21.6636   -6.8873   21.4240 O   0  0  0  0  0  0
  -22.3552  -14.5553   20.6689 O   0  0  0  0  0  0
  -24.6139  -31.8681   23.2102 C   0  0  0  0  0  0
  -25.9036  -32.4822   23.8392 C   0  0  1  0  0  0
  -27.2397  -27.4385   20.0793 C   0  0  0  0  0  0
  -25.5894  -33.8620   24.2326 N   0  0  0  0  0  0
  -23.4006  -30.4919   21.5514 C   0  0  2  0  0  0
  -24.8445  -28.9548   20.1181 C   0  0  0  0  0  0
  -22.7400  -29.4660   22.4999 C   0  0  0  0  0  0
  -18.0269  -28.1376   22.8493 C   0  0  0  0  0  0
  -24.1486  -36.7317   23.2637 C   0  0  0  0  0  0
  -25.9291  -30.8326   21.3625 C   0  0  0  0  0  0
  -26.0041  -29.4662   20.7111 C   0  0  0  0  0  0
  -27.1990  -28.7130   20.6920 C   0  0  0  0  0  0
  -26.0491  -26.9291   19.5073 C   0  0  0  0  0  0
  -24.8608  -27.6838   19.5197 C   0  0  0  0  0  0
  -23.6077  -29.8229   20.1663 C   0  0  0  0  0  0
  -25.4105  -36.3112   24.0338 C   0  0  1  0  0  0
  -20.5857  -28.3659   23.1325 C   0  0  2  0  0  0
  -20.6760  -26.9397   22.5421 C   0  0  0  0  0  0
  -19.5741  -26.6386   21.5212 C   0  0  0  0  0  0
  -18.1918  -26.7924   22.1621 C   0  0  0  0  0  0
  -19.1517  -28.8833   23.2907 C   0  0  0  0  0  0
  -18.9447  -30.1440   23.8917 C   0  0  0  0  0  0
  -17.6450  -30.6582   24.0567 C   0  0  0  0  0  0
  -25.9032  -34.9477   23.5130 C   0  0  0  0  0  0
  -16.5341  -29.9087   23.6323 C   0  0  0  0  0  0
  -16.7259  -28.6503   23.0345 C   0  0  0  0  0  0
  -26.4468  -31.6602   25.0719 C   0  0  0  0  0  0
  -25.3741  -31.3708   26.1474 C   0  0  0  0  0  0
  -27.0294  -30.3045   24.6090 C   0  0  0  0  0  0
  -27.6050  -32.4319   25.7475 C   0  0  0  0  0  0
  -27.5581  -37.1810   24.8463 C   0  0  0  0  0  0
  -21.4130  -29.3030   22.3736 N   0  0  0  0  0  0
  -26.4294  -37.3794   23.9408 N   0  0  0  0  0  0
  -24.6663  -31.0785   22.0999 N   0  0  0  0  0  0
  -23.4178  -28.8201   23.3035 O   0  0  0  0  0  0
  -28.4470  -26.7647   20.0758 O   0  0  0  0  0  0
  -26.5596  -34.8926   22.4692 O   0  0  0  0  0  0
  -23.5336  -32.1432   23.7503 O   0  0  0  0  0  0
  -31.7269  -18.6983   21.7830 C   0  0  0  0  0  0
  -31.5576  -17.3156   21.5524 C   0  0  0  0  0  0
  -29.3191  -19.0353   21.6381 C   0  0  0  0  0  0
  -30.6113  -19.5699   21.8447 C   0  0  0  0  0  0
  -30.2612  -16.7783   21.3819 C   0  0  0  0  0  0
  -29.1503  -17.6495   21.4208 C   0  0  0  0  0  0
  -30.8189  -20.9804   22.2283 C   0  0  0  0  0  0
  -30.5688  -23.3638   21.6796 C   0  0  0  0  0  0
  -28.6414  -24.3100   20.2387 C   0  0  0  0  0  0
  -28.6266  -25.5547   19.3247 C   0  0  0  0  0  0
  -31.5581  -21.1706   23.3327 N   0  3  0  0  0  0
  -31.6144  -23.8415   22.3853 N   0  0  0  0  0  0
  -29.9960  -15.3872   21.2485 N   0  0  0  0  0  0
  -30.2876  -22.0301   21.5394 N   0  0  0  0  0  0
  -29.8402  -24.3438   21.0965 N   0  3  0  0  0  0
  -27.9033  -17.1405   21.2657 F   0  0  0  0  0  0
  -31.4700  -12.4140   19.1015 H   0  0  0  0  0  0
  -30.3386  -11.2845   19.7894 H   0  0  0  0  0  0
  -29.7267  -11.7940   17.4117 H   0  0  0  0  0  0
  -29.6593  -13.5008   17.7699 H   0  0  0  0  0  0
  -27.8206  -11.3140   18.8017 H   0  0  0  0  0  0
  -27.3609  -12.6550   17.7873 H   0  0  0  0  0  0
  -27.7160  -14.2521   19.5964 H   0  0  0  0  0  0
  -28.6813  -11.9047   21.3025 H   0  0  0  0  0  0
  -28.4622  -13.5168   21.8925 H   0  0  0  0  0  0
  -25.2751   -9.5686   22.4747 H   0  0  0  0  0  0
  -23.9995   -7.4636   22.7471 H   0  0  0  0  0  0
  -21.0824   -8.8769   19.8957 H   0  0  0  0  0  0
  -22.3677  -10.9668   19.6160 H   0  0  0  0  0  0
  -21.2007   -7.6143   23.9712 H   0  0  0  0  0  0
  -21.1479   -6.0520   25.9076 H   0  0  0  0  0  0
  -22.0600   -2.7606   23.2851 H   0  0  0  0  0  0
  -22.4114  -11.9892   22.4772 H   0  0  0  0  0  0
  -21.1131  -13.1279   22.2607 H   0  0  0  0  0  0
  -24.6757  -15.8447   20.5580 H   0  0  0  0  0  0
  -26.3102  -15.6415   20.1899 H   0  0  0  0  0  0
  -26.7105  -32.5531   23.1154 H   0  0  0  0  0  0
  -25.0049  -33.9785   25.0473 H   0  0  0  0  0  0
  -22.6892  -31.3085   21.4126 H   0  0  0  0  0  0
  -23.3743  -35.9656   23.3312 H   0  0  0  0  0  0
  -24.3580  -36.8919   22.2049 H   0  0  0  0  0  0
  -23.7245  -37.6528   23.6644 H   0  0  0  0  0  0
  -26.0410  -31.5977   20.5929 H   0  0  0  0  0  0
  -26.8178  -30.8864   21.9797 H   0  0  0  0  0  0
  -28.0977  -29.1113   21.1420 H   0  0  0  0  0  0
  -26.0017  -25.9518   19.0529 H   0  0  0  0  0  0
  -23.9639  -27.2783   19.0717 H   0  0  0  0  0  0
  -23.7174  -30.5969   19.4059 H   0  0  0  0  0  0
  -22.7311  -29.2435   19.8710 H   0  0  0  0  0  0
  -25.1282  -36.1979   25.0831 H   0  0  0  0  0  0
  -20.9947  -28.3222   24.1446 H   0  0  0  0  0  0
  -20.5658  -26.2264   23.3604 H   0  0  0  0  0  0
  -21.6632  -26.7441   22.1216 H   0  0  0  0  0  0
  -19.6903  -25.6302   21.1228 H   0  0  0  0  0  0
  -19.6684  -27.3208   20.6752 H   0  0  0  0  0  0
  -17.4189  -26.6674   21.4022 H   0  0  0  0  0  0
  -18.0317  -26.0061   22.9011 H   0  0  0  0  0  0
  -19.7924  -30.7249   24.2297 H   0  0  0  0  0  0
  -17.5007  -31.6264   24.5167 H   0  0  0  0  0  0
  -15.5343  -30.2997   23.7637 H   0  0  0  0  0  0
  -15.8657  -28.0831   22.7048 H   0  0  0  0  0  0
  -24.5909  -30.7058   25.7818 H   0  0  0  0  0  0
  -24.8938  -32.2864   26.4935 H   0  0  0  0  0  0
  -25.8101  -30.8871   27.0225 H   0  0  0  0  0  0
  -26.2831  -29.6808   24.1155 H   0  0  0  0  0  0
  -27.4080  -29.7280   25.4541 H   0  0  0  0  0  0
  -27.8661  -30.4367   23.9224 H   0  0  0  0  0  0
  -27.2672  -33.3603   26.2092 H   0  0  0  0  0  0
  -28.3834  -32.6905   25.0284 H   0  0  0  0  0  0
  -28.0748  -31.8421   26.5356 H   0  0  0  0  0  0
  -28.2606  -38.0100   24.7507 H   0  0  0  0  0  0
  -28.1068  -36.2633   24.6291 H   0  0  0  0  0  0
  -27.2301  -37.1467   25.8867 H   0  0  0  0  0  0
  -20.9285  -29.8756   21.6965 H   0  0  0  0  0  0
  -26.0185  -38.2875   24.1406 H   0  0  0  0  0  0
  -32.7272  -19.0806   21.9406 H   0  0  0  0  0  0
  -32.4280  -16.6753   21.5454 H   0  0  0  0  0  0
  -28.4398  -19.6601   21.7000 H   0  0  0  0  0  0
  -28.6615  -23.4157   19.6163 H   0  0  0  0  0  0
  -27.7374  -24.2629   20.8467 H   0  0  0  0  0  0
  -27.9347  -25.4322   18.4936 H   0  0  0  0  0  0
  -29.6002  -25.6362   18.8402 H   0  0  0  0  0  0
  -31.8952  -20.3628   23.8326 H   0  0  0  0  0  0
  -31.5026  -22.0471   23.8279 H   0  0  0  0  0  0
  -32.3882  -23.2424   22.6473 H   0  0  0  0  0  0
  -31.7727  -24.8324   22.5128 H   0  0  0  0  0  0
  -29.0625  -15.1098   21.5088 H   0  0  0  0  0  0
  -29.6365  -21.7560   20.8246 H   0  0  0  0  0  0
  -30.0989  -25.2991   21.3010 H   0  0  0  0  0  0
  1 25  1  0  0  0
  1 30  2  0  0  0
  1 83  1  0  0  0
  2  3  1  0  0  0
  2 25  1  0  0  0
  2 87  1  0  0  0
  2 88  1  0  0  0
  3  4  1  0  0  0
  3 89  1  0  0  0
  3 90  1  0  0  0
  4  5  1  0  0  0
  4 91  1  0  0  0
  4 92  1  0  0  0
  5  6  1  0  0  0
  5 26  1  0  0  0
  5 93  1  0  0  0
  6 25  1  0  0  0
  6 94  1  0  0  0
  6 95  1  0  0  0
  7  8  2  0  0  0
  7 26  1  0  0  0
  7 29  1  0  0  0
  8  9  1  0  0  0
  8 22  1  0  0  0
  9 10  1  0  0  0
  9 27  2  0  0  0
 10 11  2  0  0  0
 10 15  1  0  0  0
 11 12  1  0  0  0
 11 96  1  0  0  0
 12 13  2  0  0  0
 12 97  1  0  0  0
 13 14  1  0  0  0
 13 31  1  0  0  0
 14 15  2  0  0  0
 14 98  1  0  0  0
 15 99  1  0  0  0
 16 17  2  0  0  0
 16 21  1  0  0  0
 16 31  1  0  0  0
 17 18  1  0  0  0
 17100  1  0  0  0
 18 19  2  0  0  0
 18101  1  0  0  0
 19 20  1  0  0  0
 19 24  1  0  0  0
 20 21  2  0  0  0
 20102  1  0  0  0
 21 23  1  0  0  0
 22 28  1  0  0  0
 22 32  2  0  0  0
 26 27  1  0  0  0
 28103  1  0  0  0
 28104  1  0  0  0
 29105  1  0  0  0
 29106  1  0  0  0
 33 34  1  0  0  0
 33 66  1  0  0  0
 33 70  2  0  0  0
 34 36  1  0  0  0
 34 59  1  0  0  0
 34107  1  0  0  0
 35 44  2  0  0  0
 35 45  1  0  0  0
 35 68  1  0  0  0
 36 56  1  0  0  0
 36108  1  0  0  0
 37 39  1  0  0  0
 37 47  1  0  0  0
 37 66  1  0  0  0
 37109  1  0  0  0
 38 43  2  0  0  0
 38 46  1  0  0  0
 38 47  1  0  0  0
 39 64  1  0  0  0
 39 67  2  0  0  0
 40 52  1  0  0  0
 40 53  2  0  0  0
 40 58  1  0  0  0
 41110  1  0  0  0
 41111  1  0  0  0
 41112  1  0  0  0
 41 48  1  0  0  0
 42 43  1  0  0  0
 42 66  1  0  0  0
 42113  1  0  0  0
 42114  1  0  0  0
 43 44  1  0  0  0
 44115  1  0  0  0
 45 46  2  0  0  0
 45116  1  0  0  0
 46117  1  0  0  0
 47118  1  0  0  0
 47119  1  0  0  0
 48 56  1  0  0  0
 48 65  1  0  0  0
 48120  1  0  0  0
 49 50  1  0  0  0
 49 53  1  0  0  0
 49 64  1  0  0  0
 49121  1  0  0  0
 50 51  1  0  0  0
 50122  1  0  0  0
 50123  1  0  0  0
 51 52  1  0  0  0
 51124  1  0  0  0
 51125  1  0  0  0
 52126  1  0  0  0
 52127  1  0  0  0
 53 54  1  0  0  0
 54 55  2  0  0  0
 54128  1  0  0  0
 55 57  1  0  0  0
 55129  1  0  0  0
 56 69  2  0  0  0
 57 58  2  0  0  0
 57130  1  0  0  0
 58131  1  0  0  0
 59 60  1  0  0  0
 59 61  1  0  0  0
 59 62  1  0  0  0
 60132  1  0  0  0
 60133  1  0  0  0
 60134  1  0  0  0
 61135  1  0  0  0
 61136  1  0  0  0
 61137  1  0  0  0
 62138  1  0  0  0
 62139  1  0  0  0
 62140  1  0  0  0
 63 65  1  0  0  0
 63141  1  0  0  0
 63142  1  0  0  0
 63143  1  0  0  0
 64144  1  0  0  0
 65145  1  0  0  0
 68 80  1  0  0  0
 71 72  2  0  0  0
 71 74  1  0  0  0
 71146  1  0  0  0
 72 75  1  0  0  0
 72147  1  0  0  0
 73 74  2  0  0  0
 73 76  1  0  0  0
 73148  1  0  0  0
 74 77  1  0  0  0
 75 76  2  0  0  0
 75 83  1  0  0  0
 76 86  1  0  0  0
 77 81  2  0  0  0
 77 84  1  0  0  0
 78 82  1  0  0  0
 78 84  1  0  0  0
 78 85  2  0  0  0
 79 80  1  0  0  0
 79 85  1  0  0  0
 79149  1  0  0  0
 79150  1  0  0  0
 80151  1  0  0  0
 80152  1  0  0  0
 81153  1  0  0  0
 81154  1  0  0  0
 82155  1  0  0  0
 82156  1  0  0  0
 83157  1  0  0  0
 84158  1  0  0  0
 85159  1  0  0  0
M  CHG  2  81   1  85   1
M  ISO  4   1 100  68 101  80 101  83 100
M  END
> <chiral flag>
0

> <version>
0

> <s_m_source_file>
/data/baiqing/PycharmProjects/Reinvent-master-3.2/result/LINK_invent/BTK/process_docking_weight1_custom_product_contain_oxygen_bond_distance_aromatic_linkinvent_7_9_3/rearranged_h_0075.sdf

> <i_m_source_file_index>
87

> <r_mmod_Potential_Energy-OPLS-2005>
-392.830261230469

> <r_mmod_Stretch_Energy-OPLS-2005>
38.3981590270996

> <r_mmod_Bend_Energy-OPLS-2005>
129.959213256836

> <r_mmod_Torsional_Energy-OPLS-2005>
227.098587036133

> <r_mmod_Improper_Torsional_Energy-OPLS-2005>
5.2129077911377

> <r_mmod_Van_der_Waal_Energy-OPLS-2005>
166.460372924805

> <r_mmod_Electrostatic_Energy-OPLS-2005>
45.1013679504395

> <r_mmod_Solvation_Energy-OPLS-2005>
-1015.59515380859

> <b_mmod_Minimization_Converged-OPLS-2005>
0

> <r_mmod_RMS_Derivative-OPLS-2005>
0.227053269743919

$$$$
88
                    3D
 Structure written by MMmdl.
177186  0  0  1  0            999 V2000
  -30.8065  -14.3091   20.7508 C   0  0  0  0  0  0
  -30.4149  -12.2943   19.3741 C   0  0  0  0  0  0
  -29.4751  -12.5446   18.1820 C   0  0  0  0  0  0
  -28.0028  -12.3877   18.6027 C   0  0  0  0  0  0
  -27.6676  -13.2008   19.8798 C   0  0  2  0  0  0
  -28.7066  -12.9278   20.9894 C   0  0  0  0  0  0
  -25.2623  -13.8161   20.5666 C   0  0  0  0  0  0
  -24.1874  -13.0452   20.9157 C   0  0  0  0  0  0
  -24.6419  -11.6905   20.8741 C   0  0  0  0  0  0
  -23.9088  -10.4297   21.0410 C   0  0  0  0  0  0
  -24.3644   -9.4203   21.9181 C   0  0  0  0  0  0
  -23.6312   -8.2251   22.0760 C   0  0  0  0  0  0
  -22.4289   -8.0297   21.3549 C   0  0  0  0  0  0
  -21.9927   -9.0270   20.4650 C   0  0  0  0  0  0
  -22.7269  -10.2142   20.3055 C   0  0  0  0  0  0
  -21.6851   -6.0753   22.5290 C   0  0  0  0  0  0
  -21.4011   -6.5655   23.8228 C   0  0  0  0  0  0
  -21.3652   -5.6802   24.9186 C   0  0  0  0  0  0
  -21.6047   -4.3063   24.7231 C   0  0  0  0  0  0
  -21.8817   -3.8159   23.4350 C   0  0  0  0  0  0
  -21.9190   -4.6982   22.3406 C   0  0  0  0  0  0
  -22.7891  -13.5232   21.1835 C   0  0  0  0  0  0
  -22.1653   -4.2173   21.0982 F   0  0  0  0  0  0
  -21.5631   -3.4542   25.7736 F   0  0  0  0  0  0
  -30.0519  -13.2199   20.4575 N   0  0  0  0  0  0
  -26.3066  -12.9327   20.3381 N   0  0  0  0  0  0
  -25.9337  -11.6490   20.5758 N   0  0  0  0  0  0
  -22.0531  -12.8221   22.0383 N   0  0  0  0  0  0
  -25.4366  -15.1890   20.4074 N   0  0  0  0  0  0
  -31.7876  -14.6570   20.0827 O   0  0  0  0  0  0
  -21.6639   -6.8900   21.4260 O   0  0  0  0  0  0
  -22.3568  -14.5536   20.6676 O   0  0  0  0  0  0
  -24.6097  -31.8708   23.2167 C   0  0  0  0  0  0
  -25.8988  -32.4862   23.8448 C   0  0  1  0  0  0
  -27.2253  -27.4641   20.0962 C   0  0  0  0  0  0
  -25.5870  -33.8660   24.2381 N   0  0  0  0  0  0
  -23.4001  -30.4971   21.5554 C   0  0  2  0  0  0
  -24.8481  -28.9731   20.1122 C   0  0  0  0  0  0
  -22.7392  -29.4689   22.5027 C   0  0  0  0  0  0
  -18.0280  -28.1362   22.8464 C   0  0  0  0  0  0
  -24.1496  -36.7348   23.2648 C   0  0  0  0  0  0
  -25.9260  -30.8427   21.3721 C   0  0  0  0  0  0
  -26.0013  -29.4785   20.7227 C   0  0  0  0  0  0
  -27.1946  -28.7240   20.7300 C   0  0  0  0  0  0
  -26.0774  -26.9956   19.4281 C   0  0  0  0  0  0
  -24.8778  -27.7276   19.4629 C   0  0  0  0  0  0
  -23.6082  -29.8328   20.1682 C   0  0  0  0  0  0
  -25.4113  -36.3161   24.0359 C   0  0  1  0  0  0
  -20.5875  -28.3648   23.1310 C   0  0  2  0  0  0
  -20.6798  -26.9388   22.5394 C   0  0  0  0  0  0
  -19.5782  -26.6372   21.5196 C   0  0  0  0  0  0
  -18.1953  -26.7898   22.1599 C   0  0  0  0  0  0
  -19.1526  -28.8822   23.2897 C   0  0  0  0  0  0
  -18.9450  -30.1440   23.8884 C   0  0  0  0  0  0
  -17.6449  -30.6565   24.0546 C   0  0  0  0  0  0
  -25.9027  -34.9506   23.5175 C   0  0  0  0  0  0
  -16.5342  -29.9049   23.6321 C   0  0  0  0  0  0
  -16.7265  -28.6476   23.0322 C   0  0  0  0  0  0
  -26.4410  -31.6606   25.0742 C   0  0  0  0  0  0
  -25.3659  -31.3666   26.1472 C   0  0  0  0  0  0
  -27.0228  -30.3066   24.6085 C   0  0  0  0  0  0
  -27.6022  -32.4289   25.7465 C   0  0  0  0  0  0
  -27.5600  -37.1824   24.8459 C   0  0  0  0  0  0
  -21.4125  -29.3042   22.3735 N   0  0  0  0  0  0
  -26.4319  -37.3828   23.9398 N   0  0  0  0  0  0
  -24.6632  -31.0826   22.1068 N   0  0  0  0  0  0
  -23.4146  -28.8182   23.3044 O   0  0  0  0  0  0
  -28.3501  -26.6824   20.1043 O   0  0  0  0  0  0
  -26.5585  -34.8932   22.4736 O   0  0  0  0  0  0
  -23.5297  -32.1422   23.7580 O   0  0  0  0  0  0
  -32.8809  -17.3021   24.3973 C   0  0  0  0  0  0
  -32.3616  -15.1474   23.3866 C   0  0  0  0  0  0
  -31.0313  -17.1204   22.8343 C   0  0  0  0  0  0
  -33.1579  -15.9269   24.2490 C   0  0  0  0  0  0
  -31.8206  -17.9285   23.6947 C   0  0  0  0  0  0
  -31.3013  -15.7440   22.6763 C   0  0  0  0  0  0
  -29.9045  -21.2459   24.0122 C   0  0  0  0  0  0
  -28.3237  -23.9279   22.8072 C   0  0  0  0  0  0
  -30.2008  -19.8118   23.5348 C   0  0  0  0  0  0
  -32.1792  -21.6166   24.5067 C   0  0  0  0  0  0
  -32.3556  -20.1091   24.7757 C   0  0  0  0  0  0
  -26.2796  -25.0785   22.0124 C   0  0  0  0  0  0
  -27.7379  -23.8419   20.3315 C   0  0  0  0  0  0
  -28.4465  -21.6713   23.9086 C   0  0  0  0  0  0
  -28.6052  -25.9952   21.3430 C   0  0  0  0  0  0
  -34.2910  -15.2981   25.0425 C   0  0  0  0  0  0
  -27.7348  -24.7194   21.6073 C   0  0  0  0  0  0
  -30.7859  -22.0391   24.4905 N   0  0  0  0  0  0
  -31.5532  -19.3126   23.8443 N   0  0  0  0  0  0
  -35.5366  -15.9900   24.8308 N   0  0  0  0  0  0
  -30.4518  -14.9442   21.8760 N   0  0  0  0  0  0
  -28.1903  -22.5918   22.7955 N   0  0  0  0  0  0
  -28.8183  -24.5309   23.7622 O   0  0  0  0  0  0
  -33.9974  -15.3660   26.3382 F   0  0  0  0  0  0
  -34.4710  -14.0189   24.7200 F   0  0  0  0  0  0
  -31.4563  -12.4031   19.0657 H   0  0  0  0  0  0
  -30.3173  -11.2646   19.7232 H   0  0  0  0  0  0
  -29.7076  -11.8598   17.3649 H   0  0  0  0  0  0
  -29.6392  -13.5516   17.7937 H   0  0  0  0  0  0
  -27.8118  -11.3270   18.7713 H   0  0  0  0  0  0
  -27.3467  -12.6853   17.7844 H   0  0  0  0  0  0
  -27.7291  -14.2569   19.6165 H   0  0  0  0  0  0
  -28.6700  -11.8783   21.2862 H   0  0  0  0  0  0
  -28.4497  -13.4893   21.8872 H   0  0  0  0  0  0
  -25.2795   -9.5677   22.4743 H   0  0  0  0  0  0
  -24.0025   -7.4635   22.7464 H   0  0  0  0  0  0
  -21.0865   -8.8795   19.8939 H   0  0  0  0  0  0
  -22.3742  -10.9688   19.6161 H   0  0  0  0  0  0
  -21.2000   -7.6157   23.9745 H   0  0  0  0  0  0
  -21.1476   -6.0521   25.9091 H   0  0  0  0  0  0
  -22.0602   -2.7625   23.2841 H   0  0  0  0  0  0
  -22.4139  -11.9871   22.4758 H   0  0  0  0  0  0
  -21.1153  -13.1253   22.2601 H   0  0  0  0  0  0
  -24.6747  -15.8492   20.5147 H   0  0  0  0  0  0
  -26.2995  -15.6249   20.1062 H   0  0  0  0  0  0
  -26.7042  -32.5595   23.1221 H   0  0  0  0  0  0
  -25.0041  -33.9841   25.0532 H   0  0  0  0  0  0
  -22.6906  -31.3155   21.4184 H   0  0  0  0  0  0
  -23.3785  -35.9664   23.3323 H   0  0  0  0  0  0
  -24.3619  -36.8936   22.2064 H   0  0  0  0  0  0
  -23.7189  -37.6542   23.6623 H   0  0  0  0  0  0
  -26.0384  -31.6115   20.6051 H   0  0  0  0  0  0
  -26.8100  -30.8913   21.9948 H   0  0  0  0  0  0
  -28.0813  -29.0996   21.2201 H   0  0  0  0  0  0
  -26.1016  -26.0505   18.9066 H   0  0  0  0  0  0
  -23.9934  -27.3421   18.9750 H   0  0  0  0  0  0
  -23.7073  -30.6040   19.4034 H   0  0  0  0  0  0
  -22.7324  -29.2497   19.8791 H   0  0  0  0  0  0
  -25.1284  -36.2089   25.0854 H   0  0  0  0  0  0
  -21.0003  -28.3192   24.1415 H   0  0  0  0  0  0
  -20.5741  -26.2205   23.3541 H   0  0  0  0  0  0
  -21.6663  -26.7460   22.1169 H   0  0  0  0  0  0
  -19.6916  -25.6281   21.1217 H   0  0  0  0  0  0
  -19.6740  -27.3174   20.6731 H   0  0  0  0  0  0
  -17.4216  -26.6601   21.4003 H   0  0  0  0  0  0
  -18.0430  -26.0050   22.9020 H   0  0  0  0  0  0
  -19.7922  -30.7294   24.2211 H   0  0  0  0  0  0
  -17.4988  -31.6230   24.5172 H   0  0  0  0  0  0
  -15.5330  -30.2929   23.7702 H   0  0  0  0  0  0
  -15.8667  -28.0802   22.7013 H   0  0  0  0  0  0
  -24.5899  -30.6973   25.7767 H   0  0  0  0  0  0
  -24.8787  -32.2781   26.4937 H   0  0  0  0  0  0
  -25.8010  -30.8815   27.0209 H   0  0  0  0  0  0
  -26.2762  -29.6842   24.1162 H   0  0  0  0  0  0
  -27.4011  -29.7320   25.4539 H   0  0  0  0  0  0
  -27.8578  -30.4446   23.9225 H   0  0  0  0  0  0
  -27.2740  -33.3634   26.2053 H   0  0  0  0  0  0
  -28.3816  -32.6759   25.0230 H   0  0  0  0  0  0
  -28.0674  -31.8353   26.5361 H   0  0  0  0  0  0
  -28.2617  -38.0131   24.7565 H   0  0  0  0  0  0
  -28.1091  -36.2660   24.6228 H   0  0  0  0  0  0
  -27.2316  -37.1426   25.8862 H   0  0  0  0  0  0
  -20.9254  -29.8782   21.6992 H   0  0  0  0  0  0
  -26.0246  -38.2924   24.1395 H   0  0  0  0  0  0
  -33.5063  -17.8516   25.0845 H   0  0  0  0  0  0
  -32.5542  -14.0892   23.2855 H   0  0  0  0  0  0
  -30.2065  -17.5413   22.2786 H   0  0  0  0  0  0
  -30.0373  -19.7805   22.4557 H   0  0  0  0  0  0
  -29.4644  -19.1445   23.9864 H   0  0  0  0  0  0
  -32.6516  -21.8868   23.5613 H   0  0  0  0  0  0
  -32.7176  -22.1702   25.2775 H   0  0  0  0  0  0
  -32.0663  -19.8703   25.8009 H   0  0  0  0  0  0
  -33.4168  -19.8857   24.6695 H   0  0  0  0  0  0
  -25.8383  -24.3341   22.6763 H   0  0  0  0  0  0
  -25.6107  -25.1345   21.1549 H   0  0  0  0  0  0
  -26.2269  -26.0306   22.5384 H   0  0  0  0  0  0
  -27.0114  -23.0311   20.3808 H   0  0  0  0  0  0
  -28.7236  -23.4150   20.1430 H   0  0  0  0  0  0
  -27.4881  -24.4228   19.4470 H   0  0  0  0  0  0
  -28.1332  -22.1074   24.8578 H   0  0  0  0  0  0
  -27.8232  -20.7889   23.7672 H   0  0  0  0  0  0
  -29.6567  -25.7058   21.3030 H   0  0  0  0  0  0
  -28.5357  -26.6828   22.1883 H   0  0  0  0  0  0
  -35.8541  -16.3097   25.7363 H   0  0  0  0  0  0
  -35.3213  -16.8347   24.3182 H   0  0  0  0  0  0
  -29.5936  -14.6346   22.3055 H   0  0  0  0  0  0
  -27.7752  -22.1911   21.9657 H   0  0  0  0  0  0
  1 25  1  0  0  0
  1 30  2  0  0  0
  1 91  1  0  0  0
  2  3  1  0  0  0
  2 25  1  0  0  0
  2 96  1  0  0  0
  2 97  1  0  0  0
  3  4  1  0  0  0
  3 98  1  0  0  0
  3 99  1  0  0  0
  4  5  1  0  0  0
  4100  1  0  0  0
  4101  1  0  0  0
  5  6  1  0  0  0
  5 26  1  0  0  0
  5102  1  0  0  0
  6 25  1  0  0  0
  6103  1  0  0  0
  6104  1  0  0  0
  7  8  2  0  0  0
  7 26  1  0  0  0
  7 29  1  0  0  0
  8  9  1  0  0  0
  8 22  1  0  0  0
  9 10  1  0  0  0
  9 27  2  0  0  0
 10 11  2  0  0  0
 10 15  1  0  0  0
 11 12  1  0  0  0
 11105  1  0  0  0
 12 13  2  0  0  0
 12106  1  0  0  0
 13 14  1  0  0  0
 13 31  1  0  0  0
 14 15  2  0  0  0
 14107  1  0  0  0
 15108  1  0  0  0
 16 17  2  0  0  0
 16 21  1  0  0  0
 16 31  1  0  0  0
 17 18  1  0  0  0
 17109  1  0  0  0
 18 19  2  0  0  0
 18110  1  0  0  0
 19 20  1  0  0  0
 19 24  1  0  0  0
 20 21  2  0  0  0
 20111  1  0  0  0
 21 23  1  0  0  0
 22 28  1  0  0  0
 22 32  2  0  0  0
 26 27  1  0  0  0
 28112  1  0  0  0
 28113  1  0  0  0
 29114  1  0  0  0
 29115  1  0  0  0
 33 34  1  0  0  0
 33 66  1  0  0  0
 33 70  2  0  0  0
 34 36  1  0  0  0
 34 59  1  0  0  0
 34116  1  0  0  0
 35 44  2  0  0  0
 35 45  1  0  0  0
 35 68  1  0  0  0
 36 56  1  0  0  0
 36117  1  0  0  0
 37 39  1  0  0  0
 37 47  1  0  0  0
 37 66  1  0  0  0
 37118  1  0  0  0
 38 43  2  0  0  0
 38 46  1  0  0  0
 38 47  1  0  0  0
 39 64  1  0  0  0
 39 67  2  0  0  0
 40 52  1  0  0  0
 40 53  2  0  0  0
 40 58  1  0  0  0
 41119  1  0  0  0
 41120  1  0  0  0
 41121  1  0  0  0
 41 48  1  0  0  0
 42 43  1  0  0  0
 42 66  1  0  0  0
 42122  1  0  0  0
 42123  1  0  0  0
 43 44  1  0  0  0
 44124  1  0  0  0
 45 46  2  0  0  0
 45125  1  0  0  0
 46126  1  0  0  0
 47127  1  0  0  0
 47128  1  0  0  0
 48 56  1  0  0  0
 48 65  1  0  0  0
 48129  1  0  0  0
 49 50  1  0  0  0
 49 53  1  0  0  0
 49 64  1  0  0  0
 49130  1  0  0  0
 50 51  1  0  0  0
 50131  1  0  0  0
 50132  1  0  0  0
 51 52  1  0  0  0
 51133  1  0  0  0
 51134  1  0  0  0
 52135  1  0  0  0
 52136  1  0  0  0
 53 54  1  0  0  0
 54 55  2  0  0  0
 54137  1  0  0  0
 55 57  1  0  0  0
 55138  1  0  0  0
 56 69  2  0  0  0
 57 58  2  0  0  0
 57139  1  0  0  0
 58140  1  0  0  0
 59 60  1  0  0  0
 59 61  1  0  0  0
 59 62  1  0  0  0
 60141  1  0  0  0
 60142  1  0  0  0
 60143  1  0  0  0
 61144  1  0  0  0
 61145  1  0  0  0
 61146  1  0  0  0
 62147  1  0  0  0
 62148  1  0  0  0
 62149  1  0  0  0
 63 65  1  0  0  0
 63150  1  0  0  0
 63151  1  0  0  0
 63152  1  0  0  0
 64153  1  0  0  0
 65154  1  0  0  0
 68 85  1  0  0  0
 71 74  2  0  0  0
 71 75  1  0  0  0
 71155  1  0  0  0
 72 74  1  0  0  0
 72 76  2  0  0  0
 72156  1  0  0  0
 73 75  2  0  0  0
 73 76  1  0  0  0
 73157  1  0  0  0
 74 86  1  0  0  0
 75 89  1  0  0  0
 76 91  1  0  0  0
 77 79  1  0  0  0
 77 84  1  0  0  0
 77 88  2  0  0  0
 78 87  1  0  0  0
 78 92  1  0  0  0
 78 93  2  0  0  0
 79 89  1  0  0  0
 79158  1  0  0  0
 79159  1  0  0  0
 80 81  1  0  0  0
 80 88  1  0  0  0
 80160  1  0  0  0
 80161  1  0  0  0
 81 89  1  0  0  0
 81162  1  0  0  0
 81163  1  0  0  0
 82164  1  0  0  0
 82165  1  0  0  0
 82166  1  0  0  0
 82 87  1  0  0  0
 83 87  1  0  0  0
 83167  1  0  0  0
 83168  1  0  0  0
 83169  1  0  0  0
 84 92  1  0  0  0
 84170  1  0  0  0
 84171  1  0  0  0
 85 87  1  0  0  0
 85172  1  0  0  0
 85173  1  0  0  0
 86 90  1  0  0  0
 86 94  1  0  0  0
 86 95  1  0  0  0
 90174  1  0  0  0
 90175  1  0  0  0
 91176  1  0  0  0
 92177  1  0  0  0
M  ISO  4   1 100  68 101  85 101  91 100
M  END
> <chiral flag>
0

> <version>
0

> <s_m_source_file>
/data/baiqing/PycharmProjects/Reinvent-master-3.2/result/LINK_invent/BTK/process_docking_weight1_custom_product_contain_oxygen_bond_distance_aromatic_linkinvent_7_9_3/rearranged_h_0075.sdf

> <i_m_source_file_index>
88

> <r_mmod_Potential_Energy-OPLS-2005>
-118.45825958252

> <r_mmod_Stretch_Energy-OPLS-2005>
41.8024864196777

> <r_mmod_Bend_Energy-OPLS-2005>
111.289588928223

> <r_mmod_Torsional_Energy-OPLS-2005>
274.242126464844

> <r_mmod_Improper_Torsional_Energy-OPLS-2005>
4.88398170471191

> <r_mmod_Van_der_Waal_Energy-OPLS-2005>
189.271347045898

> <r_mmod_Electrostatic_Energy-OPLS-2005>
-456.674377441406

> <r_mmod_Solvation_Energy-OPLS-2005>
-293.358520507812

> <b_mmod_Minimization_Converged-OPLS-2005>
0

> <r_mmod_RMS_Derivative-OPLS-2005>
3.55779504776001

$$$$
89
                    3D
 Structure written by MMmdl.
155164  0  0  1  0            999 V2000
  -30.7062  -14.5073   20.5811 C   0  0  0  0  0  0
  -30.4184  -12.3354   19.4326 C   0  0  0  0  0  0
  -29.4952  -12.5038   18.2100 C   0  0  0  0  0  0
  -28.0177  -12.3582   18.6228 C   0  0  0  0  0  0
  -27.6543  -13.2136   19.8665 C   0  0  2  0  0  0
  -28.6938  -13.0321   20.9938 C   0  0  0  0  0  0
  -25.2552  -13.8170   20.5667 C   0  0  0  0  0  0
  -24.1820  -13.0437   20.9177 C   0  0  0  0  0  0
  -24.6386  -11.6907   20.8729 C   0  0  0  0  0  0
  -23.9058  -10.4289   21.0400 C   0  0  0  0  0  0
  -24.3618   -9.4208   21.9176 C   0  0  0  0  0  0
  -23.6297   -8.2242   22.0747 C   0  0  0  0  0  0
  -22.4276   -8.0281   21.3541 C   0  0  0  0  0  0
  -21.9905   -9.0250   20.4643 C   0  0  0  0  0  0
  -22.7231  -10.2130   20.3052 C   0  0  0  0  0  0
  -21.6852   -6.0741   22.5282 C   0  0  0  0  0  0
  -21.4015   -6.5645   23.8216 C   0  0  0  0  0  0
  -21.3655   -5.6794   24.9174 C   0  0  0  0  0  0
  -21.6041   -4.3055   24.7224 C   0  0  0  0  0  0
  -21.8820   -3.8147   23.4345 C   0  0  0  0  0  0
  -21.9194   -4.6967   22.3404 C   0  0  0  0  0  0
  -22.7842  -13.5228   21.1850 C   0  0  0  0  0  0
  -22.1665   -4.2158   21.0981 F   0  0  0  0  0  0
  -21.5626   -3.4539   25.7734 F   0  0  0  0  0  0
  -30.0195  -13.3386   20.4355 N   0  0  0  0  0  0
  -26.2982  -12.9351   20.3314 N   0  0  0  0  0  0
  -25.9310  -11.6504   20.5745 N   0  0  0  0  0  0
  -22.0490  -12.8220   22.0411 N   0  0  0  0  0  0
  -25.4271  -15.1889   20.4095 N   0  0  0  0  0  0
  -31.8369  -14.6616   20.1115 O   0  0  0  0  0  0
  -21.6639   -6.8879   21.4240 O   0  0  0  0  0  0
  -22.3524  -14.5531   20.6695 O   0  0  0  0  0  0
  -24.6174  -31.8662   23.2084 C   0  0  0  0  0  0
  -25.9062  -32.4805   23.8382 C   0  0  1  0  0  0
  -27.2272  -27.4120   20.1039 C   0  0  0  0  0  0
  -25.5910  -33.8605   24.2314 N   0  0  0  0  0  0
  -23.4066  -30.4898   21.5487 C   0  0  2  0  0  0
  -24.8553  -28.9567   20.1089 C   0  0  0  0  0  0
  -22.7429  -29.4645   22.4965 C   0  0  0  0  0  0
  -18.0281  -28.1372   22.8484 C   0  0  0  0  0  0
  -24.1489  -36.7308   23.2634 C   0  0  0  0  0  0
  -25.9384  -30.8259   21.3654 C   0  0  0  0  0  0
  -26.0173  -29.4604   20.7095 C   0  0  0  0  0  0
  -27.2106  -28.6949   20.7055 C   0  0  0  0  0  0
  -26.0529  -26.9303   19.4932 C   0  0  0  0  0  0
  -24.8689  -27.6921   19.4954 C   0  0  0  0  0  0
  -23.6168  -29.8248   20.1621 C   0  0  0  0  0  0
  -25.4104  -36.3098   24.0335 C   0  0  1  0  0  0
  -20.5873  -28.3660   23.1309 C   0  0  2  0  0  0
  -20.6766  -26.9390   22.5419 C   0  0  0  0  0  0
  -19.5748  -26.6379   21.5209 C   0  0  0  0  0  0
  -18.1925  -26.7924   22.1610 C   0  0  0  0  0  0
  -19.1531  -28.8832   23.2894 C   0  0  0  0  0  0
  -18.9457  -30.1440   23.8900 C   0  0  0  0  0  0
  -17.6459  -30.6569   24.0569 C   0  0  0  0  0  0
  -25.9039  -34.9466   23.5120 C   0  0  0  0  0  0
  -16.5352  -29.9072   23.6328 C   0  0  0  0  0  0
  -16.7271  -28.6494   23.0342 C   0  0  0  0  0  0
  -26.4481  -31.6587   25.0715 C   0  0  0  0  0  0
  -25.3752  -31.3735   26.1474 C   0  0  0  0  0  0
  -27.0288  -30.3012   24.6106 C   0  0  0  0  0  0
  -27.6058  -32.4305   25.7468 C   0  0  0  0  0  0
  -27.5589  -37.1797   24.8454 C   0  0  0  0  0  0
  -21.4151  -29.3023   22.3711 N   0  0  0  0  0  0
  -26.4289  -37.3785   23.9414 N   0  0  0  0  0  0
  -24.6722  -31.0748   22.0992 N   0  0  0  0  0  0
  -23.4196  -28.8192   23.3015 O   0  0  0  0  0  0
  -28.3274  -26.5799   20.1420 O   0  0  0  0  0  0
  -26.5600  -34.8922   22.4683 O   0  0  0  0  0  0
  -23.5362  -32.1416   23.7469 O   0  0  0  0  0  0
  -30.2159  -18.8499   20.1446 C   0  0  0  0  0  0
  -29.7836  -20.1899   19.9738 C   0  0  0  0  0  0
  -28.7980  -20.1507   22.1484 C   0  0  0  0  0  0
  -29.9805  -18.1461   21.3464 C   0  0  0  0  0  0
  -29.0942  -20.9105   20.9825 C   0  0  0  0  0  0
  -29.2201  -18.8097   22.3413 C   0  0  0  0  0  0
  -28.5080  -24.2834   21.0313 C   0  0  0  0  0  0
  -28.9171  -23.3847   19.9749 C   0  0  0  0  0  0
  -28.2637  -25.6169   21.1326 C   0  0  0  0  0  0
  -28.4366  -23.1325   22.0200 C   0  0  0  0  0  0
  -30.7024  -16.7993   21.6053 C   0  0  0  0  0  0
  -28.7172  -22.2975   20.8440 N   0  0  0  0  0  0
  -28.9067  -18.1786   23.5465 N   0  0  0  0  0  0
  -30.0619  -15.5310   21.1873 N   0  0  0  0  0  0
  -29.3453  -23.5774   18.8549 O   0  0  0  0  0  0
  -31.4625  -12.4344   19.1298 H   0  0  0  0  0  0
  -30.3261  -11.3315   19.8500 H   0  0  0  0  0  0
  -29.7447  -11.7664   17.4455 H   0  0  0  0  0  0
  -29.6570  -13.4825   17.7551 H   0  0  0  0  0  0
  -27.8381  -11.3038   18.8362 H   0  0  0  0  0  0
  -27.3661  -12.6128   17.7859 H   0  0  0  0  0  0
  -27.6875  -14.2561   19.5504 H   0  0  0  0  0  0
  -28.6791  -12.0066   21.3654 H   0  0  0  0  0  0
  -28.4465  -13.6584   21.8517 H   0  0  0  0  0  0
  -25.2766   -9.5691   22.4744 H   0  0  0  0  0  0
  -24.0022   -7.4630   22.7453 H   0  0  0  0  0  0
  -21.0841   -8.8759   19.8941 H   0  0  0  0  0  0
  -22.3685  -10.9670   19.6164 H   0  0  0  0  0  0
  -21.2006   -7.6154   23.9722 H   0  0  0  0  0  0
  -21.1478   -6.0521   25.9078 H   0  0  0  0  0  0
  -22.0599   -2.7610   23.2839 H   0  0  0  0  0  0
  -22.4109  -11.9888   22.4812 H   0  0  0  0  0  0
  -21.1105  -13.1238   22.2608 H   0  0  0  0  0  0
  -24.6617  -15.8460   20.5184 H   0  0  0  0  0  0
  -26.2851  -15.6292   20.1011 H   0  0  0  0  0  0
  -26.7131  -32.5514   23.1143 H   0  0  0  0  0  0
  -25.0079  -33.9759   25.0473 H   0  0  0  0  0  0
  -22.6954  -31.3069   21.4115 H   0  0  0  0  0  0
  -23.3743  -35.9650   23.3295 H   0  0  0  0  0  0
  -24.3594  -36.8922   22.2049 H   0  0  0  0  0  0
  -23.7247  -37.6514   23.6653 H   0  0  0  0  0  0
  -26.0551  -31.5938   20.5992 H   0  0  0  0  0  0
  -26.8243  -30.8768   21.9874 H   0  0  0  0  0  0
  -28.1038  -29.0702   21.1845 H   0  0  0  0  0  0
  -26.0522  -25.9514   19.0350 H   0  0  0  0  0  0
  -23.9752  -27.2982   19.0305 H   0  0  0  0  0  0
  -23.7230  -30.6021   19.4047 H   0  0  0  0  0  0
  -22.7391  -29.2471   19.8663 H   0  0  0  0  0  0
  -25.1274  -36.1956   25.0827 H   0  0  0  0  0  0
  -20.9964  -28.3231   24.1430 H   0  0  0  0  0  0
  -20.5640  -26.2266   23.3609 H   0  0  0  0  0  0
  -21.6641  -26.7413   22.1236 H   0  0  0  0  0  0
  -19.6906  -25.6292   21.1226 H   0  0  0  0  0  0
  -19.6691  -27.3201   20.6752 H   0  0  0  0  0  0
  -17.4197  -26.6677   21.4009 H   0  0  0  0  0  0
  -18.0317  -26.0058   22.8994 H   0  0  0  0  0  0
  -19.7932  -30.7266   24.2252 H   0  0  0  0  0  0
  -17.5010  -31.6246   24.5170 H   0  0  0  0  0  0
  -15.5353  -30.2975   23.7641 H   0  0  0  0  0  0
  -15.8675  -28.0824   22.7038 H   0  0  0  0  0  0
  -24.5928  -30.7053   25.7856 H   0  0  0  0  0  0
  -24.8945  -32.2911   26.4877 H   0  0  0  0  0  0
  -25.8116  -30.8962   27.0256 H   0  0  0  0  0  0
  -26.2826  -29.6787   24.1152 H   0  0  0  0  0  0
  -27.4027  -29.7232   25.4566 H   0  0  0  0  0  0
  -27.8683  -30.4299   23.9270 H   0  0  0  0  0  0
  -27.2674  -33.3592   26.2074 H   0  0  0  0  0  0
  -28.3853  -32.6881   25.0287 H   0  0  0  0  0  0
  -28.0744  -31.8416   26.5362 H   0  0  0  0  0  0
  -28.2596  -38.0106   24.7520 H   0  0  0  0  0  0
  -28.1097  -36.2641   24.6241 H   0  0  0  0  0  0
  -27.2321  -37.1403   25.8861 H   0  0  0  0  0  0
  -20.9306  -29.8761   21.6952 H   0  0  0  0  0  0
  -26.0175  -38.2858   24.1437 H   0  0  0  0  0  0
  -30.7902  -18.3811   19.3580 H   0  0  0  0  0  0
  -30.0275  -20.6878   19.0454 H   0  0  0  0  0  0
  -28.2462  -20.6267   22.9459 H   0  0  0  0  0  0
  -27.9489  -26.0461   22.0748 H   0  0  0  0  0  0
  -27.4670  -22.9062   22.4659 H   0  0  0  0  0  0
  -29.2287  -23.0757   22.7690 H   0  0  0  0  0  0
  -30.9135  -16.7139   22.6717 H   0  0  0  0  0  0
  -31.6906  -16.8932   21.1520 H   0  0  0  0  0  0
  -28.1737  -18.5726   24.1280 H   0  0  0  0  0  0
  -28.9392  -17.1657   23.5922 H   0  0  0  0  0  0
  -29.1202  -15.3593   21.5053 H   0  0  0  0  0  0
  1 25  1  0  0  0
  1 30  2  0  0  0
  1 84  1  0  0  0
  2  3  1  0  0  0
  2 25  1  0  0  0
  2 86  1  0  0  0
  2 87  1  0  0  0
  3  4  1  0  0  0
  3 88  1  0  0  0
  3 89  1  0  0  0
  4  5  1  0  0  0
  4 90  1  0  0  0
  4 91  1  0  0  0
  5  6  1  0  0  0
  5 26  1  0  0  0
  5 92  1  0  0  0
  6 25  1  0  0  0
  6 93  1  0  0  0
  6 94  1  0  0  0
  7  8  2  0  0  0
  7 26  1  0  0  0
  7 29  1  0  0  0
  8  9  1  0  0  0
  8 22  1  0  0  0
  9 10  1  0  0  0
  9 27  2  0  0  0
 10 11  2  0  0  0
 10 15  1  0  0  0
 11 12  1  0  0  0
 11 95  1  0  0  0
 12 13  2  0  0  0
 12 96  1  0  0  0
 13 14  1  0  0  0
 13 31  1  0  0  0
 14 15  2  0  0  0
 14 97  1  0  0  0
 15 98  1  0  0  0
 16 17  2  0  0  0
 16 21  1  0  0  0
 16 31  1  0  0  0
 17 18  1  0  0  0
 17 99  1  0  0  0
 18 19  2  0  0  0
 18100  1  0  0  0
 19 20  1  0  0  0
 19 24  1  0  0  0
 20 21  2  0  0  0
 20101  1  0  0  0
 21 23  1  0  0  0
 22 28  1  0  0  0
 22 32  2  0  0  0
 26 27  1  0  0  0
 28102  1  0  0  0
 28103  1  0  0  0
 29104  1  0  0  0
 29105  1  0  0  0
 33 34  1  0  0  0
 33 66  1  0  0  0
 33 70  2  0  0  0
 34 36  1  0  0  0
 34 59  1  0  0  0
 34106  1  0  0  0
 35 44  2  0  0  0
 35 45  1  0  0  0
 35 68  1  0  0  0
 36 56  1  0  0  0
 36107  1  0  0  0
 37 39  1  0  0  0
 37 47  1  0  0  0
 37 66  1  0  0  0
 37108  1  0  0  0
 38 43  2  0  0  0
 38 46  1  0  0  0
 38 47  1  0  0  0
 39 64  1  0  0  0
 39 67  2  0  0  0
 40 52  1  0  0  0
 40 53  2  0  0  0
 40 58  1  0  0  0
 41109  1  0  0  0
 41110  1  0  0  0
 41111  1  0  0  0
 41 48  1  0  0  0
 42 43  1  0  0  0
 42 66  1  0  0  0
 42112  1  0  0  0
 42113  1  0  0  0
 43 44  1  0  0  0
 44114  1  0  0  0
 45 46  2  0  0  0
 45115  1  0  0  0
 46116  1  0  0  0
 47117  1  0  0  0
 47118  1  0  0  0
 48 56  1  0  0  0
 48 65  1  0  0  0
 48119  1  0  0  0
 49 50  1  0  0  0
 49 53  1  0  0  0
 49 64  1  0  0  0
 49120  1  0  0  0
 50 51  1  0  0  0
 50121  1  0  0  0
 50122  1  0  0  0
 51 52  1  0  0  0
 51123  1  0  0  0
 51124  1  0  0  0
 52125  1  0  0  0
 52126  1  0  0  0
 53 54  1  0  0  0
 54 55  2  0  0  0
 54127  1  0  0  0
 55 57  1  0  0  0
 55128  1  0  0  0
 56 69  2  0  0  0
 57 58  2  0  0  0
 57129  1  0  0  0
 58130  1  0  0  0
 59 60  1  0  0  0
 59 61  1  0  0  0
 59 62  1  0  0  0
 60131  1  0  0  0
 60132  1  0  0  0
 60133  1  0  0  0
 61134  1  0  0  0
 61135  1  0  0  0
 61136  1  0  0  0
 62137  1  0  0  0
 62138  1  0  0  0
 62139  1  0  0  0
 63 65  1  0  0  0
 63140  1  0  0  0
 63141  1  0  0  0
 63142  1  0  0  0
 64143  1  0  0  0
 65144  1  0  0  0
 68 79  1  0  0  0
 71 72  2  0  0  0
 71 74  1  0  0  0
 71145  1  0  0  0
 72 75  1  0  0  0
 72146  1  0  0  0
 73 75  2  0  0  0
 73 76  1  0  0  0
 73147  1  0  0  0
 74 76  2  0  0  0
 74 81  1  0  0  0
 75 82  1  0  0  0
 76 83  1  0  0  0
 77 78  1  0  0  0
 77 79  2  0  0  0
 77 80  1  0  0  0
 78 82  1  0  0  0
 78 85  2  0  0  0
 79148  1  0  0  0
 80 82  1  0  0  0
 80149  1  0  0  0
 80150  1  0  0  0
 81 84  1  0  0  0
 81151  1  0  0  0
 81152  1  0  0  0
 83153  1  0  0  0
 83154  1  0  0  0
 84155  1  0  0  0
M  ISO  4   1 100  68 101  79 101  84 100
M  END
> <chiral flag>
0

> <version>
0

> <s_m_source_file>
/data/baiqing/PycharmProjects/Reinvent-master-3.2/result/LINK_invent/BTK/process_docking_weight1_custom_product_contain_oxygen_bond_distance_aromatic_linkinvent_7_9_3/rearranged_h_0075.sdf

> <i_m_source_file_index>
89

> <r_mmod_Potential_Energy-OPLS-2005>
18.5555229187012

> <r_mmod_Stretch_Energy-OPLS-2005>
44.1867713928223

> <r_mmod_Bend_Energy-OPLS-2005>
183.253128051758

> <r_mmod_Torsional_Energy-OPLS-2005>
231.507598876953

> <r_mmod_Improper_Torsional_Energy-OPLS-2005>
8.58537101745605

> <r_mmod_Van_der_Waal_Energy-OPLS-2005>
143.95947265625

> <r_mmod_Electrostatic_Energy-OPLS-2005>
-379.939727783203

> <r_mmod_Solvation_Energy-OPLS-2005>
-233.28662109375

> <b_mmod_Minimization_Converged-OPLS-2005>
0

> <r_mmod_RMS_Derivative-OPLS-2005>
1.29543173313141

$$$$
90
                    3D
 Structure written by MMmdl.
164173  0  0  1  0            999 V2000
  -30.6912  -14.6092   20.3343 C   0  0  0  0  0  0
  -30.4173  -12.3496   19.4333 C   0  0  0  0  0  0
  -29.4970  -12.4863   18.2035 C   0  0  0  0  0  0
  -28.0225  -12.3363   18.6295 C   0  0  0  0  0  0
  -27.6451  -13.2321   19.8416 C   0  0  2  0  0  0
  -28.7095  -13.1568   20.9646 C   0  0  0  0  0  0
  -25.2512  -13.8203   20.5699 C   0  0  0  0  0  0
  -24.1811  -13.0429   20.9246 C   0  0  0  0  0  0
  -24.6378  -11.6918   20.8730 C   0  0  0  0  0  0
  -23.9044  -10.4297   21.0434 C   0  0  0  0  0  0
  -24.3588   -9.4205   21.9223 C   0  0  0  0  0  0
  -23.6257   -8.2236   22.0787 C   0  0  0  0  0  0
  -22.4244   -8.0265   21.3554 C   0  0  0  0  0  0
  -21.9880   -9.0257   20.4671 C   0  0  0  0  0  0
  -22.7210  -10.2148   20.3088 C   0  0  0  0  0  0
  -21.6855   -6.0710   22.5286 C   0  0  0  0  0  0
  -21.4006   -6.5618   23.8214 C   0  0  0  0  0  0
  -21.3650   -5.6774   24.9173 C   0  0  0  0  0  0
  -21.6027   -4.3039   24.7228 C   0  0  0  0  0  0
  -21.8816   -3.8129   23.4355 C   0  0  0  0  0  0
  -21.9190   -4.6933   22.3405 C   0  0  0  0  0  0
  -22.7811  -13.5228   21.1889 C   0  0  0  0  0  0
  -22.1664   -4.2105   21.0984 F   0  0  0  0  0  0
  -21.5637   -3.4553   25.7757 F   0  0  0  0  0  0
  -30.0237  -13.4220   20.3633 N   0  0  0  0  0  0
  -26.2959  -12.9438   20.3306 N   0  0  0  0  0  0
  -25.9309  -11.6571   20.5715 N   0  0  0  0  0  0
  -22.0390  -12.8283   22.0438 N   0  0  0  0  0  0
  -25.4060  -15.1967   20.4192 N   0  0  0  0  0  0
  -31.9154  -14.6586   20.2002 O   0  0  0  0  0  0
  -21.6603   -6.8862   21.4238 O   0  0  0  0  0  0
  -22.3513  -14.5487   20.6646 O   0  0  0  0  0  0
  -24.6225  -31.8638   23.2012 C   0  0  0  0  0  0
  -25.9101  -32.4783   23.8322 C   0  0  1  0  0  0
  -27.2334  -27.3528   20.0912 C   0  0  0  0  0  0
  -25.5933  -33.8588   24.2256 N   0  0  0  0  0  0
  -23.4169  -30.4846   21.5439 C   0  0  2  0  0  0
  -24.8633  -28.9269   20.1263 C   0  0  0  0  0  0
  -22.7461  -29.4674   22.4976 C   0  0  0  0  0  0
  -18.0286  -28.1388   22.8417 C   0  0  0  0  0  0
  -24.1498  -36.7294   23.2635 C   0  0  0  0  0  0
  -25.9560  -30.7938   21.3724 C   0  0  0  0  0  0
  -26.0309  -29.4170   20.7258 C   0  0  0  0  0  0
  -27.2248  -28.6395   20.7017 C   0  0  0  0  0  0
  -26.0444  -26.8888   19.5018 C   0  0  0  0  0  0
  -24.8674  -27.6629   19.5127 C   0  0  0  0  0  0
  -23.6310  -29.8089   20.1644 C   0  0  0  0  0  0
  -25.4125  -36.3094   24.0307 C   0  0  1  0  0  0
  -20.5887  -28.3711   23.1236 C   0  0  2  0  0  0
  -20.6774  -26.9418   22.5330 C   0  0  0  0  0  0
  -19.5760  -26.6401   21.5183 C   0  0  0  0  0  0
  -18.1997  -26.7929   22.1577 C   0  0  0  0  0  0
  -19.1538  -28.8881   23.2816 C   0  0  0  0  0  0
  -18.9480  -30.1461   23.8826 C   0  0  0  0  0  0
  -17.6485  -30.6587   24.0497 C   0  0  0  0  0  0
  -25.9049  -34.9463   23.5094 C   0  0  0  0  0  0
  -16.5381  -29.9072   23.6297 C   0  0  0  0  0  0
  -16.7270  -28.6520   23.0282 C   0  0  0  0  0  0
  -26.4493  -31.6602   25.0700 C   0  0  0  0  0  0
  -25.3679  -31.3773   26.1383 C   0  0  0  0  0  0
  -27.0337  -30.3018   24.6177 C   0  0  0  0  0  0
  -27.6049  -32.4342   25.7488 C   0  0  0  0  0  0
  -27.5584  -37.1812   24.8466 C   0  0  0  0  0  0
  -21.4157  -29.3114   22.3693 N   0  0  0  0  0  0
  -26.4310  -37.3788   23.9388 N   0  0  0  0  0  0
  -24.6845  -31.0658   22.0940 N   0  0  0  0  0  0
  -23.4216  -28.8235   23.3055 O   0  0  0  0  0  0
  -28.3758  -26.5843   19.8783 O   0  0  0  0  0  0
  -26.5634  -34.8931   22.4664 O   0  0  0  0  0  0
  -23.5399  -32.1471   23.7335 O   0  0  0  0  0  0
  -27.4483  -19.1897   18.2963 C   0  0  0  0  0  0
  -28.2484  -18.0515   18.5303 C   0  0  0  0  0  0
  -27.8123  -20.4519   18.8170 C   0  0  0  0  0  0
  -29.8055  -19.4415   19.7789 C   0  0  0  0  0  0
  -29.4588  -18.1549   19.2467 C   0  0  0  0  0  0
  -28.9847  -20.6026   19.5837 C   0  0  0  0  0  0
  -29.2704  -23.1732   19.8726 C   0  0  0  0  0  0
  -28.5869  -24.0697   20.6398 C   0  0  0  0  0  0
  -27.9066  -23.2508   21.6054 C   0  0  0  0  0  0
  -26.9264  -23.6753   22.4172 C   0  0  0  0  0  0
  -28.4094  -21.8281   21.5207 C   0  0  0  0  0  0
  -31.1036  -17.5213   16.7757 C   0  0  0  0  0  0
  -28.8270  -25.6079   20.8525 C   0  0  0  0  0  0
  -30.7230  -16.4454   17.8152 C   0  0  0  0  0  0
  -30.4126  -16.9161   19.2760 C   0  0  2  0  0  0
  -29.2077  -21.8197   20.2980 N   0  0  0  0  0  0
  -29.9433  -15.7149   20.0482 N   0  0  0  0  0  0
  -31.4696  -12.4004   19.1444 H   0  0  0  0  0  0
  -30.2798  -11.3746   19.9053 H   0  0  0  0  0  0
  -29.7510  -11.7367   17.4519 H   0  0  0  0  0  0
  -29.6486  -13.4575   17.7292 H   0  0  0  0  0  0
  -27.8589  -11.2874   18.8800 H   0  0  0  0  0  0
  -27.3679  -12.5537   17.7858 H   0  0  0  0  0  0
  -27.6311  -14.2517   19.4588 H   0  0  0  0  0  0
  -28.7079  -12.1746   21.4399 H   0  0  0  0  0  0
  -28.4903  -13.8841   21.7494 H   0  0  0  0  0  0
  -25.2761   -9.5661   22.4779 H   0  0  0  0  0  0
  -23.9958   -7.4636   22.7532 H   0  0  0  0  0  0
  -21.0809   -8.8760   19.9009 H   0  0  0  0  0  0
  -22.3681  -10.9656   19.6175 H   0  0  0  0  0  0
  -21.1980   -7.6134   23.9691 H   0  0  0  0  0  0
  -21.1487   -6.0522   25.9071 H   0  0  0  0  0  0
  -22.0596   -2.7585   23.2878 H   0  0  0  0  0  0
  -22.3960  -12.0010   22.4988 H   0  0  0  0  0  0
  -21.0975  -13.1345   22.2473 H   0  0  0  0  0  0
  -24.6109  -15.8157   20.5268 H   0  0  0  0  0  0
  -26.2292  -15.6802   20.0808 H   0  0  0  0  0  0
  -26.7172  -32.5485   23.1076 H   0  0  0  0  0  0
  -25.0053  -33.9757   25.0379 H   0  0  0  0  0  0
  -22.7109  -31.3047   21.3975 H   0  0  0  0  0  0
  -23.3752  -35.9649   23.3313 H   0  0  0  0  0  0
  -24.3569  -36.8903   22.2053 H   0  0  0  0  0  0
  -23.7264  -37.6492   23.6652 H   0  0  0  0  0  0
  -26.0881  -31.5529   20.5986 H   0  0  0  0  0  0
  -26.8369  -30.8487   21.9995 H   0  0  0  0  0  0
  -28.1404  -29.0288   21.1295 H   0  0  0  0  0  0
  -26.0391  -25.9284   19.0061 H   0  0  0  0  0  0
  -23.9754  -27.2819   19.0360 H   0  0  0  0  0  0
  -23.7388  -30.5792   19.3981 H   0  0  0  0  0  0
  -22.7535  -29.2308   19.8714 H   0  0  0  0  0  0
  -25.1318  -36.1933   25.0798 H   0  0  0  0  0  0
  -20.9975  -28.3254   24.1344 H   0  0  0  0  0  0
  -20.5717  -26.2250   23.3472 H   0  0  0  0  0  0
  -21.6621  -26.7439   22.1105 H   0  0  0  0  0  0
  -19.6832  -25.6276   21.1257 H   0  0  0  0  0  0
  -19.6675  -27.3234   20.6695 H   0  0  0  0  0  0
  -17.4328  -26.6660   21.3944 H   0  0  0  0  0  0
  -18.0469  -26.0060   22.8959 H   0  0  0  0  0  0
  -19.7963  -30.7274   24.2197 H   0  0  0  0  0  0
  -17.5026  -31.6265   24.5086 H   0  0  0  0  0  0
  -15.5371  -30.2974   23.7680 H   0  0  0  0  0  0
  -15.8640  -28.0894   22.6974 H   0  0  0  0  0  0
  -24.5867  -30.7137   25.7658 H   0  0  0  0  0  0
  -24.8862  -32.2970   26.4720 H   0  0  0  0  0  0
  -25.7930  -30.8972   27.0195 H   0  0  0  0  0  0
  -26.2930  -29.6767   24.1179 H   0  0  0  0  0  0
  -27.3994  -29.7286   25.4694 H   0  0  0  0  0  0
  -27.8808  -30.4274   23.9431 H   0  0  0  0  0  0
  -27.2646  -33.3641   26.2049 H   0  0  0  0  0  0
  -28.3870  -32.6891   25.0330 H   0  0  0  0  0  0
  -28.0696  -31.8466   26.5415 H   0  0  0  0  0  0
  -28.2618  -38.0099   24.7498 H   0  0  0  0  0  0
  -28.1065  -36.2614   24.6320 H   0  0  0  0  0  0
  -27.2287  -37.1507   25.8873 H   0  0  0  0  0  0
  -20.9325  -29.8913   21.6988 H   0  0  0  0  0  0
  -26.0171  -38.2860   24.1375 H   0  0  0  0  0  0
  -26.5452  -19.0916   17.7088 H   0  0  0  0  0  0
  -27.9575  -17.1055   18.0916 H   0  0  0  0  0  0
  -27.1518  -21.2952   18.6748 H   0  0  0  0  0  0
  -30.7250  -19.5504   20.3399 H   0  0  0  0  0  0
  -30.0288  -23.4139   19.1400 H   0  0  0  0  0  0
  -26.5710  -24.6953   22.3867 H   0  0  0  0  0  0
  -26.4439  -22.9954   23.1009 H   0  0  0  0  0  0
  -27.5727  -21.1259   21.4945 H   0  0  0  0  0  0
  -29.0487  -21.5813   22.3705 H   0  0  0  0  0  0
  -30.5880  -17.3263   15.8329 H   0  0  0  0  0  0
  -32.1742  -17.4924   16.5570 H   0  0  0  0  0  0
  -30.8432  -18.5370   17.0709 H   0  0  0  0  0  0
  -29.9070  -25.7403   20.9375 H   0  0  0  0  0  0
  -28.4360  -25.8949   21.8314 H   0  0  0  0  0  0
  -31.5116  -15.6919   17.8071 H   0  0  0  0  0  0
  -29.8449  -15.9227   17.4226 H   0  0  0  0  0  0
  -31.3465  -17.2549   19.7273 H   0  0  0  0  0  0
  -28.9461  -15.6093   20.1357 H   0  0  0  0  0  0
  1 25  1  0  0  0
  1 30  2  0  0  0
  1 87  1  0  0  0
  2  3  1  0  0  0
  2 25  1  0  0  0
  2 88  1  0  0  0
  2 89  1  0  0  0
  3  4  1  0  0  0
  3 90  1  0  0  0
  3 91  1  0  0  0
  4  5  1  0  0  0
  4 92  1  0  0  0
  4 93  1  0  0  0
  5  6  1  0  0  0
  5 26  1  0  0  0
  5 94  1  0  0  0
  6 25  1  0  0  0
  6 95  1  0  0  0
  6 96  1  0  0  0
  7  8  2  0  0  0
  7 26  1  0  0  0
  7 29  1  0  0  0
  8  9  1  0  0  0
  8 22  1  0  0  0
  9 10  1  0  0  0
  9 27  2  0  0  0
 10 11  2  0  0  0
 10 15  1  0  0  0
 11 12  1  0  0  0
 11 97  1  0  0  0
 12 13  2  0  0  0
 12 98  1  0  0  0
 13 14  1  0  0  0
 13 31  1  0  0  0
 14 15  2  0  0  0
 14 99  1  0  0  0
 15100  1  0  0  0
 16 17  2  0  0  0
 16 21  1  0  0  0
 16 31  1  0  0  0
 17 18  1  0  0  0
 17101  1  0  0  0
 18 19  2  0  0  0
 18102  1  0  0  0
 19 20  1  0  0  0
 19 24  1  0  0  0
 20 21  2  0  0  0
 20103  1  0  0  0
 21 23  1  0  0  0
 22 28  1  0  0  0
 22 32  2  0  0  0
 26 27  1  0  0  0
 28104  1  0  0  0
 28105  1  0  0  0
 29106  1  0  0  0
 29107  1  0  0  0
 33 34  1  0  0  0
 33 66  1  0  0  0
 33 70  2  0  0  0
 34 36  1  0  0  0
 34 59  1  0  0  0
 34108  1  0  0  0
 35 44  2  0  0  0
 35 45  1  0  0  0
 35 68  1  0  0  0
 36 56  1  0  0  0
 36109  1  0  0  0
 37 39  1  0  0  0
 37 47  1  0  0  0
 37 66  1  0  0  0
 37110  1  0  0  0
 38 43  2  0  0  0
 38 46  1  0  0  0
 38 47  1  0  0  0
 39 64  1  0  0  0
 39 67  2  0  0  0
 40 52  1  0  0  0
 40 53  2  0  0  0
 40 58  1  0  0  0
 41111  1  0  0  0
 41112  1  0  0  0
 41113  1  0  0  0
 41 48  1  0  0  0
 42 43  1  0  0  0
 42 66  1  0  0  0
 42114  1  0  0  0
 42115  1  0  0  0
 43 44  1  0  0  0
 44116  1  0  0  0
 45 46  2  0  0  0
 45117  1  0  0  0
 46118  1  0  0  0
 47119  1  0  0  0
 47120  1  0  0  0
 48 56  1  0  0  0
 48 65  1  0  0  0
 48121  1  0  0  0
 49 50  1  0  0  0
 49 53  1  0  0  0
 49 64  1  0  0  0
 49122  1  0  0  0
 50 51  1  0  0  0
 50123  1  0  0  0
 50124  1  0  0  0
 51 52  1  0  0  0
 51125  1  0  0  0
 51126  1  0  0  0
 52127  1  0  0  0
 52128  1  0  0  0
 53 54  1  0  0  0
 54 55  2  0  0  0
 54129  1  0  0  0
 55 57  1  0  0  0
 55130  1  0  0  0
 56 69  2  0  0  0
 57 58  2  0  0  0
 57131  1  0  0  0
 58132  1  0  0  0
 59 60  1  0  0  0
 59 61  1  0  0  0
 59 62  1  0  0  0
 60133  1  0  0  0
 60134  1  0  0  0
 60135  1  0  0  0
 61136  1  0  0  0
 61137  1  0  0  0
 61138  1  0  0  0
 62139  1  0  0  0
 62140  1  0  0  0
 62141  1  0  0  0
 63 65  1  0  0  0
 63142  1  0  0  0
 63143  1  0  0  0
 63144  1  0  0  0
 64145  1  0  0  0
 65146  1  0  0  0
 68 83  1  0  0  0
 71 72  2  0  0  0
 71 73  1  0  0  0
 71147  1  0  0  0
 72 75  1  0  0  0
 72148  1  0  0  0
 73 76  2  0  0  0
 73149  1  0  0  0
 74 75  2  0  0  0
 74 76  1  0  0  0
 74150  1  0  0  0
 75 85  1  0  0  0
 76 86  1  0  0  0
 77 78  2  0  0  0
 77 86  1  0  0  0
 77151  1  0  0  0
 78 79  1  0  0  0
 78 83  1  0  0  0
 79 80  2  0  0  0
 79 81  1  0  0  0
 80152  1  0  0  0
 80153  1  0  0  0
 81 86  1  0  0  0
 81154  1  0  0  0
 81155  1  0  0  0
 82 84  1  0  0  0
 82156  1  0  0  0
 82157  1  0  0  0
 82158  1  0  0  0
 83159  1  0  0  0
 83160  1  0  0  0
 84161  1  0  0  0
 84162  1  0  0  0
 84 85  1  0  0  0
 85 87  1  0  0  0
 85163  1  0  0  0
 87164  1  0  0  0
M  ISO  4   1 100  68 101  83 101  87 100
M  END
> <chiral flag>
0

> <version>
0

> <s_m_source_file>
/data/baiqing/PycharmProjects/Reinvent-master-3.2/result/LINK_invent/BTK/process_docking_weight1_custom_product_contain_oxygen_bond_distance_aromatic_linkinvent_7_9_3/rearranged_h_0075.sdf

> <i_m_source_file_index>
90

> <r_mmod_Potential_Energy-OPLS-2005>
187.051818847656

> <r_mmod_Stretch_Energy-OPLS-2005>
66.3892288208008

> <r_mmod_Bend_Energy-OPLS-2005>
218.658218383789

> <r_mmod_Torsional_Energy-OPLS-2005>
311.506317138672

> <r_mmod_Improper_Torsional_Energy-OPLS-2005>
20.8582706451416

> <r_mmod_Van_der_Waal_Energy-OPLS-2005>
130.423522949219

> <r_mmod_Electrostatic_Energy-OPLS-2005>
-409.138305664062

> <r_mmod_Solvation_Energy-OPLS-2005>
-202.829437255859

> <b_mmod_Minimization_Converged-OPLS-2005>
0

> <r_mmod_RMS_Derivative-OPLS-2005>
6.59417247772217

$$$$
91
                    3D
 Structure written by MMmdl.
155164  0  0  1  0            999 V2000
  -30.6033  -14.7658   20.4837 C   0  0  0  0  0  0
  -30.4329  -12.4674   19.4794 C   0  0  0  0  0  0
  -29.5044  -12.4713   18.2402 C   0  0  0  0  0  0
  -28.0388  -12.2770   18.6705 C   0  0  0  0  0  0
  -27.6377  -13.2118   19.8412 C   0  0  2  0  0  0
  -28.6798  -13.1761   20.9770 C   0  0  0  0  0  0
  -25.2587  -13.8135   20.5792 C   0  0  0  0  0  0
  -24.1804  -13.0416   20.9177 C   0  0  0  0  0  0
  -24.6383  -11.6892   20.8752 C   0  0  0  0  0  0
  -23.9036  -10.4300   21.0425 C   0  0  0  0  0  0
  -24.3627   -9.4249   21.9214 C   0  0  0  0  0  0
  -23.6315   -8.2281   22.0800 C   0  0  0  0  0  0
  -22.4296   -8.0309   21.3571 C   0  0  0  0  0  0
  -21.9912   -9.0268   20.4665 C   0  0  0  0  0  0
  -22.7213  -10.2156   20.3081 C   0  0  0  0  0  0
  -21.6856   -6.0768   22.5279 C   0  0  0  0  0  0
  -21.4016   -6.5683   23.8206 C   0  0  0  0  0  0
  -21.3664   -5.6841   24.9172 C   0  0  0  0  0  0
  -21.6027   -4.3095   24.7212 C   0  0  0  0  0  0
  -21.8801   -3.8180   23.4335 C   0  0  0  0  0  0
  -21.9199   -4.6999   22.3400 C   0  0  0  0  0  0
  -22.7834  -13.5211   21.1812 C   0  0  0  0  0  0
  -22.1652   -4.2182   21.0967 F   0  0  0  0  0  0
  -21.5636   -3.4581   25.7726 F   0  0  0  0  0  0
  -29.9711  -13.5425   20.3879 N   0  0  0  0  0  0
  -26.2939  -12.9289   20.3301 N   0  0  0  0  0  0
  -25.9296  -11.6453   20.5758 N   0  0  0  0  0  0
  -22.0486  -12.8196   22.0380 N   0  0  0  0  0  0
  -25.4431  -15.1854   20.4359 N   0  0  0  0  0  0
  -31.7974  -14.8453   20.1950 O   0  0  0  0  0  0
  -21.6660   -6.8916   21.4244 O   0  0  0  0  0  0
  -22.3503  -14.5539   20.6668 O   0  0  0  0  0  0
  -24.6350  -31.8508   23.1944 C   0  0  0  0  0  0
  -25.9157  -32.4742   23.8301 C   0  0  1  0  0  0
  -27.2003  -27.2129   20.1539 C   0  0  0  0  0  0
  -25.5938  -33.8536   24.2230 N   0  0  0  0  0  0
  -23.4345  -30.4727   21.5407 C   0  0  2  0  0  0
  -24.8797  -28.9199   20.0981 C   0  0  0  0  0  0
  -22.7526  -29.4565   22.4874 C   0  0  0  0  0  0
  -18.0371  -28.1385   22.8405 C   0  0  0  0  0  0
  -24.1489  -36.7270   23.2656 C   0  0  0  0  0  0
  -25.9827  -30.7454   21.3830 C   0  0  0  0  0  0
  -26.0496  -29.3638   20.7310 C   0  0  0  0  0  0
  -27.2119  -28.5175   20.7596 C   0  0  0  0  0  0
  -26.0274  -26.8640   19.4598 C   0  0  0  0  0  0
  -24.8781  -27.6780   19.4425 C   0  0  0  0  0  0
  -23.6470  -29.8100   20.1544 C   0  0  0  0  0  0
  -25.4118  -36.3067   24.0342 C   0  0  1  0  0  0
  -20.5953  -28.3704   23.1253 C   0  0  2  0  0  0
  -20.6919  -26.9402   22.5360 C   0  0  0  0  0  0
  -19.5921  -26.6317   21.5163 C   0  0  0  0  0  0
  -18.2083  -26.7955   22.1470 C   0  0  0  0  0  0
  -19.1589  -28.8873   23.2845 C   0  0  0  0  0  0
  -18.9420  -30.1504   23.8807 C   0  0  0  0  0  0
  -17.6394  -30.6574   24.0430 C   0  0  0  0  0  0
  -25.9064  -34.9439   23.5101 C   0  0  0  0  0  0
  -16.5322  -29.8968   23.6251 C   0  0  0  0  0  0
  -16.7341  -28.6421   23.0257 C   0  0  0  0  0  0
  -26.4485  -31.6595   25.0728 C   0  0  0  0  0  0
  -25.3730  -31.3757   26.1477 C   0  0  0  0  0  0
  -27.0356  -30.3009   24.6291 C   0  0  0  0  0  0
  -27.6041  -32.4315   25.7510 C   0  0  0  0  0  0
  -27.5559  -37.1806   24.8470 C   0  0  0  0  0  0
  -21.4247  -29.3022   22.3587 N   0  0  0  0  0  0
  -26.4281  -37.3782   23.9403 N   0  0  0  0  0  0
  -24.7035  -31.0444   22.0937 N   0  0  0  0  0  0
  -23.4160  -28.8099   23.3029 O   0  0  0  0  0  0
  -28.2345  -26.2374   20.2040 O   0  0  0  0  0  0
  -26.5633  -34.8940   22.4658 O   0  0  0  0  0  0
  -23.5493  -32.1362   23.7221 O   0  0  0  0  0  0
  -29.4317  -18.5267   20.5711 C   0  0  0  0  0  0
  -31.3669  -17.5748   21.6942 C   0  0  0  0  0  0
  -29.7972  -19.9036   20.9414 C   0  0  0  0  0  0
  -30.2000  -17.3340   20.9363 C   0  0  0  0  0  0
  -31.7606  -18.8743   22.0565 C   0  0  0  0  0  0
  -30.9943  -20.0065   21.7029 C   0  0  0  0  0  0
  -29.1787  -22.5260   20.9608 C   0  0  0  0  0  0
  -28.2819  -23.4249   20.4172 C   0  0  0  0  0  0
  -27.4328  -22.5356   19.6284 C   0  0  0  0  0  0
  -26.3509  -22.8972   18.9203 C   0  0  0  0  0  0
  -27.8902  -21.0768   19.7291 C   0  0  0  0  0  0
  -27.9193  -24.9298   20.9174 C   0  0  0  0  0  0
  -29.0619  -21.1328   20.5927 N   0  0  0  0  0  0
  -29.8230  -15.9136   20.6543 N   0  0  0  0  0  0
  -32.9053  -19.0414   22.7688 F   0  0  0  0  0  0
  -31.4539  -21.2086   22.1207 F   0  0  0  0  0  0
  -31.4739  -12.5996   19.1752 H   0  0  0  0  0  0
  -30.3839  -11.5027   19.9865 H   0  0  0  0  0  0
  -29.7968  -11.6793   17.5472 H   0  0  0  0  0  0
  -29.6062  -13.4124   17.6976 H   0  0  0  0  0  0
  -27.9309  -11.2362   18.9846 H   0  0  0  0  0  0
  -27.3618  -12.4079   17.8263 H   0  0  0  0  0  0
  -27.6244  -14.2173   19.4215 H   0  0  0  0  0  0
  -28.7294  -12.1845   21.4310 H   0  0  0  0  0  0
  -28.4000  -13.8644   21.7760 H   0  0  0  0  0  0
  -25.2796   -9.5775   22.4747 H   0  0  0  0  0  0
  -24.0049   -7.4712   22.7551 H   0  0  0  0  0  0
  -21.0840   -8.8784   19.8983 H   0  0  0  0  0  0
  -22.3673  -10.9715   19.6205 H   0  0  0  0  0  0
  -21.2002   -7.6202   23.9693 H   0  0  0  0  0  0
  -21.1487   -6.0596   25.9072 H   0  0  0  0  0  0
  -22.0561   -2.7637   23.2832 H   0  0  0  0  0  0
  -22.4098  -11.9825   22.4721 H   0  0  0  0  0  0
  -21.1183  -13.1330   22.2735 H   0  0  0  0  0  0
  -24.6980  -15.8603   20.5612 H   0  0  0  0  0  0
  -26.3184  -15.6177   20.1712 H   0  0  0  0  0  0
  -26.7211  -32.5360   23.1022 H   0  0  0  0  0  0
  -25.0089  -33.9662   25.0381 H   0  0  0  0  0  0
  -22.7324  -31.2985   21.4038 H   0  0  0  0  0  0
  -23.3760  -35.9595   23.3334 H   0  0  0  0  0  0
  -24.3611  -36.8857   22.2071 H   0  0  0  0  0  0
  -23.7230  -37.6483   23.6646 H   0  0  0  0  0  0
  -26.1368  -31.4913   20.6024 H   0  0  0  0  0  0
  -26.8563  -30.7935   22.0193 H   0  0  0  0  0  0
  -28.0905  -28.8377   21.2992 H   0  0  0  0  0  0
  -25.9902  -25.9267   18.9378 H   0  0  0  0  0  0
  -23.9978  -27.3455   18.9099 H   0  0  0  0  0  0
  -23.7516  -30.5922   19.4012 H   0  0  0  0  0  0
  -22.7628  -29.2452   19.8520 H   0  0  0  0  0  0
  -25.1306  -36.1923   25.0841 H   0  0  0  0  0  0
  -21.0069  -28.3282   24.1373 H   0  0  0  0  0  0
  -20.5922  -26.2210   23.3505 H   0  0  0  0  0  0
  -21.6783  -26.7498   22.1113 H   0  0  0  0  0  0
  -19.7063  -25.6156   21.1378 H   0  0  0  0  0  0
  -19.7005  -27.2982   20.6578 H   0  0  0  0  0  0
  -17.4358  -26.6726   21.3823 H   0  0  0  0  0  0
  -18.0496  -26.0053   22.8805 H   0  0  0  0  0  0
  -19.7805  -30.7460   24.2179 H   0  0  0  0  0  0
  -17.4830  -31.6290   24.4895 H   0  0  0  0  0  0
  -15.5272  -30.2778   23.7621 H   0  0  0  0  0  0
  -15.8838  -28.0651   22.6948 H   0  0  0  0  0  0
  -24.5901  -30.7090   25.7826 H   0  0  0  0  0  0
  -24.8944  -32.2943   26.4895 H   0  0  0  0  0  0
  -25.8104  -30.8966   27.0258 H   0  0  0  0  0  0
  -26.2995  -29.6728   24.1278 H   0  0  0  0  0  0
  -27.3949  -29.7295   25.4854 H   0  0  0  0  0  0
  -27.8890  -30.4239   23.9625 H   0  0  0  0  0  0
  -27.2658  -33.3599   26.2115 H   0  0  0  0  0  0
  -28.3871  -32.6888   25.0363 H   0  0  0  0  0  0
  -28.0704  -31.8437   26.5428 H   0  0  0  0  0  0
  -28.2621  -38.0062   24.7496 H   0  0  0  0  0  0
  -28.1012  -36.2601   24.6313 H   0  0  0  0  0  0
  -27.2304  -37.1493   25.8887 H   0  0  0  0  0  0
  -20.9457  -29.8537   21.6592 H   0  0  0  0  0  0
  -26.0157  -38.2873   24.1351 H   0  0  0  0  0  0
  -28.5340  -18.3729   19.9894 H   0  0  0  0  0  0
  -31.9889  -16.7591   22.0339 H   0  0  0  0  0  0
  -29.8750  -22.7791   21.7487 H   0  0  0  0  0  0
  -26.0156  -23.9129   18.8681 H   0  0  0  0  0  0
  -25.7652  -22.1600   18.3847 H   0  0  0  0  0  0
  -28.1322  -20.6845   18.7405 H   0  0  0  0  0  0
  -27.1137  -20.4589   20.1825 H   0  0  0  0  0  0
  -28.3558  -25.0291   21.9127 H   0  0  0  0  0  0
  -26.8487  -24.9081   21.1162 H   0  0  0  0  0  0
  -28.8309  -15.7392   20.6063 H   0  0  0  0  0  0
  1 25  1  0  0  0
  1 30  2  0  0  0
  1 84  1  0  0  0
  2  3  1  0  0  0
  2 25  1  0  0  0
  2 87  1  0  0  0
  2 88  1  0  0  0
  3  4  1  0  0  0
  3 89  1  0  0  0
  3 90  1  0  0  0
  4  5  1  0  0  0
  4 91  1  0  0  0
  4 92  1  0  0  0
  5  6  1  0  0  0
  5 26  1  0  0  0
  5 93  1  0  0  0
  6 25  1  0  0  0
  6 94  1  0  0  0
  6 95  1  0  0  0
  7  8  2  0  0  0
  7 26  1  0  0  0
  7 29  1  0  0  0
  8  9  1  0  0  0
  8 22  1  0  0  0
  9 10  1  0  0  0
  9 27  2  0  0  0
 10 11  2  0  0  0
 10 15  1  0  0  0
 11 12  1  0  0  0
 11 96  1  0  0  0
 12 13  2  0  0  0
 12 97  1  0  0  0
 13 14  1  0  0  0
 13 31  1  0  0  0
 14 15  2  0  0  0
 14 98  1  0  0  0
 15 99  1  0  0  0
 16 17  2  0  0  0
 16 21  1  0  0  0
 16 31  1  0  0  0
 17 18  1  0  0  0
 17100  1  0  0  0
 18 19  2  0  0  0
 18101  1  0  0  0
 19 20  1  0  0  0
 19 24  1  0  0  0
 20 21  2  0  0  0
 20102  1  0  0  0
 21 23  1  0  0  0
 22 28  1  0  0  0
 22 32  2  0  0  0
 26 27  1  0  0  0
 28103  1  0  0  0
 28104  1  0  0  0
 29105  1  0  0  0
 29106  1  0  0  0
 33 34  1  0  0  0
 33 66  1  0  0  0
 33 70  2  0  0  0
 34 36  1  0  0  0
 34 59  1  0  0  0
 34107  1  0  0  0
 35 44  2  0  0  0
 35 45  1  0  0  0
 35 68  1  0  0  0
 36 56  1  0  0  0
 36108  1  0  0  0
 37 39  1  0  0  0
 37 47  1  0  0  0
 37 66  1  0  0  0
 37109  1  0  0  0
 38 43  2  0  0  0
 38 46  1  0  0  0
 38 47  1  0  0  0
 39 64  1  0  0  0
 39 67  2  0  0  0
 40 52  1  0  0  0
 40 53  2  0  0  0
 40 58  1  0  0  0
 41110  1  0  0  0
 41111  1  0  0  0
 41112  1  0  0  0
 41 48  1  0  0  0
 42 43  1  0  0  0
 42 66  1  0  0  0
 42113  1  0  0  0
 42114  1  0  0  0
 43 44  1  0  0  0
 44115  1  0  0  0
 45 46  2  0  0  0
 45116  1  0  0  0
 46117  1  0  0  0
 47118  1  0  0  0
 47119  1  0  0  0
 48 56  1  0  0  0
 48 65  1  0  0  0
 48120  1  0  0  0
 49 50  1  0  0  0
 49 53  1  0  0  0
 49 64  1  0  0  0
 49121  1  0  0  0
 50 51  1  0  0  0
 50122  1  0  0  0
 50123  1  0  0  0
 51 52  1  0  0  0
 51124  1  0  0  0
 51125  1  0  0  0
 52126  1  0  0  0
 52127  1  0  0  0
 53 54  1  0  0  0
 54 55  2  0  0  0
 54128  1  0  0  0
 55 57  1  0  0  0
 55129  1  0  0  0
 56 69  2  0  0  0
 57 58  2  0  0  0
 57130  1  0  0  0
 58131  1  0  0  0
 59 60  1  0  0  0
 59 61  1  0  0  0
 59 62  1  0  0  0
 60132  1  0  0  0
 60133  1  0  0  0
 60134  1  0  0  0
 61135  1  0  0  0
 61136  1  0  0  0
 61137  1  0  0  0
 62138  1  0  0  0
 62139  1  0  0  0
 62140  1  0  0  0
 63 65  1  0  0  0
 63141  1  0  0  0
 63142  1  0  0  0
 63143  1  0  0  0
 64144  1  0  0  0
 65145  1  0  0  0
 68 82  1  0  0  0
 71 73  2  0  0  0
 71 74  1  0  0  0
 71146  1  0  0  0
 72 74  2  0  0  0
 72 75  1  0  0  0
 72147  1  0  0  0
 73 76  1  0  0  0
 73 83  1  0  0  0
 74 84  1  0  0  0
 75 76  2  0  0  0
 75 85  1  0  0  0
 76 86  1  0  0  0
 77 78  2  0  0  0
 77 83  1  0  0  0
 77148  1  0  0  0
 78 79  1  0  0  0
 78 82  1  0  0  0
 79 80  2  0  0  0
 79 81  1  0  0  0
 80149  1  0  0  0
 80150  1  0  0  0
 81 83  1  0  0  0
 81151  1  0  0  0
 81152  1  0  0  0
 82153  1  0  0  0
 82154  1  0  0  0
 84155  1  0  0  0
M  ISO  4   1 100  68 101  82 101  84 100
M  END
> <chiral flag>
0

> <version>
0

> <s_m_source_file>
/data/baiqing/PycharmProjects/Reinvent-master-3.2/result/LINK_invent/BTK/process_docking_weight1_custom_product_contain_oxygen_bond_distance_aromatic_linkinvent_7_9_3/rearranged_h_0075.sdf

> <i_m_source_file_index>
91

> <r_mmod_Potential_Energy-OPLS-2005>
412.687469482422

> <r_mmod_Stretch_Energy-OPLS-2005>
148.808792114258

> <r_mmod_Bend_Energy-OPLS-2005>
268.809356689453

> <r_mmod_Torsional_Energy-OPLS-2005>
234.341232299805

> <r_mmod_Improper_Torsional_Energy-OPLS-2005>
7.34346961975098

> <r_mmod_Van_der_Waal_Energy-OPLS-2005>
137.116973876953

> <r_mmod_Electrostatic_Energy-OPLS-2005>
-286.326202392578

> <r_mmod_Solvation_Energy-OPLS-2005>
-212.237411499023

> <b_mmod_Minimization_Converged-OPLS-2005>
0

> <r_mmod_RMS_Derivative-OPLS-2005>
6.49507570266724

$$$$
92
                    3D
 Structure written by MMmdl.
169178  0  0  1  0            999 V2000
  -30.7656  -14.3502   20.7035 C   0  0  0  0  0  0
  -30.4171  -12.2880   19.3835 C   0  0  0  0  0  0
  -29.4826  -12.5317   18.1858 C   0  0  0  0  0  0
  -28.0052  -12.3945   18.6011 C   0  0  0  0  0  0
  -27.6665  -13.2005   19.8842 C   0  0  2  0  0  0
  -28.7038  -12.9119   20.9901 C   0  0  0  0  0  0
  -25.2605  -13.8179   20.5703 C   0  0  0  0  0  0
  -24.1840  -13.0456   20.9173 C   0  0  0  0  0  0
  -24.6369  -11.6917   20.8733 C   0  0  0  0  0  0
  -23.9034  -10.4308   21.0414 C   0  0  0  0  0  0
  -24.3584   -9.4232   21.9203 C   0  0  0  0  0  0
  -23.6262   -8.2265   22.0774 C   0  0  0  0  0  0
  -22.4257   -8.0276   21.3551 C   0  0  0  0  0  0
  -21.9875   -9.0258   20.4675 C   0  0  0  0  0  0
  -22.7196  -10.2143   20.3082 C   0  0  0  0  0  0
  -21.6855   -6.0724   22.5269 C   0  0  0  0  0  0
  -21.4014   -6.5634   23.8197 C   0  0  0  0  0  0
  -21.3670   -5.6796   24.9170 C   0  0  0  0  0  0
  -21.6055   -4.3058   24.7227 C   0  0  0  0  0  0
  -21.8812   -3.8139   23.4348 C   0  0  0  0  0  0
  -21.9184   -4.6949   22.3398 C   0  0  0  0  0  0
  -22.7864  -13.5259   21.1835 C   0  0  0  0  0  0
  -22.1648   -4.2129   21.0977 F   0  0  0  0  0  0
  -21.5634   -3.4543   25.7746 F   0  0  0  0  0  0
  -30.0444  -13.2245   20.4527 N   0  0  0  0  0  0
  -26.3030  -12.9329   20.3386 N   0  0  0  0  0  0
  -25.9291  -11.6494   20.5738 N   0  0  0  0  0  0
  -22.0513  -12.8255   22.0398 N   0  0  0  0  0  0
  -25.4360  -15.1905   20.4180 N   0  0  0  0  0  0
  -31.8005  -14.6280   20.0876 O   0  0  0  0  0  0
  -21.6626   -6.8867   21.4237 O   0  0  0  0  0  0
  -22.3556  -14.5577   20.6697 O   0  0  0  0  0  0
  -24.6117  -31.8720   23.2146 C   0  0  0  0  0  0
  -25.9032  -32.4847   23.8412 C   0  0  1  0  0  0
  -27.2294  -27.4708   20.0667 C   0  0  0  0  0  0
  -25.5907  -33.8644   24.2356 N   0  0  0  0  0  0
  -23.3953  -30.4979   21.5548 C   0  0  2  0  0  0
  -24.8377  -28.9736   20.1131 C   0  0  0  0  0  0
  -22.7362  -29.4694   22.5008 C   0  0  0  0  0  0
  -18.0244  -28.1365   22.8440 C   0  0  0  0  0  0
  -24.1493  -36.7302   23.2637 C   0  0  0  0  0  0
  -25.9231  -30.8445   21.3667 C   0  0  0  0  0  0
  -25.9964  -29.4847   20.7088 C   0  0  0  0  0  0
  -27.1917  -28.7363   20.6893 C   0  0  0  0  0  0
  -26.0506  -26.9743   19.4606 C   0  0  0  0  0  0
  -24.8573  -27.7148   19.4923 C   0  0  0  0  0  0
  -23.6013  -29.8380   20.1663 C   0  0  0  0  0  0
  -25.4116  -36.3125   24.0344 C   0  0  1  0  0  0
  -20.5833  -28.3672   23.1337 C   0  0  2  0  0  0
  -20.6720  -26.9396   22.5463 C   0  0  0  0  0  0
  -19.5753  -26.6413   21.5185 C   0  0  0  0  0  0
  -18.1883  -26.7949   22.1483 C   0  0  0  0  0  0
  -19.1482  -28.8817   23.2899 C   0  0  0  0  0  0
  -18.9385  -30.1403   23.8950 C   0  0  0  0  0  0
  -17.6378  -30.6526   24.0580 C   0  0  0  0  0  0
  -25.9038  -34.9494   23.5152 C   0  0  0  0  0  0
  -16.5290  -29.9038   23.6302 C   0  0  0  0  0  0
  -16.7231  -28.6470   23.0293 C   0  0  0  0  0  0
  -26.4483  -31.6610   25.0720 C   0  0  0  0  0  0
  -25.3767  -31.3700   26.1479 C   0  0  0  0  0  0
  -27.0292  -30.3049   24.6080 C   0  0  0  0  0  0
  -27.6084  -32.4312   25.7453 C   0  0  0  0  0  0
  -27.5585  -37.1829   24.8469 C   0  0  0  0  0  0
  -21.4088  -29.3045   22.3728 N   0  0  0  0  0  0
  -26.4304  -37.3808   23.9400 N   0  0  0  0  0  0
  -24.6609  -31.0856   22.1034 N   0  0  0  0  0  0
  -23.4131  -28.8230   23.3037 O   0  0  0  0  0  0
  -28.4163  -26.7695   20.0994 O   0  0  0  0  0  0
  -26.5577  -34.8939   22.4707 O   0  0  0  0  0  0
  -23.5314  -32.1469   23.7552 O   0  0  0  0  0  0
  -27.9699  -18.4838   22.2366 C   0  0  0  0  0  0
  -30.2686  -19.2444   22.2563 C   0  0  0  0  0  0
  -27.5744  -19.7145   21.6828 C   0  0  0  0  0  0
  -29.8751  -20.4708   21.6961 C   0  0  0  0  0  0
  -29.3252  -18.2345   22.5590 C   0  0  0  0  0  0
  -28.5116  -20.7466   21.4333 C   0  0  0  0  0  0
  -28.6926  -23.2085   21.0178 C   0  0  0  0  0  0
  -30.7500  -16.1764   22.3023 C   0  0  0  0  0  0
  -26.5786  -23.6468   20.0303 C   0  0  0  0  0  0
  -26.6612  -22.2164   20.5497 C   0  0  0  0  0  0
  -27.7671  -24.3832   20.6717 C   0  0  1  0  0  0
  -27.3549  -25.0215   22.0247 C   0  0  0  0  0  0
  -28.5858  -16.0333   23.6756 C   0  0  0  0  0  0
  -30.5261  -17.3035   24.5657 C   0  0  0  0  0  0
  -28.4398  -25.4004   19.6838 C   0  0  0  0  0  0
  -29.7840  -16.9356   23.2585 C   0  0  0  0  0  0
  -28.0500  -22.0209   20.9554 N   0  0  0  0  0  0
  -30.2370  -15.1084   21.6731 N   0  0  0  0  0  0
  -29.8732  -23.3983   21.3302 O   0  0  0  0  0  0
  -31.9179  -16.5623   22.1707 O   0  0  0  0  0  0
  -31.4592  -12.3893   19.0756 H   0  0  0  0  0  0
  -30.3164  -11.2624   19.7400 H   0  0  0  0  0  0
  -29.7111  -11.8292   17.3830 H   0  0  0  0  0  0
  -29.6594  -13.5298   17.7823 H   0  0  0  0  0  0
  -27.8030  -11.3354   18.7637 H   0  0  0  0  0  0
  -27.3545  -12.7022   17.7816 H   0  0  0  0  0  0
  -27.7341  -14.2593   19.6339 H   0  0  0  0  0  0
  -28.6690  -11.8565   21.2659 H   0  0  0  0  0  0
  -28.4456  -13.4441   21.9052 H   0  0  0  0  0  0
  -25.2733   -9.5689   22.4774 H   0  0  0  0  0  0
  -23.9972   -7.4660   22.7500 H   0  0  0  0  0  0
  -21.0795   -8.8772   19.8986 H   0  0  0  0  0  0
  -22.3650  -10.9675   19.6186 H   0  0  0  0  0  0
  -21.2003   -7.6139   23.9684 H   0  0  0  0  0  0
  -21.1508   -6.0542   25.9070 H   0  0  0  0  0  0
  -22.0578   -2.7593   23.2858 H   0  0  0  0  0  0
  -22.4107  -11.9878   22.4733 H   0  0  0  0  0  0
  -21.1152  -13.1320   22.2654 H   0  0  0  0  0  0
  -24.6823  -15.8527   20.5652 H   0  0  0  0  0  0
  -26.2913  -15.6326   20.1044 H   0  0  0  0  0  0
  -26.7112  -32.5548   23.1182 H   0  0  0  0  0  0
  -25.0098  -33.9804   25.0523 H   0  0  0  0  0  0
  -22.6817  -31.3132   21.4199 H   0  0  0  0  0  0
  -23.3757  -35.9635   23.3316 H   0  0  0  0  0  0
  -24.3620  -36.8886   22.2054 H   0  0  0  0  0  0
  -23.7238  -37.6518   23.6622 H   0  0  0  0  0  0
  -26.0373  -31.6130   20.6014 H   0  0  0  0  0  0
  -26.8130  -30.8931   21.9835 H   0  0  0  0  0  0
  -28.0863  -29.1259   21.1555 H   0  0  0  0  0  0
  -26.0221  -26.0239   18.9542 H   0  0  0  0  0  0
  -23.9655  -27.3164   19.0284 H   0  0  0  0  0  0
  -23.7097  -30.6170   19.4103 H   0  0  0  0  0  0
  -22.7256  -29.2594   19.8678 H   0  0  0  0  0  0
  -25.1293  -36.2010   25.0833 H   0  0  0  0  0  0
  -20.9907  -28.3253   24.1458 H   0  0  0  0  0  0
  -20.5605  -26.2264   23.3648 H   0  0  0  0  0  0
  -21.6588  -26.7451   22.1281 H   0  0  0  0  0  0
  -19.6941  -25.6361   21.1139 H   0  0  0  0  0  0
  -19.6755  -27.3271   20.6758 H   0  0  0  0  0  0
  -17.4245  -26.6841   21.3776 H   0  0  0  0  0  0
  -18.0098  -26.0007   22.8746 H   0  0  0  0  0  0
  -19.7837  -30.7205   24.2415 H   0  0  0  0  0  0
  -17.4910  -31.6182   24.5211 H   0  0  0  0  0  0
  -15.5282  -30.2923   23.7588 H   0  0  0  0  0  0
  -15.8643  -28.0803   22.6936 H   0  0  0  0  0  0
  -24.5936  -30.7053   25.7823 H   0  0  0  0  0  0
  -24.8951  -32.2839   26.4967 H   0  0  0  0  0  0
  -25.8135  -30.8841   27.0206 H   0  0  0  0  0  0
  -26.2818  -29.6845   24.1115 H   0  0  0  0  0  0
  -27.4047  -29.7277   25.4539 H   0  0  0  0  0  0
  -27.8664  -30.4365   23.9217 H   0  0  0  0  0  0
  -27.2736  -33.3599   26.2078 H   0  0  0  0  0  0
  -28.3852  -32.6896   25.0233 H   0  0  0  0  0  0
  -28.0788  -31.8407   26.5322 H   0  0  0  0  0  0
  -28.2629  -38.0108   24.7512 H   0  0  0  0  0  0
  -28.1065  -36.2646   24.6300 H   0  0  0  0  0  0
  -27.2308  -37.1479   25.8879 H   0  0  0  0  0  0
  -20.9261  -29.8684   21.6875 H   0  0  0  0  0  0
  -26.0192  -38.2885   24.1395 H   0  0  0  0  0  0
  -27.1930  -17.7583   22.4259 H   0  0  0  0  0  0
  -31.3193  -19.0978   22.4647 H   0  0  0  0  0  0
  -26.5218  -19.8511   21.4842 H   0  0  0  0  0  0
  -30.6577  -21.1856   21.4967 H   0  0  0  0  0  0
  -25.6142  -24.0985   20.2621 H   0  0  0  0  0  0
  -26.6734  -23.6218   18.9431 H   0  0  0  0  0  0
  -26.0090  -22.0960   21.4168 H   0  0  0  0  0  0
  -26.3544  -21.5010   19.7848 H   0  0  0  0  0  0
  -28.1794  -25.5797   22.4690 H   0  0  0  0  0  0
  -27.0529  -24.2696   22.7556 H   0  0  0  0  0  0
  -26.5109  -25.7024   21.9233 H   0  0  0  0  0  0
  -27.9664  -15.7327   22.8294 H   0  0  0  0  0  0
  -27.9318  -16.5474   24.3814 H   0  0  0  0  0  0
  -28.9176  -15.1183   24.1702 H   0  0  0  0  0  0
  -31.4003  -17.9325   24.3991 H   0  0  0  0  0  0
  -30.8739  -16.4136   25.0905 H   0  0  0  0  0  0
  -29.8669  -17.8477   25.2424 H   0  0  0  0  0  0
  -28.0497  -25.3149   18.6704 H   0  0  0  0  0  0
  -29.4963  -25.1634   19.5569 H   0  0  0  0  0  0
  -29.3219  -14.8321   21.9848 H   0  0  0  0  0  0
  1 25  1  0  0  0
  1 30  2  0  0  0
  1 88  1  0  0  0
  2  3  1  0  0  0
  2 25  1  0  0  0
  2 91  1  0  0  0
  2 92  1  0  0  0
  3  4  1  0  0  0
  3 93  1  0  0  0
  3 94  1  0  0  0
  4  5  1  0  0  0
  4 95  1  0  0  0
  4 96  1  0  0  0
  5  6  1  0  0  0
  5 26  1  0  0  0
  5 97  1  0  0  0
  6 25  1  0  0  0
  6 98  1  0  0  0
  6 99  1  0  0  0
  7  8  2  0  0  0
  7 26  1  0  0  0
  7 29  1  0  0  0
  8  9  1  0  0  0
  8 22  1  0  0  0
  9 10  1  0  0  0
  9 27  2  0  0  0
 10 11  2  0  0  0
 10 15  1  0  0  0
 11 12  1  0  0  0
 11100  1  0  0  0
 12 13  2  0  0  0
 12101  1  0  0  0
 13 14  1  0  0  0
 13 31  1  0  0  0
 14 15  2  0  0  0
 14102  1  0  0  0
 15103  1  0  0  0
 16 17  2  0  0  0
 16 21  1  0  0  0
 16 31  1  0  0  0
 17 18  1  0  0  0
 17104  1  0  0  0
 18 19  2  0  0  0
 18105  1  0  0  0
 19 20  1  0  0  0
 19 24  1  0  0  0
 20 21  2  0  0  0
 20106  1  0  0  0
 21 23  1  0  0  0
 22 28  1  0  0  0
 22 32  2  0  0  0
 26 27  1  0  0  0
 28107  1  0  0  0
 28108  1  0  0  0
 29109  1  0  0  0
 29110  1  0  0  0
 33 34  1  0  0  0
 33 66  1  0  0  0
 33 70  2  0  0  0
 34 36  1  0  0  0
 34 59  1  0  0  0
 34111  1  0  0  0
 35 44  2  0  0  0
 35 45  1  0  0  0
 35 68  1  0  0  0
 36 56  1  0  0  0
 36112  1  0  0  0
 37 39  1  0  0  0
 37 47  1  0  0  0
 37 66  1  0  0  0
 37113  1  0  0  0
 38 43  2  0  0  0
 38 46  1  0  0  0
 38 47  1  0  0  0
 39 64  1  0  0  0
 39 67  2  0  0  0
 40 52  1  0  0  0
 40 53  2  0  0  0
 40 58  1  0  0  0
 41114  1  0  0  0
 41115  1  0  0  0
 41116  1  0  0  0
 41 48  1  0  0  0
 42 43  1  0  0  0
 42 66  1  0  0  0
 42117  1  0  0  0
 42118  1  0  0  0
 43 44  1  0  0  0
 44119  1  0  0  0
 45 46  2  0  0  0
 45120  1  0  0  0
 46121  1  0  0  0
 47122  1  0  0  0
 47123  1  0  0  0
 48 56  1  0  0  0
 48 65  1  0  0  0
 48124  1  0  0  0
 49 50  1  0  0  0
 49 53  1  0  0  0
 49 64  1  0  0  0
 49125  1  0  0  0
 50 51  1  0  0  0
 50126  1  0  0  0
 50127  1  0  0  0
 51 52  1  0  0  0
 51128  1  0  0  0
 51129  1  0  0  0
 52130  1  0  0  0
 52131  1  0  0  0
 53 54  1  0  0  0
 54 55  2  0  0  0
 54132  1  0  0  0
 55 57  1  0  0  0
 55133  1  0  0  0
 56 69  2  0  0  0
 57 58  2  0  0  0
 57134  1  0  0  0
 58135  1  0  0  0
 59 60  1  0  0  0
 59 61  1  0  0  0
 59 62  1  0  0  0
 60136  1  0  0  0
 60137  1  0  0  0
 60138  1  0  0  0
 61139  1  0  0  0
 61140  1  0  0  0
 61141  1  0  0  0
 62142  1  0  0  0
 62143  1  0  0  0
 62144  1  0  0  0
 63 65  1  0  0  0
 63145  1  0  0  0
 63146  1  0  0  0
 63147  1  0  0  0
 64148  1  0  0  0
 65149  1  0  0  0
 68 85  1  0  0  0
 71 73  2  0  0  0
 71 75  1  0  0  0
 71150  1  0  0  0
 72 74  1  0  0  0
 72 75  2  0  0  0
 72151  1  0  0  0
 73 76  1  0  0  0
 73152  1  0  0  0
 74 76  2  0  0  0
 74153  1  0  0  0
 75 86  1  0  0  0
 76 87  1  0  0  0
 77 81  1  0  0  0
 77 87  1  0  0  0
 77 89  2  0  0  0
 78 86  1  0  0  0
 78 88  1  0  0  0
 78 90  2  0  0  0
 79 80  1  0  0  0
 79 81  1  0  0  0
 79154  1  0  0  0
 79155  1  0  0  0
 80 87  1  0  0  0
 80156  1  0  0  0
 80157  1  0  0  0
 81 82  1  0  0  0
 81 85  1  0  0  0
 82158  1  0  0  0
 82159  1  0  0  0
 82160  1  0  0  0
 83161  1  0  0  0
 83162  1  0  0  0
 83163  1  0  0  0
 83 86  1  0  0  0
 84 86  1  0  0  0
 84164  1  0  0  0
 84165  1  0  0  0
 84166  1  0  0  0
 85167  1  0  0  0
 85168  1  0  0  0
 88169  1  0  0  0
M  ISO  4   1 100  68 101  85 101  88 100
M  END
> <chiral flag>
0

> <version>
0

> <s_m_source_file>
/data/baiqing/PycharmProjects/Reinvent-master-3.2/result/LINK_invent/BTK/process_docking_weight1_custom_product_contain_oxygen_bond_distance_aromatic_linkinvent_7_9_3/rearranged_h_0075.sdf

> <i_m_source_file_index>
92

> <r_mmod_Potential_Energy-OPLS-2005>
25.8219718933105

> <r_mmod_Stretch_Energy-OPLS-2005>
41.634033203125

> <r_mmod_Bend_Energy-OPLS-2005>
139.833236694336

> <r_mmod_Torsional_Energy-OPLS-2005>
264.668395996094

> <r_mmod_Improper_Torsional_Energy-OPLS-2005>
1.95013093948364

> <r_mmod_Van_der_Waal_Energy-OPLS-2005>
194.076034545898

> <r_mmod_Electrostatic_Energy-OPLS-2005>
-393.829528808594

> <r_mmod_Solvation_Energy-OPLS-2005>
-231.248672485352

> <b_mmod_Minimization_Converged-OPLS-2005>
0

> <r_mmod_RMS_Derivative-OPLS-2005>
2.8731095790863

$$$$
93
                    3D
 Structure written by MMmdl.
161169  0  0  1  0            999 V2000
  -30.6896  -14.4258   20.5102 C   0  0  0  0  0  0
  -30.4031  -12.2550   19.4186 C   0  0  0  0  0  0
  -29.4770  -12.4782   18.2044 C   0  0  0  0  0  0
  -27.9942  -12.3737   18.6157 C   0  0  0  0  0  0
  -27.6525  -13.1956   19.8896 C   0  0  2  0  0  0
  -28.7004  -12.9650   21.0052 C   0  0  0  0  0  0
  -25.2554  -13.8136   20.5763 C   0  0  0  0  0  0
  -24.1815  -13.0430   20.9249 C   0  0  0  0  0  0
  -24.6354  -11.6896   20.8806 C   0  0  0  0  0  0
  -23.9029  -10.4297   21.0437 C   0  0  0  0  0  0
  -24.3591   -9.4200   21.9177 C   0  0  0  0  0  0
  -23.6280   -8.2230   22.0735 C   0  0  0  0  0  0
  -22.4259   -8.0275   21.3546 C   0  0  0  0  0  0
  -21.9918   -9.0255   20.4630 C   0  0  0  0  0  0
  -22.7233  -10.2137   20.3044 C   0  0  0  0  0  0
  -21.6855   -6.0745   22.5286 C   0  0  0  0  0  0
  -21.4021   -6.5645   23.8222 C   0  0  0  0  0  0
  -21.3665   -5.6785   24.9174 C   0  0  0  0  0  0
  -21.6039   -4.3057   24.7219 C   0  0  0  0  0  0
  -21.8822   -3.8145   23.4339 C   0  0  0  0  0  0
  -21.9196   -4.6968   22.3401 C   0  0  0  0  0  0
  -22.7835  -13.5224   21.1888 C   0  0  0  0  0  0
  -22.1654   -4.2157   21.0984 F   0  0  0  0  0  0
  -21.5624   -3.4535   25.7731 F   0  0  0  0  0  0
  -30.0355  -13.2406   20.4430 N   0  0  0  0  0  0
  -26.2978  -12.9291   20.3516 N   0  0  0  0  0  0
  -25.9278  -11.6476   20.5892 N   0  0  0  0  0  0
  -22.0468  -12.8217   22.0433 N   0  0  0  0  0  0
  -25.4219  -15.1875   20.4167 N   0  0  0  0  0  0
  -31.8490  -14.5967   20.1198 O   0  0  0  0  0  0
  -21.6626   -6.8877   21.4254 O   0  0  0  0  0  0
  -22.3541  -14.5533   20.6721 O   0  0  0  0  0  0
  -24.6081  -31.8700   23.2156 C   0  0  0  0  0  0
  -25.8990  -32.4826   23.8420 C   0  0  1  0  0  0
  -27.2397  -27.4927   20.0913 C   0  0  0  0  0  0
  -25.5882  -33.8632   24.2335 N   0  0  0  0  0  0
  -23.3930  -30.5000   21.5528 C   0  0  2  0  0  0
  -24.8407  -28.9707   20.1169 C   0  0  0  0  0  0
  -22.7340  -29.4665   22.4939 C   0  0  0  0  0  0
  -18.0273  -28.1375   22.8510 C   0  0  0  0  0  0
  -24.1487  -36.7330   23.2633 C   0  0  0  0  0  0
  -25.9148  -30.8587   21.3588 C   0  0  0  0  0  0
  -25.9948  -29.4951   20.7110 C   0  0  0  0  0  0
  -27.1960  -28.7626   20.6948 C   0  0  0  0  0  0
  -26.0720  -26.9639   19.4973 C   0  0  0  0  0  0
  -24.8707  -27.7027   19.5086 C   0  0  0  0  0  0
  -23.6019  -29.8391   20.1643 C   0  0  0  0  0  0
  -25.4113  -36.3125   24.0317 C   0  0  1  0  0  0
  -20.5857  -28.3649   23.1321 C   0  0  2  0  0  0
  -20.6765  -26.9389   22.5432 C   0  0  0  0  0  0
  -19.5738  -26.6397   21.5212 C   0  0  0  0  0  0
  -18.1910  -26.7936   22.1626 C   0  0  0  0  0  0
  -19.1525  -28.8819   23.2930 C   0  0  0  0  0  0
  -18.9456  -30.1433   23.8937 C   0  0  0  0  0  0
  -17.6458  -30.6588   24.0581 C   0  0  0  0  0  0
  -25.9034  -34.9483   23.5119 C   0  0  0  0  0  0
  -16.5341  -29.9117   23.6314 C   0  0  0  0  0  0
  -16.7268  -28.6528   23.0338 C   0  0  0  0  0  0
  -26.4480  -31.6584   25.0704 C   0  0  0  0  0  0
  -25.3785  -31.3625   26.1461 C   0  0  0  0  0  0
  -27.0311  -30.3054   24.6019 C   0  0  0  0  0  0
  -27.6078  -32.4296   25.7469 C   0  0  0  0  0  0
  -27.5582  -37.1809   24.8453 C   0  0  0  0  0  0
  -21.4072  -29.3011   22.3667 N   0  0  0  0  0  0
  -26.4300  -37.3806   23.9405 N   0  0  0  0  0  0
  -24.6566  -31.0883   22.1021 N   0  0  0  0  0  0
  -23.4123  -28.8175   23.2936 O   0  0  0  0  0  0
  -28.4478  -26.8489   20.0396 O   0  0  0  0  0  0
  -26.5606  -34.8926   22.4688 O   0  0  0  0  0  0
  -23.5289  -32.1409   23.7618 O   0  0  0  0  0  0
  -29.1557  -17.4761   17.7436 C   0  0  0  0  0  0
  -29.6458  -18.7312   18.1297 C   0  0  0  0  0  0
  -29.2312  -16.3985   18.6388 C   0  0  0  0  0  0
  -30.2824  -17.8311   20.3149 C   0  0  0  0  0  0
  -30.1999  -18.9164   19.4165 C   0  0  0  0  0  0
  -29.8070  -16.5647   19.9207 C   0  0  0  0  0  0
  -29.6902  -24.8861   20.3295 C   0  0  0  0  0  0
  -28.5177  -25.5324   20.3729 C   0  0  0  0  0  0
  -30.7252  -20.2593   19.7949 C   0  0  0  0  0  0
  -30.8689  -23.1926   21.7293 C   0  0  0  0  0  0
  -29.4643  -23.1646   18.0450 C   0  0  0  0  0  0
  -29.8520  -23.4103   20.5998 C   0  0  2  0  0  0
  -30.2249  -22.6628   19.2924 C   0  0  1  0  0  0
  -29.9006  -15.4656   20.8053 N   0  0  0  0  0  0
  -29.9206  -21.2509   19.4106 N   0  0  0  0  0  0
  -31.8000  -20.3984   20.3796 O   0  0  0  0  0  0
  -31.4497  -12.3326   19.1178 H   0  0  0  0  0  0
  -30.2750  -11.2448   19.8125 H   0  0  0  0  0  0
  -29.6937  -11.7440   17.4277 H   0  0  0  0  0  0
  -29.6703  -13.4503   17.7550 H   0  0  0  0  0  0
  -27.7717  -11.3188   18.7807 H   0  0  0  0  0  0
  -27.3474  -12.6837   17.7937 H   0  0  0  0  0  0
  -27.6791  -14.2450   19.6151 H   0  0  0  0  0  0
  -28.6590  -11.9347   21.3632 H   0  0  0  0  0  0
  -28.4865  -13.5832   21.8803 H   0  0  0  0  0  0
  -25.2737   -9.5687   22.4746 H   0  0  0  0  0  0
  -23.9991   -7.4635   22.7469 H   0  0  0  0  0  0
  -21.0865   -8.8819   19.8916 H   0  0  0  0  0  0
  -22.3729  -10.9698   19.6168 H   0  0  0  0  0  0
  -21.2015   -7.6141   23.9757 H   0  0  0  0  0  0
  -21.1493   -6.0485   25.9083 H   0  0  0  0  0  0
  -22.0597   -2.7599   23.2840 H   0  0  0  0  0  0
  -22.4084  -11.9868   22.4806 H   0  0  0  0  0  0
  -21.1092  -13.1241   22.2697 H   0  0  0  0  0  0
  -24.6419  -15.8256   20.5184 H   0  0  0  0  0  0
  -26.2620  -15.6412   20.0798 H   0  0  0  0  0  0
  -26.7042  -32.5588   23.1179 H   0  0  0  0  0  0
  -24.9998  -33.9840   25.0457 H   0  0  0  0  0  0
  -22.6805  -31.3168   21.4197 H   0  0  0  0  0  0
  -23.3757  -35.9657   23.3293 H   0  0  0  0  0  0
  -24.3561  -36.8971   22.2045 H   0  0  0  0  0  0
  -23.7243  -37.6525   23.6677 H   0  0  0  0  0  0
  -26.0132  -31.6294   20.5928 H   0  0  0  0  0  0
  -26.8088  -30.9148   21.9676 H   0  0  0  0  0  0
  -28.0976  -29.1763   21.1242 H   0  0  0  0  0  0
  -26.0918  -25.9991   19.0100 H   0  0  0  0  0  0
  -23.9841  -27.2986   19.0405 H   0  0  0  0  0  0
  -23.7180  -30.6240   19.4148 H   0  0  0  0  0  0
  -22.7239  -29.2683   19.8543 H   0  0  0  0  0  0
  -25.1287  -36.1973   25.0808 H   0  0  0  0  0  0
  -20.9981  -28.3258   24.1424 H   0  0  0  0  0  0
  -20.5654  -26.2249   23.3599 H   0  0  0  0  0  0
  -21.6636  -26.7436   22.1209 H   0  0  0  0  0  0
  -19.6895  -25.6321   21.1189 H   0  0  0  0  0  0
  -19.6682  -27.3254   20.6765 H   0  0  0  0  0  0
  -17.4174  -26.6698   21.4030 H   0  0  0  0  0  0
  -18.0316  -26.0070   22.9007 H   0  0  0  0  0  0
  -19.7916  -30.7251   24.2302 H   0  0  0  0  0  0
  -17.5010  -31.6259   24.5206 H   0  0  0  0  0  0
  -15.5344  -30.3043   23.7595 H   0  0  0  0  0  0
  -15.8662  -28.0867   22.7025 H   0  0  0  0  0  0
  -24.5981  -30.6954   25.7771 H   0  0  0  0  0  0
  -24.8955  -32.2746   26.4966 H   0  0  0  0  0  0
  -25.8174  -30.8743   27.0168 H   0  0  0  0  0  0
  -26.2815  -29.6776   24.1182 H   0  0  0  0  0  0
  -27.4220  -29.7304   25.4414 H   0  0  0  0  0  0
  -27.8582  -30.4390   23.9049 H   0  0  0  0  0  0
  -27.2716  -33.3575   26.2119 H   0  0  0  0  0  0
  -28.3870  -32.6882   25.0281 H   0  0  0  0  0  0
  -28.0769  -31.8364   26.5327 H   0  0  0  0  0  0
  -28.2574  -38.0136   24.7563 H   0  0  0  0  0  0
  -28.1115  -36.2665   24.6232 H   0  0  0  0  0  0
  -27.2285  -37.1390   25.8853 H   0  0  0  0  0  0
  -20.9165  -29.8746   21.6948 H   0  0  0  0  0  0
  -26.0169  -38.2857   24.1528 H   0  0  0  0  0  0
  -28.7358  -17.3364   16.7580 H   0  0  0  0  0  0
  -29.5913  -19.5530   17.4261 H   0  0  0  0  0  0
  -28.8614  -15.4444   18.3036 H   0  0  0  0  0  0
  -30.7168  -17.9746   21.2966 H   0  0  0  0  0  0
  -30.5859  -25.4242   20.0550 H   0  0  0  0  0  0
  -27.5744  -25.0783   20.6465 H   0  0  0  0  0  0
  -30.6494  -23.8232   22.5911 H   0  0  0  0  0  0
  -31.8792  -23.4303   21.3991 H   0  0  0  0  0  0
  -30.8693  -22.1627   22.0862 H   0  0  0  0  0  0
  -29.7751  -24.1686   17.7507 H   0  0  0  0  0  0
  -28.3890  -23.1970   18.2199 H   0  0  0  0  0  0
  -29.6379  -22.5249   17.1782 H   0  0  0  0  0  0
  -28.8858  -23.0477   20.9537 H   0  0  0  0  0  0
  -31.2918  -22.7824   19.0909 H   0  0  0  0  0  0
  -29.0263  -15.1902   21.2278 H   0  0  0  0  0  0
  -29.0535  -20.9450   18.9918 H   0  0  0  0  0  0
  1 25  1  0  0  0
  1 30  2  0  0  0
  1 84  1  0  0  0
  2  3  1  0  0  0
  2 25  1  0  0  0
  2 87  1  0  0  0
  2 88  1  0  0  0
  3  4  1  0  0  0
  3 89  1  0  0  0
  3 90  1  0  0  0
  4  5  1  0  0  0
  4 91  1  0  0  0
  4 92  1  0  0  0
  5  6  1  0  0  0
  5 26  1  0  0  0
  5 93  1  0  0  0
  6 25  1  0  0  0
  6 94  1  0  0  0
  6 95  1  0  0  0
  7  8  2  0  0  0
  7 26  1  0  0  0
  7 29  1  0  0  0
  8  9  1  0  0  0
  8 22  1  0  0  0
  9 10  1  0  0  0
  9 27  2  0  0  0
 10 11  2  0  0  0
 10 15  1  0  0  0
 11 12  1  0  0  0
 11 96  1  0  0  0
 12 13  2  0  0  0
 12 97  1  0  0  0
 13 14  1  0  0  0
 13 31  1  0  0  0
 14 15  2  0  0  0
 14 98  1  0  0  0
 15 99  1  0  0  0
 16 17  2  0  0  0
 16 21  1  0  0  0
 16 31  1  0  0  0
 17 18  1  0  0  0
 17100  1  0  0  0
 18 19  2  0  0  0
 18101  1  0  0  0
 19 20  1  0  0  0
 19 24  1  0  0  0
 20 21  2  0  0  0
 20102  1  0  0  0
 21 23  1  0  0  0
 22 28  1  0  0  0
 22 32  2  0  0  0
 26 27  1  0  0  0
 28103  1  0  0  0
 28104  1  0  0  0
 29105  1  0  0  0
 29106  1  0  0  0
 33 34  1  0  0  0
 33 66  1  0  0  0
 33 70  2  0  0  0
 34 36  1  0  0  0
 34 59  1  0  0  0
 34107  1  0  0  0
 35 44  2  0  0  0
 35 45  1  0  0  0
 35 68  1  0  0  0
 36 56  1  0  0  0
 36108  1  0  0  0
 37 39  1  0  0  0
 37 47  1  0  0  0
 37 66  1  0  0  0
 37109  1  0  0  0
 38 43  2  0  0  0
 38 46  1  0  0  0
 38 47  1  0  0  0
 39 64  1  0  0  0
 39 67  2  0  0  0
 40 52  1  0  0  0
 40 53  2  0  0  0
 40 58  1  0  0  0
 41110  1  0  0  0
 41111  1  0  0  0
 41112  1  0  0  0
 41 48  1  0  0  0
 42 43  1  0  0  0
 42 66  1  0  0  0
 42113  1  0  0  0
 42114  1  0  0  0
 43 44  1  0  0  0
 44115  1  0  0  0
 45 46  2  0  0  0
 45116  1  0  0  0
 46117  1  0  0  0
 47118  1  0  0  0
 47119  1  0  0  0
 48 56  1  0  0  0
 48 65  1  0  0  0
 48120  1  0  0  0
 49 50  1  0  0  0
 49 53  1  0  0  0
 49 64  1  0  0  0
 49121  1  0  0  0
 50 51  1  0  0  0
 50122  1  0  0  0
 50123  1  0  0  0
 51 52  1  0  0  0
 51124  1  0  0  0
 51125  1  0  0  0
 52126  1  0  0  0
 52127  1  0  0  0
 53 54  1  0  0  0
 54 55  2  0  0  0
 54128  1  0  0  0
 55 57  1  0  0  0
 55129  1  0  0  0
 56 69  2  0  0  0
 57 58  2  0  0  0
 57130  1  0  0  0
 58131  1  0  0  0
 59 60  1  0  0  0
 59 61  1  0  0  0
 59 62  1  0  0  0
 60132  1  0  0  0
 60133  1  0  0  0
 60134  1  0  0  0
 61135  1  0  0  0
 61136  1  0  0  0
 61137  1  0  0  0
 62138  1  0  0  0
 62139  1  0  0  0
 62140  1  0  0  0
 63 65  1  0  0  0
 63141  1  0  0  0
 63142  1  0  0  0
 63143  1  0  0  0
 64144  1  0  0  0
 65145  1  0  0  0
 68 78  1  0  0  0
 71 72  2  0  0  0
 71 73  1  0  0  0
 71146  1  0  0  0
 72 75  1  0  0  0
 72147  1  0  0  0
 73 76  2  0  0  0
 73148  1  0  0  0
 74 75  2  0  0  0
 74 76  1  0  0  0
 74149  1  0  0  0
 75 79  1  0  0  0
 76 84  1  0  0  0
 77 78  2  0  0  0
 77 82  1  0  0  0
 77150  1  0  0  0
 78151  1  0  0  0
 79 85  1  0  0  0
 79 86  2  0  0  0
 80152  1  0  0  0
 80153  1  0  0  0
 80154  1  0  0  0
 80 82  1  0  0  0
 81155  1  0  0  0
 81156  1  0  0  0
 81157  1  0  0  0
 81 83  1  0  0  0
 82 83  1  0  0  0
 82158  1  0  0  0
 83 85  1  0  0  0
 83159  1  0  0  0
 84160  1  0  0  0
 85161  1  0  0  0
M  ISO  4   1 100  68 101  78 101  84 100
M  END
> <chiral flag>
0

> <version>
0

> <s_m_source_file>
/data/baiqing/PycharmProjects/Reinvent-master-3.2/result/LINK_invent/BTK/process_docking_weight1_custom_product_contain_oxygen_bond_distance_aromatic_linkinvent_7_9_3/rearranged_h_0075.sdf

> <i_m_source_file_index>
93

> <r_mmod_Potential_Energy-OPLS-2005>
-85.3050765991211

> <r_mmod_Stretch_Energy-OPLS-2005>
29.4003944396973

> <r_mmod_Bend_Energy-OPLS-2005>
96.4297103881836

> <r_mmod_Torsional_Energy-OPLS-2005>
270.594177246094

> <r_mmod_Improper_Torsional_Energy-OPLS-2005>
9.98489284515381

> <r_mmod_Van_der_Waal_Energy-OPLS-2005>
158.045928955078

> <r_mmod_Electrostatic_Energy-OPLS-2005>
-436.861938476562

> <r_mmod_Solvation_Energy-OPLS-2005>
-225.343795776367

> <b_mmod_Minimization_Converged-OPLS-2005>
0

> <r_mmod_RMS_Derivative-OPLS-2005>
4.33785676956177

$$$$
94
                    3D
 Structure written by MMmdl.
165174  0  0  1  0            999 V2000
  -30.7025  -14.6663   20.5651 C   0  0  0  0  0  0
  -30.4209  -12.4274   19.4687 C   0  0  0  0  0  0
  -29.5025  -12.4991   18.2306 C   0  0  0  0  0  0
  -28.0292  -12.3243   18.6404 C   0  0  0  0  0  0
  -27.6427  -13.2220   19.8414 C   0  0  2  0  0  0
  -28.6797  -13.1521   20.9813 C   0  0  0  0  0  0
  -25.2513  -13.8177   20.5668 C   0  0  0  0  0  0
  -24.1791  -13.0434   20.9174 C   0  0  0  0  0  0
  -24.6369  -11.6909   20.8723 C   0  0  0  0  0  0
  -23.9042  -10.4287   21.0405 C   0  0  0  0  0  0
  -24.3593   -9.4212   21.9195 C   0  0  0  0  0  0
  -23.6274   -8.2237   22.0773 C   0  0  0  0  0  0
  -22.4253   -8.0275   21.3559 C   0  0  0  0  0  0
  -21.9881   -9.0244   20.4660 C   0  0  0  0  0  0
  -22.7203  -10.2123   20.3060 C   0  0  0  0  0  0
  -21.6848   -6.0731   22.5275 C   0  0  0  0  0  0
  -21.4013   -6.5622   23.8206 C   0  0  0  0  0  0
  -21.3670   -5.6781   24.9169 C   0  0  0  0  0  0
  -21.6039   -4.3044   24.7211 C   0  0  0  0  0  0
  -21.8814   -3.8146   23.4329 C   0  0  0  0  0  0
  -21.9191   -4.6959   22.3387 C   0  0  0  0  0  0
  -22.7826  -13.5240   21.1850 C   0  0  0  0  0  0
  -22.1658   -4.2151   21.0961 F   0  0  0  0  0  0
  -21.5633   -3.4525   25.7730 F   0  0  0  0  0  0
  -30.0083  -13.4787   20.4309 N   0  0  0  0  0  0
  -26.2928  -12.9375   20.3211 N   0  0  0  0  0  0
  -25.9294  -11.6520   20.5700 N   0  0  0  0  0  0
  -22.0453  -12.8253   22.0408 N   0  0  0  0  0  0
  -25.4221  -15.1903   20.4174 N   0  0  0  0  0  0
  -31.7892  -14.8139   19.9979 O   0  0  0  0  0  0
  -21.6624   -6.8872   21.4242 O   0  0  0  0  0  0
  -22.3517  -14.5557   20.6706 O   0  0  0  0  0  0
  -24.6274  -31.8599   23.2018 C   0  0  0  0  0  0
  -25.9121  -32.4776   23.8342 C   0  0  1  0  0  0
  -27.2266  -27.3046   20.1142 C   0  0  0  0  0  0
  -25.5924  -33.8569   24.2270 N   0  0  0  0  0  0
  -23.4198  -30.4851   21.5461 C   0  0  2  0  0  0
  -24.8660  -28.9389   20.1151 C   0  0  0  0  0  0
  -22.7470  -29.4639   22.4937 C   0  0  0  0  0  0
  -18.0290  -28.1387   22.8491 C   0  0  0  0  0  0
  -24.1480  -36.7283   23.2635 C   0  0  0  0  0  0
  -25.9623  -30.7890   21.3725 C   0  0  0  0  0  0
  -26.0375  -29.4131   20.7164 C   0  0  0  0  0  0
  -27.2191  -28.6096   20.7048 C   0  0  0  0  0  0
  -26.0231  -26.8896   19.4934 C   0  0  0  0  0  0
  -24.8618  -27.6820   19.4954 C   0  0  0  0  0  0
  -23.6351  -29.8209   20.1615 C   0  0  0  0  0  0
  -25.4103  -36.3075   24.0329 C   0  0  1  0  0  0
  -20.5892  -28.3694   23.1284 C   0  0  2  0  0  0
  -20.6782  -26.9419   22.5410 C   0  0  0  0  0  0
  -19.5756  -26.6390   21.5212 C   0  0  0  0  0  0
  -18.1934  -26.7933   22.1621 C   0  0  0  0  0  0
  -19.1542  -28.8853   23.2887 C   0  0  0  0  0  0
  -18.9467  -30.1456   23.8898 C   0  0  0  0  0  0
  -17.6466  -30.6592   24.0566 C   0  0  0  0  0  0
  -25.9042  -34.9450   23.5098 C   0  0  0  0  0  0
  -16.5358  -29.9087   23.6332 C   0  0  0  0  0  0
  -16.7281  -28.6508   23.0355 C   0  0  0  0  0  0
  -26.4493  -31.6565   25.0705 C   0  0  0  0  0  0
  -25.3712  -31.3724   26.1424 C   0  0  0  0  0  0
  -27.0307  -30.2981   24.6141 C   0  0  0  0  0  0
  -27.6061  -32.4274   25.7485 C   0  0  0  0  0  0
  -27.5571  -37.1793   24.8458 C   0  0  0  0  0  0
  -21.4185  -29.3043   22.3672 N   0  0  0  0  0  0
  -26.4276  -37.3774   23.9415 N   0  0  0  0  0  0
  -24.6890  -31.0609   22.0968 N   0  0  0  0  0  0
  -23.4193  -28.8177   23.3024 O   0  0  0  0  0  0
  -28.3551  -26.4585   20.1428 O   0  0  0  0  0  0
  -26.5620  -34.8923   22.4671 O   0  0  0  0  0  0
  -23.5436  -32.1401   23.7341 O   0  0  0  0  0  0
  -30.6821  -19.4776   21.8796 C   0  0  0  0  0  0
  -30.7700  -18.0620   22.0012 C   0  0  0  0  0  0
  -29.4362  -19.2261   19.8719 C   0  0  0  0  0  0
  -29.4994  -17.7891   19.9979 C   0  0  0  0  0  0
  -30.0085  -20.1415   20.8111 C   0  0  0  0  0  0
  -30.1821  -17.1435   21.0826 C   0  0  0  0  0  0
  -30.7726  -22.5108   21.3212 C   0  0  0  0  0  0
  -29.0458  -22.4079   19.9927 C   0  0  0  0  0  0
  -30.1111  -24.2616   18.5864 C   0  0  0  0  0  0
  -30.4254  -23.9850   21.0743 C   0  0  0  0  0  0
  -29.3976  -23.9566   19.9348 C   0  0  2  0  0  0
  -28.7458  -16.9673   18.9701 C   0  0  0  0  0  0
  -30.6117  -25.6855   18.3399 C   0  0  0  0  0  0
  -30.3754  -15.3265   22.7970 C   0  0  0  0  0  0
  -28.1644  -24.9766   20.0924 C   0  0  0  0  0  0
  -29.9348  -21.6422   20.7038 N   0  0  0  0  0  0
  -30.2062  -15.6754   21.3742 N   0  0  0  0  0  0
  -31.7629  -22.2227   22.0025 O   0  0  0  0  0  0
  -28.0146  -21.9650   19.4704 O   0  0  0  0  0  0
  -30.3192  -23.4046   17.7215 O   0  0  0  0  0  0
  -31.4646  -12.5237   19.1661 H   0  0  0  0  0  0
  -30.3417  -11.4464   19.9400 H   0  0  0  0  0  0
  -29.7782  -11.7254   17.5117 H   0  0  0  0  0  0
  -29.6357  -13.4528   17.7189 H   0  0  0  0  0  0
  -27.8804  -11.2758   18.9010 H   0  0  0  0  0  0
  -27.3729  -12.5212   17.7922 H   0  0  0  0  0  0
  -27.6410  -14.2408   19.4591 H   0  0  0  0  0  0
  -28.6929  -12.1631   21.4423 H   0  0  0  0  0  0
  -28.3717  -13.8492   21.7593 H   0  0  0  0  0  0
  -25.2735   -9.5698   22.4767 H   0  0  0  0  0  0
  -23.9989   -7.4631   22.7484 H   0  0  0  0  0  0
  -21.0819   -8.8748   19.8965 H   0  0  0  0  0  0
  -22.3659  -10.9655   19.6161 H   0  0  0  0  0  0
  -21.1999   -7.6130   23.9706 H   0  0  0  0  0  0
  -21.1504   -6.0509   25.9071 H   0  0  0  0  0  0
  -22.0584   -2.7611   23.2812 H   0  0  0  0  0  0
  -22.4022  -11.9896   22.4792 H   0  0  0  0  0  0
  -21.1096  -13.1365   22.2625 H   0  0  0  0  0  0
  -24.6616  -15.8480   20.5507 H   0  0  0  0  0  0
  -26.2910  -15.6370   20.1602 H   0  0  0  0  0  0
  -26.7186  -32.5452   23.1087 H   0  0  0  0  0  0
  -25.0043  -33.9708   25.0397 H   0  0  0  0  0  0
  -22.7141  -31.3064   21.4045 H   0  0  0  0  0  0
  -23.3745  -35.9609   23.3281 H   0  0  0  0  0  0
  -24.3580  -36.8923   22.2051 H   0  0  0  0  0  0
  -23.7226  -37.6478   23.6668 H   0  0  0  0  0  0
  -26.0885  -31.5501   20.6011 H   0  0  0  0  0  0
  -26.8452  -30.8432   21.9977 H   0  0  0  0  0  0
  -28.1171  -28.9735   21.1847 H   0  0  0  0  0  0
  -25.9333  -25.9409   18.9929 H   0  0  0  0  0  0
  -23.9643  -27.3127   19.0188 H   0  0  0  0  0  0
  -23.7553  -30.5975   19.4053 H   0  0  0  0  0  0
  -22.7543  -29.2517   19.8592 H   0  0  0  0  0  0
  -25.1280  -36.1909   25.0820 H   0  0  0  0  0  0
  -20.9997  -28.3270   24.1401 H   0  0  0  0  0  0
  -20.5696  -26.2299   23.3608 H   0  0  0  0  0  0
  -21.6653  -26.7460   22.1199 H   0  0  0  0  0  0
  -19.6919  -25.6298   21.1245 H   0  0  0  0  0  0
  -19.6690  -27.3198   20.6738 H   0  0  0  0  0  0
  -17.4213  -26.6697   21.4016 H   0  0  0  0  0  0
  -18.0325  -26.0067   22.9007 H   0  0  0  0  0  0
  -19.7946  -30.7272   24.2268 H   0  0  0  0  0  0
  -17.5027  -31.6276   24.5164 H   0  0  0  0  0  0
  -15.5357  -30.2994   23.7647 H   0  0  0  0  0  0
  -15.8682  -28.0821   22.7068 H   0  0  0  0  0  0
  -24.5901  -30.7053   25.7757 H   0  0  0  0  0  0
  -24.8878  -32.2896   26.4796 H   0  0  0  0  0  0
  -25.8021  -30.8939   27.0227 H   0  0  0  0  0  0
  -26.2861  -29.6755   24.1165 H   0  0  0  0  0  0
  -27.4002  -29.7216   25.4631 H   0  0  0  0  0  0
  -27.8742  -30.4257   23.9354 H   0  0  0  0  0  0
  -27.2696  -33.3595   26.2040 H   0  0  0  0  0  0
  -28.3894  -32.6785   25.0320 H   0  0  0  0  0  0
  -28.0692  -31.8388   26.5418 H   0  0  0  0  0  0
  -28.2575  -38.0101   24.7518 H   0  0  0  0  0  0
  -28.1075  -36.2636   24.6245 H   0  0  0  0  0  0
  -27.2307  -37.1409   25.8865 H   0  0  0  0  0  0
  -20.9352  -29.8738   21.6859 H   0  0  0  0  0  0
  -26.0148  -38.2843   24.1424 H   0  0  0  0  0  0
  -31.1517  -20.0380   22.6728 H   0  0  0  0  0  0
  -31.3017  -17.6953   22.8657 H   0  0  0  0  0  0
  -28.9067  -19.6328   19.0211 H   0  0  0  0  0  0
  -31.3323  -24.5428   20.8386 H   0  0  0  0  0  0
  -30.0005  -24.4148   21.9814 H   0  0  0  0  0  0
  -28.3845  -17.5885   18.1502 H   0  0  0  0  0  0
  -27.8753  -16.5092   19.4362 H   0  0  0  0  0  0
  -29.3719  -16.1877   18.5390 H   0  0  0  0  0  0
  -30.9568  -26.1487   19.2631 H   0  0  0  0  0  0
  -29.8138  -26.3027   17.9268 H   0  0  0  0  0  0
  -31.4410  -25.6790   17.6317 H   0  0  0  0  0  0
  -31.4226  -15.4399   23.0844 H   0  0  0  0  0  0
  -30.1084  -14.2971   23.0383 H   0  0  0  0  0  0
  -29.7688  -15.9661   23.4396 H   0  0  0  0  0  0
  -27.5943  -24.6941   20.9787 H   0  0  0  0  0  0
  -27.5269  -24.7349   19.2454 H   0  0  0  0  0  0
  1 25  1  0  0  0
  1 30  2  0  0  0
  1 87  1  0  0  0
  2  3  1  0  0  0
  2 25  1  0  0  0
  2 91  1  0  0  0
  2 92  1  0  0  0
  3  4  1  0  0  0
  3 93  1  0  0  0
  3 94  1  0  0  0
  4  5  1  0  0  0
  4 95  1  0  0  0
  4 96  1  0  0  0
  5  6  1  0  0  0
  5 26  1  0  0  0
  5 97  1  0  0  0
  6 25  1  0  0  0
  6 98  1  0  0  0
  6 99  1  0  0  0
  7  8  2  0  0  0
  7 26  1  0  0  0
  7 29  1  0  0  0
  8  9  1  0  0  0
  8 22  1  0  0  0
  9 10  1  0  0  0
  9 27  2  0  0  0
 10 11  2  0  0  0
 10 15  1  0  0  0
 11 12  1  0  0  0
 11100  1  0  0  0
 12 13  2  0  0  0
 12101  1  0  0  0
 13 14  1  0  0  0
 13 31  1  0  0  0
 14 15  2  0  0  0
 14102  1  0  0  0
 15103  1  0  0  0
 16 17  2  0  0  0
 16 21  1  0  0  0
 16 31  1  0  0  0
 17 18  1  0  0  0
 17104  1  0  0  0
 18 19  2  0  0  0
 18105  1  0  0  0
 19 20  1  0  0  0
 19 24  1  0  0  0
 20 21  2  0  0  0
 20106  1  0  0  0
 21 23  1  0  0  0
 22 28  1  0  0  0
 22 32  2  0  0  0
 26 27  1  0  0  0
 28107  1  0  0  0
 28108  1  0  0  0
 29109  1  0  0  0
 29110  1  0  0  0
 33 34  1  0  0  0
 33 66  1  0  0  0
 33 70  2  0  0  0
 34 36  1  0  0  0
 34 59  1  0  0  0
 34111  1  0  0  0
 35 44  2  0  0  0
 35 45  1  0  0  0
 35 68  1  0  0  0
 36 56  1  0  0  0
 36112  1  0  0  0
 37 39  1  0  0  0
 37 47  1  0  0  0
 37 66  1  0  0  0
 37113  1  0  0  0
 38 43  2  0  0  0
 38 46  1  0  0  0
 38 47  1  0  0  0
 39 64  1  0  0  0
 39 67  2  0  0  0
 40 52  1  0  0  0
 40 53  2  0  0  0
 40 58  1  0  0  0
 41114  1  0  0  0
 41115  1  0  0  0
 41116  1  0  0  0
 41 48  1  0  0  0
 42 43  1  0  0  0
 42 66  1  0  0  0
 42117  1  0  0  0
 42118  1  0  0  0
 43 44  1  0  0  0
 44119  1  0  0  0
 45 46  2  0  0  0
 45120  1  0  0  0
 46121  1  0  0  0
 47122  1  0  0  0
 47123  1  0  0  0
 48 56  1  0  0  0
 48 65  1  0  0  0
 48124  1  0  0  0
 49 50  1  0  0  0
 49 53  1  0  0  0
 49 64  1  0  0  0
 49125  1  0  0  0
 50 51  1  0  0  0
 50126  1  0  0  0
 50127  1  0  0  0
 51 52  1  0  0  0
 51128  1  0  0  0
 51129  1  0  0  0
 52130  1  0  0  0
 52131  1  0  0  0
 53 54  1  0  0  0
 54 55  2  0  0  0
 54132  1  0  0  0
 55 57  1  0  0  0
 55133  1  0  0  0
 56 69  2  0  0  0
 57 58  2  0  0  0
 57134  1  0  0  0
 58135  1  0  0  0
 59 60  1  0  0  0
 59 61  1  0  0  0
 59 62  1  0  0  0
 60136  1  0  0  0
 60137  1  0  0  0
 60138  1  0  0  0
 61139  1  0  0  0
 61140  1  0  0  0
 61141  1  0  0  0
 62142  1  0  0  0
 62143  1  0  0  0
 62144  1  0  0  0
 63 65  1  0  0  0
 63145  1  0  0  0
 63146  1  0  0  0
 63147  1  0  0  0
 64148  1  0  0  0
 65149  1  0  0  0
 68 85  1  0  0  0
 71 72  2  0  0  0
 71 75  1  0  0  0
 71150  1  0  0  0
 72 76  1  0  0  0
 72151  1  0  0  0
 73 74  1  0  0  0
 73 75  2  0  0  0
 73152  1  0  0  0
 74 76  2  0  0  0
 74 82  1  0  0  0
 75 86  1  0  0  0
 76 87  1  0  0  0
 77 80  1  0  0  0
 77 86  1  0  0  0
 77 88  2  0  0  0
 78 81  1  0  0  0
 78 86  1  0  0  0
 78 89  2  0  0  0
 79 83  1  0  0  0
 79 90  2  0  0  0
 79 81  1  0  0  0
 80 81  1  0  0  0
 80153  1  0  0  0
 80154  1  0  0  0
 81 85  1  0  0  0
 82155  1  0  0  0
 82156  1  0  0  0
 82157  1  0  0  0
 83158  1  0  0  0
 83159  1  0  0  0
 83160  1  0  0  0
 84 87  1  0  0  0
 84161  1  0  0  0
 84162  1  0  0  0
 84163  1  0  0  0
 85164  1  0  0  0
 85165  1  0  0  0
M  ISO  4   1 100  68 101  85 101  87 100
M  END
> <chiral flag>
0

> <version>
0

> <s_m_source_file>
/data/baiqing/PycharmProjects/Reinvent-master-3.2/result/LINK_invent/BTK/process_docking_weight1_custom_product_contain_oxygen_bond_distance_aromatic_linkinvent_7_9_3/rearranged_h_0075.sdf

> <i_m_source_file_index>
94

> <r_mmod_Potential_Energy-OPLS-2005>
245.466278076172

> <r_mmod_Stretch_Energy-OPLS-2005>
117.087844848633

> <r_mmod_Bend_Energy-OPLS-2005>
202.106079101562

> <r_mmod_Torsional_Energy-OPLS-2005>
325.104888916016

> <r_mmod_Improper_Torsional_Energy-OPLS-2005>
4.82102584838867

> <r_mmod_Van_der_Waal_Energy-OPLS-2005>
162.734817504883

> <r_mmod_Electrostatic_Energy-OPLS-2005>
-395.708587646484

> <r_mmod_Solvation_Energy-OPLS-2005>
-226.671844482422

> <b_mmod_Minimization_Converged-OPLS-2005>
0

> <r_mmod_RMS_Derivative-OPLS-2005>
2.49768328666687

$$$$
95
                    3D
 Structure written by MMmdl.
157166  0  0  1  0            999 V2000
  -30.6499  -14.6858   20.5854 C   0  0  0  0  0  0
  -30.4359  -12.4475   19.4647 C   0  0  0  0  0  0
  -29.5102  -12.5341   18.2310 C   0  0  0  0  0  0
  -28.0357  -12.3498   18.6370 C   0  0  0  0  0  0
  -27.6490  -13.2244   19.8566 C   0  0  2  0  0  0
  -28.6849  -13.0936   20.9894 C   0  0  0  0  0  0
  -25.2541  -13.8183   20.5676 C   0  0  0  0  0  0
  -24.1816  -13.0438   20.9175 C   0  0  0  0  0  0
  -24.6395  -11.6912   20.8718 C   0  0  0  0  0  0
  -23.9068  -10.4293   21.0395 C   0  0  0  0  0  0
  -24.3619   -9.4212   21.9177 C   0  0  0  0  0  0
  -23.6294   -8.2247   22.0753 C   0  0  0  0  0  0
  -22.4275   -8.0283   21.3544 C   0  0  0  0  0  0
  -21.9909   -9.0255   20.4646 C   0  0  0  0  0  0
  -22.7238  -10.2133   20.3050 C   0  0  0  0  0  0
  -21.6855   -6.0736   22.5279 C   0  0  0  0  0  0
  -21.4016   -6.5640   23.8213 C   0  0  0  0  0  0
  -21.3660   -5.6792   24.9175 C   0  0  0  0  0  0
  -21.6044   -4.3055   24.7225 C   0  0  0  0  0  0
  -21.8819   -3.8147   23.4346 C   0  0  0  0  0  0
  -21.9193   -4.6964   22.3403 C   0  0  0  0  0  0
  -22.7841  -13.5227   21.1854 C   0  0  0  0  0  0
  -22.1661   -4.2149   21.0980 F   0  0  0  0  0  0
  -21.5628   -3.4539   25.7738 F   0  0  0  0  0  0
  -30.0033  -13.4705   20.4485 N   0  0  0  0  0  0
  -26.2962  -12.9376   20.3261 N   0  0  0  0  0  0
  -25.9321  -11.6522   20.5708 N   0  0  0  0  0  0
  -22.0492  -12.8216   22.0415 N   0  0  0  0  0  0
  -25.4264  -15.1908   20.4140 N   0  0  0  0  0  0
  -31.7408  -14.8639   20.0325 O   0  0  0  0  0  0
  -21.6641   -6.8879   21.4241 O   0  0  0  0  0  0
  -22.3520  -14.5534   20.6710 O   0  0  0  0  0  0
  -24.6306  -31.8563   23.1999 C   0  0  0  0  0  0
  -25.9136  -32.4761   23.8340 C   0  0  1  0  0  0
  -27.2195  -27.2721   20.1228 C   0  0  0  0  0  0
  -25.5935  -33.8563   24.2262 N   0  0  0  0  0  0
  -23.4265  -30.4804   21.5433 C   0  0  2  0  0  0
  -24.8733  -28.9318   20.1090 C   0  0  0  0  0  0
  -22.7499  -29.4609   22.4915 C   0  0  0  0  0  0
  -18.0291  -28.1387   22.8484 C   0  0  0  0  0  0
  -24.1490  -36.7286   23.2639 C   0  0  0  0  0  0
  -25.9725  -30.7722   21.3793 C   0  0  0  0  0  0
  -26.0451  -29.3966   20.7193 C   0  0  0  0  0  0
  -27.2204  -28.5791   20.7161 C   0  0  0  0  0  0
  -26.0243  -26.8794   19.4759 C   0  0  0  0  0  0
  -24.8679  -27.6807   19.4766 C   0  0  0  0  0  0
  -23.6439  -29.8171   20.1584 C   0  0  0  0  0  0
  -25.4117  -36.3073   24.0326 C   0  0  1  0  0  0
  -20.5895  -28.3698   23.1269 C   0  0  2  0  0  0
  -20.6779  -26.9416   22.5407 C   0  0  0  0  0  0
  -19.5754  -26.6384   21.5211 C   0  0  0  0  0  0
  -18.1935  -26.7929   22.1625 C   0  0  0  0  0  0
  -19.1545  -28.8859   23.2872 C   0  0  0  0  0  0
  -18.9466  -30.1460   23.8891 C   0  0  0  0  0  0
  -17.6465  -30.6588   24.0562 C   0  0  0  0  0  0
  -25.9056  -34.9443   23.5096 C   0  0  0  0  0  0
  -16.5356  -29.9085   23.6331 C   0  0  0  0  0  0
  -16.7278  -28.6503   23.0353 C   0  0  0  0  0  0
  -26.4504  -31.6584   25.0727 C   0  0  0  0  0  0
  -25.3724  -31.3733   26.1445 C   0  0  0  0  0  0
  -27.0355  -30.3001   24.6216 C   0  0  0  0  0  0
  -27.6054  -32.4328   25.7503 C   0  0  0  0  0  0
  -27.5578  -37.1801   24.8466 C   0  0  0  0  0  0
  -21.4207  -29.3046   22.3659 N   0  0  0  0  0  0
  -26.4292  -37.3771   23.9407 N   0  0  0  0  0  0
  -24.6956  -31.0539   22.0971 N   0  0  0  0  0  0
  -23.4203  -28.8147   23.3008 O   0  0  0  0  0  0
  -28.3142  -26.3773   20.1929 O   0  0  0  0  0  0
  -26.5628  -34.8916   22.4664 O   0  0  0  0  0  0
  -23.5459  -32.1380   23.7301 O   0  0  0  0  0  0
  -29.9677  -19.2329   19.6660 C   0  0  0  0  0  0
  -29.0322  -19.3984   21.8127 C   0  0  0  0  0  0
  -30.1845  -17.8170   19.8492 C   0  0  0  0  0  0
  -29.2406  -17.9996   22.0132 C   0  0  0  0  0  0
  -29.3888  -20.1212   20.6368 C   0  0  0  0  0  0
  -29.8450  -17.1326   21.0532 C   0  0  0  0  0  0
  -29.3818  -22.5440   19.4647 C   0  0  0  0  0  0
  -28.5915  -22.5864   21.3284 C   0  0  0  0  0  0
  -29.1223  -23.7659   20.4324 C   0  0  0  0  0  0
  -30.4274  -24.3640   20.9729 C   0  0  0  0  0  0
  -30.0677  -15.3504   22.8054 C   0  0  0  0  0  0
  -28.0738  -24.9056   19.9766 C   0  0  0  0  0  0
  -29.1812  -21.5931   20.4995 N   0  0  0  0  0  0
  -30.0777  -15.6843   21.3680 N   0  0  0  0  0  0
  -29.6838  -22.3996   18.2969 O   0  0  0  0  0  0
  -27.9557  -22.4930   22.3600 O   0  0  0  0  0  0
  -31.4759  -12.5783   19.1614 H   0  0  0  0  0  0
  -30.3861  -11.4533   19.9114 H   0  0  0  0  0  0
  -29.7917  -11.7812   17.4935 H   0  0  0  0  0  0
  -29.6380  -13.5023   17.7445 H   0  0  0  0  0  0
  -27.8867  -11.2962   18.8763 H   0  0  0  0  0  0
  -27.3800  -12.5656   17.7927 H   0  0  0  0  0  0
  -27.6649  -14.2599   19.5152 H   0  0  0  0  0  0
  -28.7126  -12.0719   21.3709 H   0  0  0  0  0  0
  -28.3721  -13.7096   21.8283 H   0  0  0  0  0  0
  -25.2766   -9.5690   22.4748 H   0  0  0  0  0  0
  -24.0005   -7.4641   22.7473 H   0  0  0  0  0  0
  -21.0840   -8.8772   19.8953 H   0  0  0  0  0  0
  -22.3695  -10.9669   19.6157 H   0  0  0  0  0  0
  -21.2008   -7.6148   23.9716 H   0  0  0  0  0  0
  -21.1482   -6.0523   25.9078 H   0  0  0  0  0  0
  -22.0598   -2.7609   23.2846 H   0  0  0  0  0  0
  -22.4112  -11.9875   22.4796 H   0  0  0  0  0  0
  -21.1112  -13.1241   22.2631 H   0  0  0  0  0  0
  -24.6667  -15.8510   20.5385 H   0  0  0  0  0  0
  -26.2916  -15.6318   20.1274 H   0  0  0  0  0  0
  -26.7202  -32.5413   23.1081 H   0  0  0  0  0  0
  -25.0076  -33.9700   25.0404 H   0  0  0  0  0  0
  -22.7224  -31.3025   21.3992 H   0  0  0  0  0  0
  -23.3753  -35.9618   23.3301 H   0  0  0  0  0  0
  -24.3579  -36.8911   22.2054 H   0  0  0  0  0  0
  -23.7243  -37.6486   23.6665 H   0  0  0  0  0  0
  -26.1121  -31.5346   20.6117 H   0  0  0  0  0  0
  -26.8498  -30.8188   22.0130 H   0  0  0  0  0  0
  -28.1157  -28.9283   21.2113 H   0  0  0  0  0  0
  -25.9472  -25.9278   18.9724 H   0  0  0  0  0  0
  -23.9721  -27.3212   18.9889 H   0  0  0  0  0  0
  -23.7675  -30.5946   19.4036 H   0  0  0  0  0  0
  -22.7622  -29.2507   19.8531 H   0  0  0  0  0  0
  -25.1300  -36.1920   25.0819 H   0  0  0  0  0  0
  -20.9988  -28.3276   24.1390 H   0  0  0  0  0  0
  -20.5679  -26.2309   23.3612 H   0  0  0  0  0  0
  -21.6647  -26.7440   22.1201 H   0  0  0  0  0  0
  -19.6915  -25.6293   21.1244 H   0  0  0  0  0  0
  -19.6689  -27.3191   20.6738 H   0  0  0  0  0  0
  -17.4203  -26.6674   21.4029 H   0  0  0  0  0  0
  -18.0337  -26.0072   22.9023 H   0  0  0  0  0  0
  -19.7942  -30.7277   24.2258 H   0  0  0  0  0  0
  -17.5019  -31.6268   24.5165 H   0  0  0  0  0  0
  -15.5356  -30.2985   23.7659 H   0  0  0  0  0  0
  -15.8678  -28.0820   22.7072 H   0  0  0  0  0  0
  -24.5905  -30.7076   25.7772 H   0  0  0  0  0  0
  -24.8909  -32.2901   26.4854 H   0  0  0  0  0  0
  -25.8039  -30.8922   27.0231 H   0  0  0  0  0  0
  -26.2943  -29.6744   24.1230 H   0  0  0  0  0  0
  -27.4025  -29.7269   25.4740 H   0  0  0  0  0  0
  -27.8825  -30.4275   23.9471 H   0  0  0  0  0  0
  -27.2658  -33.3632   26.2066 H   0  0  0  0  0  0
  -28.3872  -32.6882   25.0338 H   0  0  0  0  0  0
  -28.0713  -31.8463   26.5432 H   0  0  0  0  0  0
  -28.2598  -38.0096   24.7510 H   0  0  0  0  0  0
  -28.1073  -36.2627   24.6298 H   0  0  0  0  0  0
  -27.2295  -37.1457   25.8868 H   0  0  0  0  0  0
  -20.9390  -29.8771   21.6867 H   0  0  0  0  0  0
  -26.0170  -38.2846   24.1403 H   0  0  0  0  0  0
  -30.2800  -19.6550   18.7212 H   0  0  0  0  0  0
  -28.5762  -19.9376   22.6306 H   0  0  0  0  0  0
  -30.6464  -17.2647   19.0430 H   0  0  0  0  0  0
  -28.9141  -17.6111   22.9658 H   0  0  0  0  0  0
  -31.1405  -23.6021   21.2933 H   0  0  0  0  0  0
  -30.2372  -25.0076   21.8324 H   0  0  0  0  0  0
  -30.9233  -24.9735   20.2172 H   0  0  0  0  0  0
  -29.0571  -15.4022   23.2113 H   0  0  0  0  0  0
  -30.6947  -16.0479   23.3625 H   0  0  0  0  0  0
  -30.4493  -14.3523   23.0351 H   0  0  0  0  0  0
  -27.1219  -24.6699   20.4556 H   0  0  0  0  0  0
  -27.8917  -24.7870   18.9075 H   0  0  0  0  0  0
  1 25  1  0  0  0
  1 30  2  0  0  0
  1 84  1  0  0  0
  2  3  1  0  0  0
  2 25  1  0  0  0
  2 87  1  0  0  0
  2 88  1  0  0  0
  3  4  1  0  0  0
  3 89  1  0  0  0
  3 90  1  0  0  0
  4  5  1  0  0  0
  4 91  1  0  0  0
  4 92  1  0  0  0
  5  6  1  0  0  0
  5 26  1  0  0  0
  5 93  1  0  0  0
  6 25  1  0  0  0
  6 94  1  0  0  0
  6 95  1  0  0  0
  7  8  2  0  0  0
  7 26  1  0  0  0
  7 29  1  0  0  0
  8  9  1  0  0  0
  8 22  1  0  0  0
  9 10  1  0  0  0
  9 27  2  0  0  0
 10 11  2  0  0  0
 10 15  1  0  0  0
 11 12  1  0  0  0
 11 96  1  0  0  0
 12 13  2  0  0  0
 12 97  1  0  0  0
 13 14  1  0  0  0
 13 31  1  0  0  0
 14 15  2  0  0  0
 14 98  1  0  0  0
 15 99  1  0  0  0
 16 17  2  0  0  0
 16 21  1  0  0  0
 16 31  1  0  0  0
 17 18  1  0  0  0
 17100  1  0  0  0
 18 19  2  0  0  0
 18101  1  0  0  0
 19 20  1  0  0  0
 19 24  1  0  0  0
 20 21  2  0  0  0
 20102  1  0  0  0
 21 23  1  0  0  0
 22 28  1  0  0  0
 22 32  2  0  0  0
 26 27  1  0  0  0
 28103  1  0  0  0
 28104  1  0  0  0
 29105  1  0  0  0
 29106  1  0  0  0
 33 34  1  0  0  0
 33 66  1  0  0  0
 33 70  2  0  0  0
 34 36  1  0  0  0
 34 59  1  0  0  0
 34107  1  0  0  0
 35 44  2  0  0  0
 35 45  1  0  0  0
 35 68  1  0  0  0
 36 56  1  0  0  0
 36108  1  0  0  0
 37 39  1  0  0  0
 37 47  1  0  0  0
 37 66  1  0  0  0
 37109  1  0  0  0
 38 43  2  0  0  0
 38 46  1  0  0  0
 38 47  1  0  0  0
 39 64  1  0  0  0
 39 67  2  0  0  0
 40 52  1  0  0  0
 40 53  2  0  0  0
 40 58  1  0  0  0
 41110  1  0  0  0
 41111  1  0  0  0
 41112  1  0  0  0
 41 48  1  0  0  0
 42 43  1  0  0  0
 42 66  1  0  0  0
 42113  1  0  0  0
 42114  1  0  0  0
 43 44  1  0  0  0
 44115  1  0  0  0
 45 46  2  0  0  0
 45116  1  0  0  0
 46117  1  0  0  0
 47118  1  0  0  0
 47119  1  0  0  0
 48 56  1  0  0  0
 48 65  1  0  0  0
 48120  1  0  0  0
 49 50  1  0  0  0
 49 53  1  0  0  0
 49 64  1  0  0  0
 49121  1  0  0  0
 50 51  1  0  0  0
 50122  1  0  0  0
 50123  1  0  0  0
 51 52  1  0  0  0
 51124  1  0  0  0
 51125  1  0  0  0
 52126  1  0  0  0
 52127  1  0  0  0
 53 54  1  0  0  0
 54 55  2  0  0  0
 54128  1  0  0  0
 55 57  1  0  0  0
 55129  1  0  0  0
 56 69  2  0  0  0
 57 58  2  0  0  0
 57130  1  0  0  0
 58131  1  0  0  0
 59 60  1  0  0  0
 59 61  1  0  0  0
 59 62  1  0  0  0
 60132  1  0  0  0
 60133  1  0  0  0
 60134  1  0  0  0
 61135  1  0  0  0
 61136  1  0  0  0
 61137  1  0  0  0
 62138  1  0  0  0
 62139  1  0  0  0
 62140  1  0  0  0
 63 65  1  0  0  0
 63141  1  0  0  0
 63142  1  0  0  0
 63143  1  0  0  0
 64144  1  0  0  0
 65145  1  0  0  0
 68 82  1  0  0  0
 71 73  2  0  0  0
 71 75  1  0  0  0
 71146  1  0  0  0
 72 74  1  0  0  0
 72 75  2  0  0  0
 72147  1  0  0  0
 73 76  1  0  0  0
 73148  1  0  0  0
 74 76  2  0  0  0
 74149  1  0  0  0
 75 83  1  0  0  0
 76 84  1  0  0  0
 77 79  1  0  0  0
 77 83  1  0  0  0
 77 85  2  0  0  0
 78 79  1  0  0  0
 78 83  1  0  0  0
 78 86  2  0  0  0
 79 80  1  0  0  0
 79 82  1  0  0  0
 80150  1  0  0  0
 80151  1  0  0  0
 80152  1  0  0  0
 81 84  1  0  0  0
 81153  1  0  0  0
 81154  1  0  0  0
 81155  1  0  0  0
 82156  1  0  0  0
 82157  1  0  0  0
M  ISO  4   1 100  68 101  82 101  84 100
M  END
> <chiral flag>
0

> <version>
0

> <s_m_source_file>
/data/baiqing/PycharmProjects/Reinvent-master-3.2/result/LINK_invent/BTK/process_docking_weight1_custom_product_contain_oxygen_bond_distance_aromatic_linkinvent_7_9_3/rearranged_h_0075.sdf

> <i_m_source_file_index>
95

> <r_mmod_Potential_Energy-OPLS-2005>
227.002166748047

> <r_mmod_Stretch_Energy-OPLS-2005>
119.293800354004

> <r_mmod_Bend_Energy-OPLS-2005>
184.673263549805

> <r_mmod_Torsional_Energy-OPLS-2005>
270.299346923828

> <r_mmod_Improper_Torsional_Energy-OPLS-2005>
2.86894869804382

> <r_mmod_Van_der_Waal_Energy-OPLS-2005>
151.261428833008

> <r_mmod_Electrostatic_Energy-OPLS-2005>
-363.535736083984

> <r_mmod_Solvation_Energy-OPLS-2005>
-206.287811279297

> <b_mmod_Minimization_Converged-OPLS-2005>
0

> <r_mmod_RMS_Derivative-OPLS-2005>
0.123905867338181

$$$$
96
                    3D
 Structure written by MMmdl.
159168  0  0  1  0            999 V2000
  -30.6979  -14.5656   20.5876 C   0  0  0  0  0  0
  -30.4411  -12.3734   19.4448 C   0  0  0  0  0  0
  -29.5103  -12.5249   18.2228 C   0  0  0  0  0  0
  -28.0344  -12.3545   18.6320 C   0  0  0  0  0  0
  -27.6624  -13.2120   19.8693 C   0  0  2  0  0  0
  -28.7073  -13.0436   21.0010 C   0  0  0  0  0  0
  -25.2478  -13.8115   20.5549 C   0  0  0  0  0  0
  -24.1796  -13.0387   20.9189 C   0  0  0  0  0  0
  -24.6399  -11.6875   20.8757 C   0  0  0  0  0  0
  -23.9077  -10.4263   21.0429 C   0  0  0  0  0  0
  -24.3618   -9.4180   21.9214 C   0  0  0  0  0  0
  -23.6282   -8.2218   22.0762 C   0  0  0  0  0  0
  -22.4265   -8.0263   21.3548 C   0  0  0  0  0  0
  -21.9905   -9.0251   20.4656 C   0  0  0  0  0  0
  -22.7254  -10.2122   20.3070 C   0  0  0  0  0  0
  -21.6839   -6.0717   22.5282 C   0  0  0  0  0  0
  -21.4012   -6.5621   23.8216 C   0  0  0  0  0  0
  -21.3662   -5.6775   24.9181 C   0  0  0  0  0  0
  -21.6049   -4.3042   24.7232 C   0  0  0  0  0  0
  -21.8814   -3.8130   23.4354 C   0  0  0  0  0  0
  -21.9190   -4.6948   22.3409 C   0  0  0  0  0  0
  -22.7822  -13.5198   21.1852 C   0  0  0  0  0  0
  -22.1664   -4.2133   21.0985 F   0  0  0  0  0  0
  -21.5625   -3.4530   25.7752 F   0  0  0  0  0  0
  -30.0444  -13.3670   20.4627 N   0  0  0  0  0  0
  -26.3002  -12.9350   20.3306 N   0  0  0  0  0  0
  -25.9333  -11.6509   20.5788 N   0  0  0  0  0  0
  -22.0456  -12.8217   22.0409 N   0  0  0  0  0  0
  -25.3902  -15.1809   20.3688 N   0  0  0  0  0  0
  -31.7745  -14.7866   20.0266 O   0  0  0  0  0  0
  -21.6617   -6.8870   21.4243 O   0  0  0  0  0  0
  -22.3510  -14.5521   20.6716 O   0  0  0  0  0  0
  -24.6213  -31.8638   23.2049 C   0  0  0  0  0  0
  -25.9083  -32.4801   23.8365 C   0  0  1  0  0  0
  -27.2420  -27.3798   20.1167 C   0  0  0  0  0  0
  -25.5908  -33.8601   24.2290 N   0  0  0  0  0  0
  -23.4124  -30.4839   21.5484 C   0  0  2  0  0  0
  -24.8617  -28.9420   20.1165 C   0  0  0  0  0  0
  -22.7447  -29.4639   22.4997 C   0  0  0  0  0  0
  -18.0285  -28.1385   22.8495 C   0  0  0  0  0  0
  -24.1484  -36.7304   23.2641 C   0  0  0  0  0  0
  -25.9472  -30.8130   21.3672 C   0  0  0  0  0  0
  -26.0250  -29.4432   20.7139 C   0  0  0  0  0  0
  -27.2192  -28.6758   20.6995 C   0  0  0  0  0  0
  -26.0591  -26.9090   19.5047 C   0  0  0  0  0  0
  -24.8784  -27.6780   19.5025 C   0  0  0  0  0  0
  -23.6233  -29.8118   20.1649 C   0  0  0  0  0  0
  -25.4105  -36.3098   24.0335 C   0  0  1  0  0  0
  -20.5877  -28.3676   23.1313 C   0  0  2  0  0  0
  -20.6772  -26.9409   22.5425 C   0  0  0  0  0  0
  -19.5747  -26.6388   21.5222 C   0  0  0  0  0  0
  -18.1925  -26.7933   22.1627 C   0  0  0  0  0  0
  -19.1533  -28.8844   23.2899 C   0  0  0  0  0  0
  -18.9455  -30.1448   23.8910 C   0  0  0  0  0  0
  -17.6455  -30.6591   24.0564 C   0  0  0  0  0  0
  -25.9040  -34.9468   23.5115 C   0  0  0  0  0  0
  -16.5347  -29.9091   23.6330 C   0  0  0  0  0  0
  -16.7271  -28.6510   23.0351 C   0  0  0  0  0  0
  -26.4483  -31.6609   25.0729 C   0  0  0  0  0  0
  -25.3721  -31.3746   26.1464 C   0  0  0  0  0  0
  -27.0324  -30.3035   24.6167 C   0  0  0  0  0  0
  -27.6048  -32.4352   25.7490 C   0  0  0  0  0  0
  -27.5584  -37.1799   24.8462 C   0  0  0  0  0  0
  -21.4173  -29.3025   22.3712 N   0  0  0  0  0  0
  -26.4285  -37.3787   23.9421 N   0  0  0  0  0  0
  -24.6787  -31.0691   22.0973 N   0  0  0  0  0  0
  -23.4189  -28.8198   23.3069 O   0  0  0  0  0  0
  -28.3948  -26.6004   20.1146 O   0  0  0  0  0  0
  -26.5615  -34.8930   22.4685 O   0  0  0  0  0  0
  -23.5389  -32.1415   23.7404 O   0  0  0  0  0  0
  -32.0536  -20.5349   20.4691 C   0  0  0  0  0  0
  -27.7281  -18.2198   20.4638 C   0  0  0  0  0  0
  -28.5014  -19.3900   20.5182 C   0  0  0  0  0  0
  -28.3138  -16.9680   20.7169 C   0  0  0  0  0  0
  -30.4696  -18.0326   21.0555 C   0  0  0  0  0  0
  -29.8794  -19.3280   20.8196 C   0  0  0  0  0  0
  -29.6850  -16.8342   20.9980 C   0  0  0  0  0  0
  -29.6690  -23.0093   21.1634 C   0  0  0  0  0  0
  -29.4421  -23.6484   18.8740 C   0  0  0  0  0  0
  -30.0138  -22.2175   19.0165 C   0  0  0  0  0  0
  -29.4747  -24.2690   20.2793 C   0  0  1  0  0  0
  -28.2805  -25.2370   20.6305 C   0  0  0  0  0  0
  -30.6703  -20.6631   20.9678 C   0  0  2  0  0  0
  -33.1420  -20.4351   20.0751 N   0  0  0  0  0  0
  -30.0358  -21.9211   20.4472 N   0  0  0  0  0  0
  -30.1105  -15.5027   21.3734 N   0  0  0  0  0  0
  -29.5692  -23.0419   22.3913 O   0  0  0  0  0  0
  -31.4821  -12.4897   19.1402 H   0  0  0  0  0  0
  -30.3690  -11.3668   19.8573 H   0  0  0  0  0  0
  -29.7723  -11.7902   17.4596 H   0  0  0  0  0  0
  -29.6546  -13.5066   17.7674 H   0  0  0  0  0  0
  -27.8699  -11.2997   18.8532 H   0  0  0  0  0  0
  -27.3810  -12.5966   17.7924 H   0  0  0  0  0  0
  -27.6908  -14.2474   19.5337 H   0  0  0  0  0  0
  -28.7025  -12.0172   21.3717 H   0  0  0  0  0  0
  -28.4399  -13.6624   21.8581 H   0  0  0  0  0  0
  -25.2764   -9.5644   22.4792 H   0  0  0  0  0  0
  -23.9983   -7.4599   22.7465 H   0  0  0  0  0  0
  -21.0839   -8.8783   19.8959 H   0  0  0  0  0  0
  -22.3733  -10.9663   19.6166 H   0  0  0  0  0  0
  -21.2003   -7.6126   23.9724 H   0  0  0  0  0  0
  -21.1495   -6.0504   25.9091 H   0  0  0  0  0  0
  -22.0592   -2.7590   23.2860 H   0  0  0  0  0  0
  -22.4037  -11.9911   22.4876 H   0  0  0  0  0  0
  -21.1080  -13.1282   22.2586 H   0  0  0  0  0  0
  -24.5833  -15.7932   20.4201 H   0  0  0  0  0  0
  -26.1631  -15.5946   19.8649 H   0  0  0  0  0  0
  -26.7162  -32.5489   23.1129 H   0  0  0  0  0  0
  -25.0045  -33.9751   25.0427 H   0  0  0  0  0  0
  -22.7030  -31.3022   21.4059 H   0  0  0  0  0  0
  -23.3751  -35.9632   23.3298 H   0  0  0  0  0  0
  -24.3575  -36.8931   22.2057 H   0  0  0  0  0  0
  -23.7231  -37.6503   23.6661 H   0  0  0  0  0  0
  -26.0715  -31.5771   20.5988 H   0  0  0  0  0  0
  -26.8307  -30.8623   21.9927 H   0  0  0  0  0  0
  -28.1193  -29.0649   21.1550 H   0  0  0  0  0  0
  -26.0426  -25.9445   19.0181 H   0  0  0  0  0  0
  -23.9904  -27.2908   19.0240 H   0  0  0  0  0  0
  -23.7276  -30.5843   19.4016 H   0  0  0  0  0  0
  -22.7475  -29.2293   19.8742 H   0  0  0  0  0  0
  -25.1283  -36.1954   25.0826 H   0  0  0  0  0  0
  -20.9964  -28.3252   24.1433 H   0  0  0  0  0  0
  -20.5685  -26.2285   23.3614 H   0  0  0  0  0  0
  -21.6642  -26.7458   22.1207 H   0  0  0  0  0  0
  -19.6903  -25.6301   21.1247 H   0  0  0  0  0  0
  -19.6681  -27.3203   20.6753 H   0  0  0  0  0  0
  -17.4199  -26.6699   21.4025 H   0  0  0  0  0  0
  -18.0306  -26.0074   22.9017 H   0  0  0  0  0  0
  -19.7926  -30.7263   24.2291 H   0  0  0  0  0  0
  -17.5009  -31.6271   24.5168 H   0  0  0  0  0  0
  -15.5347  -30.2990   23.7644 H   0  0  0  0  0  0
  -15.8678  -28.0827   22.7058 H   0  0  0  0  0  0
  -24.5859  -30.7145   25.7786 H   0  0  0  0  0  0
  -24.8947  -32.2917   26.4925 H   0  0  0  0  0  0
  -25.8029  -30.8878   27.0222 H   0  0  0  0  0  0
  -26.2889  -29.6790   24.1197 H   0  0  0  0  0  0
  -27.4045  -29.7289   25.4663 H   0  0  0  0  0  0
  -27.8749  -30.4338   23.9368 H   0  0  0  0  0  0
  -27.2650  -33.3635   26.2097 H   0  0  0  0  0  0
  -28.3822  -32.6957   25.0295 H   0  0  0  0  0  0
  -28.0765  -31.8476   26.5377 H   0  0  0  0  0  0
  -28.2600  -38.0101   24.7529 H   0  0  0  0  0  0
  -28.1080  -36.2636   24.6249 H   0  0  0  0  0  0
  -27.2313  -37.1415   25.8868 H   0  0  0  0  0  0
  -20.9357  -29.8704   21.6886 H   0  0  0  0  0  0
  -26.0177  -38.2868   24.1417 H   0  0  0  0  0  0
  -26.6693  -18.2886   20.2598 H   0  0  0  0  0  0
  -28.0081  -20.3396   20.3538 H   0  0  0  0  0  0
  -27.6888  -16.0945   20.7363 H   0  0  0  0  0  0
  -31.5150  -17.9605   21.3265 H   0  0  0  0  0  0
  -28.4191  -23.6045   18.4984 H   0  0  0  0  0  0
  -30.0224  -24.2361   18.1604 H   0  0  0  0  0  0
  -31.0241  -22.1655   18.6081 H   0  0  0  0  0  0
  -29.4064  -21.4891   18.4770 H   0  0  0  0  0  0
  -30.4007  -24.8322   20.3979 H   0  0  0  0  0  0
  -28.2128  -25.3311   21.7151 H   0  0  0  0  0  0
  -27.3490  -24.7609   20.3269 H   0  0  0  0  0  0
  -30.8060  -20.7851   22.0426 H   0  0  0  0  0  0
  -29.4224  -15.0450   21.9526 H   0  0  0  0  0  0
  1 25  1  0  0  0
  1 30  2  0  0  0
  1 86  1  0  0  0
  2  3  1  0  0  0
  2 25  1  0  0  0
  2 88  1  0  0  0
  2 89  1  0  0  0
  3  4  1  0  0  0
  3 90  1  0  0  0
  3 91  1  0  0  0
  4  5  1  0  0  0
  4 92  1  0  0  0
  4 93  1  0  0  0
  5  6  1  0  0  0
  5 26  1  0  0  0
  5 94  1  0  0  0
  6 25  1  0  0  0
  6 95  1  0  0  0
  6 96  1  0  0  0
  7  8  2  0  0  0
  7 26  1  0  0  0
  7 29  1  0  0  0
  8  9  1  0  0  0
  8 22  1  0  0  0
  9 10  1  0  0  0
  9 27  2  0  0  0
 10 11  2  0  0  0
 10 15  1  0  0  0
 11 12  1  0  0  0
 11 97  1  0  0  0
 12 13  2  0  0  0
 12 98  1  0  0  0
 13 14  1  0  0  0
 13 31  1  0  0  0
 14 15  2  0  0  0
 14 99  1  0  0  0
 15100  1  0  0  0
 16 17  2  0  0  0
 16 21  1  0  0  0
 16 31  1  0  0  0
 17 18  1  0  0  0
 17101  1  0  0  0
 18 19  2  0  0  0
 18102  1  0  0  0
 19 20  1  0  0  0
 19 24  1  0  0  0
 20 21  2  0  0  0
 20103  1  0  0  0
 21 23  1  0  0  0
 22 28  1  0  0  0
 22 32  2  0  0  0
 26 27  1  0  0  0
 28104  1  0  0  0
 28105  1  0  0  0
 29106  1  0  0  0
 29107  1  0  0  0
 33 34  1  0  0  0
 33 66  1  0  0  0
 33 70  2  0  0  0
 34 36  1  0  0  0
 34 59  1  0  0  0
 34108  1  0  0  0
 35 44  2  0  0  0
 35 45  1  0  0  0
 35 68  1  0  0  0
 36 56  1  0  0  0
 36109  1  0  0  0
 37 39  1  0  0  0
 37 47  1  0  0  0
 37 66  1  0  0  0
 37110  1  0  0  0
 38 43  2  0  0  0
 38 46  1  0  0  0
 38 47  1  0  0  0
 39 64  1  0  0  0
 39 67  2  0  0  0
 40 52  1  0  0  0
 40 53  2  0  0  0
 40 58  1  0  0  0
 41111  1  0  0  0
 41112  1  0  0  0
 41113  1  0  0  0
 41 48  1  0  0  0
 42 43  1  0  0  0
 42 66  1  0  0  0
 42114  1  0  0  0
 42115  1  0  0  0
 43 44  1  0  0  0
 44116  1  0  0  0
 45 46  2  0  0  0
 45117  1  0  0  0
 46118  1  0  0  0
 47119  1  0  0  0
 47120  1  0  0  0
 48 56  1  0  0  0
 48 65  1  0  0  0
 48121  1  0  0  0
 49 50  1  0  0  0
 49 53  1  0  0  0
 49 64  1  0  0  0
 49122  1  0  0  0
 50 51  1  0  0  0
 50123  1  0  0  0
 50124  1  0  0  0
 51 52  1  0  0  0
 51125  1  0  0  0
 51126  1  0  0  0
 52127  1  0  0  0
 52128  1  0  0  0
 53 54  1  0  0  0
 54 55  2  0  0  0
 54129  1  0  0  0
 55 57  1  0  0  0
 55130  1  0  0  0
 56 69  2  0  0  0
 57 58  2  0  0  0
 57131  1  0  0  0
 58132  1  0  0  0
 59 60  1  0  0  0
 59 61  1  0  0  0
 59 62  1  0  0  0
 60133  1  0  0  0
 60134  1  0  0  0
 60135  1  0  0  0
 61136  1  0  0  0
 61137  1  0  0  0
 61138  1  0  0  0
 62139  1  0  0  0
 62140  1  0  0  0
 62141  1  0  0  0
 63 65  1  0  0  0
 63142  1  0  0  0
 63143  1  0  0  0
 63144  1  0  0  0
 64145  1  0  0  0
 65146  1  0  0  0
 68 82  1  0  0  0
 71 84  3  0  0  0
 71 83  1  0  0  0
 72 73  2  0  0  0
 72 74  1  0  0  0
 72147  1  0  0  0
 73 76  1  0  0  0
 73148  1  0  0  0
 74 77  2  0  0  0
 74149  1  0  0  0
 75 76  2  0  0  0
 75 77  1  0  0  0
 75150  1  0  0  0
 76 83  1  0  0  0
 77 86  1  0  0  0
 78 81  1  0  0  0
 78 85  1  0  0  0
 78 87  2  0  0  0
 79 80  1  0  0  0
 79 81  1  0  0  0
 79151  1  0  0  0
 79152  1  0  0  0
 80 85  1  0  0  0
 80153  1  0  0  0
 80154  1  0  0  0
 81 82  1  0  0  0
 81155  1  0  0  0
 82156  1  0  0  0
 82157  1  0  0  0
 83 85  1  0  0  0
 83158  1  0  0  0
 86159  1  0  0  0
M  ISO  4   1 100  68 101  82 101  86 100
M  END
> <chiral flag>
0

> <version>
0

> <s_m_source_file>
/data/baiqing/PycharmProjects/Reinvent-master-3.2/result/LINK_invent/BTK/process_docking_weight1_custom_product_contain_oxygen_bond_distance_aromatic_linkinvent_7_9_3/rearranged_h_0075.sdf

> <i_m_source_file_index>
96

> <r_mmod_Potential_Energy-OPLS-2005>
54.7789840698242

> <r_mmod_Stretch_Energy-OPLS-2005>
60.5338249206543

> <r_mmod_Bend_Energy-OPLS-2005>
142.682907104492

> <r_mmod_Torsional_Energy-OPLS-2005>
288.775970458984

> <r_mmod_Improper_Torsional_Energy-OPLS-2005>
8.83335781097412

> <r_mmod_Van_der_Waal_Energy-OPLS-2005>
132.640548706055

> <r_mmod_Electrostatic_Energy-OPLS-2005>
-365.457641601562

> <r_mmod_Solvation_Energy-OPLS-2005>
-238.909088134766

> <b_mmod_Minimization_Converged-OPLS-2005>
0

> <r_mmod_RMS_Derivative-OPLS-2005>
2.41659283638

$$$$
97
                    3D
 Structure written by MMmdl.
159168  0  0  1  0            999 V2000
  -30.6744  -14.5716   20.5220 C   0  0  0  0  0  0
  -30.4202  -12.3513   19.4581 C   0  0  0  0  0  0
  -29.5032  -12.5066   18.2258 C   0  0  0  0  0  0
  -28.0232  -12.3602   18.6300 C   0  0  0  0  0  0
  -27.6545  -13.2194   19.8695 C   0  0  2  0  0  0
  -28.6933  -13.0472   20.9985 C   0  0  0  0  0  0
  -25.2556  -13.8185   20.5694 C   0  0  0  0  0  0
  -24.1820  -13.0443   20.9183 C   0  0  0  0  0  0
  -24.6393  -11.6917   20.8734 C   0  0  0  0  0  0
  -23.9070  -10.4294   21.0401 C   0  0  0  0  0  0
  -24.3621   -9.4209   21.9181 C   0  0  0  0  0  0
  -23.6294   -8.2245   22.0755 C   0  0  0  0  0  0
  -22.4276   -8.0283   21.3546 C   0  0  0  0  0  0
  -21.9912   -9.0258   20.4647 C   0  0  0  0  0  0
  -22.7241  -10.2137   20.3053 C   0  0  0  0  0  0
  -21.6852   -6.0738   22.5282 C   0  0  0  0  0  0
  -21.4013   -6.5643   23.8214 C   0  0  0  0  0  0
  -21.3659   -5.6797   24.9178 C   0  0  0  0  0  0
  -21.6042   -4.3059   24.7228 C   0  0  0  0  0  0
  -21.8819   -3.8150   23.4351 C   0  0  0  0  0  0
  -21.9191   -4.6967   22.3405 C   0  0  0  0  0  0
  -22.7842  -13.5231   21.1853 C   0  0  0  0  0  0
  -22.1660   -4.2151   21.0984 F   0  0  0  0  0  0
  -21.5630   -3.4544   25.7740 F   0  0  0  0  0  0
  -30.0166  -13.3723   20.4477 N   0  0  0  0  0  0
  -26.2989  -12.9374   20.3340 N   0  0  0  0  0  0
  -25.9320  -11.6520   20.5748 N   0  0  0  0  0  0
  -22.0491  -12.8217   22.0414 N   0  0  0  0  0  0
  -25.4288  -15.1902   20.4133 N   0  0  0  0  0  0
  -31.8200  -14.6786   20.0749 O   0  0  0  0  0  0
  -21.6639   -6.8880   21.4243 O   0  0  0  0  0  0
  -22.3519  -14.5533   20.6702 O   0  0  0  0  0  0
  -24.6198  -31.8625   23.2052 C   0  0  0  0  0  0
  -25.9070  -32.4789   23.8363 C   0  0  1  0  0  0
  -27.2317  -27.3722   20.1004 C   0  0  0  0  0  0
  -25.5906  -33.8591   24.2292 N   0  0  0  0  0  0
  -23.4107  -30.4852   21.5461 C   0  0  2  0  0  0
  -24.8571  -28.9427   20.1089 C   0  0  0  0  0  0
  -22.7437  -29.4631   22.4955 C   0  0  0  0  0  0
  -18.0276  -28.1379   22.8491 C   0  0  0  0  0  0
  -24.1486  -36.7299   23.2639 C   0  0  0  0  0  0
  -25.9451  -30.8063   21.3694 C   0  0  0  0  0  0
  -26.0184  -29.4362   20.7150 C   0  0  0  0  0  0
  -27.2030  -28.6551   20.7135 C   0  0  0  0  0  0
  -26.0475  -26.9070   19.4867 C   0  0  0  0  0  0
  -24.8694  -27.6798   19.4922 C   0  0  0  0  0  0
  -23.6221  -29.8169   20.1606 C   0  0  0  0  0  0
  -25.4109  -36.3092   24.0333 C   0  0  1  0  0  0
  -20.5871  -28.3674   23.1304 C   0  0  2  0  0  0
  -20.6762  -26.9401   22.5420 C   0  0  0  0  0  0
  -19.5743  -26.6381   21.5214 C   0  0  0  0  0  0
  -18.1921  -26.7925   22.1623 C   0  0  0  0  0  0
  -19.1527  -28.8843   23.2892 C   0  0  0  0  0  0
  -18.9453  -30.1448   23.8904 C   0  0  0  0  0  0
  -17.6455  -30.6585   24.0566 C   0  0  0  0  0  0
  -25.9043  -34.9459   23.5113 C   0  0  0  0  0  0
  -16.5346  -29.9088   23.6326 C   0  0  0  0  0  0
  -16.7265  -28.6504   23.0351 C   0  0  0  0  0  0
  -26.4481  -31.6589   25.0718 C   0  0  0  0  0  0
  -25.3735  -31.3717   26.1463 C   0  0  0  0  0  0
  -27.0314  -30.3019   24.6139 C   0  0  0  0  0  0
  -27.6054  -32.4315   25.7477 C   0  0  0  0  0  0
  -27.5579  -37.1802   24.8463 C   0  0  0  0  0  0
  -21.4158  -29.3030   22.3700 N   0  0  0  0  0  0
  -26.4289  -37.3785   23.9411 N   0  0  0  0  0  0
  -24.6769  -31.0677   22.0979 N   0  0  0  0  0  0
  -23.4188  -28.8178   23.3019 O   0  0  0  0  0  0
  -28.3840  -26.5949   20.1666 O   0  0  0  0  0  0
  -26.5613  -34.8922   22.4680 O   0  0  0  0  0  0
  -23.5377  -32.1404   23.7412 O   0  0  0  0  0  0
  -29.2853  -19.3775   20.1859 C   0  0  0  0  0  0
  -29.8175  -18.3699   21.0797 C   0  0  0  0  0  0
  -29.1032  -20.6373   20.7522 C   0  0  0  0  0  0
  -30.0155  -18.8701   22.3487 C   0  0  0  0  0  0
  -27.3817  -23.2958   19.0050 C   0  0  0  0  0  0
  -28.2952  -24.0597   19.6102 C   0  0  0  0  0  0
  -27.5516  -21.9030   19.3783 C   0  0  0  0  0  0
  -30.2854  -17.0155   20.6177 C   0  0  0  0  0  0
  -29.9455  -15.7585   21.0370 C   0  0  0  0  0  0
  -29.1641  -23.1644   20.4835 C   0  0  0  0  0  0
  -32.4739  -17.8191   23.3314 C   0  0  0  0  0  0
  -28.6312  -25.5250   19.2163 C   0  0  0  0  0  0
  -30.1588  -16.6712   24.0954 N   0  0  0  0  0  0
  -28.6312  -21.8086   20.1907 N   0  0  0  0  0  0
  -26.8484  -20.9599   19.0068 O   0  0  0  0  0  0
  -30.7245  -19.1059   24.8647 O   0  0  0  0  0  0
  -29.5806  -20.5676   22.4335 S   0  0  0  0  0  0
  -30.7344  -18.0942   23.7945 S   0  0  2  0  0  0
  -31.4666  -12.4375   19.1621 H   0  0  0  0  0  0
  -30.3199  -11.3522   19.8850 H   0  0  0  0  0  0
  -29.7578  -11.7641   17.4685 H   0  0  0  0  0  0
  -29.6664  -13.4822   17.7652 H   0  0  0  0  0  0
  -27.8447  -11.3058   18.8451 H   0  0  0  0  0  0
  -27.3749  -12.6119   17.7900 H   0  0  0  0  0  0
  -27.6849  -14.2609   19.5492 H   0  0  0  0  0  0
  -28.6889  -12.0184   21.3615 H   0  0  0  0  0  0
  -28.4376  -13.6536   21.8658 H   0  0  0  0  0  0
  -25.2770   -9.5686   22.4750 H   0  0  0  0  0  0
  -24.0007   -7.4638   22.7474 H   0  0  0  0  0  0
  -21.0845   -8.8779   19.8951 H   0  0  0  0  0  0
  -22.3703  -10.9677   19.6160 H   0  0  0  0  0  0
  -21.2006   -7.6152   23.9718 H   0  0  0  0  0  0
  -21.1478   -6.0528   25.9080 H   0  0  0  0  0  0
  -22.0596   -2.7610   23.2852 H   0  0  0  0  0  0
  -22.4110  -11.9880   22.4802 H   0  0  0  0  0  0
  -21.1104  -13.1234   22.2619 H   0  0  0  0  0  0
  -24.6683  -15.8508   20.5309 H   0  0  0  0  0  0
  -26.2924  -15.6292   20.1196 H   0  0  0  0  0  0
  -26.7136  -32.5478   23.1114 H   0  0  0  0  0  0
  -25.0054  -33.9741   25.0437 H   0  0  0  0  0  0
  -22.7022  -31.3042   21.4043 H   0  0  0  0  0  0
  -23.3755  -35.9624   23.3290 H   0  0  0  0  0  0
  -24.3578  -36.8933   22.2056 H   0  0  0  0  0  0
  -23.7229  -37.6493   23.6669 H   0  0  0  0  0  0
  -26.0680  -31.5701   20.6006 H   0  0  0  0  0  0
  -26.8290  -30.8570   21.9936 H   0  0  0  0  0  0
  -28.0958  -29.0275   21.1964 H   0  0  0  0  0  0
  -26.0083  -25.9313   19.0262 H   0  0  0  0  0  0
  -23.9744  -27.2915   19.0262 H   0  0  0  0  0  0
  -23.7354  -30.5921   19.4017 H   0  0  0  0  0  0
  -22.7439  -29.2412   19.8630 H   0  0  0  0  0  0
  -25.1287  -36.1948   25.0825 H   0  0  0  0  0  0
  -20.9959  -28.3246   24.1425 H   0  0  0  0  0  0
  -20.5658  -26.2281   23.3613 H   0  0  0  0  0  0
  -21.6636  -26.7436   22.1219 H   0  0  0  0  0  0
  -19.6905  -25.6296   21.1235 H   0  0  0  0  0  0
  -19.6685  -27.3198   20.6749 H   0  0  0  0  0  0
  -17.4194  -26.6682   21.4020 H   0  0  0  0  0  0
  -18.0316  -26.0061   22.9012 H   0  0  0  0  0  0
  -19.7934  -30.7258   24.2277 H   0  0  0  0  0  0
  -17.5016  -31.6268   24.5169 H   0  0  0  0  0  0
  -15.5348  -30.2994   23.7647 H   0  0  0  0  0  0
  -15.8666  -28.0826   22.7060 H   0  0  0  0  0  0
  -24.5898  -30.7075   25.7801 H   0  0  0  0  0  0
  -24.8941  -32.2880   26.4914 H   0  0  0  0  0  0
  -25.8079  -30.8879   27.0219 H   0  0  0  0  0  0
  -26.2867  -29.6772   24.1192 H   0  0  0  0  0  0
  -27.4056  -29.7272   25.4621 H   0  0  0  0  0  0
  -27.8718  -30.4314   23.9317 H   0  0  0  0  0  0
  -27.2682  -33.3629   26.2040 H   0  0  0  0  0  0
  -28.3869  -32.6849   25.0301 H   0  0  0  0  0  0
  -28.0710  -31.8444   26.5402 H   0  0  0  0  0  0
  -28.2597  -38.0100   24.7520 H   0  0  0  0  0  0
  -28.1076  -36.2633   24.6278 H   0  0  0  0  0  0
  -27.2299  -37.1441   25.8866 H   0  0  0  0  0  0
  -20.9324  -29.8754   21.6920 H   0  0  0  0  0  0
  -26.0174  -38.2858   24.1426 H   0  0  0  0  0  0
  -29.0907  -19.1527   19.1467 H   0  0  0  0  0  0
  -26.6914  -23.6359   18.2479 H   0  0  0  0  0  0
  -31.0592  -17.0839   19.8643 H   0  0  0  0  0  0
  -29.1578  -15.6494   21.7648 H   0  0  0  0  0  0
  -29.0649  -23.4327   21.5362 H   0  0  0  0  0  0
  -30.2120  -23.2351   20.1887 H   0  0  0  0  0  0
  -32.5396  -17.0534   22.5621 H   0  0  0  0  0  0
  -33.0375  -17.5111   24.2090 H   0  0  0  0  0  0
  -32.8867  -18.7491   22.9458 H   0  0  0  0  0  0
  -28.1501  -25.7569   18.2648 H   0  0  0  0  0  0
  -29.6974  -25.5468   18.9905 H   0  0  0  0  0  0
  -30.1745  -16.0855   23.2547 H   0  0  0  0  0  0
  1 25  1  0  0  0
  1 30  2  0  0  0
  1 79  1  0  0  0
  2  3  1  0  0  0
  2 25  1  0  0  0
  2 89  1  0  0  0
  2 90  1  0  0  0
  3  4  1  0  0  0
  3 91  1  0  0  0
  3 92  1  0  0  0
  4  5  1  0  0  0
  4 93  1  0  0  0
  4 94  1  0  0  0
  5  6  1  0  0  0
  5 26  1  0  0  0
  5 95  1  0  0  0
  6 25  1  0  0  0
  6 96  1  0  0  0
  6 97  1  0  0  0
  7  8  2  0  0  0
  7 26  1  0  0  0
  7 29  1  0  0  0
  8  9  1  0  0  0
  8 22  1  0  0  0
  9 10  1  0  0  0
  9 27  2  0  0  0
 10 11  2  0  0  0
 10 15  1  0  0  0
 11 12  1  0  0  0
 11 98  1  0  0  0
 12 13  2  0  0  0
 12 99  1  0  0  0
 13 14  1  0  0  0
 13 31  1  0  0  0
 14 15  2  0  0  0
 14100  1  0  0  0
 15101  1  0  0  0
 16 17  2  0  0  0
 16 21  1  0  0  0
 16 31  1  0  0  0
 17 18  1  0  0  0
 17102  1  0  0  0
 18 19  2  0  0  0
 18103  1  0  0  0
 19 20  1  0  0  0
 19 24  1  0  0  0
 20 21  2  0  0  0
 20104  1  0  0  0
 21 23  1  0  0  0
 22 28  1  0  0  0
 22 32  2  0  0  0
 26 27  1  0  0  0
 28105  1  0  0  0
 28106  1  0  0  0
 29107  1  0  0  0
 29108  1  0  0  0
 33 34  1  0  0  0
 33 66  1  0  0  0
 33 70  2  0  0  0
 34 36  1  0  0  0
 34 59  1  0  0  0
 34109  1  0  0  0
 35 44  2  0  0  0
 35 45  1  0  0  0
 35 68  1  0  0  0
 36 56  1  0  0  0
 36110  1  0  0  0
 37 39  1  0  0  0
 37 47  1  0  0  0
 37 66  1  0  0  0
 37111  1  0  0  0
 38 43  2  0  0  0
 38 46  1  0  0  0
 38 47  1  0  0  0
 39 64  1  0  0  0
 39 67  2  0  0  0
 40 52  1  0  0  0
 40 53  2  0  0  0
 40 58  1  0  0  0
 41112  1  0  0  0
 41113  1  0  0  0
 41114  1  0  0  0
 41 48  1  0  0  0
 42 43  1  0  0  0
 42 66  1  0  0  0
 42115  1  0  0  0
 42116  1  0  0  0
 43 44  1  0  0  0
 44117  1  0  0  0
 45 46  2  0  0  0
 45118  1  0  0  0
 46119  1  0  0  0
 47120  1  0  0  0
 47121  1  0  0  0
 48 56  1  0  0  0
 48 65  1  0  0  0
 48122  1  0  0  0
 49 50  1  0  0  0
 49 53  1  0  0  0
 49 64  1  0  0  0
 49123  1  0  0  0
 50 51  1  0  0  0
 50124  1  0  0  0
 50125  1  0  0  0
 51 52  1  0  0  0
 51126  1  0  0  0
 51127  1  0  0  0
 52128  1  0  0  0
 52129  1  0  0  0
 53 54  1  0  0  0
 54 55  2  0  0  0
 54130  1  0  0  0
 55 57  1  0  0  0
 55131  1  0  0  0
 56 69  2  0  0  0
 57 58  2  0  0  0
 57132  1  0  0  0
 58133  1  0  0  0
 59 60  1  0  0  0
 59 61  1  0  0  0
 59 62  1  0  0  0
 60134  1  0  0  0
 60135  1  0  0  0
 60136  1  0  0  0
 61137  1  0  0  0
 61138  1  0  0  0
 61139  1  0  0  0
 62140  1  0  0  0
 62141  1  0  0  0
 62142  1  0  0  0
 63 65  1  0  0  0
 63143  1  0  0  0
 63144  1  0  0  0
 63145  1  0  0  0
 64146  1  0  0  0
 65147  1  0  0  0
 68 82  1  0  0  0
 71 72  1  0  0  0
 71 73  2  0  0  0
 71148  1  0  0  0
 72 74  2  0  0  0
 72 78  1  0  0  0
 73 84  1  0  0  0
 73 87  1  0  0  0
 74 87  1  0  0  0
 74 88  1  0  0  0
 75 76  2  0  0  0
 75 77  1  0  0  0
 75149  1  0  0  0
 76 80  1  0  0  0
 76 82  1  0  0  0
 77 84  1  0  0  0
 77 85  2  0  0  0
 78 79  2  0  0  0
 78150  1  0  0  0
 79151  1  0  0  0
 80 84  1  0  0  0
 80152  1  0  0  0
 80153  1  0  0  0
 81154  1  0  0  0
 81155  1  0  0  0
 81156  1  0  0  0
 81 88  1  0  0  0
 82157  1  0  0  0
 82158  1  0  0  0
 83 88  2  0  0  0
 83159  1  0  0  0
 86 88  2  0  0  0
M  ISO  4   1 100  68 101  79 100  82 101
M  END
> <chiral flag>
0

> <version>
0

> <s_m_source_file>
/data/baiqing/PycharmProjects/Reinvent-master-3.2/result/LINK_invent/BTK/process_docking_weight1_custom_product_contain_oxygen_bond_distance_aromatic_linkinvent_7_9_3/rearranged_h_0075.sdf

> <i_m_source_file_index>
97

> <r_mmod_Potential_Energy-OPLS-2005>
-128.33659362793

> <r_mmod_Stretch_Energy-OPLS-2005>
54.8652076721191

> <r_mmod_Bend_Energy-OPLS-2005>
178.471435546875

> <r_mmod_Torsional_Energy-OPLS-2005>
239.120101928711

> <r_mmod_Improper_Torsional_Energy-OPLS-2005>
5.42181634902954

> <r_mmod_Van_der_Waal_Energy-OPLS-2005>
114.642448425293

> <r_mmod_Electrostatic_Energy-OPLS-2005>
-490.054046630859

> <r_mmod_Solvation_Energy-OPLS-2005>
-259.270904541016

> <b_mmod_Minimization_Converged-OPLS-2005>
0

> <r_mmod_RMS_Derivative-OPLS-2005>
0.551678836345673

$$$$
