0
                    3D
 Structure written by MMmdl.
164173  0  0  1  0            999 V2000
  -30.6063  -14.9093   20.5276 C   0  0  0  0  0  0
  -30.4375  -12.5765   19.5264 C   0  0  0  0  0  0
  -29.5292  -12.5519   18.2748 C   0  0  0  0  0  0
  -28.0596  -12.3400   18.6760 C   0  0  0  0  0  0
  -27.6379  -13.2560   19.8531 C   0  0  2  0  0  0
  -28.6720  -13.2567   21.0004 C   0  0  0  0  0  0
  -25.2418  -13.8180   20.5632 C   0  0  0  0  0  0
  -24.1765  -13.0409   20.9210 C   0  0  0  0  0  0
  -24.6420  -11.6921   20.8764 C   0  0  0  0  0  0
  -23.9097  -10.4292   21.0422 C   0  0  0  0  0  0
  -24.3644   -9.4207   21.9201 C   0  0  0  0  0  0
  -23.6314   -8.2238   22.0754 C   0  0  0  0  0  0
  -22.4288   -8.0287   21.3543 C   0  0  0  0  0  0
  -21.9935   -9.0259   20.4644 C   0  0  0  0  0  0
  -22.7264  -10.2138   20.3066 C   0  0  0  0  0  0
  -21.6865   -6.0741   22.5277 C   0  0  0  0  0  0
  -21.4021   -6.5641   23.8211 C   0  0  0  0  0  0
  -21.3663   -5.6787   24.9168 C   0  0  0  0  0  0
  -21.6051   -4.3051   24.7213 C   0  0  0  0  0  0
  -21.8819   -3.8147   23.4333 C   0  0  0  0  0  0
  -21.9200   -4.6967   22.3390 C   0  0  0  0  0  0
  -22.7784  -13.5180   21.1864 C   0  0  0  0  0  0
  -22.1664   -4.2160   21.0959 F   0  0  0  0  0  0
  -21.5636   -3.4525   25.7720 F   0  0  0  0  0  0
  -29.9704  -13.6649   20.4403 N   0  0  0  0  0  0
  -26.2918  -12.9476   20.3270 N   0  0  0  0  0  0
  -25.9362  -11.6606   20.5765 N   0  0  0  0  0  0
  -22.0431  -12.8200   22.0442 N   0  0  0  0  0  0
  -25.3945  -15.1884   20.3942 N   0  0  0  0  0  0
  -31.7410  -14.9815   20.0421 O   0  0  0  0  0  0
  -21.6643   -6.8893   21.4245 O   0  0  0  0  0  0
  -22.3461  -14.5462   20.6682 O   0  0  0  0  0  0
  -24.6410  -31.8473   23.1884 C   0  0  0  0  0  0
  -25.9189  -32.4717   23.8274 C   0  0  1  0  0  0
  -27.2262  -27.1536   20.1644 C   0  0  0  0  0  0
  -25.5947  -33.8520   24.2208 N   0  0  0  0  0  0
  -23.4442  -30.4640   21.5353 C   0  0  2  0  0  0
  -24.8958  -28.8903   20.1149 C   0  0  0  0  0  0
  -22.7564  -29.4555   22.4882 C   0  0  0  0  0  0
  -18.0304  -28.1392   22.8488 C   0  0  0  0  0  0
  -24.1489  -36.7263   23.2641 C   0  0  0  0  0  0
  -25.9976  -30.7281   21.3813 C   0  0  0  0  0  0
  -26.0719  -29.3378   20.7298 C   0  0  0  0  0  0
  -27.2379  -28.4875   20.7344 C   0  0  0  0  0  0
  -26.0234  -26.8026   19.5107 C   0  0  0  0  0  0
  -24.8835  -27.6352   19.4887 C   0  0  0  0  0  0
  -23.6704  -29.7895   20.1563 C   0  0  0  0  0  0
  -25.4121  -36.3048   24.0324 C   0  0  1  0  0  0
  -20.5916  -28.3715   23.1255 C   0  0  2  0  0  0
  -20.6789  -26.9419   22.5418 C   0  0  0  0  0  0
  -19.5763  -26.6379   21.5228 C   0  0  0  0  0  0
  -18.1941  -26.7933   22.1634 C   0  0  0  0  0  0
  -19.1558  -28.8870   23.2864 C   0  0  0  0  0  0
  -18.9479  -30.1464   23.8887 C   0  0  0  0  0  0
  -17.6472  -30.6591   24.0555 C   0  0  0  0  0  0
  -25.9073  -34.9420   23.5078 C   0  0  0  0  0  0
  -16.5363  -29.9084   23.6325 C   0  0  0  0  0  0
  -16.7286  -28.6499   23.0358 C   0  0  0  0  0  0
  -26.4512  -31.6549   25.0691 C   0  0  0  0  0  0
  -25.3696  -31.3738   26.1388 C   0  0  0  0  0  0
  -27.0357  -30.2947   24.6225 C   0  0  0  0  0  0
  -27.6059  -32.4284   25.7484 C   0  0  0  0  0  0
  -27.5581  -37.1787   24.8464 C   0  0  0  0  0  0
  -21.4256  -29.3048   22.3634 N   0  0  0  0  0  0
  -26.4287  -37.3759   23.9411 N   0  0  0  0  0  0
  -24.7143  -31.0338   22.0915 N   0  0  0  0  0  0
  -23.4208  -28.8114   23.3044 O   0  0  0  0  0  0
  -28.2964  -26.1907   20.2194 O   0  0  0  0  0  0
  -26.5667  -34.8920   22.4664 O   0  0  0  0  0  0
  -23.5533  -32.1338   23.7120 O   0  0  0  0  0  0
  -30.3183  -19.9527   20.3042 C   0  0  0  0  0  0
  -28.2206  -19.5363   21.2701 C   0  0  0  0  0  0
  -30.6192  -18.5155   20.3364 C   0  0  0  0  0  0
  -28.4964  -18.1144   21.3068 C   0  0  0  0  0  0
  -29.1138  -20.5569   20.8094 C   0  0  0  0  0  0
  -29.7200  -17.5006   20.8529 C   0  0  0  0  0  0
  -28.9558  -22.3417   22.4287 C   0  0  0  0  0  0
  -29.8023  -23.5801   22.6858 C   0  0  0  0  0  0
  -30.2920  -23.9404   21.2881 C   0  0  0  0  0  0
  -29.1608  -23.4161   20.4028 C   0  0  2  0  0  0
  -32.0128  -18.0966   19.9108 C   0  0  0  0  0  0
  -27.4371  -17.2502   21.9640 C   0  0  0  0  0  0
  -30.2330  -15.8800   22.6632 C   0  0  0  0  0  0
  -28.0257  -24.6654   20.3612 C   0  0  0  0  0  0
  -28.8458  -22.0456   21.1137 N   0  0  0  0  0  0
  -30.0376  -16.0275   21.2102 N   0  0  0  0  0  0
  -28.4593  -21.7058   23.3657 O   0  0  0  0  0  0
  -31.4782  -12.7050   19.2288 H   0  0  0  0  0  0
  -30.4031  -11.6151   20.0413 H   0  0  0  0  0  0
  -29.8478  -11.7596   17.5980 H   0  0  0  0  0  0
  -29.6336  -13.4908   17.7293 H   0  0  0  0  0  0
  -27.9486  -11.2934   18.9659 H   0  0  0  0  0  0
  -27.4028  -12.4957   17.8203 H   0  0  0  0  0  0
  -27.6114  -14.2674   19.4473 H   0  0  0  0  0  0
  -28.7448  -12.2720   21.4629 H   0  0  0  0  0  0
  -28.3421  -13.9354   21.7850 H   0  0  0  0  0  0
  -25.2790   -9.5676   22.4774 H   0  0  0  0  0  0
  -24.0015   -7.4620   22.7477 H   0  0  0  0  0  0
  -21.0857   -8.8789   19.8943 H   0  0  0  0  0  0
  -22.3734  -10.9678   19.6172 H   0  0  0  0  0  0
  -21.1999   -7.6147   23.9730 H   0  0  0  0  0  0
  -21.1496   -6.0506   25.9080 H   0  0  0  0  0  0
  -22.0592   -2.7611   23.2825 H   0  0  0  0  0  0
  -22.4030  -11.9879   22.4873 H   0  0  0  0  0  0
  -21.1041  -13.1246   22.2597 H   0  0  0  0  0  0
  -24.6350  -15.8379   20.5599 H   0  0  0  0  0  0
  -26.2535  -15.6394   20.1076 H   0  0  0  0  0  0
  -26.7264  -32.5340   23.1014 H   0  0  0  0  0  0
  -25.0033  -33.9626   25.0315 H   0  0  0  0  0  0
  -22.7450  -31.2884   21.3798 H   0  0  0  0  0  0
  -23.3770  -35.9575   23.3283 H   0  0  0  0  0  0
  -24.3569  -36.8907   22.2056 H   0  0  0  0  0  0
  -23.7215  -37.6450   23.6679 H   0  0  0  0  0  0
  -26.1416  -31.4782   20.6021 H   0  0  0  0  0  0
  -26.8725  -30.7874   22.0167 H   0  0  0  0  0  0
  -28.1333  -28.8293   21.2344 H   0  0  0  0  0  0
  -25.9321  -25.8490   19.0155 H   0  0  0  0  0  0
  -23.9864  -27.2872   18.9947 H   0  0  0  0  0  0
  -23.8018  -30.5615   19.3969 H   0  0  0  0  0  0
  -22.7860  -29.2277   19.8503 H   0  0  0  0  0  0
  -25.1299  -36.1889   25.0816 H   0  0  0  0  0  0
  -21.0002  -28.3298   24.1380 H   0  0  0  0  0  0
  -20.5687  -26.2332   23.3639 H   0  0  0  0  0  0
  -21.6651  -26.7431   22.1204 H   0  0  0  0  0  0
  -19.6918  -25.6286   21.1263 H   0  0  0  0  0  0
  -19.6695  -27.3183   20.6755 H   0  0  0  0  0  0
  -17.4214  -26.6691   21.4027 H   0  0  0  0  0  0
  -18.0320  -26.0077   22.9031 H   0  0  0  0  0  0
  -19.7952  -30.7287   24.2254 H   0  0  0  0  0  0
  -17.5021  -31.6271   24.5158 H   0  0  0  0  0  0
  -15.5357  -30.2984   23.7648 H   0  0  0  0  0  0
  -15.8692  -28.0805   22.7090 H   0  0  0  0  0  0
  -24.5892  -30.7068   25.7707 H   0  0  0  0  0  0
  -24.8864  -32.2920   26.4740 H   0  0  0  0  0  0
  -25.7965  -30.8961   27.0213 H   0  0  0  0  0  0
  -26.2952  -29.6702   24.1218 H   0  0  0  0  0  0
  -27.3979  -29.7207   25.4764 H   0  0  0  0  0  0
  -27.8853  -30.4200   23.9509 H   0  0  0  0  0  0
  -27.2679  -33.3615   26.2008 H   0  0  0  0  0  0
  -28.3911  -32.6788   25.0334 H   0  0  0  0  0  0
  -28.0680  -31.8429   26.5448 H   0  0  0  0  0  0
  -28.2586  -38.0096   24.7530 H   0  0  0  0  0  0
  -28.1091  -36.2631   24.6266 H   0  0  0  0  0  0
  -27.2306  -37.1401   25.8868 H   0  0  0  0  0  0
  -20.9471  -29.8748   21.6799 H   0  0  0  0  0  0
  -26.0166  -38.2829   24.1431 H   0  0  0  0  0  0
  -31.0934  -20.6271   19.9683 H   0  0  0  0  0  0
  -27.2910  -19.8696   21.7106 H   0  0  0  0  0  0
  -30.6282  -23.3630   23.3638 H   0  0  0  0  0  0
  -29.1874  -24.3680   23.1208 H   0  0  0  0  0  0
  -31.2209  -23.4103   21.0679 H   0  0  0  0  0  0
  -30.4822  -25.0071   21.1641 H   0  0  0  0  0  0
  -29.5346  -23.2299   19.3965 H   0  0  0  0  0  0
  -32.6054  -18.9431   19.5607 H   0  0  0  0  0  0
  -31.9645  -17.3664   19.1040 H   0  0  0  0  0  0
  -32.5384  -17.6474   20.7549 H   0  0  0  0  0  0
  -27.6295  -17.1657   23.0336 H   0  0  0  0  0  0
  -27.4442  -16.2488   21.5436 H   0  0  0  0  0  0
  -26.4383  -17.6676   21.8309 H   0  0  0  0  0  0
  -30.2150  -16.8438   23.1759 H   0  0  0  0  0  0
  -31.2013  -15.4365   22.9093 H   0  0  0  0  0  0
  -29.4601  -15.2660   23.1222 H   0  0  0  0  0  0
  -27.4430  -24.5879   21.2796 H   0  0  0  0  0  0
  -27.3316  -24.3760   19.5747 H   0  0  0  0  0  0
  1 25  1  0  0  0
  1 30  2  0  0  0
  1 86  1  0  0  0
  2  3  1  0  0  0
  2 25  1  0  0  0
  2 88  1  0  0  0
  2 89  1  0  0  0
  3  4  1  0  0  0
  3 90  1  0  0  0
  3 91  1  0  0  0
  4  5  1  0  0  0
  4 92  1  0  0  0
  4 93  1  0  0  0
  5  6  1  0  0  0
  5 26  1  0  0  0
  5 94  1  0  0  0
  6 25  1  0  0  0
  6 95  1  0  0  0
  6 96  1  0  0  0
  7  8  2  0  0  0
  7 26  1  0  0  0
  7 29  1  0  0  0
  8  9  1  0  0  0
  8 22  1  0  0  0
  9 10  1  0  0  0
  9 27  2  0  0  0
 10 11  2  0  0  0
 10 15  1  0  0  0
 11 12  1  0  0  0
 11 97  1  0  0  0
 12 13  2  0  0  0
 12 98  1  0  0  0
 13 14  1  0  0  0
 13 31  1  0  0  0
 14 15  2  0  0  0
 14 99  1  0  0  0
 15100  1  0  0  0
 16 17  2  0  0  0
 16 21  1  0  0  0
 16 31  1  0  0  0
 17 18  1  0  0  0
 17101  1  0  0  0
 18 19  2  0  0  0
 18102  1  0  0  0
 19 20  1  0  0  0
 19 24  1  0  0  0
 20 21  2  0  0  0
 20103  1  0  0  0
 21 23  1  0  0  0
 22 28  1  0  0  0
 22 32  2  0  0  0
 26 27  1  0  0  0
 28104  1  0  0  0
 28105  1  0  0  0
 29106  1  0  0  0
 29107  1  0  0  0
 33 34  1  0  0  0
 33 66  1  0  0  0
 33 70  2  0  0  0
 34 36  1  0  0  0
 34 59  1  0  0  0
 34108  1  0  0  0
 35 44  2  0  0  0
 35 45  1  0  0  0
 35 68  1  0  0  0
 36 56  1  0  0  0
 36109  1  0  0  0
 37 39  1  0  0  0
 37 47  1  0  0  0
 37 66  1  0  0  0
 37110  1  0  0  0
 38 43  2  0  0  0
 38 46  1  0  0  0
 38 47  1  0  0  0
 39 64  1  0  0  0
 39 67  2  0  0  0
 40 52  1  0  0  0
 40 53  2  0  0  0
 40 58  1  0  0  0
 41111  1  0  0  0
 41112  1  0  0  0
 41113  1  0  0  0
 41 48  1  0  0  0
 42 43  1  0  0  0
 42 66  1  0  0  0
 42114  1  0  0  0
 42115  1  0  0  0
 43 44  1  0  0  0
 44116  1  0  0  0
 45 46  2  0  0  0
 45117  1  0  0  0
 46118  1  0  0  0
 47119  1  0  0  0
 47120  1  0  0  0
 48 56  1  0  0  0
 48 65  1  0  0  0
 48121  1  0  0  0
 49 50  1  0  0  0
 49 53  1  0  0  0
 49 64  1  0  0  0
 49122  1  0  0  0
 50 51  1  0  0  0
 50123  1  0  0  0
 50124  1  0  0  0
 51 52  1  0  0  0
 51125  1  0  0  0
 51126  1  0  0  0
 52127  1  0  0  0
 52128  1  0  0  0
 53 54  1  0  0  0
 54 55  2  0  0  0
 54129  1  0  0  0
 55 57  1  0  0  0
 55130  1  0  0  0
 56 69  2  0  0  0
 57 58  2  0  0  0
 57131  1  0  0  0
 58132  1  0  0  0
 59 60  1  0  0  0
 59 61  1  0  0  0
 59 62  1  0  0  0
 60133  1  0  0  0
 60134  1  0  0  0
 60135  1  0  0  0
 61136  1  0  0  0
 61137  1  0  0  0
 61138  1  0  0  0
 62139  1  0  0  0
 62140  1  0  0  0
 62141  1  0  0  0
 63 65  1  0  0  0
 63142  1  0  0  0
 63143  1  0  0  0
 63144  1  0  0  0
 64145  1  0  0  0
 65146  1  0  0  0
 68 84  1  0  0  0
 71 73  2  0  0  0
 71 75  1  0  0  0
 71147  1  0  0  0
 72 74  1  0  0  0
 72 75  2  0  0  0
 72148  1  0  0  0
 73 76  1  0  0  0
 73 81  1  0  0  0
 74 76  2  0  0  0
 74 82  1  0  0  0
 75 85  1  0  0  0
 76 86  1  0  0  0
 77 78  1  0  0  0
 77 85  1  0  0  0
 77 87  2  0  0  0
 78 79  1  0  0  0
 78149  1  0  0  0
 78150  1  0  0  0
 79 80  1  0  0  0
 79151  1  0  0  0
 79152  1  0  0  0
 80 84  1  0  0  0
 80 85  1  0  0  0
 80153  1  0  0  0
 81154  1  0  0  0
 81155  1  0  0  0
 81156  1  0  0  0
 82157  1  0  0  0
 82158  1  0  0  0
 82159  1  0  0  0
 83 86  1  0  0  0
 83160  1  0  0  0
 83161  1  0  0  0
 83162  1  0  0  0
 84163  1  0  0  0
 84164  1  0  0  0
M  ISO  4   1 100  68 101  84 101  86 100
M  END
> <chiral flag>
0

> <version>
0

> <s_m_source_file>
/data/baiqing/PycharmProjects/Reinvent-master-3.2/result/LINK_invent/BTK/process_docking_weight1_custom_product_contain_oxygen_bond_distance_aromatic_linkinvent_7_9_3/rearranged_h_0105.sdf

> <i_m_source_file_index>
1

> <r_mmod_Potential_Energy-OPLS-2005>
778.907531738281

> <r_mmod_Stretch_Energy-OPLS-2005>
249.478912353516

> <r_mmod_Bend_Energy-OPLS-2005>
316.946807861328

> <r_mmod_Torsional_Energy-OPLS-2005>
410.800506591797

> <r_mmod_Improper_Torsional_Energy-OPLS-2005>
9.56902885437012

> <r_mmod_Van_der_Waal_Energy-OPLS-2005>
136.682586669922

> <r_mmod_Electrostatic_Energy-OPLS-2005>
-312.241668701172

> <r_mmod_Solvation_Energy-OPLS-2005>
-197.665710449219

> <b_mmod_Minimization_Converged-OPLS-2005>
0

> <r_mmod_RMS_Derivative-OPLS-2005>
2.83845472335815

$$$$
1
                    3D
 Structure written by MMmdl.
183192  0  0  1  0            999 V2000
  -30.5836  -14.9248   20.3528 C   0  0  0  0  0  0
  -30.4348  -12.5733   19.4421 C   0  0  0  0  0  0
  -29.4994  -12.4601   18.2197 C   0  0  0  0  0  0
  -28.0327  -12.2848   18.6573 C   0  0  0  0  0  0
  -27.6216  -13.2347   19.8108 C   0  0  2  0  0  0
  -28.6809  -13.3097   20.9245 C   0  0  0  0  0  0
  -25.2486  -13.8219   20.5702 C   0  0  0  0  0  0
  -24.1781  -13.0460   20.9211 C   0  0  0  0  0  0
  -24.6377  -11.6918   20.8761 C   0  0  0  0  0  0
  -23.9051  -10.4308   21.0397 C   0  0  0  0  0  0
  -24.3624   -9.4224   21.9172 C   0  0  0  0  0  0
  -23.6309   -8.2267   22.0741 C   0  0  0  0  0  0
  -22.4286   -8.0304   21.3546 C   0  0  0  0  0  0
  -21.9902   -9.0259   20.4644 C   0  0  0  0  0  0
  -22.7226  -10.2138   20.3045 C   0  0  0  0  0  0
  -21.6878   -6.0740   22.5268 C   0  0  0  0  0  0
  -21.4033   -6.5640   23.8209 C   0  0  0  0  0  0
  -21.3651   -5.6799   24.9172 C   0  0  0  0  0  0
  -21.6049   -4.3059   24.7212 C   0  0  0  0  0  0
  -21.8829   -3.8147   23.4328 C   0  0  0  0  0  0
  -21.9199   -4.6965   22.3389 C   0  0  0  0  0  0
  -22.7818  -13.5215   21.1863 C   0  0  0  0  0  0
  -22.1669   -4.2170   21.0966 F   0  0  0  0  0  0
  -21.5612   -3.4516   25.7709 F   0  0  0  0  0  0
  -29.9320  -13.7002   20.2667 N   0  0  0  0  0  0
  -26.2878  -12.9414   20.3182 N   0  0  0  0  0  0
  -25.9306  -11.6562   20.5750 N   0  0  0  0  0  0
  -22.0450  -12.8260   22.0430 N   0  0  0  0  0  0
  -25.4184  -15.1950   20.4147 N   0  0  0  0  0  0
  -31.8149  -14.8573   20.4508 O   0  0  0  0  0  0
  -21.6655   -6.8897   21.4246 O   0  0  0  0  0  0
  -22.3494  -14.5503   20.6662 O   0  0  0  0  0  0
  -24.6444  -31.8435   23.1902 C   0  0  0  0  0  0
  -25.9222  -32.4683   23.8299 C   0  0  1  0  0  0
  -27.2060  -27.1296   20.1351 C   0  0  0  0  0  0
  -25.6011  -33.8493   24.2239 N   0  0  0  0  0  0
  -23.4486  -30.4636   21.5331 C   0  0  2  0  0  0
  -24.8939  -28.8925   20.1115 C   0  0  0  0  0  0
  -22.7558  -29.4533   22.4824 C   0  0  0  0  0  0
  -18.0318  -28.1392   22.8471 C   0  0  0  0  0  0
  -24.1504  -36.7225   23.2634 C   0  0  0  0  0  0
  -26.0062  -30.7033   21.4081 C   0  0  0  0  0  0
  -26.0698  -29.3191   20.7412 C   0  0  0  0  0  0
  -27.2212  -28.4463   20.7478 C   0  0  0  0  0  0
  -26.0101  -26.8191   19.4448 C   0  0  0  0  0  0
  -24.8737  -27.6544   19.4553 C   0  0  0  0  0  0
  -23.6789  -29.7982   20.1526 C   0  0  0  0  0  0
  -25.4142  -36.3035   24.0331 C   0  0  1  0  0  0
  -20.5924  -28.3735   23.1216 C   0  0  2  0  0  0
  -20.6824  -26.9450   22.5364 C   0  0  0  0  0  0
  -19.5803  -26.6403   21.5167 C   0  0  0  0  0  0
  -18.1983  -26.7933   22.1590 C   0  0  0  0  0  0
  -19.1561  -28.8875   23.2833 C   0  0  0  0  0  0
  -18.9479  -30.1476   23.8879 C   0  0  0  0  0  0
  -17.6483  -30.6594   24.0551 C   0  0  0  0  0  0
  -25.9100  -34.9411   23.5085 C   0  0  0  0  0  0
  -16.5387  -29.9087   23.6341 C   0  0  0  0  0  0
  -16.7296  -28.6480   23.0390 C   0  0  0  0  0  0
  -26.4555  -31.6561   25.0754 C   0  0  0  0  0  0
  -25.3759  -31.3714   26.1453 C   0  0  0  0  0  0
  -27.0460  -30.2959   24.6391 C   0  0  0  0  0  0
  -27.6096  -32.4315   25.7518 C   0  0  0  0  0  0
  -27.5593  -37.1772   24.8473 C   0  0  0  0  0  0
  -21.4250  -29.3048   22.3577 N   0  0  0  0  0  0
  -26.4310  -37.3748   23.9413 N   0  0  0  0  0  0
  -24.7171  -31.0255   22.0978 N   0  0  0  0  0  0
  -23.4174  -28.8088   23.3002 O   0  0  0  0  0  0
  -28.2627  -26.1527   20.2337 O   0  0  0  0  0  0
  -26.5616  -34.8881   22.4631 O   0  0  0  0  0  0
  -23.5559  -32.1338   23.7113 O   0  0  0  0  0  0
  -28.0646  -19.4184   19.2816 C   0  0  0  0  0  0
  -29.7795  -19.8569   20.8198 C   0  0  0  0  0  0
  -28.4354  -18.0233   19.2162 C   0  0  0  0  0  0
  -28.6797  -20.4316   20.0886 C   0  0  0  0  0  0
  -29.5205  -17.4418   19.9659 C   0  0  0  0  0  0
  -30.1775  -18.4417   20.7811 C   0  0  0  0  0  0
  -26.7674  -21.8904   20.5648 C   0  0  0  0  0  0
  -26.4869  -22.9301   21.6403 C   0  0  0  0  0  0
  -27.8865  -23.4270   21.9783 C   0  0  0  0  0  0
  -28.6080  -23.2721   20.6378 C   0  0  2  0  0  0
  -27.6238  -17.1889   18.2361 C   0  0  0  0  0  0
  -33.7236  -19.6219   23.7227 C   0  0  0  0  0  0
  -33.7771  -18.1805   17.0555 C   0  0  0  0  0  0
  -31.3547  -18.9370   17.0004 C   0  0  0  0  0  0
  -28.1771  -24.6621   19.7822 C   0  0  0  0  0  0
  -32.3245  -19.4960   23.1060 C   0  0  0  0  0  0
  -32.0437  -16.8553   18.3017 C   0  0  0  0  0  0
  -30.7008  -16.0819   18.2867 C   0  0  0  0  0  0
  -32.3641  -18.8136   21.7240 C   0  0  0  0  0  0
  -32.3086  -17.7251   17.0607 C   0  0  0  0  0  0
  -28.0739  -21.8529   20.1993 N   0  0  0  0  0  0
  -30.0516  -16.0322   19.6268 N   0  0  0  0  0  0
  -25.8536  -21.1812   20.1285 O   0  0  0  0  0  0
  -31.2347  -17.9726   21.5227 O   0  0  0  0  0  0
  -31.4637  -12.7352   19.1149 H   0  0  0  0  0  0
  -30.4404  -11.6498   20.0187 H   0  0  0  0  0  0
  -29.8044  -11.6263   17.5880 H   0  0  0  0  0  0
  -29.5754  -13.3480   17.5938 H   0  0  0  0  0  0
  -27.9071  -11.2481   18.9635 H   0  0  0  0  0  0
  -27.3714  -12.4209   17.8021 H   0  0  0  0  0  0
  -27.5682  -14.2212   19.3577 H   0  0  0  0  0  0
  -28.7873  -12.3591   21.4468 H   0  0  0  0  0  0
  -28.4061  -14.0607   21.6659 H   0  0  0  0  0  0
  -25.2783   -9.5719   22.4710 H   0  0  0  0  0  0
  -24.0039   -7.4663   22.7439 H   0  0  0  0  0  0
  -21.0850   -8.8776   19.8943 H   0  0  0  0  0  0
  -22.3701  -10.9671   19.6133 H   0  0  0  0  0  0
  -21.2057   -7.6156   23.9731 H   0  0  0  0  0  0
  -21.1453   -6.0501   25.9075 H   0  0  0  0  0  0
  -22.0612   -2.7599   23.2809 H   0  0  0  0  0  0
  -22.4100  -11.9972   22.4909 H   0  0  0  0  0  0
  -21.1027  -13.1225   22.2541 H   0  0  0  0  0  0
  -24.6473  -15.8429   20.5358 H   0  0  0  0  0  0
  -26.2839  -15.6441   20.1427 H   0  0  0  0  0  0
  -26.7275  -32.5254   23.1008 H   0  0  0  0  0  0
  -25.0321  -33.9626   25.0496 H   0  0  0  0  0  0
  -22.7590  -31.2924   21.3771 H   0  0  0  0  0  0
  -23.3807  -35.9506   23.3273 H   0  0  0  0  0  0
  -24.3592  -36.8859   22.2043 H   0  0  0  0  0  0
  -23.7198  -37.6407   23.6656 H   0  0  0  0  0  0
  -26.1961  -31.4605   20.6481 H   0  0  0  0  0  0
  -26.8640  -30.7258   22.0664 H   0  0  0  0  0  0
  -28.1099  -28.7497   21.2811 H   0  0  0  0  0  0
  -25.8962  -25.9026   18.8911 H   0  0  0  0  0  0
  -23.9746  -27.3363   18.9441 H   0  0  0  0  0  0
  -23.8414  -30.5724   19.4039 H   0  0  0  0  0  0
  -22.7946  -29.2507   19.8268 H   0  0  0  0  0  0
  -25.1324  -36.1881   25.0822 H   0  0  0  0  0  0
  -21.0002  -28.3308   24.1333 H   0  0  0  0  0  0
  -20.5737  -26.2341   23.3566 H   0  0  0  0  0  0
  -21.6701  -26.7501   22.1147 H   0  0  0  0  0  0
  -19.7001  -25.6294   21.1227 H   0  0  0  0  0  0
  -19.6753  -27.3181   20.6664 H   0  0  0  0  0  0
  -17.4257  -26.6675   21.3987 H   0  0  0  0  0  0
  -18.0423  -26.0058   22.8970 H   0  0  0  0  0  0
  -19.7971  -30.7277   24.2248 H   0  0  0  0  0  0
  -17.5057  -31.6260   24.5173 H   0  0  0  0  0  0
  -15.5395  -30.2996   23.7672 H   0  0  0  0  0  0
  -15.8688  -28.0770   22.7193 H   0  0  0  0  0  0
  -24.5965  -30.7038   25.7747 H   0  0  0  0  0  0
  -24.8946  -32.2899   26.4827 H   0  0  0  0  0  0
  -25.8086  -30.8917   27.0256 H   0  0  0  0  0  0
  -26.3127  -29.6627   24.1398 H   0  0  0  0  0  0
  -27.4062  -29.7276   25.4982 H   0  0  0  0  0  0
  -27.9034  -30.4173   23.9766 H   0  0  0  0  0  0
  -27.2726  -33.3627   26.2054 H   0  0  0  0  0  0
  -28.3935  -32.6840   25.0371 H   0  0  0  0  0  0
  -28.0763  -31.8490   26.5470 H   0  0  0  0  0  0
  -28.2607  -38.0074   24.7560 H   0  0  0  0  0  0
  -28.1118  -36.2622   24.6293 H   0  0  0  0  0  0
  -27.2312  -37.1383   25.8873 H   0  0  0  0  0  0
  -20.9485  -29.8749   21.6735 H   0  0  0  0  0  0
  -26.0199  -38.2826   24.1420 H   0  0  0  0  0  0
  -27.2200  -19.7124   18.6788 H   0  0  0  0  0  0
  -30.3119  -20.5347   21.4657 H   0  0  0  0  0  0
  -25.9756  -22.5037   22.5013 H   0  0  0  0  0  0
  -25.8511  -23.7186   21.2345 H   0  0  0  0  0  0
  -28.3401  -22.7855   22.7342 H   0  0  0  0  0  0
  -27.8860  -24.4462   22.3620 H   0  0  0  0  0  0
  -29.6847  -23.2496   20.7993 H   0  0  0  0  0  0
  -26.5551  -17.3386   18.3921 H   0  0  0  0  0  0
  -27.8278  -16.1250   18.3028 H   0  0  0  0  0  0
  -27.8646  -17.4977   17.2188 H   0  0  0  0  0  0
  -34.3976  -20.2048   23.0917 H   0  0  0  0  0  0
  -34.1771  -18.6419   23.8664 H   0  0  0  0  0  0
  -33.6658  -20.1098   24.6962 H   0  0  0  0  0  0
  -34.0107  -18.7474   16.1534 H   0  0  0  0  0  0
  -34.4544  -17.3227   17.0870 H   0  0  0  0  0  0
  -34.0059  -18.8128   17.9157 H   0  0  0  0  0  0
  -31.6448  -19.6336   16.2137 H   0  0  0  0  0  0
  -31.3259  -19.4925   17.9356 H   0  0  0  0  0  0
  -30.3307  -18.6315   16.7856 H   0  0  0  0  0  0
  -27.1883  -24.4551   19.3974 H   0  0  0  0  0  0
  -28.7914  -24.6400   18.8846 H   0  0  0  0  0  0
  -31.8571  -20.4785   23.0361 H   0  0  0  0  0  0
  -31.6962  -18.9152   23.7785 H   0  0  0  0  0  0
  -32.8508  -16.1241   18.3965 H   0  0  0  0  0  0
  -32.1342  -17.4834   19.1871 H   0  0  0  0  0  0
  -30.8967  -15.0856   17.8905 H   0  0  0  0  0  0
  -30.0265  -16.5016   17.5479 H   0  0  0  0  0  0
  -33.2254  -18.1446   21.6831 H   0  0  0  0  0  0
  -32.5138  -19.5349   20.9179 H   0  0  0  0  0  0
  -32.1456  -17.1187   16.1686 H   0  0  0  0  0  0
  1 25  1  0  0  0
  1 30  2  0  0  0
  1 92  1  0  0  0
  2  3  1  0  0  0
  2 25  1  0  0  0
  2 95  1  0  0  0
  2 96  1  0  0  0
  3  4  1  0  0  0
  3 97  1  0  0  0
  3 98  1  0  0  0
  4  5  1  0  0  0
  4 99  1  0  0  0
  4100  1  0  0  0
  5  6  1  0  0  0
  5 26  1  0  0  0
  5101  1  0  0  0
  6 25  1  0  0  0
  6102  1  0  0  0
  6103  1  0  0  0
  7  8  2  0  0  0
  7 26  1  0  0  0
  7 29  1  0  0  0
  8  9  1  0  0  0
  8 22  1  0  0  0
  9 10  1  0  0  0
  9 27  2  0  0  0
 10 11  2  0  0  0
 10 15  1  0  0  0
 11 12  1  0  0  0
 11104  1  0  0  0
 12 13  2  0  0  0
 12105  1  0  0  0
 13 14  1  0  0  0
 13 31  1  0  0  0
 14 15  2  0  0  0
 14106  1  0  0  0
 15107  1  0  0  0
 16 17  2  0  0  0
 16 21  1  0  0  0
 16 31  1  0  0  0
 17 18  1  0  0  0
 17108  1  0  0  0
 18 19  2  0  0  0
 18109  1  0  0  0
 19 20  1  0  0  0
 19 24  1  0  0  0
 20 21  2  0  0  0
 20110  1  0  0  0
 21 23  1  0  0  0
 22 28  1  0  0  0
 22 32  2  0  0  0
 26 27  1  0  0  0
 28111  1  0  0  0
 28112  1  0  0  0
 29113  1  0  0  0
 29114  1  0  0  0
 33 34  1  0  0  0
 33 66  1  0  0  0
 33 70  2  0  0  0
 34 36  1  0  0  0
 34 59  1  0  0  0
 34115  1  0  0  0
 35 44  2  0  0  0
 35 45  1  0  0  0
 35 68  1  0  0  0
 36 56  1  0  0  0
 36116  1  0  0  0
 37 39  1  0  0  0
 37 47  1  0  0  0
 37 66  1  0  0  0
 37117  1  0  0  0
 38 43  2  0  0  0
 38 46  1  0  0  0
 38 47  1  0  0  0
 39 64  1  0  0  0
 39 67  2  0  0  0
 40 52  1  0  0  0
 40 53  2  0  0  0
 40 58  1  0  0  0
 41118  1  0  0  0
 41119  1  0  0  0
 41120  1  0  0  0
 41 48  1  0  0  0
 42 43  1  0  0  0
 42 66  1  0  0  0
 42121  1  0  0  0
 42122  1  0  0  0
 43 44  1  0  0  0
 44123  1  0  0  0
 45 46  2  0  0  0
 45124  1  0  0  0
 46125  1  0  0  0
 47126  1  0  0  0
 47127  1  0  0  0
 48 56  1  0  0  0
 48 65  1  0  0  0
 48128  1  0  0  0
 49 50  1  0  0  0
 49 53  1  0  0  0
 49 64  1  0  0  0
 49129  1  0  0  0
 50 51  1  0  0  0
 50130  1  0  0  0
 50131  1  0  0  0
 51 52  1  0  0  0
 51132  1  0  0  0
 51133  1  0  0  0
 52134  1  0  0  0
 52135  1  0  0  0
 53 54  1  0  0  0
 54 55  2  0  0  0
 54136  1  0  0  0
 55 57  1  0  0  0
 55137  1  0  0  0
 56 69  2  0  0  0
 57 58  2  0  0  0
 57138  1  0  0  0
 58139  1  0  0  0
 59 60  1  0  0  0
 59 61  1  0  0  0
 59 62  1  0  0  0
 60140  1  0  0  0
 60141  1  0  0  0
 60142  1  0  0  0
 61143  1  0  0  0
 61144  1  0  0  0
 61145  1  0  0  0
 62146  1  0  0  0
 62147  1  0  0  0
 62148  1  0  0  0
 63 65  1  0  0  0
 63149  1  0  0  0
 63150  1  0  0  0
 63151  1  0  0  0
 64152  1  0  0  0
 65153  1  0  0  0
 68 85  1  0  0  0
 71 73  2  0  0  0
 71 74  1  0  0  0
 71154  1  0  0  0
 72 74  2  0  0  0
 72 76  1  0  0  0
 72155  1  0  0  0
 73 75  1  0  0  0
 73 81  1  0  0  0
 74 91  1  0  0  0
 75 76  2  0  0  0
 75 92  1  0  0  0
 76 94  1  0  0  0
 77 78  1  0  0  0
 77 91  1  0  0  0
 77 93  2  0  0  0
 78 79  1  0  0  0
 78156  1  0  0  0
 78157  1  0  0  0
 79 80  1  0  0  0
 79158  1  0  0  0
 79159  1  0  0  0
 80 85  1  0  0  0
 80 91  1  0  0  0
 80160  1  0  0  0
 81161  1  0  0  0
 81162  1  0  0  0
 81163  1  0  0  0
 82 86  1  0  0  0
 82164  1  0  0  0
 82165  1  0  0  0
 82166  1  0  0  0
 83167  1  0  0  0
 83168  1  0  0  0
 83169  1  0  0  0
 83 90  1  0  0  0
 84 90  1  0  0  0
 84170  1  0  0  0
 84171  1  0  0  0
 84172  1  0  0  0
 85173  1  0  0  0
 85174  1  0  0  0
 86 89  1  0  0  0
 86175  1  0  0  0
 86176  1  0  0  0
 87 88  1  0  0  0
 87 90  1  0  0  0
 87177  1  0  0  0
 87178  1  0  0  0
 88 92  1  0  0  0
 88179  1  0  0  0
 88180  1  0  0  0
 89 94  1  0  0  0
 89181  1  0  0  0
 89182  1  0  0  0
 90183  1  0  0  0
M  ISO  4   1 100  68 101  85 101  92 100
M  END
> <chiral flag>
0

> <version>
0

> <s_m_source_file>
/data/baiqing/PycharmProjects/Reinvent-master-3.2/result/LINK_invent/BTK/process_docking_weight1_custom_product_contain_oxygen_bond_distance_aromatic_linkinvent_7_9_3/rearranged_h_0105.sdf

> <i_m_source_file_index>
2

> <r_mmod_Potential_Energy-OPLS-2005>
917.346130371094

> <r_mmod_Stretch_Energy-OPLS-2005>
251.436386108398

> <r_mmod_Bend_Energy-OPLS-2005>
350.386352539062

> <r_mmod_Torsional_Energy-OPLS-2005>
434.730865478516

> <r_mmod_Improper_Torsional_Energy-OPLS-2005>
37.1733322143555

> <r_mmod_Van_der_Waal_Energy-OPLS-2005>
135.718856811523

> <r_mmod_Electrostatic_Energy-OPLS-2005>
-303.259643554688

> <r_mmod_Solvation_Energy-OPLS-2005>
-197.088989257812

> <b_mmod_Minimization_Converged-OPLS-2005>
0

> <r_mmod_RMS_Derivative-OPLS-2005>
6.13368272781372

$$$$
2
                    3D
 Structure written by MMmdl.
164173  0  0  1  0            999 V2000
  -30.6143  -14.6099   20.5729 C   0  0  0  0  0  0
  -30.4466  -12.3921   19.4330 C   0  0  0  0  0  0
  -29.5056  -12.5263   18.2147 C   0  0  0  0  0  0
  -28.0282  -12.3582   18.6279 C   0  0  0  0  0  0
  -27.6602  -13.2069   19.8739 C   0  0  2  0  0  0
  -28.7072  -13.0072   20.9929 C   0  0  0  0  0  0
  -25.2593  -13.8146   20.5688 C   0  0  0  0  0  0
  -24.1841  -13.0428   20.9182 C   0  0  0  0  0  0
  -24.6394  -11.6895   20.8730 C   0  0  0  0  0  0
  -23.9053  -10.4287   21.0399 C   0  0  0  0  0  0
  -24.3606   -9.4206   21.9179 C   0  0  0  0  0  0
  -23.6287   -8.2239   22.0752 C   0  0  0  0  0  0
  -22.4267   -8.0276   21.3542 C   0  0  0  0  0  0
  -21.9902   -9.0246   20.4642 C   0  0  0  0  0  0
  -22.7228  -10.2127   20.3049 C   0  0  0  0  0  0
  -21.6850   -6.0732   22.5280 C   0  0  0  0  0  0
  -21.4012   -6.5636   23.8214 C   0  0  0  0  0  0
  -21.3661   -5.6789   24.9177 C   0  0  0  0  0  0
  -21.6044   -4.3051   24.7229 C   0  0  0  0  0  0
  -21.8816   -3.8143   23.4349 C   0  0  0  0  0  0
  -21.9190   -4.6960   22.3404 C   0  0  0  0  0  0
  -22.7865  -13.5231   21.1848 C   0  0  0  0  0  0
  -22.1659   -4.2145   21.0982 F   0  0  0  0  0  0
  -21.5631   -3.4534   25.7743 F   0  0  0  0  0  0
  -30.0195  -13.3803   20.4422 N   0  0  0  0  0  0
  -26.3022  -12.9310   20.3364 N   0  0  0  0  0  0
  -25.9321  -11.6472   20.5759 N   0  0  0  0  0  0
  -22.0502  -12.8223   22.0403 N   0  0  0  0  0  0
  -25.4324  -15.1864   20.4098 N   0  0  0  0  0  0
  -31.7331  -14.8183   20.0891 O   0  0  0  0  0  0
  -21.6634   -6.8873   21.4242 O   0  0  0  0  0  0
  -22.3552  -14.5538   20.6701 O   0  0  0  0  0  0
  -24.6230  -31.8619   23.2040 C   0  0  0  0  0  0
  -25.9090  -32.4791   23.8361 C   0  0  1  0  0  0
  -27.2269  -27.3402   20.1163 C   0  0  0  0  0  0
  -25.5921  -33.8592   24.2290 N   0  0  0  0  0  0
  -23.4158  -30.4842   21.5472 C   0  0  2  0  0  0
  -24.8636  -28.9411   20.1136 C   0  0  0  0  0  0
  -22.7461  -29.4622   22.4960 C   0  0  0  0  0  0
  -18.0281  -28.1371   22.8488 C   0  0  0  0  0  0
  -24.1491  -36.7303   23.2640 C   0  0  0  0  0  0
  -25.9547  -30.7980   21.3728 C   0  0  0  0  0  0
  -26.0307  -29.4258   20.7179 C   0  0  0  0  0  0
  -27.2169  -28.6369   20.7097 C   0  0  0  0  0  0
  -26.0423  -26.9076   19.4794 C   0  0  0  0  0  0
  -24.8696  -27.6857   19.4862 C   0  0  0  0  0  0
  -23.6293  -29.8174   20.1628 C   0  0  0  0  0  0
  -25.4117  -36.3092   24.0329 C   0  0  1  0  0  0
  -20.5881  -28.3672   23.1298 C   0  0  2  0  0  0
  -20.6771  -26.9403   22.5411 C   0  0  0  0  0  0
  -19.5747  -26.6375   21.5213 C   0  0  0  0  0  0
  -18.1925  -26.7918   22.1619 C   0  0  0  0  0  0
  -19.1534  -28.8839   23.2885 C   0  0  0  0  0  0
  -18.9461  -30.1445   23.8896 C   0  0  0  0  0  0
  -17.6462  -30.6580   24.0559 C   0  0  0  0  0  0
  -25.9052  -34.9458   23.5109 C   0  0  0  0  0  0
  -16.5353  -29.9079   23.6328 C   0  0  0  0  0  0
  -16.7271  -28.6494   23.0354 C   0  0  0  0  0  0
  -26.4486  -31.6597   25.0722 C   0  0  0  0  0  0
  -25.3728  -31.3717   26.1453 C   0  0  0  0  0  0
  -27.0337  -30.3032   24.6154 C   0  0  0  0  0  0
  -27.6037  -32.4338   25.7500 C   0  0  0  0  0  0
  -27.5587  -37.1806   24.8462 C   0  0  0  0  0  0
  -21.4177  -29.3036   22.3705 N   0  0  0  0  0  0
  -26.4296  -37.3785   23.9407 N   0  0  0  0  0  0
  -24.6831  -31.0642   22.0984 N   0  0  0  0  0  0
  -23.4201  -28.8160   23.3024 O   0  0  0  0  0  0
  -28.3493  -26.5056   20.1316 O   0  0  0  0  0  0
  -26.5618  -34.8920   22.4676 O   0  0  0  0  0  0
  -23.5402  -32.1410   23.7380 O   0  0  0  0  0  0
  -28.9442  -17.9661   20.2054 C   0  0  0  0  0  0
  -28.9338  -19.3791   20.0235 C   0  0  0  0  0  0
  -31.0568  -19.5126   21.1390 C   0  0  0  0  0  0
  -29.9982  -17.2911   20.8799 C   0  0  0  0  0  0
  -29.9844  -20.2024   20.5000 C   0  0  0  0  0  0
  -31.0721  -18.0927   21.3456 C   0  0  0  0  0  0
  -29.1843  -23.9841   20.2267 C   0  0  0  0  0  0
  -29.0353  -22.6413   20.5382 C   0  0  0  0  0  0
  -30.4217  -24.3895   19.5128 C   0  0  0  0  0  0
  -31.2364  -23.2772   18.8596 C   0  0  0  0  0  0
  -31.3329  -22.0506   19.7757 C   0  0  0  0  0  0
  -27.7917  -22.1588   21.2766 C   0  0  0  0  0  0
  -33.1757  -18.1896   22.5156 C   0  0  0  0  0  0
  -29.8437  -15.7844   21.2990 C   0  0  0  0  0  0
  -28.1378  -25.1087   20.5730 C   0  0  0  0  0  0
  -30.0224  -21.6312   20.2861 N   0  0  0  0  0  0
  -30.8317  -25.5495   19.4119 O   0  0  0  0  0  0
  -32.0746  -17.4341   22.0271 O   0  0  0  0  0  0
  -31.4839  -12.5362   19.1271 H   0  0  0  0  0  0
  -30.3974  -11.3842   19.8480 H   0  0  0  0  0  0
  -29.7676  -11.7907   17.4530 H   0  0  0  0  0  0
  -29.6445  -13.5053   17.7536 H   0  0  0  0  0  0
  -27.8615  -11.3015   18.8404 H   0  0  0  0  0  0
  -27.3714  -12.6072   17.7938 H   0  0  0  0  0  0
  -27.6935  -14.2505   19.5618 H   0  0  0  0  0  0
  -28.7220  -11.9637   21.3107 H   0  0  0  0  0  0
  -28.4509  -13.5685   21.8912 H   0  0  0  0  0  0
  -25.2749   -9.5687   22.4754 H   0  0  0  0  0  0
  -23.9999   -7.4633   22.7470 H   0  0  0  0  0  0
  -21.0834   -8.8760   19.8948 H   0  0  0  0  0  0
  -22.3684  -10.9663   19.6155 H   0  0  0  0  0  0
  -21.2004   -7.6144   23.9719 H   0  0  0  0  0  0
  -21.1486   -6.0518   25.9081 H   0  0  0  0  0  0
  -22.0593   -2.7604   23.2850 H   0  0  0  0  0  0
  -22.4115  -11.9885   22.4794 H   0  0  0  0  0  0
  -21.1115  -13.1245   22.2601 H   0  0  0  0  0  0
  -24.6676  -15.8441   20.5159 H   0  0  0  0  0  0
  -26.2873  -15.6218   20.0890 H   0  0  0  0  0  0
  -26.7155  -32.5467   23.1110 H   0  0  0  0  0  0
  -25.0080  -33.9747   25.0441 H   0  0  0  0  0  0
  -22.7071  -31.3026   21.4043 H   0  0  0  0  0  0
  -23.3754  -35.9634   23.3291 H   0  0  0  0  0  0
  -24.3586  -36.8939   22.2056 H   0  0  0  0  0  0
  -23.7238  -37.6500   23.6671 H   0  0  0  0  0  0
  -26.0817  -31.5606   20.6031 H   0  0  0  0  0  0
  -26.8370  -30.8488   21.9992 H   0  0  0  0  0  0
  -28.1136  -29.0054   21.1882 H   0  0  0  0  0  0
  -26.0099  -25.9586   18.9644 H   0  0  0  0  0  0
  -23.9778  -27.3128   19.0013 H   0  0  0  0  0  0
  -23.7438  -30.5926   19.4042 H   0  0  0  0  0  0
  -22.7502  -29.2432   19.8637 H   0  0  0  0  0  0
  -25.1293  -36.1949   25.0820 H   0  0  0  0  0  0
  -20.9965  -28.3242   24.1422 H   0  0  0  0  0  0
  -20.5678  -26.2282   23.3605 H   0  0  0  0  0  0
  -21.6641  -26.7435   22.1208 H   0  0  0  0  0  0
  -19.6913  -25.6287   21.1242 H   0  0  0  0  0  0
  -19.6687  -27.3184   20.6739 H   0  0  0  0  0  0
  -17.4200  -26.6670   21.4015 H   0  0  0  0  0  0
  -18.0317  -26.0050   22.9004 H   0  0  0  0  0  0
  -19.7937  -30.7255   24.2266 H   0  0  0  0  0  0
  -17.5020  -31.6263   24.5155 H   0  0  0  0  0  0
  -15.5358  -30.2985   23.7647 H   0  0  0  0  0  0
  -15.8670  -28.0817   22.7073 H   0  0  0  0  0  0
  -24.5912  -30.7051   25.7786 H   0  0  0  0  0  0
  -24.8902  -32.2872   26.4882 H   0  0  0  0  0  0
  -25.8063  -30.8902   27.0227 H   0  0  0  0  0  0
  -26.2908  -29.6779   24.1184 H   0  0  0  0  0  0
  -27.4066  -29.7282   25.4640 H   0  0  0  0  0  0
  -27.8757  -30.4341   23.9351 H   0  0  0  0  0  0
  -27.2643  -33.3645   26.2059 H   0  0  0  0  0  0
  -28.3860  -32.6892   25.0341 H   0  0  0  0  0  0
  -28.0685  -31.8476   26.5437 H   0  0  0  0  0  0
  -28.2586  -38.0122   24.7539 H   0  0  0  0  0  0
  -28.1103  -36.2653   24.6255 H   0  0  0  0  0  0
  -27.2305  -37.1417   25.8864 H   0  0  0  0  0  0
  -20.9349  -29.8790   21.6947 H   0  0  0  0  0  0
  -26.0179  -38.2860   24.1413 H   0  0  0  0  0  0
  -28.0925  -17.4004   19.8547 H   0  0  0  0  0  0
  -28.0992  -19.8341   19.5092 H   0  0  0  0  0  0
  -31.8732  -20.1110   21.5106 H   0  0  0  0  0  0
  -32.2323  -23.6415   18.6076 H   0  0  0  0  0  0
  -30.7488  -23.0046   17.9238 H   0  0  0  0  0  0
  -31.9854  -22.2809   20.6191 H   0  0  0  0  0  0
  -31.8117  -21.2437   19.2181 H   0  0  0  0  0  0
  -27.4945  -22.8703   22.0472 H   0  0  0  0  0  0
  -27.9330  -21.2075   21.7874 H   0  0  0  0  0  0
  -26.9594  -22.0510   20.5805 H   0  0  0  0  0  0
  -33.8804  -17.5198   23.0084 H   0  0  0  0  0  0
  -32.8589  -18.9298   23.2516 H   0  0  0  0  0  0
  -33.7102  -18.6892   21.7065 H   0  0  0  0  0  0
  -28.7745  -15.5951   21.2460 H   0  0  0  0  0  0
  -30.0897  -15.7092   22.3581 H   0  0  0  0  0  0
  -28.0705  -25.1456   21.6606 H   0  0  0  0  0  0
  -27.1763  -24.7226   20.2425 H   0  0  0  0  0  0
  1 25  1  0  0  0
  1 30  2  0  0  0
  1 84  1  0  0  0
  2  3  1  0  0  0
  2 25  1  0  0  0
  2 89  1  0  0  0
  2 90  1  0  0  0
  3  4  1  0  0  0
  3 91  1  0  0  0
  3 92  1  0  0  0
  4  5  1  0  0  0
  4 93  1  0  0  0
  4 94  1  0  0  0
  5  6  1  0  0  0
  5 26  1  0  0  0
  5 95  1  0  0  0
  6 25  1  0  0  0
  6 96  1  0  0  0
  6 97  1  0  0  0
  7  8  2  0  0  0
  7 26  1  0  0  0
  7 29  1  0  0  0
  8  9  1  0  0  0
  8 22  1  0  0  0
  9 10  1  0  0  0
  9 27  2  0  0  0
 10 11  2  0  0  0
 10 15  1  0  0  0
 11 12  1  0  0  0
 11 98  1  0  0  0
 12 13  2  0  0  0
 12 99  1  0  0  0
 13 14  1  0  0  0
 13 31  1  0  0  0
 14 15  2  0  0  0
 14100  1  0  0  0
 15101  1  0  0  0
 16 17  2  0  0  0
 16 21  1  0  0  0
 16 31  1  0  0  0
 17 18  1  0  0  0
 17102  1  0  0  0
 18 19  2  0  0  0
 18103  1  0  0  0
 19 20  1  0  0  0
 19 24  1  0  0  0
 20 21  2  0  0  0
 20104  1  0  0  0
 21 23  1  0  0  0
 22 28  1  0  0  0
 22 32  2  0  0  0
 26 27  1  0  0  0
 28105  1  0  0  0
 28106  1  0  0  0
 29107  1  0  0  0
 29108  1  0  0  0
 33 34  1  0  0  0
 33 66  1  0  0  0
 33 70  2  0  0  0
 34 36  1  0  0  0
 34 59  1  0  0  0
 34109  1  0  0  0
 35 44  2  0  0  0
 35 45  1  0  0  0
 35 68  1  0  0  0
 36 56  1  0  0  0
 36110  1  0  0  0
 37 39  1  0  0  0
 37 47  1  0  0  0
 37 66  1  0  0  0
 37111  1  0  0  0
 38 43  2  0  0  0
 38 46  1  0  0  0
 38 47  1  0  0  0
 39 64  1  0  0  0
 39 67  2  0  0  0
 40 52  1  0  0  0
 40 53  2  0  0  0
 40 58  1  0  0  0
 41112  1  0  0  0
 41113  1  0  0  0
 41114  1  0  0  0
 41 48  1  0  0  0
 42 43  1  0  0  0
 42 66  1  0  0  0
 42115  1  0  0  0
 42116  1  0  0  0
 43 44  1  0  0  0
 44117  1  0  0  0
 45 46  2  0  0  0
 45118  1  0  0  0
 46119  1  0  0  0
 47120  1  0  0  0
 47121  1  0  0  0
 48 56  1  0  0  0
 48 65  1  0  0  0
 48122  1  0  0  0
 49 50  1  0  0  0
 49 53  1  0  0  0
 49 64  1  0  0  0
 49123  1  0  0  0
 50 51  1  0  0  0
 50124  1  0  0  0
 50125  1  0  0  0
 51 52  1  0  0  0
 51126  1  0  0  0
 51127  1  0  0  0
 52128  1  0  0  0
 52129  1  0  0  0
 53 54  1  0  0  0
 54 55  2  0  0  0
 54130  1  0  0  0
 55 57  1  0  0  0
 55131  1  0  0  0
 56 69  2  0  0  0
 57 58  2  0  0  0
 57132  1  0  0  0
 58133  1  0  0  0
 59 60  1  0  0  0
 59 61  1  0  0  0
 59 62  1  0  0  0
 60134  1  0  0  0
 60135  1  0  0  0
 60136  1  0  0  0
 61137  1  0  0  0
 61138  1  0  0  0
 61139  1  0  0  0
 62140  1  0  0  0
 62141  1  0  0  0
 62142  1  0  0  0
 63 65  1  0  0  0
 63143  1  0  0  0
 63144  1  0  0  0
 63145  1  0  0  0
 64146  1  0  0  0
 65147  1  0  0  0
 68 85  1  0  0  0
 71 72  2  0  0  0
 71 74  1  0  0  0
 71148  1  0  0  0
 72 75  1  0  0  0
 72149  1  0  0  0
 73 75  2  0  0  0
 73 76  1  0  0  0
 73150  1  0  0  0
 74 76  2  0  0  0
 74 84  1  0  0  0
 75 86  1  0  0  0
 76 88  1  0  0  0
 77 78  2  0  0  0
 77 79  1  0  0  0
 77 85  1  0  0  0
 78 82  1  0  0  0
 78 86  1  0  0  0
 79 80  1  0  0  0
 79 87  2  0  0  0
 80 81  1  0  0  0
 80151  1  0  0  0
 80152  1  0  0  0
 81 86  1  0  0  0
 81153  1  0  0  0
 81154  1  0  0  0
 82155  1  0  0  0
 82156  1  0  0  0
 82157  1  0  0  0
 83 88  1  0  0  0
 83158  1  0  0  0
 83159  1  0  0  0
 83160  1  0  0  0
 84161  1  0  0  0
 84162  1  0  0  0
 85163  1  0  0  0
 85164  1  0  0  0
M  ISO  4   1 100  68 101  84 100  85 101
M  END
> <chiral flag>
0

> <version>
0

> <s_m_source_file>
/data/baiqing/PycharmProjects/Reinvent-master-3.2/result/LINK_invent/BTK/process_docking_weight1_custom_product_contain_oxygen_bond_distance_aromatic_linkinvent_7_9_3/rearranged_h_0105.sdf

> <i_m_source_file_index>
3

> <r_mmod_Potential_Energy-OPLS-2005>
98.2457504272461

> <r_mmod_Stretch_Energy-OPLS-2005>
83.4740524291992

> <r_mmod_Bend_Energy-OPLS-2005>
140.246368408203

> <r_mmod_Torsional_Energy-OPLS-2005>
183.046142578125

> <r_mmod_Improper_Torsional_Energy-OPLS-2005>
3.53827691078186

> <r_mmod_Van_der_Waal_Energy-OPLS-2005>
170.990829467773

> <r_mmod_Electrostatic_Energy-OPLS-2005>
-296.342529296875

> <r_mmod_Solvation_Energy-OPLS-2005>
-224.694534301758

> <b_mmod_Minimization_Converged-OPLS-2005>
0

> <r_mmod_RMS_Derivative-OPLS-2005>
0.631633043289185

$$$$
3
                    3D
 Structure written by MMmdl.
163171  0  0  1  0            999 V2000
  -30.7266  -14.5011   20.5758 C   0  0  0  0  0  0
  -30.4158  -12.3321   19.4264 C   0  0  0  0  0  0
  -29.4901  -12.5051   18.2065 C   0  0  0  0  0  0
  -28.0145  -12.3454   18.6212 C   0  0  0  0  0  0
  -27.6503  -13.2020   19.8619 C   0  0  2  0  0  0
  -28.6967  -13.0376   20.9894 C   0  0  0  0  0  0
  -25.2547  -13.8131   20.5674 C   0  0  0  0  0  0
  -24.1819  -13.0417   20.9213 C   0  0  0  0  0  0
  -24.6377  -11.6887   20.8773 C   0  0  0  0  0  0
  -23.9045  -10.4278   21.0430 C   0  0  0  0  0  0
  -24.3604   -9.4199   21.9203 C   0  0  0  0  0  0
  -23.6287   -8.2235   22.0765 C   0  0  0  0  0  0
  -22.4273   -8.0271   21.3549 C   0  0  0  0  0  0
  -21.9906   -9.0238   20.4645 C   0  0  0  0  0  0
  -22.7229  -10.2119   20.3063 C   0  0  0  0  0  0
  -21.6844   -6.0726   22.5279 C   0  0  0  0  0  0
  -21.4005   -6.5630   23.8212 C   0  0  0  0  0  0
  -21.3665   -5.6781   24.9173 C   0  0  0  0  0  0
  -21.6052   -4.3045   24.7218 C   0  0  0  0  0  0
  -21.8826   -3.8133   23.4339 C   0  0  0  0  0  0
  -21.9191   -4.6953   22.3399 C   0  0  0  0  0  0
  -22.7844  -13.5228   21.1857 C   0  0  0  0  0  0
  -22.1665   -4.2140   21.0975 F   0  0  0  0  0  0
  -21.5638   -3.4532   25.7735 F   0  0  0  0  0  0
  -30.0232  -13.3395   20.4273 N   0  0  0  0  0  0
  -26.2963  -12.9285   20.3316 N   0  0  0  0  0  0
  -25.9293  -11.6459   20.5772 N   0  0  0  0  0  0
  -22.0468  -12.8223   22.0396 N   0  0  0  0  0  0
  -25.4202  -15.1850   20.4044 N   0  0  0  0  0  0
  -31.8666  -14.6339   20.1209 O   0  0  0  0  0  0
  -21.6637   -6.8867   21.4242 O   0  0  0  0  0  0
  -22.3548  -14.5543   20.6702 O   0  0  0  0  0  0
  -24.6150  -31.8657   23.2102 C   0  0  0  0  0  0
  -25.9037  -32.4813   23.8386 C   0  0  1  0  0  0
  -27.2300  -27.4085   20.1100 C   0  0  0  0  0  0
  -25.5886  -33.8615   24.2309 N   0  0  0  0  0  0
  -23.4058  -30.4906   21.5486 C   0  0  2  0  0  0
  -24.8540  -28.9556   20.1127 C   0  0  0  0  0  0
  -22.7418  -29.4646   22.4959 C   0  0  0  0  0  0
  -18.0281  -28.1380   22.8506 C   0  0  0  0  0  0
  -24.1483  -36.7289   23.2643 C   0  0  0  0  0  0
  -25.9379  -30.8240   21.3695 C   0  0  0  0  0  0
  -26.0151  -29.4596   20.7113 C   0  0  0  0  0  0
  -27.2087  -28.6961   20.7012 C   0  0  0  0  0  0
  -26.0521  -26.9316   19.4937 C   0  0  0  0  0  0
  -24.8684  -27.6932   19.4966 C   0  0  0  0  0  0
  -23.6173  -29.8254   20.1630 C   0  0  0  0  0  0
  -25.4106  -36.3100   24.0348 C   0  0  1  0  0  0
  -20.5874  -28.3658   23.1312 C   0  0  2  0  0  0
  -20.6775  -26.9394   22.5407 C   0  0  0  0  0  0
  -19.5752  -26.6391   21.5206 C   0  0  0  0  0  0
  -18.1933  -26.7936   22.1623 C   0  0  0  0  0  0
  -19.1532  -28.8833   23.2915 C   0  0  0  0  0  0
  -18.9458  -30.1441   23.8922 C   0  0  0  0  0  0
  -17.6463  -30.6594   24.0565 C   0  0  0  0  0  0
  -25.9034  -34.9474   23.5125 C   0  0  0  0  0  0
  -16.5348  -29.9103   23.6328 C   0  0  0  0  0  0
  -16.7271  -28.6515   23.0355 C   0  0  0  0  0  0
  -26.4469  -31.6622   25.0724 C   0  0  0  0  0  0
  -25.3744  -31.3731   26.1475 C   0  0  0  0  0  0
  -27.0328  -30.3074   24.6113 C   0  0  0  0  0  0
  -27.6028  -32.4375   25.7485 C   0  0  0  0  0  0
  -27.5585  -37.1793   24.8462 C   0  0  0  0  0  0
  -21.4144  -29.3025   22.3708 N   0  0  0  0  0  0
  -26.4288  -37.3792   23.9429 N   0  0  0  0  0  0
  -24.6709  -31.0746   22.1008 N   0  0  0  0  0  0
  -23.4188  -28.8165   23.2990 O   0  0  0  0  0  0
  -28.3869  -26.6512   20.1051 O   0  0  0  0  0  0
  -26.5591  -34.8930   22.4677 O   0  0  0  0  0  0
  -23.5340  -32.1398   23.7499 O   0  0  0  0  0  0
  -29.7861  -20.0571   19.7040 C   0  0  0  0  0  0
  -28.2117  -18.5618   21.4716 C   0  0  0  0  0  0
  -29.9483  -18.6439   19.7605 C   0  0  0  0  0  0
  -29.1249  -17.8773   20.6349 C   0  0  0  0  0  0
  -28.0595  -19.9640   21.3991 C   0  0  0  0  0  0
  -28.8313  -20.7290   20.4999 C   0  0  0  0  0  0
  -31.3292  -18.4669   17.6706 C   0  0  0  0  0  0
  -30.8892  -17.9766   18.8421 C   0  0  0  0  0  0
  -30.9065  -16.2275   22.2754 C   0  0  0  0  0  0
  -29.0684  -16.3288   20.5985 C   0  0  0  0  0  0
  -29.4529  -24.4079   20.0849 C   0  0  0  0  0  0
  -28.2740  -25.2854   20.5741 C   0  0  0  0  0  0
  -29.5924  -22.9963   20.7304 C   0  0  0  0  0  0
  -27.1161  -20.6074   22.1957 N   0  0  0  0  0  0
  -30.1355  -15.5261   21.2464 N   0  0  0  0  0  0
  -28.5607  -22.0811   20.3465 O   0  0  0  0  0  0
  -31.4601  -12.4238   19.1215 H   0  0  0  0  0  0
  -30.3173  -11.3292   19.8452 H   0  0  0  0  0  0
  -29.7441  -11.7779   17.4342 H   0  0  0  0  0  0
  -29.6432  -13.4891   17.7610 H   0  0  0  0  0  0
  -27.8408  -11.2900   18.8326 H   0  0  0  0  0  0
  -27.3595  -12.5975   17.7854 H   0  0  0  0  0  0
  -27.6647  -14.2336   19.5230 H   0  0  0  0  0  0
  -28.6857  -12.0177   21.3758 H   0  0  0  0  0  0
  -28.4523  -13.6745   21.8403 H   0  0  0  0  0  0
  -25.2752   -9.5672   22.4779 H   0  0  0  0  0  0
  -23.9992   -7.4617   22.7482 H   0  0  0  0  0  0
  -21.0844   -8.8743   19.8945 H   0  0  0  0  0  0
  -22.3697  -10.9651   19.6162 H   0  0  0  0  0  0
  -21.1991   -7.6139   23.9708 H   0  0  0  0  0  0
  -21.1490   -6.0512   25.9074 H   0  0  0  0  0  0
  -22.0604   -2.7597   23.2830 H   0  0  0  0  0  0
  -22.4060  -11.9868   22.4771 H   0  0  0  0  0  0
  -21.1084  -13.1257   22.2586 H   0  0  0  0  0  0
  -24.6428  -15.8272   20.5083 H   0  0  0  0  0  0
  -26.2523  -15.6277   20.0385 H   0  0  0  0  0  0
  -26.7095  -32.5511   23.1143 H   0  0  0  0  0  0
  -25.0084  -33.9771   25.0485 H   0  0  0  0  0  0
  -22.6959  -31.3093   21.4082 H   0  0  0  0  0  0
  -23.3775  -35.9588   23.3290 H   0  0  0  0  0  0
  -24.3594  -36.8897   22.2056 H   0  0  0  0  0  0
  -23.7191  -37.6474   23.6661 H   0  0  0  0  0  0
  -26.0622  -31.5958   20.6087 H   0  0  0  0  0  0
  -26.8205  -30.8640   21.9962 H   0  0  0  0  0  0
  -28.1056  -29.0835   21.1635 H   0  0  0  0  0  0
  -26.0380  -25.9721   18.9971 H   0  0  0  0  0  0
  -23.9796  -27.3060   19.0187 H   0  0  0  0  0  0
  -23.7294  -30.6012   19.4045 H   0  0  0  0  0  0
  -22.7407  -29.2475   19.8642 H   0  0  0  0  0  0
  -25.1284  -36.1957   25.0844 H   0  0  0  0  0  0
  -20.9977  -28.3207   24.1428 H   0  0  0  0  0  0
  -20.5680  -26.2251   23.3579 H   0  0  0  0  0  0
  -21.6642  -26.7452   22.1170 H   0  0  0  0  0  0
  -19.6916  -25.6312   21.1207 H   0  0  0  0  0  0
  -19.6710  -27.3223   20.6754 H   0  0  0  0  0  0
  -17.4204  -26.6695   21.4018 H   0  0  0  0  0  0
  -18.0341  -26.0066   22.9004 H   0  0  0  0  0  0
  -19.7935  -30.7248   24.2301 H   0  0  0  0  0  0
  -17.5027  -31.6281   24.5155 H   0  0  0  0  0  0
  -15.5353  -30.3009   23.7664 H   0  0  0  0  0  0
  -15.8668  -28.0844   22.7060 H   0  0  0  0  0  0
  -24.5885  -30.7115   25.7802 H   0  0  0  0  0  0
  -24.8983  -32.2895   26.4977 H   0  0  0  0  0  0
  -25.8092  -30.8848   27.0200 H   0  0  0  0  0  0
  -26.2879  -29.6813   24.1177 H   0  0  0  0  0  0
  -27.4115  -29.7328   25.4572 H   0  0  0  0  0  0
  -27.8706  -30.4414   23.9268 H   0  0  0  0  0  0
  -27.2618  -33.3666   26.2070 H   0  0  0  0  0  0
  -28.3831  -32.6954   25.0314 H   0  0  0  0  0  0
  -28.0706  -31.8507   26.5394 H   0  0  0  0  0  0
  -28.2571  -38.0124   24.7573 H   0  0  0  0  0  0
  -28.1113  -36.2659   24.6220 H   0  0  0  0  0  0
  -27.2310  -37.1333   25.8862 H   0  0  0  0  0  0
  -20.9298  -29.8755   21.6939 H   0  0  0  0  0  0
  -26.0173  -38.2857   24.1478 H   0  0  0  0  0  0
  -30.3711  -20.6410   19.0097 H   0  0  0  0  0  0
  -27.5788  -17.9933   22.1386 H   0  0  0  0  0  0
  -32.0349  -17.9088   17.0723 H   0  0  0  0  0  0
  -30.9980  -19.4178   17.2795 H   0  0  0  0  0  0
  -31.2780  -17.0204   19.1557 H   0  0  0  0  0  0
  -30.2462  -16.7643   22.9571 H   0  0  0  0  0  0
  -31.5980  -16.9412   21.8255 H   0  0  0  0  0  0
  -31.4913  -15.5296   22.8773 H   0  0  0  0  0  0
  -28.9847  -16.0526   19.5459 H   0  0  0  0  0  0
  -28.1287  -16.0147   21.0507 H   0  0  0  0  0  0
  -30.3744  -24.9521   20.2957 H   0  0  0  0  0  0
  -29.4117  -24.3108   18.9997 H   0  0  0  0  0  0
  -28.2694  -25.3104   21.6649 H   0  0  0  0  0  0
  -27.3439  -24.8020   20.2793 H   0  0  0  0  0  0
  -29.5882  -23.0877   21.8175 H   0  0  0  0  0  0
  -30.5691  -22.5917   20.4613 H   0  0  0  0  0  0
  -26.3194  -20.0702   22.5207 H   0  0  0  0  0  0
  -26.8658  -21.5466   21.9038 H   0  0  0  0  0  0
  1 25  1  0  0  0
  1 30  2  0  0  0
  1 85  1  0  0  0
  2  3  1  0  0  0
  2 25  1  0  0  0
  2 87  1  0  0  0
  2 88  1  0  0  0
  3  4  1  0  0  0
  3 89  1  0  0  0
  3 90  1  0  0  0
  4  5  1  0  0  0
  4 91  1  0  0  0
  4 92  1  0  0  0
  5  6  1  0  0  0
  5 26  1  0  0  0
  5 93  1  0  0  0
  6 25  1  0  0  0
  6 94  1  0  0  0
  6 95  1  0  0  0
  7  8  2  0  0  0
  7 26  1  0  0  0
  7 29  1  0  0  0
  8  9  1  0  0  0
  8 22  1  0  0  0
  9 10  1  0  0  0
  9 27  2  0  0  0
 10 11  2  0  0  0
 10 15  1  0  0  0
 11 12  1  0  0  0
 11 96  1  0  0  0
 12 13  2  0  0  0
 12 97  1  0  0  0
 13 14  1  0  0  0
 13 31  1  0  0  0
 14 15  2  0  0  0
 14 98  1  0  0  0
 15 99  1  0  0  0
 16 17  2  0  0  0
 16 21  1  0  0  0
 16 31  1  0  0  0
 17 18  1  0  0  0
 17100  1  0  0  0
 18 19  2  0  0  0
 18101  1  0  0  0
 19 20  1  0  0  0
 19 24  1  0  0  0
 20 21  2  0  0  0
 20102  1  0  0  0
 21 23  1  0  0  0
 22 28  1  0  0  0
 22 32  2  0  0  0
 26 27  1  0  0  0
 28103  1  0  0  0
 28104  1  0  0  0
 29105  1  0  0  0
 29106  1  0  0  0
 33 34  1  0  0  0
 33 66  1  0  0  0
 33 70  2  0  0  0
 34 36  1  0  0  0
 34 59  1  0  0  0
 34107  1  0  0  0
 35 44  2  0  0  0
 35 45  1  0  0  0
 35 68  1  0  0  0
 36 56  1  0  0  0
 36108  1  0  0  0
 37 39  1  0  0  0
 37 47  1  0  0  0
 37 66  1  0  0  0
 37109  1  0  0  0
 38 43  2  0  0  0
 38 46  1  0  0  0
 38 47  1  0  0  0
 39 64  1  0  0  0
 39 67  2  0  0  0
 40 52  1  0  0  0
 40 53  2  0  0  0
 40 58  1  0  0  0
 41110  1  0  0  0
 41111  1  0  0  0
 41112  1  0  0  0
 41 48  1  0  0  0
 42 43  1  0  0  0
 42 66  1  0  0  0
 42113  1  0  0  0
 42114  1  0  0  0
 43 44  1  0  0  0
 44115  1  0  0  0
 45 46  2  0  0  0
 45116  1  0  0  0
 46117  1  0  0  0
 47118  1  0  0  0
 47119  1  0  0  0
 48 56  1  0  0  0
 48 65  1  0  0  0
 48120  1  0  0  0
 49 50  1  0  0  0
 49 53  1  0  0  0
 49 64  1  0  0  0
 49121  1  0  0  0
 50 51  1  0  0  0
 50122  1  0  0  0
 50123  1  0  0  0
 51 52  1  0  0  0
 51124  1  0  0  0
 51125  1  0  0  0
 52126  1  0  0  0
 52127  1  0  0  0
 53 54  1  0  0  0
 54 55  2  0  0  0
 54128  1  0  0  0
 55 57  1  0  0  0
 55129  1  0  0  0
 56 69  2  0  0  0
 57 58  2  0  0  0
 57130  1  0  0  0
 58131  1  0  0  0
 59 60  1  0  0  0
 59 61  1  0  0  0
 59 62  1  0  0  0
 60132  1  0  0  0
 60133  1  0  0  0
 60134  1  0  0  0
 61135  1  0  0  0
 61136  1  0  0  0
 61137  1  0  0  0
 62138  1  0  0  0
 62139  1  0  0  0
 62140  1  0  0  0
 63 65  1  0  0  0
 63141  1  0  0  0
 63142  1  0  0  0
 63143  1  0  0  0
 64144  1  0  0  0
 65145  1  0  0  0
 68 82  1  0  0  0
 71 73  2  0  0  0
 71 76  1  0  0  0
 71146  1  0  0  0
 72 74  2  0  0  0
 72 75  1  0  0  0
 72147  1  0  0  0
 73 74  1  0  0  0
 73 78  1  0  0  0
 74 80  1  0  0  0
 75 76  2  0  0  0
 75 84  1  0  0  0
 76 86  1  0  0  0
 77 78  2  0  0  0
 77148  1  0  0  0
 77149  1  0  0  0
 78150  1  0  0  0
 79 85  1  0  0  0
 79151  1  0  0  0
 79152  1  0  0  0
 79153  1  0  0  0
 80 85  1  0  0  0
 80154  1  0  0  0
 80155  1  0  0  0
 81 82  1  0  0  0
 81 83  1  0  0  0
 81156  1  0  0  0
 81157  1  0  0  0
 82158  1  0  0  0
 82159  1  0  0  0
 83 86  1  0  0  0
 83160  1  0  0  0
 83161  1  0  0  0
 84162  1  0  0  0
 84163  1  0  0  0
M  ISO  4   1 100  68 101  82 101  85 100
M  END
> <chiral flag>
0

> <version>
0

> <s_m_source_file>
/data/baiqing/PycharmProjects/Reinvent-master-3.2/result/LINK_invent/BTK/process_docking_weight1_custom_product_contain_oxygen_bond_distance_aromatic_linkinvent_7_9_3/rearranged_h_0105.sdf

> <i_m_source_file_index>
4

> <r_mmod_Potential_Energy-OPLS-2005>
75.1663436889648

> <r_mmod_Stretch_Energy-OPLS-2005>
45.2107048034668

> <r_mmod_Bend_Energy-OPLS-2005>
108.22492980957

> <r_mmod_Torsional_Energy-OPLS-2005>
326.247985839844

> <r_mmod_Improper_Torsional_Energy-OPLS-2005>
8.67740821838379

> <r_mmod_Van_der_Waal_Energy-OPLS-2005>
148.271636962891

> <r_mmod_Electrostatic_Energy-OPLS-2005>
-375.861907958984

> <r_mmod_Solvation_Energy-OPLS-2005>
-203.425277709961

> <b_mmod_Minimization_Converged-OPLS-2005>
0

> <r_mmod_RMS_Derivative-OPLS-2005>
1.80793738365173

$$$$
4
                    3D
 Structure written by MMmdl.
160168  0  0  1  0            999 V2000
  -30.7527  -14.4537   20.6543 C   0  0  0  0  0  0
  -30.4062  -12.3279   19.4319 C   0  0  0  0  0  0
  -29.4831  -12.4922   18.2124 C   0  0  0  0  0  0
  -28.0073  -12.3572   18.6270 C   0  0  0  0  0  0
  -27.6525  -13.2148   19.8710 C   0  0  2  0  0  0
  -28.6866  -13.0276   20.9990 C   0  0  0  0  0  0
  -25.2559  -13.8178   20.5694 C   0  0  0  0  0  0
  -24.1842  -13.0436   20.9202 C   0  0  0  0  0  0
  -24.6416  -11.6905   20.8754 C   0  0  0  0  0  0
  -23.9095  -10.4287   21.0405 C   0  0  0  0  0  0
  -24.3637   -9.4203   21.9186 C   0  0  0  0  0  0
  -23.6312   -8.2242   22.0769 C   0  0  0  0  0  0
  -22.4285   -8.0300   21.3559 C   0  0  0  0  0  0
  -21.9925   -9.0284   20.4664 C   0  0  0  0  0  0
  -22.7260  -10.2156   20.3067 C   0  0  0  0  0  0
  -21.6855   -6.0753   22.5287 C   0  0  0  0  0  0
  -21.4012   -6.5653   23.8217 C   0  0  0  0  0  0
  -21.3663   -5.6812   24.9183 C   0  0  0  0  0  0
  -21.6035   -4.3070   24.7234 C   0  0  0  0  0  0
  -21.8814   -3.8164   23.4353 C   0  0  0  0  0  0
  -21.9189   -4.6981   22.3412 C   0  0  0  0  0  0
  -22.7858  -13.5213   21.1856 C   0  0  0  0  0  0
  -22.1631   -4.2146   21.0993 F   0  0  0  0  0  0
  -21.5632   -3.4559   25.7749 F   0  0  0  0  0  0
  -30.0148  -13.3247   20.4437 N   0  0  0  0  0  0
  -26.2996  -12.9362   20.3378 N   0  0  0  0  0  0
  -25.9339  -11.6503   20.5798 N   0  0  0  0  0  0
  -22.0479  -12.8215   22.0405 N   0  0  0  0  0  0
  -25.4246  -15.1897   20.4034 N   0  0  0  0  0  0
  -31.8674  -14.5908   20.1462 O   0  0  0  0  0  0
  -21.6649   -6.8898   21.4244 O   0  0  0  0  0  0
  -22.3569  -14.5533   20.6703 O   0  0  0  0  0  0
  -24.6132  -31.8695   23.2100 C   0  0  0  0  0  0
  -25.9017  -32.4836   23.8413 C   0  0  1  0  0  0
  -27.2276  -27.4524   20.1044 C   0  0  0  0  0  0
  -25.5885  -33.8627   24.2355 N   0  0  0  0  0  0
  -23.4035  -30.4939   21.5458 C   0  0  2  0  0  0
  -24.8525  -28.9664   20.1051 C   0  0  0  0  0  0
  -22.7454  -29.4663   22.4940 C   0  0  0  0  0  0
  -18.0340  -28.1358   22.8436 C   0  0  0  0  0  0
  -24.1502  -36.7336   23.2644 C   0  0  0  0  0  0
  -25.9290  -30.8454   21.3551 C   0  0  0  0  0  0
  -26.0090  -29.4808   20.7044 C   0  0  0  0  0  0
  -27.2048  -28.7291   20.7010 C   0  0  0  0  0  0
  -26.0666  -26.9582   19.4786 C   0  0  0  0  0  0
  -24.8757  -27.7069   19.4825 C   0  0  0  0  0  0
  -23.6104  -29.8276   20.1586 C   0  0  0  0  0  0
  -25.4107  -36.3118   24.0355 C   0  0  1  0  0  0
  -20.5921  -28.3645   23.1335 C   0  0  2  0  0  0
  -20.6824  -26.9442   22.5299 C   0  0  0  0  0  0
  -19.5845  -26.6599   21.5020 C   0  0  0  0  0  0
  -18.2012  -26.7981   22.1438 C   0  0  0  0  0  0
  -19.1586  -28.8814   23.2900 C   0  0  0  0  0  0
  -18.9460  -30.1403   23.8940 C   0  0  0  0  0  0
  -17.6461  -30.6523   24.0569 C   0  0  0  0  0  0
  -25.9029  -34.9483   23.5151 C   0  0  0  0  0  0
  -16.5374  -29.9021   23.6296 C   0  0  0  0  0  0
  -16.7325  -28.6468   23.0278 C   0  0  0  0  0  0
  -26.4462  -31.6566   25.0689 C   0  0  0  0  0  0
  -25.3763  -31.3612   26.1441 C   0  0  0  0  0  0
  -27.0259  -30.3033   24.5972 C   0  0  0  0  0  0
  -27.6107  -32.4197   25.7419 C   0  0  0  0  0  0
  -27.5588  -37.1814   24.8470 C   0  0  0  0  0  0
  -21.4165  -29.3071   22.3770 N   0  0  0  0  0  0
  -26.4304  -37.3786   23.9419 N   0  0  0  0  0  0
  -24.6669  -31.0834   22.0967 N   0  0  0  0  0  0
  -23.4254  -28.8157   23.2900 O   0  0  0  0  0  0
  -28.3464  -26.6603   20.1670 O   0  0  0  0  0  0
  -26.5599  -34.8933   22.4724 O   0  0  0  0  0  0
  -23.5319  -32.1399   23.7499 O   0  0  0  0  0  0
  -29.6966  -18.8228   19.8871 C   0  0  0  0  0  0
  -28.3296  -18.6555   21.8594 C   0  0  0  0  0  0
  -30.1959  -17.5166   20.0765 C   0  0  0  0  0  0
  -28.7819  -19.4180   20.7647 C   0  0  0  0  0  0
  -29.7669  -16.7204   21.1978 C   0  0  0  0  0  0
  -28.7985  -17.3314   22.0599 C   0  0  0  0  0  0
  -28.0367  -21.7978   21.1638 C   0  0  0  0  0  0
  -31.2171  -17.0981   19.0280 C   0  0  0  0  0  0
  -30.6889  -15.1004   22.9175 C   0  0  0  0  0  0
  -27.6650  -23.0774   20.3881 C   0  0  0  0  0  0
  -28.7124  -24.2250   20.4754 C   0  0  0  0  0  0
  -28.1840  -25.5499   21.0675 C   0  0  0  0  0  0
  -28.3167  -20.7194   20.4065 N   0  0  0  0  0  0
  -30.2658  -15.3774   21.5296 N   0  0  0  0  0  0
  -28.0503  -21.7991   22.3950 O   0  0  0  0  0  0
  -28.2609  -16.6417   23.0939 F   0  0  0  0  0  0
  -31.4467  -12.4260   19.1190 H   0  0  0  0  0  0
  -30.3169  -11.3235   19.8491 H   0  0  0  0  0  0
  -29.7252  -11.7394   17.4624 H   0  0  0  0  0  0
  -29.6509  -13.4622   17.7459 H   0  0  0  0  0  0
  -27.8234  -11.3030   18.8410 H   0  0  0  0  0  0
  -27.3577  -12.6101   17.7883 H   0  0  0  0  0  0
  -27.6914  -14.2582   19.5568 H   0  0  0  0  0  0
  -28.6592  -12.0004   21.3691 H   0  0  0  0  0  0
  -28.4377  -13.6565   21.8562 H   0  0  0  0  0  0
  -25.2772   -9.5689   22.4769 H   0  0  0  0  0  0
  -24.0005   -7.4644   22.7517 H   0  0  0  0  0  0
  -21.0834   -8.8827   19.9004 H   0  0  0  0  0  0
  -22.3707  -10.9711   19.6203 H   0  0  0  0  0  0
  -21.1987   -7.6157   23.9713 H   0  0  0  0  0  0
  -21.1484   -6.0548   25.9085 H   0  0  0  0  0  0
  -22.0585   -2.7620   23.2867 H   0  0  0  0  0  0
  -22.4055  -11.9853   22.4763 H   0  0  0  0  0  0
  -21.1140  -13.1317   22.2683 H   0  0  0  0  0  0
  -24.6591  -15.8445   20.5167 H   0  0  0  0  0  0
  -26.2828  -15.6330   20.1020 H   0  0  0  0  0  0
  -26.7096  -32.5606   23.1207 H   0  0  0  0  0  0
  -24.9982  -33.9792   25.0451 H   0  0  0  0  0  0
  -22.6931  -31.3127   21.4073 H   0  0  0  0  0  0
  -23.3748  -35.9690   23.3299 H   0  0  0  0  0  0
  -24.3610  -36.8931   22.2065 H   0  0  0  0  0  0
  -23.7267  -37.6557   23.6627 H   0  0  0  0  0  0
  -26.0293  -31.6081   20.5812 H   0  0  0  0  0  0
  -26.8256  -30.9133   21.9588 H   0  0  0  0  0  0
  -28.0968  -29.1121   21.1782 H   0  0  0  0  0  0
  -26.0864  -25.9895   19.0028 H   0  0  0  0  0  0
  -23.9911  -27.3108   19.0013 H   0  0  0  0  0  0
  -23.7214  -30.6052   19.4029 H   0  0  0  0  0  0
  -22.7375  -29.2459   19.8557 H   0  0  0  0  0  0
  -25.1268  -36.1988   25.0843 H   0  0  0  0  0  0
  -21.0065  -28.3162   24.1442 H   0  0  0  0  0  0
  -20.5690  -26.2187   23.3359 H   0  0  0  0  0  0
  -21.6709  -26.7464   22.1139 H   0  0  0  0  0  0
  -19.7054  -25.6648   21.0738 H   0  0  0  0  0  0
  -19.6775  -27.3689   20.6780 H   0  0  0  0  0  0
  -17.4380  -26.6858   21.3725 H   0  0  0  0  0  0
  -18.0413  -26.0011   22.8713 H   0  0  0  0  0  0
  -19.7918  -30.7182   24.2407 H   0  0  0  0  0  0
  -17.5005  -31.6162   24.5233 H   0  0  0  0  0  0
  -15.5362  -30.2912   23.7628 H   0  0  0  0  0  0
  -15.8727  -28.0804   22.6957 H   0  0  0  0  0  0
  -24.6022  -30.6841   25.7788 H   0  0  0  0  0  0
  -24.8851  -32.2726   26.4862 H   0  0  0  0  0  0
  -25.8182  -30.8840   27.0202 H   0  0  0  0  0  0
  -26.2745  -29.6797   24.1109 H   0  0  0  0  0  0
  -27.4171  -29.7230   25.4342 H   0  0  0  0  0  0
  -27.8526  -30.4392   23.8992 H   0  0  0  0  0  0
  -27.2837  -33.3521   26.2028 H   0  0  0  0  0  0
  -28.3916  -32.6672   25.0209 H   0  0  0  0  0  0
  -28.0769  -31.8249   26.5277 H   0  0  0  0  0  0
  -28.2603  -38.0108   24.7482 H   0  0  0  0  0  0
  -28.1068  -36.2635   24.6306 H   0  0  0  0  0  0
  -27.2315  -37.1491   25.8875 H   0  0  0  0  0  0
  -20.9262  -29.8920   21.7164 H   0  0  0  0  0  0
  -26.0196  -38.2878   24.1361 H   0  0  0  0  0  0
  -30.0416  -19.4065   19.0439 H   0  0  0  0  0  0
  -27.5943  -19.0631   22.5385 H   0  0  0  0  0  0
  -31.3505  -17.8612   18.2603 H   0  0  0  0  0  0
  -30.9059  -16.2015   18.4947 H   0  0  0  0  0  0
  -32.1948  -16.9493   19.4860 H   0  0  0  0  0  0
  -29.9306  -15.3097   23.6664 H   0  0  0  0  0  0
  -31.5792  -15.6803   23.1583 H   0  0  0  0  0  0
  -30.9431  -14.0486   23.0774 H   0  0  0  0  0  0
  -26.6824  -23.4042   20.7265 H   0  0  0  0  0  0
  -27.5240  -22.8321   19.3345 H   0  0  0  0  0  0
  -29.1094  -24.4164   19.4793 H   0  0  0  0  0  0
  -29.5788  -23.9063   21.0586 H   0  0  0  0  0  0
  -28.7311  -25.7826   21.9809 H   0  0  0  0  0  0
  -27.1509  -25.4285   21.3981 H   0  0  0  0  0  0
  -28.3146  -20.9121   19.4137 H   0  0  0  0  0  0
  1 25  1  0  0  0
  1 30  2  0  0  0
  1 84  1  0  0  0
  2  3  1  0  0  0
  2 25  1  0  0  0
  2 87  1  0  0  0
  2 88  1  0  0  0
  3  4  1  0  0  0
  3 89  1  0  0  0
  3 90  1  0  0  0
  4  5  1  0  0  0
  4 91  1  0  0  0
  4 92  1  0  0  0
  5  6  1  0  0  0
  5 26  1  0  0  0
  5 93  1  0  0  0
  6 25  1  0  0  0
  6 94  1  0  0  0
  6 95  1  0  0  0
  7  8  2  0  0  0
  7 26  1  0  0  0
  7 29  1  0  0  0
  8  9  1  0  0  0
  8 22  1  0  0  0
  9 10  1  0  0  0
  9 27  2  0  0  0
 10 11  2  0  0  0
 10 15  1  0  0  0
 11 12  1  0  0  0
 11 96  1  0  0  0
 12 13  2  0  0  0
 12 97  1  0  0  0
 13 14  1  0  0  0
 13 31  1  0  0  0
 14 15  2  0  0  0
 14 98  1  0  0  0
 15 99  1  0  0  0
 16 17  2  0  0  0
 16 21  1  0  0  0
 16 31  1  0  0  0
 17 18  1  0  0  0
 17100  1  0  0  0
 18 19  2  0  0  0
 18101  1  0  0  0
 19 20  1  0  0  0
 19 24  1  0  0  0
 20 21  2  0  0  0
 20102  1  0  0  0
 21 23  1  0  0  0
 22 28  1  0  0  0
 22 32  2  0  0  0
 26 27  1  0  0  0
 28103  1  0  0  0
 28104  1  0  0  0
 29105  1  0  0  0
 29106  1  0  0  0
 33 34  1  0  0  0
 33 66  1  0  0  0
 33 70  2  0  0  0
 34 36  1  0  0  0
 34 59  1  0  0  0
 34107  1  0  0  0
 35 44  2  0  0  0
 35 45  1  0  0  0
 35 68  1  0  0  0
 36 56  1  0  0  0
 36108  1  0  0  0
 37 39  1  0  0  0
 37 47  1  0  0  0
 37 66  1  0  0  0
 37109  1  0  0  0
 38 43  2  0  0  0
 38 46  1  0  0  0
 38 47  1  0  0  0
 39 64  1  0  0  0
 39 67  2  0  0  0
 40 52  1  0  0  0
 40 53  2  0  0  0
 40 58  1  0  0  0
 41110  1  0  0  0
 41111  1  0  0  0
 41112  1  0  0  0
 41 48  1  0  0  0
 42 43  1  0  0  0
 42 66  1  0  0  0
 42113  1  0  0  0
 42114  1  0  0  0
 43 44  1  0  0  0
 44115  1  0  0  0
 45 46  2  0  0  0
 45116  1  0  0  0
 46117  1  0  0  0
 47118  1  0  0  0
 47119  1  0  0  0
 48 56  1  0  0  0
 48 65  1  0  0  0
 48120  1  0  0  0
 49 50  1  0  0  0
 49 53  1  0  0  0
 49 64  1  0  0  0
 49121  1  0  0  0
 50 51  1  0  0  0
 50122  1  0  0  0
 50123  1  0  0  0
 51 52  1  0  0  0
 51124  1  0  0  0
 51125  1  0  0  0
 52126  1  0  0  0
 52127  1  0  0  0
 53 54  1  0  0  0
 54 55  2  0  0  0
 54128  1  0  0  0
 55 57  1  0  0  0
 55129  1  0  0  0
 56 69  2  0  0  0
 57 58  2  0  0  0
 57130  1  0  0  0
 58131  1  0  0  0
 59 60  1  0  0  0
 59 61  1  0  0  0
 59 62  1  0  0  0
 60132  1  0  0  0
 60133  1  0  0  0
 60134  1  0  0  0
 61135  1  0  0  0
 61136  1  0  0  0
 61137  1  0  0  0
 62138  1  0  0  0
 62139  1  0  0  0
 62140  1  0  0  0
 63 65  1  0  0  0
 63141  1  0  0  0
 63142  1  0  0  0
 63143  1  0  0  0
 64144  1  0  0  0
 65145  1  0  0  0
 68 82  1  0  0  0
 71 73  2  0  0  0
 71 74  1  0  0  0
 71146  1  0  0  0
 72 74  2  0  0  0
 72 76  1  0  0  0
 72147  1  0  0  0
 73 75  1  0  0  0
 73 78  1  0  0  0
 74 83  1  0  0  0
 75 76  2  0  0  0
 75 84  1  0  0  0
 76 86  1  0  0  0
 77 80  1  0  0  0
 77 83  1  0  0  0
 77 85  2  0  0  0
 78148  1  0  0  0
 78149  1  0  0  0
 78150  1  0  0  0
 79 84  1  0  0  0
 79151  1  0  0  0
 79152  1  0  0  0
 79153  1  0  0  0
 80 81  1  0  0  0
 80154  1  0  0  0
 80155  1  0  0  0
 81 82  1  0  0  0
 81156  1  0  0  0
 81157  1  0  0  0
 82158  1  0  0  0
 82159  1  0  0  0
 83160  1  0  0  0
M  ISO  4   1 100  68 101  82 101  84 100
M  END
> <chiral flag>
0

> <version>
0

> <s_m_source_file>
/data/baiqing/PycharmProjects/Reinvent-master-3.2/result/LINK_invent/BTK/process_docking_weight1_custom_product_contain_oxygen_bond_distance_aromatic_linkinvent_7_9_3/rearranged_h_0105.sdf

> <i_m_source_file_index>
5

> <r_mmod_Potential_Energy-OPLS-2005>
137.305038452148

> <r_mmod_Stretch_Energy-OPLS-2005>
48.5010566711426

> <r_mmod_Bend_Energy-OPLS-2005>
125.56485748291

> <r_mmod_Torsional_Energy-OPLS-2005>
351.62451171875

> <r_mmod_Improper_Torsional_Energy-OPLS-2005>
3.73457336425781

> <r_mmod_Van_der_Waal_Energy-OPLS-2005>
168.212509155273

> <r_mmod_Electrostatic_Energy-OPLS-2005>
-372.657501220703

> <r_mmod_Solvation_Energy-OPLS-2005>
-203.799377441406

> <b_mmod_Minimization_Converged-OPLS-2005>
0

> <r_mmod_RMS_Derivative-OPLS-2005>
4.76097965240479

$$$$
5
                    3D
 Structure written by MMmdl.
155164  0  0  1  0            999 V2000
  -30.6737  -14.7780   20.3736 C   0  0  0  0  0  0
  -30.4445  -12.4653   19.4528 C   0  0  0  0  0  0
  -29.5021  -12.4242   18.2309 C   0  0  0  0  0  0
  -28.0461  -12.1751   18.6790 C   0  0  0  0  0  0
  -27.6157  -13.1205   19.8222 C   0  0  2  0  0  0
  -28.6941  -13.2374   20.9397 C   0  0  0  0  0  0
  -25.2535  -13.7832   20.5736 C   0  0  0  0  0  0
  -24.1752  -13.0249   20.9307 C   0  0  0  0  0  0
  -24.6222  -11.6705   20.8892 C   0  0  0  0  0  0
  -23.8884  -10.4175   21.0519 C   0  0  0  0  0  0
  -24.3482   -9.4098   21.9261 C   0  0  0  0  0  0
  -23.6206   -8.2119   22.0768 C   0  0  0  0  0  0
  -22.4196   -8.0185   21.3539 C   0  0  0  0  0  0
  -21.9814   -9.0152   20.4649 C   0  0  0  0  0  0
  -22.7100  -10.2052   20.3113 C   0  0  0  0  0  0
  -21.6802   -6.0689   22.5270 C   0  0  0  0  0  0
  -21.3986   -6.5611   23.8202 C   0  0  0  0  0  0
  -21.3668   -5.6767   24.9161 C   0  0  0  0  0  0
  -21.6052   -4.3031   24.7222 C   0  0  0  0  0  0
  -21.8835   -3.8125   23.4344 C   0  0  0  0  0  0
  -21.9166   -4.6929   22.3398 C   0  0  0  0  0  0
  -22.7809  -13.5162   21.1891 C   0  0  0  0  0  0
  -22.1636   -4.2121   21.0979 F   0  0  0  0  0  0
  -21.5639   -3.4524   25.7745 F   0  0  0  0  0  0
  -29.9913  -13.5734   20.3205 N   0  0  0  0  0  0
  -26.2831  -12.8778   20.3364 N   0  0  0  0  0  0
  -25.9109  -11.6071   20.5945 N   0  0  0  0  0  0
  -22.0370  -12.8241   22.0453 N   0  0  0  0  0  0
  -25.4241  -15.1541   20.4013 N   0  0  0  0  0  0
  -31.8998  -14.7877   20.2606 O   0  0  0  0  0  0
  -21.6562   -6.8794   21.4221 O   0  0  0  0  0  0
  -22.3583  -14.5482   20.6685 O   0  0  0  0  0  0
  -24.6242  -31.8601   23.2027 C   0  0  0  0  0  0
  -25.9106  -32.4768   23.8354 C   0  0  1  0  0  0
  -27.2517  -27.3477   20.1132 C   0  0  0  0  0  0
  -25.5936  -33.8571   24.2277 N   0  0  0  0  0  0
  -23.4164  -30.4812   21.5449 C   0  0  2  0  0  0
  -24.8683  -28.9345   20.1131 C   0  0  0  0  0  0
  -22.7456  -29.4628   22.4966 C   0  0  0  0  0  0
  -18.0282  -28.1405   22.8478 C   0  0  0  0  0  0
  -24.1486  -36.7291   23.2637 C   0  0  0  0  0  0
  -25.9534  -30.7977   21.3710 C   0  0  0  0  0  0
  -26.0318  -29.4251   20.7177 C   0  0  0  0  0  0
  -27.2208  -28.6414   20.7123 C   0  0  0  0  0  0
  -26.0613  -26.9012   19.4878 C   0  0  0  0  0  0
  -24.8827  -27.6739   19.4941 C   0  0  0  0  0  0
  -23.6306  -29.8078   20.1621 C   0  0  0  0  0  0
  -25.4105  -36.3069   24.0325 C   0  0  1  0  0  0
  -20.5875  -28.3695   23.1295 C   0  0  2  0  0  0
  -20.6769  -26.9422   22.5416 C   0  0  0  0  0  0
  -19.5747  -26.6395   21.5218 C   0  0  0  0  0  0
  -18.1930  -26.7946   22.1627 C   0  0  0  0  0  0
  -19.1529  -28.8868   23.2877 C   0  0  0  0  0  0
  -18.9458  -30.1478   23.8880 C   0  0  0  0  0  0
  -17.6456  -30.6595   24.0569 C   0  0  0  0  0  0
  -25.9050  -34.9442   23.5091 C   0  0  0  0  0  0
  -16.5343  -29.9093   23.6347 C   0  0  0  0  0  0
  -16.7271  -28.6523   23.0340 C   0  0  0  0  0  0
  -26.4503  -31.6580   25.0726 C   0  0  0  0  0  0
  -25.3743  -31.3733   26.1462 C   0  0  0  0  0  0
  -27.0364  -30.2996   24.6209 C   0  0  0  0  0  0
  -27.6073  -32.4316   25.7490 C   0  0  0  0  0  0
  -27.5577  -37.1780   24.8450 C   0  0  0  0  0  0
  -21.4175  -29.3047   22.3690 N   0  0  0  0  0  0
  -26.4268  -37.3773   23.9423 N   0  0  0  0  0  0
  -24.6828  -31.0631   22.0973 N   0  0  0  0  0  0
  -23.4187  -28.8198   23.3064 O   0  0  0  0  0  0
  -28.4055  -26.5499   20.1607 O   0  0  0  0  0  0
  -26.5616  -34.8911   22.4661 O   0  0  0  0  0  0
  -23.5414  -32.1414   23.7359 O   0  0  0  0  0  0
  -31.3041  -18.0421   21.1741 C   0  0  0  0  0  0
  -31.3295  -19.4790   21.2326 C   0  0  0  0  0  0
  -29.4429  -19.6324   19.7349 C   0  0  0  0  0  0
  -29.4424  -18.2213   19.6815 C   0  0  0  0  0  0
  -30.3214  -17.3858   20.3915 C   0  0  0  0  0  0
  -30.3891  -20.3072   20.5365 C   0  0  0  0  0  0
  -29.4397  -24.1775   20.3547 C   0  0  0  0  0  0
  -28.4873  -17.4269   18.8724 C   0  0  0  0  0  0
  -28.7502  -16.0122   19.3846 C   0  0  0  0  0  0
  -29.3734  -22.6351   20.0257 C   0  0  0  0  0  0
  -28.2949  -25.1201   19.8199 C   0  0  0  0  0  0
  -29.9683  -15.9753   20.1982 N   0  0  0  0  0  0
  -30.4000  -21.7344   20.6432 N   0  0  0  0  0  0
  -30.3770  -24.6250   21.0271 O   0  0  0  0  0  0
  -31.4741  -12.6010   19.1169 H   0  0  0  0  0  0
  -30.4221  -11.5214   19.9994 H   0  0  0  0  0  0
  -29.8180  -11.6341   17.5483 H   0  0  0  0  0  0
  -29.5721  -13.3539   17.6648 H   0  0  0  0  0  0
  -27.9722  -11.1416   19.0183 H   0  0  0  0  0  0
  -27.3663  -12.2609   17.8298 H   0  0  0  0  0  0
  -27.4617  -14.0158   19.2606 H   0  0  0  0  0  0
  -28.7729  -12.3036   21.4989 H   0  0  0  0  0  0
  -28.4166  -14.0032   21.6657 H   0  0  0  0  0  0
  -25.2609   -9.5580   22.4865 H   0  0  0  0  0  0
  -23.9933   -7.4487   22.7463 H   0  0  0  0  0  0
  -21.0753   -8.8619   19.8946 H   0  0  0  0  0  0
  -22.3535  -10.9601   19.6248 H   0  0  0  0  0  0
  -21.1967   -7.6119   23.9704 H   0  0  0  0  0  0
  -21.1494   -6.0489   25.9066 H   0  0  0  0  0  0
  -22.0621   -2.7595   23.2834 H   0  0  0  0  0  0
  -22.3861  -11.9865   22.4895 H   0  0  0  0  0  0
  -21.1029  -13.1378   22.2648 H   0  0  0  0  0  0
  -24.6576  -15.8087   20.5125 H   0  0  0  0  0  0
  -26.2687  -15.5866   20.0553 H   0  0  0  0  0  0
  -26.7182  -32.5446   23.1117 H   0  0  0  0  0  0
  -25.0093  -33.9720   25.0424 H   0  0  0  0  0  0
  -22.7096  -31.3006   21.3985 H   0  0  0  0  0  0
  -23.3736  -35.9631   23.3271 H   0  0  0  0  0  0
  -24.3587  -36.8944   22.2058 H   0  0  0  0  0  0
  -23.7238  -37.6482   23.6685 H   0  0  0  0  0  0
  -26.0785  -31.5609   20.6011 H   0  0  0  0  0  0
  -26.8347  -30.8496   21.9987 H   0  0  0  0  0  0
  -28.1099  -29.0167   21.1986 H   0  0  0  0  0  0
  -26.0155  -25.9445   18.9888 H   0  0  0  0  0  0
  -23.9899  -27.2910   19.0181 H   0  0  0  0  0  0
  -23.7389  -30.5781   19.3979 H   0  0  0  0  0  0
  -22.7541  -29.2274   19.8689 H   0  0  0  0  0  0
  -25.1273  -36.1901   25.0809 H   0  0  0  0  0  0
  -20.9964  -28.3272   24.1419 H   0  0  0  0  0  0
  -20.5687  -26.2312   23.3619 H   0  0  0  0  0  0
  -21.6638  -26.7476   22.1202 H   0  0  0  0  0  0
  -19.6906  -25.6304   21.1260 H   0  0  0  0  0  0
  -19.6684  -27.3200   20.6745 H   0  0  0  0  0  0
  -17.4208  -26.6701   21.4025 H   0  0  0  0  0  0
  -18.0310  -26.0088   22.9021 H   0  0  0  0  0  0
  -19.7936  -30.7306   24.2224 H   0  0  0  0  0  0
  -17.5013  -31.6270   24.5182 H   0  0  0  0  0  0
  -15.5345  -30.2986   23.7690 H   0  0  0  0  0  0
  -15.8672  -28.0850   22.7037 H   0  0  0  0  0  0
  -24.5883  -30.7130   25.7786 H   0  0  0  0  0  0
  -24.8987  -32.2917   26.4915 H   0  0  0  0  0  0
  -25.8061  -30.8875   27.0221 H   0  0  0  0  0  0
  -26.2960  -29.6713   24.1256 H   0  0  0  0  0  0
  -27.4068  -29.7291   25.4737 H   0  0  0  0  0  0
  -27.8817  -30.4258   23.9441 H   0  0  0  0  0  0
  -27.2690  -33.3614   26.2072 H   0  0  0  0  0  0
  -28.3885  -32.6874   25.0319 H   0  0  0  0  0  0
  -28.0750  -31.8442   26.5404 H   0  0  0  0  0  0
  -28.2547  -38.0124   24.7554 H   0  0  0  0  0  0
  -28.1119  -36.2658   24.6186 H   0  0  0  0  0  0
  -27.2322  -37.1314   25.8858 H   0  0  0  0  0  0
  -20.9369  -29.8732   21.6860 H   0  0  0  0  0  0
  -26.0136  -38.2831   24.1470 H   0  0  0  0  0  0
  -32.0232  -17.4655   21.7377 H   0  0  0  0  0  0
  -32.0885  -19.9476   21.8437 H   0  0  0  0  0  0
  -28.7059  -20.1771   19.1623 H   0  0  0  0  0  0
  -28.7244  -17.5255   17.8120 H   0  0  0  0  0  0
  -27.4537  -17.7424   19.0326 H   0  0  0  0  0  0
  -28.8021  -15.3391   18.5295 H   0  0  0  0  0  0
  -27.9455  -15.7916   20.0780 H   0  0  0  0  0  0
  -29.4316  -22.5338   18.9416 H   0  0  0  0  0  0
  -28.3800  -22.2874   20.3111 H   0  0  0  0  0  0
  -27.3626  -24.7172   20.2147 H   0  0  0  0  0  0
  -28.2504  -25.0257   18.7347 H   0  0  0  0  0  0
  -31.1071  -22.1960   21.2119 H   0  0  0  0  0  0
  1 25  1  0  0  0
  1 30  2  0  0  0
  1 82  1  0  0  0
  2  3  1  0  0  0
  2 25  1  0  0  0
  2 85  1  0  0  0
  2 86  1  0  0  0
  3  4  1  0  0  0
  3 87  1  0  0  0
  3 88  1  0  0  0
  4  5  1  0  0  0
  4 89  1  0  0  0
  4 90  1  0  0  0
  5  6  1  0  0  0
  5 26  1  0  0  0
  5 91  1  0  0  0
  6 25  1  0  0  0
  6 92  1  0  0  0
  6 93  1  0  0  0
  7  8  2  0  0  0
  7 26  1  0  0  0
  7 29  1  0  0  0
  8  9  1  0  0  0
  8 22  1  0  0  0
  9 10  1  0  0  0
  9 27  2  0  0  0
 10 11  2  0  0  0
 10 15  1  0  0  0
 11 12  1  0  0  0
 11 94  1  0  0  0
 12 13  2  0  0  0
 12 95  1  0  0  0
 13 14  1  0  0  0
 13 31  1  0  0  0
 14 15  2  0  0  0
 14 96  1  0  0  0
 15 97  1  0  0  0
 16 17  2  0  0  0
 16 21  1  0  0  0
 16 31  1  0  0  0
 17 18  1  0  0  0
 17 98  1  0  0  0
 18 19  2  0  0  0
 18 99  1  0  0  0
 19 20  1  0  0  0
 19 24  1  0  0  0
 20 21  2  0  0  0
 20100  1  0  0  0
 21 23  1  0  0  0
 22 28  1  0  0  0
 22 32  2  0  0  0
 26 27  1  0  0  0
 28101  1  0  0  0
 28102  1  0  0  0
 29103  1  0  0  0
 29104  1  0  0  0
 33 34  1  0  0  0
 33 66  1  0  0  0
 33 70  2  0  0  0
 34 36  1  0  0  0
 34 59  1  0  0  0
 34105  1  0  0  0
 35 44  2  0  0  0
 35 45  1  0  0  0
 35 68  1  0  0  0
 36 56  1  0  0  0
 36106  1  0  0  0
 37 39  1  0  0  0
 37 47  1  0  0  0
 37 66  1  0  0  0
 37107  1  0  0  0
 38 43  2  0  0  0
 38 46  1  0  0  0
 38 47  1  0  0  0
 39 64  1  0  0  0
 39 67  2  0  0  0
 40 52  1  0  0  0
 40 53  2  0  0  0
 40 58  1  0  0  0
 41108  1  0  0  0
 41109  1  0  0  0
 41110  1  0  0  0
 41 48  1  0  0  0
 42 43  1  0  0  0
 42 66  1  0  0  0
 42111  1  0  0  0
 42112  1  0  0  0
 43 44  1  0  0  0
 44113  1  0  0  0
 45 46  2  0  0  0
 45114  1  0  0  0
 46115  1  0  0  0
 47116  1  0  0  0
 47117  1  0  0  0
 48 56  1  0  0  0
 48 65  1  0  0  0
 48118  1  0  0  0
 49 50  1  0  0  0
 49 53  1  0  0  0
 49 64  1  0  0  0
 49119  1  0  0  0
 50 51  1  0  0  0
 50120  1  0  0  0
 50121  1  0  0  0
 51 52  1  0  0  0
 51122  1  0  0  0
 51123  1  0  0  0
 52124  1  0  0  0
 52125  1  0  0  0
 53 54  1  0  0  0
 54 55  2  0  0  0
 54126  1  0  0  0
 55 57  1  0  0  0
 55127  1  0  0  0
 56 69  2  0  0  0
 57 58  2  0  0  0
 57128  1  0  0  0
 58129  1  0  0  0
 59 60  1  0  0  0
 59 61  1  0  0  0
 59 62  1  0  0  0
 60130  1  0  0  0
 60131  1  0  0  0
 60132  1  0  0  0
 61133  1  0  0  0
 61134  1  0  0  0
 61135  1  0  0  0
 62136  1  0  0  0
 62137  1  0  0  0
 62138  1  0  0  0
 63 65  1  0  0  0
 63139  1  0  0  0
 63140  1  0  0  0
 63141  1  0  0  0
 64142  1  0  0  0
 65143  1  0  0  0
 68 81  1  0  0  0
 71 72  2  0  0  0
 71 75  1  0  0  0
 71144  1  0  0  0
 72 76  1  0  0  0
 72145  1  0  0  0
 73 74  1  0  0  0
 73 76  2  0  0  0
 73146  1  0  0  0
 74 75  2  0  0  0
 74 78  1  0  0  0
 75 82  1  0  0  0
 76 83  1  0  0  0
 77 80  1  0  0  0
 77 81  1  0  0  0
 77 84  2  0  0  0
 78 79  1  0  0  0
 78147  1  0  0  0
 78148  1  0  0  0
 79 82  1  0  0  0
 79149  1  0  0  0
 79150  1  0  0  0
 80 83  1  0  0  0
 80151  1  0  0  0
 80152  1  0  0  0
 81153  1  0  0  0
 81154  1  0  0  0
 83155  1  0  0  0
M  ISO  4   1 100  68 101  81 101  82 100
M  END
> <chiral flag>
0

> <version>
0

> <s_m_source_file>
/data/baiqing/PycharmProjects/Reinvent-master-3.2/result/LINK_invent/BTK/process_docking_weight1_custom_product_contain_oxygen_bond_distance_aromatic_linkinvent_7_9_3/rearranged_h_0105.sdf

> <i_m_source_file_index>
6

> <r_mmod_Potential_Energy-OPLS-2005>
339.620269775391

> <r_mmod_Stretch_Energy-OPLS-2005>
83.1344757080078

> <r_mmod_Bend_Energy-OPLS-2005>
220.71125793457

> <r_mmod_Torsional_Energy-OPLS-2005>
276.895812988281

> <r_mmod_Improper_Torsional_Energy-OPLS-2005>
9.73120498657227

> <r_mmod_Van_der_Waal_Energy-OPLS-2005>
155.978927612305

> <r_mmod_Electrostatic_Energy-OPLS-2005>
-263.647399902344

> <r_mmod_Solvation_Energy-OPLS-2005>
-234.494064331055

> <b_mmod_Minimization_Converged-OPLS-2005>
0

> <r_mmod_RMS_Derivative-OPLS-2005>
2.50913333892822

$$$$
6
                    3D
 Structure written by MMmdl.
161170  0  0  1  0            999 V2000
  -30.6057  -14.6628   20.4750 C   0  0  0  0  0  0
  -30.4442  -12.4036   19.4491 C   0  0  0  0  0  0
  -29.5086  -12.5034   18.2233 C   0  0  0  0  0  0
  -28.0327  -12.3331   18.6386 C   0  0  0  0  0  0
  -27.6489  -13.2120   19.8580 C   0  0  2  0  0  0
  -28.6986  -13.0826   20.9852 C   0  0  0  0  0  0
  -25.2520  -13.8114   20.5717 C   0  0  0  0  0  0
  -24.1791  -13.0386   20.9199 C   0  0  0  0  0  0
  -24.6372  -11.6867   20.8731 C   0  0  0  0  0  0
  -23.9050  -10.4259   21.0393 C   0  0  0  0  0  0
  -24.3600   -9.4181   21.9175 C   0  0  0  0  0  0
  -23.6273   -8.2220   22.0747 C   0  0  0  0  0  0
  -22.4253   -8.0266   21.3547 C   0  0  0  0  0  0
  -21.9890   -9.0238   20.4648 C   0  0  0  0  0  0
  -22.7223  -10.2110   20.3047 C   0  0  0  0  0  0
  -21.6846   -6.0722   22.5277 C   0  0  0  0  0  0
  -21.4010   -6.5625   23.8210 C   0  0  0  0  0  0
  -21.3661   -5.6778   24.9174 C   0  0  0  0  0  0
  -21.6043   -4.3045   24.7225 C   0  0  0  0  0  0
  -21.8820   -3.8137   23.4346 C   0  0  0  0  0  0
  -21.9191   -4.6953   22.3399 C   0  0  0  0  0  0
  -22.7818  -13.5196   21.1861 C   0  0  0  0  0  0
  -22.1662   -4.2141   21.0977 F   0  0  0  0  0  0
  -21.5630   -3.4528   25.7737 F   0  0  0  0  0  0
  -30.0102  -13.4297   20.4152 N   0  0  0  0  0  0
  -26.2955  -12.9307   20.3308 N   0  0  0  0  0  0
  -25.9299  -11.6467   20.5736 N   0  0  0  0  0  0
  -22.0454  -12.8208   22.0423 N   0  0  0  0  0  0
  -25.4170  -15.1828   20.4207 N   0  0  0  0  0  0
  -31.7874  -14.8265   20.1585 O   0  0  0  0  0  0
  -21.6626   -6.8864   21.4241 O   0  0  0  0  0  0
  -22.3517  -14.5512   20.6714 O   0  0  0  0  0  0
  -24.6258  -31.8606   23.2035 C   0  0  0  0  0  0
  -25.9105  -32.4783   23.8369 C   0  0  1  0  0  0
  -27.2273  -27.3304   20.1125 C   0  0  0  0  0  0
  -25.5922  -33.8582   24.2295 N   0  0  0  0  0  0
  -23.4196  -30.4837   21.5469 C   0  0  2  0  0  0
  -24.8669  -28.9406   20.1125 C   0  0  0  0  0  0
  -22.7476  -29.4617   22.4948 C   0  0  0  0  0  0
  -18.0287  -28.1381   22.8478 C   0  0  0  0  0  0
  -24.1487  -36.7292   23.2636 C   0  0  0  0  0  0
  -25.9603  -30.7925   21.3753 C   0  0  0  0  0  0
  -26.0355  -29.4209   20.7184 C   0  0  0  0  0  0
  -27.2202  -28.6272   20.7099 C   0  0  0  0  0  0
  -26.0419  -26.9075   19.4711 C   0  0  0  0  0  0
  -24.8715  -27.6880   19.4802 C   0  0  0  0  0  0
  -23.6342  -29.8192   20.1622 C   0  0  0  0  0  0
  -25.4104  -36.3085   24.0337 C   0  0  1  0  0  0
  -20.5884  -28.3678   23.1283 C   0  0  2  0  0  0
  -20.6772  -26.9402   22.5406 C   0  0  0  0  0  0
  -19.5750  -26.6380   21.5202 C   0  0  0  0  0  0
  -18.1929  -26.7923   22.1614 C   0  0  0  0  0  0
  -19.1539  -28.8847   23.2876 C   0  0  0  0  0  0
  -18.9461  -30.1447   23.8896 C   0  0  0  0  0  0
  -17.6459  -30.6581   24.0558 C   0  0  0  0  0  0
  -25.9045  -34.9453   23.5118 C   0  0  0  0  0  0
  -16.5352  -29.9076   23.6325 C   0  0  0  0  0  0
  -16.7273  -28.6496   23.0347 C   0  0  0  0  0  0
  -26.4490  -31.6588   25.0737 C   0  0  0  0  0  0
  -25.3732  -31.3725   26.1473 C   0  0  0  0  0  0
  -27.0321  -30.3014   24.6177 C   0  0  0  0  0  0
  -27.6066  -32.4313   25.7492 C   0  0  0  0  0  0
  -27.5587  -37.1785   24.8452 C   0  0  0  0  0  0
  -21.4190  -29.3035   22.3684 N   0  0  0  0  0  0
  -26.4279  -37.3785   23.9426 N   0  0  0  0  0  0
  -24.6872  -31.0623   22.0988 N   0  0  0  0  0  0
  -23.4202  -28.8154   23.3025 O   0  0  0  0  0  0
  -28.3418  -26.4806   20.1297 O   0  0  0  0  0  0
  -26.5612  -34.8921   22.4683 O   0  0  0  0  0  0
  -23.5422  -32.1397   23.7361 O   0  0  0  0  0  0
  -28.9581  -19.3374   19.7189 C   0  0  0  0  0  0
  -30.7372  -17.9331   21.3603 C   0  0  0  0  0  0
  -28.9884  -17.9073   19.7039 C   0  0  0  0  0  0
  -29.8016  -20.1172   20.5519 C   0  0  0  0  0  0
  -29.8747  -17.1626   20.5389 C   0  0  0  0  0  0
  -30.6984  -19.3629   21.3750 C   0  0  0  0  0  0
  -30.4621  -23.8495   20.5549 C   0  0  0  0  0  0
  -30.9193  -22.3912   20.3394 C   0  0  0  0  0  0
  -28.5538  -22.4117   20.3043 C   0  0  0  0  0  0
  -29.0276  -23.8949   20.0149 C   0  0  1  0  0  0
  -28.0306  -17.1942   18.7657 C   0  0  0  0  0  0
  -28.1136  -25.0809   20.5584 C   0  0  0  0  0  0
  -29.7407  -21.5634   20.5899 N   0  0  0  0  0  0
  -31.5139  -20.0332   22.2863 N   0  0  0  0  0  0
  -29.7417  -15.7091   20.6736 N   0  0  0  0  0  0
  -31.4835  -12.5399   19.1448 H   0  0  0  0  0  0
  -30.3891  -11.4124   19.9008 H   0  0  0  0  0  0
  -29.7771  -11.7495   17.4825 H   0  0  0  0  0  0
  -29.6429  -13.4709   17.7365 H   0  0  0  0  0  0
  -27.8805  -11.2813   18.8841 H   0  0  0  0  0  0
  -27.3758  -12.5479   17.7953 H   0  0  0  0  0  0
  -27.6566  -14.2409   19.5007 H   0  0  0  0  0  0
  -28.7171  -12.0650   21.3762 H   0  0  0  0  0  0
  -28.4442  -13.7236   21.8311 H   0  0  0  0  0  0
  -25.2742   -9.5658   22.4755 H   0  0  0  0  0  0
  -23.9985   -7.4606   22.7458 H   0  0  0  0  0  0
  -21.0821   -8.8757   19.8947 H   0  0  0  0  0  0
  -22.3684  -10.9649   19.6153 H   0  0  0  0  0  0
  -21.1998   -7.6128   23.9716 H   0  0  0  0  0  0
  -21.1483   -6.0503   25.9078 H   0  0  0  0  0  0
  -22.0597   -2.7595   23.2849 H   0  0  0  0  0  0
  -22.4052  -11.9876   22.4837 H   0  0  0  0  0  0
  -21.1077  -13.1262   22.2620 H   0  0  0  0  0  0
  -24.6457  -15.8306   20.5399 H   0  0  0  0  0  0
  -26.2634  -15.6321   20.1047 H   0  0  0  0  0  0
  -26.7172  -32.5454   23.1119 H   0  0  0  0  0  0
  -25.0081  -33.9731   25.0449 H   0  0  0  0  0  0
  -22.7128  -31.3039   21.4050 H   0  0  0  0  0  0
  -23.3757  -35.9614   23.3275 H   0  0  0  0  0  0
  -24.3599  -36.8931   22.2056 H   0  0  0  0  0  0
  -23.7223  -37.6483   23.6664 H   0  0  0  0  0  0
  -26.0920  -31.5547   20.6063 H   0  0  0  0  0  0
  -26.8407  -30.8415   22.0043 H   0  0  0  0  0  0
  -28.1172  -28.9904   21.1914 H   0  0  0  0  0  0
  -26.0071  -25.9599   18.9538 H   0  0  0  0  0  0
  -23.9810  -27.3182   18.9914 H   0  0  0  0  0  0
  -23.7532  -30.5959   19.4061 H   0  0  0  0  0  0
  -22.7539  -29.2488   19.8598 H   0  0  0  0  0  0
  -25.1273  -36.1941   25.0827 H   0  0  0  0  0  0
  -20.9978  -28.3254   24.1402 H   0  0  0  0  0  0
  -20.5661  -26.2286   23.3603 H   0  0  0  0  0  0
  -21.6646  -26.7429   22.1210 H   0  0  0  0  0  0
  -19.6911  -25.6291   21.1233 H   0  0  0  0  0  0
  -19.6686  -27.3189   20.6733 H   0  0  0  0  0  0
  -17.4196  -26.6665   21.4020 H   0  0  0  0  0  0
  -18.0333  -26.0069   22.9015 H   0  0  0  0  0  0
  -19.7938  -30.7261   24.2269 H   0  0  0  0  0  0
  -17.5016  -31.6263   24.5154 H   0  0  0  0  0  0
  -15.5351  -30.2977   23.7652 H   0  0  0  0  0  0
  -15.8674  -28.0811   22.7067 H   0  0  0  0  0  0
  -24.5911  -30.7059   25.7820 H   0  0  0  0  0  0
  -24.8908  -32.2883   26.4902 H   0  0  0  0  0  0
  -25.8069  -30.8916   27.0252 H   0  0  0  0  0  0
  -26.2882  -29.6777   24.1206 H   0  0  0  0  0  0
  -27.4028  -29.7261   25.4673 H   0  0  0  0  0  0
  -27.8754  -30.4304   23.9389 H   0  0  0  0  0  0
  -27.2698  -33.3621   26.2071 H   0  0  0  0  0  0
  -28.3868  -32.6858   25.0305 H   0  0  0  0  0  0
  -28.0742  -31.8434   26.5403 H   0  0  0  0  0  0
  -28.2563  -38.0125   24.7575 H   0  0  0  0  0  0
  -28.1127  -36.2667   24.6170 H   0  0  0  0  0  0
  -27.2326  -37.1312   25.8856 H   0  0  0  0  0  0
  -20.9366  -29.8769   21.6904 H   0  0  0  0  0  0
  -26.0163  -38.2851   24.1474 H   0  0  0  0  0  0
  -28.2592  -19.8418   19.0681 H   0  0  0  0  0  0
  -31.4023  -17.4152   22.0359 H   0  0  0  0  0  0
  -31.1172  -24.5698   20.0636 H   0  0  0  0  0  0
  -30.4642  -24.0798   21.6215 H   0  0  0  0  0  0
  -31.7658  -22.1596   20.9845 H   0  0  0  0  0  0
  -31.2470  -22.2425   19.3092 H   0  0  0  0  0  0
  -27.9776  -22.0302   19.4602 H   0  0  0  0  0  0
  -27.8946  -22.3905   21.1739 H   0  0  0  0  0  0
  -29.0881  -23.9987   18.9296 H   0  0  0  0  0  0
  -27.7683  -17.8297   17.9188 H   0  0  0  0  0  0
  -27.1088  -16.9476   19.2872 H   0  0  0  0  0  0
  -28.4669  -16.2815   18.3592 H   0  0  0  0  0  0
  -28.1732  -25.0812   21.6471 H   0  0  0  0  0  0
  -27.0902  -24.7735   20.3557 H   0  0  0  0  0  0
  -31.7163  -19.5556   23.1574 H   0  0  0  0  0  0
  -31.2156  -20.9922   22.4388 H   0  0  0  0  0  0
  -28.7939  -15.3902   20.7933 H   0  0  0  0  0  0
  1 25  1  0  0  0
  1 30  2  0  0  0
  1 85  1  0  0  0
  2  3  1  0  0  0
  2 25  1  0  0  0
  2 86  1  0  0  0
  2 87  1  0  0  0
  3  4  1  0  0  0
  3 88  1  0  0  0
  3 89  1  0  0  0
  4  5  1  0  0  0
  4 90  1  0  0  0
  4 91  1  0  0  0
  5  6  1  0  0  0
  5 26  1  0  0  0
  5 92  1  0  0  0
  6 25  1  0  0  0
  6 93  1  0  0  0
  6 94  1  0  0  0
  7  8  2  0  0  0
  7 26  1  0  0  0
  7 29  1  0  0  0
  8  9  1  0  0  0
  8 22  1  0  0  0
  9 10  1  0  0  0
  9 27  2  0  0  0
 10 11  2  0  0  0
 10 15  1  0  0  0
 11 12  1  0  0  0
 11 95  1  0  0  0
 12 13  2  0  0  0
 12 96  1  0  0  0
 13 14  1  0  0  0
 13 31  1  0  0  0
 14 15  2  0  0  0
 14 97  1  0  0  0
 15 98  1  0  0  0
 16 17  2  0  0  0
 16 21  1  0  0  0
 16 31  1  0  0  0
 17 18  1  0  0  0
 17 99  1  0  0  0
 18 19  2  0  0  0
 18100  1  0  0  0
 19 20  1  0  0  0
 19 24  1  0  0  0
 20 21  2  0  0  0
 20101  1  0  0  0
 21 23  1  0  0  0
 22 28  1  0  0  0
 22 32  2  0  0  0
 26 27  1  0  0  0
 28102  1  0  0  0
 28103  1  0  0  0
 29104  1  0  0  0
 29105  1  0  0  0
 33 34  1  0  0  0
 33 66  1  0  0  0
 33 70  2  0  0  0
 34 36  1  0  0  0
 34 59  1  0  0  0
 34106  1  0  0  0
 35 44  2  0  0  0
 35 45  1  0  0  0
 35 68  1  0  0  0
 36 56  1  0  0  0
 36107  1  0  0  0
 37 39  1  0  0  0
 37 47  1  0  0  0
 37 66  1  0  0  0
 37108  1  0  0  0
 38 43  2  0  0  0
 38 46  1  0  0  0
 38 47  1  0  0  0
 39 64  1  0  0  0
 39 67  2  0  0  0
 40 52  1  0  0  0
 40 53  2  0  0  0
 40 58  1  0  0  0
 41109  1  0  0  0
 41110  1  0  0  0
 41111  1  0  0  0
 41 48  1  0  0  0
 42 43  1  0  0  0
 42 66  1  0  0  0
 42112  1  0  0  0
 42113  1  0  0  0
 43 44  1  0  0  0
 44114  1  0  0  0
 45 46  2  0  0  0
 45115  1  0  0  0
 46116  1  0  0  0
 47117  1  0  0  0
 47118  1  0  0  0
 48 56  1  0  0  0
 48 65  1  0  0  0
 48119  1  0  0  0
 49 50  1  0  0  0
 49 53  1  0  0  0
 49 64  1  0  0  0
 49120  1  0  0  0
 50 51  1  0  0  0
 50121  1  0  0  0
 50122  1  0  0  0
 51 52  1  0  0  0
 51123  1  0  0  0
 51124  1  0  0  0
 52125  1  0  0  0
 52126  1  0  0  0
 53 54  1  0  0  0
 54 55  2  0  0  0
 54127  1  0  0  0
 55 57  1  0  0  0
 55128  1  0  0  0
 56 69  2  0  0  0
 57 58  2  0  0  0
 57129  1  0  0  0
 58130  1  0  0  0
 59 60  1  0  0  0
 59 61  1  0  0  0
 59 62  1  0  0  0
 60131  1  0  0  0
 60132  1  0  0  0
 60133  1  0  0  0
 61134  1  0  0  0
 61135  1  0  0  0
 61136  1  0  0  0
 62137  1  0  0  0
 62138  1  0  0  0
 62139  1  0  0  0
 63 65  1  0  0  0
 63140  1  0  0  0
 63141  1  0  0  0
 63142  1  0  0  0
 64143  1  0  0  0
 65144  1  0  0  0
 68 82  1  0  0  0
 71 73  2  0  0  0
 71 74  1  0  0  0
 71145  1  0  0  0
 72 75  2  0  0  0
 72 76  1  0  0  0
 72146  1  0  0  0
 73 75  1  0  0  0
 73 81  1  0  0  0
 74 76  2  0  0  0
 74 83  1  0  0  0
 75 85  1  0  0  0
 76 84  1  0  0  0
 77 78  1  0  0  0
 77 80  1  0  0  0
 77147  1  0  0  0
 77148  1  0  0  0
 78 83  1  0  0  0
 78149  1  0  0  0
 78150  1  0  0  0
 79 80  1  0  0  0
 79 83  1  0  0  0
 79151  1  0  0  0
 79152  1  0  0  0
 80 82  1  0  0  0
 80153  1  0  0  0
 81154  1  0  0  0
 81155  1  0  0  0
 81156  1  0  0  0
 82157  1  0  0  0
 82158  1  0  0  0
 84159  1  0  0  0
 84160  1  0  0  0
 85161  1  0  0  0
M  ISO  4   1 100  68 101  82 101  85 100
M  END
> <chiral flag>
0

> <version>
0

> <s_m_source_file>
/data/baiqing/PycharmProjects/Reinvent-master-3.2/result/LINK_invent/BTK/process_docking_weight1_custom_product_contain_oxygen_bond_distance_aromatic_linkinvent_7_9_3/rearranged_h_0105.sdf

> <i_m_source_file_index>
7

> <r_mmod_Potential_Energy-OPLS-2005>
139.106918334961

> <r_mmod_Stretch_Energy-OPLS-2005>
77.196533203125

> <r_mmod_Bend_Energy-OPLS-2005>
174.860992431641

> <r_mmod_Torsional_Energy-OPLS-2005>
320.17529296875

> <r_mmod_Improper_Torsional_Energy-OPLS-2005>
13.2441234588623

> <r_mmod_Van_der_Waal_Energy-OPLS-2005>
141.834381103516

> <r_mmod_Electrostatic_Energy-OPLS-2005>
-407.174560546875

> <r_mmod_Solvation_Energy-OPLS-2005>
-233.08674621582

> <b_mmod_Minimization_Converged-OPLS-2005>
0

> <r_mmod_RMS_Derivative-OPLS-2005>
1.28649711608887

$$$$
7
                    3D
 Structure written by MMmdl.
156163  0  0  1  0            999 V2000
  -30.5332  -14.9540   20.3967 C   0  0  0  0  0  0
  -30.4364  -12.6004   19.4713 C   0  0  0  0  0  0
  -29.5132  -12.5609   18.2334 C   0  0  0  0  0  0
  -28.0561  -12.3102   18.6641 C   0  0  0  0  0  0
  -27.6255  -13.2441   19.8251 C   0  0  2  0  0  0
  -28.6706  -13.2753   20.9579 C   0  0  0  0  0  0
  -25.2437  -13.8201   20.5665 C   0  0  0  0  0  0
  -24.1756  -13.0422   20.9215 C   0  0  0  0  0  0
  -24.6387  -11.6925   20.8758 C   0  0  0  0  0  0
  -23.9074  -10.4295   21.0382 C   0  0  0  0  0  0
  -24.3625   -9.4217   21.9156 C   0  0  0  0  0  0
  -23.6321   -8.2246   22.0717 C   0  0  0  0  0  0
  -22.4299   -8.0269   21.3517 C   0  0  0  0  0  0
  -21.9950   -9.0223   20.4610 C   0  0  0  0  0  0
  -22.7263  -10.2109   20.2997 C   0  0  0  0  0  0
  -21.6876   -6.0746   22.5296 C   0  0  0  0  0  0
  -21.4032   -6.5634   23.8232 C   0  0  0  0  0  0
  -21.3679   -5.6768   24.9182 C   0  0  0  0  0  0
  -21.6050   -4.3030   24.7216 C   0  0  0  0  0  0
  -21.8801   -3.8143   23.4335 C   0  0  0  0  0  0
  -21.9187   -4.6968   22.3406 C   0  0  0  0  0  0
  -22.7788  -13.5200   21.1850 C   0  0  0  0  0  0
  -22.1666   -4.2166   21.0977 F   0  0  0  0  0  0
  -21.5624   -3.4511   25.7726 F   0  0  0  0  0  0
  -29.9416  -13.6930   20.3526 N   0  0  0  0  0  0
  -26.2862  -12.9444   20.3175 N   0  0  0  0  0  0
  -25.9318  -11.6584   20.5726 N   0  0  0  0  0  0
  -22.0416  -12.8218   22.0410 N   0  0  0  0  0  0
  -25.4024  -15.1938   20.4058 N   0  0  0  0  0  0
  -31.7514  -15.0101   20.2025 O   0  0  0  0  0  0
  -21.6641   -6.8884   21.4256 O   0  0  0  0  0  0
  -22.3515  -14.5502   20.6638 O   0  0  0  0  0  0
  -24.6437  -31.8452   23.1913 C   0  0  0  0  0  0
  -25.9222  -32.4677   23.8309 C   0  0  1  0  0  0
  -27.2119  -27.1370   20.1354 C   0  0  0  0  0  0
  -25.6026  -33.8491   24.2271 N   0  0  0  0  0  0
  -23.4482  -30.4662   21.5366 C   0  0  2  0  0  0
  -24.8983  -28.8973   20.1049 C   0  0  0  0  0  0
  -22.7571  -29.4550   22.4841 C   0  0  0  0  0  0
  -18.0330  -28.1346   22.8448 C   0  0  0  0  0  0
  -24.1533  -36.7269   23.2644 C   0  0  0  0  0  0
  -26.0076  -30.7104   21.4018 C   0  0  0  0  0  0
  -26.0736  -29.3272   20.7323 C   0  0  0  0  0  0
  -27.2309  -28.4601   20.7379 C   0  0  0  0  0  0
  -26.0163  -26.8168   19.4580 C   0  0  0  0  0  0
  -24.8807  -27.6546   19.4548 C   0  0  0  0  0  0
  -23.6806  -29.8064   20.1504 C   0  0  0  0  0  0
  -25.4149  -36.3056   24.0355 C   0  0  1  0  0  0
  -20.5931  -28.3697   23.1224 C   0  0  2  0  0  0
  -20.6821  -26.9409   22.5365 C   0  0  0  0  0  0
  -19.5816  -26.6357   21.5165 C   0  0  0  0  0  0
  -18.1990  -26.7904   22.1560 C   0  0  0  0  0  0
  -19.1563  -28.8843   23.2843 C   0  0  0  0  0  0
  -18.9468  -30.1431   23.8870 C   0  0  0  0  0  0
  -17.6450  -30.6542   24.0546 C   0  0  0  0  0  0
  -25.9074  -34.9406   23.5117 C   0  0  0  0  0  0
  -16.5362  -29.9015   23.6317 C   0  0  0  0  0  0
  -16.7302  -28.6443   23.0341 C   0  0  0  0  0  0
  -26.4542  -31.6508   25.0734 C   0  0  0  0  0  0
  -25.3704  -31.3658   26.1414 C   0  0  0  0  0  0
  -27.0466  -30.2920   24.6348 C   0  0  0  0  0  0
  -27.6114  -32.4237   25.7479 C   0  0  0  0  0  0
  -27.5633  -37.1799   24.8456 C   0  0  0  0  0  0
  -21.4253  -29.3042   22.3611 N   0  0  0  0  0  0
  -26.4343  -37.3741   23.9407 N   0  0  0  0  0  0
  -24.7188  -31.0284   22.0963 N   0  0  0  0  0  0
  -23.4234  -28.8094   23.2996 O   0  0  0  0  0  0
  -28.2556  -26.1428   20.2158 O   0  0  0  0  0  0
  -26.5591  -34.8897   22.4654 O   0  0  0  0  0  0
  -23.5542  -32.1364   23.7109 O   0  0  0  0  0  0
  -29.3894  -20.6153   20.5490 C   0  0  0  0  0  0
  -28.5088  -21.9365   16.0996 C   0  0  0  0  0  0
  -29.1745  -19.0335   20.0432 C   0  0  0  0  0  0
  -29.1518  -21.9021   17.4942 C   0  0  0  0  0  0
  -30.1006  -17.6909   20.5600 C   0  0  0  0  0  0
  -28.1425  -21.6608   18.6399 C   0  0  0  0  0  0
  -28.9165  -23.3030   20.4396 C   0  0  0  0  0  0
  -28.0218  -24.6327   19.8981 C   0  0  0  0  0  0
  -29.7421  -16.1426   20.4452 N   0  0  0  0  0  0
  -28.8007  -21.7841   19.9493 N   0  0  0  0  0  0
  -30.3594  -20.8099   21.8943 S   0  0  0  0  0  0
  -31.4658  -12.7680   19.1552 H   0  0  0  0  0  0
  -30.4299  -11.6451   19.9956 H   0  0  0  0  0  0
  -29.8485  -11.7986   17.5292 H   0  0  0  0  0  0
  -29.5716  -13.5129   17.7004 H   0  0  0  0  0  0
  -27.9850  -11.2733   18.9896 H   0  0  0  0  0  0
  -27.3824  -12.4061   17.8107 H   0  0  0  0  0  0
  -27.5851  -14.2424   19.3884 H   0  0  0  0  0  0
  -28.7585  -12.3000   21.4435 H   0  0  0  0  0  0
  -28.3607  -13.9819   21.7280 H   0  0  0  0  0  0
  -25.2780   -9.5746   22.4715 H   0  0  0  0  0  0
  -24.0054   -7.4664   22.7444 H   0  0  0  0  0  0
  -21.0888   -8.8722   19.8927 H   0  0  0  0  0  0
  -22.3721  -10.9612   19.6078 H   0  0  0  0  0  0
  -21.2042   -7.6145   23.9781 H   0  0  0  0  0  0
  -21.1533   -6.0468   25.9089 H   0  0  0  0  0  0
  -22.0572   -2.7610   23.2805 H   0  0  0  0  0  0
  -22.4078  -11.9964   22.4954 H   0  0  0  0  0  0
  -21.0980  -13.1201   22.2429 H   0  0  0  0  0  0
  -24.6094  -15.8215   20.4732 H   0  0  0  0  0  0
  -26.2322  -15.6535   20.0573 H   0  0  0  0  0  0
  -26.7301  -32.5286   23.1043 H   0  0  0  0  0  0
  -25.0338  -33.9591   25.0545 H   0  0  0  0  0  0
  -22.7550  -31.2955   21.3829 H   0  0  0  0  0  0
  -23.3823  -35.9563   23.3219 H   0  0  0  0  0  0
  -24.3688  -36.8944   22.2077 H   0  0  0  0  0  0
  -23.7217  -37.6435   23.6690 H   0  0  0  0  0  0
  -26.1870  -31.4752   20.6462 H   0  0  0  0  0  0
  -26.8671  -30.7435   22.0571 H   0  0  0  0  0  0
  -28.1218  -28.7741   21.2625 H   0  0  0  0  0  0
  -25.9282  -25.8766   18.9330 H   0  0  0  0  0  0
  -23.9860  -27.3237   18.9468 H   0  0  0  0  0  0
  -23.8417  -30.5916   19.4102 H   0  0  0  0  0  0
  -22.7925  -29.2663   19.8176 H   0  0  0  0  0  0
  -25.1318  -36.1936   25.0847 H   0  0  0  0  0  0
  -21.0031  -28.3257   24.1343 H   0  0  0  0  0  0
  -20.5720  -26.2290   23.3559 H   0  0  0  0  0  0
  -21.6697  -26.7438   22.1165 H   0  0  0  0  0  0
  -19.6991  -25.6260   21.1217 H   0  0  0  0  0  0
  -19.6769  -27.3134   20.6677 H   0  0  0  0  0  0
  -17.4281  -26.6668   21.3940 H   0  0  0  0  0  0
  -18.0392  -26.0010   22.8920 H   0  0  0  0  0  0
  -19.7938  -30.7250   24.2248 H   0  0  0  0  0  0
  -17.4996  -31.6207   24.5156 H   0  0  0  0  0  0
  -15.5351  -30.2896   23.7630 H   0  0  0  0  0  0
  -15.8725  -28.0727   22.7069 H   0  0  0  0  0  0
  -24.5902  -30.7017   25.7673 H   0  0  0  0  0  0
  -24.8862  -32.2810   26.4825 H   0  0  0  0  0  0
  -25.7956  -30.8792   27.0204 H   0  0  0  0  0  0
  -26.3114  -29.6522   24.1461 H   0  0  0  0  0  0
  -27.4221  -29.7332   25.4931 H   0  0  0  0  0  0
  -27.8955  -30.4181   23.9627 H   0  0  0  0  0  0
  -27.2800  -33.3569   26.2041 H   0  0  0  0  0  0
  -28.3912  -32.6706   25.0261 H   0  0  0  0  0  0
  -28.0820  -31.8350   26.5367 H   0  0  0  0  0  0
  -28.2574  -38.0162   24.7600 H   0  0  0  0  0  0
  -28.1216  -36.2712   24.6181 H   0  0  0  0  0  0
  -27.2389  -37.1316   25.8858 H   0  0  0  0  0  0
  -20.9457  -29.8800   21.6819 H   0  0  0  0  0  0
  -26.0241  -38.2848   24.1307 H   0  0  0  0  0  0
  -29.2726  -22.0102   15.3210 H   0  0  0  0  0  0
  -27.8444  -22.7946   15.9914 H   0  0  0  0  0  0
  -27.9260  -21.0351   15.9031 H   0  0  0  0  0  0
  -29.2225  -19.0435   18.9544 H   0  0  0  0  0  0
  -28.1311  -18.8167   20.2720 H   0  0  0  0  0  0
  -29.6722  -22.8500   17.6530 H   0  0  0  0  0  0
  -29.9251  -21.1310   17.5096 H   0  0  0  0  0  0
  -30.2819  -17.8254   21.6273 H   0  0  0  0  0  0
  -31.0875  -17.8048   20.1086 H   0  0  0  0  0  0
  -27.6774  -20.6801   18.5340 H   0  0  0  0  0  0
  -27.3102  -22.3598   18.5654 H   0  0  0  0  0  0
  -28.8083  -23.2980   21.5258 H   0  0  0  0  0  0
  -29.9596  -23.5598   20.2615 H   0  0  0  0  0  0
  -26.9971  -24.4121   20.2018 H   0  0  0  0  0  0
  -28.0176  -24.5853   18.8071 H   0  0  0  0  0  0
  -28.7531  -15.9420   20.4798 H   0  0  0  0  0  0
  1 25  1  0  0  0
  1 30  2  0  0  0
  1 79  1  0  0  0
  2  3  1  0  0  0
  2 25  1  0  0  0
  2 82  1  0  0  0
  2 83  1  0  0  0
  3  4  1  0  0  0
  3 84  1  0  0  0
  3 85  1  0  0  0
  4  5  1  0  0  0
  4 86  1  0  0  0
  4 87  1  0  0  0
  5  6  1  0  0  0
  5 26  1  0  0  0
  5 88  1  0  0  0
  6 25  1  0  0  0
  6 89  1  0  0  0
  6 90  1  0  0  0
  7  8  2  0  0  0
  7 26  1  0  0  0
  7 29  1  0  0  0
  8  9  1  0  0  0
  8 22  1  0  0  0
  9 10  1  0  0  0
  9 27  2  0  0  0
 10 11  2  0  0  0
 10 15  1  0  0  0
 11 12  1  0  0  0
 11 91  1  0  0  0
 12 13  2  0  0  0
 12 92  1  0  0  0
 13 14  1  0  0  0
 13 31  1  0  0  0
 14 15  2  0  0  0
 14 93  1  0  0  0
 15 94  1  0  0  0
 16 17  2  0  0  0
 16 21  1  0  0  0
 16 31  1  0  0  0
 17 18  1  0  0  0
 17 95  1  0  0  0
 18 19  2  0  0  0
 18 96  1  0  0  0
 19 20  1  0  0  0
 19 24  1  0  0  0
 20 21  2  0  0  0
 20 97  1  0  0  0
 21 23  1  0  0  0
 22 28  1  0  0  0
 22 32  2  0  0  0
 26 27  1  0  0  0
 28 98  1  0  0  0
 28 99  1  0  0  0
 29100  1  0  0  0
 29101  1  0  0  0
 33 34  1  0  0  0
 33 66  1  0  0  0
 33 70  2  0  0  0
 34 36  1  0  0  0
 34 59  1  0  0  0
 34102  1  0  0  0
 35 44  2  0  0  0
 35 45  1  0  0  0
 35 68  1  0  0  0
 36 56  1  0  0  0
 36103  1  0  0  0
 37 39  1  0  0  0
 37 47  1  0  0  0
 37 66  1  0  0  0
 37104  1  0  0  0
 38 43  2  0  0  0
 38 46  1  0  0  0
 38 47  1  0  0  0
 39 64  1  0  0  0
 39 67  2  0  0  0
 40 52  1  0  0  0
 40 53  2  0  0  0
 40 58  1  0  0  0
 41105  1  0  0  0
 41106  1  0  0  0
 41107  1  0  0  0
 41 48  1  0  0  0
 42 43  1  0  0  0
 42 66  1  0  0  0
 42108  1  0  0  0
 42109  1  0  0  0
 43 44  1  0  0  0
 44110  1  0  0  0
 45 46  2  0  0  0
 45111  1  0  0  0
 46112  1  0  0  0
 47113  1  0  0  0
 47114  1  0  0  0
 48 56  1  0  0  0
 48 65  1  0  0  0
 48115  1  0  0  0
 49 50  1  0  0  0
 49 53  1  0  0  0
 49 64  1  0  0  0
 49116  1  0  0  0
 50 51  1  0  0  0
 50117  1  0  0  0
 50118  1  0  0  0
 51 52  1  0  0  0
 51119  1  0  0  0
 51120  1  0  0  0
 52121  1  0  0  0
 52122  1  0  0  0
 53 54  1  0  0  0
 54 55  2  0  0  0
 54123  1  0  0  0
 55 57  1  0  0  0
 55124  1  0  0  0
 56 69  2  0  0  0
 57 58  2  0  0  0
 57125  1  0  0  0
 58126  1  0  0  0
 59 60  1  0  0  0
 59 61  1  0  0  0
 59 62  1  0  0  0
 60127  1  0  0  0
 60128  1  0  0  0
 60129  1  0  0  0
 61130  1  0  0  0
 61131  1  0  0  0
 61132  1  0  0  0
 62133  1  0  0  0
 62134  1  0  0  0
 62135  1  0  0  0
 63 65  1  0  0  0
 63136  1  0  0  0
 63137  1  0  0  0
 63138  1  0  0  0
 64139  1  0  0  0
 65140  1  0  0  0
 68 78  1  0  0  0
 71 73  1  0  0  0
 71 80  1  0  0  0
 71 81  2  0  0  0
 72 74  1  0  0  0
 72141  1  0  0  0
 72142  1  0  0  0
 72143  1  0  0  0
 73 75  1  0  0  0
 73144  1  0  0  0
 73145  1  0  0  0
 74 76  1  0  0  0
 74146  1  0  0  0
 74147  1  0  0  0
 75 79  1  0  0  0
 75148  1  0  0  0
 75149  1  0  0  0
 76 80  1  0  0  0
 76150  1  0  0  0
 76151  1  0  0  0
 77 78  1  0  0  0
 77 80  1  0  0  0
 77152  1  0  0  0
 77153  1  0  0  0
 78154  1  0  0  0
 78155  1  0  0  0
 79156  1  0  0  0
M  ISO  4   1 100  68 101  78 101  79 100
M  END
> <chiral flag>
0

> <version>
0

> <s_m_source_file>
/data/baiqing/PycharmProjects/Reinvent-master-3.2/result/LINK_invent/BTK/process_docking_weight1_custom_product_contain_oxygen_bond_distance_aromatic_linkinvent_7_9_3/rearranged_h_0105.sdf

> <i_m_source_file_index>
8

> <r_mmod_Potential_Energy-OPLS-2005>
559.151245117188

> <r_mmod_Stretch_Energy-OPLS-2005>
295.905487060547

> <r_mmod_Bend_Energy-OPLS-2005>
268.356903076172

> <r_mmod_Torsional_Energy-OPLS-2005>
237.446960449219

> <r_mmod_Improper_Torsional_Energy-OPLS-2005>
4.94388055801392

> <r_mmod_Van_der_Waal_Energy-OPLS-2005>
121.036735534668

> <r_mmod_Electrostatic_Energy-OPLS-2005>
-337.980773925781

> <r_mmod_Solvation_Energy-OPLS-2005>
-229.822463989258

> <b_mmod_Minimization_Converged-OPLS-2005>
0

> <r_mmod_RMS_Derivative-OPLS-2005>
5.13779783248901

$$$$
8
                    3D
 Structure written by MMmdl.
156164  0  0  1  0            999 V2000
  -30.6916  -14.5058   20.5104 C   0  0  0  0  0  0
  -30.4207  -12.3083   19.4367 C   0  0  0  0  0  0
  -29.4973  -12.4763   18.2121 C   0  0  0  0  0  0
  -28.0182  -12.3413   18.6259 C   0  0  0  0  0  0
  -27.6556  -13.2090   19.8629 C   0  0  2  0  0  0
  -28.7000  -13.0413   20.9901 C   0  0  0  0  0  0
  -25.2592  -13.8172   20.5709 C   0  0  0  0  0  0
  -24.1841  -13.0449   20.9194 C   0  0  0  0  0  0
  -24.6400  -11.6914   20.8747 C   0  0  0  0  0  0
  -23.9071  -10.4296   21.0405 C   0  0  0  0  0  0
  -24.3618   -9.4207   21.9181 C   0  0  0  0  0  0
  -23.6290   -8.2248   22.0755 C   0  0  0  0  0  0
  -22.4273   -8.0289   21.3548 C   0  0  0  0  0  0
  -21.9910   -9.0267   20.4654 C   0  0  0  0  0  0
  -22.7246  -10.2141   20.3054 C   0  0  0  0  0  0
  -21.6855   -6.0738   22.5286 C   0  0  0  0  0  0
  -21.4019   -6.5640   23.8221 C   0  0  0  0  0  0
  -21.3653   -5.6790   24.9179 C   0  0  0  0  0  0
  -21.6033   -4.3053   24.7228 C   0  0  0  0  0  0
  -21.8817   -3.8151   23.4351 C   0  0  0  0  0  0
  -21.9197   -4.6967   22.3408 C   0  0  0  0  0  0
  -22.7863  -13.5252   21.1836 C   0  0  0  0  0  0
  -22.1662   -4.2158   21.0985 F   0  0  0  0  0  0
  -21.5620   -3.4527   25.7739 F   0  0  0  0  0  0
  -30.0219  -13.3272   20.4198 N   0  0  0  0  0  0
  -26.3009  -12.9340   20.3336 N   0  0  0  0  0  0
  -25.9322  -11.6496   20.5762 N   0  0  0  0  0  0
  -22.0486  -12.8263   22.0389 N   0  0  0  0  0  0
  -25.4337  -15.1897   20.4168 N   0  0  0  0  0  0
  -31.8683  -14.6326   20.1744 O   0  0  0  0  0  0
  -21.6639   -6.8886   21.4252 O   0  0  0  0  0  0
  -22.3562  -14.5552   20.6665 O   0  0  0  0  0  0
  -24.6154  -31.8668   23.2086 C   0  0  0  0  0  0
  -25.9043  -32.4811   23.8388 C   0  0  1  0  0  0
  -27.2303  -27.4268   20.1070 C   0  0  0  0  0  0
  -25.5909  -33.8614   24.2330 N   0  0  0  0  0  0
  -23.4028  -30.4910   21.5495 C   0  0  2  0  0  0
  -24.8485  -28.9545   20.1162 C   0  0  0  0  0  0
  -22.7420  -29.4665   22.4986 C   0  0  0  0  0  0
  -18.0289  -28.1371   22.8492 C   0  0  0  0  0  0
  -24.1485  -36.7311   23.2636 C   0  0  0  0  0  0
  -25.9323  -30.8322   21.3618 C   0  0  0  0  0  0
  -26.0099  -29.4660   20.7096 C   0  0  0  0  0  0
  -27.2067  -28.7136   20.6950 C   0  0  0  0  0  0
  -26.0543  -26.9300   19.5076 C   0  0  0  0  0  0
  -24.8675  -27.6866   19.5083 C   0  0  0  0  0  0
  -23.6106  -29.8219   20.1650 C   0  0  0  0  0  0
  -25.4109  -36.3116   24.0343 C   0  0  1  0  0  0
  -20.5873  -28.3678   23.1318 C   0  0  2  0  0  0
  -20.6788  -26.9409   22.5421 C   0  0  0  0  0  0
  -19.5765  -26.6382   21.5218 C   0  0  0  0  0  0
  -18.1949  -26.7916   22.1621 C   0  0  0  0  0  0
  -19.1532  -28.8847   23.2899 C   0  0  0  0  0  0
  -18.9439  -30.1449   23.8912 C   0  0  0  0  0  0
  -17.6438  -30.6572   24.0569 C   0  0  0  0  0  0
  -25.9035  -34.9479   23.5131 C   0  0  0  0  0  0
  -16.5340  -29.9061   23.6324 C   0  0  0  0  0  0
  -16.7274  -28.6486   23.0341 C   0  0  0  0  0  0
  -26.4477  -31.6592   25.0713 C   0  0  0  0  0  0
  -25.3734  -31.3717   26.1460 C   0  0  0  0  0  0
  -27.0304  -30.3030   24.6080 C   0  0  0  0  0  0
  -27.6060  -32.4317   25.7467 C   0  0  0  0  0  0
  -27.5588  -37.1808   24.8468 C   0  0  0  0  0  0
  -21.4151  -29.3036   22.3723 N   0  0  0  0  0  0
  -26.4301  -37.3797   23.9411 N   0  0  0  0  0  0
  -24.6682  -31.0783   22.0980 N   0  0  0  0  0  0
  -23.4190  -28.8218   23.3038 O   0  0  0  0  0  0
  -28.3833  -26.6713   20.1149 O   0  0  0  0  0  0
  -26.5591  -34.8931   22.4690 O   0  0  0  0  0  0
  -23.5344  -32.1428   23.7482 O   0  0  0  0  0  0
  -28.9223  -18.4116   20.0393 C   0  0  0  0  0  0
  -29.7911  -20.1339   22.0382 C   0  0  0  0  0  0
  -28.9102  -19.8076   19.8060 C   0  0  0  0  0  0
  -29.3377  -20.7013   20.8230 C   0  0  0  0  0  0
  -29.3858  -17.9046   21.2775 C   0  0  0  0  0  0
  -29.4519  -16.3987   21.5834 C   0  0  0  0  0  0
  -28.3083  -24.1674   19.8849 C   0  0  0  0  0  0
  -28.2953  -25.4110   20.8119 C   0  0  0  0  0  0
  -28.1718  -22.7961   20.6110 C   0  0  0  0  0  0
  -29.7950  -18.7888   22.2182 N   0  3  0  0  0  0
  -28.5229  -20.3017   18.5601 N   0  0  0  0  0  0
  -29.9211  -15.6046   20.4450 N   0  0  0  0  0  0
  -29.4105  -22.0724   20.6225 O   0  0  0  0  0  0
  -31.4666  -12.3999   19.1385 H   0  0  0  0  0  0
  -30.3190  -11.3098   19.8649 H   0  0  0  0  0  0
  -29.7431  -11.7357   17.4494 H   0  0  0  0  0  0
  -29.6656  -13.4522   17.7556 H   0  0  0  0  0  0
  -27.8354  -11.2890   18.8459 H   0  0  0  0  0  0
  -27.3696  -12.5906   17.7861 H   0  0  0  0  0  0
  -27.6836  -14.2465   19.5290 H   0  0  0  0  0  0
  -28.6796  -12.0248   21.3865 H   0  0  0  0  0  0
  -28.4768  -13.7000   21.8300 H   0  0  0  0  0  0
  -25.2759   -9.5675   22.4761 H   0  0  0  0  0  0
  -23.9997   -7.4632   22.7465 H   0  0  0  0  0  0
  -21.0844   -8.8785   19.8966 H   0  0  0  0  0  0
  -22.3708  -10.9672   19.6161 H   0  0  0  0  0  0
  -21.2014   -7.6144   23.9733 H   0  0  0  0  0  0
  -21.1472   -6.0514   25.9087 H   0  0  0  0  0  0
  -22.0605   -2.7615   23.2848 H   0  0  0  0  0  0
  -22.4082  -11.9929   22.4789 H   0  0  0  0  0  0
  -21.1102  -13.1299   22.2572 H   0  0  0  0  0  0
  -24.6683  -15.8453   20.5294 H   0  0  0  0  0  0
  -26.2856  -15.6251   20.0887 H   0  0  0  0  0  0
  -26.7114  -32.5524   23.1160 H   0  0  0  0  0  0
  -25.0095  -33.9791   25.0496 H   0  0  0  0  0  0
  -22.6915  -31.3073   21.4113 H   0  0  0  0  0  0
  -23.3746  -35.9643   23.3303 H   0  0  0  0  0  0
  -24.3582  -36.8904   22.2046 H   0  0  0  0  0  0
  -23.7226  -37.6521   23.6632 H   0  0  0  0  0  0
  -26.0444  -31.5975   20.5925 H   0  0  0  0  0  0
  -26.8208  -30.8843   21.9794 H   0  0  0  0  0  0
  -28.1037  -29.1055   21.1537 H   0  0  0  0  0  0
  -26.0505  -25.9576   19.0385 H   0  0  0  0  0  0
  -23.9773  -27.2848   19.0449 H   0  0  0  0  0  0
  -23.7178  -30.5961   19.4040 H   0  0  0  0  0  0
  -22.7335  -29.2419   19.8718 H   0  0  0  0  0  0
  -25.1279  -36.1996   25.0836 H   0  0  0  0  0  0
  -20.9964  -28.3265   24.1438 H   0  0  0  0  0  0
  -20.5683  -26.2288   23.3612 H   0  0  0  0  0  0
  -21.6663  -26.7451   22.1224 H   0  0  0  0  0  0
  -19.6923  -25.6310   21.1212 H   0  0  0  0  0  0
  -19.6703  -27.3219   20.6772 H   0  0  0  0  0  0
  -17.4210  -26.6664   21.4020 H   0  0  0  0  0  0
  -18.0362  -26.0046   22.9012 H   0  0  0  0  0  0
  -19.7908  -30.7278   24.2259 H   0  0  0  0  0  0
  -17.4982  -31.6255   24.5182 H   0  0  0  0  0  0
  -15.5333  -30.2960   23.7626 H   0  0  0  0  0  0
  -15.8693  -28.0804   22.7024 H   0  0  0  0  0  0
  -24.5904  -30.7067   25.7805 H   0  0  0  0  0  0
  -24.8934  -32.2879   26.4905 H   0  0  0  0  0  0
  -25.8081  -30.8891   27.0220 H   0  0  0  0  0  0
  -26.2844  -29.6792   24.1134 H   0  0  0  0  0  0
  -27.4077  -29.7271   25.4541 H   0  0  0  0  0  0
  -27.8681  -30.4355   23.9227 H   0  0  0  0  0  0
  -27.2680  -33.3607   26.2082 H   0  0  0  0  0  0
  -28.3842  -32.6889   25.0265 H   0  0  0  0  0  0
  -28.0752  -31.8408   26.5344 H   0  0  0  0  0  0
  -28.2621  -38.0093   24.7523 H   0  0  0  0  0  0
  -28.1070  -36.2628   24.6290 H   0  0  0  0  0  0
  -27.2312  -37.1462   25.8875 H   0  0  0  0  0  0
  -20.9288  -29.8781   21.6984 H   0  0  0  0  0  0
  -26.0191  -38.2879   24.1400 H   0  0  0  0  0  0
  -28.6014  -17.7279   19.2676 H   0  0  0  0  0  0
  -30.1712  -20.7185   22.8635 H   0  0  0  0  0  0
  -28.4518  -16.0672   21.8620 H   0  0  0  0  0  0
  -30.0959  -16.2237   22.4477 H   0  0  0  0  0  0
  -29.2074  -24.1718   19.2681 H   0  0  0  0  0  0
  -27.4798  -24.2576   19.1847 H   0  0  0  0  0  0
  -27.4122  -25.3843   21.4534 H   0  0  0  0  0  0
  -29.1483  -25.3572   21.4890 H   0  0  0  0  0  0
  -27.3905  -22.2117   20.1216 H   0  0  0  0  0  0
  -27.8332  -22.9361   21.6385 H   0  0  0  0  0  0
  -30.1386  -18.4312   23.1120 H   0  0  0  0  0  0
  -28.3823  -21.3030   18.5170 H   0  0  0  0  0  0
  -27.8180  -19.7818   18.0521 H   0  0  0  0  0  0
  -30.3241  -16.2303   19.7644 H   0  0  0  0  0  0
  1 25  1  0  0  0
  1 30  2  0  0  0
  1 82  1  0  0  0
  2  3  1  0  0  0
  2 25  1  0  0  0
  2 84  1  0  0  0
  2 85  1  0  0  0
  3  4  1  0  0  0
  3 86  1  0  0  0
  3 87  1  0  0  0
  4  5  1  0  0  0
  4 88  1  0  0  0
  4 89  1  0  0  0
  5  6  1  0  0  0
  5 26  1  0  0  0
  5 90  1  0  0  0
  6 25  1  0  0  0
  6 91  1  0  0  0
  6 92  1  0  0  0
  7  8  2  0  0  0
  7 26  1  0  0  0
  7 29  1  0  0  0
  8  9  1  0  0  0
  8 22  1  0  0  0
  9 10  1  0  0  0
  9 27  2  0  0  0
 10 11  2  0  0  0
 10 15  1  0  0  0
 11 12  1  0  0  0
 11 93  1  0  0  0
 12 13  2  0  0  0
 12 94  1  0  0  0
 13 14  1  0  0  0
 13 31  1  0  0  0
 14 15  2  0  0  0
 14 95  1  0  0  0
 15 96  1  0  0  0
 16 17  2  0  0  0
 16 21  1  0  0  0
 16 31  1  0  0  0
 17 18  1  0  0  0
 17 97  1  0  0  0
 18 19  2  0  0  0
 18 98  1  0  0  0
 19 20  1  0  0  0
 19 24  1  0  0  0
 20 21  2  0  0  0
 20 99  1  0  0  0
 21 23  1  0  0  0
 22 28  1  0  0  0
 22 32  2  0  0  0
 26 27  1  0  0  0
 28100  1  0  0  0
 28101  1  0  0  0
 29102  1  0  0  0
 29103  1  0  0  0
 33 34  1  0  0  0
 33 66  1  0  0  0
 33 70  2  0  0  0
 34 36  1  0  0  0
 34 59  1  0  0  0
 34104  1  0  0  0
 35 44  2  0  0  0
 35 45  1  0  0  0
 35 68  1  0  0  0
 36 56  1  0  0  0
 36105  1  0  0  0
 37 39  1  0  0  0
 37 47  1  0  0  0
 37 66  1  0  0  0
 37106  1  0  0  0
 38 43  2  0  0  0
 38 46  1  0  0  0
 38 47  1  0  0  0
 39 64  1  0  0  0
 39 67  2  0  0  0
 40 52  1  0  0  0
 40 53  2  0  0  0
 40 58  1  0  0  0
 41107  1  0  0  0
 41108  1  0  0  0
 41109  1  0  0  0
 41 48  1  0  0  0
 42 43  1  0  0  0
 42 66  1  0  0  0
 42110  1  0  0  0
 42111  1  0  0  0
 43 44  1  0  0  0
 44112  1  0  0  0
 45 46  2  0  0  0
 45113  1  0  0  0
 46114  1  0  0  0
 47115  1  0  0  0
 47116  1  0  0  0
 48 56  1  0  0  0
 48 65  1  0  0  0
 48117  1  0  0  0
 49 50  1  0  0  0
 49 53  1  0  0  0
 49 64  1  0  0  0
 49118  1  0  0  0
 50 51  1  0  0  0
 50119  1  0  0  0
 50120  1  0  0  0
 51 52  1  0  0  0
 51121  1  0  0  0
 51122  1  0  0  0
 52123  1  0  0  0
 52124  1  0  0  0
 53 54  1  0  0  0
 54 55  2  0  0  0
 54125  1  0  0  0
 55 57  1  0  0  0
 55126  1  0  0  0
 56 69  2  0  0  0
 57 58  2  0  0  0
 57127  1  0  0  0
 58128  1  0  0  0
 59 60  1  0  0  0
 59 61  1  0  0  0
 59 62  1  0  0  0
 60129  1  0  0  0
 60130  1  0  0  0
 60131  1  0  0  0
 61132  1  0  0  0
 61133  1  0  0  0
 61134  1  0  0  0
 62135  1  0  0  0
 62136  1  0  0  0
 62137  1  0  0  0
 63 65  1  0  0  0
 63138  1  0  0  0
 63139  1  0  0  0
 63140  1  0  0  0
 64141  1  0  0  0
 65142  1  0  0  0
 68 78  1  0  0  0
 71 73  2  0  0  0
 71 75  1  0  0  0
 71143  1  0  0  0
 72 74  2  0  0  0
 72 80  1  0  0  0
 72144  1  0  0  0
 73 74  1  0  0  0
 73 81  1  0  0  0
 74 83  1  0  0  0
 75 76  1  0  0  0
 75 80  2  0  0  0
 76 82  1  0  0  0
 76145  1  0  0  0
 76146  1  0  0  0
 77 78  1  0  0  0
 77 79  1  0  0  0
 77147  1  0  0  0
 77148  1  0  0  0
 78149  1  0  0  0
 78150  1  0  0  0
 79 83  1  0  0  0
 79151  1  0  0  0
 79152  1  0  0  0
 80153  1  0  0  0
 81154  1  0  0  0
 81155  1  0  0  0
 82156  1  0  0  0
M  CHG  1  80   1
M  ISO  4   1 100  68 101  78 101  82 100
M  END
> <chiral flag>
0

> <version>
0

> <s_m_source_file>
/data/baiqing/PycharmProjects/Reinvent-master-3.2/result/LINK_invent/BTK/process_docking_weight1_custom_product_contain_oxygen_bond_distance_aromatic_linkinvent_7_9_3/rearranged_h_0105.sdf

> <i_m_source_file_index>
9

> <r_mmod_Potential_Energy-OPLS-2005>
-165.362030029297

> <r_mmod_Stretch_Energy-OPLS-2005>
38.3508224487305

> <r_mmod_Bend_Energy-OPLS-2005>
106.583099365234

> <r_mmod_Torsional_Energy-OPLS-2005>
322.651641845703

> <r_mmod_Improper_Torsional_Energy-OPLS-2005>
26.4005298614502

> <r_mmod_Van_der_Waal_Energy-OPLS-2005>
143.202438354492

> <r_mmod_Electrostatic_Energy-OPLS-2005>
-361.499084472656

> <r_mmod_Solvation_Energy-OPLS-2005>
-460.877685546875

> <b_mmod_Minimization_Converged-OPLS-2005>
0

> <r_mmod_RMS_Derivative-OPLS-2005>
1.90767216682434

$$$$
9
                    3D
 Structure written by MMmdl.
162171  0  0  1  0            999 V2000
  -30.5510  -14.8118   20.4143 C   0  0  0  0  0  0
  -30.4246  -12.4832   19.4953 C   0  0  0  0  0  0
  -29.5091  -12.5134   18.2480 C   0  0  0  0  0  0
  -28.0360  -12.3275   18.6557 C   0  0  0  0  0  0
  -27.6370  -13.2319   19.8515 C   0  0  2  0  0  0
  -28.6756  -13.1852   20.9944 C   0  0  0  0  0  0
  -25.2524  -13.8214   20.5741 C   0  0  0  0  0  0
  -24.1786  -13.0451   20.9185 C   0  0  0  0  0  0
  -24.6358  -11.6936   20.8708 C   0  0  0  0  0  0
  -23.9042  -10.4307   21.0362 C   0  0  0  0  0  0
  -24.3598   -9.4233   21.9148 C   0  0  0  0  0  0
  -23.6267   -8.2275   22.0732 C   0  0  0  0  0  0
  -22.4242   -8.0303   21.3540 C   0  0  0  0  0  0
  -21.9885   -9.0266   20.4626 C   0  0  0  0  0  0
  -22.7208  -10.2147   20.3024 C   0  0  0  0  0  0
  -21.6856   -6.0731   22.5270 C   0  0  0  0  0  0
  -21.4035   -6.5644   23.8206 C   0  0  0  0  0  0
  -21.3667   -5.6786   24.9164 C   0  0  0  0  0  0
  -21.6029   -4.3046   24.7216 C   0  0  0  0  0  0
  -21.8829   -3.8151   23.4337 C   0  0  0  0  0  0
  -21.9197   -4.6962   22.3383 C   0  0  0  0  0  0
  -22.7835  -13.5256   21.1856 C   0  0  0  0  0  0
  -22.1639   -4.2158   21.0952 F   0  0  0  0  0  0
  -21.5627   -3.4523   25.7724 F   0  0  0  0  0  0
  -29.9718  -13.5569   20.4164 N   0  0  0  0  0  0
  -26.2904  -12.9391   20.3286 N   0  0  0  0  0  0
  -25.9284  -11.6542   20.5750 N   0  0  0  0  0  0
  -22.0501  -12.8219   22.0417 N   0  0  0  0  0  0
  -25.4326  -15.1925   20.4313 N   0  0  0  0  0  0
  -31.7244  -14.9225   20.0431 O   0  0  0  0  0  0
  -21.6639   -6.8877   21.4233 O   0  0  0  0  0  0
  -22.3517  -14.5552   20.6696 O   0  0  0  0  0  0
  -24.6336  -31.8528   23.1946 C   0  0  0  0  0  0
  -25.9141  -32.4735   23.8330 C   0  0  1  0  0  0
  -27.2224  -27.2251   20.1294 C   0  0  0  0  0  0
  -25.5926  -33.8536   24.2258 N   0  0  0  0  0  0
  -23.4396  -30.4767   21.5294 C   0  0  2  0  0  0
  -24.8929  -28.9181   20.1058 C   0  0  0  0  0  0
  -22.7527  -29.4621   22.4789 C   0  0  0  0  0  0
  -18.0301  -28.1399   22.8499 C   0  0  0  0  0  0
  -24.1504  -36.7272   23.2646 C   0  0  0  0  0  0
  -25.9917  -30.7553   21.3886 C   0  0  0  0  0  0
  -26.0636  -29.3775   20.7197 C   0  0  0  0  0  0
  -27.2289  -28.5387   20.7267 C   0  0  0  0  0  0
  -26.0289  -26.8443   19.4833 C   0  0  0  0  0  0
  -24.8799  -27.6605   19.4825 C   0  0  0  0  0  0
  -23.6708  -29.8152   20.1459 C   0  0  0  0  0  0
  -25.4123  -36.3056   24.0340 C   0  0  1  0  0  0
  -20.5920  -28.3732   23.1214 C   0  0  2  0  0  0
  -20.6780  -26.9426   22.5410 C   0  0  0  0  0  0
  -19.5751  -26.6384   21.5228 C   0  0  0  0  0  0
  -18.1932  -26.7943   22.1631 C   0  0  0  0  0  0
  -19.1561  -28.8878   23.2871 C   0  0  0  0  0  0
  -18.9476  -30.1461   23.8919 C   0  0  0  0  0  0
  -17.6475  -30.6591   24.0576 C   0  0  0  0  0  0
  -25.9062  -34.9424   23.5107 C   0  0  0  0  0  0
  -16.5365  -29.9111   23.6318 C   0  0  0  0  0  0
  -16.7295  -28.6530   23.0354 C   0  0  0  0  0  0
  -26.4508  -31.6554   25.0719 C   0  0  0  0  0  0
  -25.3734  -31.3721   26.1448 C   0  0  0  0  0  0
  -27.0377  -30.2955   24.6263 C   0  0  0  0  0  0
  -27.6078  -32.4307   25.7458 C   0  0  0  0  0  0
  -27.5583  -37.1777   24.8458 C   0  0  0  0  0  0
  -21.4220  -29.3092   22.3583 N   0  0  0  0  0  0
  -26.4296  -37.3749   23.9415 N   0  0  0  0  0  0
  -24.7065  -31.0470   22.0931 N   0  0  0  0  0  0
  -23.4209  -28.8144   23.2891 O   0  0  0  0  0  0
  -28.2782  -26.2836   20.2603 O   0  0  0  0  0  0
  -26.5615  -34.8900   22.4665 O   0  0  0  0  0  0
  -23.5460  -32.1380   23.7191 O   0  0  0  0  0  0
  -29.0173  -19.5043   18.2628 C   0  0  0  0  0  0
  -29.3857  -18.5910   20.4771 C   0  0  0  0  0  0
  -29.5178  -17.1119   18.5420 C   0  0  0  0  0  0
  -29.1234  -19.7804   19.6461 C   0  0  0  0  0  0
  -29.2091  -18.2153   17.7218 C   0  0  0  0  0  0
  -29.6084  -17.2320   19.9457 C   0  0  0  0  0  0
  -28.5150  -23.7030   20.0328 C   0  0  0  0  0  0
  -28.3256  -25.0187   19.5806 C   0  0  0  0  0  0
  -28.5504  -23.1902   21.4627 C   0  0  0  0  0  0
  -28.7648  -21.6299   21.4389 C   0  0  0  0  0  0
  -28.7661  -22.4038   19.1736 C   0  0  1  0  0  0
  -29.6041  -23.1491   16.8339 C   0  0  0  0  0  0
  -29.9759  -22.6212   18.2276 C   0  0  0  0  0  0
  -28.9605  -21.1906   20.0579 N   0  0  0  0  0  0
  -29.0740  -18.0300   16.3454 N   0  0  0  0  0  0
  -29.7765  -15.9442   20.7056 N   0  0  0  0  0  0
  -31.4657  -12.6082   19.1972 H   0  0  0  0  0  0
  -30.3672  -11.5111   19.9864 H   0  0  0  0  0  0
  -29.7993  -11.7338   17.5420 H   0  0  0  0  0  0
  -29.6284  -13.4612   17.7213 H   0  0  0  0  0  0
  -27.8956  -11.2790   18.9216 H   0  0  0  0  0  0
  -27.3790  -12.5098   17.8043 H   0  0  0  0  0  0
  -27.6288  -14.2489   19.4583 H   0  0  0  0  0  0
  -28.7276  -12.1902   21.4405 H   0  0  0  0  0  0
  -28.3969  -13.8652   21.8026 H   0  0  0  0  0  0
  -25.2741   -9.5713   22.4719 H   0  0  0  0  0  0
  -23.9983   -7.4675   22.7452 H   0  0  0  0  0  0
  -21.0808   -8.8755   19.8945 H   0  0  0  0  0  0
  -22.3634  -10.9661   19.6132 H   0  0  0  0  0  0
  -21.2046   -7.6157   23.9716 H   0  0  0  0  0  0
  -21.1461   -6.0510   25.9058 H   0  0  0  0  0  0
  -22.0599   -2.7618   23.2824 H   0  0  0  0  0  0
  -22.4118  -11.9830   22.4707 H   0  0  0  0  0  0
  -21.1153  -13.1283   22.2682 H   0  0  0  0  0  0
  -24.6937  -15.8660   20.5979 H   0  0  0  0  0  0
  -26.3081  -15.6246   20.1635 H   0  0  0  0  0  0
  -26.7214  -32.5409   23.1082 H   0  0  0  0  0  0
  -25.0103  -33.9696   25.0429 H   0  0  0  0  0  0
  -22.7428  -31.3035   21.3704 H   0  0  0  0  0  0
  -23.3794  -35.9570   23.3253 H   0  0  0  0  0  0
  -24.3616  -36.8938   22.2075 H   0  0  0  0  0  0
  -23.7234  -37.6443   23.6708 H   0  0  0  0  0  0
  -26.1451  -31.5260   20.6314 H   0  0  0  0  0  0
  -26.8621  -30.7975   22.0305 H   0  0  0  0  0  0
  -28.1201  -28.8722   21.2395 H   0  0  0  0  0  0
  -25.9542  -25.8744   19.0162 H   0  0  0  0  0  0
  -23.9768  -27.2995   19.0105 H   0  0  0  0  0  0
  -23.8254  -30.5983   19.4030 H   0  0  0  0  0  0
  -22.7915  -29.2608   19.8178 H   0  0  0  0  0  0
  -25.1308  -36.1894   25.0836 H   0  0  0  0  0  0
  -21.0043  -28.3345   24.1320 H   0  0  0  0  0  0
  -20.5658  -26.2361   23.3650 H   0  0  0  0  0  0
  -21.6635  -26.7411   22.1182 H   0  0  0  0  0  0
  -19.6902  -25.6291   21.1256 H   0  0  0  0  0  0
  -19.6674  -27.3202   20.6765 H   0  0  0  0  0  0
  -17.4188  -26.6712   21.4042 H   0  0  0  0  0  0
  -18.0298  -26.0085   22.9029 H   0  0  0  0  0  0
  -19.7954  -30.7266   24.2294 H   0  0  0  0  0  0
  -17.5034  -31.6270   24.5180 H   0  0  0  0  0  0
  -15.5374  -30.3024   23.7615 H   0  0  0  0  0  0
  -15.8696  -28.0867   22.7038 H   0  0  0  0  0  0
  -24.5884  -30.7109   25.7759 H   0  0  0  0  0  0
  -24.8997  -32.2911   26.4908 H   0  0  0  0  0  0
  -25.8057  -30.8847   27.0201 H   0  0  0  0  0  0
  -26.2991  -29.6641   24.1305 H   0  0  0  0  0  0
  -27.4055  -29.7268   25.4817 H   0  0  0  0  0  0
  -27.8860  -30.4212   23.9527 H   0  0  0  0  0  0
  -27.2701  -33.3633   26.1991 H   0  0  0  0  0  0
  -28.3860  -32.6811   25.0235 H   0  0  0  0  0  0
  -28.0754  -31.8456   26.5387 H   0  0  0  0  0  0
  -28.2545  -38.0122   24.7531 H   0  0  0  0  0  0
  -28.1125  -36.2650   24.6234 H   0  0  0  0  0  0
  -27.2300  -37.1343   25.8854 H   0  0  0  0  0  0
  -20.9389  -29.8893   21.6865 H   0  0  0  0  0  0
  -26.0166  -38.2807   24.1453 H   0  0  0  0  0  0
  -28.7835  -20.2999   17.5711 H   0  0  0  0  0  0
  -29.4265  -18.7264   21.5481 H   0  0  0  0  0  0
  -29.6388  -16.1408   18.0834 H   0  0  0  0  0  0
  -28.3110  -25.1992   18.5175 H   0  0  0  0  0  0
  -27.6072  -23.4383   21.9513 H   0  0  0  0  0  0
  -29.3482  -23.6904   22.0117 H   0  0  0  0  0  0
  -27.9026  -21.1136   21.8649 H   0  0  0  0  0  0
  -29.6324  -21.3520   22.0376 H   0  0  0  0  0  0
  -27.8661  -22.2352   18.5810 H   0  0  0  0  0  0
  -30.5038  -23.3054   16.2383 H   0  0  0  0  0  0
  -29.0707  -24.0956   16.8675 H   0  0  0  0  0  0
  -28.9783  -22.4376   16.2941 H   0  0  0  0  0  0
  -30.5368  -21.6999   18.0820 H   0  0  0  0  0  0
  -30.6911  -23.2972   18.6986 H   0  0  0  0  0  0
  -28.5039  -18.7051   15.8455 H   0  0  0  0  0  0
  -28.9127  -17.0861   16.0099 H   0  0  0  0  0  0
  -28.9951  -15.7385   21.3108 H   0  0  0  0  0  0
  1 25  1  0  0  0
  1 30  2  0  0  0
  1 86  1  0  0  0
  2  3  1  0  0  0
  2 25  1  0  0  0
  2 87  1  0  0  0
  2 88  1  0  0  0
  3  4  1  0  0  0
  3 89  1  0  0  0
  3 90  1  0  0  0
  4  5  1  0  0  0
  4 91  1  0  0  0
  4 92  1  0  0  0
  5  6  1  0  0  0
  5 26  1  0  0  0
  5 93  1  0  0  0
  6 25  1  0  0  0
  6 94  1  0  0  0
  6 95  1  0  0  0
  7  8  2  0  0  0
  7 26  1  0  0  0
  7 29  1  0  0  0
  8  9  1  0  0  0
  8 22  1  0  0  0
  9 10  1  0  0  0
  9 27  2  0  0  0
 10 11  2  0  0  0
 10 15  1  0  0  0
 11 12  1  0  0  0
 11 96  1  0  0  0
 12 13  2  0  0  0
 12 97  1  0  0  0
 13 14  1  0  0  0
 13 31  1  0  0  0
 14 15  2  0  0  0
 14 98  1  0  0  0
 15 99  1  0  0  0
 16 17  2  0  0  0
 16 21  1  0  0  0
 16 31  1  0  0  0
 17 18  1  0  0  0
 17100  1  0  0  0
 18 19  2  0  0  0
 18101  1  0  0  0
 19 20  1  0  0  0
 19 24  1  0  0  0
 20 21  2  0  0  0
 20102  1  0  0  0
 21 23  1  0  0  0
 22 28  1  0  0  0
 22 32  2  0  0  0
 26 27  1  0  0  0
 28103  1  0  0  0
 28104  1  0  0  0
 29105  1  0  0  0
 29106  1  0  0  0
 33 34  1  0  0  0
 33 66  1  0  0  0
 33 70  2  0  0  0
 34 36  1  0  0  0
 34 59  1  0  0  0
 34107  1  0  0  0
 35 44  2  0  0  0
 35 45  1  0  0  0
 35 68  1  0  0  0
 36 56  1  0  0  0
 36108  1  0  0  0
 37 39  1  0  0  0
 37 47  1  0  0  0
 37 66  1  0  0  0
 37109  1  0  0  0
 38 43  2  0  0  0
 38 46  1  0  0  0
 38 47  1  0  0  0
 39 64  1  0  0  0
 39 67  2  0  0  0
 40 52  1  0  0  0
 40 53  2  0  0  0
 40 58  1  0  0  0
 41110  1  0  0  0
 41111  1  0  0  0
 41112  1  0  0  0
 41 48  1  0  0  0
 42 43  1  0  0  0
 42 66  1  0  0  0
 42113  1  0  0  0
 42114  1  0  0  0
 43 44  1  0  0  0
 44115  1  0  0  0
 45 46  2  0  0  0
 45116  1  0  0  0
 46117  1  0  0  0
 47118  1  0  0  0
 47119  1  0  0  0
 48 56  1  0  0  0
 48 65  1  0  0  0
 48120  1  0  0  0
 49 50  1  0  0  0
 49 53  1  0  0  0
 49 64  1  0  0  0
 49121  1  0  0  0
 50 51  1  0  0  0
 50122  1  0  0  0
 50123  1  0  0  0
 51 52  1  0  0  0
 51124  1  0  0  0
 51125  1  0  0  0
 52126  1  0  0  0
 52127  1  0  0  0
 53 54  1  0  0  0
 54 55  2  0  0  0
 54128  1  0  0  0
 55 57  1  0  0  0
 55129  1  0  0  0
 56 69  2  0  0  0
 57 58  2  0  0  0
 57130  1  0  0  0
 58131  1  0  0  0
 59 60  1  0  0  0
 59 61  1  0  0  0
 59 62  1  0  0  0
 60132  1  0  0  0
 60133  1  0  0  0
 60134  1  0  0  0
 61135  1  0  0  0
 61136  1  0  0  0
 61137  1  0  0  0
 62138  1  0  0  0
 62139  1  0  0  0
 62140  1  0  0  0
 63 65  1  0  0  0
 63141  1  0  0  0
 63142  1  0  0  0
 63143  1  0  0  0
 64144  1  0  0  0
 65145  1  0  0  0
 68 78  1  0  0  0
 71 74  2  0  0  0
 71 75  1  0  0  0
 71146  1  0  0  0
 72 74  1  0  0  0
 72 76  2  0  0  0
 72147  1  0  0  0
 73 75  2  0  0  0
 73 76  1  0  0  0
 73148  1  0  0  0
 74 84  1  0  0  0
 75 85  1  0  0  0
 76 86  1  0  0  0
 77 78  2  0  0  0
 77 79  1  0  0  0
 77 81  1  0  0  0
 78149  1  0  0  0
 79 80  1  0  0  0
 79150  1  0  0  0
 79151  1  0  0  0
 80 84  1  0  0  0
 80152  1  0  0  0
 80153  1  0  0  0
 81 83  1  0  0  0
 81 84  1  0  0  0
 81154  1  0  0  0
 82 83  1  0  0  0
 82155  1  0  0  0
 82156  1  0  0  0
 82157  1  0  0  0
 83158  1  0  0  0
 83159  1  0  0  0
 85160  1  0  0  0
 85161  1  0  0  0
 86162  1  0  0  0
M  ISO  4   1 100  68 101  78 101  86 100
M  END
> <chiral flag>
0

> <version>
0

> <s_m_source_file>
/data/baiqing/PycharmProjects/Reinvent-master-3.2/result/LINK_invent/BTK/process_docking_weight1_custom_product_contain_oxygen_bond_distance_aromatic_linkinvent_7_9_3/rearranged_h_0105.sdf

> <i_m_source_file_index>
10

> <r_mmod_Potential_Energy-OPLS-2005>
387.562896728516

> <r_mmod_Stretch_Energy-OPLS-2005>
146.818069458008

> <r_mmod_Bend_Energy-OPLS-2005>
219.635284423828

> <r_mmod_Torsional_Energy-OPLS-2005>
291.889892578125

> <r_mmod_Improper_Torsional_Energy-OPLS-2005>
9.36564922332764

> <r_mmod_Van_der_Waal_Energy-OPLS-2005>
131.203430175781

> <r_mmod_Electrostatic_Energy-OPLS-2005>
-297.319427490234

> <r_mmod_Solvation_Energy-OPLS-2005>
-234.705429077148

> <b_mmod_Minimization_Converged-OPLS-2005>
0

> <r_mmod_RMS_Derivative-OPLS-2005>
4.1290168762207

$$$$
10
                    3D
 Structure written by MMmdl.
167176  0  0  1  0            999 V2000
  -30.5623  -14.8044   20.4423 C   0  0  0  0  0  0
  -30.4476  -12.4965   19.4530 C   0  0  0  0  0  0
  -29.5100  -12.5022   18.2246 C   0  0  0  0  0  0
  -28.0388  -12.3128   18.6502 C   0  0  0  0  0  0
  -27.6359  -13.2254   19.8388 C   0  0  2  0  0  0
  -28.6885  -13.1836   20.9653 C   0  0  0  0  0  0
  -25.2513  -13.8177   20.5717 C   0  0  0  0  0  0
  -24.1800  -13.0428   20.9222 C   0  0  0  0  0  0
  -24.6387  -11.6904   20.8756 C   0  0  0  0  0  0
  -23.9065  -10.4284   21.0413 C   0  0  0  0  0  0
  -24.3617   -9.4199   21.9187 C   0  0  0  0  0  0
  -23.6290   -8.2236   22.0756 C   0  0  0  0  0  0
  -22.4272   -8.0278   21.3545 C   0  0  0  0  0  0
  -21.9908   -9.0252   20.4648 C   0  0  0  0  0  0
  -22.7240  -10.2129   20.3059 C   0  0  0  0  0  0
  -21.6850   -6.0733   22.5278 C   0  0  0  0  0  0
  -21.4012   -6.5639   23.8212 C   0  0  0  0  0  0
  -21.3659   -5.6792   24.9175 C   0  0  0  0  0  0
  -21.6044   -4.3055   24.7226 C   0  0  0  0  0  0
  -21.8820   -3.8146   23.4347 C   0  0  0  0  0  0
  -21.9192   -4.6962   22.3402 C   0  0  0  0  0  0
  -22.7824  -13.5215   21.1874 C   0  0  0  0  0  0
  -22.1660   -4.2149   21.0979 F   0  0  0  0  0  0
  -21.5629   -3.4539   25.7739 F   0  0  0  0  0  0
  -29.9725  -13.5612   20.3620 N   0  0  0  0  0  0
  -26.2917  -12.9364   20.3256 N   0  0  0  0  0  0
  -25.9311  -11.6517   20.5744 N   0  0  0  0  0  0
  -22.0463  -12.8208   22.0425 N   0  0  0  0  0  0
  -25.4192  -15.1913   20.4177 N   0  0  0  0  0  0
  -31.7817  -14.9155   20.2838 O   0  0  0  0  0  0
  -21.6636   -6.8875   21.4240 O   0  0  0  0  0  0
  -22.3518  -14.5525   20.6722 O   0  0  0  0  0  0
  -24.6342  -31.8519   23.1942 C   0  0  0  0  0  0
  -25.9150  -32.4734   23.8310 C   0  0  1  0  0  0
  -27.2242  -27.2220   20.1463 C   0  0  0  0  0  0
  -25.5937  -33.8537   24.2237 N   0  0  0  0  0  0
  -23.4328  -30.4718   21.5385 C   0  0  2  0  0  0
  -24.8788  -28.9003   20.1263 C   0  0  0  0  0  0
  -22.7517  -29.4588   22.4904 C   0  0  0  0  0  0
  -18.0298  -28.1381   22.8479 C   0  0  0  0  0  0
  -24.1487  -36.7273   23.2641 C   0  0  0  0  0  0
  -25.9811  -30.7538   21.3772 C   0  0  0  0  0  0
  -26.0541  -29.3685   20.7278 C   0  0  0  0  0  0
  -27.2311  -28.5470   20.7128 C   0  0  0  0  0  0
  -26.0167  -26.8162   19.5444 C   0  0  0  0  0  0
  -24.8665  -27.6320   19.5245 C   0  0  0  0  0  0
  -23.6550  -29.7973   20.1594 C   0  0  0  0  0  0
  -25.4115  -36.3051   24.0319 C   0  0  1  0  0  0
  -20.5904  -28.3696   23.1260 C   0  0  2  0  0  0
  -20.6784  -26.9410   22.5401 C   0  0  0  0  0  0
  -19.5760  -26.6377   21.5203 C   0  0  0  0  0  0
  -18.1940  -26.7922   22.1616 C   0  0  0  0  0  0
  -19.1552  -28.8856   23.2860 C   0  0  0  0  0  0
  -18.9471  -30.1454   23.8881 C   0  0  0  0  0  0
  -17.6469  -30.6580   24.0558 C   0  0  0  0  0  0
  -25.9062  -34.9427   23.5084 C   0  0  0  0  0  0
  -16.5360  -29.9078   23.6328 C   0  0  0  0  0  0
  -16.7284  -28.6496   23.0352 C   0  0  0  0  0  0
  -26.4511  -31.6572   25.0716 C   0  0  0  0  0  0
  -25.3718  -31.3721   26.1424 C   0  0  0  0  0  0
  -27.0377  -30.2985   24.6230 C   0  0  0  0  0  0
  -27.6059  -32.4326   25.7490 C   0  0  0  0  0  0
  -27.5575  -37.1790   24.8466 C   0  0  0  0  0  0
  -21.4223  -29.3039   22.3645 N   0  0  0  0  0  0
  -26.4286  -37.3756   23.9408 N   0  0  0  0  0  0
  -24.7021  -31.0455   22.0929 N   0  0  0  0  0  0
  -23.4201  -28.8142   23.3022 O   0  0  0  0  0  0
  -28.3642  -26.3837   20.0508 O   0  0  0  0  0  0
  -26.5637  -34.8912   22.4656 O   0  0  0  0  0  0
  -23.5484  -32.1356   23.7216 O   0  0  0  0  0  0
  -28.6017  -19.5693   22.3049 C   0  0  0  0  0  0
  -29.6767  -18.5714   20.3651 C   0  0  0  0  0  0
  -28.9324  -17.1402   22.1967 C   0  0  0  0  0  0
  -29.2239  -19.7871   21.0565 C   0  0  0  0  0  0
  -28.4665  -18.2842   22.8787 C   0  0  0  0  0  0
  -29.5418  -17.2196   20.9286 C   0  0  0  0  0  0
  -28.8777  -21.8900   18.4330 C   0  0  0  0  0  0
  -28.0612  -22.7777   17.5238 C   0  0  0  0  0  0
  -27.4751  -23.8377   18.4464 C   0  0  0  0  0  0
  -27.9690  -23.5540   19.8806 C   0  0  2  0  0  0
  -28.4780  -18.9809   25.3335 C   0  0  0  0  0  0
  -29.5186  -21.3477   20.7355 C   0  0  0  0  0  0
  -28.4991  -24.9521   20.5560 C   0  0  0  0  0  0
  -27.8088  -18.1175   24.2471 C   0  0  1  0  0  0
  -28.8063  -22.2497   19.7251 N   0  0  0  0  0  0
  -29.7206  -15.9021   20.2544 N   0  0  0  0  0  0
  -26.3631  -18.3673   24.1503 N   0  3  0  0  0  0
  -29.5193  -20.9374   17.9808 O   0  0  0  0  0  0
  -31.4793  -12.6629   19.1388 H   0  0  0  0  0  0
  -30.4328  -11.5274   19.9541 H   0  0  0  0  0  0
  -29.8004  -11.7176   17.5246 H   0  0  0  0  0  0
  -29.6160  -13.4457   17.6869 H   0  0  0  0  0  0
  -27.9130  -11.2671   18.9330 H   0  0  0  0  0  0
  -27.3742  -12.4790   17.8015 H   0  0  0  0  0  0
  -27.6145  -14.2386   19.4392 H   0  0  0  0  0  0
  -28.7469  -12.1900   21.4123 H   0  0  0  0  0  0
  -28.4207  -13.8705   21.7697 H   0  0  0  0  0  0
  -25.2760   -9.5674   22.4763 H   0  0  0  0  0  0
  -23.9999   -7.4626   22.7476 H   0  0  0  0  0  0
  -21.0839   -8.8773   19.8954 H   0  0  0  0  0  0
  -22.3698  -10.9671   19.6170 H   0  0  0  0  0  0
  -21.2004   -7.6147   23.9716 H   0  0  0  0  0  0
  -21.1479   -6.0521   25.9077 H   0  0  0  0  0  0
  -22.0600   -2.7608   23.2848 H   0  0  0  0  0  0
  -22.4071  -11.9863   22.4807 H   0  0  0  0  0  0
  -21.1081  -13.1235   22.2628 H   0  0  0  0  0  0
  -24.6379  -15.8319   20.5031 H   0  0  0  0  0  0
  -26.2557  -15.6372   20.0659 H   0  0  0  0  0  0
  -26.7211  -32.5378   23.1046 H   0  0  0  0  0  0
  -25.0078  -33.9664   25.0377 H   0  0  0  0  0  0
  -22.7297  -31.2930   21.3853 H   0  0  0  0  0  0
  -23.3748  -35.9605   23.3300 H   0  0  0  0  0  0
  -24.3579  -36.8911   22.2058 H   0  0  0  0  0  0
  -23.7247  -37.6470   23.6682 H   0  0  0  0  0  0
  -26.1213  -31.5085   20.6020 H   0  0  0  0  0  0
  -26.8580  -30.8092   22.0111 H   0  0  0  0  0  0
  -28.1446  -28.9166   21.1574 H   0  0  0  0  0  0
  -25.9486  -25.8530   19.0705 H   0  0  0  0  0  0
  -23.9664  -27.2660   19.0498 H   0  0  0  0  0  0
  -23.7900  -30.5689   19.4003 H   0  0  0  0  0  0
  -22.7709  -29.2354   19.8515 H   0  0  0  0  0  0
  -25.1298  -36.1891   25.0811 H   0  0  0  0  0  0
  -20.9990  -28.3277   24.1383 H   0  0  0  0  0  0
  -20.5678  -26.2302   23.3609 H   0  0  0  0  0  0
  -21.6652  -26.7423   22.1198 H   0  0  0  0  0  0
  -19.6915  -25.6283   21.1241 H   0  0  0  0  0  0
  -19.6702  -27.3176   20.6725 H   0  0  0  0  0  0
  -17.4207  -26.6664   21.4020 H   0  0  0  0  0  0
  -18.0343  -26.0058   22.9008 H   0  0  0  0  0  0
  -19.7946  -30.7270   24.2247 H   0  0  0  0  0  0
  -17.5026  -31.6262   24.5158 H   0  0  0  0  0  0
  -15.5362  -30.2979   23.7656 H   0  0  0  0  0  0
  -15.8683  -28.0815   22.7076 H   0  0  0  0  0  0
  -24.5907  -30.7059   25.7749 H   0  0  0  0  0  0
  -24.8884  -32.2882   26.4824 H   0  0  0  0  0  0
  -25.8015  -30.8919   27.0224 H   0  0  0  0  0  0
  -26.2978  -29.6708   24.1249 H   0  0  0  0  0  0
  -27.4047  -29.7279   25.4772 H   0  0  0  0  0  0
  -27.8855  -30.4256   23.9493 H   0  0  0  0  0  0
  -27.2674  -33.3649   26.2024 H   0  0  0  0  0  0
  -28.3888  -32.6850   25.0325 H   0  0  0  0  0  0
  -28.0705  -31.8479   26.5441 H   0  0  0  0  0  0
  -28.2577  -38.0100   24.7519 H   0  0  0  0  0  0
  -28.1090  -36.2630   24.6286 H   0  0  0  0  0  0
  -27.2299  -37.1430   25.8871 H   0  0  0  0  0  0
  -20.9412  -29.8764   21.6849 H   0  0  0  0  0  0
  -26.0159  -38.2825   24.1422 H   0  0  0  0  0  0
  -28.2582  -20.4266   22.8672 H   0  0  0  0  0  0
  -30.1414  -18.6787   19.3950 H   0  0  0  0  0  0
  -28.7784  -16.1686   22.6456 H   0  0  0  0  0  0
  -27.2823  -22.1942   17.0322 H   0  0  0  0  0  0
  -28.7001  -23.2179   16.7580 H   0  0  0  0  0  0
  -26.3863  -23.8048   18.3992 H   0  0  0  0  0  0
  -27.7872  -24.8223   18.0968 H   0  0  0  0  0  0
  -27.0945  -23.2509   20.4582 H   0  0  0  0  0  0
  -29.5423  -18.7539   25.4029 H   0  0  0  0  0  0
  -28.0427  -18.7876   26.3141 H   0  0  0  0  0  0
  -28.3815  -20.0480   25.1360 H   0  0  0  0  0  0
  -30.5783  -21.3883   20.4778 H   0  0  0  0  0  0
  -29.4725  -21.8917   21.6792 H   0  0  0  0  0  0
  -28.1443  -24.9647   21.5875 H   0  0  0  0  0  0
  -29.5767  -24.8248   20.6587 H   0  0  0  0  0  0
  -27.9220  -17.0763   24.5547 H   0  0  0  0  0  0
  -28.8345  -15.5545   19.9242 H   0  0  0  0  0  0
  -26.1756  -19.3188   23.8938 H   0  0  0  0  0  0
  -25.9135  -18.1725   25.0267 H   0  0  0  0  0  0
  -25.9627  -17.7657   23.4533 H   0  0  0  0  0  0
  1 25  1  0  0  0
  1 30  2  0  0  0
  1 86  1  0  0  0
  2  3  1  0  0  0
  2 25  1  0  0  0
  2 89  1  0  0  0
  2 90  1  0  0  0
  3  4  1  0  0  0
  3 91  1  0  0  0
  3 92  1  0  0  0
  4  5  1  0  0  0
  4 93  1  0  0  0
  4 94  1  0  0  0
  5  6  1  0  0  0
  5 26  1  0  0  0
  5 95  1  0  0  0
  6 25  1  0  0  0
  6 96  1  0  0  0
  6 97  1  0  0  0
  7  8  2  0  0  0
  7 26  1  0  0  0
  7 29  1  0  0  0
  8  9  1  0  0  0
  8 22  1  0  0  0
  9 10  1  0  0  0
  9 27  2  0  0  0
 10 11  2  0  0  0
 10 15  1  0  0  0
 11 12  1  0  0  0
 11 98  1  0  0  0
 12 13  2  0  0  0
 12 99  1  0  0  0
 13 14  1  0  0  0
 13 31  1  0  0  0
 14 15  2  0  0  0
 14100  1  0  0  0
 15101  1  0  0  0
 16 17  2  0  0  0
 16 21  1  0  0  0
 16 31  1  0  0  0
 17 18  1  0  0  0
 17102  1  0  0  0
 18 19  2  0  0  0
 18103  1  0  0  0
 19 20  1  0  0  0
 19 24  1  0  0  0
 20 21  2  0  0  0
 20104  1  0  0  0
 21 23  1  0  0  0
 22 28  1  0  0  0
 22 32  2  0  0  0
 26 27  1  0  0  0
 28105  1  0  0  0
 28106  1  0  0  0
 29107  1  0  0  0
 29108  1  0  0  0
 33 34  1  0  0  0
 33 66  1  0  0  0
 33 70  2  0  0  0
 34 36  1  0  0  0
 34 59  1  0  0  0
 34109  1  0  0  0
 35 44  2  0  0  0
 35 45  1  0  0  0
 35 68  1  0  0  0
 36 56  1  0  0  0
 36110  1  0  0  0
 37 39  1  0  0  0
 37 47  1  0  0  0
 37 66  1  0  0  0
 37111  1  0  0  0
 38 43  2  0  0  0
 38 46  1  0  0  0
 38 47  1  0  0  0
 39 64  1  0  0  0
 39 67  2  0  0  0
 40 52  1  0  0  0
 40 53  2  0  0  0
 40 58  1  0  0  0
 41112  1  0  0  0
 41113  1  0  0  0
 41114  1  0  0  0
 41 48  1  0  0  0
 42 43  1  0  0  0
 42 66  1  0  0  0
 42115  1  0  0  0
 42116  1  0  0  0
 43 44  1  0  0  0
 44117  1  0  0  0
 45 46  2  0  0  0
 45118  1  0  0  0
 46119  1  0  0  0
 47120  1  0  0  0
 47121  1  0  0  0
 48 56  1  0  0  0
 48 65  1  0  0  0
 48122  1  0  0  0
 49 50  1  0  0  0
 49 53  1  0  0  0
 49 64  1  0  0  0
 49123  1  0  0  0
 50 51  1  0  0  0
 50124  1  0  0  0
 50125  1  0  0  0
 51 52  1  0  0  0
 51126  1  0  0  0
 51127  1  0  0  0
 52128  1  0  0  0
 52129  1  0  0  0
 53 54  1  0  0  0
 54 55  2  0  0  0
 54130  1  0  0  0
 55 57  1  0  0  0
 55131  1  0  0  0
 56 69  2  0  0  0
 57 58  2  0  0  0
 57132  1  0  0  0
 58133  1  0  0  0
 59 60  1  0  0  0
 59 61  1  0  0  0
 59 62  1  0  0  0
 60134  1  0  0  0
 60135  1  0  0  0
 60136  1  0  0  0
 61137  1  0  0  0
 61138  1  0  0  0
 61139  1  0  0  0
 62140  1  0  0  0
 62141  1  0  0  0
 62142  1  0  0  0
 63 65  1  0  0  0
 63143  1  0  0  0
 63144  1  0  0  0
 63145  1  0  0  0
 64146  1  0  0  0
 65147  1  0  0  0
 68 83  1  0  0  0
 71 74  2  0  0  0
 71 75  1  0  0  0
 71148  1  0  0  0
 72 74  1  0  0  0
 72 76  2  0  0  0
 72149  1  0  0  0
 73 75  2  0  0  0
 73 76  1  0  0  0
 73150  1  0  0  0
 74 82  1  0  0  0
 75 84  1  0  0  0
 76 86  1  0  0  0
 77 78  1  0  0  0
 77 85  1  0  0  0
 77 88  2  0  0  0
 78 79  1  0  0  0
 78151  1  0  0  0
 78152  1  0  0  0
 79 80  1  0  0  0
 79153  1  0  0  0
 79154  1  0  0  0
 80 83  1  0  0  0
 80 85  1  0  0  0
 80155  1  0  0  0
 81156  1  0  0  0
 81157  1  0  0  0
 81158  1  0  0  0
 81 84  1  0  0  0
 82 85  1  0  0  0
 82159  1  0  0  0
 82160  1  0  0  0
 83161  1  0  0  0
 83162  1  0  0  0
 84 87  1  0  0  0
 84163  1  0  0  0
 86164  1  0  0  0
 87165  1  0  0  0
 87166  1  0  0  0
 87167  1  0  0  0
M  CHG  1  87   1
M  ISO  4   1 100  68 101  83 101  86 100
M  END
> <chiral flag>
0

> <version>
0

> <s_m_source_file>
/data/baiqing/PycharmProjects/Reinvent-master-3.2/result/LINK_invent/BTK/process_docking_weight1_custom_product_contain_oxygen_bond_distance_aromatic_linkinvent_7_9_3/rearranged_h_0105.sdf

> <i_m_source_file_index>
11

> <r_mmod_Potential_Energy-OPLS-2005>
108.180671691895

> <r_mmod_Stretch_Energy-OPLS-2005>
159.510330200195

> <r_mmod_Bend_Energy-OPLS-2005>
282.802154541016

> <r_mmod_Torsional_Energy-OPLS-2005>
338.692749023438

> <r_mmod_Improper_Torsional_Energy-OPLS-2005>
18.6481380462646

> <r_mmod_Van_der_Waal_Energy-OPLS-2005>
120.10213470459

> <r_mmod_Electrostatic_Energy-OPLS-2005>
-372.736633300781

> <r_mmod_Solvation_Energy-OPLS-2005>
-547.686218261719

> <b_mmod_Minimization_Converged-OPLS-2005>
0

> <r_mmod_RMS_Derivative-OPLS-2005>
0.72831529378891

$$$$
11
                    3D
 Structure written by MMmdl.
158167  0  0  1  0            999 V2000
  -30.6625  -14.6779   20.4060 C   0  0  0  0  0  0
  -30.4248  -12.4086   19.4521 C   0  0  0  0  0  0
  -29.5067  -12.5050   18.2162 C   0  0  0  0  0  0
  -28.0346  -12.3312   18.6412 C   0  0  0  0  0  0
  -27.6404  -13.2312   19.8446 C   0  0  2  0  0  0
  -28.6904  -13.1770   20.9755 C   0  0  0  0  0  0
  -25.2505  -13.8203   20.5696 C   0  0  0  0  0  0
  -24.1803  -13.0391   20.9195 C   0  0  0  0  0  0
  -24.6401  -11.6881   20.8697 C   0  0  0  0  0  0
  -23.9021  -10.4267   21.0375 C   0  0  0  0  0  0
  -24.3568   -9.4211   21.9170 C   0  0  0  0  0  0
  -23.6242   -8.2246   22.0757 C   0  0  0  0  0  0
  -22.4258   -8.0239   21.3541 C   0  0  0  0  0  0
  -21.9851   -9.0205   20.4678 C   0  0  0  0  0  0
  -22.7166  -10.2092   20.3051 C   0  0  0  0  0  0
  -21.6858   -6.0681   22.5254 C   0  0  0  0  0  0
  -21.4026   -6.5610   23.8181 C   0  0  0  0  0  0
  -21.3671   -5.6777   24.9172 C   0  0  0  0  0  0
  -21.6054   -4.3032   24.7244 C   0  0  0  0  0  0
  -21.8807   -3.8102   23.4367 C   0  0  0  0  0  0
  -21.9213   -4.6907   22.3412 C   0  0  0  0  0  0
  -22.7859  -13.5197   21.1873 C   0  0  0  0  0  0
  -22.1684   -4.2066   21.0984 F   0  0  0  0  0  0
  -21.5638   -3.4530   25.7779 F   0  0  0  0  0  0
  -29.9973  -13.4805   20.3744 N   0  0  0  0  0  0
  -26.2926  -12.9380   20.3257 N   0  0  0  0  0  0
  -25.9330  -11.6513   20.5648 N   0  0  0  0  0  0
  -22.0499  -12.8185   22.0452 N   0  0  0  0  0  0
  -25.4123  -15.1941   20.4233 N   0  0  0  0  0  0
  -31.8674  -14.7258   20.1581 O   0  0  0  0  0  0
  -21.6684   -6.8794   21.4197 O   0  0  0  0  0  0
  -22.3536  -14.5488   20.6750 O   0  0  0  0  0  0
  -24.6244  -31.8542   23.2064 C   0  0  0  0  0  0
  -25.9096  -32.4697   23.8340 C   0  0  1  0  0  0
  -27.1938  -27.2895   20.0734 C   0  0  0  0  0  0
  -25.5971  -33.8531   24.2258 N   0  0  0  0  0  0
  -23.4176  -30.4841   21.5485 C   0  0  2  0  0  0
  -24.8574  -28.9383   20.1149 C   0  0  0  0  0  0
  -22.7445  -29.4622   22.4954 C   0  0  0  0  0  0
  -18.0267  -28.1413   22.8440 C   0  0  0  0  0  0
  -24.1514  -36.7244   23.2635 C   0  0  0  0  0  0
  -25.9652  -30.7627   21.3955 C   0  0  0  0  0  0
  -26.0272  -29.3929   20.7309 C   0  0  0  0  0  0
  -27.1942  -28.5669   20.7260 C   0  0  0  0  0  0
  -26.0063  -26.9233   19.4080 C   0  0  0  0  0  0
  -24.8451  -27.7065   19.4572 C   0  0  0  0  0  0
  -23.6282  -29.8147   20.1659 C   0  0  0  0  0  0
  -25.4135  -36.3018   24.0302 C   0  0  1  0  0  0
  -20.5858  -28.3744   23.1257 C   0  0  2  0  0  0
  -20.6765  -26.9467   22.5399 C   0  0  0  0  0  0
  -19.5756  -26.6411   21.5182 C   0  0  0  0  0  0
  -18.1933  -26.7934   22.1605 C   0  0  0  0  0  0
  -19.1514  -28.8875   23.2837 C   0  0  0  0  0  0
  -18.9449  -30.1478   23.8868 C   0  0  0  0  0  0
  -17.6459  -30.6608   24.0550 C   0  0  0  0  0  0
  -25.9082  -34.9395   23.5047 C   0  0  0  0  0  0
  -16.5343  -29.9104   23.6335 C   0  0  0  0  0  0
  -16.7248  -28.6533   23.0320 C   0  0  0  0  0  0
  -26.4540  -31.6517   25.0678 C   0  0  0  0  0  0
  -25.3797  -31.3628   26.1385 C   0  0  0  0  0  0
  -27.0408  -30.2885   24.6257 C   0  0  0  0  0  0
  -27.6082  -32.4261   25.7440 C   0  0  0  0  0  0
  -27.5582  -37.1769   24.8457 C   0  0  0  0  0  0
  -21.4166  -29.3076   22.3646 N   0  0  0  0  0  0
  -26.4300  -37.3712   23.9383 N   0  0  0  0  0  0
  -24.6860  -31.0553   22.1044 N   0  0  0  0  0  0
  -23.4155  -28.8152   23.3032 O   0  0  0  0  0  0
  -28.2854  -26.4057   20.1164 O   0  0  0  0  0  0
  -26.5658  -34.8861   22.4629 O   0  0  0  0  0  0
  -23.5434  -32.1406   23.7394 O   0  0  0  0  0  0
  -28.8620  -19.2060   20.8250 C   0  0  0  0  0  0
  -30.0632  -19.2097   18.7452 C   0  0  0  0  0  0
  -28.3630  -20.5141   20.5440 C   0  0  0  0  0  0
  -29.5378  -20.5091   18.4511 C   0  0  0  0  0  0
  -29.7414  -18.5209   19.9499 C   0  0  0  0  0  0
  -28.6877  -21.2124   19.3531 C   0  0  0  0  0  0
  -26.9921  -22.3978   18.1917 C   0  0  0  0  0  0
  -25.8058  -23.1825   18.7219 C   0  0  0  0  0  0
  -26.3078  -23.6324   20.1084 C   0  0  0  0  0  0
  -27.8359  -23.6822   19.9438 C   0  0  2  0  0  0
  -30.5227  -17.2297   20.4102 C   0  0  0  0  0  0
  -28.3067  -25.1155   19.3603 C   0  0  0  0  0  0
  -28.0628  -22.5005   19.0102 N   0  0  0  0  0  0
  -29.9338  -15.8414   20.4706 N   0  0  0  0  0  0
  -26.9206  -21.7346   17.1498 O   0  0  0  0  0  0
  -31.4728  -12.4871   19.1671 H   0  0  0  0  0  0
  -30.3180  -11.4333   19.9235 H   0  0  0  0  0  0
  -29.7715  -11.7533   17.4697 H   0  0  0  0  0  0
  -29.6429  -13.4682   17.7300 H   0  0  0  0  0  0
  -27.8917  -11.2804   18.8972 H   0  0  0  0  0  0
  -27.3694  -12.5325   17.8053 H   0  0  0  0  0  0
  -27.6305  -14.2552   19.4679 H   0  0  0  0  0  0
  -28.6987  -12.1972   21.4595 H   0  0  0  0  0  0
  -28.4565  -13.9017   21.7597 H   0  0  0  0  0  0
  -25.2698   -9.5704   22.4760 H   0  0  0  0  0  0
  -23.9967   -7.4631   22.7466 H   0  0  0  0  0  0
  -21.0777   -8.8689   19.8971 H   0  0  0  0  0  0
  -22.3573  -10.9620   19.6169 H   0  0  0  0  0  0
  -21.2009   -7.6113   23.9646 H   0  0  0  0  0  0
  -21.1520   -6.0541   25.9059 H   0  0  0  0  0  0
  -22.0578   -2.7538   23.2936 H   0  0  0  0  0  0
  -22.4176  -11.9892   22.4848 H   0  0  0  0  0  0
  -21.1101  -13.1162   22.2620 H   0  0  0  0  0  0
  -24.6264  -15.8249   20.5474 H   0  0  0  0  0  0
  -26.2520  -15.6533   20.0848 H   0  0  0  0  0  0
  -26.7150  -32.5339   23.1081 H   0  0  0  0  0  0
  -25.0047  -33.9663   25.0351 H   0  0  0  0  0  0
  -22.7166  -31.3103   21.4046 H   0  0  0  0  0  0
  -23.3762  -35.9595   23.3271 H   0  0  0  0  0  0
  -24.3588  -36.8886   22.2053 H   0  0  0  0  0  0
  -23.7327  -37.6445   23.6695 H   0  0  0  0  0  0
  -26.1332  -31.5339   20.6467 H   0  0  0  0  0  0
  -26.8316  -30.7862   22.0449 H   0  0  0  0  0  0
  -28.0768  -28.8833   21.2667 H   0  0  0  0  0  0
  -25.9255  -26.0067   18.8545 H   0  0  0  0  0  0
  -23.9414  -27.3559   18.9765 H   0  0  0  0  0  0
  -23.7578  -30.5857   19.4088 H   0  0  0  0  0  0
  -22.7487  -29.2445   19.8564 H   0  0  0  0  0  0
  -25.1353  -36.1829   25.0802 H   0  0  0  0  0  0
  -20.9932  -28.3347   24.1376 H   0  0  0  0  0  0
  -20.5677  -26.2354   23.3619 H   0  0  0  0  0  0
  -21.6636  -26.7504   22.1197 H   0  0  0  0  0  0
  -19.6944  -25.6321   21.1221 H   0  0  0  0  0  0
  -19.6675  -27.3217   20.6713 H   0  0  0  0  0  0
  -17.4193  -26.6629   21.4024 H   0  0  0  0  0  0
  -18.0390  -26.0086   22.9033 H   0  0  0  0  0  0
  -19.7937  -30.7285   24.2240 H   0  0  0  0  0  0
  -17.5018  -31.6275   24.5208 H   0  0  0  0  0  0
  -15.5347  -30.3006   23.7689 H   0  0  0  0  0  0
  -15.8641  -28.0858   22.7042 H   0  0  0  0  0  0
  -24.5999  -30.6968   25.7669 H   0  0  0  0  0  0
  -24.8994  -32.2792   26.4812 H   0  0  0  0  0  0
  -25.8118  -30.8771   27.0158 H   0  0  0  0  0  0
  -26.3008  -29.6543   24.1326 H   0  0  0  0  0  0
  -27.4069  -29.7202   25.4856 H   0  0  0  0  0  0
  -27.8939  -30.4032   23.9536 H   0  0  0  0  0  0
  -27.2664  -33.3556   26.2037 H   0  0  0  0  0  0
  -28.3900  -32.6829   25.0257 H   0  0  0  0  0  0
  -28.0793  -31.8380   26.5367 H   0  0  0  0  0  0
  -28.2585  -38.0076   24.7458 H   0  0  0  0  0  0
  -28.1102  -36.2586   24.6357 H   0  0  0  0  0  0
  -27.2252  -37.1464   25.8847 H   0  0  0  0  0  0
  -20.9428  -29.8721   21.6737 H   0  0  0  0  0  0
  -26.0148  -38.2774   24.1372 H   0  0  0  0  0  0
  -28.5922  -18.7409   21.7622 H   0  0  0  0  0  0
  -30.7385  -18.7492   18.0343 H   0  0  0  0  0  0
  -27.7002  -20.9778   21.2626 H   0  0  0  0  0  0
  -29.7958  -20.9785   17.5085 H   0  0  0  0  0  0
  -24.9115  -22.5597   18.7885 H   0  0  0  0  0  0
  -25.6093  -24.0010   18.0343 H   0  0  0  0  0  0
  -25.8617  -24.5549   20.4651 H   0  0  0  0  0  0
  -26.0338  -22.8757   20.8521 H   0  0  0  0  0  0
  -28.3363  -23.4935   20.8968 H   0  0  0  0  0  0
  -30.8331  -17.4516   21.4370 H   0  0  0  0  0  0
  -31.4557  -17.1967   19.8426 H   0  0  0  0  0  0
  -29.3624  -24.9980   19.1198 H   0  0  0  0  0  0
  -27.8577  -25.2790   18.3791 H   0  0  0  0  0  0
  -28.9418  -15.7568   20.6175 H   0  0  0  0  0  0
  1 25  1  0  0  0
  1 30  2  0  0  0
  1 84  1  0  0  0
  2  3  1  0  0  0
  2 25  1  0  0  0
  2 86  1  0  0  0
  2 87  1  0  0  0
  3  4  1  0  0  0
  3 88  1  0  0  0
  3 89  1  0  0  0
  4  5  1  0  0  0
  4 90  1  0  0  0
  4 91  1  0  0  0
  5  6  1  0  0  0
  5 26  1  0  0  0
  5 92  1  0  0  0
  6 25  1  0  0  0
  6 93  1  0  0  0
  6 94  1  0  0  0
  7  8  2  0  0  0
  7 26  1  0  0  0
  7 29  1  0  0  0
  8  9  1  0  0  0
  8 22  1  0  0  0
  9 10  1  0  0  0
  9 27  2  0  0  0
 10 11  2  0  0  0
 10 15  1  0  0  0
 11 12  1  0  0  0
 11 95  1  0  0  0
 12 13  2  0  0  0
 12 96  1  0  0  0
 13 14  1  0  0  0
 13 31  1  0  0  0
 14 15  2  0  0  0
 14 97  1  0  0  0
 15 98  1  0  0  0
 16 17  2  0  0  0
 16 21  1  0  0  0
 16 31  1  0  0  0
 17 18  1  0  0  0
 17 99  1  0  0  0
 18 19  2  0  0  0
 18100  1  0  0  0
 19 20  1  0  0  0
 19 24  1  0  0  0
 20 21  2  0  0  0
 20101  1  0  0  0
 21 23  1  0  0  0
 22 28  1  0  0  0
 22 32  2  0  0  0
 26 27  1  0  0  0
 28102  1  0  0  0
 28103  1  0  0  0
 29104  1  0  0  0
 29105  1  0  0  0
 33 34  1  0  0  0
 33 66  1  0  0  0
 33 70  2  0  0  0
 34 36  1  0  0  0
 34 59  1  0  0  0
 34106  1  0  0  0
 35 44  2  0  0  0
 35 45  1  0  0  0
 35 68  1  0  0  0
 36 56  1  0  0  0
 36107  1  0  0  0
 37 39  1  0  0  0
 37 47  1  0  0  0
 37 66  1  0  0  0
 37108  1  0  0  0
 38 43  2  0  0  0
 38 46  1  0  0  0
 38 47  1  0  0  0
 39 64  1  0  0  0
 39 67  2  0  0  0
 40 52  1  0  0  0
 40 53  2  0  0  0
 40 58  1  0  0  0
 41109  1  0  0  0
 41110  1  0  0  0
 41111  1  0  0  0
 41 48  1  0  0  0
 42 43  1  0  0  0
 42 66  1  0  0  0
 42112  1  0  0  0
 42113  1  0  0  0
 43 44  1  0  0  0
 44114  1  0  0  0
 45 46  2  0  0  0
 45115  1  0  0  0
 46116  1  0  0  0
 47117  1  0  0  0
 47118  1  0  0  0
 48 56  1  0  0  0
 48 65  1  0  0  0
 48119  1  0  0  0
 49 50  1  0  0  0
 49 53  1  0  0  0
 49 64  1  0  0  0
 49120  1  0  0  0
 50 51  1  0  0  0
 50121  1  0  0  0
 50122  1  0  0  0
 51 52  1  0  0  0
 51123  1  0  0  0
 51124  1  0  0  0
 52125  1  0  0  0
 52126  1  0  0  0
 53 54  1  0  0  0
 54 55  2  0  0  0
 54127  1  0  0  0
 55 57  1  0  0  0
 55128  1  0  0  0
 56 69  2  0  0  0
 57 58  2  0  0  0
 57129  1  0  0  0
 58130  1  0  0  0
 59 60  1  0  0  0
 59 61  1  0  0  0
 59 62  1  0  0  0
 60131  1  0  0  0
 60132  1  0  0  0
 60133  1  0  0  0
 61134  1  0  0  0
 61135  1  0  0  0
 61136  1  0  0  0
 62137  1  0  0  0
 62138  1  0  0  0
 62139  1  0  0  0
 63 65  1  0  0  0
 63140  1  0  0  0
 63141  1  0  0  0
 63142  1  0  0  0
 64143  1  0  0  0
 65144  1  0  0  0
 68 82  1  0  0  0
 71 73  2  0  0  0
 71 75  1  0  0  0
 71145  1  0  0  0
 72 74  1  0  0  0
 72 75  2  0  0  0
 72146  1  0  0  0
 73 76  1  0  0  0
 73147  1  0  0  0
 74 76  2  0  0  0
 74148  1  0  0  0
 75 81  1  0  0  0
 76 83  1  0  0  0
 77 78  1  0  0  0
 77 83  1  0  0  0
 77 85  2  0  0  0
 78 79  1  0  0  0
 78149  1  0  0  0
 78150  1  0  0  0
 79 80  1  0  0  0
 79151  1  0  0  0
 79152  1  0  0  0
 80 82  1  0  0  0
 80 83  1  0  0  0
 80153  1  0  0  0
 81 84  1  0  0  0
 81154  1  0  0  0
 81155  1  0  0  0
 82156  1  0  0  0
 82157  1  0  0  0
 84158  1  0  0  0
M  ISO  4   1 100  68 101  82 101  84 100
M  END
> <chiral flag>
0

> <version>
0

> <s_m_source_file>
/data/baiqing/PycharmProjects/Reinvent-master-3.2/result/LINK_invent/BTK/process_docking_weight1_custom_product_contain_oxygen_bond_distance_aromatic_linkinvent_7_9_3/rearranged_h_0105.sdf

> <i_m_source_file_index>
12

> <r_mmod_Potential_Energy-OPLS-2005>
200.177627563477

> <r_mmod_Stretch_Energy-OPLS-2005>
93.7256851196289

> <r_mmod_Bend_Energy-OPLS-2005>
198.210494995117

> <r_mmod_Torsional_Energy-OPLS-2005>
300.895935058594

> <r_mmod_Improper_Torsional_Energy-OPLS-2005>
10.1942958831787

> <r_mmod_Van_der_Waal_Energy-OPLS-2005>
142.989303588867

> <r_mmod_Electrostatic_Energy-OPLS-2005>
-393.434478759766

> <r_mmod_Solvation_Energy-OPLS-2005>
-224.472412109375

> <b_mmod_Minimization_Converged-OPLS-2005>
0

> <r_mmod_RMS_Derivative-OPLS-2005>
8.20101070404053

$$$$
12
                    3D
 Structure written by MMmdl.
161170  0  0  1  0            999 V2000
  -30.5368  -14.9337   20.4886 C   0  0  0  0  0  0
  -30.4362  -12.5766   19.5149 C   0  0  0  0  0  0
  -29.5197  -12.5410   18.2661 C   0  0  0  0  0  0
  -28.0465  -12.3232   18.6689 C   0  0  0  0  0  0
  -27.6262  -13.2428   19.8413 C   0  0  2  0  0  0
  -28.6598  -13.2249   20.9816 C   0  0  0  0  0  0
  -25.2394  -13.8239   20.5670 C   0  0  0  0  0  0
  -24.1719  -13.0484   20.9198 C   0  0  0  0  0  0
  -24.6332  -11.6939   20.8736 C   0  0  0  0  0  0
  -23.9046  -10.4304   21.0399 C   0  0  0  0  0  0
  -24.3598   -9.4203   21.9151 C   0  0  0  0  0  0
  -23.6276   -8.2244   22.0723 C   0  0  0  0  0  0
  -22.4265   -8.0262   21.3521 C   0  0  0  0  0  0
  -21.9896   -9.0240   20.4623 C   0  0  0  0  0  0
  -22.7229  -10.2118   20.3037 C   0  0  0  0  0  0
  -21.6840   -6.0697   22.5264 C   0  0  0  0  0  0
  -21.4019   -6.5616   23.8196 C   0  0  0  0  0  0
  -21.3682   -5.6771   24.9158 C   0  0  0  0  0  0
  -21.6057   -4.3035   24.7215 C   0  0  0  0  0  0
  -21.8823   -3.8113   23.4342 C   0  0  0  0  0  0
  -21.9188   -4.6924   22.3392 C   0  0  0  0  0  0
  -22.7744  -13.5182   21.1944 C   0  0  0  0  0  0
  -22.1631   -4.2113   21.0963 F   0  0  0  0  0  0
  -21.5671   -3.4513   25.7726 F   0  0  0  0  0  0
  -29.9491  -13.6627   20.4189 N   0  0  0  0  0  0
  -26.2810  -12.9453   20.3192 N   0  0  0  0  0  0
  -25.9244  -11.6603   20.5728 N   0  0  0  0  0  0
  -22.0413  -12.8143   22.0502 N   0  0  0  0  0  0
  -25.4179  -15.1957   20.4106 N   0  0  0  0  0  0
  -31.6694  -15.0522   20.0019 O   0  0  0  0  0  0
  -21.6644   -6.8845   21.4216 O   0  0  0  0  0  0
  -22.3393  -14.5491   20.6792 O   0  0  0  0  0  0
  -24.6386  -31.8453   23.1877 C   0  0  0  0  0  0
  -25.9171  -32.4698   23.8297 C   0  0  1  0  0  0
  -27.2280  -27.1642   20.1569 C   0  0  0  0  0  0
  -25.5991  -33.8527   24.2267 N   0  0  0  0  0  0
  -23.4422  -30.4575   21.5308 C   0  0  2  0  0  0
  -24.8967  -28.8831   20.1209 C   0  0  0  0  0  0
  -22.7532  -29.4537   22.4868 C   0  0  0  0  0  0
  -18.0340  -28.1358   22.8482 C   0  0  0  0  0  0
  -24.1540  -36.7233   23.2632 C   0  0  0  0  0  0
  -25.9953  -30.7321   21.3802 C   0  0  0  0  0  0
  -26.0749  -29.3459   20.7208 C   0  0  0  0  0  0
  -27.2457  -28.5019   20.7140 C   0  0  0  0  0  0
  -26.0210  -26.7888   19.5322 C   0  0  0  0  0  0
  -24.8773  -27.6150   19.5196 C   0  0  0  0  0  0
  -23.6715  -29.7783   20.1559 C   0  0  0  0  0  0
  -25.4171  -36.3048   24.0323 C   0  0  1  0  0  0
  -20.5934  -28.3666   23.1264 C   0  0  2  0  0  0
  -20.6835  -26.9367   22.5426 C   0  0  0  0  0  0
  -19.5804  -26.6334   21.5237 C   0  0  0  0  0  0
  -18.1979  -26.7900   22.1626 C   0  0  0  0  0  0
  -19.1592  -28.8836   23.2857 C   0  0  0  0  0  0
  -18.9504  -30.1459   23.8829 C   0  0  0  0  0  0
  -17.6497  -30.6554   24.0529 C   0  0  0  0  0  0
  -25.9076  -34.9409   23.5091 C   0  0  0  0  0  0
  -16.5395  -29.9033   23.6333 C   0  0  0  0  0  0
  -16.7311  -28.6456   23.0342 C   0  0  0  0  0  0
  -26.4541  -31.6532   25.0698 C   0  0  0  0  0  0
  -25.3779  -31.3644   26.1401 C   0  0  0  0  0  0
  -27.0399  -30.2933   24.6271 C   0  0  0  0  0  0
  -27.6116  -32.4293   25.7450 C   0  0  0  0  0  0
  -27.5607  -37.1776   24.8462 C   0  0  0  0  0  0
  -21.4232  -29.3005   22.3613 N   0  0  0  0  0  0
  -26.4338  -37.3752   23.9388 N   0  0  0  0  0  0
  -24.7111  -31.0335   22.0879 N   0  0  0  0  0  0
  -23.4184  -28.8078   23.3004 O   0  0  0  0  0  0
  -28.3101  -26.2214   20.1674 O   0  0  0  0  0  0
  -26.5592  -34.8880   22.4630 O   0  0  0  0  0  0
  -23.5514  -32.1318   23.7099 O   0  0  0  0  0  0
  -29.1842  -19.5918   19.3045 C   0  0  0  0  0  0
  -29.5289  -18.1758   19.5026 C   0  0  0  0  0  0
  -29.5283  -18.5509   21.8159 C   0  0  0  0  0  0
  -28.9392  -20.5485   20.3679 C   0  0  0  0  0  0
  -29.6974  -17.5420   20.7928 C   0  0  0  0  0  0
  -29.1437  -19.9315   21.6316 C   0  0  0  0  0  0
  -26.8912  -21.7863   20.0507 C   0  0  0  0  0  0
  -26.3593  -22.8480   19.0954 C   0  0  0  0  0  0
  -27.6656  -23.4312   18.5465 C   0  0  0  0  0  0
  -28.5811  -23.3565   19.7678 C   0  0  2  0  0  0
  -28.5964  -15.9685   23.3772 C   0  0  0  0  0  0
  -28.1411  -24.7491   20.6168 C   0  0  0  0  0  0
  -29.9315  -15.7568   22.6227 C   0  0  0  0  0  0
  -28.2160  -21.9046   20.2690 N   0  0  0  0  0  0
  -29.9109  -16.0348   21.1569 N   0  0  0  0  0  0
  -26.1544  -20.9194   20.5327 O   0  0  0  0  0  0
  -28.8960  -20.6777   22.7344 F   0  0  0  0  0  0
  -31.4753  -12.7228   19.2127 H   0  0  0  0  0  0
  -30.4179  -11.6151   20.0342 H   0  0  0  0  0  0
  -29.8415  -11.7536   17.5816 H   0  0  0  0  0  0
  -29.6127  -13.4829   17.7244 H   0  0  0  0  0  0
  -27.9284  -11.2797   18.9604 H   0  0  0  0  0  0
  -27.3882  -12.4733   17.8142 H   0  0  0  0  0  0
  -27.6116  -14.2538   19.4349 H   0  0  0  0  0  0
  -28.7311  -12.2299   21.4256 H   0  0  0  0  0  0
  -28.3226  -13.8794   21.7756 H   0  0  0  0  0  0
  -25.2723   -9.5715   22.4737 H   0  0  0  0  0  0
  -24.0002   -7.4633   22.7416 H   0  0  0  0  0  0
  -21.0849   -8.8748   19.8898 H   0  0  0  0  0  0
  -22.3659  -10.9659   19.6169 H   0  0  0  0  0  0
  -21.1999   -7.6123   23.9701 H   0  0  0  0  0  0
  -21.1521   -6.0474   25.9053 H   0  0  0  0  0  0
  -22.0593   -2.7572   23.2836 H   0  0  0  0  0  0
  -22.4014  -11.9787   22.4882 H   0  0  0  0  0  0
  -21.1025  -13.1167   22.2775 H   0  0  0  0  0  0
  -24.6797  -15.8724   20.5628 H   0  0  0  0  0  0
  -26.2914  -15.6237   20.1337 H   0  0  0  0  0  0
  -26.7221  -32.5319   23.1024 H   0  0  0  0  0  0
  -25.0236  -33.9712   25.0474 H   0  0  0  0  0  0
  -22.7455  -31.2812   21.3643 H   0  0  0  0  0  0
  -23.3843  -35.9517   23.3270 H   0  0  0  0  0  0
  -24.3611  -36.8870   22.2045 H   0  0  0  0  0  0
  -23.7268  -37.6423   23.6644 H   0  0  0  0  0  0
  -26.1547  -31.5050   20.6245 H   0  0  0  0  0  0
  -26.8571  -30.7692   22.0340 H   0  0  0  0  0  0
  -28.1480  -28.8514   21.1940 H   0  0  0  0  0  0
  -25.9447  -25.8197   19.0621 H   0  0  0  0  0  0
  -23.9688  -27.2511   19.0606 H   0  0  0  0  0  0
  -23.8034  -30.5434   19.3917 H   0  0  0  0  0  0
  -22.7952  -29.2097   19.8399 H   0  0  0  0  0  0
  -25.1394  -36.1870   25.0819 H   0  0  0  0  0  0
  -21.0066  -28.3231   24.1368 H   0  0  0  0  0  0
  -20.5820  -26.2225   23.3608 H   0  0  0  0  0  0
  -21.6688  -26.7427   22.1165 H   0  0  0  0  0  0
  -19.6958  -25.6252   21.1249 H   0  0  0  0  0  0
  -19.6762  -27.3152   20.6776 H   0  0  0  0  0  0
  -17.4284  -26.6707   21.3995 H   0  0  0  0  0  0
  -18.0319  -26.0056   22.9021 H   0  0  0  0  0  0
  -19.7993  -30.7317   24.2126 H   0  0  0  0  0  0
  -17.5041  -31.6226   24.5145 H   0  0  0  0  0  0
  -15.5383  -30.2888   23.7676 H   0  0  0  0  0  0
  -15.8738  -28.0723   22.7078 H   0  0  0  0  0  0
  -24.6022  -30.6934   25.7690 H   0  0  0  0  0  0
  -24.8900  -32.2773   26.4809 H   0  0  0  0  0  0
  -25.8125  -30.8831   27.0166 H   0  0  0  0  0  0
  -26.2978  -29.6627   24.1356 H   0  0  0  0  0  0
  -27.4067  -29.7274   25.4842 H   0  0  0  0  0  0
  -27.8868  -30.4145   23.9518 H   0  0  0  0  0  0
  -27.2751  -33.3621   26.1965 H   0  0  0  0  0  0
  -28.3908  -32.6803   25.0245 H   0  0  0  0  0  0
  -28.0757  -31.8455   26.5393 H   0  0  0  0  0  0
  -28.2625  -38.0076   24.7539 H   0  0  0  0  0  0
  -28.1137  -36.2624   24.6318 H   0  0  0  0  0  0
  -27.2269  -37.1402   25.8844 H   0  0  0  0  0  0
  -20.9393  -29.8654   21.6771 H   0  0  0  0  0  0
  -26.0219  -38.2815   24.1444 H   0  0  0  0  0  0
  -29.0340  -19.9280   18.2869 H   0  0  0  0  0  0
  -29.6126  -17.5667   18.6117 H   0  0  0  0  0  0
  -29.6429  -18.2800   22.8503 H   0  0  0  0  0  0
  -25.7527  -23.5626   19.6544 H   0  0  0  0  0  0
  -25.7225  -22.4326   18.3171 H   0  0  0  0  0  0
  -27.5876  -24.4300   18.1118 H   0  0  0  0  0  0
  -28.0486  -22.7793   17.7621 H   0  0  0  0  0  0
  -29.6299  -23.3992   19.4729 H   0  0  0  0  0  0
  -28.7639  -16.5221   24.3064 H   0  0  0  0  0  0
  -28.1574  -15.0154   23.6748 H   0  0  0  0  0  0
  -27.8499  -16.5075   22.7975 H   0  0  0  0  0  0
  -28.6445  -24.6891   21.5824 H   0  0  0  0  0  0
  -27.0992  -24.6576   20.9172 H   0  0  0  0  0  0
  -30.2695  -14.7457   22.8667 H   0  0  0  0  0  0
  -30.7087  -16.3779   23.0702 H   0  0  0  0  0  0
  1 25  1  0  0  0
  1 30  2  0  0  0
  1 85  1  0  0  0
  2  3  1  0  0  0
  2 25  1  0  0  0
  2 88  1  0  0  0
  2 89  1  0  0  0
  3  4  1  0  0  0
  3 90  1  0  0  0
  3 91  1  0  0  0
  4  5  1  0  0  0
  4 92  1  0  0  0
  4 93  1  0  0  0
  5  6  1  0  0  0
  5 26  1  0  0  0
  5 94  1  0  0  0
  6 25  1  0  0  0
  6 95  1  0  0  0
  6 96  1  0  0  0
  7  8  2  0  0  0
  7 26  1  0  0  0
  7 29  1  0  0  0
  8  9  1  0  0  0
  8 22  1  0  0  0
  9 10  1  0  0  0
  9 27  2  0  0  0
 10 11  2  0  0  0
 10 15  1  0  0  0
 11 12  1  0  0  0
 11 97  1  0  0  0
 12 13  2  0  0  0
 12 98  1  0  0  0
 13 14  1  0  0  0
 13 31  1  0  0  0
 14 15  2  0  0  0
 14 99  1  0  0  0
 15100  1  0  0  0
 16 17  2  0  0  0
 16 21  1  0  0  0
 16 31  1  0  0  0
 17 18  1  0  0  0
 17101  1  0  0  0
 18 19  2  0  0  0
 18102  1  0  0  0
 19 20  1  0  0  0
 19 24  1  0  0  0
 20 21  2  0  0  0
 20103  1  0  0  0
 21 23  1  0  0  0
 22 28  1  0  0  0
 22 32  2  0  0  0
 26 27  1  0  0  0
 28104  1  0  0  0
 28105  1  0  0  0
 29106  1  0  0  0
 29107  1  0  0  0
 33 34  1  0  0  0
 33 66  1  0  0  0
 33 70  2  0  0  0
 34 36  1  0  0  0
 34 59  1  0  0  0
 34108  1  0  0  0
 35 44  2  0  0  0
 35 45  1  0  0  0
 35 68  1  0  0  0
 36 56  1  0  0  0
 36109  1  0  0  0
 37 39  1  0  0  0
 37 47  1  0  0  0
 37 66  1  0  0  0
 37110  1  0  0  0
 38 43  2  0  0  0
 38 46  1  0  0  0
 38 47  1  0  0  0
 39 64  1  0  0  0
 39 67  2  0  0  0
 40 52  1  0  0  0
 40 53  2  0  0  0
 40 58  1  0  0  0
 41111  1  0  0  0
 41112  1  0  0  0
 41113  1  0  0  0
 41 48  1  0  0  0
 42 43  1  0  0  0
 42 66  1  0  0  0
 42114  1  0  0  0
 42115  1  0  0  0
 43 44  1  0  0  0
 44116  1  0  0  0
 45 46  2  0  0  0
 45117  1  0  0  0
 46118  1  0  0  0
 47119  1  0  0  0
 47120  1  0  0  0
 48 56  1  0  0  0
 48 65  1  0  0  0
 48121  1  0  0  0
 49 50  1  0  0  0
 49 53  1  0  0  0
 49 64  1  0  0  0
 49122  1  0  0  0
 50 51  1  0  0  0
 50123  1  0  0  0
 50124  1  0  0  0
 51 52  1  0  0  0
 51125  1  0  0  0
 51126  1  0  0  0
 52127  1  0  0  0
 52128  1  0  0  0
 53 54  1  0  0  0
 54 55  2  0  0  0
 54129  1  0  0  0
 55 57  1  0  0  0
 55130  1  0  0  0
 56 69  2  0  0  0
 57 58  2  0  0  0
 57131  1  0  0  0
 58132  1  0  0  0
 59 60  1  0  0  0
 59 61  1  0  0  0
 59 62  1  0  0  0
 60133  1  0  0  0
 60134  1  0  0  0
 60135  1  0  0  0
 61136  1  0  0  0
 61137  1  0  0  0
 61138  1  0  0  0
 62139  1  0  0  0
 62140  1  0  0  0
 62141  1  0  0  0
 63 65  1  0  0  0
 63142  1  0  0  0
 63143  1  0  0  0
 63144  1  0  0  0
 64145  1  0  0  0
 65146  1  0  0  0
 68 82  1  0  0  0
 71 72  2  0  0  0
 71 74  1  0  0  0
 71147  1  0  0  0
 72 75  1  0  0  0
 72148  1  0  0  0
 73 75  2  0  0  0
 73 76  1  0  0  0
 73149  1  0  0  0
 74 76  2  0  0  0
 74 84  1  0  0  0
 75 85  1  0  0  0
 76 87  1  0  0  0
 77 78  1  0  0  0
 77 84  1  0  0  0
 77 86  2  0  0  0
 78 79  1  0  0  0
 78150  1  0  0  0
 78151  1  0  0  0
 79 80  1  0  0  0
 79152  1  0  0  0
 79153  1  0  0  0
 80 82  1  0  0  0
 80 84  1  0  0  0
 80154  1  0  0  0
 81 83  1  0  0  0
 81155  1  0  0  0
 81156  1  0  0  0
 81157  1  0  0  0
 82158  1  0  0  0
 82159  1  0  0  0
 83 85  1  0  0  0
 83160  1  0  0  0
 83161  1  0  0  0
M  ISO  4   1 100  68 101  82 101  85 100
M  END
> <chiral flag>
0

> <version>
0

> <s_m_source_file>
/data/baiqing/PycharmProjects/Reinvent-master-3.2/result/LINK_invent/BTK/process_docking_weight1_custom_product_contain_oxygen_bond_distance_aromatic_linkinvent_7_9_3/rearranged_h_0105.sdf

> <i_m_source_file_index>
13

> <r_mmod_Potential_Energy-OPLS-2005>
824.153625488281

> <r_mmod_Stretch_Energy-OPLS-2005>
257.405731201172

> <r_mmod_Bend_Energy-OPLS-2005>
333.444793701172

> <r_mmod_Torsional_Energy-OPLS-2005>
399.065185546875

> <r_mmod_Improper_Torsional_Energy-OPLS-2005>
7.86600208282471

> <r_mmod_Van_der_Waal_Energy-OPLS-2005>
144.629989624023

> <r_mmod_Electrostatic_Energy-OPLS-2005>
-286.037963867188

> <r_mmod_Solvation_Energy-OPLS-2005>
-202.65705871582

> <b_mmod_Minimization_Converged-OPLS-2005>
0

> <r_mmod_RMS_Derivative-OPLS-2005>
6.70255947113037

$$$$
13
                    3D
 Structure written by MMmdl.
161170  0  0  1  0            999 V2000
  -30.7550  -14.4364   20.5865 C   0  0  0  0  0  0
  -30.4015  -12.2914   19.4280 C   0  0  0  0  0  0
  -29.4888  -12.5070   18.2067 C   0  0  0  0  0  0
  -28.0096  -12.3660   18.6161 C   0  0  0  0  0  0
  -27.6539  -13.2128   19.8684 C   0  0  2  0  0  0
  -28.6953  -13.0223   20.9947 C   0  0  0  0  0  0
  -25.2544  -13.8183   20.5677 C   0  0  0  0  0  0
  -24.1806  -13.0452   20.9184 C   0  0  0  0  0  0
  -24.6360  -11.6917   20.8719 C   0  0  0  0  0  0
  -23.9031  -10.4303   21.0381 C   0  0  0  0  0  0
  -24.3588   -9.4229   21.9163 C   0  0  0  0  0  0
  -23.6281   -8.2256   22.0744 C   0  0  0  0  0  0
  -22.4270   -8.0275   21.3533 C   0  0  0  0  0  0
  -21.9887   -9.0240   20.4635 C   0  0  0  0  0  0
  -22.7203  -10.2126   20.3035 C   0  0  0  0  0  0
  -21.6862   -6.0725   22.5277 C   0  0  0  0  0  0
  -21.4023   -6.5637   23.8210 C   0  0  0  0  0  0
  -21.3657   -5.6792   24.9171 C   0  0  0  0  0  0
  -21.6046   -4.3052   24.7223 C   0  0  0  0  0  0
  -21.8818   -3.8139   23.4346 C   0  0  0  0  0  0
  -21.9196   -4.6955   22.3404 C   0  0  0  0  0  0
  -22.7830  -13.5239   21.1859 C   0  0  0  0  0  0
  -22.1664   -4.2137   21.0980 F   0  0  0  0  0  0
  -21.5628   -3.4537   25.7736 F   0  0  0  0  0  0
  -30.0262  -13.2986   20.4310 N   0  0  0  0  0  0
  -26.2977  -12.9359   20.3333 N   0  0  0  0  0  0
  -25.9290  -11.6513   20.5735 N   0  0  0  0  0  0
  -22.0469  -12.8217   22.0404 N   0  0  0  0  0  0
  -25.4240  -15.1908   20.4108 N   0  0  0  0  0  0
  -31.9002  -14.5325   20.1329 O   0  0  0  0  0  0
  -21.6648   -6.8868   21.4233 O   0  0  0  0  0  0
  -22.3515  -14.5551   20.6717 O   0  0  0  0  0  0
  -24.6165  -31.8694   23.2084 C   0  0  0  0  0  0
  -25.9080  -32.4815   23.8364 C   0  0  1  0  0  0
  -27.2188  -27.4257   20.1129 C   0  0  0  0  0  0
  -25.5940  -33.8604   24.2310 N   0  0  0  0  0  0
  -23.4019  -30.4922   21.5501 C   0  0  2  0  0  0
  -24.8429  -28.9536   20.1147 C   0  0  0  0  0  0
  -22.7424  -29.4670   22.4994 C   0  0  0  0  0  0
  -18.0275  -28.1369   22.8509 C   0  0  0  0  0  0
  -24.1489  -36.7285   23.2630 C   0  0  0  0  0  0
  -25.9309  -30.8318   21.3612 C   0  0  0  0  0  0
  -26.0047  -29.4658   20.7083 C   0  0  0  0  0  0
  -27.1990  -28.7111   20.6997 C   0  0  0  0  0  0
  -26.0453  -26.9256   19.5115 C   0  0  0  0  0  0
  -24.8588  -27.6823   19.5122 C   0  0  0  0  0  0
  -23.6096  -29.8264   20.1641 C   0  0  0  0  0  0
  -25.4100  -36.3091   24.0349 C   0  0  1  0  0  0
  -20.5872  -28.3657   23.1313 C   0  0  2  0  0  0
  -20.6769  -26.9397   22.5410 C   0  0  0  0  0  0
  -19.5752  -26.6399   21.5207 C   0  0  0  0  0  0
  -18.1927  -26.7914   22.1619 C   0  0  0  0  0  0
  -19.1527  -28.8832   23.2903 C   0  0  0  0  0  0
  -18.9454  -30.1436   23.8911 C   0  0  0  0  0  0
  -17.6458  -30.6583   24.0562 C   0  0  0  0  0  0
  -25.9059  -34.9470   23.5126 C   0  0  0  0  0  0
  -16.5346  -29.9090   23.6327 C   0  0  0  0  0  0
  -16.7261  -28.6503   23.0356 C   0  0  0  0  0  0
  -26.4508  -31.6575   25.0690 C   0  0  0  0  0  0
  -25.3790  -31.3665   26.1437 C   0  0  0  0  0  0
  -27.0311  -30.3013   24.6039 C   0  0  0  0  0  0
  -27.6086  -32.4278   25.7473 C   0  0  0  0  0  0
  -27.5572  -37.1784   24.8461 C   0  0  0  0  0  0
  -21.4156  -29.3023   22.3725 N   0  0  0  0  0  0
  -26.4263  -37.3794   23.9440 N   0  0  0  0  0  0
  -24.6676  -31.0805   22.0971 N   0  0  0  0  0  0
  -23.4199  -28.8232   23.3053 O   0  0  0  0  0  0
  -28.3625  -26.6616   20.1365 O   0  0  0  0  0  0
  -26.5622  -34.8951   22.4690 O   0  0  0  0  0  0
  -23.5379  -32.1441   23.7507 O   0  0  0  0  0  0
  -30.1613  -19.1473   21.7553 C   0  0  0  0  0  0
  -28.8646  -17.9839   20.0716 C   0  0  0  0  0  0
  -29.5540  -20.3669   21.3840 C   0  0  0  0  0  0
  -28.2527  -19.2055   19.7086 C   0  0  0  0  0  0
  -29.8407  -17.9410   21.0923 C   0  0  0  0  0  0
  -28.6031  -20.4312   20.3375 C   0  0  0  0  0  0
  -28.3045  -24.1142   20.0949 C   0  0  0  0  0  0
  -28.0392  -22.8839   20.6252 C   0  0  0  0  0  0
  -28.6255  -24.1819   18.6543 C   0  0  0  0  0  0
  -30.6578  -16.6973   21.3532 C   0  0  0  0  0  0
  -27.9589  -23.1256   17.7868 C   0  0  0  0  0  0
  -28.0565  -21.7201   18.4065 C   0  0  0  0  0  0
  -27.6154  -22.7240   22.0832 C   0  0  0  0  0  0
  -28.2642  -25.4341   20.8939 C   0  0  0  0  0  0
  -28.0929  -21.6839   19.8795 N   0  0  0  0  0  0
  -30.0942  -15.5046   21.0734 N   0  0  0  0  0  0
  -29.3793  -25.0094   18.1315 O   0  0  0  0  0  0
  -31.8029  -16.8233   21.8074 O   0  0  0  0  0  0
  -31.4514  -12.3466   19.1360 H   0  0  0  0  0  0
  -30.2640  -11.2896   19.8372 H   0  0  0  0  0  0
  -29.7340  -11.7933   17.4200 H   0  0  0  0  0  0
  -29.6611  -13.4991   17.7861 H   0  0  0  0  0  0
  -27.8201  -11.3109   18.8134 H   0  0  0  0  0  0
  -27.3620  -12.6392   17.7827 H   0  0  0  0  0  0
  -27.6903  -14.2563   19.5570 H   0  0  0  0  0  0
  -28.6632  -12.0000   21.3746 H   0  0  0  0  0  0
  -28.4639  -13.6581   21.8501 H   0  0  0  0  0  0
  -25.2722   -9.5739   22.4739 H   0  0  0  0  0  0
  -24.0009   -7.4659   22.7461 H   0  0  0  0  0  0
  -21.0825   -8.8738   19.8936 H   0  0  0  0  0  0
  -22.3639  -10.9655   19.6145 H   0  0  0  0  0  0
  -21.2021   -7.6144   23.9708 H   0  0  0  0  0  0
  -21.1482   -6.0517   25.9070 H   0  0  0  0  0  0
  -22.0596   -2.7600   23.2847 H   0  0  0  0  0  0
  -22.4088  -11.9872   22.4783 H   0  0  0  0  0  0
  -21.1082  -13.1218   22.2613 H   0  0  0  0  0  0
  -24.6499  -15.8388   20.5116 H   0  0  0  0  0  0
  -26.2715  -15.6333   20.0816 H   0  0  0  0  0  0
  -26.7146  -32.5513   23.1117 H   0  0  0  0  0  0
  -25.0133  -33.9750   25.0484 H   0  0  0  0  0  0
  -22.6896  -31.3079   21.4143 H   0  0  0  0  0  0
  -23.3761  -35.9601   23.3276 H   0  0  0  0  0  0
  -24.3593  -36.8907   22.2045 H   0  0  0  0  0  0
  -23.7253  -37.6499   23.6645 H   0  0  0  0  0  0
  -26.0512  -31.5948   20.5920 H   0  0  0  0  0  0
  -26.8168  -30.8773   21.9817 H   0  0  0  0  0  0
  -28.0938  -29.1017   21.1644 H   0  0  0  0  0  0
  -26.0452  -25.9492   19.0495 H   0  0  0  0  0  0
  -23.9645  -27.2767   19.0564 H   0  0  0  0  0  0
  -23.7293  -30.6025   19.4071 H   0  0  0  0  0  0
  -22.7290  -29.2554   19.8644 H   0  0  0  0  0  0
  -25.1274  -36.1919   25.0839 H   0  0  0  0  0  0
  -20.9964  -28.3207   24.1435 H   0  0  0  0  0  0
  -20.5670  -26.2273   23.3592 H   0  0  0  0  0  0
  -21.6642  -26.7447   22.1204 H   0  0  0  0  0  0
  -19.6924  -25.6328   21.1194 H   0  0  0  0  0  0
  -19.6675  -27.3244   20.6757 H   0  0  0  0  0  0
  -17.4203  -26.6677   21.4008 H   0  0  0  0  0  0
  -18.0317  -26.0031   22.8985 H   0  0  0  0  0  0
  -19.7931  -30.7245   24.2292 H   0  0  0  0  0  0
  -17.5020  -31.6261   24.5159 H   0  0  0  0  0  0
  -15.5357  -30.2997   23.7652 H   0  0  0  0  0  0
  -15.8652  -28.0827   22.7073 H   0  0  0  0  0  0
  -24.5987  -30.6971   25.7784 H   0  0  0  0  0  0
  -24.8949  -32.2801   26.4885 H   0  0  0  0  0  0
  -25.8177  -30.8862   27.0188 H   0  0  0  0  0  0
  -26.2831  -29.6804   24.1084 H   0  0  0  0  0  0
  -27.4075  -29.7218   25.4482 H   0  0  0  0  0  0
  -27.8680  -30.4326   23.9179 H   0  0  0  0  0  0
  -27.2709  -33.3569   26.2071 H   0  0  0  0  0  0
  -28.3910  -32.6822   25.0312 H   0  0  0  0  0  0
  -28.0728  -31.8373   26.5384 H   0  0  0  0  0  0
  -28.2573  -38.0099   24.7561 H   0  0  0  0  0  0
  -28.1094  -36.2644   24.6195 H   0  0  0  0  0  0
  -27.2320  -37.1331   25.8871 H   0  0  0  0  0  0
  -20.9338  -29.8719   21.6908 H   0  0  0  0  0  0
  -26.0138  -38.2865   24.1453 H   0  0  0  0  0  0
  -30.9269  -19.1553   22.5201 H   0  0  0  0  0  0
  -28.6178  -17.0896   19.5172 H   0  0  0  0  0  0
  -29.8719  -21.2673   21.8882 H   0  0  0  0  0  0
  -27.5305  -19.1789   18.9063 H   0  0  0  0  0  0
  -28.3918  -23.1321   16.7870 H   0  0  0  0  0  0
  -26.9113  -23.4069   17.6812 H   0  0  0  0  0  0
  -28.9524  -21.2379   18.0118 H   0  0  0  0  0  0
  -27.2027  -21.1421   18.0512 H   0  0  0  0  0  0
  -26.7444  -23.3424   22.3011 H   0  0  0  0  0  0
  -28.4209  -23.0314   22.7511 H   0  0  0  0  0  0
  -27.3393  -21.7006   22.3414 H   0  0  0  0  0  0
  -29.1079  -25.4164   21.5828 H   0  0  0  0  0  0
  -27.3751  -25.4423   21.5282 H   0  0  0  0  0  0
  -29.0912  -15.4506   21.0926 H   0  0  0  0  0  0
  1 25  1  0  0  0
  1 30  2  0  0  0
  1 86  1  0  0  0
  2  3  1  0  0  0
  2 25  1  0  0  0
  2 89  1  0  0  0
  2 90  1  0  0  0
  3  4  1  0  0  0
  3 91  1  0  0  0
  3 92  1  0  0  0
  4  5  1  0  0  0
  4 93  1  0  0  0
  4 94  1  0  0  0
  5  6  1  0  0  0
  5 26  1  0  0  0
  5 95  1  0  0  0
  6 25  1  0  0  0
  6 96  1  0  0  0
  6 97  1  0  0  0
  7  8  2  0  0  0
  7 26  1  0  0  0
  7 29  1  0  0  0
  8  9  1  0  0  0
  8 22  1  0  0  0
  9 10  1  0  0  0
  9 27  2  0  0  0
 10 11  2  0  0  0
 10 15  1  0  0  0
 11 12  1  0  0  0
 11 98  1  0  0  0
 12 13  2  0  0  0
 12 99  1  0  0  0
 13 14  1  0  0  0
 13 31  1  0  0  0
 14 15  2  0  0  0
 14100  1  0  0  0
 15101  1  0  0  0
 16 17  2  0  0  0
 16 21  1  0  0  0
 16 31  1  0  0  0
 17 18  1  0  0  0
 17102  1  0  0  0
 18 19  2  0  0  0
 18103  1  0  0  0
 19 20  1  0  0  0
 19 24  1  0  0  0
 20 21  2  0  0  0
 20104  1  0  0  0
 21 23  1  0  0  0
 22 28  1  0  0  0
 22 32  2  0  0  0
 26 27  1  0  0  0
 28105  1  0  0  0
 28106  1  0  0  0
 29107  1  0  0  0
 29108  1  0  0  0
 33 34  1  0  0  0
 33 66  1  0  0  0
 33 70  2  0  0  0
 34 36  1  0  0  0
 34 59  1  0  0  0
 34109  1  0  0  0
 35 44  2  0  0  0
 35 45  1  0  0  0
 35 68  1  0  0  0
 36 56  1  0  0  0
 36110  1  0  0  0
 37 39  1  0  0  0
 37 47  1  0  0  0
 37 66  1  0  0  0
 37111  1  0  0  0
 38 43  2  0  0  0
 38 46  1  0  0  0
 38 47  1  0  0  0
 39 64  1  0  0  0
 39 67  2  0  0  0
 40 52  1  0  0  0
 40 53  2  0  0  0
 40 58  1  0  0  0
 41112  1  0  0  0
 41113  1  0  0  0
 41114  1  0  0  0
 41 48  1  0  0  0
 42 43  1  0  0  0
 42 66  1  0  0  0
 42115  1  0  0  0
 42116  1  0  0  0
 43 44  1  0  0  0
 44117  1  0  0  0
 45 46  2  0  0  0
 45118  1  0  0  0
 46119  1  0  0  0
 47120  1  0  0  0
 47121  1  0  0  0
 48 56  1  0  0  0
 48 65  1  0  0  0
 48122  1  0  0  0
 49 50  1  0  0  0
 49 53  1  0  0  0
 49 64  1  0  0  0
 49123  1  0  0  0
 50 51  1  0  0  0
 50124  1  0  0  0
 50125  1  0  0  0
 51 52  1  0  0  0
 51126  1  0  0  0
 51127  1  0  0  0
 52128  1  0  0  0
 52129  1  0  0  0
 53 54  1  0  0  0
 54 55  2  0  0  0
 54130  1  0  0  0
 55 57  1  0  0  0
 55131  1  0  0  0
 56 69  2  0  0  0
 57 58  2  0  0  0
 57132  1  0  0  0
 58133  1  0  0  0
 59 60  1  0  0  0
 59 61  1  0  0  0
 59 62  1  0  0  0
 60134  1  0  0  0
 60135  1  0  0  0
 60136  1  0  0  0
 61137  1  0  0  0
 61138  1  0  0  0
 61139  1  0  0  0
 62140  1  0  0  0
 62141  1  0  0  0
 62142  1  0  0  0
 63 65  1  0  0  0
 63143  1  0  0  0
 63144  1  0  0  0
 63145  1  0  0  0
 64146  1  0  0  0
 65147  1  0  0  0
 68 84  1  0  0  0
 71 73  2  0  0  0
 71 75  1  0  0  0
 71148  1  0  0  0
 72 74  1  0  0  0
 72 75  2  0  0  0
 72149  1  0  0  0
 73 76  1  0  0  0
 73150  1  0  0  0
 74 76  2  0  0  0
 74151  1  0  0  0
 75 80  1  0  0  0
 76 85  1  0  0  0
 77 78  2  0  0  0
 77 79  1  0  0  0
 77 84  1  0  0  0
 78 83  1  0  0  0
 78 85  1  0  0  0
 79 81  1  0  0  0
 79 87  2  0  0  0
 80 86  1  0  0  0
 80 88  2  0  0  0
 81 82  1  0  0  0
 81152  1  0  0  0
 81153  1  0  0  0
 82 85  1  0  0  0
 82154  1  0  0  0
 82155  1  0  0  0
 83156  1  0  0  0
 83157  1  0  0  0
 83158  1  0  0  0
 84159  1  0  0  0
 84160  1  0  0  0
 86161  1  0  0  0
M  ISO  4   1 100  68 101  84 101  86 100
M  END
> <chiral flag>
0

> <version>
0

> <s_m_source_file>
/data/baiqing/PycharmProjects/Reinvent-master-3.2/result/LINK_invent/BTK/process_docking_weight1_custom_product_contain_oxygen_bond_distance_aromatic_linkinvent_7_9_3/rearranged_h_0105.sdf

> <i_m_source_file_index>
14

> <r_mmod_Potential_Energy-OPLS-2005>
-43.9158744812012

> <r_mmod_Stretch_Energy-OPLS-2005>
44.8132019042969

> <r_mmod_Bend_Energy-OPLS-2005>
98.015983581543

> <r_mmod_Torsional_Energy-OPLS-2005>
252.957504272461

> <r_mmod_Improper_Torsional_Energy-OPLS-2005>
6.55686712265015

> <r_mmod_Van_der_Waal_Energy-OPLS-2005>
185.815963745117

> <r_mmod_Electrostatic_Energy-OPLS-2005>
-408.897125244141

> <r_mmod_Solvation_Energy-OPLS-2005>
-239.974334716797

> <b_mmod_Minimization_Converged-OPLS-2005>
0

> <r_mmod_RMS_Derivative-OPLS-2005>
2.45530819892883

$$$$
14
                    3D
 Structure written by MMmdl.
163171  0  0  1  0            999 V2000
  -30.6804  -14.4710   20.5123 C   0  0  0  0  0  0
  -30.4246  -12.2812   19.4396 C   0  0  0  0  0  0
  -29.5033  -12.4914   18.2178 C   0  0  0  0  0  0
  -28.0206  -12.3611   18.6210 C   0  0  0  0  0  0
  -27.6644  -13.1993   19.8781 C   0  0  2  0  0  0
  -28.7057  -12.9866   21.0053 C   0  0  0  0  0  0
  -25.2589  -13.8148   20.5651 C   0  0  0  0  0  0
  -24.1840  -13.0444   20.9175 C   0  0  0  0  0  0
  -24.6392  -11.6905   20.8756 C   0  0  0  0  0  0
  -23.9065  -10.4296   21.0424 C   0  0  0  0  0  0
  -24.3621   -9.4202   21.9193 C   0  0  0  0  0  0
  -23.6290   -8.2242   22.0759 C   0  0  0  0  0  0
  -22.4265   -8.0296   21.3553 C   0  0  0  0  0  0
  -21.9902   -9.0275   20.4657 C   0  0  0  0  0  0
  -22.7243  -10.2143   20.3071 C   0  0  0  0  0  0
  -21.6846   -6.0742   22.5286 C   0  0  0  0  0  0
  -21.4021   -6.5643   23.8223 C   0  0  0  0  0  0
  -21.3656   -5.6787   24.9176 C   0  0  0  0  0  0
  -21.6041   -4.3052   24.7225 C   0  0  0  0  0  0
  -21.8819   -3.8150   23.4345 C   0  0  0  0  0  0
  -21.9193   -4.6970   22.3403 C   0  0  0  0  0  0
  -22.7858  -13.5249   21.1831 C   0  0  0  0  0  0
  -22.1661   -4.2149   21.0978 F   0  0  0  0  0  0
  -21.5613   -3.4537   25.7738 F   0  0  0  0  0  0
  -30.0437  -13.2710   20.4573 N   0  0  0  0  0  0
  -26.3033  -12.9311   20.3363 N   0  0  0  0  0  0
  -25.9312  -11.6480   20.5778 N   0  0  0  0  0  0
  -22.0481  -12.8275   22.0397 N   0  0  0  0  0  0
  -25.4284  -15.1875   20.4007 N   0  0  0  0  0  0
  -31.8226  -14.6565   20.0850 O   0  0  0  0  0  0
  -21.6633   -6.8888   21.4252 O   0  0  0  0  0  0
  -22.3552  -14.5561   20.6672 O   0  0  0  0  0  0
  -24.6150  -31.8686   23.2088 C   0  0  0  0  0  0
  -25.9049  -32.4828   23.8393 C   0  0  1  0  0  0
  -27.2425  -27.4446   20.0801 C   0  0  0  0  0  0
  -25.5900  -33.8614   24.2338 N   0  0  0  0  0  0
  -23.4008  -30.4940   21.5497 C   0  0  2  0  0  0
  -24.8424  -28.9527   20.1206 C   0  0  0  0  0  0
  -22.7417  -29.4678   22.4993 C   0  0  0  0  0  0
  -18.0272  -28.1375   22.8483 C   0  0  0  0  0  0
  -24.1474  -36.7322   23.2639 C   0  0  0  0  0  0
  -25.9268  -30.8395   21.3532 C   0  0  0  0  0  0
  -26.0018  -29.4701   20.7081 C   0  0  0  0  0  0
  -27.1990  -28.7220   20.6840 C   0  0  0  0  0  0
  -26.0508  -26.9281   19.5136 C   0  0  0  0  0  0
  -24.8600  -27.6796   19.5271 C   0  0  0  0  0  0
  -23.6073  -29.8232   20.1648 C   0  0  0  0  0  0
  -25.4088  -36.3131   24.0353 C   0  0  1  0  0  0
  -20.5867  -28.3664   23.1311 C   0  0  2  0  0  0
  -20.6749  -26.9398   22.5410 C   0  0  0  0  0  0
  -19.5729  -26.6387   21.5198 C   0  0  0  0  0  0
  -18.1917  -26.7923   22.1621 C   0  0  0  0  0  0
  -19.1527  -28.8831   23.2902 C   0  0  0  0  0  0
  -18.9459  -30.1433   23.8919 C   0  0  0  0  0  0
  -17.6464  -30.6580   24.0565 C   0  0  0  0  0  0
  -25.9017  -34.9486   23.5151 C   0  0  0  0  0  0
  -16.5351  -29.9090   23.6308 C   0  0  0  0  0  0
  -16.7266  -28.6504   23.0330 C   0  0  0  0  0  0
  -26.4469  -31.6600   25.0719 C   0  0  0  0  0  0
  -25.3743  -31.3693   26.1481 C   0  0  0  0  0  0
  -27.0289  -30.3059   24.6050 C   0  0  0  0  0  0
  -27.6066  -32.4291   25.7479 C   0  0  0  0  0  0
  -27.5576  -37.1821   24.8474 C   0  0  0  0  0  0
  -21.4145  -29.3045   22.3735 N   0  0  0  0  0  0
  -26.4288  -37.3807   23.9427 N   0  0  0  0  0  0
  -24.6666  -31.0817   22.0965 N   0  0  0  0  0  0
  -23.4192  -28.8220   23.3033 O   0  0  0  0  0  0
  -28.4628  -26.7971   20.0701 O   0  0  0  0  0  0
  -26.5578  -34.8948   22.4714 O   0  0  0  0  0  0
  -23.5354  -32.1419   23.7520 O   0  0  0  0  0  0
  -30.5507  -18.9638   19.5515 C   0  0  0  0  0  0
  -28.9291  -19.9501   21.6028 C   0  0  0  0  0  0
  -29.7438  -18.0559   20.2751 C   0  0  0  0  0  0
  -28.9222  -18.5666   21.3144 C   0  0  0  0  0  0
  -30.5459  -20.3453   19.8302 C   0  0  0  0  0  0
  -29.7055  -20.8555   20.8488 C   0  0  0  0  0  0
  -33.6654  -20.5281   19.2498 C   0  0  0  0  0  0
  -29.7071  -16.6005   19.7849 C   0  0  0  0  0  0
  -28.9004  -24.4608   20.6137 C   0  0  0  0  0  0
  -32.5790  -21.5231   19.6784 C   0  0  0  0  0  0
  -28.6439  -25.4966   19.5012 C   0  0  0  0  0  0
  -29.2429  -23.0616   20.0675 C   0  0  0  0  0  0
  -28.0498  -17.7483   22.0332 N   0  0  0  0  0  0
  -29.8594  -15.5031   20.7547 N   0  0  0  0  0  0
  -31.3403  -21.1685   19.0740 O   0  0  0  0  0  0
  -29.6112  -22.1997   21.1468 O   0  0  0  0  0  0
  -31.4700  -12.3701   19.1422 H   0  0  0  0  0  0
  -30.3166  -11.2715   19.8365 H   0  0  0  0  0  0
  -29.7405  -11.7653   17.4386 H   0  0  0  0  0  0
  -29.6832  -13.4739   17.7820 H   0  0  0  0  0  0
  -27.8205  -11.3062   18.8087 H   0  0  0  0  0  0
  -27.3775  -12.6461   17.7871 H   0  0  0  0  0  0
  -27.7055  -14.2436   19.5736 H   0  0  0  0  0  0
  -28.6692  -11.9603   21.3722 H   0  0  0  0  0  0
  -28.4766  -13.6122   21.8697 H   0  0  0  0  0  0
  -25.2772   -9.5658   22.4761 H   0  0  0  0  0  0
  -23.9987   -7.4630   22.7488 H   0  0  0  0  0  0
  -21.0818   -8.8824   19.8974 H   0  0  0  0  0  0
  -22.3728  -10.9694   19.6177 H   0  0  0  0  0  0
  -21.2032   -7.6156   23.9730 H   0  0  0  0  0  0
  -21.1462   -6.0512   25.9072 H   0  0  0  0  0  0
  -22.0599   -2.7617   23.2842 H   0  0  0  0  0  0
  -22.4076  -11.9955   22.4832 H   0  0  0  0  0  0
  -21.1116  -13.1347   22.2611 H   0  0  0  0  0  0
  -24.6465  -15.8288   20.4842 H   0  0  0  0  0  0
  -26.2487  -15.6206   19.9972 H   0  0  0  0  0  0
  -26.7129  -32.5559   23.1171 H   0  0  0  0  0  0
  -25.0073  -33.9742   25.0510 H   0  0  0  0  0  0
  -22.6913  -31.3108   21.4101 H   0  0  0  0  0  0
  -23.3738  -35.9656   23.3314 H   0  0  0  0  0  0
  -24.3572  -36.8916   22.2053 H   0  0  0  0  0  0
  -23.7220  -37.6541   23.6613 H   0  0  0  0  0  0
  -26.0272  -31.5987   20.5760 H   0  0  0  0  0  0
  -26.8209  -30.9057   21.9609 H   0  0  0  0  0  0
  -28.1014  -29.1261   21.1206 H   0  0  0  0  0  0
  -26.0002  -25.9546   19.0551 H   0  0  0  0  0  0
  -23.9616  -27.2696   19.0842 H   0  0  0  0  0  0
  -23.7232  -30.5940   19.4014 H   0  0  0  0  0  0
  -22.7311  -29.2436   19.8668 H   0  0  0  0  0  0
  -25.1264  -36.2009   25.0844 H   0  0  0  0  0  0
  -20.9955  -28.3217   24.1435 H   0  0  0  0  0  0
  -20.5612  -26.2282   23.3605 H   0  0  0  0  0  0
  -21.6628  -26.7406   22.1237 H   0  0  0  0  0  0
  -19.6883  -25.6301   21.1215 H   0  0  0  0  0  0
  -19.6667  -27.3203   20.6728 H   0  0  0  0  0  0
  -17.4184  -26.6666   21.4027 H   0  0  0  0  0  0
  -18.0329  -26.0063   22.9014 H   0  0  0  0  0  0
  -19.7936  -30.7232   24.2319 H   0  0  0  0  0  0
  -17.5018  -31.6259   24.5174 H   0  0  0  0  0  0
  -15.5350  -30.3005   23.7604 H   0  0  0  0  0  0
  -15.8667  -28.0826   22.7030 H   0  0  0  0  0  0
  -24.5931  -30.7014   25.7831 H   0  0  0  0  0  0
  -24.8910  -32.2841   26.4925 H   0  0  0  0  0  0
  -25.8123  -30.8886   27.0240 H   0  0  0  0  0  0
  -26.2813  -29.6843   24.1106 H   0  0  0  0  0  0
  -27.4108  -29.7273   25.4476 H   0  0  0  0  0  0
  -27.8625  -30.4429   23.9155 H   0  0  0  0  0  0
  -27.2708  -33.3588   26.2089 H   0  0  0  0  0  0
  -28.3857  -32.6843   25.0278 H   0  0  0  0  0  0
  -28.0737  -31.8376   26.5371 H   0  0  0  0  0  0
  -28.2627  -38.0089   24.7512 H   0  0  0  0  0  0
  -28.1046  -36.2634   24.6306 H   0  0  0  0  0  0
  -27.2308  -37.1492   25.8882 H   0  0  0  0  0  0
  -20.9307  -29.8828   21.7015 H   0  0  0  0  0  0
  -26.0197  -38.2907   24.1399 H   0  0  0  0  0  0
  -31.1738  -18.6061   18.7443 H   0  0  0  0  0  0
  -28.2873  -20.3455   22.3770 H   0  0  0  0  0  0
  -34.6426  -20.8150   19.6397 H   0  0  0  0  0  0
  -33.7423  -20.4848   18.1637 H   0  0  0  0  0  0
  -33.4497  -19.5226   19.6085 H   0  0  0  0  0  0
  -30.4186  -16.4872   18.9656 H   0  0  0  0  0  0
  -28.7339  -16.4543   19.3167 H   0  0  0  0  0  0
  -28.0332  -24.4013   21.2748 H   0  0  0  0  0  0
  -29.7337  -24.8094   21.2247 H   0  0  0  0  0  0
  -32.8471  -22.5250   19.3427 H   0  0  0  0  0  0
  -32.5078  -21.5707   20.7664 H   0  0  0  0  0  0
  -27.8536  -25.1634   18.8349 H   0  0  0  0  0  0
  -29.5299  -25.5584   18.8672 H   0  0  0  0  0  0
  -30.0533  -23.1606   19.3479 H   0  0  0  0  0  0
  -28.3846  -22.6487   19.5361 H   0  0  0  0  0  0
  -27.2959  -18.2025   22.5391 H   0  0  0  0  0  0
  -27.7345  -16.8950   21.5933 H   0  0  0  0  0  0
  -29.0124  -15.2379   21.2307 H   0  0  0  0  0  0
  1 25  1  0  0  0
  1 30  2  0  0  0
  1 84  1  0  0  0
  2  3  1  0  0  0
  2 25  1  0  0  0
  2 87  1  0  0  0
  2 88  1  0  0  0
  3  4  1  0  0  0
  3 89  1  0  0  0
  3 90  1  0  0  0
  4  5  1  0  0  0
  4 91  1  0  0  0
  4 92  1  0  0  0
  5  6  1  0  0  0
  5 26  1  0  0  0
  5 93  1  0  0  0
  6 25  1  0  0  0
  6 94  1  0  0  0
  6 95  1  0  0  0
  7  8  2  0  0  0
  7 26  1  0  0  0
  7 29  1  0  0  0
  8  9  1  0  0  0
  8 22  1  0  0  0
  9 10  1  0  0  0
  9 27  2  0  0  0
 10 11  2  0  0  0
 10 15  1  0  0  0
 11 12  1  0  0  0
 11 96  1  0  0  0
 12 13  2  0  0  0
 12 97  1  0  0  0
 13 14  1  0  0  0
 13 31  1  0  0  0
 14 15  2  0  0  0
 14 98  1  0  0  0
 15 99  1  0  0  0
 16 17  2  0  0  0
 16 21  1  0  0  0
 16 31  1  0  0  0
 17 18  1  0  0  0
 17100  1  0  0  0
 18 19  2  0  0  0
 18101  1  0  0  0
 19 20  1  0  0  0
 19 24  1  0  0  0
 20 21  2  0  0  0
 20102  1  0  0  0
 21 23  1  0  0  0
 22 28  1  0  0  0
 22 32  2  0  0  0
 26 27  1  0  0  0
 28103  1  0  0  0
 28104  1  0  0  0
 29105  1  0  0  0
 29106  1  0  0  0
 33 34  1  0  0  0
 33 66  1  0  0  0
 33 70  2  0  0  0
 34 36  1  0  0  0
 34 59  1  0  0  0
 34107  1  0  0  0
 35 44  2  0  0  0
 35 45  1  0  0  0
 35 68  1  0  0  0
 36 56  1  0  0  0
 36108  1  0  0  0
 37 39  1  0  0  0
 37 47  1  0  0  0
 37 66  1  0  0  0
 37109  1  0  0  0
 38 43  2  0  0  0
 38 46  1  0  0  0
 38 47  1  0  0  0
 39 64  1  0  0  0
 39 67  2  0  0  0
 40 52  1  0  0  0
 40 53  2  0  0  0
 40 58  1  0  0  0
 41110  1  0  0  0
 41111  1  0  0  0
 41112  1  0  0  0
 41 48  1  0  0  0
 42 43  1  0  0  0
 42 66  1  0  0  0
 42113  1  0  0  0
 42114  1  0  0  0
 43 44  1  0  0  0
 44115  1  0  0  0
 45 46  2  0  0  0
 45116  1  0  0  0
 46117  1  0  0  0
 47118  1  0  0  0
 47119  1  0  0  0
 48 56  1  0  0  0
 48 65  1  0  0  0
 48120  1  0  0  0
 49 50  1  0  0  0
 49 53  1  0  0  0
 49 64  1  0  0  0
 49121  1  0  0  0
 50 51  1  0  0  0
 50122  1  0  0  0
 50123  1  0  0  0
 51 52  1  0  0  0
 51124  1  0  0  0
 51125  1  0  0  0
 52126  1  0  0  0
 52127  1  0  0  0
 53 54  1  0  0  0
 54 55  2  0  0  0
 54128  1  0  0  0
 55 57  1  0  0  0
 55129  1  0  0  0
 56 69  2  0  0  0
 57 58  2  0  0  0
 57130  1  0  0  0
 58131  1  0  0  0
 59 60  1  0  0  0
 59 61  1  0  0  0
 59 62  1  0  0  0
 60132  1  0  0  0
 60133  1  0  0  0
 60134  1  0  0  0
 61135  1  0  0  0
 61136  1  0  0  0
 61137  1  0  0  0
 62138  1  0  0  0
 62139  1  0  0  0
 62140  1  0  0  0
 63 65  1  0  0  0
 63141  1  0  0  0
 63142  1  0  0  0
 63143  1  0  0  0
 64144  1  0  0  0
 65145  1  0  0  0
 68 81  1  0  0  0
 71 73  2  0  0  0
 71 75  1  0  0  0
 71146  1  0  0  0
 72 74  2  0  0  0
 72 76  1  0  0  0
 72147  1  0  0  0
 73 74  1  0  0  0
 73 78  1  0  0  0
 74 83  1  0  0  0
 75 76  2  0  0  0
 75 85  1  0  0  0
 76 86  1  0  0  0
 77 80  1  0  0  0
 77148  1  0  0  0
 77149  1  0  0  0
 77150  1  0  0  0
 78 84  1  0  0  0
 78151  1  0  0  0
 78152  1  0  0  0
 79 81  1  0  0  0
 79 82  1  0  0  0
 79153  1  0  0  0
 79154  1  0  0  0
 80 85  1  0  0  0
 80155  1  0  0  0
 80156  1  0  0  0
 81157  1  0  0  0
 81158  1  0  0  0
 82 86  1  0  0  0
 82159  1  0  0  0
 82160  1  0  0  0
 83161  1  0  0  0
 83162  1  0  0  0
 84163  1  0  0  0
M  ISO  4   1 100  68 101  81 101  84 100
M  END
> <chiral flag>
0

> <version>
0

> <s_m_source_file>
/data/baiqing/PycharmProjects/Reinvent-master-3.2/result/LINK_invent/BTK/process_docking_weight1_custom_product_contain_oxygen_bond_distance_aromatic_linkinvent_7_9_3/rearranged_h_0105.sdf

> <i_m_source_file_index>
15

> <r_mmod_Potential_Energy-OPLS-2005>
-27.6543464660645

> <r_mmod_Stretch_Energy-OPLS-2005>
36.6412696838379

> <r_mmod_Bend_Energy-OPLS-2005>
116.598823547363

> <r_mmod_Torsional_Energy-OPLS-2005>
280.706726074219

> <r_mmod_Improper_Torsional_Energy-OPLS-2005>
16.5182209014893

> <r_mmod_Van_der_Waal_Energy-OPLS-2005>
151.396377563477

> <r_mmod_Electrostatic_Energy-OPLS-2005>
-417.43310546875

> <r_mmod_Solvation_Energy-OPLS-2005>
-226.042922973633

> <b_mmod_Minimization_Converged-OPLS-2005>
0

> <r_mmod_RMS_Derivative-OPLS-2005>
2.61358714103699

$$$$
15
                    3D
 Structure written by MMmdl.
170179  0  0  1  0            999 V2000
  -30.7105  -14.4528   20.5862 C   0  0  0  0  0  0
  -30.4267  -12.3050   19.4224 C   0  0  0  0  0  0
  -29.4931  -12.5036   18.2100 C   0  0  0  0  0  0
  -28.0107  -12.3724   18.6209 C   0  0  0  0  0  0
  -27.6629  -13.1987   19.8898 C   0  0  2  0  0  0
  -28.7103  -12.9269   20.9951 C   0  0  0  0  0  0
  -25.2543  -13.8107   20.5568 C   0  0  0  0  0  0
  -24.1816  -13.0408   20.9166 C   0  0  0  0  0  0
  -24.6385  -11.6878   20.8774 C   0  0  0  0  0  0
  -23.9061  -10.4268   21.0443 C   0  0  0  0  0  0
  -24.3612   -9.4177   21.9208 C   0  0  0  0  0  0
  -23.6286   -8.2206   22.0754 C   0  0  0  0  0  0
  -22.4266   -8.0260   21.3539 C   0  0  0  0  0  0
  -21.9907   -9.0246   20.4646 C   0  0  0  0  0  0
  -22.7242  -10.2122   20.3083 C   0  0  0  0  0  0
  -21.6831   -6.0742   22.5290 C   0  0  0  0  0  0
  -21.3998   -6.5651   23.8227 C   0  0  0  0  0  0
  -21.3652   -5.6798   24.9183 C   0  0  0  0  0  0
  -21.6049   -4.3065   24.7228 C   0  0  0  0  0  0
  -21.8816   -3.8160   23.4345 C   0  0  0  0  0  0
  -21.9190   -4.6976   22.3407 C   0  0  0  0  0  0
  -22.7843  -13.5214   21.1850 C   0  0  0  0  0  0
  -22.1652   -4.2167   21.0980 F   0  0  0  0  0  0
  -21.5642   -3.4546   25.7736 F   0  0  0  0  0  0
  -30.0247  -13.2826   20.4455 N   0  0  0  0  0  0
  -26.3028  -12.9279   20.3455 N   0  0  0  0  0  0
  -25.9322  -11.6454   20.5866 N   0  0  0  0  0  0
  -22.0508  -12.8207   22.0425 N   0  0  0  0  0  0
  -25.4182  -15.1768   20.3667 N   0  0  0  0  0  0
  -31.8558  -14.5969   20.1586 O   0  0  0  0  0  0
  -21.6613   -6.8871   21.4240 O   0  0  0  0  0  0
  -22.3521  -14.5528   20.6717 O   0  0  0  0  0  0
  -24.6097  -31.8709   23.2144 C   0  0  0  0  0  0
  -25.9009  -32.4834   23.8424 C   0  0  1  0  0  0
  -27.2421  -27.4702   20.0821 C   0  0  0  0  0  0
  -25.5889  -33.8633   24.2351 N   0  0  0  0  0  0
  -23.3980  -30.4938   21.5533 C   0  0  2  0  0  0
  -24.8471  -28.9605   20.1180 C   0  0  0  0  0  0
  -22.7378  -29.4679   22.5005 C   0  0  0  0  0  0
  -18.0260  -28.1361   22.8523 C   0  0  0  0  0  0
  -24.1496  -36.7334   23.2641 C   0  0  0  0  0  0
  -25.9242  -30.8410   21.3675 C   0  0  0  0  0  0
  -26.0031  -29.4772   20.7168 C   0  0  0  0  0  0
  -27.2033  -28.7351   20.7048 C   0  0  0  0  0  0
  -26.0760  -26.9646   19.4715 C   0  0  0  0  0  0
  -24.8739  -27.6976   19.4986 C   0  0  0  0  0  0
  -23.6061  -29.8221   20.1689 C   0  0  0  0  0  0
  -25.4109  -36.3118   24.0341 C   0  0  1  0  0  0
  -20.5847  -28.3665   23.1308 C   0  0  2  0  0  0
  -20.6767  -26.9422   22.5361 C   0  0  0  0  0  0
  -19.5695  -26.6371   21.5224 C   0  0  0  0  0  0
  -18.1905  -26.7879   22.1718 C   0  0  0  0  0  0
  -19.1510  -28.8835   23.2903 C   0  0  0  0  0  0
  -18.9444  -30.1451   23.8877 C   0  0  0  0  0  0
  -17.6450  -30.6597   24.0538 C   0  0  0  0  0  0
  -25.9031  -34.9481   23.5136 C   0  0  0  0  0  0
  -16.5341  -29.9092   23.6317 C   0  0  0  0  0  0
  -16.7253  -28.6501   23.0355 C   0  0  0  0  0  0
  -26.4456  -31.6599   25.0734 C   0  0  0  0  0  0
  -25.3747  -31.3689   26.1499 C   0  0  0  0  0  0
  -27.0289  -30.3048   24.6088 C   0  0  0  0  0  0
  -27.6032  -32.4323   25.7484 C   0  0  0  0  0  0
  -27.5584  -37.1821   24.8456 C   0  0  0  0  0  0
  -21.4114  -29.3053   22.3736 N   0  0  0  0  0  0
  -26.4303  -37.3791   23.9396 N   0  0  0  0  0  0
  -24.6616  -31.0826   22.1032 N   0  0  0  0  0  0
  -23.4155  -28.8215   23.3049 O   0  0  0  0  0  0
  -28.4091  -26.7476   20.0286 O   0  0  0  0  0  0
  -26.5590  -34.8919   22.4700 O   0  0  0  0  0  0
  -23.5303  -32.1453   23.7565 O   0  0  0  0  0  0
  -29.6050  -18.4276   21.3311 C   0  0  0  0  0  0
  -27.0096  -19.2144   21.9633 C   0  0  0  0  0  0
  -29.2354  -19.7848   21.1882 C   0  0  0  0  0  0
  -28.6848  -17.4532   21.7697 C   0  0  0  0  0  0
  -27.8884  -20.1979   21.4261 C   0  0  0  0  0  0
  -27.3905  -17.8636   22.1561 C   0  0  0  0  0  0
  -26.6041  -24.4044   21.5468 C   0  0  0  0  0  0
  -27.7756  -24.5468   20.9024 C   0  0  0  0  0  0
  -25.6000  -23.2945   21.3509 C   0  0  0  0  0  0
  -28.3664  -23.5329   19.9161 C   0  0  0  0  0  0
  -26.1005  -21.8833   21.6970 C   0  0  0  0  0  0
  -27.7450  -22.1085   19.8522 C   0  0  0  0  0  0
  -30.3499  -20.7549   20.8231 C   0  0  0  0  0  0
  -25.2587  -17.2826   23.1366 C   0  0  0  0  0  0
  -29.0677  -15.9716   21.8291 C   0  0  0  0  0  0
  -28.5903  -25.8230   21.1000 C   0  0  0  0  0  0
  -27.4260  -21.5264   21.1658 N   0  0  0  0  0  0
  -30.0075  -15.5801   20.7796 N   0  0  0  0  0  0
  -26.5554  -16.9040   22.6929 O   0  0  0  0  0  0
  -31.4692  -12.4113   19.1158 H   0  0  0  0  0  0
  -30.3472  -11.2901   19.8143 H   0  0  0  0  0  0
  -29.7280  -11.7784   17.4302 H   0  0  0  0  0  0
  -29.6677  -13.4894   17.7759 H   0  0  0  0  0  0
  -27.8168  -11.3151   18.8092 H   0  0  0  0  0  0
  -27.3579  -12.6533   17.7945 H   0  0  0  0  0  0
  -27.7170  -14.2510   19.6118 H   0  0  0  0  0  0
  -28.6954  -11.8647   21.2438 H   0  0  0  0  0  0
  -28.4923  -13.4102   21.9436 H   0  0  0  0  0  0
  -25.2762   -9.5642   22.4772 H   0  0  0  0  0  0
  -24.0015   -7.4577   22.7451 H   0  0  0  0  0  0
  -21.0855   -8.8781   19.8909 H   0  0  0  0  0  0
  -22.3743  -10.9676   19.6191 H   0  0  0  0  0  0
  -21.1964   -7.6153   23.9746 H   0  0  0  0  0  0
  -21.1477   -6.0511   25.9095 H   0  0  0  0  0  0
  -22.0596   -2.7622   23.2837 H   0  0  0  0  0  0
  -22.4124  -11.9859   22.4796 H   0  0  0  0  0  0
  -21.1131  -13.1226   22.2671 H   0  0  0  0  0  0
  -24.6430  -15.8252   20.4368 H   0  0  0  0  0  0
  -26.2784  -15.6165   20.0656 H   0  0  0  0  0  0
  -26.7072  -32.5551   23.1187 H   0  0  0  0  0  0
  -25.0018  -33.9799   25.0475 H   0  0  0  0  0  0
  -22.6862  -31.3101   21.4130 H   0  0  0  0  0  0
  -23.3743  -35.9684   23.3310 H   0  0  0  0  0  0
  -24.3591  -36.8941   22.2053 H   0  0  0  0  0  0
  -23.7272  -37.6553   23.6649 H   0  0  0  0  0  0
  -26.0361  -31.6092   20.6018 H   0  0  0  0  0  0
  -26.8120  -30.8935   21.9853 H   0  0  0  0  0  0
  -28.0967  -29.1318   21.1640 H   0  0  0  0  0  0
  -26.0999  -26.0047   18.9766 H   0  0  0  0  0  0
  -23.9848  -27.2955   19.0339 H   0  0  0  0  0  0
  -23.7124  -30.5971   19.4099 H   0  0  0  0  0  0
  -22.7310  -29.2398   19.8732 H   0  0  0  0  0  0
  -25.1290  -36.1989   25.0837 H   0  0  0  0  0  0
  -20.9951  -28.3221   24.1422 H   0  0  0  0  0  0
  -20.5775  -26.2248   23.3524 H   0  0  0  0  0  0
  -21.6617  -26.7549   22.1069 H   0  0  0  0  0  0
  -19.6859  -25.6288   21.1249 H   0  0  0  0  0  0
  -19.6570  -27.3171   20.6742 H   0  0  0  0  0  0
  -17.4094  -26.6519   21.4229 H   0  0  0  0  0  0
  -18.0440  -26.0052   22.9179 H   0  0  0  0  0  0
  -19.7915  -30.7274   24.2238 H   0  0  0  0  0  0
  -17.5002  -31.6284   24.5127 H   0  0  0  0  0  0
  -15.5343  -30.2989   23.7639 H   0  0  0  0  0  0
  -15.8649  -28.0828   22.7067 H   0  0  0  0  0  0
  -24.5871  -30.7100   25.7825 H   0  0  0  0  0  0
  -24.9013  -32.2852   26.5032 H   0  0  0  0  0  0
  -25.8121  -30.8771   27.0196 H   0  0  0  0  0  0
  -26.2825  -29.6801   24.1172 H   0  0  0  0  0  0
  -27.4096  -29.7275   25.4521 H   0  0  0  0  0  0
  -27.8639  -30.4366   23.9207 H   0  0  0  0  0  0
  -27.2624  -33.3564   26.2153 H   0  0  0  0  0  0
  -28.3785  -32.6985   25.0295 H   0  0  0  0  0  0
  -28.0771  -31.8414   26.5324 H   0  0  0  0  0  0
  -28.2606  -38.0113   24.7491 H   0  0  0  0  0  0
  -28.1079  -36.2645   24.6296 H   0  0  0  0  0  0
  -27.2303  -37.1483   25.8860 H   0  0  0  0  0  0
  -20.9265  -29.8745   21.6935 H   0  0  0  0  0  0
  -26.0197  -38.2880   24.1369 H   0  0  0  0  0  0
  -30.6206  -18.1365   21.1074 H   0  0  0  0  0  0
  -26.0014  -19.4799   22.2264 H   0  0  0  0  0  0
  -26.2805  -25.2000   22.2033 H   0  0  0  0  0  0
  -25.2499  -23.3336   20.3166 H   0  0  0  0  0  0
  -24.7213  -23.5191   21.9553 H   0  0  0  0  0  0
  -29.4226  -23.4409   20.1628 H   0  0  0  0  0  0
  -28.3517  -23.9756   18.9197 H   0  0  0  0  0  0
  -25.3411  -21.1970   21.3184 H   0  0  0  0  0  0
  -26.1205  -21.7760   22.7823 H   0  0  0  0  0  0
  -28.3827  -21.4512   19.2646 H   0  0  0  0  0  0
  -26.8293  -22.1554   19.2620 H   0  0  0  0  0  0
  -31.3225  -20.3680   21.1340 H   0  0  0  0  0  0
  -30.2158  -21.7081   21.3315 H   0  0  0  0  0  0
  -30.3966  -20.9276   19.7499 H   0  0  0  0  0  0
  -25.3115  -17.9784   23.9730 H   0  0  0  0  0  0
  -24.7209  -16.3976   23.4786 H   0  0  0  0  0  0
  -24.6670  -17.7258   22.3351 H   0  0  0  0  0  0
  -28.1440  -15.4167   21.6979 H   0  0  0  0  0  0
  -29.4722  -15.7370   22.8154 H   0  0  0  0  0  0
  -29.6487  -25.5746   21.1758 H   0  0  0  0  0  0
  -28.3279  -26.3038   22.0459 H   0  0  0  0  0  0
  -30.5205  -16.3756   20.4328 H   0  0  0  0  0  0
  1 25  1  0  0  0
  1 30  2  0  0  0
  1 88  1  0  0  0
  2  3  1  0  0  0
  2 25  1  0  0  0
  2 90  1  0  0  0
  2 91  1  0  0  0
  3  4  1  0  0  0
  3 92  1  0  0  0
  3 93  1  0  0  0
  4  5  1  0  0  0
  4 94  1  0  0  0
  4 95  1  0  0  0
  5  6  1  0  0  0
  5 26  1  0  0  0
  5 96  1  0  0  0
  6 25  1  0  0  0
  6 97  1  0  0  0
  6 98  1  0  0  0
  7  8  2  0  0  0
  7 26  1  0  0  0
  7 29  1  0  0  0
  8  9  1  0  0  0
  8 22  1  0  0  0
  9 10  1  0  0  0
  9 27  2  0  0  0
 10 11  2  0  0  0
 10 15  1  0  0  0
 11 12  1  0  0  0
 11 99  1  0  0  0
 12 13  2  0  0  0
 12100  1  0  0  0
 13 14  1  0  0  0
 13 31  1  0  0  0
 14 15  2  0  0  0
 14101  1  0  0  0
 15102  1  0  0  0
 16 17  2  0  0  0
 16 21  1  0  0  0
 16 31  1  0  0  0
 17 18  1  0  0  0
 17103  1  0  0  0
 18 19  2  0  0  0
 18104  1  0  0  0
 19 20  1  0  0  0
 19 24  1  0  0  0
 20 21  2  0  0  0
 20105  1  0  0  0
 21 23  1  0  0  0
 22 28  1  0  0  0
 22 32  2  0  0  0
 26 27  1  0  0  0
 28106  1  0  0  0
 28107  1  0  0  0
 29108  1  0  0  0
 29109  1  0  0  0
 33 34  1  0  0  0
 33 66  1  0  0  0
 33 70  2  0  0  0
 34 36  1  0  0  0
 34 59  1  0  0  0
 34110  1  0  0  0
 35 44  2  0  0  0
 35 45  1  0  0  0
 35 68  1  0  0  0
 36 56  1  0  0  0
 36111  1  0  0  0
 37 39  1  0  0  0
 37 47  1  0  0  0
 37 66  1  0  0  0
 37112  1  0  0  0
 38 43  2  0  0  0
 38 46  1  0  0  0
 38 47  1  0  0  0
 39 64  1  0  0  0
 39 67  2  0  0  0
 40 52  1  0  0  0
 40 53  2  0  0  0
 40 58  1  0  0  0
 41113  1  0  0  0
 41114  1  0  0  0
 41115  1  0  0  0
 41 48  1  0  0  0
 42 43  1  0  0  0
 42 66  1  0  0  0
 42116  1  0  0  0
 42117  1  0  0  0
 43 44  1  0  0  0
 44118  1  0  0  0
 45 46  2  0  0  0
 45119  1  0  0  0
 46120  1  0  0  0
 47121  1  0  0  0
 47122  1  0  0  0
 48 56  1  0  0  0
 48 65  1  0  0  0
 48123  1  0  0  0
 49 50  1  0  0  0
 49 53  1  0  0  0
 49 64  1  0  0  0
 49124  1  0  0  0
 50 51  1  0  0  0
 50125  1  0  0  0
 50126  1  0  0  0
 51 52  1  0  0  0
 51127  1  0  0  0
 51128  1  0  0  0
 52129  1  0  0  0
 52130  1  0  0  0
 53 54  1  0  0  0
 54 55  2  0  0  0
 54131  1  0  0  0
 55 57  1  0  0  0
 55132  1  0  0  0
 56 69  2  0  0  0
 57 58  2  0  0  0
 57133  1  0  0  0
 58134  1  0  0  0
 59 60  1  0  0  0
 59 61  1  0  0  0
 59 62  1  0  0  0
 60135  1  0  0  0
 60136  1  0  0  0
 60137  1  0  0  0
 61138  1  0  0  0
 61139  1  0  0  0
 61140  1  0  0  0
 62141  1  0  0  0
 62142  1  0  0  0
 62143  1  0  0  0
 63 65  1  0  0  0
 63144  1  0  0  0
 63145  1  0  0  0
 63146  1  0  0  0
 64147  1  0  0  0
 65148  1  0  0  0
 68 86  1  0  0  0
 71 73  2  0  0  0
 71 74  1  0  0  0
 71149  1  0  0  0
 72 75  2  0  0  0
 72 76  1  0  0  0
 72150  1  0  0  0
 73 75  1  0  0  0
 73 83  1  0  0  0
 74 76  2  0  0  0
 74 85  1  0  0  0
 75 87  1  0  0  0
 76 89  1  0  0  0
 77 78  2  0  0  0
 77 79  1  0  0  0
 77151  1  0  0  0
 78 80  1  0  0  0
 78 86  1  0  0  0
 79 81  1  0  0  0
 79152  1  0  0  0
 79153  1  0  0  0
 80 82  1  0  0  0
 80154  1  0  0  0
 80155  1  0  0  0
 81 87  1  0  0  0
 81156  1  0  0  0
 81157  1  0  0  0
 82 87  1  0  0  0
 82158  1  0  0  0
 82159  1  0  0  0
 83160  1  0  0  0
 83161  1  0  0  0
 83162  1  0  0  0
 84 89  1  0  0  0
 84163  1  0  0  0
 84164  1  0  0  0
 84165  1  0  0  0
 85 88  1  0  0  0
 85166  1  0  0  0
 85167  1  0  0  0
 86168  1  0  0  0
 86169  1  0  0  0
 88170  1  0  0  0
M  ISO  4   1 100  68 101  86 101  88 100
M  END
> <chiral flag>
0

> <version>
0

> <s_m_source_file>
/data/baiqing/PycharmProjects/Reinvent-master-3.2/result/LINK_invent/BTK/process_docking_weight1_custom_product_contain_oxygen_bond_distance_aromatic_linkinvent_7_9_3/rearranged_h_0105.sdf

> <i_m_source_file_index>
16

> <r_mmod_Potential_Energy-OPLS-2005>
29.2978458404541

> <r_mmod_Stretch_Energy-OPLS-2005>
41.6815147399902

> <r_mmod_Bend_Energy-OPLS-2005>
140.374374389648

> <r_mmod_Torsional_Energy-OPLS-2005>
295.491119384766

> <r_mmod_Improper_Torsional_Energy-OPLS-2005>
18.6671257019043

> <r_mmod_Van_der_Waal_Energy-OPLS-2005>
176.308715820312

> <r_mmod_Electrostatic_Energy-OPLS-2005>
-447.586975097656

> <r_mmod_Solvation_Energy-OPLS-2005>
-207.159927368164

> <b_mmod_Minimization_Converged-OPLS-2005>
0

> <r_mmod_RMS_Derivative-OPLS-2005>
2.83898711204529

$$$$
16
                    3D
 Structure written by MMmdl.
155163  0  0  1  0            999 V2000
  -30.7290  -14.4507   20.6194 C   0  0  0  0  0  0
  -30.4194  -12.3145   19.4133 C   0  0  0  0  0  0
  -29.4904  -12.5150   18.2004 C   0  0  0  0  0  0
  -28.0132  -12.3726   18.6158 C   0  0  0  0  0  0
  -27.6612  -13.2090   19.8751 C   0  0  2  0  0  0
  -28.7027  -12.9864   20.9935 C   0  0  0  0  0  0
  -25.2589  -13.8163   20.5685 C   0  0  0  0  0  0
  -24.1840  -13.0436   20.9169 C   0  0  0  0  0  0
  -24.6395  -11.6904   20.8728 C   0  0  0  0  0  0
  -23.9065  -10.4291   21.0403 C   0  0  0  0  0  0
  -24.3618   -9.4205   21.9180 C   0  0  0  0  0  0
  -23.6292   -8.2243   22.0752 C   0  0  0  0  0  0
  -22.4272   -8.0282   21.3544 C   0  0  0  0  0  0
  -21.9910   -9.0257   20.4645 C   0  0  0  0  0  0
  -22.7239  -10.2134   20.3052 C   0  0  0  0  0  0
  -21.6854   -6.0734   22.5276 C   0  0  0  0  0  0
  -21.4017   -6.5639   23.8211 C   0  0  0  0  0  0
  -21.3658   -5.6791   24.9171 C   0  0  0  0  0  0
  -21.6043   -4.3054   24.7221 C   0  0  0  0  0  0
  -21.8821   -3.8145   23.4343 C   0  0  0  0  0  0
  -21.9195   -4.6963   22.3399 C   0  0  0  0  0  0
  -22.7863  -13.5233   21.1836 C   0  0  0  0  0  0
  -22.1663   -4.2146   21.0976 F   0  0  0  0  0  0
  -21.5627   -3.4539   25.7736 F   0  0  0  0  0  0
  -30.0331  -13.2941   20.4413 N   0  0  0  0  0  0
  -26.3022  -12.9335   20.3369 N   0  0  0  0  0  0
  -25.9322  -11.6488   20.5761 N   0  0  0  0  0  0
  -22.0509  -12.8225   22.0395 N   0  0  0  0  0  0
  -25.4328  -15.1883   20.4117 N   0  0  0  0  0  0
  -31.8292  -14.6491   20.0990 O   0  0  0  0  0  0
  -21.6639   -6.8878   21.4238 O   0  0  0  0  0  0
  -22.3548  -14.5543   20.6693 O   0  0  0  0  0  0
  -24.6157  -31.8677   23.2095 C   0  0  0  0  0  0
  -25.9046  -32.4820   23.8399 C   0  0  1  0  0  0
  -27.2333  -27.4288   20.0943 C   0  0  0  0  0  0
  -25.5899  -33.8617   24.2331 N   0  0  0  0  0  0
  -23.4041  -30.4916   21.5500 C   0  0  2  0  0  0
  -24.8513  -28.9568   20.1143 C   0  0  0  0  0  0
  -22.7414  -29.4666   22.4985 C   0  0  0  0  0  0
  -18.0276  -28.1388   22.8495 C   0  0  0  0  0  0
  -24.1485  -36.7313   23.2636 C   0  0  0  0  0  0
  -25.9342  -30.8305   21.3650 C   0  0  0  0  0  0
  -26.0126  -29.4644   20.7125 C   0  0  0  0  0  0
  -27.2083  -28.7077   20.6995 C   0  0  0  0  0  0
  -26.0565  -26.9417   19.4837 C   0  0  0  0  0  0
  -24.8685  -27.6945   19.4969 C   0  0  0  0  0  0
  -23.6134  -29.8233   20.1648 C   0  0  0  0  0  0
  -25.4104  -36.3111   24.0340 C   0  0  1  0  0  0
  -20.5866  -28.3678   23.1313 C   0  0  2  0  0  0
  -20.6763  -26.9414   22.5416 C   0  0  0  0  0  0
  -19.5741  -26.6395   21.5213 C   0  0  0  0  0  0
  -18.1922  -26.7939   22.1627 C   0  0  0  0  0  0
  -19.1524  -28.8852   23.2904 C   0  0  0  0  0  0
  -18.9455  -30.1456   23.8918 C   0  0  0  0  0  0
  -17.6455  -30.6591   24.0573 C   0  0  0  0  0  0
  -25.9032  -34.9475   23.5139 C   0  0  0  0  0  0
  -16.5347  -29.9095   23.6325 C   0  0  0  0  0  0
  -16.7265  -28.6512   23.0349 C   0  0  0  0  0  0
  -26.4466  -31.6595   25.0726 C   0  0  0  0  0  0
  -25.3743  -31.3712   26.1489 C   0  0  0  0  0  0
  -27.0283  -30.3034   24.6103 C   0  0  0  0  0  0
  -27.6063  -32.4299   25.7475 C   0  0  0  0  0  0
  -27.5584  -37.1809   24.8460 C   0  0  0  0  0  0
  -21.4141  -29.3049   22.3719 N   0  0  0  0  0  0
  -26.4288  -37.3798   23.9415 N   0  0  0  0  0  0
  -24.6695  -31.0774   22.0999 N   0  0  0  0  0  0
  -23.4181  -28.8207   23.3032 O   0  0  0  0  0  0
  -28.3803  -26.6612   20.0892 O   0  0  0  0  0  0
  -26.5587  -34.8925   22.4697 O   0  0  0  0  0  0
  -23.5351  -32.1439   23.7487 O   0  0  0  0  0  0
  -28.9672  -20.0361   21.3964 C   0  0  0  0  0  0
  -30.7650  -19.8563   19.7832 C   0  0  0  0  0  0
  -30.3065  -17.9695   21.2984 C   0  0  0  0  0  0
  -29.7388  -20.6296   20.3666 C   0  0  0  0  0  0
  -29.2366  -18.7221   21.8584 C   0  0  0  0  0  0
  -31.0518  -18.5524   20.2445 C   0  0  0  0  0  0
  -29.2103  -24.4111   20.3512 C   0  0  0  0  0  0
  -28.2627  -25.3558   20.5252 C   0  0  0  0  0  0
  -30.7630  -16.6188   21.8865 C   0  0  0  0  0  0
  -29.1064  -22.9751   20.8692 C   0  0  0  0  0  0
  -28.4481  -18.2068   22.8933 N   0  0  0  0  0  0
  -29.5273  -21.9512   19.9081 N   0  0  0  0  0  0
  -30.1293  -15.3909   21.3717 N   0  0  0  0  0  0
  -32.0839  -17.8746   19.6854 F   0  0  0  0  0  0
  -31.4631  -12.4127   19.1095 H   0  0  0  0  0  0
  -30.3211  -11.3017   19.8077 H   0  0  0  0  0  0
  -29.7293  -11.7925   17.4188 H   0  0  0  0  0  0
  -29.6574  -13.5020   17.7663 H   0  0  0  0  0  0
  -27.8252  -11.3163   18.8103 H   0  0  0  0  0  0
  -27.3604  -12.6488   17.7866 H   0  0  0  0  0  0
  -27.7072  -14.2587   19.5833 H   0  0  0  0  0  0
  -28.6808  -11.9486   21.3300 H   0  0  0  0  0  0
  -28.4566  -13.5799   21.8745 H   0  0  0  0  0  0
  -25.2766   -9.5676   22.4752 H   0  0  0  0  0  0
  -24.0002   -7.4634   22.7472 H   0  0  0  0  0  0
  -21.0841   -8.8776   19.8952 H   0  0  0  0  0  0
  -22.3701  -10.9674   19.6160 H   0  0  0  0  0  0
  -21.2013   -7.6148   23.9709 H   0  0  0  0  0  0
  -21.1479   -6.0523   25.9073 H   0  0  0  0  0  0
  -22.0605   -2.7607   23.2845 H   0  0  0  0  0  0
  -22.4121  -11.9875   22.4766 H   0  0  0  0  0  0
  -21.1131  -13.1256   22.2612 H   0  0  0  0  0  0
  -24.6745  -15.8502   20.5338 H   0  0  0  0  0  0
  -26.2963  -15.6276   20.1178 H   0  0  0  0  0  0
  -26.7119  -32.5533   23.1167 H   0  0  0  0  0  0
  -25.0062  -33.9774   25.0486 H   0  0  0  0  0  0
  -22.6935  -31.3088   21.4098 H   0  0  0  0  0  0
  -23.3739  -35.9652   23.3302 H   0  0  0  0  0  0
  -24.3584  -36.8917   22.2048 H   0  0  0  0  0  0
  -23.7241  -37.6524   23.6643 H   0  0  0  0  0  0
  -26.0461  -31.5942   20.5938 H   0  0  0  0  0  0
  -26.8224  -30.8850   21.9829 H   0  0  0  0  0  0
  -28.1071  -29.0928   21.1621 H   0  0  0  0  0  0
  -26.0574  -25.9746   19.0012 H   0  0  0  0  0  0
  -23.9779  -27.2981   19.0289 H   0  0  0  0  0  0
  -23.7215  -30.5963   19.4034 H   0  0  0  0  0  0
  -22.7370  -29.2430   19.8708 H   0  0  0  0  0  0
  -25.1275  -36.1978   25.0830 H   0  0  0  0  0  0
  -20.9968  -28.3255   24.1429 H   0  0  0  0  0  0
  -20.5655  -26.2294   23.3605 H   0  0  0  0  0  0
  -21.6638  -26.7453   22.1219 H   0  0  0  0  0  0
  -19.6891  -25.6307   21.1236 H   0  0  0  0  0  0
  -19.6674  -27.3210   20.6744 H   0  0  0  0  0  0
  -17.4190  -26.6695   21.4030 H   0  0  0  0  0  0
  -18.0316  -26.0073   22.9013 H   0  0  0  0  0  0
  -19.7931  -30.7269   24.2297 H   0  0  0  0  0  0
  -17.5011  -31.6269   24.5176 H   0  0  0  0  0  0
  -15.5350  -30.3003   23.7635 H   0  0  0  0  0  0
  -15.8665  -28.0834   22.7059 H   0  0  0  0  0  0
  -24.5889  -30.7082   25.7836 H   0  0  0  0  0  0
  -24.8966  -32.2873   26.4975 H   0  0  0  0  0  0
  -25.8100  -30.8852   27.0227 H   0  0  0  0  0  0
  -26.2823  -29.6803   24.1153 H   0  0  0  0  0  0
  -27.4037  -29.7262   25.4563 H   0  0  0  0  0  0
  -27.8666  -30.4335   23.9256 H   0  0  0  0  0  0
  -27.2707  -33.3592   26.2089 H   0  0  0  0  0  0
  -28.3849  -32.6863   25.0278 H   0  0  0  0  0  0
  -28.0751  -31.8392   26.5355 H   0  0  0  0  0  0
  -28.2606  -38.0106   24.7522 H   0  0  0  0  0  0
  -28.1081  -36.2642   24.6262 H   0  0  0  0  0  0
  -27.2312  -37.1436   25.8866 H   0  0  0  0  0  0
  -20.9301  -29.8775   21.6942 H   0  0  0  0  0  0
  -26.0177  -38.2874   24.1425 H   0  0  0  0  0  0
  -28.1612  -20.5961   21.8486 H   0  0  0  0  0  0
  -31.3744  -20.2664   18.9915 H   0  0  0  0  0  0
  -30.1225  -24.6781   19.8365 H   0  0  0  0  0  0
  -27.3317  -25.1583   21.0408 H   0  0  0  0  0  0
  -30.6011  -16.6389   22.9646 H   0  0  0  0  0  0
  -31.8480  -16.5532   21.7883 H   0  0  0  0  0  0
  -28.0783  -22.7874   21.1833 H   0  0  0  0  0  0
  -29.7302  -22.8987   21.7614 H   0  0  0  0  0  0
  -27.5648  -18.6587   23.1103 H   0  0  0  0  0  0
  -28.4283  -17.2070   23.0609 H   0  0  0  0  0  0
  -30.1800  -22.2726   19.1960 H   0  0  0  0  0  0
  -29.2154  -15.1604   21.7301 H   0  0  0  0  0  0
  1 25  1  0  0  0
  1 30  2  0  0  0
  1 83  1  0  0  0
  2  3  1  0  0  0
  2 25  1  0  0  0
  2 85  1  0  0  0
  2 86  1  0  0  0
  3  4  1  0  0  0
  3 87  1  0  0  0
  3 88  1  0  0  0
  4  5  1  0  0  0
  4 89  1  0  0  0
  4 90  1  0  0  0
  5  6  1  0  0  0
  5 26  1  0  0  0
  5 91  1  0  0  0
  6 25  1  0  0  0
  6 92  1  0  0  0
  6 93  1  0  0  0
  7  8  2  0  0  0
  7 26  1  0  0  0
  7 29  1  0  0  0
  8  9  1  0  0  0
  8 22  1  0  0  0
  9 10  1  0  0  0
  9 27  2  0  0  0
 10 11  2  0  0  0
 10 15  1  0  0  0
 11 12  1  0  0  0
 11 94  1  0  0  0
 12 13  2  0  0  0
 12 95  1  0  0  0
 13 14  1  0  0  0
 13 31  1  0  0  0
 14 15  2  0  0  0
 14 96  1  0  0  0
 15 97  1  0  0  0
 16 17  2  0  0  0
 16 21  1  0  0  0
 16 31  1  0  0  0
 17 18  1  0  0  0
 17 98  1  0  0  0
 18 19  2  0  0  0
 18 99  1  0  0  0
 19 20  1  0  0  0
 19 24  1  0  0  0
 20 21  2  0  0  0
 20100  1  0  0  0
 21 23  1  0  0  0
 22 28  1  0  0  0
 22 32  2  0  0  0
 26 27  1  0  0  0
 28101  1  0  0  0
 28102  1  0  0  0
 29103  1  0  0  0
 29104  1  0  0  0
 33 34  1  0  0  0
 33 66  1  0  0  0
 33 70  2  0  0  0
 34 36  1  0  0  0
 34 59  1  0  0  0
 34105  1  0  0  0
 35 44  2  0  0  0
 35 45  1  0  0  0
 35 68  1  0  0  0
 36 56  1  0  0  0
 36106  1  0  0  0
 37 39  1  0  0  0
 37 47  1  0  0  0
 37 66  1  0  0  0
 37107  1  0  0  0
 38 43  2  0  0  0
 38 46  1  0  0  0
 38 47  1  0  0  0
 39 64  1  0  0  0
 39 67  2  0  0  0
 40 52  1  0  0  0
 40 53  2  0  0  0
 40 58  1  0  0  0
 41108  1  0  0  0
 41109  1  0  0  0
 41110  1  0  0  0
 41 48  1  0  0  0
 42 43  1  0  0  0
 42 66  1  0  0  0
 42111  1  0  0  0
 42112  1  0  0  0
 43 44  1  0  0  0
 44113  1  0  0  0
 45 46  2  0  0  0
 45114  1  0  0  0
 46115  1  0  0  0
 47116  1  0  0  0
 47117  1  0  0  0
 48 56  1  0  0  0
 48 65  1  0  0  0
 48118  1  0  0  0
 49 50  1  0  0  0
 49 53  1  0  0  0
 49 64  1  0  0  0
 49119  1  0  0  0
 50 51  1  0  0  0
 50120  1  0  0  0
 50121  1  0  0  0
 51 52  1  0  0  0
 51122  1  0  0  0
 51123  1  0  0  0
 52124  1  0  0  0
 52125  1  0  0  0
 53 54  1  0  0  0
 54 55  2  0  0  0
 54126  1  0  0  0
 55 57  1  0  0  0
 55127  1  0  0  0
 56 69  2  0  0  0
 57 58  2  0  0  0
 57128  1  0  0  0
 58129  1  0  0  0
 59 60  1  0  0  0
 59 61  1  0  0  0
 59 62  1  0  0  0
 60130  1  0  0  0
 60131  1  0  0  0
 60132  1  0  0  0
 61133  1  0  0  0
 61134  1  0  0  0
 61135  1  0  0  0
 62136  1  0  0  0
 62137  1  0  0  0
 62138  1  0  0  0
 63 65  1  0  0  0
 63139  1  0  0  0
 63140  1  0  0  0
 63141  1  0  0  0
 64142  1  0  0  0
 65143  1  0  0  0
 68 78  1  0  0  0
 71 74  2  0  0  0
 71 75  1  0  0  0
 71144  1  0  0  0
 72 74  1  0  0  0
 72 76  2  0  0  0
 72145  1  0  0  0
 73 75  2  0  0  0
 73 76  1  0  0  0
 73 79  1  0  0  0
 74 82  1  0  0  0
 75 81  1  0  0  0
 76 84  1  0  0  0
 77 78  2  0  0  0
 77 80  1  0  0  0
 77146  1  0  0  0
 78147  1  0  0  0
 79 83  1  0  0  0
 79148  1  0  0  0
 79149  1  0  0  0
 80 82  1  0  0  0
 80150  1  0  0  0
 80151  1  0  0  0
 81152  1  0  0  0
 81153  1  0  0  0
 82154  1  0  0  0
 83155  1  0  0  0
M  ISO  4   1 100  68 101  78 101  83 100
M  END
> <chiral flag>
0

> <version>
0

> <s_m_source_file>
/data/baiqing/PycharmProjects/Reinvent-master-3.2/result/LINK_invent/BTK/process_docking_weight1_custom_product_contain_oxygen_bond_distance_aromatic_linkinvent_7_9_3/rearranged_h_0105.sdf

> <i_m_source_file_index>
17

> <r_mmod_Potential_Energy-OPLS-2005>
-8.81965255737305

> <r_mmod_Stretch_Energy-OPLS-2005>
38.9697799682617

> <r_mmod_Bend_Energy-OPLS-2005>
100.000907897949

> <r_mmod_Torsional_Energy-OPLS-2005>
196.405334472656

> <r_mmod_Improper_Torsional_Energy-OPLS-2005>
8.30029678344727

> <r_mmod_Van_der_Waal_Energy-OPLS-2005>
152.400894165039

> <r_mmod_Electrostatic_Energy-OPLS-2005>
-288.238739013672

> <r_mmod_Solvation_Energy-OPLS-2005>
-228.303512573242

> <b_mmod_Minimization_Converged-OPLS-2005>
0

> <r_mmod_RMS_Derivative-OPLS-2005>
1.06794762611389

$$$$
17
                    3D
 Structure written by MMmdl.
154163  0  0  1  0            999 V2000
  -30.6118  -14.7953   20.4670 C   0  0  0  0  0  0
  -30.4383  -12.4843   19.5102 C   0  0  0  0  0  0
  -29.5217  -12.4909   18.2647 C   0  0  0  0  0  0
  -28.0555  -12.3098   18.6782 C   0  0  0  0  0  0
  -27.6473  -13.2355   19.8542 C   0  0  2  0  0  0
  -28.6833  -13.1974   21.0025 C   0  0  0  0  0  0
  -25.2607  -13.8253   20.5738 C   0  0  0  0  0  0
  -24.1873  -13.0527   20.9143 C   0  0  0  0  0  0
  -24.6449  -11.6984   20.8739 C   0  0  0  0  0  0
  -23.9075  -10.4371   21.0389 C   0  0  0  0  0  0
  -24.3618   -9.4266   21.9140 C   0  0  0  0  0  0
  -23.6298   -8.2291   22.0734 C   0  0  0  0  0  0
  -22.4272   -8.0317   21.3527 C   0  0  0  0  0  0
  -21.9919   -9.0314   20.4640 C   0  0  0  0  0  0
  -22.7241  -10.2214   20.3026 C   0  0  0  0  0  0
  -21.6884   -6.0734   22.5260 C   0  0  0  0  0  0
  -21.4029   -6.5655   23.8187 C   0  0  0  0  0  0
  -21.3655   -5.6794   24.9131 C   0  0  0  0  0  0
  -21.6035   -4.3032   24.7203 C   0  0  0  0  0  0
  -21.8847   -3.8116   23.4328 C   0  0  0  0  0  0
  -21.9212   -4.6956   22.3399 C   0  0  0  0  0  0
  -22.7915  -13.5320   21.1851 C   0  0  0  0  0  0
  -22.1674   -4.2146   21.0978 F   0  0  0  0  0  0
  -21.5611   -3.4516   25.7707 F   0  0  0  0  0  0
  -29.9905  -13.5567   20.4366 N   0  0  0  0  0  0
  -26.3010  -12.9421   20.3278 N   0  0  0  0  0  0
  -25.9393  -11.6583   20.5841 N   0  0  0  0  0  0
  -22.0560  -12.8324   22.0454 N   0  0  0  0  0  0
  -25.4447  -15.1961   20.4299 N   0  0  0  0  0  0
  -31.7435  -14.9096   19.9979 O   0  0  0  0  0  0
  -21.6661   -6.8885   21.4207 O   0  0  0  0  0  0
  -22.3597  -14.5603   20.6656 O   0  0  0  0  0  0
  -24.6352  -31.8458   23.1965 C   0  0  0  0  0  0
  -25.9156  -32.4701   23.8279 C   0  0  1  0  0  0
  -27.2496  -27.2347   20.1528 C   0  0  0  0  0  0
  -25.5941  -33.8505   24.2189 N   0  0  0  0  0  0
  -23.4337  -30.4688   21.5389 C   0  0  2  0  0  0
  -24.8915  -28.9072   20.1148 C   0  0  0  0  0  0
  -22.7496  -29.4565   22.4889 C   0  0  0  0  0  0
  -18.0295  -28.1398   22.8467 C   0  0  0  0  0  0
  -24.1481  -36.7229   23.2602 C   0  0  0  0  0  0
  -25.9851  -30.7520   21.3860 C   0  0  0  0  0  0
  -26.0629  -29.3750   20.7251 C   0  0  0  0  0  0
  -27.2396  -28.5518   20.7328 C   0  0  0  0  0  0
  -26.0509  -26.8429   19.5074 C   0  0  0  0  0  0
  -24.8902  -27.6451   19.5001 C   0  0  0  0  0  0
  -23.6572  -29.7929   20.1594 C   0  0  0  0  0  0
  -25.4083  -36.2999   24.0320 C   0  0  1  0  0  0
  -20.5888  -28.3695   23.1263 C   0  0  2  0  0  0
  -20.6784  -26.9401   22.5431 C   0  0  0  0  0  0
  -19.5767  -26.6366   21.5227 C   0  0  0  0  0  0
  -18.1939  -26.7924   22.1642 C   0  0  0  0  0  0
  -19.1555  -28.8870   23.2849 C   0  0  0  0  0  0
  -18.9481  -30.1482   23.8846 C   0  0  0  0  0  0
  -17.6484  -30.6600   24.0560 C   0  0  0  0  0  0
  -25.9077  -34.9401   23.5051 C   0  0  0  0  0  0
  -16.5368  -29.9098   23.6381 C   0  0  0  0  0  0
  -16.7278  -28.6549   23.0327 C   0  0  0  0  0  0
  -26.4539  -31.6587   25.0706 C   0  0  0  0  0  0
  -25.3773  -31.3779   26.1440 C   0  0  0  0  0  0
  -27.0436  -30.2993   24.6292 C   0  0  0  0  0  0
  -27.6031  -32.4401   25.7491 C   0  0  0  0  0  0
  -27.5641  -37.1602   24.8347 C   0  0  0  0  0  0
  -21.4197  -29.3009   22.3607 N   0  0  0  0  0  0
  -26.4161  -37.3815   23.9597 N   0  0  0  0  0  0
  -24.7032  -31.0374   22.0970 N   0  0  0  0  0  0
  -23.4168  -28.8095   23.3001 O   0  0  0  0  0  0
  -28.3488  -26.3274   20.2456 O   0  0  0  0  0  0
  -26.5666  -34.8913   22.4633 O   0  0  0  0  0  0
  -23.5495  -32.1286   23.7258 O   0  0  0  0  0  0
  -29.9735  -18.5070   20.8646 C   0  0  0  0  0  0
  -29.1960  -19.6071   20.2273 C   0  0  0  0  0  0
  -28.2443  -19.0536   19.3750 C   0  0  0  0  0  0
  -29.6366  -17.1781   20.4828 C   0  0  0  0  0  0
  -28.4301  -22.1114   20.5456 C   0  0  0  0  0  0
  -27.1747  -19.6133   18.5297 C   0  0  0  0  0  0
  -30.4504  -23.2739   20.1878 C   0  0  0  0  0  0
  -30.6803  -21.7702   20.5772 C   0  0  0  0  0  0
  -29.0094  -23.5921   20.6656 C   0  0  1  0  0  0
  -28.1451  -24.8375   20.0240 C   0  0  0  0  0  0
  -29.3723  -21.0993   20.4433 N   0  0  0  0  0  0
  -29.9409  -15.8952   21.0028 N   0  0  0  0  0  0
  -27.2144  -21.9120   20.5866 O   0  0  0  0  0  0
  -26.1853  -18.9621   18.1858 O   0  0  0  0  0  0
  -28.3688  -17.2960   19.2792 S   0  0  0  0  0  0
  -31.4807  -12.6075   19.2126 H   0  0  0  0  0  0
  -30.3987  -11.5216   20.0211 H   0  0  0  0  0  0
  -29.8137  -11.6881   17.5871 H   0  0  0  0  0  0
  -29.6428  -13.4246   17.7173 H   0  0  0  0  0  0
  -27.9408  -11.2642   18.9689 H   0  0  0  0  0  0
  -27.3932  -12.4628   17.8274 H   0  0  0  0  0  0
  -27.6314  -14.2485   19.4488 H   0  0  0  0  0  0
  -28.7283  -12.2166   21.4846 H   0  0  0  0  0  0
  -28.4038  -13.9022   21.7899 H   0  0  0  0  0  0
  -25.2791   -9.5716   22.4666 H   0  0  0  0  0  0
  -24.0018   -7.4728   22.7484 H   0  0  0  0  0  0
  -21.0835   -8.8857   19.9004 H   0  0  0  0  0  0
  -22.3695  -10.9747   19.6104 H   0  0  0  0  0  0
  -21.2025   -7.6170   23.9686 H   0  0  0  0  0  0
  -21.1421   -6.0505   25.9033 H   0  0  0  0  0  0
  -22.0616   -2.7567   23.2839 H   0  0  0  0  0  0
  -22.4177  -11.9940   22.4767 H   0  0  0  0  0  0
  -21.1140  -13.1247   22.2656 H   0  0  0  0  0  0
  -24.7080  -15.8723   20.6072 H   0  0  0  0  0  0
  -26.3094  -15.6326   20.1382 H   0  0  0  0  0  0
  -26.7182  -32.5348   23.0975 H   0  0  0  0  0  0
  -25.0062  -33.9652   25.0315 H   0  0  0  0  0  0
  -22.7331  -31.2931   21.3857 H   0  0  0  0  0  0
  -23.3856  -35.9430   23.2900 H   0  0  0  0  0  0
  -24.3666  -36.9229   22.2103 H   0  0  0  0  0  0
  -23.7043  -37.6224   23.6871 H   0  0  0  0  0  0
  -26.1308  -31.5155   20.6211 H   0  0  0  0  0  0
  -26.8580  -30.7961   22.0264 H   0  0  0  0  0  0
  -28.1278  -28.8996   21.2403 H   0  0  0  0  0  0
  -25.9734  -25.8775   19.0299 H   0  0  0  0  0  0
  -23.9885  -27.2681   19.0356 H   0  0  0  0  0  0
  -23.7789  -30.5691   19.4034 H   0  0  0  0  0  0
  -22.7778  -29.2245   19.8487 H   0  0  0  0  0  0
  -25.1207  -36.1725   25.0791 H   0  0  0  0  0  0
  -21.0006  -28.3303   24.1373 H   0  0  0  0  0  0
  -20.5731  -26.2272   23.3626 H   0  0  0  0  0  0
  -21.6642  -26.7415   22.1203 H   0  0  0  0  0  0
  -19.6917  -25.6289   21.1216 H   0  0  0  0  0  0
  -19.6740  -27.3211   20.6793 H   0  0  0  0  0  0
  -17.4206  -26.6654   21.4036 H   0  0  0  0  0  0
  -18.0329  -26.0099   22.9091 H   0  0  0  0  0  0
  -19.7983  -30.7304   24.2169 H   0  0  0  0  0  0
  -17.5056  -31.6289   24.5175 H   0  0  0  0  0  0
  -15.5368  -30.2965   23.7787 H   0  0  0  0  0  0
  -15.8679  -28.0902   22.6971 H   0  0  0  0  0  0
  -24.5986  -30.7050   25.7842 H   0  0  0  0  0  0
  -24.8957  -32.2974   26.4780 H   0  0  0  0  0  0
  -25.8145  -30.9076   27.0254 H   0  0  0  0  0  0
  -26.3085  -29.6656   24.1314 H   0  0  0  0  0  0
  -27.4070  -29.7360   25.4896 H   0  0  0  0  0  0
  -27.8955  -30.4258   23.9607 H   0  0  0  0  0  0
  -27.2555  -33.3675   26.2062 H   0  0  0  0  0  0
  -28.3849  -32.7009   25.0343 H   0  0  0  0  0  0
  -28.0668  -31.8544   26.5439 H   0  0  0  0  0  0
  -28.2167  -38.0349   24.8169 H   0  0  0  0  0  0
  -28.1587  -36.3021   24.5155 H   0  0  0  0  0  0
  -27.2496  -36.9949   25.8672 H   0  0  0  0  0  0
  -20.9365  -29.8652   21.6757 H   0  0  0  0  0  0
  -25.9944  -38.2693   24.2200 H   0  0  0  0  0  0
  -30.7063  -18.7380   21.6311 H   0  0  0  0  0  0
  -27.3261  -20.6535   18.2165 H   0  0  0  0  0  0
  -30.5302  -23.3750   19.1024 H   0  0  0  0  0  0
  -31.2038  -23.9300   20.6392 H   0  0  0  0  0  0
  -30.9916  -21.7177   21.6269 H   0  0  0  0  0  0
  -31.4690  -21.3064   19.9769 H   0  0  0  0  0  0
  -29.0646  -23.7771   21.7410 H   0  0  0  0  0  0
  -27.1463  -24.6338   20.4110 H   0  0  0  0  0  0
  -28.0899  -24.6841   18.9437 H   0  0  0  0  0  0
  -29.2174  -15.5731   21.6230 H   0  0  0  0  0  0
  1 25  1  0  0  0
  1 30  2  0  0  0
  1 82  1  0  0  0
  2  3  1  0  0  0
  2 25  1  0  0  0
  2 86  1  0  0  0
  2 87  1  0  0  0
  3  4  1  0  0  0
  3 88  1  0  0  0
  3 89  1  0  0  0
  4  5  1  0  0  0
  4 90  1  0  0  0
  4 91  1  0  0  0
  5  6  1  0  0  0
  5 26  1  0  0  0
  5 92  1  0  0  0
  6 25  1  0  0  0
  6 93  1  0  0  0
  6 94  1  0  0  0
  7  8  2  0  0  0
  7 26  1  0  0  0
  7 29  1  0  0  0
  8  9  1  0  0  0
  8 22  1  0  0  0
  9 10  1  0  0  0
  9 27  2  0  0  0
 10 11  2  0  0  0
 10 15  1  0  0  0
 11 12  1  0  0  0
 11 95  1  0  0  0
 12 13  2  0  0  0
 12 96  1  0  0  0
 13 14  1  0  0  0
 13 31  1  0  0  0
 14 15  2  0  0  0
 14 97  1  0  0  0
 15 98  1  0  0  0
 16 17  2  0  0  0
 16 21  1  0  0  0
 16 31  1  0  0  0
 17 18  1  0  0  0
 17 99  1  0  0  0
 18 19  2  0  0  0
 18100  1  0  0  0
 19 20  1  0  0  0
 19 24  1  0  0  0
 20 21  2  0  0  0
 20101  1  0  0  0
 21 23  1  0  0  0
 22 28  1  0  0  0
 22 32  2  0  0  0
 26 27  1  0  0  0
 28102  1  0  0  0
 28103  1  0  0  0
 29104  1  0  0  0
 29105  1  0  0  0
 33 34  1  0  0  0
 33 66  1  0  0  0
 33 70  2  0  0  0
 34 36  1  0  0  0
 34 59  1  0  0  0
 34106  1  0  0  0
 35 44  2  0  0  0
 35 45  1  0  0  0
 35 68  1  0  0  0
 36 56  1  0  0  0
 36107  1  0  0  0
 37 39  1  0  0  0
 37 47  1  0  0  0
 37 66  1  0  0  0
 37108  1  0  0  0
 38 43  2  0  0  0
 38 46  1  0  0  0
 38 47  1  0  0  0
 39 64  1  0  0  0
 39 67  2  0  0  0
 40 52  1  0  0  0
 40 53  2  0  0  0
 40 58  1  0  0  0
 41109  1  0  0  0
 41110  1  0  0  0
 41111  1  0  0  0
 41 48  1  0  0  0
 42 43  1  0  0  0
 42 66  1  0  0  0
 42112  1  0  0  0
 42113  1  0  0  0
 43 44  1  0  0  0
 44114  1  0  0  0
 45 46  2  0  0  0
 45115  1  0  0  0
 46116  1  0  0  0
 47117  1  0  0  0
 47118  1  0  0  0
 48 56  1  0  0  0
 48 65  1  0  0  0
 48119  1  0  0  0
 49 50  1  0  0  0
 49 53  1  0  0  0
 49 64  1  0  0  0
 49120  1  0  0  0
 50 51  1  0  0  0
 50121  1  0  0  0
 50122  1  0  0  0
 51 52  1  0  0  0
 51123  1  0  0  0
 51124  1  0  0  0
 52125  1  0  0  0
 52126  1  0  0  0
 53 54  1  0  0  0
 54 55  2  0  0  0
 54127  1  0  0  0
 55 57  1  0  0  0
 55128  1  0  0  0
 56 69  2  0  0  0
 57 58  2  0  0  0
 57129  1  0  0  0
 58130  1  0  0  0
 59 60  1  0  0  0
 59 61  1  0  0  0
 59 62  1  0  0  0
 60131  1  0  0  0
 60132  1  0  0  0
 60133  1  0  0  0
 61134  1  0  0  0
 61135  1  0  0  0
 61136  1  0  0  0
 62137  1  0  0  0
 62138  1  0  0  0
 62139  1  0  0  0
 63 65  1  0  0  0
 63140  1  0  0  0
 63141  1  0  0  0
 63142  1  0  0  0
 64143  1  0  0  0
 65144  1  0  0  0
 68 80  1  0  0  0
 71 72  1  0  0  0
 71 74  2  0  0  0
 71145  1  0  0  0
 72 73  2  0  0  0
 72 81  1  0  0  0
 73 76  1  0  0  0
 73 85  1  0  0  0
 74 82  1  0  0  0
 74 85  1  0  0  0
 75 79  1  0  0  0
 75 81  1  0  0  0
 75 83  2  0  0  0
 76 84  2  0  0  0
 76146  1  0  0  0
 77 78  1  0  0  0
 77 79  1  0  0  0
 77147  1  0  0  0
 77148  1  0  0  0
 78 81  1  0  0  0
 78149  1  0  0  0
 78150  1  0  0  0
 79 80  1  0  0  0
 79151  1  0  0  0
 80152  1  0  0  0
 80153  1  0  0  0
 82154  1  0  0  0
M  ISO  4   1 100  68 101  80 101  82 100
M  END
> <chiral flag>
0

> <version>
0

> <s_m_source_file>
/data/baiqing/PycharmProjects/Reinvent-master-3.2/result/LINK_invent/BTK/process_docking_weight1_custom_product_contain_oxygen_bond_distance_aromatic_linkinvent_7_9_3/rearranged_h_0105.sdf

> <i_m_source_file_index>
18

> <r_mmod_Potential_Energy-OPLS-2005>
326.769866943359

> <r_mmod_Stretch_Energy-OPLS-2005>
150.695907592773

> <r_mmod_Bend_Energy-OPLS-2005>
232.977325439453

> <r_mmod_Torsional_Energy-OPLS-2005>
305.054260253906

> <r_mmod_Improper_Torsional_Energy-OPLS-2005>
5.36858415603638

> <r_mmod_Van_der_Waal_Energy-OPLS-2005>
111.292289733887

> <r_mmod_Electrostatic_Energy-OPLS-2005>
-355.705017089844

> <r_mmod_Solvation_Energy-OPLS-2005>
-232.332550048828

> <b_mmod_Minimization_Converged-OPLS-2005>
0

> <r_mmod_RMS_Derivative-OPLS-2005>
11.331335067749

$$$$
18
                    3D
 Structure written by MMmdl.
161170  0  0  1  0            999 V2000
  -30.6984  -14.5445   20.4862 C   0  0  0  0  0  0
  -30.4075  -12.3222   19.4699 C   0  0  0  0  0  0
  -29.4993  -12.4896   18.2334 C   0  0  0  0  0  0
  -28.0200  -12.3549   18.6381 C   0  0  0  0  0  0
  -27.6535  -13.2227   19.8724 C   0  0  2  0  0  0
  -28.6933  -13.0792   21.0086 C   0  0  0  0  0  0
  -25.2536  -13.8197   20.5702 C   0  0  0  0  0  0
  -24.1808  -13.0457   20.9203 C   0  0  0  0  0  0
  -24.6381  -11.6927   20.8757 C   0  0  0  0  0  0
  -23.9058  -10.4303   21.0409 C   0  0  0  0  0  0
  -24.3610   -9.4217   21.9183 C   0  0  0  0  0  0
  -23.6290   -8.2249   22.0753 C   0  0  0  0  0  0
  -22.4272   -8.0281   21.3541 C   0  0  0  0  0  0
  -21.9908   -9.0257   20.4643 C   0  0  0  0  0  0
  -22.7233  -10.2139   20.3056 C   0  0  0  0  0  0
  -21.6853   -6.0731   22.5274 C   0  0  0  0  0  0
  -21.4016   -6.5637   23.8206 C   0  0  0  0  0  0
  -21.3662   -5.6791   24.9170 C   0  0  0  0  0  0
  -21.6047   -4.3053   24.7223 C   0  0  0  0  0  0
  -21.8818   -3.8144   23.4344 C   0  0  0  0  0  0
  -21.9194   -4.6960   22.3398 C   0  0  0  0  0  0
  -22.7830  -13.5239   21.1863 C   0  0  0  0  0  0
  -22.1661   -4.2143   21.0976 F   0  0  0  0  0  0
  -21.5632   -3.4539   25.7738 F   0  0  0  0  0  0
  -30.0220  -13.3584   20.4480 N   0  0  0  0  0  0
  -26.2980  -12.9399   20.3373 N   0  0  0  0  0  0
  -25.9314  -11.6546   20.5798 N   0  0  0  0  0  0
  -22.0478  -12.8222   22.0415 N   0  0  0  0  0  0
  -25.4262  -15.1917   20.4103 N   0  0  0  0  0  0
  -31.8638  -14.6087   20.0846 O   0  0  0  0  0  0
  -21.6642   -6.8873   21.4233 O   0  0  0  0  0  0
  -22.3515  -14.5546   20.6714 O   0  0  0  0  0  0
  -24.6182  -31.8666   23.2098 C   0  0  0  0  0  0
  -25.9057  -32.4815   23.8404 C   0  0  1  0  0  0
  -27.2184  -27.3885   20.1140 C   0  0  0  0  0  0
  -25.5897  -33.8617   24.2328 N   0  0  0  0  0  0
  -23.4094  -30.4901   21.5501 C   0  0  2  0  0  0
  -24.8580  -28.9573   20.1091 C   0  0  0  0  0  0
  -22.7433  -29.4653   22.4970 C   0  0  0  0  0  0
  -18.0275  -28.1373   22.8494 C   0  0  0  0  0  0
  -24.1488  -36.7316   23.2639 C   0  0  0  0  0  0
  -25.9431  -30.8158   21.3739 C   0  0  0  0  0  0
  -26.0195  -29.4479   20.7209 C   0  0  0  0  0  0
  -27.2066  -28.6693   20.7262 C   0  0  0  0  0  0
  -26.0569  -26.9469   19.4549 C   0  0  0  0  0  0
  -24.8740  -27.7071   19.4697 C   0  0  0  0  0  0
  -23.6205  -29.8270   20.1632 C   0  0  0  0  0  0
  -25.4107  -36.3107   24.0336 C   0  0  1  0  0  0
  -20.5873  -28.3680   23.1300 C   0  0  2  0  0  0
  -20.6774  -26.9413   22.5408 C   0  0  0  0  0  0
  -19.5743  -26.6384   21.5215 C   0  0  0  0  0  0
  -18.1922  -26.7919   22.1629 C   0  0  0  0  0  0
  -19.1528  -28.8842   23.2890 C   0  0  0  0  0  0
  -18.9452  -30.1443   23.8910 C   0  0  0  0  0  0
  -17.6456  -30.6585   24.0565 C   0  0  0  0  0  0
  -25.9039  -34.9474   23.5132 C   0  0  0  0  0  0
  -16.5345  -29.9091   23.6323 C   0  0  0  0  0  0
  -16.7265  -28.6501   23.0357 C   0  0  0  0  0  0
  -26.4466  -31.6597   25.0741 C   0  0  0  0  0  0
  -25.3718  -31.3697   26.1479 C   0  0  0  0  0  0
  -27.0309  -30.3036   24.6141 C   0  0  0  0  0  0
  -27.6039  -32.4329   25.7491 C   0  0  0  0  0  0
  -27.5579  -37.1807   24.8464 C   0  0  0  0  0  0
  -21.4157  -29.3044   22.3703 N   0  0  0  0  0  0
  -26.4297  -37.3787   23.9400 N   0  0  0  0  0  0
  -24.6748  -31.0727   22.1019 N   0  0  0  0  0  0
  -23.4187  -28.8203   23.3031 O   0  0  0  0  0  0
  -28.3200  -26.5514   20.1335 O   0  0  0  0  0  0
  -26.5609  -34.8926   22.4701 O   0  0  0  0  0  0
  -23.5359  -32.1451   23.7453 O   0  0  0  0  0  0
  -29.2308  -19.3402   23.1937 C   0  0  0  0  0  0
  -29.5923  -18.1504   22.5260 C   0  0  0  0  0  0
  -28.9710  -20.5240   22.4707 C   0  0  0  0  0  0
  -29.3854  -19.3244   20.4012 C   0  0  0  0  0  0
  -29.6904  -18.1271   21.1180 C   0  0  0  0  0  0
  -29.0300  -20.5371   21.0606 C   0  0  0  0  0  0
  -28.0377  -24.0517   20.7675 C   0  0  0  0  0  0
  -28.9733  -23.0492   20.7040 C   0  0  0  0  0  0
  -26.6052  -23.6516   20.6304 C   0  0  0  0  0  0
  -30.2852  -16.9274   20.4004 C   0  0  0  0  0  0
  -26.2747  -22.2172   20.1964 C   0  0  0  0  0  0
  -27.4713  -21.5128   19.5409 C   0  0  0  0  0  0
  -30.4501  -23.2972   20.9603 C   0  0  0  0  0  0
  -28.3116  -25.5349   21.1797 C   0  0  0  0  0  0
  -28.6756  -21.7147   20.3429 N   0  0  0  0  0  0
  -29.9954  -15.6624   20.8218 N   0  0  0  0  0  0
  -25.6584  -24.3826   20.9291 O   0  0  0  0  0  0
  -30.9957  -17.1683   19.4169 O   0  0  0  0  0  0
  -31.4577  -12.3792   19.1781 H   0  0  0  0  0  0
  -30.2794  -11.3308   19.9073 H   0  0  0  0  0  0
  -29.7479  -11.7422   17.4787 H   0  0  0  0  0  0
  -29.6702  -13.4633   17.7712 H   0  0  0  0  0  0
  -27.8350  -11.3030   18.8581 H   0  0  0  0  0  0
  -27.3725  -12.6051   17.7975 H   0  0  0  0  0  0
  -27.6772  -14.2593   19.5370 H   0  0  0  0  0  0
  -28.6715  -12.0715   21.4257 H   0  0  0  0  0  0
  -28.4582  -13.7503   21.8361 H   0  0  0  0  0  0
  -25.2748   -9.5696   22.4768 H   0  0  0  0  0  0
  -24.0000   -7.4639   22.7470 H   0  0  0  0  0  0
  -21.0843   -8.8771   19.8947 H   0  0  0  0  0  0
  -22.3684  -10.9679   19.6172 H   0  0  0  0  0  0
  -21.2006   -7.6146   23.9707 H   0  0  0  0  0  0
  -21.1487   -6.0523   25.9073 H   0  0  0  0  0  0
  -22.0596   -2.7605   23.2847 H   0  0  0  0  0  0
  -22.4102  -11.9876   22.4782 H   0  0  0  0  0  0
  -21.1096  -13.1235   22.2633 H   0  0  0  0  0  0
  -24.6611  -15.8490   20.5137 H   0  0  0  0  0  0
  -26.2771  -15.6254   20.0758 H   0  0  0  0  0  0
  -26.7127  -32.5513   23.1162 H   0  0  0  0  0  0
  -25.0010  -33.9784   25.0445 H   0  0  0  0  0  0
  -22.7000  -31.3079   21.4104 H   0  0  0  0  0  0
  -23.3748  -35.9652   23.3316 H   0  0  0  0  0  0
  -24.3570  -36.8927   22.2049 H   0  0  0  0  0  0
  -23.7260  -37.6531   23.6655 H   0  0  0  0  0  0
  -26.0618  -31.5795   20.6041 H   0  0  0  0  0  0
  -26.8289  -30.8685   21.9956 H   0  0  0  0  0  0
  -28.0983  -29.0350   21.2159 H   0  0  0  0  0  0
  -26.0580  -25.9929   18.9479 H   0  0  0  0  0  0
  -23.9874  -27.3265   18.9821 H   0  0  0  0  0  0
  -23.7269  -30.6054   19.4065 H   0  0  0  0  0  0
  -22.7444  -29.2481   19.8669 H   0  0  0  0  0  0
  -25.1281  -36.1970   25.0830 H   0  0  0  0  0  0
  -20.9953  -28.3250   24.1425 H   0  0  0  0  0  0
  -20.5674  -26.2291   23.3602 H   0  0  0  0  0  0
  -21.6645  -26.7445   22.1196 H   0  0  0  0  0  0
  -19.6909  -25.6299   21.1238 H   0  0  0  0  0  0
  -19.6682  -27.3209   20.6760 H   0  0  0  0  0  0
  -17.4192  -26.6673   21.4032 H   0  0  0  0  0  0
  -18.0311  -26.0051   22.9015 H   0  0  0  0  0  0
  -19.7929  -30.7240   24.2302 H   0  0  0  0  0  0
  -17.5021  -31.6264   24.5162 H   0  0  0  0  0  0
  -15.5351  -30.3001   23.7645 H   0  0  0  0  0  0
  -15.8660  -28.0823   22.7083 H   0  0  0  0  0  0
  -24.5899  -30.7037   25.7805 H   0  0  0  0  0  0
  -24.8886  -32.2843   26.4929 H   0  0  0  0  0  0
  -25.8055  -30.8859   27.0240 H   0  0  0  0  0  0
  -26.2870  -29.6787   24.1184 H   0  0  0  0  0  0
  -27.4062  -29.7273   25.4607 H   0  0  0  0  0  0
  -27.8709  -30.4347   23.9315 H   0  0  0  0  0  0
  -27.2668  -33.3640   26.2060 H   0  0  0  0  0  0
  -28.3837  -32.6884   25.0303 H   0  0  0  0  0  0
  -28.0724  -31.8465   26.5406 H   0  0  0  0  0  0
  -28.2599  -38.0102   24.7505 H   0  0  0  0  0  0
  -28.1072  -36.2630   24.6297 H   0  0  0  0  0  0
  -27.2286  -37.1470   25.8866 H   0  0  0  0  0  0
  -20.9330  -29.8767   21.6920 H   0  0  0  0  0  0
  -26.0188  -38.2863   24.1404 H   0  0  0  0  0  0
  -29.1706  -19.3526   24.2732 H   0  0  0  0  0  0
  -29.8402  -17.2716   23.1070 H   0  0  0  0  0  0
  -28.6984  -21.4213   23.0074 H   0  0  0  0  0  0
  -29.4679  -19.3219   19.3232 H   0  0  0  0  0  0
  -25.4210  -22.2234   19.5190 H   0  0  0  0  0  0
  -25.9677  -21.6646   21.0848 H   0  0  0  0  0  0
  -27.6432  -21.9175   18.5423 H   0  0  0  0  0  0
  -27.2348  -20.4576   19.3999 H   0  0  0  0  0  0
  -30.8068  -24.1354   20.3606 H   0  0  0  0  0  0
  -31.0606  -22.4305   20.7046 H   0  0  0  0  0  0
  -30.6221  -23.5296   22.0115 H   0  0  0  0  0  0
  -29.2927  -25.5894   21.6487 H   0  0  0  0  0  0
  -27.6224  -25.8132   21.9797 H   0  0  0  0  0  0
  -29.1757  -15.5482   21.3930 H   0  0  0  0  0  0
  1 25  1  0  0  0
  1 30  2  0  0  0
  1 86  1  0  0  0
  2  3  1  0  0  0
  2 25  1  0  0  0
  2 89  1  0  0  0
  2 90  1  0  0  0
  3  4  1  0  0  0
  3 91  1  0  0  0
  3 92  1  0  0  0
  4  5  1  0  0  0
  4 93  1  0  0  0
  4 94  1  0  0  0
  5  6  1  0  0  0
  5 26  1  0  0  0
  5 95  1  0  0  0
  6 25  1  0  0  0
  6 96  1  0  0  0
  6 97  1  0  0  0
  7  8  2  0  0  0
  7 26  1  0  0  0
  7 29  1  0  0  0
  8  9  1  0  0  0
  8 22  1  0  0  0
  9 10  1  0  0  0
  9 27  2  0  0  0
 10 11  2  0  0  0
 10 15  1  0  0  0
 11 12  1  0  0  0
 11 98  1  0  0  0
 12 13  2  0  0  0
 12 99  1  0  0  0
 13 14  1  0  0  0
 13 31  1  0  0  0
 14 15  2  0  0  0
 14100  1  0  0  0
 15101  1  0  0  0
 16 17  2  0  0  0
 16 21  1  0  0  0
 16 31  1  0  0  0
 17 18  1  0  0  0
 17102  1  0  0  0
 18 19  2  0  0  0
 18103  1  0  0  0
 19 20  1  0  0  0
 19 24  1  0  0  0
 20 21  2  0  0  0
 20104  1  0  0  0
 21 23  1  0  0  0
 22 28  1  0  0  0
 22 32  2  0  0  0
 26 27  1  0  0  0
 28105  1  0  0  0
 28106  1  0  0  0
 29107  1  0  0  0
 29108  1  0  0  0
 33 34  1  0  0  0
 33 66  1  0  0  0
 33 70  2  0  0  0
 34 36  1  0  0  0
 34 59  1  0  0  0
 34109  1  0  0  0
 35 44  2  0  0  0
 35 45  1  0  0  0
 35 68  1  0  0  0
 36 56  1  0  0  0
 36110  1  0  0  0
 37 39  1  0  0  0
 37 47  1  0  0  0
 37 66  1  0  0  0
 37111  1  0  0  0
 38 43  2  0  0  0
 38 46  1  0  0  0
 38 47  1  0  0  0
 39 64  1  0  0  0
 39 67  2  0  0  0
 40 52  1  0  0  0
 40 53  2  0  0  0
 40 58  1  0  0  0
 41112  1  0  0  0
 41113  1  0  0  0
 41114  1  0  0  0
 41 48  1  0  0  0
 42 43  1  0  0  0
 42 66  1  0  0  0
 42115  1  0  0  0
 42116  1  0  0  0
 43 44  1  0  0  0
 44117  1  0  0  0
 45 46  2  0  0  0
 45118  1  0  0  0
 46119  1  0  0  0
 47120  1  0  0  0
 47121  1  0  0  0
 48 56  1  0  0  0
 48 65  1  0  0  0
 48122  1  0  0  0
 49 50  1  0  0  0
 49 53  1  0  0  0
 49 64  1  0  0  0
 49123  1  0  0  0
 50 51  1  0  0  0
 50124  1  0  0  0
 50125  1  0  0  0
 51 52  1  0  0  0
 51126  1  0  0  0
 51127  1  0  0  0
 52128  1  0  0  0
 52129  1  0  0  0
 53 54  1  0  0  0
 54 55  2  0  0  0
 54130  1  0  0  0
 55 57  1  0  0  0
 55131  1  0  0  0
 56 69  2  0  0  0
 57 58  2  0  0  0
 57132  1  0  0  0
 58133  1  0  0  0
 59 60  1  0  0  0
 59 61  1  0  0  0
 59 62  1  0  0  0
 60134  1  0  0  0
 60135  1  0  0  0
 60136  1  0  0  0
 61137  1  0  0  0
 61138  1  0  0  0
 61139  1  0  0  0
 62140  1  0  0  0
 62141  1  0  0  0
 62142  1  0  0  0
 63 65  1  0  0  0
 63143  1  0  0  0
 63144  1  0  0  0
 63145  1  0  0  0
 64146  1  0  0  0
 65147  1  0  0  0
 68 84  1  0  0  0
 71 72  2  0  0  0
 71 73  1  0  0  0
 71148  1  0  0  0
 72 75  1  0  0  0
 72149  1  0  0  0
 73 76  2  0  0  0
 73150  1  0  0  0
 74 75  2  0  0  0
 74 76  1  0  0  0
 74151  1  0  0  0
 75 80  1  0  0  0
 76 85  1  0  0  0
 77 78  2  0  0  0
 77 79  1  0  0  0
 77 84  1  0  0  0
 78 83  1  0  0  0
 78 85  1  0  0  0
 79 81  1  0  0  0
 79 87  2  0  0  0
 80 86  1  0  0  0
 80 88  2  0  0  0
 81 82  1  0  0  0
 81152  1  0  0  0
 81153  1  0  0  0
 82 85  1  0  0  0
 82154  1  0  0  0
 82155  1  0  0  0
 83156  1  0  0  0
 83157  1  0  0  0
 83158  1  0  0  0
 84159  1  0  0  0
 84160  1  0  0  0
 86161  1  0  0  0
M  ISO  4   1 100  68 101  84 101  86 100
M  END
> <chiral flag>
0

> <version>
0

> <s_m_source_file>
/data/baiqing/PycharmProjects/Reinvent-master-3.2/result/LINK_invent/BTK/process_docking_weight1_custom_product_contain_oxygen_bond_distance_aromatic_linkinvent_7_9_3/rearranged_h_0105.sdf

> <i_m_source_file_index>
19

> <r_mmod_Potential_Energy-OPLS-2005>
-46.5123100280762

> <r_mmod_Stretch_Energy-OPLS-2005>
55.8547859191895

> <r_mmod_Bend_Energy-OPLS-2005>
107.267517089844

> <r_mmod_Torsional_Energy-OPLS-2005>
271.113342285156

> <r_mmod_Improper_Torsional_Energy-OPLS-2005>
7.4716420173645

> <r_mmod_Van_der_Waal_Energy-OPLS-2005>
168.764755249023

> <r_mmod_Electrostatic_Energy-OPLS-2005>
-451.413543701172

> <r_mmod_Solvation_Energy-OPLS-2005>
-234.738327026367

> <b_mmod_Minimization_Converged-OPLS-2005>
0

> <r_mmod_RMS_Derivative-OPLS-2005>
1.23445737361908

$$$$
19
                    3D
 Structure written by MMmdl.
160168  0  0  1  0            999 V2000
  -30.7915  -14.4274   20.6439 C   0  0  0  0  0  0
  -30.4225  -12.3149   19.4127 C   0  0  0  0  0  0
  -29.4828  -12.4790   18.2048 C   0  0  0  0  0  0
  -28.0095  -12.3593   18.6310 C   0  0  0  0  0  0
  -27.6649  -13.2187   19.8719 C   0  0  2  0  0  0
  -28.7105  -13.0228   20.9923 C   0  0  0  0  0  0
  -25.2568  -13.8182   20.5633 C   0  0  0  0  0  0
  -24.1886  -13.0470   20.9217 C   0  0  0  0  0  0
  -24.6449  -11.6915   20.8796 C   0  0  0  0  0  0
  -23.9111  -10.4304   21.0472 C   0  0  0  0  0  0
  -24.3639   -9.4182   21.9234 C   0  0  0  0  0  0
  -23.6292   -8.2226   22.0753 C   0  0  0  0  0  0
  -22.4273   -8.0297   21.3528 C   0  0  0  0  0  0
  -21.9917   -9.0311   20.4645 C   0  0  0  0  0  0
  -22.7289  -10.2171   20.3098 C   0  0  0  0  0  0
  -21.6835   -6.0757   22.5285 C   0  0  0  0  0  0
  -21.4016   -6.5655   23.8235 C   0  0  0  0  0  0
  -21.3682   -5.6796   24.9190 C   0  0  0  0  0  0
  -21.6039   -4.3063   24.7227 C   0  0  0  0  0  0
  -21.8818   -3.8159   23.4346 C   0  0  0  0  0  0
  -21.9171   -4.6979   22.3400 C   0  0  0  0  0  0
  -22.7902  -13.5227   21.1960 C   0  0  0  0  0  0
  -22.1659   -4.2162   21.0983 F   0  0  0  0  0  0
  -21.5591   -3.4559   25.7751 F   0  0  0  0  0  0
  -30.0488  -13.3018   20.4394 N   0  0  0  0  0  0
  -26.3069  -12.9415   20.3369 N   0  0  0  0  0  0
  -25.9390  -11.6557   20.5836 N   0  0  0  0  0  0
  -22.0470  -12.8222   22.0445 N   0  0  0  0  0  0
  -25.4187  -15.1920   20.4006 N   0  0  0  0  0  0
  -31.8472  -14.6421   20.0418 O   0  0  0  0  0  0
  -21.6616   -6.8900   21.4249 O   0  0  0  0  0  0
  -22.3598  -14.5569   20.6819 O   0  0  0  0  0  0
  -24.6113  -31.8698   23.2135 C   0  0  0  0  0  0
  -25.9030  -32.4797   23.8407 C   0  0  1  0  0  0
  -27.2513  -27.4717   20.1003 C   0  0  0  0  0  0
  -25.5868  -33.8592   24.2363 N   0  0  0  0  0  0
  -23.4002  -30.4902   21.5485 C   0  0  2  0  0  0
  -24.8561  -28.9486   20.1277 C   0  0  0  0  0  0
  -22.7356  -29.4681   22.5010 C   0  0  0  0  0  0
  -18.0307  -28.1288   22.8487 C   0  0  0  0  0  0
  -24.1489  -36.7288   23.2615 C   0  0  0  0  0  0
  -25.9238  -30.8459   21.3612 C   0  0  0  0  0  0
  -26.0079  -29.4740   20.7295 C   0  0  0  0  0  0
  -27.2100  -28.7360   20.7238 C   0  0  0  0  0  0
  -26.0894  -26.9504   19.4997 C   0  0  0  0  0  0
  -24.8865  -27.6801   19.5217 C   0  0  0  0  0  0
  -23.6186  -29.8150   20.1647 C   0  0  0  0  0  0
  -25.4087  -36.3103   24.0361 C   0  0  1  0  0  0
  -20.5865  -28.3625   23.1325 C   0  0  2  0  0  0
  -20.6870  -26.9472   22.5152 C   0  0  0  0  0  0
  -19.5822  -26.6816   21.4879 C   0  0  0  0  0  0
  -18.2060  -26.7925   22.1471 C   0  0  0  0  0  0
  -19.1527  -28.8774   23.2943 C   0  0  0  0  0  0
  -18.9402  -30.1344   23.9016 C   0  0  0  0  0  0
  -17.6371  -30.6469   24.0597 C   0  0  0  0  0  0
  -25.8994  -34.9445   23.5155 C   0  0  0  0  0  0
  -16.5306  -29.8950   23.6229 C   0  0  0  0  0  0
  -16.7266  -28.6357   23.0250 C   0  0  0  0  0  0
  -26.4533  -31.6500   25.0630 C   0  0  0  0  0  0
  -25.3867  -31.3512   26.1410 C   0  0  0  0  0  0
  -27.0336  -30.2955   24.5910 C   0  0  0  0  0  0
  -27.6189  -32.4112   25.7350 C   0  0  0  0  0  0
  -27.5606  -37.1779   24.8481 C   0  0  0  0  0  0
  -21.4088  -29.3124   22.3794 N   0  0  0  0  0  0
  -26.4307  -37.3771   23.9410 N   0  0  0  0  0  0
  -24.6610  -31.0853   22.0994 N   0  0  0  0  0  0
  -23.4152  -28.8145   23.2977 O   0  0  0  0  0  0
  -28.4401  -26.7978   20.0008 O   0  0  0  0  0  0
  -26.5593  -34.8925   22.4732 O   0  0  0  0  0  0
  -23.5307  -32.1386   23.7558 O   0  0  0  0  0  0
  -29.7556  -18.8098   20.1309 C   0  0  0  0  0  0
  -29.7617  -17.4610   22.5710 C   0  0  0  0  0  0
  -29.9372  -17.3985   20.1432 C   0  0  0  0  0  0
  -29.6052  -19.5435   21.3291 C   0  0  0  0  0  0
  -30.0246  -16.6954   21.4003 C   0  0  0  0  0  0
  -29.5741  -18.8494   22.5449 C   0  0  0  0  0  0
  -28.7825  -21.8079   20.6769 C   0  0  0  0  0  0
  -30.0321  -16.7348   18.7661 C   0  0  0  0  0  0
  -30.7643  -14.8461   22.9586 C   0  0  0  0  0  0
  -28.5906  -23.2040   21.2839 C   0  0  0  0  0  0
  -28.2165  -24.3546   20.3214 C   0  0  0  0  0  0
  -28.6416  -25.7198   20.9058 C   0  0  0  0  0  0
  -29.5029  -20.9592   21.4272 N   0  0  0  0  0  0
  -30.3662  -15.2848   21.6030 N   0  0  0  0  0  0
  -28.2701  -21.5164   19.5941 O   0  0  0  0  0  0
  -29.3512  -19.5225   23.7027 F   0  0  0  0  0  0
  -31.4551  -12.4199   19.0808 H   0  0  0  0  0  0
  -30.3486  -11.3110   19.8319 H   0  0  0  0  0  0
  -29.7015  -11.7229   17.4465 H   0  0  0  0  0  0
  -29.6523  -13.4485   17.7313 H   0  0  0  0  0  0
  -27.8108  -11.3074   18.8412 H   0  0  0  0  0  0
  -27.3609  -12.6299   17.8005 H   0  0  0  0  0  0
  -27.7017  -14.2628   19.5581 H   0  0  0  0  0  0
  -28.6904  -11.9989   21.3668 H   0  0  0  0  0  0
  -28.4612  -13.6560   21.8448 H   0  0  0  0  0  0
  -25.2785   -9.5656   22.4822 H   0  0  0  0  0  0
  -23.9993   -7.4617   22.7486 H   0  0  0  0  0  0
  -21.0805   -8.8939   19.8948 H   0  0  0  0  0  0
  -22.3817  -10.9771   19.6232 H   0  0  0  0  0  0
  -21.2029   -7.6173   23.9754 H   0  0  0  0  0  0
  -21.1496   -6.0514   25.9090 H   0  0  0  0  0  0
  -22.0548   -2.7611   23.2854 H   0  0  0  0  0  0
  -22.3994  -11.9894   22.4940 H   0  0  0  0  0  0
  -21.1087  -13.1313   22.2607 H   0  0  0  0  0  0
  -24.6370  -15.8277   20.4997 H   0  0  0  0  0  0
  -26.2646  -15.6470   20.0815 H   0  0  0  0  0  0
  -26.7067  -32.5538   23.1156 H   0  0  0  0  0  0
  -25.0109  -33.9725   25.0606 H   0  0  0  0  0  0
  -22.6889  -31.3048   21.3993 H   0  0  0  0  0  0
  -23.3758  -35.9609   23.3285 H   0  0  0  0  0  0
  -24.3646  -36.8897   22.2031 H   0  0  0  0  0  0
  -23.7284  -37.6516   23.6622 H   0  0  0  0  0  0
  -26.0231  -31.6017   20.5795 H   0  0  0  0  0  0
  -26.8168  -30.9171   21.9725 H   0  0  0  0  0  0
  -28.1069  -29.1359   21.1743 H   0  0  0  0  0  0
  -26.1299  -25.9937   18.9985 H   0  0  0  0  0  0
  -23.9984  -27.2631   19.0646 H   0  0  0  0  0  0
  -23.7370  -30.5889   19.3996 H   0  0  0  0  0  0
  -22.7479  -29.2290   19.8639 H   0  0  0  0  0  0
  -25.1264  -36.1975   25.0866 H   0  0  0  0  0  0
  -20.9969  -28.3043   24.1435 H   0  0  0  0  0  0
  -20.5851  -26.2048   23.3097 H   0  0  0  0  0  0
  -21.6716  -26.7754   22.0740 H   0  0  0  0  0  0
  -19.6669  -27.4212   20.6853 H   0  0  0  0  0  0
  -19.7178  -25.7000   21.0307 H   0  0  0  0  0  0
  -18.0754  -25.9967   22.8772 H   0  0  0  0  0  0
  -17.4280  -26.6706   21.3906 H   0  0  0  0  0  0
  -19.7865  -30.7160   24.2436 H   0  0  0  0  0  0
  -17.4872  -31.6131   24.5237 H   0  0  0  0  0  0
  -15.5265  -30.2805   23.7479 H   0  0  0  0  0  0
  -15.8744  -28.0625   22.6805 H   0  0  0  0  0  0
  -24.6184  -30.6670   25.7813 H   0  0  0  0  0  0
  -24.8834  -32.2548   26.4806 H   0  0  0  0  0  0
  -25.8289  -30.8807   27.0196 H   0  0  0  0  0  0
  -26.2776  -29.6651   24.1141 H   0  0  0  0  0  0
  -27.4413  -29.7261   25.4298 H   0  0  0  0  0  0
  -27.8529  -30.4365   23.8835 H   0  0  0  0  0  0
  -27.2979  -33.3472   26.1945 H   0  0  0  0  0  0
  -28.3985  -32.6482   25.0090 H   0  0  0  0  0  0
  -28.0840  -31.8105   26.5210 H   0  0  0  0  0  0
  -28.2587  -38.0096   24.7519 H   0  0  0  0  0  0
  -28.1122  -36.2618   24.6279 H   0  0  0  0  0  0
  -27.2318  -37.1451   25.8887 H   0  0  0  0  0  0
  -20.9201  -29.8969   21.7159 H   0  0  0  0  0  0
  -26.0197  -38.2844   24.1447 H   0  0  0  0  0  0
  -29.7520  -19.3333   19.1849 H   0  0  0  0  0  0
  -29.7148  -17.0123   23.5510 H   0  0  0  0  0  0
  -29.6452  -17.3679   17.9623 H   0  0  0  0  0  0
  -29.4485  -15.8171   18.7149 H   0  0  0  0  0  0
  -31.0655  -16.5029   18.5035 H   0  0  0  0  0  0
  -31.5112  -15.5137   23.3955 H   0  0  0  0  0  0
  -31.2136  -13.8481   22.9896 H   0  0  0  0  0  0
  -29.9081  -14.8145   23.6283 H   0  0  0  0  0  0
  -29.5027  -23.4490   21.8225 H   0  0  0  0  0  0
  -27.8168  -23.1113   22.0458 H   0  0  0  0  0  0
  -27.1342  -24.3404   20.1753 H   0  0  0  0  0  0
  -28.6654  -24.2288   19.3344 H   0  0  0  0  0  0
  -29.7196  -25.6999   21.0960 H   0  0  0  0  0  0
  -28.1455  -25.9090   21.8606 H   0  0  0  0  0  0
  -29.8129  -21.3250   22.3219 H   0  0  0  0  0  0
  1 25  1  0  0  0
  1 30  2  0  0  0
  1 84  1  0  0  0
  2  3  1  0  0  0
  2 25  1  0  0  0
  2 87  1  0  0  0
  2 88  1  0  0  0
  3  4  1  0  0  0
  3 89  1  0  0  0
  3 90  1  0  0  0
  4  5  1  0  0  0
  4 91  1  0  0  0
  4 92  1  0  0  0
  5  6  1  0  0  0
  5 26  1  0  0  0
  5 93  1  0  0  0
  6 25  1  0  0  0
  6 94  1  0  0  0
  6 95  1  0  0  0
  7  8  2  0  0  0
  7 26  1  0  0  0
  7 29  1  0  0  0
  8  9  1  0  0  0
  8 22  1  0  0  0
  9 10  1  0  0  0
  9 27  2  0  0  0
 10 11  2  0  0  0
 10 15  1  0  0  0
 11 12  1  0  0  0
 11 96  1  0  0  0
 12 13  2  0  0  0
 12 97  1  0  0  0
 13 14  1  0  0  0
 13 31  1  0  0  0
 14 15  2  0  0  0
 14 98  1  0  0  0
 15 99  1  0  0  0
 16 17  2  0  0  0
 16 21  1  0  0  0
 16 31  1  0  0  0
 17 18  1  0  0  0
 17100  1  0  0  0
 18 19  2  0  0  0
 18101  1  0  0  0
 19 20  1  0  0  0
 19 24  1  0  0  0
 20 21  2  0  0  0
 20102  1  0  0  0
 21 23  1  0  0  0
 22 28  1  0  0  0
 22 32  2  0  0  0
 26 27  1  0  0  0
 28103  1  0  0  0
 28104  1  0  0  0
 29105  1  0  0  0
 29106  1  0  0  0
 33 34  1  0  0  0
 33 66  1  0  0  0
 33 70  2  0  0  0
 34 36  1  0  0  0
 34 59  1  0  0  0
 34107  1  0  0  0
 35 44  2  0  0  0
 35 45  1  0  0  0
 35 68  1  0  0  0
 36 56  1  0  0  0
 36108  1  0  0  0
 37 39  1  0  0  0
 37 47  1  0  0  0
 37 66  1  0  0  0
 37109  1  0  0  0
 38 43  2  0  0  0
 38 46  1  0  0  0
 38 47  1  0  0  0
 39 64  1  0  0  0
 39 67  2  0  0  0
 40 52  1  0  0  0
 40 53  2  0  0  0
 40 58  1  0  0  0
 41110  1  0  0  0
 41111  1  0  0  0
 41112  1  0  0  0
 41 48  1  0  0  0
 42 43  1  0  0  0
 42 66  1  0  0  0
 42113  1  0  0  0
 42114  1  0  0  0
 43 44  1  0  0  0
 44115  1  0  0  0
 45 46  2  0  0  0
 45116  1  0  0  0
 46117  1  0  0  0
 47118  1  0  0  0
 47119  1  0  0  0
 48 56  1  0  0  0
 48 65  1  0  0  0
 48120  1  0  0  0
 49 50  1  0  0  0
 49 53  1  0  0  0
 49 64  1  0  0  0
 49121  1  0  0  0
 50 51  1  0  0  0
 50122  1  0  0  0
 50123  1  0  0  0
 51 52  1  0  0  0
 51124  1  0  0  0
 51125  1  0  0  0
 52126  1  0  0  0
 52127  1  0  0  0
 53 54  1  0  0  0
 54 55  2  0  0  0
 54128  1  0  0  0
 55 57  1  0  0  0
 55129  1  0  0  0
 56 69  2  0  0  0
 57 58  2  0  0  0
 57130  1  0  0  0
 58131  1  0  0  0
 59 60  1  0  0  0
 59 61  1  0  0  0
 59 62  1  0  0  0
 60132  1  0  0  0
 60133  1  0  0  0
 60134  1  0  0  0
 61135  1  0  0  0
 61136  1  0  0  0
 61137  1  0  0  0
 62138  1  0  0  0
 62139  1  0  0  0
 62140  1  0  0  0
 63 65  1  0  0  0
 63141  1  0  0  0
 63142  1  0  0  0
 63143  1  0  0  0
 64144  1  0  0  0
 65145  1  0  0  0
 68 82  1  0  0  0
 71 73  2  0  0  0
 71 74  1  0  0  0
 71146  1  0  0  0
 72 75  2  0  0  0
 72 76  1  0  0  0
 72147  1  0  0  0
 73 75  1  0  0  0
 73 78  1  0  0  0
 74 76  2  0  0  0
 74 83  1  0  0  0
 75 84  1  0  0  0
 76 86  1  0  0  0
 77 80  1  0  0  0
 77 83  1  0  0  0
 77 85  2  0  0  0
 78148  1  0  0  0
 78149  1  0  0  0
 78150  1  0  0  0
 79 84  1  0  0  0
 79151  1  0  0  0
 79152  1  0  0  0
 79153  1  0  0  0
 80 81  1  0  0  0
 80154  1  0  0  0
 80155  1  0  0  0
 81 82  1  0  0  0
 81156  1  0  0  0
 81157  1  0  0  0
 82158  1  0  0  0
 82159  1  0  0  0
 83160  1  0  0  0
M  ISO  4   1 100  68 101  82 101  84 100
M  END
> <chiral flag>
0

> <version>
0

> <s_m_source_file>
/data/baiqing/PycharmProjects/Reinvent-master-3.2/result/LINK_invent/BTK/process_docking_weight1_custom_product_contain_oxygen_bond_distance_aromatic_linkinvent_7_9_3/rearranged_h_0105.sdf

> <i_m_source_file_index>
20

> <r_mmod_Potential_Energy-OPLS-2005>
72.1528701782227

> <r_mmod_Stretch_Energy-OPLS-2005>
46.3634300231934

> <r_mmod_Bend_Energy-OPLS-2005>
123.909606933594

> <r_mmod_Torsional_Energy-OPLS-2005>
321.409393310547

> <r_mmod_Improper_Torsional_Energy-OPLS-2005>
4.20488214492798

> <r_mmod_Van_der_Waal_Energy-OPLS-2005>
165.123443603516

> <r_mmod_Electrostatic_Energy-OPLS-2005>
-397.135833740234

> <r_mmod_Solvation_Energy-OPLS-2005>
-201.861511230469

> <b_mmod_Minimization_Converged-OPLS-2005>
0

> <r_mmod_RMS_Derivative-OPLS-2005>
9.15517044067383

$$$$
20
                    3D
 Structure written by MMmdl.
161169  0  0  1  0            999 V2000
  -30.7074  -14.5224   20.4913 C   0  0  0  0  0  0
  -30.4203  -12.3104   19.4396 C   0  0  0  0  0  0
  -29.4949  -12.4401   18.2123 C   0  0  0  0  0  0
  -28.0137  -12.3303   18.6303 C   0  0  0  0  0  0
  -27.6501  -13.2030   19.8633 C   0  0  2  0  0  0
  -28.7024  -13.0681   20.9871 C   0  0  0  0  0  0
  -25.2573  -13.8148   20.5728 C   0  0  0  0  0  0
  -24.1816  -13.0437   20.9210 C   0  0  0  0  0  0
  -24.6368  -11.6901   20.8766 C   0  0  0  0  0  0
  -23.9035  -10.4293   21.0416 C   0  0  0  0  0  0
  -24.3598   -9.4210   21.9185 C   0  0  0  0  0  0
  -23.6284   -8.2242   22.0750 C   0  0  0  0  0  0
  -22.4267   -8.0278   21.3541 C   0  0  0  0  0  0
  -21.9895   -9.0251   20.4645 C   0  0  0  0  0  0
  -22.7213  -10.2138   20.3060 C   0  0  0  0  0  0
  -21.6856   -6.0728   22.5273 C   0  0  0  0  0  0
  -21.4007   -6.5631   23.8204 C   0  0  0  0  0  0
  -21.3663   -5.6783   24.9166 C   0  0  0  0  0  0
  -21.6047   -4.3046   24.7220 C   0  0  0  0  0  0
  -21.8822   -3.8142   23.4342 C   0  0  0  0  0  0
  -21.9193   -4.6956   22.3396 C   0  0  0  0  0  0
  -22.7839  -13.5242   21.1857 C   0  0  0  0  0  0
  -22.1663   -4.2141   21.0974 F   0  0  0  0  0  0
  -21.5637   -3.4537   25.7737 F   0  0  0  0  0  0
  -30.0209  -13.3472   20.4029 N   0  0  0  0  0  0
  -26.2981  -12.9296   20.3383 N   0  0  0  0  0  0
  -25.9295  -11.6471   20.5818 N   0  0  0  0  0  0
  -22.0475  -12.8242   22.0415 N   0  0  0  0  0  0
  -25.4326  -15.1863   20.4136 N   0  0  0  0  0  0
  -31.8945  -14.6128   20.1678 O   0  0  0  0  0  0
  -21.6639   -6.8872   21.4236 O   0  0  0  0  0  0
  -22.3529  -14.5549   20.6696 O   0  0  0  0  0  0
  -24.6156  -31.8670   23.2083 C   0  0  0  0  0  0
  -25.9045  -32.4817   23.8388 C   0  0  1  0  0  0
  -27.2370  -27.4207   20.1071 C   0  0  0  0  0  0
  -25.5894  -33.8614   24.2320 N   0  0  0  0  0  0
  -23.4044  -30.4895   21.5486 C   0  0  2  0  0  0
  -24.8515  -28.9533   20.1135 C   0  0  0  0  0  0
  -22.7418  -29.4654   22.4984 C   0  0  0  0  0  0
  -18.0276  -28.1380   22.8502 C   0  0  0  0  0  0
  -24.1485  -36.7313   23.2639 C   0  0  0  0  0  0
  -25.9334  -30.8303   21.3621 C   0  0  0  0  0  0
  -26.0107  -29.4634   20.7097 C   0  0  0  0  0  0
  -27.2046  -28.7060   20.6988 C   0  0  0  0  0  0
  -26.0593  -26.9306   19.4956 C   0  0  0  0  0  0
  -24.8722  -27.6883   19.5012 C   0  0  0  0  0  0
  -23.6135  -29.8209   20.1634 C   0  0  0  0  0  0
  -25.4106  -36.3108   24.0339 C   0  0  1  0  0  0
  -20.5868  -28.3667   23.1322 C   0  0  2  0  0  0
  -20.6761  -26.9403   22.5421 C   0  0  0  0  0  0
  -19.5733  -26.6389   21.5221 C   0  0  0  0  0  0
  -18.1916  -26.7927   22.1637 C   0  0  0  0  0  0
  -19.1526  -28.8841   23.2908 C   0  0  0  0  0  0
  -18.9450  -30.1449   23.8914 C   0  0  0  0  0  0
  -17.6450  -30.6583   24.0574 C   0  0  0  0  0  0
  -25.9032  -34.9473   23.5125 C   0  0  0  0  0  0
  -16.5343  -29.9086   23.6329 C   0  0  0  0  0  0
  -16.7266  -28.6506   23.0348 C   0  0  0  0  0  0
  -26.4469  -31.6598   25.0718 C   0  0  0  0  0  0
  -25.3735  -31.3708   26.1467 C   0  0  0  0  0  0
  -27.0293  -30.3038   24.6093 C   0  0  0  0  0  0
  -27.6047  -32.4319   25.7474 C   0  0  0  0  0  0
  -27.5581  -37.1811   24.8468 C   0  0  0  0  0  0
  -21.4143  -29.3030   22.3724 N   0  0  0  0  0  0
  -26.4295  -37.3792   23.9408 N   0  0  0  0  0  0
  -24.6693  -31.0769   22.0980 N   0  0  0  0  0  0
  -23.4187  -28.8204   23.3034 O   0  0  0  0  0  0
  -28.4117  -26.6920   20.1481 O   0  0  0  0  0  0
  -26.5601  -34.8925   22.4691 O   0  0  0  0  0  0
  -23.5344  -32.1424   23.7473 O   0  0  0  0  0  0
  -28.8135  -18.6773   22.1226 C   0  0  0  0  0  0
  -30.5825  -18.7445   20.4784 C   0  0  0  0  0  0
  -29.7958  -17.9920   21.3779 C   0  0  0  0  0  0
  -28.5928  -20.0643   21.9384 C   0  0  0  0  0  0
  -30.3535  -20.1222   20.2603 C   0  0  0  0  0  0
  -29.3510  -20.8205   21.0066 C   0  0  0  0  0  0
  -30.0401  -16.5057   21.5933 C   0  0  0  0  0  0
  -27.5193  -20.7503   22.7640 C   0  0  0  0  0  0
  -29.5270  -16.1591   19.2079 C   0  0  0  0  0  0
  -29.5857  -24.6067   20.6655 C   0  0  0  0  0  0
  -28.3474  -25.2590   20.0056 C   0  0  0  0  0  0
  -29.8895  -23.1306   20.2930 C   0  0  0  0  0  0
  -31.1308  -20.7202   19.2704 N   0  0  0  0  0  0
  -29.9556  -15.6544   20.5286 N   0  0  0  0  0  0
  -30.2856  -16.1259   22.7443 O   0  0  0  0  0  0
  -29.0202  -22.1755   20.9138 O   0  0  0  0  0  0
  -31.4645  -12.3977   19.1338 H   0  0  0  0  0  0
  -30.3239  -11.3227   19.8937 H   0  0  0  0  0  0
  -29.7301  -11.6579   17.4889 H   0  0  0  0  0  0
  -29.6766  -13.3808   17.6950 H   0  0  0  0  0  0
  -27.8231  -11.2810   18.8574 H   0  0  0  0  0  0
  -27.3636  -12.5778   17.7906 H   0  0  0  0  0  0
  -27.6529  -14.2344   19.5239 H   0  0  0  0  0  0
  -28.6885  -12.0638   21.4130 H   0  0  0  0  0  0
  -28.4799  -13.7520   21.8078 H   0  0  0  0  0  0
  -25.2748   -9.5695   22.4749 H   0  0  0  0  0  0
  -24.0004   -7.4634   22.7464 H   0  0  0  0  0  0
  -21.0829   -8.8768   19.8946 H   0  0  0  0  0  0
  -22.3672  -10.9677   19.6167 H   0  0  0  0  0  0
  -21.1992   -7.6139   23.9701 H   0  0  0  0  0  0
  -21.1483   -6.0515   25.9066 H   0  0  0  0  0  0
  -22.0601   -2.7609   23.2837 H   0  0  0  0  0  0
  -22.4091  -11.9899   22.4792 H   0  0  0  0  0  0
  -21.1095  -13.1269   22.2626 H   0  0  0  0  0  0
  -24.6704  -15.8462   20.5243 H   0  0  0  0  0  0
  -26.2900  -15.6221   20.0994 H   0  0  0  0  0  0
  -26.7119  -32.5531   23.1154 H   0  0  0  0  0  0
  -25.0044  -33.9772   25.0464 H   0  0  0  0  0  0
  -22.6929  -31.3060   21.4086 H   0  0  0  0  0  0
  -23.3739  -35.9656   23.3318 H   0  0  0  0  0  0
  -24.3577  -36.8908   22.2050 H   0  0  0  0  0  0
  -23.7246  -37.6526   23.6641 H   0  0  0  0  0  0
  -26.0456  -31.5959   20.5931 H   0  0  0  0  0  0
  -26.8210  -30.8846   21.9809 H   0  0  0  0  0  0
  -28.0999  -29.0966   21.1625 H   0  0  0  0  0  0
  -26.0430  -25.9661   19.0097 H   0  0  0  0  0  0
  -23.9827  -27.2918   19.0314 H   0  0  0  0  0  0
  -23.7214  -30.5943   19.4019 H   0  0  0  0  0  0
  -22.7376  -29.2396   19.8705 H   0  0  0  0  0  0
  -25.1282  -36.1973   25.0833 H   0  0  0  0  0  0
  -20.9969  -28.3229   24.1440 H   0  0  0  0  0  0
  -20.5667  -26.2272   23.3604 H   0  0  0  0  0  0
  -21.6630  -26.7441   22.1209 H   0  0  0  0  0  0
  -19.6884  -25.6305   21.1236 H   0  0  0  0  0  0
  -19.6662  -27.3213   20.6759 H   0  0  0  0  0  0
  -17.4184  -26.6691   21.4040 H   0  0  0  0  0  0
  -18.0308  -26.0063   22.9027 H   0  0  0  0  0  0
  -19.7921  -30.7272   24.2282 H   0  0  0  0  0  0
  -17.5000  -31.6264   24.5174 H   0  0  0  0  0  0
  -15.5341  -30.2993   23.7634 H   0  0  0  0  0  0
  -15.8671  -28.0832   22.7044 H   0  0  0  0  0  0
  -24.5897  -30.7066   25.7808 H   0  0  0  0  0  0
  -24.8936  -32.2863   26.4935 H   0  0  0  0  0  0
  -25.8088  -30.8862   27.0214 H   0  0  0  0  0  0
  -26.2833  -29.6805   24.1146 H   0  0  0  0  0  0
  -27.4057  -29.7270   25.4551 H   0  0  0  0  0  0
  -27.8673  -30.4350   23.9242 H   0  0  0  0  0  0
  -27.2667  -33.3609   26.2078 H   0  0  0  0  0  0
  -28.3836  -32.6899   25.0287 H   0  0  0  0  0  0
  -28.0735  -31.8428   26.5363 H   0  0  0  0  0  0
  -28.2613  -38.0096   24.7505 H   0  0  0  0  0  0
  -28.1061  -36.2627   24.6304 H   0  0  0  0  0  0
  -27.2300  -37.1483   25.8873 H   0  0  0  0  0  0
  -20.9298  -29.8756   21.6953 H   0  0  0  0  0  0
  -26.0182  -38.2874   24.1395 H   0  0  0  0  0  0
  -28.2198  -18.1281   22.8409 H   0  0  0  0  0  0
  -31.3690  -18.2434   19.9310 H   0  0  0  0  0  0
  -26.9819  -20.0462   23.4000 H   0  0  0  0  0  0
  -26.7929  -21.2360   22.1119 H   0  0  0  0  0  0
  -27.9646  -21.5117   23.4051 H   0  0  0  0  0  0
  -30.3321  -16.6964   18.7073 H   0  0  0  0  0  0
  -28.6610  -16.8188   19.2828 H   0  0  0  0  0  0
  -29.2408  -15.3632   18.5251 H   0  0  0  0  0  0
  -29.5248  -24.7096   21.7493 H   0  0  0  0  0  0
  -30.4551  -25.1932   20.3668 H   0  0  0  0  0  0
  -27.4517  -24.8474   20.4744 H   0  0  0  0  0  0
  -28.3088  -25.0112   18.9442 H   0  0  0  0  0  0
  -30.9131  -22.9311   20.6135 H   0  0  0  0  0  0
  -29.8502  -23.0221   19.2088 H   0  0  0  0  0  0
  -31.6152  -20.1101   18.6208 H   0  0  0  0  0  0
  -30.7410  -21.5338   18.8105 H   0  0  0  0  0  0
  1 25  1  0  0  0
  1 30  2  0  0  0
  1 84  1  0  0  0
  2  3  1  0  0  0
  2 25  1  0  0  0
  2 87  1  0  0  0
  2 88  1  0  0  0
  3  4  1  0  0  0
  3 89  1  0  0  0
  3 90  1  0  0  0
  4  5  1  0  0  0
  4 91  1  0  0  0
  4 92  1  0  0  0
  5  6  1  0  0  0
  5 26  1  0  0  0
  5 93  1  0  0  0
  6 25  1  0  0  0
  6 94  1  0  0  0
  6 95  1  0  0  0
  7  8  2  0  0  0
  7 26  1  0  0  0
  7 29  1  0  0  0
  8  9  1  0  0  0
  8 22  1  0  0  0
  9 10  1  0  0  0
  9 27  2  0  0  0
 10 11  2  0  0  0
 10 15  1  0  0  0
 11 12  1  0  0  0
 11 96  1  0  0  0
 12 13  2  0  0  0
 12 97  1  0  0  0
 13 14  1  0  0  0
 13 31  1  0  0  0
 14 15  2  0  0  0
 14 98  1  0  0  0
 15 99  1  0  0  0
 16 17  2  0  0  0
 16 21  1  0  0  0
 16 31  1  0  0  0
 17 18  1  0  0  0
 17100  1  0  0  0
 18 19  2  0  0  0
 18101  1  0  0  0
 19 20  1  0  0  0
 19 24  1  0  0  0
 20 21  2  0  0  0
 20102  1  0  0  0
 21 23  1  0  0  0
 22 28  1  0  0  0
 22 32  2  0  0  0
 26 27  1  0  0  0
 28103  1  0  0  0
 28104  1  0  0  0
 29105  1  0  0  0
 29106  1  0  0  0
 33 34  1  0  0  0
 33 66  1  0  0  0
 33 70  2  0  0  0
 34 36  1  0  0  0
 34 59  1  0  0  0
 34107  1  0  0  0
 35 44  2  0  0  0
 35 45  1  0  0  0
 35 68  1  0  0  0
 36 56  1  0  0  0
 36108  1  0  0  0
 37 39  1  0  0  0
 37 47  1  0  0  0
 37 66  1  0  0  0
 37109  1  0  0  0
 38 43  2  0  0  0
 38 46  1  0  0  0
 38 47  1  0  0  0
 39 64  1  0  0  0
 39 67  2  0  0  0
 40 52  1  0  0  0
 40 53  2  0  0  0
 40 58  1  0  0  0
 41110  1  0  0  0
 41111  1  0  0  0
 41112  1  0  0  0
 41 48  1  0  0  0
 42 43  1  0  0  0
 42 66  1  0  0  0
 42113  1  0  0  0
 42114  1  0  0  0
 43 44  1  0  0  0
 44115  1  0  0  0
 45 46  2  0  0  0
 45116  1  0  0  0
 46117  1  0  0  0
 47118  1  0  0  0
 47119  1  0  0  0
 48 56  1  0  0  0
 48 65  1  0  0  0
 48120  1  0  0  0
 49 50  1  0  0  0
 49 53  1  0  0  0
 49 64  1  0  0  0
 49121  1  0  0  0
 50 51  1  0  0  0
 50122  1  0  0  0
 50123  1  0  0  0
 51 52  1  0  0  0
 51124  1  0  0  0
 51125  1  0  0  0
 52126  1  0  0  0
 52127  1  0  0  0
 53 54  1  0  0  0
 54 55  2  0  0  0
 54128  1  0  0  0
 55 57  1  0  0  0
 55129  1  0  0  0
 56 69  2  0  0  0
 57 58  2  0  0  0
 57130  1  0  0  0
 58131  1  0  0  0
 59 60  1  0  0  0
 59 61  1  0  0  0
 59 62  1  0  0  0
 60132  1  0  0  0
 60133  1  0  0  0
 60134  1  0  0  0
 61135  1  0  0  0
 61136  1  0  0  0
 61137  1  0  0  0
 62138  1  0  0  0
 62139  1  0  0  0
 62140  1  0  0  0
 63 65  1  0  0  0
 63141  1  0  0  0
 63142  1  0  0  0
 63143  1  0  0  0
 64144  1  0  0  0
 65145  1  0  0  0
 68 81  1  0  0  0
 71 73  2  0  0  0
 71 74  1  0  0  0
 71146  1  0  0  0
 72 73  1  0  0  0
 72 75  2  0  0  0
 72147  1  0  0  0
 73 77  1  0  0  0
 74 76  2  0  0  0
 74 78  1  0  0  0
 75 76  1  0  0  0
 75 83  1  0  0  0
 76 86  1  0  0  0
 77 84  1  0  0  0
 77 85  2  0  0  0
 78148  1  0  0  0
 78149  1  0  0  0
 78150  1  0  0  0
 79 84  1  0  0  0
 79151  1  0  0  0
 79152  1  0  0  0
 79153  1  0  0  0
 80 81  1  0  0  0
 80 82  1  0  0  0
 80154  1  0  0  0
 80155  1  0  0  0
 81156  1  0  0  0
 81157  1  0  0  0
 82 86  1  0  0  0
 82158  1  0  0  0
 82159  1  0  0  0
 83160  1  0  0  0
 83161  1  0  0  0
M  ISO  4   1 100  68 101  81 101  84 100
M  END
> <chiral flag>
0

> <version>
0

> <s_m_source_file>
/data/baiqing/PycharmProjects/Reinvent-master-3.2/result/LINK_invent/BTK/process_docking_weight1_custom_product_contain_oxygen_bond_distance_aromatic_linkinvent_7_9_3/rearranged_h_0105.sdf

> <i_m_source_file_index>
21

> <r_mmod_Potential_Energy-OPLS-2005>
102.226112365723

> <r_mmod_Stretch_Energy-OPLS-2005>
45.6946907043457

> <r_mmod_Bend_Energy-OPLS-2005>
124.139114379883

> <r_mmod_Torsional_Energy-OPLS-2005>
338.99169921875

> <r_mmod_Improper_Torsional_Energy-OPLS-2005>
17.1232814788818

> <r_mmod_Van_der_Waal_Energy-OPLS-2005>
168.854263305664

> <r_mmod_Electrostatic_Energy-OPLS-2005>
-410.660614013672

> <r_mmod_Solvation_Energy-OPLS-2005>
-206.035263061523

> <b_mmod_Minimization_Converged-OPLS-2005>
0

> <r_mmod_RMS_Derivative-OPLS-2005>
0.996426820755005

$$$$
21
                    3D
 Structure written by MMmdl.
165174  0  0  1  0            999 V2000
  -30.7203  -14.6460   20.5550 C   0  0  0  0  0  0
  -30.4301  -12.4072   19.4922 C   0  0  0  0  0  0
  -29.5264  -12.5417   18.2493 C   0  0  0  0  0  0
  -28.0477  -12.3685   18.6333 C   0  0  0  0  0  0
  -27.6579  -13.2317   19.8611 C   0  0  2  0  0  0
  -28.6932  -13.1166   21.0027 C   0  0  0  0  0  0
  -25.2557  -13.8207   20.5605 C   0  0  0  0  0  0
  -24.1839  -13.0457   20.9117 C   0  0  0  0  0  0
  -24.6415  -11.6912   20.8662 C   0  0  0  0  0  0
  -23.9073  -10.4289   21.0334 C   0  0  0  0  0  0
  -24.3619   -9.4212   21.9133 C   0  0  0  0  0  0
  -23.6264   -8.2267   22.0739 C   0  0  0  0  0  0
  -22.4248   -8.0294   21.3536 C   0  0  0  0  0  0
  -21.9883   -9.0258   20.4625 C   0  0  0  0  0  0
  -22.7222  -10.2125   20.3013 C   0  0  0  0  0  0
  -21.6877   -6.0678   22.5248 C   0  0  0  0  0  0
  -21.4044   -6.5588   23.8178 C   0  0  0  0  0  0
  -21.3668   -5.6763   24.9158 C   0  0  0  0  0  0
  -21.6044   -4.3022   24.7232 C   0  0  0  0  0  0
  -21.8833   -3.8084   23.4363 C   0  0  0  0  0  0
  -21.9194   -4.6887   22.3397 C   0  0  0  0  0  0
  -22.7862  -13.5234   21.1763 C   0  0  0  0  0  0
  -22.1645   -4.2043   21.0985 F   0  0  0  0  0  0
  -21.5629   -3.4526   25.7760 F   0  0  0  0  0  0
  -30.0343  -13.4473   20.4754 N   0  0  0  0  0  0
  -26.3012  -12.9395   20.3266 N   0  0  0  0  0  0
  -25.9374  -11.6511   20.5701 N   0  0  0  0  0  0
  -22.0557  -12.8226   22.0364 N   0  0  0  0  0  0
  -25.4264  -15.1929   20.4023 N   0  0  0  0  0  0
  -31.7688  -14.7726   19.9215 O   0  0  0  0  0  0
  -21.6652   -6.8854   21.4227 O   0  0  0  0  0  0
  -22.3486  -14.5498   20.6587 O   0  0  0  0  0  0
  -24.6280  -31.8572   23.2046 C   0  0  0  0  0  0
  -25.9110  -32.4763   23.8362 C   0  0  1  0  0  0
  -27.2203  -27.3153   20.1271 C   0  0  0  0  0  0
  -25.5916  -33.8565   24.2299 N   0  0  0  0  0  0
  -23.4202  -30.4810   21.5460 C   0  0  2  0  0  0
  -24.8646  -28.9400   20.1102 C   0  0  0  0  0  0
  -22.7482  -29.4596   22.4951 C   0  0  0  0  0  0
  -18.0285  -28.1369   22.8476 C   0  0  0  0  0  0
  -24.1498  -36.7343   23.2628 C   0  0  0  0  0  0
  -25.9599  -30.7925   21.3696 C   0  0  0  0  0  0
  -26.0331  -29.4163   20.7170 C   0  0  0  0  0  0
  -27.2136  -28.6166   20.7146 C   0  0  0  0  0  0
  -26.0326  -26.8893   19.4910 C   0  0  0  0  0  0
  -24.8640  -27.6792   19.4901 C   0  0  0  0  0  0
  -23.6318  -29.8191   20.1610 C   0  0  0  0  0  0
  -25.4111  -36.3094   24.0328 C   0  0  1  0  0  0
  -20.5886  -28.3664   23.1300 C   0  0  2  0  0  0
  -20.6780  -26.9389   22.5421 C   0  0  0  0  0  0
  -19.5757  -26.6381   21.5216 C   0  0  0  0  0  0
  -18.1937  -26.7903   22.1628 C   0  0  0  0  0  0
  -19.1534  -28.8839   23.2873 C   0  0  0  0  0  0
  -18.9443  -30.1446   23.8885 C   0  0  0  0  0  0
  -17.6441  -30.6560   24.0563 C   0  0  0  0  0  0
  -25.9048  -34.9448   23.5122 C   0  0  0  0  0  0
  -16.5344  -29.9066   23.6318 C   0  0  0  0  0  0
  -16.7268  -28.6495   23.0317 C   0  0  0  0  0  0
  -26.4483  -31.6558   25.0724 C   0  0  0  0  0  0
  -25.3745  -31.3706   26.1487 C   0  0  0  0  0  0
  -27.0277  -30.2968   24.6162 C   0  0  0  0  0  0
  -27.6058  -32.4265   25.7498 C   0  0  0  0  0  0
  -27.5595  -37.1821   24.8451 C   0  0  0  0  0  0
  -21.4197  -29.3027   22.3713 N   0  0  0  0  0  0
  -26.4305  -37.3777   23.9395 N   0  0  0  0  0  0
  -24.6884  -31.0598   22.0983 N   0  0  0  0  0  0
  -23.4205  -28.8141   23.3027 O   0  0  0  0  0  0
  -28.3380  -26.4623   20.1857 O   0  0  0  0  0  0
  -26.5615  -34.8910   22.4692 O   0  0  0  0  0  0
  -23.5432  -32.1368   23.7359 O   0  0  0  0  0  0
  -28.7477  -19.1709   20.9232 C   0  0  0  0  0  0
  -28.9062  -17.7511   20.9851 C   0  0  0  0  0  0
  -31.1086  -19.3894   20.5869 C   0  0  0  0  0  0
  -31.2895  -17.9766   20.7099 C   0  0  0  0  0  0
  -29.8570  -20.0445   20.7925 C   0  0  0  0  0  0
  -30.1793  -17.0990   20.9564 C   0  0  0  0  0  0
  -30.5438  -21.9084   22.1674 C   0  0  0  0  0  0
  -29.0776  -22.4389   20.3545 C   0  0  0  0  0  0
  -30.1952  -15.4625   22.7306 C   0  0  0  0  0  0
  -30.7110  -23.3898   22.5363 C   0  0  0  0  0  0
  -29.5539  -24.2637   22.0625 C   0  0  0  0  0  0
  -29.2540  -24.0078   20.5854 C   0  0  2  0  0  0
  -32.7330  -17.4856   20.6838 C   0  0  0  0  0  0
  -30.8561  -14.2553   23.4201 C   0  0  0  0  0  0
  -28.1142  -24.9985   20.0766 C   0  0  0  0  0  0
  -29.8098  -21.5046   21.0786 N   0  0  0  0  0  0
  -30.3053  -15.6770   21.3848 N   0  0  0  0  0  0
  -31.1094  -21.1141   22.9319 O   0  0  0  0  0  0
  -28.2592  -22.0804   19.4977 O   0  0  0  0  0  0
  -29.5344  -16.2050   23.4670 O   0  0  0  0  0  0
  -31.4811  -12.4726   19.2109 H   0  0  0  0  0  0
  -30.3231  -11.4192   19.9383 H   0  0  0  0  0  0
  -29.8157  -11.8111   17.4943 H   0  0  0  0  0  0
  -29.6655  -13.5226   17.7970 H   0  0  0  0  0  0
  -27.8774  -11.3137   18.8505 H   0  0  0  0  0  0
  -27.4101  -12.6213   17.7849 H   0  0  0  0  0  0
  -27.6714  -14.2684   19.5241 H   0  0  0  0  0  0
  -28.7037  -12.1113   21.4156 H   0  0  0  0  0  0
  -28.3842  -13.7600   21.8204 H   0  0  0  0  0  0
  -25.2819   -9.5663   22.4635 H   0  0  0  0  0  0
  -23.9949   -7.4680   22.7505 H   0  0  0  0  0  0
  -21.0782   -8.8788   19.8989 H   0  0  0  0  0  0
  -22.3695  -10.9628   19.6063 H   0  0  0  0  0  0
  -21.2079   -7.6109   23.9630 H   0  0  0  0  0  0
  -21.1472   -6.0519   25.9041 H   0  0  0  0  0  0
  -22.0613   -2.7533   23.2907 H   0  0  0  0  0  0
  -22.4266  -11.9950   22.4815 H   0  0  0  0  0  0
  -21.1127  -13.1164   22.2554 H   0  0  0  0  0  0
  -24.6605  -15.8525   20.4909 H   0  0  0  0  0  0
  -26.2707  -15.6174   20.0422 H   0  0  0  0  0  0
  -26.7186  -32.5428   23.1107 H   0  0  0  0  0  0
  -25.0031  -33.9718   25.0428 H   0  0  0  0  0  0
  -22.7125  -31.3021   21.4064 H   0  0  0  0  0  0
  -23.3727  -35.9716   23.3312 H   0  0  0  0  0  0
  -24.3606  -36.8947   22.2045 H   0  0  0  0  0  0
  -23.7303  -37.6576   23.6634 H   0  0  0  0  0  0
  -26.0813  -31.5506   20.5949 H   0  0  0  0  0  0
  -26.8465  -30.8472   21.9903 H   0  0  0  0  0  0
  -28.1071  -28.9769   21.2035 H   0  0  0  0  0  0
  -25.9770  -25.9283   19.0003 H   0  0  0  0  0  0
  -23.9697  -27.3082   19.0088 H   0  0  0  0  0  0
  -23.7438  -30.5993   19.4057 H   0  0  0  0  0  0
  -22.7529  -29.2454   19.8601 H   0  0  0  0  0  0
  -25.1283  -36.1966   25.0822 H   0  0  0  0  0  0
  -20.9940  -28.3225   24.1432 H   0  0  0  0  0  0
  -20.5685  -26.2263   23.3611 H   0  0  0  0  0  0
  -21.6647  -26.7417   22.1215 H   0  0  0  0  0  0
  -19.6938  -25.6306   21.1223 H   0  0  0  0  0  0
  -19.6723  -27.3214   20.6764 H   0  0  0  0  0  0
  -17.4215  -26.6627   21.4036 H   0  0  0  0  0  0
  -18.0357  -26.0057   22.9033 H   0  0  0  0  0  0
  -19.7923  -30.7261   24.2254 H   0  0  0  0  0  0
  -17.4996  -31.6234   24.5151 H   0  0  0  0  0  0
  -15.5343  -30.2947   23.7648 H   0  0  0  0  0  0
  -15.8676  -28.0815   22.6995 H   0  0  0  0  0  0
  -24.5883  -30.7073   25.7866 H   0  0  0  0  0  0
  -24.8965  -32.2866   26.4961 H   0  0  0  0  0  0
  -25.8097  -30.8864   27.0240 H   0  0  0  0  0  0
  -26.2818  -29.6777   24.1148 H   0  0  0  0  0  0
  -27.3909  -29.7160   25.4656 H   0  0  0  0  0  0
  -27.8738  -30.4240   23.9406 H   0  0  0  0  0  0
  -27.2657  -33.3519   26.2163 H   0  0  0  0  0  0
  -28.3826  -32.6897   25.0307 H   0  0  0  0  0  0
  -28.0780  -31.8328   26.5343 H   0  0  0  0  0  0
  -28.2584  -38.0132   24.7463 H   0  0  0  0  0  0
  -28.1098  -36.2655   24.6278 H   0  0  0  0  0  0
  -27.2320  -37.1494   25.8852 H   0  0  0  0  0  0
  -20.9372  -29.8778   21.6960 H   0  0  0  0  0  0
  -26.0193  -38.2866   24.1345 H   0  0  0  0  0  0
  -27.7614  -19.5897   21.0739 H   0  0  0  0  0  0
  -28.0249  -17.1611   21.1859 H   0  0  0  0  0  0
  -31.9900  -20.0024   20.4699 H   0  0  0  0  0  0
  -31.6540  -23.7283   22.1054 H   0  0  0  0  0  0
  -30.8248  -23.4864   23.6176 H   0  0  0  0  0  0
  -29.8038  -25.3124   22.2279 H   0  0  0  0  0  0
  -28.6663  -24.0658   22.6654 H   0  0  0  0  0  0
  -30.1487  -24.2604   20.0134 H   0  0  0  0  0  0
  -33.4189  -18.2799   20.9854 H   0  0  0  0  0  0
  -33.0146  -17.1724   19.6774 H   0  0  0  0  0  0
  -32.8967  -16.6665   21.3792 H   0  0  0  0  0  0
  -30.1678  -13.4125   23.4815 H   0  0  0  0  0  0
  -31.1271  -14.5353   24.4387 H   0  0  0  0  0  0
  -31.7753  -13.9307   22.9340 H   0  0  0  0  0  0
  -27.2074  -24.7373   20.6273 H   0  0  0  0  0  0
  -27.9186  -24.7708   19.0265 H   0  0  0  0  0  0
  1 25  1  0  0  0
  1 30  2  0  0  0
  1 87  1  0  0  0
  2  3  1  0  0  0
  2 25  1  0  0  0
  2 91  1  0  0  0
  2 92  1  0  0  0
  3  4  1  0  0  0
  3 93  1  0  0  0
  3 94  1  0  0  0
  4  5  1  0  0  0
  4 95  1  0  0  0
  4 96  1  0  0  0
  5  6  1  0  0  0
  5 26  1  0  0  0
  5 97  1  0  0  0
  6 25  1  0  0  0
  6 98  1  0  0  0
  6 99  1  0  0  0
  7  8  2  0  0  0
  7 26  1  0  0  0
  7 29  1  0  0  0
  8  9  1  0  0  0
  8 22  1  0  0  0
  9 10  1  0  0  0
  9 27  2  0  0  0
 10 11  2  0  0  0
 10 15  1  0  0  0
 11 12  1  0  0  0
 11100  1  0  0  0
 12 13  2  0  0  0
 12101  1  0  0  0
 13 14  1  0  0  0
 13 31  1  0  0  0
 14 15  2  0  0  0
 14102  1  0  0  0
 15103  1  0  0  0
 16 17  2  0  0  0
 16 21  1  0  0  0
 16 31  1  0  0  0
 17 18  1  0  0  0
 17104  1  0  0  0
 18 19  2  0  0  0
 18105  1  0  0  0
 19 20  1  0  0  0
 19 24  1  0  0  0
 20 21  2  0  0  0
 20106  1  0  0  0
 21 23  1  0  0  0
 22 28  1  0  0  0
 22 32  2  0  0  0
 26 27  1  0  0  0
 28107  1  0  0  0
 28108  1  0  0  0
 29109  1  0  0  0
 29110  1  0  0  0
 33 34  1  0  0  0
 33 66  1  0  0  0
 33 70  2  0  0  0
 34 36  1  0  0  0
 34 59  1  0  0  0
 34111  1  0  0  0
 35 44  2  0  0  0
 35 45  1  0  0  0
 35 68  1  0  0  0
 36 56  1  0  0  0
 36112  1  0  0  0
 37 39  1  0  0  0
 37 47  1  0  0  0
 37 66  1  0  0  0
 37113  1  0  0  0
 38 43  2  0  0  0
 38 46  1  0  0  0
 38 47  1  0  0  0
 39 64  1  0  0  0
 39 67  2  0  0  0
 40 52  1  0  0  0
 40 53  2  0  0  0
 40 58  1  0  0  0
 41114  1  0  0  0
 41115  1  0  0  0
 41116  1  0  0  0
 41 48  1  0  0  0
 42 43  1  0  0  0
 42 66  1  0  0  0
 42117  1  0  0  0
 42118  1  0  0  0
 43 44  1  0  0  0
 44119  1  0  0  0
 45 46  2  0  0  0
 45120  1  0  0  0
 46121  1  0  0  0
 47122  1  0  0  0
 47123  1  0  0  0
 48 56  1  0  0  0
 48 65  1  0  0  0
 48124  1  0  0  0
 49 50  1  0  0  0
 49 53  1  0  0  0
 49 64  1  0  0  0
 49125  1  0  0  0
 50 51  1  0  0  0
 50126  1  0  0  0
 50127  1  0  0  0
 51 52  1  0  0  0
 51128  1  0  0  0
 51129  1  0  0  0
 52130  1  0  0  0
 52131  1  0  0  0
 53 54  1  0  0  0
 54 55  2  0  0  0
 54132  1  0  0  0
 55 57  1  0  0  0
 55133  1  0  0  0
 56 69  2  0  0  0
 57 58  2  0  0  0
 57134  1  0  0  0
 58135  1  0  0  0
 59 60  1  0  0  0
 59 61  1  0  0  0
 59 62  1  0  0  0
 60136  1  0  0  0
 60137  1  0  0  0
 60138  1  0  0  0
 61139  1  0  0  0
 61140  1  0  0  0
 61141  1  0  0  0
 62142  1  0  0  0
 62143  1  0  0  0
 62144  1  0  0  0
 63 65  1  0  0  0
 63145  1  0  0  0
 63146  1  0  0  0
 63147  1  0  0  0
 64148  1  0  0  0
 65149  1  0  0  0
 68 85  1  0  0  0
 71 72  2  0  0  0
 71 75  1  0  0  0
 71150  1  0  0  0
 72 76  1  0  0  0
 72151  1  0  0  0
 73 74  1  0  0  0
 73 75  2  0  0  0
 73152  1  0  0  0
 74 76  2  0  0  0
 74 83  1  0  0  0
 75 86  1  0  0  0
 76 87  1  0  0  0
 77 80  1  0  0  0
 77 86  1  0  0  0
 77 88  2  0  0  0
 78 82  1  0  0  0
 78 86  1  0  0  0
 78 89  2  0  0  0
 79 84  1  0  0  0
 79 87  1  0  0  0
 79 90  2  0  0  0
 80 81  1  0  0  0
 80153  1  0  0  0
 80154  1  0  0  0
 81 82  1  0  0  0
 81155  1  0  0  0
 81156  1  0  0  0
 82 85  1  0  0  0
 82157  1  0  0  0
 83158  1  0  0  0
 83159  1  0  0  0
 83160  1  0  0  0
 84161  1  0  0  0
 84162  1  0  0  0
 84163  1  0  0  0
 85164  1  0  0  0
 85165  1  0  0  0
M  ISO  4   1 100  68 101  85 101  87 100
M  END
> <chiral flag>
0

> <version>
0

> <s_m_source_file>
/data/baiqing/PycharmProjects/Reinvent-master-3.2/result/LINK_invent/BTK/process_docking_weight1_custom_product_contain_oxygen_bond_distance_aromatic_linkinvent_7_9_3/rearranged_h_0105.sdf

> <i_m_source_file_index>
22

> <r_mmod_Potential_Energy-OPLS-2005>
293.274505615234

> <r_mmod_Stretch_Energy-OPLS-2005>
111.684562683105

> <r_mmod_Bend_Energy-OPLS-2005>
158.593414306641

> <r_mmod_Torsional_Energy-OPLS-2005>
352.569274902344

> <r_mmod_Improper_Torsional_Energy-OPLS-2005>
6.09205436706543

> <r_mmod_Van_der_Waal_Energy-OPLS-2005>
178.292572021484

> <r_mmod_Electrostatic_Energy-OPLS-2005>
-346.745758056641

> <r_mmod_Solvation_Energy-OPLS-2005>
-219.22575378418

> <b_mmod_Minimization_Converged-OPLS-2005>
0

> <r_mmod_RMS_Derivative-OPLS-2005>
5.95336103439331

$$$$
22
                    3D
 Structure written by MMmdl.
157165  0  0  1  0            999 V2000
  -30.6750  -14.6207   20.5956 C   0  0  0  0  0  0
  -30.4351  -12.4081   19.4645 C   0  0  0  0  0  0
  -29.5108  -12.5402   18.2332 C   0  0  0  0  0  0
  -28.0326  -12.3673   18.6321 C   0  0  0  0  0  0
  -27.6560  -13.2185   19.8717 C   0  0  2  0  0  0
  -28.6916  -13.0374   21.0011 C   0  0  0  0  0  0
  -25.2510  -13.8133   20.5582 C   0  0  0  0  0  0
  -24.1811  -13.0408   20.9176 C   0  0  0  0  0  0
  -24.6401  -11.6890   20.8748 C   0  0  0  0  0  0
  -23.9065  -10.4280   21.0413 C   0  0  0  0  0  0
  -24.3616   -9.4194   21.9190 C   0  0  0  0  0  0
  -23.6287   -8.2233   22.0757 C   0  0  0  0  0  0
  -22.4273   -8.0272   21.3540 C   0  0  0  0  0  0
  -21.9908   -9.0247   20.4646 C   0  0  0  0  0  0
  -22.7239  -10.2127   20.3057 C   0  0  0  0  0  0
  -21.6851   -6.0728   22.5278 C   0  0  0  0  0  0
  -21.4012   -6.5634   23.8210 C   0  0  0  0  0  0
  -21.3658   -5.6789   24.9174 C   0  0  0  0  0  0
  -21.6047   -4.3051   24.7227 C   0  0  0  0  0  0
  -21.8818   -3.8139   23.4349 C   0  0  0  0  0  0
  -21.9194   -4.6955   22.3403 C   0  0  0  0  0  0
  -22.7837  -13.5210   21.1847 C   0  0  0  0  0  0
  -22.1661   -4.2141   21.0981 F   0  0  0  0  0  0
  -21.5632   -3.4534   25.7740 F   0  0  0  0  0  0
  -30.0189  -13.4111   20.4738 N   0  0  0  0  0  0
  -26.2983  -12.9346   20.3309 N   0  0  0  0  0  0
  -25.9332  -11.6499   20.5762 N   0  0  0  0  0  0
  -22.0494  -12.8208   22.0418 N   0  0  0  0  0  0
  -25.4093  -15.1819   20.3772 N   0  0  0  0  0  0
  -31.7491  -14.8145   20.0153 O   0  0  0  0  0  0
  -21.6635   -6.8871   21.4240 O   0  0  0  0  0  0
  -22.3520  -14.5517   20.6699 O   0  0  0  0  0  0
  -24.6266  -31.8601   23.2044 C   0  0  0  0  0  0
  -25.9111  -32.4781   23.8369 C   0  0  1  0  0  0
  -27.2226  -27.3181   20.1134 C   0  0  0  0  0  0
  -25.5921  -33.8581   24.2288 N   0  0  0  0  0  0
  -23.4199  -30.4850   21.5482 C   0  0  2  0  0  0
  -24.8657  -28.9439   20.1122 C   0  0  0  0  0  0
  -22.7478  -29.4629   22.4950 C   0  0  0  0  0  0
  -18.0280  -28.1392   22.8487 C   0  0  0  0  0  0
  -24.1482  -36.7300   23.2639 C   0  0  0  0  0  0
  -25.9625  -30.7905   21.3759 C   0  0  0  0  0  0
  -26.0366  -29.4192   20.7159 C   0  0  0  0  0  0
  -27.2185  -28.6187   20.7071 C   0  0  0  0  0  0
  -26.0259  -26.9013   19.4816 C   0  0  0  0  0  0
  -24.8627  -27.6901   19.4863 C   0  0  0  0  0  0
  -23.6335  -29.8224   20.1634 C   0  0  0  0  0  0
  -25.4108  -36.3084   24.0331 C   0  0  1  0  0  0
  -20.5881  -28.3693   23.1288 C   0  0  2  0  0  0
  -20.6771  -26.9414   22.5415 C   0  0  0  0  0  0
  -19.5746  -26.6390   21.5216 C   0  0  0  0  0  0
  -18.1927  -26.7934   22.1629 C   0  0  0  0  0  0
  -19.1533  -28.8860   23.2880 C   0  0  0  0  0  0
  -18.9455  -30.1460   23.8893 C   0  0  0  0  0  0
  -17.6454  -30.6590   24.0566 C   0  0  0  0  0  0
  -25.9044  -34.9452   23.5108 C   0  0  0  0  0  0
  -16.5346  -29.9088   23.6343 C   0  0  0  0  0  0
  -16.7267  -28.6507   23.0354 C   0  0  0  0  0  0
  -26.4495  -31.6587   25.0738 C   0  0  0  0  0  0
  -25.3726  -31.3717   26.1461 C   0  0  0  0  0  0
  -27.0351  -30.3015   24.6197 C   0  0  0  0  0  0
  -27.6057  -32.4324   25.7497 C   0  0  0  0  0  0
  -27.5581  -37.1794   24.8465 C   0  0  0  0  0  0
  -21.4190  -29.3047   22.3687 N   0  0  0  0  0  0
  -26.4289  -37.3777   23.9416 N   0  0  0  0  0  0
  -24.6886  -31.0612   22.0998 N   0  0  0  0  0  0
  -23.4198  -28.8160   23.3026 O   0  0  0  0  0  0
  -28.3305  -26.4541   20.1670 O   0  0  0  0  0  0
  -26.5616  -34.8916   22.4676 O   0  0  0  0  0  0
  -23.5428  -32.1396   23.7369 O   0  0  0  0  0  0
  -31.0873  -17.9428   20.5533 C   0  0  0  0  0  0
  -28.7728  -19.4430   20.9911 C   0  0  0  0  0  0
  -29.9679  -17.2279   21.0571 C   0  0  0  0  0  0
  -28.7898  -18.0346   21.2545 C   0  0  0  0  0  0
  -29.9136  -20.1479   20.5334 C   0  0  0  0  0  0
  -31.0648  -19.3466   20.3056 C   0  0  0  0  0  0
  -30.0840  -15.7526   21.5211 C   0  0  0  0  0  0
  -29.1936  -23.9798   20.3478 C   0  0  0  0  0  0
  -27.2125  -17.8049   23.2414 C   0  0  0  0  0  0
  -27.4833  -17.4440   21.7749 C   0  0  0  0  0  0
  -28.0394  -25.0039   20.0277 C   0  0  0  0  0  0
  -28.8422  -22.4398   20.4866 C   0  0  0  0  0  0
  -29.7412  -15.4827   22.7119 N   0  0  0  0  0  0
  -30.3584  -24.3728   20.4868 O   0  0  0  0  0  0
  -29.9884  -21.5422   20.3134 O   0  0  0  0  0  0
  -32.1968  -19.9425   19.8580 F   0  0  0  0  0  0
  -31.4775  -12.5274   19.1648 H   0  0  0  0  0  0
  -30.3693  -11.4034   19.8848 H   0  0  0  0  0  0
  -29.7831  -11.8045   17.4753 H   0  0  0  0  0  0
  -29.6534  -13.5202   17.7752 H   0  0  0  0  0  0
  -27.8663  -11.3108   18.8453 H   0  0  0  0  0  0
  -27.3822  -12.6150   17.7923 H   0  0  0  0  0  0
  -27.6876  -14.2630   19.5608 H   0  0  0  0  0  0
  -28.7082  -11.9989   21.3347 H   0  0  0  0  0  0
  -28.3832  -13.6026   21.8760 H   0  0  0  0  0  0
  -25.2761   -9.5671   22.4762 H   0  0  0  0  0  0
  -23.9993   -7.4624   22.7476 H   0  0  0  0  0  0
  -21.0836   -8.8765   19.8951 H   0  0  0  0  0  0
  -22.3694  -10.9665   19.6162 H   0  0  0  0  0  0
  -21.1999   -7.6142   23.9708 H   0  0  0  0  0  0
  -21.1485   -6.0522   25.9078 H   0  0  0  0  0  0
  -22.0601   -2.7602   23.2850 H   0  0  0  0  0  0
  -22.4115  -11.9869   22.4803 H   0  0  0  0  0  0
  -21.1113  -13.1233   22.2634 H   0  0  0  0  0  0
  -24.6271  -15.8222   20.4505 H   0  0  0  0  0  0
  -26.2349  -15.6077   19.9781 H   0  0  0  0  0  0
  -26.7175  -32.5456   23.1117 H   0  0  0  0  0  0
  -25.0037  -33.9720   25.0410 H   0  0  0  0  0  0
  -22.7138  -31.3060   21.4078 H   0  0  0  0  0  0
  -23.3750  -35.9625   23.3284 H   0  0  0  0  0  0
  -24.3574  -36.8950   22.2057 H   0  0  0  0  0  0
  -23.7227  -37.6489   23.6682 H   0  0  0  0  0  0
  -26.0923  -31.5541   20.6075 H   0  0  0  0  0  0
  -26.8434  -30.8398   22.0045 H   0  0  0  0  0  0
  -28.1148  -28.9776   21.1926 H   0  0  0  0  0  0
  -25.9511  -25.9483   18.9808 H   0  0  0  0  0  0
  -23.9661  -27.3209   19.0076 H   0  0  0  0  0  0
  -23.7498  -30.5995   19.4069 H   0  0  0  0  0  0
  -22.7532  -29.2503   19.8648 H   0  0  0  0  0  0
  -25.1288  -36.1934   25.0822 H   0  0  0  0  0  0
  -20.9964  -28.3261   24.1413 H   0  0  0  0  0  0
  -20.5688  -26.2293   23.3610 H   0  0  0  0  0  0
  -21.6638  -26.7460   22.1195 H   0  0  0  0  0  0
  -19.6907  -25.6301   21.1242 H   0  0  0  0  0  0
  -19.6684  -27.3198   20.6743 H   0  0  0  0  0  0
  -17.4199  -26.6679   21.4029 H   0  0  0  0  0  0
  -18.0320  -26.0080   22.9029 H   0  0  0  0  0  0
  -19.7929  -30.7280   24.2256 H   0  0  0  0  0  0
  -17.5011  -31.6272   24.5166 H   0  0  0  0  0  0
  -15.5344  -30.2981   23.7682 H   0  0  0  0  0  0
  -15.8665  -28.0829   22.7063 H   0  0  0  0  0  0
  -24.5897  -30.7075   25.7776 H   0  0  0  0  0  0
  -24.8915  -32.2877   26.4896 H   0  0  0  0  0  0
  -25.8044  -30.8876   27.0231 H   0  0  0  0  0  0
  -26.2930  -29.6735   24.1252 H   0  0  0  0  0  0
  -27.4085  -29.7299   25.4706 H   0  0  0  0  0  0
  -27.8783  -30.4310   23.9410 H   0  0  0  0  0  0
  -27.2689  -33.3661   26.2018 H   0  0  0  0  0  0
  -28.3883  -32.6822   25.0319 H   0  0  0  0  0  0
  -28.0701  -31.8483   26.5451 H   0  0  0  0  0  0
  -28.2579  -38.0109   24.7537 H   0  0  0  0  0  0
  -28.1097  -36.2641   24.6264 H   0  0  0  0  0  0
  -27.2302  -37.1408   25.8867 H   0  0  0  0  0  0
  -20.9362  -29.8766   21.6900 H   0  0  0  0  0  0
  -26.0173  -38.2851   24.1428 H   0  0  0  0  0  0
  -32.0187  -17.4193   20.3964 H   0  0  0  0  0  0
  -27.8589  -19.9892   21.1756 H   0  0  0  0  0  0
  -26.2760  -17.3592   23.5787 H   0  0  0  0  0  0
  -27.1305  -18.8828   23.3790 H   0  0  0  0  0  0
  -28.0043  -17.4444   23.8974 H   0  0  0  0  0  0
  -27.4567  -16.3632   21.6512 H   0  0  0  0  0  0
  -26.6653  -17.8200   21.1581 H   0  0  0  0  0  0
  -27.1913  -24.7464   20.6630 H   0  0  0  0  0  0
  -27.7408  -24.8064   18.9986 H   0  0  0  0  0  0
  -28.0713  -22.1862   19.7595 H   0  0  0  0  0  0
  -28.4135  -22.2830   21.4770 H   0  0  0  0  0  0
  -29.4042  -16.3130   23.1837 H   0  0  0  0  0  0
  1 25  1  0  0  0
  1 30  2  0  0  0
  1 77  1  0  0  0
  2  3  1  0  0  0
  2 25  1  0  0  0
  2 87  1  0  0  0
  2 88  1  0  0  0
  3  4  1  0  0  0
  3 89  1  0  0  0
  3 90  1  0  0  0
  4  5  1  0  0  0
  4 91  1  0  0  0
  4 92  1  0  0  0
  5  6  1  0  0  0
  5 26  1  0  0  0
  5 93  1  0  0  0
  6 25  1  0  0  0
  6 94  1  0  0  0
  6 95  1  0  0  0
  7  8  2  0  0  0
  7 26  1  0  0  0
  7 29  1  0  0  0
  8  9  1  0  0  0
  8 22  1  0  0  0
  9 10  1  0  0  0
  9 27  2  0  0  0
 10 11  2  0  0  0
 10 15  1  0  0  0
 11 12  1  0  0  0
 11 96  1  0  0  0
 12 13  2  0  0  0
 12 97  1  0  0  0
 13 14  1  0  0  0
 13 31  1  0  0  0
 14 15  2  0  0  0
 14 98  1  0  0  0
 15 99  1  0  0  0
 16 17  2  0  0  0
 16 21  1  0  0  0
 16 31  1  0  0  0
 17 18  1  0  0  0
 17100  1  0  0  0
 18 19  2  0  0  0
 18101  1  0  0  0
 19 20  1  0  0  0
 19 24  1  0  0  0
 20 21  2  0  0  0
 20102  1  0  0  0
 21 23  1  0  0  0
 22 28  1  0  0  0
 22 32  2  0  0  0
 26 27  1  0  0  0
 28103  1  0  0  0
 28104  1  0  0  0
 29105  1  0  0  0
 29106  1  0  0  0
 33 34  1  0  0  0
 33 66  1  0  0  0
 33 70  2  0  0  0
 34 36  1  0  0  0
 34 59  1  0  0  0
 34107  1  0  0  0
 35 44  2  0  0  0
 35 45  1  0  0  0
 35 68  1  0  0  0
 36 56  1  0  0  0
 36108  1  0  0  0
 37 39  1  0  0  0
 37 47  1  0  0  0
 37 66  1  0  0  0
 37109  1  0  0  0
 38 43  2  0  0  0
 38 46  1  0  0  0
 38 47  1  0  0  0
 39 64  1  0  0  0
 39 67  2  0  0  0
 40 52  1  0  0  0
 40 53  2  0  0  0
 40 58  1  0  0  0
 41110  1  0  0  0
 41111  1  0  0  0
 41112  1  0  0  0
 41 48  1  0  0  0
 42 43  1  0  0  0
 42 66  1  0  0  0
 42113  1  0  0  0
 42114  1  0  0  0
 43 44  1  0  0  0
 44115  1  0  0  0
 45 46  2  0  0  0
 45116  1  0  0  0
 46117  1  0  0  0
 47118  1  0  0  0
 47119  1  0  0  0
 48 56  1  0  0  0
 48 65  1  0  0  0
 48120  1  0  0  0
 49 50  1  0  0  0
 49 53  1  0  0  0
 49 64  1  0  0  0
 49121  1  0  0  0
 50 51  1  0  0  0
 50122  1  0  0  0
 50123  1  0  0  0
 51 52  1  0  0  0
 51124  1  0  0  0
 51125  1  0  0  0
 52126  1  0  0  0
 52127  1  0  0  0
 53 54  1  0  0  0
 54 55  2  0  0  0
 54128  1  0  0  0
 55 57  1  0  0  0
 55129  1  0  0  0
 56 69  2  0  0  0
 57 58  2  0  0  0
 57130  1  0  0  0
 58131  1  0  0  0
 59 60  1  0  0  0
 59 61  1  0  0  0
 59 62  1  0  0  0
 60132  1  0  0  0
 60133  1  0  0  0
 60134  1  0  0  0
 61135  1  0  0  0
 61136  1  0  0  0
 61137  1  0  0  0
 62138  1  0  0  0
 62139  1  0  0  0
 62140  1  0  0  0
 63 65  1  0  0  0
 63141  1  0  0  0
 63142  1  0  0  0
 63143  1  0  0  0
 64144  1  0  0  0
 65145  1  0  0  0
 68 81  1  0  0  0
 71 73  2  0  0  0
 71 76  1  0  0  0
 71146  1  0  0  0
 72 74  2  0  0  0
 72 75  1  0  0  0
 72147  1  0  0  0
 73 74  1  0  0  0
 73 77  1  0  0  0
 74 80  1  0  0  0
 75 76  2  0  0  0
 75 85  1  0  0  0
 76 86  1  0  0  0
 77 83  2  0  0  0
 78 81  1  0  0  0
 78 82  1  0  0  0
 78 84  2  0  0  0
 79 80  1  0  0  0
 79148  1  0  0  0
 79149  1  0  0  0
 79150  1  0  0  0
 80151  1  0  0  0
 80152  1  0  0  0
 81153  1  0  0  0
 81154  1  0  0  0
 82 85  1  0  0  0
 82155  1  0  0  0
 82156  1  0  0  0
 83157  1  0  0  0
M  ISO  4   1 100  68 101  77 100  81 101
M  END
> <chiral flag>
0

> <version>
0

> <s_m_source_file>
/data/baiqing/PycharmProjects/Reinvent-master-3.2/result/LINK_invent/BTK/process_docking_weight1_custom_product_contain_oxygen_bond_distance_aromatic_linkinvent_7_9_3/rearranged_h_0105.sdf

> <i_m_source_file_index>
23

> <r_mmod_Potential_Energy-OPLS-2005>
239.198883056641

> <r_mmod_Stretch_Energy-OPLS-2005>
94.2118606567383

> <r_mmod_Bend_Energy-OPLS-2005>
148.855941772461

> <r_mmod_Torsional_Energy-OPLS-2005>
206.757202148438

> <r_mmod_Improper_Torsional_Energy-OPLS-2005>
3.48247408866882

> <r_mmod_Van_der_Waal_Energy-OPLS-2005>
149.33219909668

> <r_mmod_Electrostatic_Energy-OPLS-2005>
-176.818664550781

> <r_mmod_Solvation_Energy-OPLS-2005>
-231.890518188477

> <b_mmod_Minimization_Converged-OPLS-2005>
0

> <r_mmod_RMS_Derivative-OPLS-2005>
1.00284516811371

$$$$
23
                    3D
 Structure written by MMmdl.
160168  0  0  1  0            999 V2000
  -30.6566  -14.5404   20.5318 C   0  0  0  0  0  0
  -30.4265  -12.3366   19.4470 C   0  0  0  0  0  0
  -29.5105  -12.4913   18.2150 C   0  0  0  0  0  0
  -28.0268  -12.3484   18.6189 C   0  0  0  0  0  0
  -27.6510  -13.2111   19.8557 C   0  0  2  0  0  0
  -28.6849  -13.0377   20.9889 C   0  0  0  0  0  0
  -25.2528  -13.8156   20.5659 C   0  0  0  0  0  0
  -24.1800  -13.0433   20.9207 C   0  0  0  0  0  0
  -24.6354  -11.6903   20.8713 C   0  0  0  0  0  0
  -23.9034  -10.4293   21.0401 C   0  0  0  0  0  0
  -24.3602   -9.4212   21.9179 C   0  0  0  0  0  0
  -23.6291   -8.2227   22.0748 C   0  0  0  0  0  0
  -22.4250   -8.0281   21.3558 C   0  0  0  0  0  0
  -21.9881   -9.0245   20.4653 C   0  0  0  0  0  0
  -22.7204  -10.2129   20.3058 C   0  0  0  0  0  0
  -21.6833   -6.0745   22.5297 C   0  0  0  0  0  0
  -21.4012   -6.5637   23.8242 C   0  0  0  0  0  0
  -21.3659   -5.6772   24.9190 C   0  0  0  0  0  0
  -21.6025   -4.3040   24.7221 C   0  0  0  0  0  0
  -21.8807   -3.8157   23.4334 C   0  0  0  0  0  0
  -21.9178   -4.6982   22.3404 C   0  0  0  0  0  0
  -22.7828  -13.5244   21.1877 C   0  0  0  0  0  0
  -22.1639   -4.2184   21.0980 F   0  0  0  0  0  0
  -21.5636   -3.4518   25.7733 F   0  0  0  0  0  0
  -30.0081  -13.3463   20.4315 N   0  0  0  0  0  0
  -26.2952  -12.9342   20.3255 N   0  0  0  0  0  0
  -25.9271  -11.6503   20.5676 N   0  0  0  0  0  0
  -22.0423  -12.8290   22.0429 N   0  0  0  0  0  0
  -25.4209  -15.1876   20.4096 N   0  0  0  0  0  0
  -31.8263  -14.6731   20.1571 O   0  0  0  0  0  0
  -21.6602   -6.8884   21.4258 O   0  0  0  0  0  0
  -22.3527  -14.5544   20.6713 O   0  0  0  0  0  0
  -24.6197  -31.8653   23.2077 C   0  0  0  0  0  0
  -25.9077  -32.4787   23.8384 C   0  0  1  0  0  0
  -27.2166  -27.3805   20.0938 C   0  0  0  0  0  0
  -25.5920  -33.8589   24.2307 N   0  0  0  0  0  0
  -23.4068  -30.4925   21.5473 C   0  0  2  0  0  0
  -24.8480  -28.9548   20.1093 C   0  0  0  0  0  0
  -22.7433  -29.4639   22.4944 C   0  0  0  0  0  0
  -18.0270  -28.1368   22.8473 C   0  0  0  0  0  0
  -24.1483  -36.7314   23.2636 C   0  0  0  0  0  0
  -25.9419  -30.8148   21.3678 C   0  0  0  0  0  0
  -26.0121  -29.4464   20.7112 C   0  0  0  0  0  0
  -27.1956  -28.6654   20.7024 C   0  0  0  0  0  0
  -26.0223  -26.9102   19.5003 C   0  0  0  0  0  0
  -24.8499  -27.6878   19.5039 C   0  0  0  0  0  0
  -23.6171  -29.8327   20.1584 C   0  0  0  0  0  0
  -25.4101  -36.3083   24.0331 C   0  0  1  0  0  0
  -20.5867  -28.3654   23.1295 C   0  0  2  0  0  0
  -20.6757  -26.9379   22.5419 C   0  0  0  0  0  0
  -19.5744  -26.6357   21.5198 C   0  0  0  0  0  0
  -18.1913  -26.7907   22.1599 C   0  0  0  0  0  0
  -19.1530  -28.8823   23.2869 C   0  0  0  0  0  0
  -18.9454  -30.1426   23.8884 C   0  0  0  0  0  0
  -17.6468  -30.6558   24.0554 C   0  0  0  0  0  0
  -25.9035  -34.9451   23.5114 C   0  0  0  0  0  0
  -16.5353  -29.9068   23.6316 C   0  0  0  0  0  0
  -16.7268  -28.6489   23.0317 C   0  0  0  0  0  0
  -26.4500  -31.6577   25.0730 C   0  0  0  0  0  0
  -25.3790  -31.3715   26.1508 C   0  0  0  0  0  0
  -27.0336  -30.3003   24.6147 C   0  0  0  0  0  0
  -27.6041  -32.4320   25.7513 C   0  0  0  0  0  0
  -27.5579  -37.1810   24.8461 C   0  0  0  0  0  0
  -21.4149  -29.3029   22.3706 N   0  0  0  0  0  0
  -26.4280  -37.3783   23.9419 N   0  0  0  0  0  0
  -24.6743  -31.0739   22.0977 N   0  0  0  0  0  0
  -23.4201  -28.8184   23.2976 O   0  0  0  0  0  0
  -28.3829  -26.6256   20.1086 O   0  0  0  0  0  0
  -26.5591  -34.8923   22.4670 O   0  0  0  0  0  0
  -23.5375  -32.1434   23.7445 O   0  0  0  0  0  0
  -31.8954  -18.7839   21.1937 C   0  0  0  0  0  0
  -31.5245  -17.4309   21.2666 C   0  0  0  0  0  0
  -29.3354  -18.0064   20.3899 C   0  0  0  0  0  0
  -29.6957  -19.3882   20.2949 C   0  0  0  0  0  0
  -31.0173  -19.7633   20.6787 C   0  0  0  0  0  0
  -30.2509  -17.0079   20.8290 C   0  0  0  0  0  0
  -28.6981  -20.3666   19.6786 C   0  0  0  0  0  0
  -28.1606  -22.7002   19.5960 C   0  0  0  0  0  0
  -28.1223  -24.1008   20.2602 C   0  0  0  0  0  0
  -31.5644  -21.1791   20.5328 C   0  0  0  0  0  0
  -28.6125  -22.5111   17.0474 C   0  0  0  0  0  0
  -27.5652  -22.6788   18.1675 C   0  0  0  0  0  0
  -28.4543  -25.3554   19.3965 C   0  0  0  0  0  0
  -28.6353  -21.6622   20.2254 N   0  0  0  0  0  0
  -29.8816  -15.6132   20.8517 N   0  0  0  0  0  0
  -27.9911  -19.9194   18.7759 O   0  0  0  0  0  0
  -27.8986  -24.2301   21.4712 O   0  0  0  0  0  0
  -31.4738  -12.4450   19.1597 H   0  0  0  0  0  0
  -30.3373  -11.3369   19.8762 H   0  0  0  0  0  0
  -29.7736  -11.7487   17.4618 H   0  0  0  0  0  0
  -29.6767  -13.4646   17.7488 H   0  0  0  0  0  0
  -27.8474  -11.2966   18.8423 H   0  0  0  0  0  0
  -27.3810  -12.5909   17.7744 H   0  0  0  0  0  0
  -27.6801  -14.2497   19.5267 H   0  0  0  0  0  0
  -28.6635  -12.0113   21.3595 H   0  0  0  0  0  0
  -28.4406  -13.6702   21.8437 H   0  0  0  0  0  0
  -25.2767   -9.5666   22.4739 H   0  0  0  0  0  0
  -24.0012   -7.4589   22.7437 H   0  0  0  0  0  0
  -21.0819   -8.8749   19.8951 H   0  0  0  0  0  0
  -22.3672  -10.9655   19.6149 H   0  0  0  0  0  0
  -21.2009   -7.6145   23.9766 H   0  0  0  0  0  0
  -21.1498   -6.0497   25.9096 H   0  0  0  0  0  0
  -22.0588   -2.7625   23.2808 H   0  0  0  0  0  0
  -22.3977  -11.9991   22.4933 H   0  0  0  0  0  0
  -21.1033  -13.1361   22.2563 H   0  0  0  0  0  0
  -24.6459  -15.8340   20.5146 H   0  0  0  0  0  0
  -26.2607  -15.6305   20.0629 H   0  0  0  0  0  0
  -26.7145  -32.5491   23.1134 H   0  0  0  0  0  0
  -25.0118  -33.9737   25.0490 H   0  0  0  0  0  0
  -22.6945  -31.3092   21.4123 H   0  0  0  0  0  0
  -23.3718  -35.9673   23.3292 H   0  0  0  0  0  0
  -24.3583  -36.8938   22.2051 H   0  0  0  0  0  0
  -23.7271  -37.6530   23.6673 H   0  0  0  0  0  0
  -26.0675  -31.5770   20.5982 H   0  0  0  0  0  0
  -26.8240  -30.8624   21.9947 H   0  0  0  0  0  0
  -28.0931  -29.0436   21.1716 H   0  0  0  0  0  0
  -25.9517  -25.9333   19.0460 H   0  0  0  0  0  0
  -23.9502  -27.2997   19.0440 H   0  0  0  0  0  0
  -23.7355  -30.6136   19.4057 H   0  0  0  0  0  0
  -22.7373  -29.2629   19.8538 H   0  0  0  0  0  0
  -25.1264  -36.1930   25.0821 H   0  0  0  0  0  0
  -20.9943  -28.3224   24.1418 H   0  0  0  0  0  0
  -20.5605  -26.2273   23.3618 H   0  0  0  0  0  0
  -21.6640  -26.7382   22.1256 H   0  0  0  0  0  0
  -19.6896  -25.6265   21.1222 H   0  0  0  0  0  0
  -19.6677  -27.3168   20.6727 H   0  0  0  0  0  0
  -17.4189  -26.6642   21.3987 H   0  0  0  0  0  0
  -18.0298  -26.0053   22.8997 H   0  0  0  0  0  0
  -19.7937  -30.7227   24.2254 H   0  0  0  0  0  0
  -17.5025  -31.6241   24.5160 H   0  0  0  0  0  0
  -15.5353  -30.2961   23.7649 H   0  0  0  0  0  0
  -15.8659  -28.0814   22.7016 H   0  0  0  0  0  0
  -24.5940  -30.7048   25.7929 H   0  0  0  0  0  0
  -24.9018  -32.2883   26.4977 H   0  0  0  0  0  0
  -25.8183  -30.8923   27.0267 H   0  0  0  0  0  0
  -26.2893  -29.6745   24.1205 H   0  0  0  0  0  0
  -27.4087  -29.7257   25.4632 H   0  0  0  0  0  0
  -27.8746  -30.4289   23.9325 H   0  0  0  0  0  0
  -27.2604  -33.3596   26.2112 H   0  0  0  0  0  0
  -28.3855  -32.6915   25.0357 H   0  0  0  0  0  0
  -28.0719  -31.8452   26.5433 H   0  0  0  0  0  0
  -28.2579  -38.0120   24.7484 H   0  0  0  0  0  0
  -28.1073  -36.2638   24.6268 H   0  0  0  0  0  0
  -27.2313  -37.1457   25.8872 H   0  0  0  0  0  0
  -20.9300  -29.8834   21.7009 H   0  0  0  0  0  0
  -26.0139  -38.2857   24.1406 H   0  0  0  0  0  0
  -32.8919  -19.0582   21.5116 H   0  0  0  0  0  0
  -32.2417  -16.7177   21.6446 H   0  0  0  0  0  0
  -28.3499  -17.7059   20.0663 H   0  0  0  0  0  0
  -32.6347  -21.2223   20.7380 H   0  0  0  0  0  0
  -31.0755  -21.8581   21.2316 H   0  0  0  0  0  0
  -31.4180  -21.5459   19.5147 H   0  0  0  0  0  0
  -28.1307  -22.4851   16.0705 H   0  0  0  0  0  0
  -29.1844  -21.5876   17.1368 H   0  0  0  0  0  0
  -29.3219  -23.3368   17.0328 H   0  0  0  0  0  0
  -26.9849  -23.5791   17.9778 H   0  0  0  0  0  0
  -26.8018  -21.9043   18.0975 H   0  0  0  0  0  0
  -27.8753  -25.3863   18.4772 H   0  0  0  0  0  0
  -29.4881  -25.2277   19.0768 H   0  0  0  0  0  0
  -28.9008  -15.4115   20.9787 H   0  0  0  0  0  0
  1 25  1  0  0  0
  1 30  2  0  0  0
  1 85  1  0  0  0
  2  3  1  0  0  0
  2 25  1  0  0  0
  2 88  1  0  0  0
  2 89  1  0  0  0
  3  4  1  0  0  0
  3 90  1  0  0  0
  3 91  1  0  0  0
  4  5  1  0  0  0
  4 92  1  0  0  0
  4 93  1  0  0  0
  5  6  1  0  0  0
  5 26  1  0  0  0
  5 94  1  0  0  0
  6 25  1  0  0  0
  6 95  1  0  0  0
  6 96  1  0  0  0
  7  8  2  0  0  0
  7 26  1  0  0  0
  7 29  1  0  0  0
  8  9  1  0  0  0
  8 22  1  0  0  0
  9 10  1  0  0  0
  9 27  2  0  0  0
 10 11  2  0  0  0
 10 15  1  0  0  0
 11 12  1  0  0  0
 11 97  1  0  0  0
 12 13  2  0  0  0
 12 98  1  0  0  0
 13 14  1  0  0  0
 13 31  1  0  0  0
 14 15  2  0  0  0
 14 99  1  0  0  0
 15100  1  0  0  0
 16 17  2  0  0  0
 16 21  1  0  0  0
 16 31  1  0  0  0
 17 18  1  0  0  0
 17101  1  0  0  0
 18 19  2  0  0  0
 18102  1  0  0  0
 19 20  1  0  0  0
 19 24  1  0  0  0
 20 21  2  0  0  0
 20103  1  0  0  0
 21 23  1  0  0  0
 22 28  1  0  0  0
 22 32  2  0  0  0
 26 27  1  0  0  0
 28104  1  0  0  0
 28105  1  0  0  0
 29106  1  0  0  0
 29107  1  0  0  0
 33 34  1  0  0  0
 33 66  1  0  0  0
 33 70  2  0  0  0
 34 36  1  0  0  0
 34 59  1  0  0  0
 34108  1  0  0  0
 35 44  2  0  0  0
 35 45  1  0  0  0
 35 68  1  0  0  0
 36 56  1  0  0  0
 36109  1  0  0  0
 37 39  1  0  0  0
 37 47  1  0  0  0
 37 66  1  0  0  0
 37110  1  0  0  0
 38 43  2  0  0  0
 38 46  1  0  0  0
 38 47  1  0  0  0
 39 64  1  0  0  0
 39 67  2  0  0  0
 40 52  1  0  0  0
 40 53  2  0  0  0
 40 58  1  0  0  0
 41111  1  0  0  0
 41112  1  0  0  0
 41113  1  0  0  0
 41 48  1  0  0  0
 42 43  1  0  0  0
 42 66  1  0  0  0
 42114  1  0  0  0
 42115  1  0  0  0
 43 44  1  0  0  0
 44116  1  0  0  0
 45 46  2  0  0  0
 45117  1  0  0  0
 46118  1  0  0  0
 47119  1  0  0  0
 47120  1  0  0  0
 48 56  1  0  0  0
 48 65  1  0  0  0
 48121  1  0  0  0
 49 50  1  0  0  0
 49 53  1  0  0  0
 49 64  1  0  0  0
 49122  1  0  0  0
 50 51  1  0  0  0
 50123  1  0  0  0
 50124  1  0  0  0
 51 52  1  0  0  0
 51125  1  0  0  0
 51126  1  0  0  0
 52127  1  0  0  0
 52128  1  0  0  0
 53 54  1  0  0  0
 54 55  2  0  0  0
 54129  1  0  0  0
 55 57  1  0  0  0
 55130  1  0  0  0
 56 69  2  0  0  0
 57 58  2  0  0  0
 57131  1  0  0  0
 58132  1  0  0  0
 59 60  1  0  0  0
 59 61  1  0  0  0
 59 62  1  0  0  0
 60133  1  0  0  0
 60134  1  0  0  0
 60135  1  0  0  0
 61136  1  0  0  0
 61137  1  0  0  0
 61138  1  0  0  0
 62139  1  0  0  0
 62140  1  0  0  0
 62141  1  0  0  0
 63 65  1  0  0  0
 63142  1  0  0  0
 63143  1  0  0  0
 63144  1  0  0  0
 64145  1  0  0  0
 65146  1  0  0  0
 68 83  1  0  0  0
 71 72  2  0  0  0
 71 75  1  0  0  0
 71147  1  0  0  0
 72 76  1  0  0  0
 72148  1  0  0  0
 73 74  1  0  0  0
 73 76  2  0  0  0
 73149  1  0  0  0
 74 75  2  0  0  0
 74 77  1  0  0  0
 75 80  1  0  0  0
 76 85  1  0  0  0
 77 84  1  0  0  0
 77 86  2  0  0  0
 78 79  1  0  0  0
 78 82  1  0  0  0
 78 84  2  0  0  0
 79 83  1  0  0  0
 79 87  2  0  0  0
 80150  1  0  0  0
 80151  1  0  0  0
 80152  1  0  0  0
 81 82  1  0  0  0
 81153  1  0  0  0
 81154  1  0  0  0
 81155  1  0  0  0
 82156  1  0  0  0
 82157  1  0  0  0
 83158  1  0  0  0
 83159  1  0  0  0
 85160  1  0  0  0
M  ISO  4   1 100  68 101  83 101  85 100
M  END
> <chiral flag>
0

> <version>
0

> <s_m_source_file>
/data/baiqing/PycharmProjects/Reinvent-master-3.2/result/LINK_invent/BTK/process_docking_weight1_custom_product_contain_oxygen_bond_distance_aromatic_linkinvent_7_9_3/rearranged_h_0105.sdf

> <i_m_source_file_index>
24

> <r_mmod_Potential_Energy-OPLS-2005>
64.8649673461914

> <r_mmod_Stretch_Energy-OPLS-2005>
60.6121559143066

> <r_mmod_Bend_Energy-OPLS-2005>
131.787170410156

> <r_mmod_Torsional_Energy-OPLS-2005>
229.18994140625

> <r_mmod_Improper_Torsional_Energy-OPLS-2005>
6.20601892471313

> <r_mmod_Van_der_Waal_Energy-OPLS-2005>
172.039459228516

> <r_mmod_Electrostatic_Energy-OPLS-2005>
-323.223754882812

> <r_mmod_Solvation_Energy-OPLS-2005>
-236.555938720703

> <b_mmod_Minimization_Converged-OPLS-2005>
0

> <r_mmod_RMS_Derivative-OPLS-2005>
4.27635335922241

$$$$
24
                    3D
 Structure written by MMmdl.
175184  0  0  1  0            999 V2000
  -30.5668  -14.8457   20.5065 C   0  0  0  0  0  0
  -30.4549  -12.5534   19.4438 C   0  0  0  0  0  0
  -29.5087  -12.5803   18.2179 C   0  0  0  0  0  0
  -28.0447  -12.3324   18.6459 C   0  0  0  0  0  0
  -27.6538  -13.1959   19.8711 C   0  0  2  0  0  0
  -28.7229  -13.0512   20.9820 C   0  0  0  0  0  0
  -25.2541  -13.8036   20.5528 C   0  0  0  0  0  0
  -24.1826  -13.0340   20.9121 C   0  0  0  0  0  0
  -24.6385  -11.6815   20.8729 C   0  0  0  0  0  0
  -23.9017  -10.4231   21.0358 C   0  0  0  0  0  0
  -24.3590   -9.4189   21.9143 C   0  0  0  0  0  0
  -23.6302   -8.2204   22.0694 C   0  0  0  0  0  0
  -22.4271   -8.0242   21.3517 C   0  0  0  0  0  0
  -21.9913   -9.0189   20.4610 C   0  0  0  0  0  0
  -22.7206  -10.2086   20.3003 C   0  0  0  0  0  0
  -21.6842   -6.0719   22.5243 C   0  0  0  0  0  0
  -21.4008   -6.5614   23.8208 C   0  0  0  0  0  0
  -21.3669   -5.6770   24.9148 C   0  0  0  0  0  0
  -21.6063   -4.3017   24.7203 C   0  0  0  0  0  0
  -21.8841   -3.8128   23.4326 C   0  0  0  0  0  0
  -21.9200   -4.6947   22.3382 C   0  0  0  0  0  0
  -22.7901  -13.5188   21.1828 C   0  0  0  0  0  0
  -22.1639   -4.2140   21.0952 F   0  0  0  0  0  0
  -21.5675   -3.4514   25.7727 F   0  0  0  0  0  0
  -29.9707  -13.5839   20.4076 N   0  0  0  0  0  0
  -26.3015  -12.9175   20.3394 N   0  0  0  0  0  0
  -25.9332  -11.6355   20.5812 N   0  0  0  0  0  0
  -22.0637  -12.8136   22.0455 N   0  0  0  0  0  0
  -25.4153  -15.1707   20.3581 N   0  0  0  0  0  0
  -31.7543  -14.9067   20.1667 O   0  0  0  0  0  0
  -21.6626   -6.8841   21.4208 O   0  0  0  0  0  0
  -22.3556  -14.5481   20.6682 O   0  0  0  0  0  0
  -24.6318  -31.8561   23.1981 C   0  0  0  0  0  0
  -25.9151  -32.4758   23.8345 C   0  0  1  0  0  0
  -27.2293  -27.2733   20.1190 C   0  0  0  0  0  0
  -25.5974  -33.8562   24.2294 N   0  0  0  0  0  0
  -23.4288  -30.4765   21.5446 C   0  0  2  0  0  0
  -24.8779  -28.9208   20.1178 C   0  0  0  0  0  0
  -22.7506  -29.4616   22.4970 C   0  0  0  0  0  0
  -18.0278  -28.1374   22.8497 C   0  0  0  0  0  0
  -24.1484  -36.7271   23.2633 C   0  0  0  0  0  0
  -25.9730  -30.7728   21.3742 C   0  0  0  0  0  0
  -26.0517  -29.3941   20.7185 C   0  0  0  0  0  0
  -27.2322  -28.5844   20.7034 C   0  0  0  0  0  0
  -26.0348  -26.8663   19.4901 C   0  0  0  0  0  0
  -24.8742  -27.6639   19.4927 C   0  0  0  0  0  0
  -23.6483  -29.8063   20.1626 C   0  0  0  0  0  0
  -25.4105  -36.3082   24.0340 C   0  0  1  0  0  0
  -20.5889  -28.3689   23.1285 C   0  0  2  0  0  0
  -20.6783  -26.9410   22.5421 C   0  0  0  0  0  0
  -19.5760  -26.6384   21.5225 C   0  0  0  0  0  0
  -18.1928  -26.7931   22.1614 C   0  0  0  0  0  0
  -19.1531  -28.8838   23.2899 C   0  0  0  0  0  0
  -18.9450  -30.1441   23.8903 C   0  0  0  0  0  0
  -17.6455  -30.6586   24.0548 C   0  0  0  0  0  0
  -25.9057  -34.9452   23.5122 C   0  0  0  0  0  0
  -16.5349  -29.9075   23.6335 C   0  0  0  0  0  0
  -16.7261  -28.6499   23.0348 C   0  0  0  0  0  0
  -26.4518  -31.6551   25.0712 C   0  0  0  0  0  0
  -25.3740  -31.3677   26.1425 C   0  0  0  0  0  0
  -27.0355  -30.2962   24.6166 C   0  0  0  0  0  0
  -27.6100  -32.4259   25.7481 C   0  0  0  0  0  0
  -27.5580  -37.1793   24.8460 C   0  0  0  0  0  0
  -21.4210  -29.3050   22.3687 N   0  0  0  0  0  0
  -26.4281  -37.3782   23.9418 N   0  0  0  0  0  0
  -24.6973  -31.0527   22.0950 N   0  0  0  0  0  0
  -23.4223  -28.8168   23.3074 O   0  0  0  0  0  0
  -28.3244  -26.3818   20.1145 O   0  0  0  0  0  0
  -26.5625  -34.8924   22.4686 O   0  0  0  0  0  0
  -23.5482  -32.1389   23.7283 O   0  0  0  0  0  0
  -29.5513  -18.5996   20.0497 C   0  0  0  0  0  0
  -31.0663  -20.2503   20.9598 C   0  0  0  0  0  0
  -31.5551  -17.8451   21.2026 C   0  0  0  0  0  0
  -29.8764  -20.0089   20.2465 C   0  0  0  0  0  0
  -30.3422  -17.4778   20.5667 C   0  0  0  0  0  0
  -31.9123  -19.2086   21.4010 C   0  0  0  0  0  0
  -28.9021  -22.4330   20.3875 C   0  0  0  0  0  0
  -28.5763  -23.6631   19.8257 C   0  0  0  0  0  0
  -28.5161  -23.6856   18.3459 C   0  0  0  0  0  0
  -28.3114  -22.3366   17.6339 C   0  0  0  0  0  0
  -29.0925  -21.1502   18.2605 C   0  0  0  0  0  0
  -29.6460  -15.8495   23.7457 C   0  0  0  0  0  0
  -36.4071  -18.5606   23.4053 C   0  0  0  0  0  0
  -28.1097  -24.9761   20.6172 C   0  0  0  0  0  0
  -28.6524  -16.6292   22.8791 C   0  0  0  0  0  0
  -35.2398  -19.4599   22.9858 C   0  0  0  0  0  0
  -28.5320  -16.1461   21.4211 C   0  0  0  0  0  0
  -34.0131  -18.6780   22.4913 C   0  0  0  0  0  0
  -29.1451  -21.1670   19.7339 N   0  0  0  0  0  0
  -29.8329  -16.0634   20.7101 N   0  0  0  0  0  0
  -28.5976  -24.7144   17.6656 O   0  0  0  0  0  0
  -33.0584  -19.6289   22.0425 O   0  0  0  0  0  0
  -31.4807  -12.7229   19.1207 H   0  0  0  0  0  0
  -30.4597  -11.5613   19.8984 H   0  0  0  0  0  0
  -29.8164  -11.8452   17.4764 H   0  0  0  0  0  0
  -29.5892  -13.5496   17.7252 H   0  0  0  0  0  0
  -27.9568  -11.2782   18.9136 H   0  0  0  0  0  0
  -27.3592  -12.4952   17.8131 H   0  0  0  0  0  0
  -27.6526  -14.2222   19.5073 H   0  0  0  0  0  0
  -28.8246  -11.9956   21.2315 H   0  0  0  0  0  0
  -28.4758  -13.4923   21.9440 H   0  0  0  0  0  0
  -25.2719   -9.5760   22.4730 H   0  0  0  0  0  0
  -24.0107   -7.4560   22.7348 H   0  0  0  0  0  0
  -21.0892   -8.8627   19.8856 H   0  0  0  0  0  0
  -22.3589  -10.9615   19.6125 H   0  0  0  0  0  0
  -21.1925   -7.6104   23.9702 H   0  0  0  0  0  0
  -21.1502   -6.0452   25.9063 H   0  0  0  0  0  0
  -22.0624   -2.7584   23.2796 H   0  0  0  0  0  0
  -22.4266  -11.9700   22.4653 H   0  0  0  0  0  0
  -21.1211  -13.1026   22.2651 H   0  0  0  0  0  0
  -24.6430  -15.8247   20.4085 H   0  0  0  0  0  0
  -26.2312  -15.5644   19.9102 H   0  0  0  0  0  0
  -26.7220  -32.5413   23.1104 H   0  0  0  0  0  0
  -25.0139  -33.9698   25.0455 H   0  0  0  0  0  0
  -22.7268  -31.2976   21.3926 H   0  0  0  0  0  0
  -23.3802  -35.9544   23.3234 H   0  0  0  0  0  0
  -24.3610  -36.8957   22.2066 H   0  0  0  0  0  0
  -23.7166  -37.6416   23.6701 H   0  0  0  0  0  0
  -26.1021  -31.5338   20.6044 H   0  0  0  0  0  0
  -26.8572  -30.8329   21.9978 H   0  0  0  0  0  0
  -28.1351  -28.9488   21.1726 H   0  0  0  0  0  0
  -25.9931  -25.9083   18.9918 H   0  0  0  0  0  0
  -23.9770  -27.2968   19.0117 H   0  0  0  0  0  0
  -23.7727  -30.5791   19.4035 H   0  0  0  0  0  0
  -22.7670  -29.2381   19.8573 H   0  0  0  0  0  0
  -25.1286  -36.1939   25.0837 H   0  0  0  0  0  0
  -20.9951  -28.3248   24.1408 H   0  0  0  0  0  0
  -20.5670  -26.2292   23.3618 H   0  0  0  0  0  0
  -21.6640  -26.7442   22.1182 H   0  0  0  0  0  0
  -19.6911  -25.6298   21.1227 H   0  0  0  0  0  0
  -19.6687  -27.3206   20.6770 H   0  0  0  0  0  0
  -17.4204  -26.6690   21.3999 H   0  0  0  0  0  0
  -18.0304  -26.0050   22.8973 H   0  0  0  0  0  0
  -19.7919  -30.7258   24.2273 H   0  0  0  0  0  0
  -17.4996  -31.6258   24.5145 H   0  0  0  0  0  0
  -15.5343  -30.2963   23.7661 H   0  0  0  0  0  0
  -15.8662  -28.0806   22.7080 H   0  0  0  0  0  0
  -24.5950  -30.6989   25.7737 H   0  0  0  0  0  0
  -24.8870  -32.2811   26.4837 H   0  0  0  0  0  0
  -25.8041  -30.8849   27.0201 H   0  0  0  0  0  0
  -26.2902  -29.6694   24.1226 H   0  0  0  0  0  0
  -27.4098  -29.7246   25.4674 H   0  0  0  0  0  0
  -27.8768  -30.4259   23.9354 H   0  0  0  0  0  0
  -27.2785  -33.3640   26.1952 H   0  0  0  0  0  0
  -28.3963  -32.6658   25.0312 H   0  0  0  0  0  0
  -28.0676  -31.8398   26.5463 H   0  0  0  0  0  0
  -28.2565  -38.0123   24.7580 H   0  0  0  0  0  0
  -28.1126  -36.2679   24.6204 H   0  0  0  0  0  0
  -27.2326  -37.1311   25.8864 H   0  0  0  0  0  0
  -20.9414  -29.8745   21.6843 H   0  0  0  0  0  0
  -26.0175  -38.2847   24.1467 H   0  0  0  0  0  0
  -28.6240  -18.3780   19.5428 H   0  0  0  0  0  0
  -31.3710  -21.2727   21.1396 H   0  0  0  0  0  0
  -32.1831  -17.0682   21.6093 H   0  0  0  0  0  0
  -28.8998  -22.3337   21.4634 H   0  0  0  0  0  0
  -28.5699  -22.4443   16.5762 H   0  0  0  0  0  0
  -27.2422  -22.1116   17.6554 H   0  0  0  0  0  0
  -30.1141  -21.1544   17.8683 H   0  0  0  0  0  0
  -28.6398  -20.2198   17.9119 H   0  0  0  0  0  0
  -29.5936  -16.1950   24.7773 H   0  0  0  0  0  0
  -30.6737  -15.9996   23.4137 H   0  0  0  0  0  0
  -29.4445  -14.7791   23.7350 H   0  0  0  0  0  0
  -37.2294  -19.1589   23.7962 H   0  0  0  0  0  0
  -36.7881  -17.9808   22.5639 H   0  0  0  0  0  0
  -36.1114  -17.8593   24.1828 H   0  0  0  0  0  0
  -28.5761  -24.9296   21.6018 H   0  0  0  0  0  0
  -27.0479  -24.8319   20.8294 H   0  0  0  0  0  0
  -28.9360  -17.6837   22.8841 H   0  0  0  0  0  0
  -27.6643  -16.5976   23.3384 H   0  0  0  0  0  0
  -35.5896  -20.1442   22.2124 H   0  0  0  0  0  0
  -34.9549  -20.0899   23.8282 H   0  0  0  0  0  0
  -27.8826  -16.8582   20.9153 H   0  0  0  0  0  0
  -27.9046  -15.2862   21.4053 H   0  0  0  0  0  0
  -33.5995  -18.0839   23.3086 H   0  0  0  0  0  0
  -34.2974  -17.9986   21.6870 H   0  0  0  0  0  0
  1 25  1  0  0  0
  1 30  2  0  0  0
  1 90  1  0  0  0
  2  3  1  0  0  0
  2 25  1  0  0  0
  2 93  1  0  0  0
  2 94  1  0  0  0
  3  4  1  0  0  0
  3 95  1  0  0  0
  3 96  1  0  0  0
  4  5  1  0  0  0
  4 97  1  0  0  0
  4 98  1  0  0  0
  5  6  1  0  0  0
  5 26  1  0  0  0
  5 99  1  0  0  0
  6 25  1  0  0  0
  6100  1  0  0  0
  6101  1  0  0  0
  7  8  2  0  0  0
  7 26  1  0  0  0
  7 29  1  0  0  0
  8  9  1  0  0  0
  8 22  1  0  0  0
  9 10  1  0  0  0
  9 27  2  0  0  0
 10 11  2  0  0  0
 10 15  1  0  0  0
 11 12  1  0  0  0
 11102  1  0  0  0
 12 13  2  0  0  0
 12103  1  0  0  0
 13 14  1  0  0  0
 13 31  1  0  0  0
 14 15  2  0  0  0
 14104  1  0  0  0
 15105  1  0  0  0
 16 17  2  0  0  0
 16 21  1  0  0  0
 16 31  1  0  0  0
 17 18  1  0  0  0
 17106  1  0  0  0
 18 19  2  0  0  0
 18107  1  0  0  0
 19 20  1  0  0  0
 19 24  1  0  0  0
 20 21  2  0  0  0
 20108  1  0  0  0
 21 23  1  0  0  0
 22 28  1  0  0  0
 22 32  2  0  0  0
 26 27  1  0  0  0
 28109  1  0  0  0
 28110  1  0  0  0
 29111  1  0  0  0
 29112  1  0  0  0
 33 34  1  0  0  0
 33 66  1  0  0  0
 33 70  2  0  0  0
 34 36  1  0  0  0
 34 59  1  0  0  0
 34113  1  0  0  0
 35 44  2  0  0  0
 35 45  1  0  0  0
 35 68  1  0  0  0
 36 56  1  0  0  0
 36114  1  0  0  0
 37 39  1  0  0  0
 37 47  1  0  0  0
 37 66  1  0  0  0
 37115  1  0  0  0
 38 43  2  0  0  0
 38 46  1  0  0  0
 38 47  1  0  0  0
 39 64  1  0  0  0
 39 67  2  0  0  0
 40 52  1  0  0  0
 40 53  2  0  0  0
 40 58  1  0  0  0
 41116  1  0  0  0
 41117  1  0  0  0
 41118  1  0  0  0
 41 48  1  0  0  0
 42 43  1  0  0  0
 42 66  1  0  0  0
 42119  1  0  0  0
 42120  1  0  0  0
 43 44  1  0  0  0
 44121  1  0  0  0
 45 46  2  0  0  0
 45122  1  0  0  0
 46123  1  0  0  0
 47124  1  0  0  0
 47125  1  0  0  0
 48 56  1  0  0  0
 48 65  1  0  0  0
 48126  1  0  0  0
 49 50  1  0  0  0
 49 53  1  0  0  0
 49 64  1  0  0  0
 49127  1  0  0  0
 50 51  1  0  0  0
 50128  1  0  0  0
 50129  1  0  0  0
 51 52  1  0  0  0
 51130  1  0  0  0
 51131  1  0  0  0
 52132  1  0  0  0
 52133  1  0  0  0
 53 54  1  0  0  0
 54 55  2  0  0  0
 54134  1  0  0  0
 55 57  1  0  0  0
 55135  1  0  0  0
 56 69  2  0  0  0
 57 58  2  0  0  0
 57136  1  0  0  0
 58137  1  0  0  0
 59 60  1  0  0  0
 59 61  1  0  0  0
 59 62  1  0  0  0
 60138  1  0  0  0
 60139  1  0  0  0
 60140  1  0  0  0
 61141  1  0  0  0
 61142  1  0  0  0
 61143  1  0  0  0
 62144  1  0  0  0
 62145  1  0  0  0
 62146  1  0  0  0
 63 65  1  0  0  0
 63147  1  0  0  0
 63148  1  0  0  0
 63149  1  0  0  0
 64150  1  0  0  0
 65151  1  0  0  0
 68 84  1  0  0  0
 71 74  2  0  0  0
 71 75  1  0  0  0
 71152  1  0  0  0
 72 74  1  0  0  0
 72 76  2  0  0  0
 72153  1  0  0  0
 73 75  2  0  0  0
 73 76  1  0  0  0
 73154  1  0  0  0
 74 89  1  0  0  0
 75 90  1  0  0  0
 76 92  1  0  0  0
 77 78  2  0  0  0
 77 89  1  0  0  0
 77155  1  0  0  0
 78 79  1  0  0  0
 78 84  1  0  0  0
 79 80  1  0  0  0
 79 91  2  0  0  0
 80 81  1  0  0  0
 80156  1  0  0  0
 80157  1  0  0  0
 81 89  1  0  0  0
 81158  1  0  0  0
 81159  1  0  0  0
 82 85  1  0  0  0
 82160  1  0  0  0
 82161  1  0  0  0
 82162  1  0  0  0
 83 86  1  0  0  0
 83163  1  0  0  0
 83164  1  0  0  0
 83165  1  0  0  0
 84166  1  0  0  0
 84167  1  0  0  0
 85 87  1  0  0  0
 85168  1  0  0  0
 85169  1  0  0  0
 86 88  1  0  0  0
 86170  1  0  0  0
 86171  1  0  0  0
 87 90  1  0  0  0
 87172  1  0  0  0
 87173  1  0  0  0
 88 92  1  0  0  0
 88174  1  0  0  0
 88175  1  0  0  0
M  ISO  4   1 100  68 101  84 101  90 100
M  END
> <chiral flag>
0

> <version>
0

> <s_m_source_file>
/data/baiqing/PycharmProjects/Reinvent-master-3.2/result/LINK_invent/BTK/process_docking_weight1_custom_product_contain_oxygen_bond_distance_aromatic_linkinvent_7_9_3/rearranged_h_0105.sdf

> <i_m_source_file_index>
25

> <r_mmod_Potential_Energy-OPLS-2005>
504.420654296875

> <r_mmod_Stretch_Energy-OPLS-2005>
158.394821166992

> <r_mmod_Bend_Energy-OPLS-2005>
215.979766845703

> <r_mmod_Torsional_Energy-OPLS-2005>
317.806274414062

> <r_mmod_Improper_Torsional_Energy-OPLS-2005>
11.0289745330811

> <r_mmod_Van_der_Waal_Energy-OPLS-2005>
163.238510131836

> <r_mmod_Electrostatic_Energy-OPLS-2005>
-253.721786499023

> <r_mmod_Solvation_Energy-OPLS-2005>
-207.479125976562

> <b_mmod_Minimization_Converged-OPLS-2005>
0

> <r_mmod_RMS_Derivative-OPLS-2005>
6.12759256362915

$$$$
25
                    3D
 Structure written by MMmdl.
165174  0  0  1  0            999 V2000
  -30.7090  -14.4151   20.4800 C   0  0  0  0  0  0
  -30.4161  -12.2376   19.4170 C   0  0  0  0  0  0
  -29.4964  -12.4714   18.2018 C   0  0  0  0  0  0
  -28.0189  -12.3340   18.6215 C   0  0  0  0  0  0
  -27.6640  -13.1909   19.8677 C   0  0  2  0  0  0
  -28.7113  -12.9803   20.9887 C   0  0  0  0  0  0
  -25.2636  -13.8124   20.5704 C   0  0  0  0  0  0
  -24.1875  -13.0424   20.9193 C   0  0  0  0  0  0
  -24.6398  -11.6887   20.8767 C   0  0  0  0  0  0
  -23.9045  -10.4292   21.0484 C   0  0  0  0  0  0
  -24.3601   -9.4203   21.9242 C   0  0  0  0  0  0
  -23.6281   -8.2226   22.0782 C   0  0  0  0  0  0
  -22.4259   -8.0283   21.3565 C   0  0  0  0  0  0
  -21.9897   -9.0250   20.4655 C   0  0  0  0  0  0
  -22.7227  -10.2144   20.3115 C   0  0  0  0  0  0
  -21.6829   -6.0765   22.5313 C   0  0  0  0  0  0
  -21.3982   -6.5656   23.8256 C   0  0  0  0  0  0
  -21.3664   -5.6813   24.9196 C   0  0  0  0  0  0
  -21.6040   -4.3075   24.7242 C   0  0  0  0  0  0
  -21.8805   -3.8172   23.4359 C   0  0  0  0  0  0
  -21.9171   -4.6991   22.3424 C   0  0  0  0  0  0
  -22.7911  -13.5270   21.1847 C   0  0  0  0  0  0
  -22.1653   -4.2178   21.0999 F   0  0  0  0  0  0
  -21.5605   -3.4570   25.7748 F   0  0  0  0  0  0
  -30.0449  -13.2372   20.4197 N   0  0  0  0  0  0
  -26.3048  -12.9265   20.3351 N   0  0  0  0  0  0
  -25.9294  -11.6437   20.5733 N   0  0  0  0  0  0
  -22.0510  -12.8263   22.0382 N   0  0  0  0  0  0
  -25.4374  -15.1837   20.4101 N   0  0  0  0  0  0
  -31.8776  -14.5748   20.1257 O   0  0  0  0  0  0
  -21.6610   -6.8902   21.4286 O   0  0  0  0  0  0
  -22.3610  -14.5594   20.6720 O   0  0  0  0  0  0
  -24.6063  -31.8723   23.2151 C   0  0  0  0  0  0
  -25.8978  -32.4851   23.8417 C   0  0  1  0  0  0
  -27.2491  -27.5147   20.0958 C   0  0  0  0  0  0
  -25.5877  -33.8650   24.2347 N   0  0  0  0  0  0
  -23.3900  -30.4970   21.5502 C   0  0  2  0  0  0
  -24.8445  -28.9737   20.1140 C   0  0  0  0  0  0
  -22.7321  -29.4708   22.5007 C   0  0  0  0  0  0
  -18.0215  -28.1367   22.8456 C   0  0  0  0  0  0
  -24.1487  -36.7336   23.2628 C   0  0  0  0  0  0
  -25.9079  -30.8677   21.3550 C   0  0  0  0  0  0
  -25.9946  -29.5063   20.7091 C   0  0  0  0  0  0
  -27.1992  -28.7832   20.7032 C   0  0  0  0  0  0
  -26.0945  -26.9824   19.4853 C   0  0  0  0  0  0
  -24.8858  -27.7073   19.5021 C   0  0  0  0  0  0
  -23.5986  -29.8267   20.1640 C   0  0  0  0  0  0
  -25.4105  -36.3134   24.0324 C   0  0  1  0  0  0
  -20.5801  -28.3662   23.1302 C   0  0  2  0  0  0
  -20.6704  -26.9426   22.5319 C   0  0  0  0  0  0
  -19.5669  -26.6441   21.5115 C   0  0  0  0  0  0
  -18.1868  -26.7918   22.1558 C   0  0  0  0  0  0
  -19.1468  -28.8816   23.2903 C   0  0  0  0  0  0
  -18.9383  -30.1403   23.8933 C   0  0  0  0  0  0
  -17.6398  -30.6553   24.0594 C   0  0  0  0  0  0
  -25.9023  -34.9496   23.5132 C   0  0  0  0  0  0
  -16.5294  -29.9077   23.6321 C   0  0  0  0  0  0
  -16.7224  -28.6515   23.0281 C   0  0  0  0  0  0
  -26.4471  -31.6609   25.0715 C   0  0  0  0  0  0
  -25.3766  -31.3697   26.1489 C   0  0  0  0  0  0
  -27.0299  -30.3063   24.6048 C   0  0  0  0  0  0
  -27.6060  -32.4346   25.7478 C   0  0  0  0  0  0
  -27.5585  -37.1819   24.8462 C   0  0  0  0  0  0
  -21.4060  -29.3069   22.3741 N   0  0  0  0  0  0
  -26.4304  -37.3808   23.9402 N   0  0  0  0  0  0
  -24.6501  -31.0937   22.0979 N   0  0  0  0  0  0
  -23.4087  -28.8246   23.3023 O   0  0  0  0  0  0
  -28.4165  -26.8029   20.0901 O   0  0  0  0  0  0
  -26.5589  -34.8936   22.4700 O   0  0  0  0  0  0
  -23.5281  -32.1407   23.7609 O   0  0  0  0  0  0
  -26.3940  -21.4034   18.8807 C   0  0  0  0  0  0
  -26.8782  -20.1181   18.4696 C   0  0  0  0  0  0
  -27.8842  -19.6439   19.2859 C   0  0  0  0  0  0
  -27.0541  -21.9115   19.9698 C   0  0  0  0  0  0
  -27.8847  -25.0216   21.6333 C   0  0  0  0  0  0
  -27.0783  -24.9100   22.7568 C   0  0  0  0  0  0
  -27.9278  -23.9802   20.6077 C   0  0  0  0  0  0
  -26.1513  -23.7095   22.8688 C   0  0  0  0  0  0
  -25.7228  -23.2593   21.4685 C   0  0  0  0  0  0
  -26.3319  -19.4105   17.2658 C   0  0  0  0  0  0
  -28.6912  -18.3711   19.2069 C   0  0  0  0  0  0
  -28.7420  -26.2503   21.3641 C   0  0  0  0  0  0
  -29.1738  -17.8302   20.5847 C   0  0  0  0  0  0
  -30.3556  -16.8483   20.5462 C   0  0  0  0  0  0
  -26.8969  -23.0977   20.6079 N   0  0  0  0  0  0
  -29.9229  -15.4677   20.7091 N   0  0  0  0  0  0
  -26.9086  -25.6712   23.7382 O   0  5  0  0  0  0
  -28.8437  -23.9175   19.7804 O   0  0  0  0  0  0
  -28.2676  -20.8062   20.5220 S   0  0  0  0  0  0
  -31.4674  -12.3036   19.1297 H   0  0  0  0  0  0
  -30.2714  -11.2342   19.8196 H   0  0  0  0  0  0
  -29.7284  -11.7581   17.4099 H   0  0  0  0  0  0
  -29.6685  -13.4620   17.7778 H   0  0  0  0  0  0
  -27.8452  -11.2779   18.8434 H   0  0  0  0  0  0
  -27.3607  -12.5873   17.7906 H   0  0  0  0  0  0
  -27.7008  -14.2332   19.5483 H   0  0  0  0  0  0
  -28.6684  -11.9578   21.3592 H   0  0  0  0  0  0
  -28.5101  -13.6161   21.8532 H   0  0  0  0  0  0
  -25.2763   -9.5638   22.4807 H   0  0  0  0  0  0
  -23.9974   -7.4607   22.7501 H   0  0  0  0  0  0
  -21.0810   -8.8781   19.8967 H   0  0  0  0  0  0
  -22.3720  -10.9679   19.6206 H   0  0  0  0  0  0
  -21.1982   -7.6168   23.9755 H   0  0  0  0  0  0
  -21.1506   -6.0546   25.9105 H   0  0  0  0  0  0
  -22.0583   -2.7637   23.2855 H   0  0  0  0  0  0
  -22.4031  -11.9859   22.4721 H   0  0  0  0  0  0
  -21.1193  -13.1434   22.2672 H   0  0  0  0  0  0
  -24.6728  -15.8427   20.5249 H   0  0  0  0  0  0
  -26.2808  -15.6259   20.0696 H   0  0  0  0  0  0
  -26.7053  -32.5623   23.1202 H   0  0  0  0  0  0
  -25.0053  -33.9808   25.0505 H   0  0  0  0  0  0
  -22.6699  -31.3060   21.4123 H   0  0  0  0  0  0
  -23.3748  -35.9681   23.3320 H   0  0  0  0  0  0
  -24.3576  -36.8930   22.2047 H   0  0  0  0  0  0
  -23.7277  -37.6548   23.6641 H   0  0  0  0  0  0
  -26.0085  -31.6299   20.5830 H   0  0  0  0  0  0
  -26.7977  -30.9257   21.9675 H   0  0  0  0  0  0
  -28.0857  -29.1915   21.1671 H   0  0  0  0  0  0
  -26.1353  -26.0082   19.0194 H   0  0  0  0  0  0
  -23.9983  -27.2841   19.0509 H   0  0  0  0  0  0
  -23.6883  -30.5992   19.3989 H   0  0  0  0  0  0
  -22.7296  -29.2318   19.8795 H   0  0  0  0  0  0
  -25.1286  -36.1990   25.0817 H   0  0  0  0  0  0
  -20.9892  -28.3187   24.1417 H   0  0  0  0  0  0
  -20.5608  -26.2270   23.3468 H   0  0  0  0  0  0
  -21.6562  -26.7505   22.1079 H   0  0  0  0  0  0
  -19.6827  -25.6392   21.1052 H   0  0  0  0  0  0
  -19.6540  -27.3306   20.6710 H   0  0  0  0  0  0
  -17.4114  -26.6620   21.3994 H   0  0  0  0  0  0
  -18.0353  -26.0023   22.8937 H   0  0  0  0  0  0
  -19.7831  -30.7222   24.2355 H   0  0  0  0  0  0
  -17.4942  -31.6207   24.5242 H   0  0  0  0  0  0
  -15.5294  -30.2973   23.7670 H   0  0  0  0  0  0
  -15.8626  -28.0879   22.6917 H   0  0  0  0  0  0
  -24.5905  -30.7090   25.7813 H   0  0  0  0  0  0
  -24.8997  -32.2848   26.5017 H   0  0  0  0  0  0
  -25.8117  -30.8789   27.0199 H   0  0  0  0  0  0
  -26.2804  -29.6834   24.1150 H   0  0  0  0  0  0
  -27.4122  -29.7304   25.4480 H   0  0  0  0  0  0
  -27.8619  -30.4394   23.9134 H   0  0  0  0  0  0
  -27.2656  -33.3612   26.2142 H   0  0  0  0  0  0
  -28.3826  -32.6985   25.0275 H   0  0  0  0  0  0
  -28.0802  -31.8436   26.5333 H   0  0  0  0  0  0
  -28.2608  -38.0103   24.7487 H   0  0  0  0  0  0
  -28.1057  -36.2632   24.6304 H   0  0  0  0  0  0
  -27.2281  -37.1496   25.8854 H   0  0  0  0  0  0
  -20.9248  -29.8740   21.6905 H   0  0  0  0  0  0
  -26.0189  -38.2879   24.1413 H   0  0  0  0  0  0
  -25.6099  -21.9268   18.3471 H   0  0  0  0  0  0
  -25.2662  -23.9236   23.4703 H   0  0  0  0  0  0
  -26.6716  -22.8857   23.3628 H   0  0  0  0  0  0
  -25.0658  -24.0096   21.0292 H   0  0  0  0  0  0
  -25.1482  -22.3370   21.5379 H   0  0  0  0  0  0
  -25.5635  -20.0072   16.7717 H   0  0  0  0  0  0
  -25.8672  -18.4655   17.5437 H   0  0  0  0  0  0
  -27.1123  -19.2055   16.5295 H   0  0  0  0  0  0
  -29.5551  -18.5619   18.5713 H   0  0  0  0  0  0
  -28.1191  -17.5985   18.6941 H   0  0  0  0  0  0
  -29.7915  -25.9570   21.3610 H   0  0  0  0  0  0
  -28.6373  -26.9924   22.1578 H   0  0  0  0  0  0
  -28.3310  -17.4363   21.1567 H   0  0  0  0  0  0
  -29.5645  -18.6502   21.1840 H   0  0  0  0  0  0
  -31.0301  -17.0648   21.3776 H   0  0  0  0  0  0
  -30.9481  -16.9771   19.6380 H   0  0  0  0  0  0
  -28.9565  -15.2888   20.9290 H   0  0  0  0  0  0
  1 25  1  0  0  0
  1 30  2  0  0  0
  1 86  1  0  0  0
  2  3  1  0  0  0
  2 25  1  0  0  0
  2 90  1  0  0  0
  2 91  1  0  0  0
  3  4  1  0  0  0
  3 92  1  0  0  0
  3 93  1  0  0  0
  4  5  1  0  0  0
  4 94  1  0  0  0
  4 95  1  0  0  0
  5  6  1  0  0  0
  5 26  1  0  0  0
  5 96  1  0  0  0
  6 25  1  0  0  0
  6 97  1  0  0  0
  6 98  1  0  0  0
  7  8  2  0  0  0
  7 26  1  0  0  0
  7 29  1  0  0  0
  8  9  1  0  0  0
  8 22  1  0  0  0
  9 10  1  0  0  0
  9 27  2  0  0  0
 10 11  2  0  0  0
 10 15  1  0  0  0
 11 12  1  0  0  0
 11 99  1  0  0  0
 12 13  2  0  0  0
 12100  1  0  0  0
 13 14  1  0  0  0
 13 31  1  0  0  0
 14 15  2  0  0  0
 14101  1  0  0  0
 15102  1  0  0  0
 16 17  2  0  0  0
 16 21  1  0  0  0
 16 31  1  0  0  0
 17 18  1  0  0  0
 17103  1  0  0  0
 18 19  2  0  0  0
 18104  1  0  0  0
 19 20  1  0  0  0
 19 24  1  0  0  0
 20 21  2  0  0  0
 20105  1  0  0  0
 21 23  1  0  0  0
 22 28  1  0  0  0
 22 32  2  0  0  0
 26 27  1  0  0  0
 28106  1  0  0  0
 28107  1  0  0  0
 29108  1  0  0  0
 29109  1  0  0  0
 33 34  1  0  0  0
 33 66  1  0  0  0
 33 70  2  0  0  0
 34 36  1  0  0  0
 34 59  1  0  0  0
 34110  1  0  0  0
 35 44  2  0  0  0
 35 45  1  0  0  0
 35 68  1  0  0  0
 36 56  1  0  0  0
 36111  1  0  0  0
 37 39  1  0  0  0
 37 47  1  0  0  0
 37 66  1  0  0  0
 37112  1  0  0  0
 38 43  2  0  0  0
 38 46  1  0  0  0
 38 47  1  0  0  0
 39 64  1  0  0  0
 39 67  2  0  0  0
 40 52  1  0  0  0
 40 53  2  0  0  0
 40 58  1  0  0  0
 41113  1  0  0  0
 41114  1  0  0  0
 41115  1  0  0  0
 41 48  1  0  0  0
 42 43  1  0  0  0
 42 66  1  0  0  0
 42116  1  0  0  0
 42117  1  0  0  0
 43 44  1  0  0  0
 44118  1  0  0  0
 45 46  2  0  0  0
 45119  1  0  0  0
 46120  1  0  0  0
 47121  1  0  0  0
 47122  1  0  0  0
 48 56  1  0  0  0
 48 65  1  0  0  0
 48123  1  0  0  0
 49 50  1  0  0  0
 49 53  1  0  0  0
 49 64  1  0  0  0
 49124  1  0  0  0
 50 51  1  0  0  0
 50125  1  0  0  0
 50126  1  0  0  0
 51 52  1  0  0  0
 51127  1  0  0  0
 51128  1  0  0  0
 52129  1  0  0  0
 52130  1  0  0  0
 53 54  1  0  0  0
 54 55  2  0  0  0
 54131  1  0  0  0
 55 57  1  0  0  0
 55132  1  0  0  0
 56 69  2  0  0  0
 57 58  2  0  0  0
 57133  1  0  0  0
 58134  1  0  0  0
 59 60  1  0  0  0
 59 61  1  0  0  0
 59 62  1  0  0  0
 60135  1  0  0  0
 60136  1  0  0  0
 60137  1  0  0  0
 61138  1  0  0  0
 61139  1  0  0  0
 61140  1  0  0  0
 62141  1  0  0  0
 62142  1  0  0  0
 62143  1  0  0  0
 63 65  1  0  0  0
 63144  1  0  0  0
 63145  1  0  0  0
 63146  1  0  0  0
 64147  1  0  0  0
 65148  1  0  0  0
 68 82  1  0  0  0
 71 72  1  0  0  0
 71 74  2  0  0  0
 71149  1  0  0  0
 72 73  2  0  0  0
 72 80  1  0  0  0
 73 81  1  0  0  0
 73 89  1  0  0  0
 74 85  1  0  0  0
 74 89  1  0  0  0
 75 76  2  0  0  0
 75 77  1  0  0  0
 75 82  1  0  0  0
 76 78  1  0  0  0
 76 87  1  0  0  0
 77 85  1  0  0  0
 77 88  2  0  0  0
 78 79  1  0  0  0
 78150  1  0  0  0
 78151  1  0  0  0
 79 85  1  0  0  0
 79152  1  0  0  0
 79153  1  0  0  0
 80154  1  0  0  0
 80155  1  0  0  0
 80156  1  0  0  0
 81 83  1  0  0  0
 81157  1  0  0  0
 81158  1  0  0  0
 82159  1  0  0  0
 82160  1  0  0  0
 83 84  1  0  0  0
 83161  1  0  0  0
 83162  1  0  0  0
 84 86  1  0  0  0
 84163  1  0  0  0
 84164  1  0  0  0
 86165  1  0  0  0
M  CHG  1  87  -1
M  ISO  4   1 100  68 101  82 101  86 100
M  END
> <chiral flag>
0

> <version>
0

> <s_m_source_file>
/data/baiqing/PycharmProjects/Reinvent-master-3.2/result/LINK_invent/BTK/process_docking_weight1_custom_product_contain_oxygen_bond_distance_aromatic_linkinvent_7_9_3/rearranged_h_0105.sdf

> <i_m_source_file_index>
26

> <r_mmod_Potential_Energy-OPLS-2005>
-322.995422363281

> <r_mmod_Stretch_Energy-OPLS-2005>
32.2605400085449

> <r_mmod_Bend_Energy-OPLS-2005>
106.978721618652

> <r_mmod_Torsional_Energy-OPLS-2005>
277.585113525391

> <r_mmod_Improper_Torsional_Energy-OPLS-2005>
6.64246368408203

> <r_mmod_Van_der_Waal_Energy-OPLS-2005>
153.528228759766

> <r_mmod_Electrostatic_Energy-OPLS-2005>
-403.500762939453

> <r_mmod_Solvation_Energy-OPLS-2005>
-510.520263671875

> <b_mmod_Minimization_Converged-OPLS-2005>
0

> <r_mmod_RMS_Derivative-OPLS-2005>
5.31819534301758

$$$$
26
                    3D
 Structure written by MMmdl.
158166  0  0  1  0            999 V2000
  -30.5962  -14.7086   20.5214 C   0  0  0  0  0  0
  -30.4516  -12.4434   19.4623 C   0  0  0  0  0  0
  -29.5152  -12.4994   18.2340 C   0  0  0  0  0  0
  -28.0423  -12.3078   18.6518 C   0  0  0  0  0  0
  -27.6459  -13.2131   19.8494 C   0  0  2  0  0  0
  -28.6904  -13.1179   20.9849 C   0  0  0  0  0  0
  -25.2548  -13.8170   20.5685 C   0  0  0  0  0  0
  -24.1811  -13.0432   20.9213 C   0  0  0  0  0  0
  -24.6374  -11.6903   20.8739 C   0  0  0  0  0  0
  -23.9042  -10.4288   21.0410 C   0  0  0  0  0  0
  -24.3604   -9.4216   21.9196 C   0  0  0  0  0  0
  -23.6289   -8.2249   22.0766 C   0  0  0  0  0  0
  -22.4270   -8.0285   21.3560 C   0  0  0  0  0  0
  -21.9895   -9.0246   20.4657 C   0  0  0  0  0  0
  -22.7212  -10.2129   20.3065 C   0  0  0  0  0  0
  -21.6846   -6.0741   22.5277 C   0  0  0  0  0  0
  -21.4008   -6.5641   23.8213 C   0  0  0  0  0  0
  -21.3656   -5.6791   24.9171 C   0  0  0  0  0  0
  -21.6046   -4.3055   24.7210 C   0  0  0  0  0  0
  -21.8817   -3.8152   23.4326 C   0  0  0  0  0  0
  -21.9180   -4.6971   22.3387 C   0  0  0  0  0  0
  -22.7837  -13.5244   21.1849 C   0  0  0  0  0  0
  -22.1654   -4.2164   21.0962 F   0  0  0  0  0  0
  -21.5626   -3.4526   25.7717 F   0  0  0  0  0  0
  -29.9971  -13.4780   20.4138 N   0  0  0  0  0  0
  -26.2948  -12.9326   20.3251 N   0  0  0  0  0  0
  -25.9298  -11.6493   20.5737 N   0  0  0  0  0  0
  -22.0453  -12.8255   22.0401 N   0  0  0  0  0  0
  -25.4250  -15.1895   20.4118 N   0  0  0  0  0  0
  -31.7881  -14.8662   20.2403 O   0  0  0  0  0  0
  -21.6645   -6.8877   21.4241 O   0  0  0  0  0  0
  -22.3511  -14.5527   20.6671 O   0  0  0  0  0  0
  -24.6320  -31.8567   23.2039 C   0  0  0  0  0  0
  -25.9184  -32.4768   23.8346 C   0  0  1  0  0  0
  -27.2108  -27.2720   20.1478 C   0  0  0  0  0  0
  -25.6006  -33.8568   24.2279 N   0  0  0  0  0  0
  -23.4261  -30.4860   21.5440 C   0  0  2  0  0  0
  -24.8713  -28.9379   20.1087 C   0  0  0  0  0  0
  -22.7502  -29.4623   22.4890 C   0  0  0  0  0  0
  -18.0283  -28.1399   22.8469 C   0  0  0  0  0  0
  -24.1465  -36.7240   23.2644 C   0  0  0  0  0  0
  -25.9712  -30.7784   21.3789 C   0  0  0  0  0  0
  -26.0427  -29.4017   20.7219 C   0  0  0  0  0  0
  -27.2160  -28.5830   20.7288 C   0  0  0  0  0  0
  -26.0211  -26.8832   19.4895 C   0  0  0  0  0  0
  -24.8679  -27.6868   19.4745 C   0  0  0  0  0  0
  -23.6450  -29.8277   20.1554 C   0  0  0  0  0  0
  -25.4102  -36.3067   24.0339 C   0  0  1  0  0  0
  -20.5890  -28.3714   23.1255 C   0  0  2  0  0  0
  -20.6760  -26.9431   22.5403 C   0  0  0  0  0  0
  -19.5733  -26.6397   21.5201 C   0  0  0  0  0  0
  -18.1914  -26.7930   22.1614 C   0  0  0  0  0  0
  -19.1548  -28.8869   23.2852 C   0  0  0  0  0  0
  -18.9478  -30.1459   23.8892 C   0  0  0  0  0  0
  -17.6489  -30.6604   24.0562 C   0  0  0  0  0  0
  -25.9063  -34.9445   23.5087 C   0  0  0  0  0  0
  -16.5372  -29.9113   23.6334 C   0  0  0  0  0  0
  -16.7270  -28.6524   23.0353 C   0  0  0  0  0  0
  -26.4549  -31.6607   25.0742 C   0  0  0  0  0  0
  -25.3787  -31.3762   26.1478 C   0  0  0  0  0  0
  -27.0394  -30.3034   24.6223 C   0  0  0  0  0  0
  -27.6083  -32.4350   25.7530 C   0  0  0  0  0  0
  -27.5548  -37.1793   24.8485 C   0  0  0  0  0  0
  -21.4211  -29.3070   22.3657 N   0  0  0  0  0  0
  -26.4254  -37.3793   23.9433 N   0  0  0  0  0  0
  -24.6957  -31.0582   22.0983 N   0  0  0  0  0  0
  -23.4204  -28.8155   23.2978 O   0  0  0  0  0  0
  -28.2938  -26.3675   20.2248 O   0  0  0  0  0  0
  -26.5603  -34.8935   22.4634 O   0  0  0  0  0  0
  -23.5496  -32.1363   23.7385 O   0  0  0  0  0  0
  -29.7143  -18.3704   20.6595 C   0  0  0  0  0  0
  -29.2236  -18.2117   23.3816 C   0  0  0  0  0  0
  -29.4211  -19.6134   21.3548 C   0  0  0  0  0  0
  -29.7551  -17.0653   21.2921 C   0  0  0  0  0  0
  -29.1384  -19.4728   22.7491 C   0  0  0  0  0  0
  -29.5394  -17.0172   22.6866 C   0  0  0  0  0  0
  -29.5217  -20.9949   20.6241 C   0  0  0  0  0  0
  -29.4422  -15.7104   24.7091 C   0  0  0  0  0  0
  -28.6018  -22.2623   20.9466 C   0  0  0  0  0  0
  -29.0768  -23.7615   20.5578 C   0  0  0  0  0  0
  -27.9635  -24.9187   20.4456 C   0  0  0  0  0  0
  -28.7823  -20.5264   23.5960 N   0  0  0  0  0  0
  -29.7231  -15.7735   20.5916 N   0  0  0  0  0  0
  -30.3261  -21.1283   19.6971 O   0  0  0  0  0  0
  -29.5961  -15.7766   23.2944 O   0  0  0  0  0  0
  -31.4846  -12.6033   19.1493 H   0  0  0  0  0  0
  -30.4234  -11.4600   19.9325 H   0  0  0  0  0  0
  -29.8031  -11.7368   17.5084 H   0  0  0  0  0  0
  -29.6291  -13.4603   17.7309 H   0  0  0  0  0  0
  -27.9140  -11.2599   18.9305 H   0  0  0  0  0  0
  -27.3805  -12.4747   17.8019 H   0  0  0  0  0  0
  -27.6415  -14.2354   19.4735 H   0  0  0  0  0  0
  -28.7196  -12.1081   21.3952 H   0  0  0  0  0  0
  -28.4271  -13.7731   21.8179 H   0  0  0  0  0  0
  -25.2743   -9.5679   22.4787 H   0  0  0  0  0  0
  -23.9981   -7.4623   22.7482 H   0  0  0  0  0  0
  -21.0840   -8.8761   19.8960 H   0  0  0  0  0  0
  -22.3671  -10.9677   19.6183 H   0  0  0  0  0  0
  -21.2023   -7.6148   23.9702 H   0  0  0  0  0  0
  -21.1486   -6.0531   25.9070 H   0  0  0  0  0  0
  -22.0608   -2.7615   23.2809 H   0  0  0  0  0  0
  -22.4033  -11.9932   22.4850 H   0  0  0  0  0  0
  -21.1076  -13.1331   22.2566 H   0  0  0  0  0  0
  -24.6570  -15.8415   20.5362 H   0  0  0  0  0  0
  -26.2630  -15.6338   20.0613 H   0  0  0  0  0  0
  -26.7251  -32.5415   23.1084 H   0  0  0  0  0  0
  -25.0268  -33.9712   25.0509 H   0  0  0  0  0  0
  -22.7200  -31.3078   21.4058 H   0  0  0  0  0  0
  -23.3749  -35.9548   23.3329 H   0  0  0  0  0  0
  -24.3540  -36.8833   22.2050 H   0  0  0  0  0  0
  -23.7204  -37.6452   23.6627 H   0  0  0  0  0  0
  -26.1076  -31.5361   20.6066 H   0  0  0  0  0  0
  -26.8507  -30.8267   22.0094 H   0  0  0  0  0  0
  -28.1077  -28.9328   21.2299 H   0  0  0  0  0  0
  -25.9468  -25.9373   18.9785 H   0  0  0  0  0  0
  -23.9767  -27.3303   18.9733 H   0  0  0  0  0  0
  -23.7796  -30.6066   19.4031 H   0  0  0  0  0  0
  -22.7599  -29.2728   19.8413 H   0  0  0  0  0  0
  -25.1287  -36.1879   25.0836 H   0  0  0  0  0  0
  -20.9971  -28.3276   24.1379 H   0  0  0  0  0  0
  -20.5625  -26.2343   23.3619 H   0  0  0  0  0  0
  -21.6629  -26.7431   22.1230 H   0  0  0  0  0  0
  -19.6897  -25.6310   21.1231 H   0  0  0  0  0  0
  -19.6652  -27.3191   20.6711 H   0  0  0  0  0  0
  -17.4183  -26.6671   21.4014 H   0  0  0  0  0  0
  -18.0316  -26.0088   22.9026 H   0  0  0  0  0  0
  -19.7977  -30.7253   24.2262 H   0  0  0  0  0  0
  -17.5075  -31.6280   24.5167 H   0  0  0  0  0  0
  -15.5380  -30.3032   23.7686 H   0  0  0  0  0  0
  -15.8654  -28.0859   22.7084 H   0  0  0  0  0  0
  -24.5936  -30.7140   25.7835 H   0  0  0  0  0  0
  -24.9029  -32.2943   26.4931 H   0  0  0  0  0  0
  -25.8155  -30.8931   27.0226 H   0  0  0  0  0  0
  -26.2979  -29.6794   24.1241 H   0  0  0  0  0  0
  -27.4088  -29.7293   25.4730 H   0  0  0  0  0  0
  -27.8836  -30.4346   23.9447 H   0  0  0  0  0  0
  -27.2673  -33.3640   26.2103 H   0  0  0  0  0  0
  -28.3914  -32.6941   25.0391 H   0  0  0  0  0  0
  -28.0714  -31.8483   26.5479 H   0  0  0  0  0  0
  -28.2619  -38.0044   24.7522 H   0  0  0  0  0  0
  -28.0985  -36.2596   24.6298 H   0  0  0  0  0  0
  -27.2266  -37.1433   25.8890 H   0  0  0  0  0  0
  -20.9404  -29.8843   21.6909 H   0  0  0  0  0  0
  -26.0102  -38.2841   24.1493 H   0  0  0  0  0  0
  -29.8727  -18.4288   19.5933 H   0  0  0  0  0  0
  -29.0118  -18.1718   24.4396 H   0  0  0  0  0  0
  -28.4118  -15.9322   24.9869 H   0  0  0  0  0  0
  -30.1109  -16.3921   25.2370 H   0  0  0  0  0  0
  -29.6785  -14.7057   25.0628 H   0  0  0  0  0  0
  -28.3335  -22.2710   21.9981 H   0  0  0  0  0  0
  -27.6666  -22.0572   20.4279 H   0  0  0  0  0  0
  -29.6329  -23.7262   19.6218 H   0  0  0  0  0  0
  -29.8090  -24.0702   21.3029 H   0  0  0  0  0  0
  -27.3590  -24.8803   21.3523 H   0  0  0  0  0  0
  -27.3136  -24.5784   19.6427 H   0  0  0  0  0  0
  -28.3578  -20.2800   24.4855 H   0  0  0  0  0  0
  -28.3514  -21.3573   23.2090 H   0  0  0  0  0  0
  -28.7885  -15.4000   20.5624 H   0  0  0  0  0  0
  1 25  1  0  0  0
  1 30  2  0  0  0
  1 83  1  0  0  0
  2  3  1  0  0  0
  2 25  1  0  0  0
  2 86  1  0  0  0
  2 87  1  0  0  0
  3  4  1  0  0  0
  3 88  1  0  0  0
  3 89  1  0  0  0
  4  5  1  0  0  0
  4 90  1  0  0  0
  4 91  1  0  0  0
  5  6  1  0  0  0
  5 26  1  0  0  0
  5 92  1  0  0  0
  6 25  1  0  0  0
  6 93  1  0  0  0
  6 94  1  0  0  0
  7  8  2  0  0  0
  7 26  1  0  0  0
  7 29  1  0  0  0
  8  9  1  0  0  0
  8 22  1  0  0  0
  9 10  1  0  0  0
  9 27  2  0  0  0
 10 11  2  0  0  0
 10 15  1  0  0  0
 11 12  1  0  0  0
 11 95  1  0  0  0
 12 13  2  0  0  0
 12 96  1  0  0  0
 13 14  1  0  0  0
 13 31  1  0  0  0
 14 15  2  0  0  0
 14 97  1  0  0  0
 15 98  1  0  0  0
 16 17  2  0  0  0
 16 21  1  0  0  0
 16 31  1  0  0  0
 17 18  1  0  0  0
 17 99  1  0  0  0
 18 19  2  0  0  0
 18100  1  0  0  0
 19 20  1  0  0  0
 19 24  1  0  0  0
 20 21  2  0  0  0
 20101  1  0  0  0
 21 23  1  0  0  0
 22 28  1  0  0  0
 22 32  2  0  0  0
 26 27  1  0  0  0
 28102  1  0  0  0
 28103  1  0  0  0
 29104  1  0  0  0
 29105  1  0  0  0
 33 34  1  0  0  0
 33 66  1  0  0  0
 33 70  2  0  0  0
 34 36  1  0  0  0
 34 59  1  0  0  0
 34106  1  0  0  0
 35 44  2  0  0  0
 35 45  1  0  0  0
 35 68  1  0  0  0
 36 56  1  0  0  0
 36107  1  0  0  0
 37 39  1  0  0  0
 37 47  1  0  0  0
 37 66  1  0  0  0
 37108  1  0  0  0
 38 43  2  0  0  0
 38 46  1  0  0  0
 38 47  1  0  0  0
 39 64  1  0  0  0
 39 67  2  0  0  0
 40 52  1  0  0  0
 40 53  2  0  0  0
 40 58  1  0  0  0
 41109  1  0  0  0
 41110  1  0  0  0
 41111  1  0  0  0
 41 48  1  0  0  0
 42 43  1  0  0  0
 42 66  1  0  0  0
 42112  1  0  0  0
 42113  1  0  0  0
 43 44  1  0  0  0
 44114  1  0  0  0
 45 46  2  0  0  0
 45115  1  0  0  0
 46116  1  0  0  0
 47117  1  0  0  0
 47118  1  0  0  0
 48 56  1  0  0  0
 48 65  1  0  0  0
 48119  1  0  0  0
 49 50  1  0  0  0
 49 53  1  0  0  0
 49 64  1  0  0  0
 49120  1  0  0  0
 50 51  1  0  0  0
 50121  1  0  0  0
 50122  1  0  0  0
 51 52  1  0  0  0
 51123  1  0  0  0
 51124  1  0  0  0
 52125  1  0  0  0
 52126  1  0  0  0
 53 54  1  0  0  0
 54 55  2  0  0  0
 54127  1  0  0  0
 55 57  1  0  0  0
 55128  1  0  0  0
 56 69  2  0  0  0
 57 58  2  0  0  0
 57129  1  0  0  0
 58130  1  0  0  0
 59 60  1  0  0  0
 59 61  1  0  0  0
 59 62  1  0  0  0
 60131  1  0  0  0
 60132  1  0  0  0
 60133  1  0  0  0
 61134  1  0  0  0
 61135  1  0  0  0
 61136  1  0  0  0
 62137  1  0  0  0
 62138  1  0  0  0
 62139  1  0  0  0
 63 65  1  0  0  0
 63140  1  0  0  0
 63141  1  0  0  0
 63142  1  0  0  0
 64143  1  0  0  0
 65144  1  0  0  0
 68 81  1  0  0  0
 71 73  2  0  0  0
 71 74  1  0  0  0
 71145  1  0  0  0
 72 75  2  0  0  0
 72 76  1  0  0  0
 72146  1  0  0  0
 73 75  1  0  0  0
 73 77  1  0  0  0
 74 76  2  0  0  0
 74 83  1  0  0  0
 75 82  1  0  0  0
 76 85  1  0  0  0
 77 79  1  0  0  0
 77 84  2  0  0  0
 78 85  1  0  0  0
 78147  1  0  0  0
 78148  1  0  0  0
 78149  1  0  0  0
 79 80  1  0  0  0
 79150  1  0  0  0
 79151  1  0  0  0
 80 81  1  0  0  0
 80152  1  0  0  0
 80153  1  0  0  0
 81154  1  0  0  0
 81155  1  0  0  0
 82156  1  0  0  0
 82157  1  0  0  0
 83158  1  0  0  0
M  ISO  4   1 100  68 101  81 101  83 100
M  END
> <chiral flag>
0

> <version>
0

> <s_m_source_file>
/data/baiqing/PycharmProjects/Reinvent-master-3.2/result/LINK_invent/BTK/process_docking_weight1_custom_product_contain_oxygen_bond_distance_aromatic_linkinvent_7_9_3/rearranged_h_0105.sdf

> <i_m_source_file_index>
27

> <r_mmod_Potential_Energy-OPLS-2005>
217.564041137695

> <r_mmod_Stretch_Energy-OPLS-2005>
114.202865600586

> <r_mmod_Bend_Energy-OPLS-2005>
172.782836914062

> <r_mmod_Torsional_Energy-OPLS-2005>
293.847351074219

> <r_mmod_Improper_Torsional_Energy-OPLS-2005>
18.1788635253906

> <r_mmod_Van_der_Waal_Energy-OPLS-2005>
150.716461181641

> <r_mmod_Electrostatic_Energy-OPLS-2005>
-376.548461914062

> <r_mmod_Solvation_Energy-OPLS-2005>
-235.937454223633

> <b_mmod_Minimization_Converged-OPLS-2005>
0

> <r_mmod_RMS_Derivative-OPLS-2005>
3.93391609191895

$$$$
27
                    3D
 Structure written by MMmdl.
158167  0  0  1  0            999 V2000
  -30.6973  -14.5527   20.5076 C   0  0  0  0  0  0
  -30.4184  -12.3388   19.4513 C   0  0  0  0  0  0
  -29.5024  -12.4885   18.2186 C   0  0  0  0  0  0
  -28.0204  -12.3605   18.6240 C   0  0  0  0  0  0
  -27.6547  -13.2232   19.8636 C   0  0  2  0  0  0
  -28.6983  -13.0764   20.9944 C   0  0  0  0  0  0
  -25.2557  -13.8178   20.5680 C   0  0  0  0  0  0
  -24.1825  -13.0442   20.9170 C   0  0  0  0  0  0
  -24.6405  -11.6919   20.8721 C   0  0  0  0  0  0
  -23.9072  -10.4297   21.0399 C   0  0  0  0  0  0
  -24.3627   -9.4209   21.9178 C   0  0  0  0  0  0
  -23.6307   -8.2241   22.0756 C   0  0  0  0  0  0
  -22.4287   -8.0277   21.3544 C   0  0  0  0  0  0
  -21.9921   -9.0246   20.4638 C   0  0  0  0  0  0
  -22.7246  -10.2129   20.3047 C   0  0  0  0  0  0
  -21.6858   -6.0731   22.5281 C   0  0  0  0  0  0
  -21.4017   -6.5637   23.8210 C   0  0  0  0  0  0
  -21.3661   -5.6795   24.9173 C   0  0  0  0  0  0
  -21.6048   -4.3058   24.7222 C   0  0  0  0  0  0
  -21.8824   -3.8144   23.4345 C   0  0  0  0  0  0
  -21.9198   -4.6960   22.3403 C   0  0  0  0  0  0
  -22.7844  -13.5219   21.1841 C   0  0  0  0  0  0
  -22.1669   -4.2149   21.0976 F   0  0  0  0  0  0
  -21.5632   -3.4539   25.7736 F   0  0  0  0  0  0
  -30.0204  -13.3706   20.4250 N   0  0  0  0  0  0
  -26.3003  -12.9387   20.3324 N   0  0  0  0  0  0
  -25.9339  -11.6527   20.5752 N   0  0  0  0  0  0
  -22.0503  -12.8185   22.0383 N   0  0  0  0  0  0
  -25.4239  -15.1899   20.4102 N   0  0  0  0  0  0
  -31.8613  -14.6620   20.1161 O   0  0  0  0  0  0
  -21.6647   -6.8875   21.4243 O   0  0  0  0  0  0
  -22.3519  -14.5543   20.6727 O   0  0  0  0  0  0
  -24.6195  -31.8653   23.2061 C   0  0  0  0  0  0
  -25.9071  -32.4813   23.8368 C   0  0  1  0  0  0
  -27.2221  -27.3807   20.1087 C   0  0  0  0  0  0
  -25.5919  -33.8610   24.2316 N   0  0  0  0  0  0
  -23.4094  -30.4896   21.5482 C   0  0  2  0  0  0
  -24.8543  -28.9515   20.1128 C   0  0  0  0  0  0
  -22.7436  -29.4654   22.4967 C   0  0  0  0  0  0
  -18.0279  -28.1386   22.8488 C   0  0  0  0  0  0
  -24.1496  -36.7307   23.2635 C   0  0  0  0  0  0
  -25.9430  -30.8188   21.3623 C   0  0  0  0  0  0
  -26.0190  -29.4466   20.7133 C   0  0  0  0  0  0
  -27.2082  -28.6713   20.7027 C   0  0  0  0  0  0
  -26.0409  -26.9227   19.4846 C   0  0  0  0  0  0
  -24.8639  -27.6927   19.4908 C   0  0  0  0  0  0
  -23.6187  -29.8233   20.1629 C   0  0  0  0  0  0
  -25.4117  -36.3107   24.0336 C   0  0  1  0  0  0
  -20.5875  -28.3687   23.1314 C   0  0  2  0  0  0
  -20.6785  -26.9419   22.5427 C   0  0  0  0  0  0
  -19.5765  -26.6386   21.5230 C   0  0  0  0  0  0
  -18.1931  -26.7934   22.1619 C   0  0  0  0  0  0
  -19.1526  -28.8850   23.2898 C   0  0  0  0  0  0
  -18.9444  -30.1457   23.8905 C   0  0  0  0  0  0
  -17.6446  -30.6590   24.0564 C   0  0  0  0  0  0
  -25.9042  -34.9469   23.5121 C   0  0  0  0  0  0
  -16.5342  -29.9088   23.6323 C   0  0  0  0  0  0
  -16.7266  -28.6511   23.0336 C   0  0  0  0  0  0
  -26.4472  -31.6579   25.0698 C   0  0  0  0  0  0
  -25.3721  -31.3667   26.1422 C   0  0  0  0  0  0
  -27.0314  -30.3033   24.6059 C   0  0  0  0  0  0
  -27.6041  -32.4282   25.7486 C   0  0  0  0  0  0
  -27.5582  -37.1821   24.8460 C   0  0  0  0  0  0
  -21.4157  -29.3052   22.3715 N   0  0  0  0  0  0
  -26.4303  -37.3792   23.9393 N   0  0  0  0  0  0
  -24.6763  -31.0727   22.0977 N   0  0  0  0  0  0
  -23.4193  -28.8180   23.3007 O   0  0  0  0  0  0
  -28.3663  -26.5936   20.1082 O   0  0  0  0  0  0
  -26.5599  -34.8924   22.4680 O   0  0  0  0  0  0
  -23.5378  -32.1411   23.7441 O   0  0  0  0  0  0
  -28.1053  -19.7823   21.5558 C   0  0  0  0  0  0
  -28.5236  -18.4257   21.7299 C   0  0  0  0  0  0
  -28.9238  -20.3471   20.6150 C   0  0  0  0  0  0
  -29.5808  -18.2148   20.8878 C   0  0  0  0  0  0
  -30.1944  -22.8909   21.8255 C   0  0  0  0  0  0
  -30.9294  -24.2067   22.0059 C   0  0  0  0  0  0
  -30.7405  -24.8730   20.6453 C   0  0  0  0  0  0
  -29.4251  -24.2797   20.1187 C   0  0  2  0  0  0
  -28.9717  -21.7283   19.9469 C   0  0  0  0  0  0
  -30.5126  -17.0391   20.6152 C   0  0  0  0  0  0
  -28.2183  -25.1999   20.5175 C   0  0  0  0  0  0
  -29.4023  -22.9196   20.7361 N   0  0  0  0  0  0
  -29.9867  -15.6632   20.8267 N   0  0  0  0  0  0
  -30.4041  -21.9331   22.5719 O   0  0  0  0  0  0
  -29.8282  -19.3899   20.2007 O   0  0  0  0  0  0
  -31.4653  -12.4194   19.1542 H   0  0  0  0  0  0
  -30.3119  -11.3476   19.8959 H   0  0  0  0  0  0
  -29.7490  -11.7306   17.4736 H   0  0  0  0  0  0
  -29.6745  -13.4527   17.7390 H   0  0  0  0  0  0
  -27.8270  -11.3080   18.8321 H   0  0  0  0  0  0
  -27.3814  -12.6240   17.7806 H   0  0  0  0  0  0
  -27.6768  -14.2618   19.5317 H   0  0  0  0  0  0
  -28.6863  -12.0643   21.4017 H   0  0  0  0  0  0
  -28.4633  -13.7380   21.8292 H   0  0  0  0  0  0
  -25.2781   -9.5685   22.4737 H   0  0  0  0  0  0
  -24.0022   -7.4632   22.7474 H   0  0  0  0  0  0
  -21.0859   -8.8750   19.8935 H   0  0  0  0  0  0
  -22.3709  -10.9656   19.6143 H   0  0  0  0  0  0
  -21.2013   -7.6154   23.9710 H   0  0  0  0  0  0
  -21.1482   -6.0529   25.9077 H   0  0  0  0  0  0
  -22.0607   -2.7607   23.2845 H   0  0  0  0  0  0
  -22.4148  -11.9846   22.4740 H   0  0  0  0  0  0
  -21.1112  -13.1166   22.2590 H   0  0  0  0  0  0
  -24.6562  -15.8431   20.5206 H   0  0  0  0  0  0
  -26.2729  -15.6308   20.0814 H   0  0  0  0  0  0
  -26.7146  -32.5518   23.1136 H   0  0  0  0  0  0
  -25.0094  -33.9774   25.0478 H   0  0  0  0  0  0
  -22.6990  -31.3071   21.4086 H   0  0  0  0  0  0
  -23.3761  -35.9637   23.3300 H   0  0  0  0  0  0
  -24.3587  -36.8918   22.2049 H   0  0  0  0  0  0
  -23.7246  -37.6511   23.6643 H   0  0  0  0  0  0
  -26.0506  -31.5796   20.5878 H   0  0  0  0  0  0
  -26.8339  -30.8822   21.9751 H   0  0  0  0  0  0
  -28.1075  -29.0482   21.1680 H   0  0  0  0  0  0
  -26.0169  -25.9715   18.9741 H   0  0  0  0  0  0
  -23.9731  -27.3146   19.0076 H   0  0  0  0  0  0
  -23.7259  -30.5988   19.4030 H   0  0  0  0  0  0
  -22.7414  -29.2445   19.8677 H   0  0  0  0  0  0
  -25.1299  -36.1972   25.0829 H   0  0  0  0  0  0
  -20.9965  -28.3266   24.1438 H   0  0  0  0  0  0
  -20.5728  -26.2287   23.3615 H   0  0  0  0  0  0
  -21.6650  -26.7484   22.1198 H   0  0  0  0  0  0
  -19.6932  -25.6295   21.1266 H   0  0  0  0  0  0
  -19.6718  -27.3195   20.6760 H   0  0  0  0  0  0
  -17.4217  -26.6696   21.4003 H   0  0  0  0  0  0
  -18.0308  -26.0077   22.9008 H   0  0  0  0  0  0
  -19.7912  -30.7281   24.2275 H   0  0  0  0  0  0
  -17.4990  -31.6267   24.5166 H   0  0  0  0  0  0
  -15.5339  -30.2988   23.7641 H   0  0  0  0  0  0
  -15.8669  -28.0845   22.7024 H   0  0  0  0  0  0
  -24.5916  -30.7006   25.7723 H   0  0  0  0  0  0
  -24.8892  -32.2817   26.4860 H   0  0  0  0  0  0
  -25.8063  -30.8823   27.0180 H   0  0  0  0  0  0
  -26.2870  -29.6798   24.1099 H   0  0  0  0  0  0
  -27.4087  -29.7250   25.4501 H   0  0  0  0  0  0
  -27.8688  -30.4363   23.9209 H   0  0  0  0  0  0
  -27.2662  -33.3574   26.2079 H   0  0  0  0  0  0
  -28.3861  -32.6841   25.0328 H   0  0  0  0  0  0
  -28.0685  -31.8378   26.5394 H   0  0  0  0  0  0
  -28.2597  -38.0120   24.7510 H   0  0  0  0  0  0
  -28.1088  -36.2654   24.6296 H   0  0  0  0  0  0
  -27.2295  -37.1475   25.8861 H   0  0  0  0  0  0
  -20.9308  -29.8789   21.6957 H   0  0  0  0  0  0
  -26.0191  -38.2871   24.1383 H   0  0  0  0  0  0
  -27.2903  -20.2869   22.0570 H   0  0  0  0  0  0
  -28.1056  -17.6932   22.4061 H   0  0  0  0  0  0
  -31.9813  -24.0586   22.2532 H   0  0  0  0  0  0
  -30.4518  -24.7803   22.8012 H   0  0  0  0  0  0
  -31.5614  -24.5889   19.9842 H   0  0  0  0  0  0
  -30.7390  -25.9620   20.7049 H   0  0  0  0  0  0
  -29.4656  -24.2034   19.0308 H   0  0  0  0  0  0
  -27.9786  -21.9504   19.5554 H   0  0  0  0  0  0
  -29.6182  -21.6697   19.0702 H   0  0  0  0  0  0
  -31.4048  -17.1552   21.2341 H   0  0  0  0  0  0
  -30.8663  -17.1096   19.5857 H   0  0  0  0  0  0
  -28.0997  -25.1947   21.6021 H   0  0  0  0  0  0
  -27.3135  -24.7411   20.1226 H   0  0  0  0  0  0
  -29.0229  -15.5577   21.1010 H   0  0  0  0  0  0
  1 25  1  0  0  0
  1 30  2  0  0  0
  1 83  1  0  0  0
  2  3  1  0  0  0
  2 25  1  0  0  0
  2 86  1  0  0  0
  2 87  1  0  0  0
  3  4  1  0  0  0
  3 88  1  0  0  0
  3 89  1  0  0  0
  4  5  1  0  0  0
  4 90  1  0  0  0
  4 91  1  0  0  0
  5  6  1  0  0  0
  5 26  1  0  0  0
  5 92  1  0  0  0
  6 25  1  0  0  0
  6 93  1  0  0  0
  6 94  1  0  0  0
  7  8  2  0  0  0
  7 26  1  0  0  0
  7 29  1  0  0  0
  8  9  1  0  0  0
  8 22  1  0  0  0
  9 10  1  0  0  0
  9 27  2  0  0  0
 10 11  2  0  0  0
 10 15  1  0  0  0
 11 12  1  0  0  0
 11 95  1  0  0  0
 12 13  2  0  0  0
 12 96  1  0  0  0
 13 14  1  0  0  0
 13 31  1  0  0  0
 14 15  2  0  0  0
 14 97  1  0  0  0
 15 98  1  0  0  0
 16 17  2  0  0  0
 16 21  1  0  0  0
 16 31  1  0  0  0
 17 18  1  0  0  0
 17 99  1  0  0  0
 18 19  2  0  0  0
 18100  1  0  0  0
 19 20  1  0  0  0
 19 24  1  0  0  0
 20 21  2  0  0  0
 20101  1  0  0  0
 21 23  1  0  0  0
 22 28  1  0  0  0
 22 32  2  0  0  0
 26 27  1  0  0  0
 28102  1  0  0  0
 28103  1  0  0  0
 29104  1  0  0  0
 29105  1  0  0  0
 33 34  1  0  0  0
 33 66  1  0  0  0
 33 70  2  0  0  0
 34 36  1  0  0  0
 34 59  1  0  0  0
 34106  1  0  0  0
 35 44  2  0  0  0
 35 45  1  0  0  0
 35 68  1  0  0  0
 36 56  1  0  0  0
 36107  1  0  0  0
 37 39  1  0  0  0
 37 47  1  0  0  0
 37 66  1  0  0  0
 37108  1  0  0  0
 38 43  2  0  0  0
 38 46  1  0  0  0
 38 47  1  0  0  0
 39 64  1  0  0  0
 39 67  2  0  0  0
 40 52  1  0  0  0
 40 53  2  0  0  0
 40 58  1  0  0  0
 41109  1  0  0  0
 41110  1  0  0  0
 41111  1  0  0  0
 41 48  1  0  0  0
 42 43  1  0  0  0
 42 66  1  0  0  0
 42112  1  0  0  0
 42113  1  0  0  0
 43 44  1  0  0  0
 44114  1  0  0  0
 45 46  2  0  0  0
 45115  1  0  0  0
 46116  1  0  0  0
 47117  1  0  0  0
 47118  1  0  0  0
 48 56  1  0  0  0
 48 65  1  0  0  0
 48119  1  0  0  0
 49 50  1  0  0  0
 49 53  1  0  0  0
 49 64  1  0  0  0
 49120  1  0  0  0
 50 51  1  0  0  0
 50121  1  0  0  0
 50122  1  0  0  0
 51 52  1  0  0  0
 51123  1  0  0  0
 51124  1  0  0  0
 52125  1  0  0  0
 52126  1  0  0  0
 53 54  1  0  0  0
 54 55  2  0  0  0
 54127  1  0  0  0
 55 57  1  0  0  0
 55128  1  0  0  0
 56 69  2  0  0  0
 57 58  2  0  0  0
 57129  1  0  0  0
 58130  1  0  0  0
 59 60  1  0  0  0
 59 61  1  0  0  0
 59 62  1  0  0  0
 60131  1  0  0  0
 60132  1  0  0  0
 60133  1  0  0  0
 61134  1  0  0  0
 61135  1  0  0  0
 61136  1  0  0  0
 62137  1  0  0  0
 62138  1  0  0  0
 62139  1  0  0  0
 63 65  1  0  0  0
 63140  1  0  0  0
 63141  1  0  0  0
 63142  1  0  0  0
 64143  1  0  0  0
 65144  1  0  0  0
 68 81  1  0  0  0
 71 72  1  0  0  0
 71 73  2  0  0  0
 71145  1  0  0  0
 72 74  2  0  0  0
 72146  1  0  0  0
 73 79  1  0  0  0
 73 85  1  0  0  0
 74 80  1  0  0  0
 74 85  1  0  0  0
 75 76  1  0  0  0
 75 82  1  0  0  0
 75 84  2  0  0  0
 76 77  1  0  0  0
 76147  1  0  0  0
 76148  1  0  0  0
 77 78  1  0  0  0
 77149  1  0  0  0
 77150  1  0  0  0
 78 81  1  0  0  0
 78 82  1  0  0  0
 78151  1  0  0  0
 79 82  1  0  0  0
 79152  1  0  0  0
 79153  1  0  0  0
 80 83  1  0  0  0
 80154  1  0  0  0
 80155  1  0  0  0
 81156  1  0  0  0
 81157  1  0  0  0
 83158  1  0  0  0
M  ISO  4   1 100  68 101  81 101  83 100
M  END
> <chiral flag>
0

> <version>
0

> <s_m_source_file>
/data/baiqing/PycharmProjects/Reinvent-master-3.2/result/LINK_invent/BTK/process_docking_weight1_custom_product_contain_oxygen_bond_distance_aromatic_linkinvent_7_9_3/rearranged_h_0105.sdf

> <i_m_source_file_index>
28

> <r_mmod_Potential_Energy-OPLS-2005>
-90.7981414794922

> <r_mmod_Stretch_Energy-OPLS-2005>
52.0756454467773

> <r_mmod_Bend_Energy-OPLS-2005>
137.025207519531

> <r_mmod_Torsional_Energy-OPLS-2005>
248.81706237793

> <r_mmod_Improper_Torsional_Energy-OPLS-2005>
6.62921142578125

> <r_mmod_Van_der_Waal_Energy-OPLS-2005>
123.387588500977

> <r_mmod_Electrostatic_Energy-OPLS-2005>
-450.033721923828

> <r_mmod_Solvation_Energy-OPLS-2005>
-235.130859375

> <b_mmod_Minimization_Converged-OPLS-2005>
0

> <r_mmod_RMS_Derivative-OPLS-2005>
1.78013813495636

$$$$
28
                    3D
 Structure written by MMmdl.
150158  0  0  1  0            999 V2000
  -30.5517  -14.9732   20.4688 C   0  0  0  0  0  0
  -30.4400  -12.6152   19.5053 C   0  0  0  0  0  0
  -29.5232  -12.5513   18.2599 C   0  0  0  0  0  0
  -28.0548  -12.3301   18.6685 C   0  0  0  0  0  0
  -27.6313  -13.2474   19.8440 C   0  0  2  0  0  0
  -28.6714  -13.2368   20.9806 C   0  0  0  0  0  0
  -25.2466  -13.8213   20.5708 C   0  0  0  0  0  0
  -24.1777  -13.0438   20.9212 C   0  0  0  0  0  0
  -24.6391  -11.6922   20.8740 C   0  0  0  0  0  0
  -23.9076  -10.4293   21.0401 C   0  0  0  0  0  0
  -24.3625   -9.4209   21.9180 C   0  0  0  0  0  0
  -23.6298   -8.2245   22.0753 C   0  0  0  0  0  0
  -22.4279   -8.0282   21.3544 C   0  0  0  0  0  0
  -21.9916   -9.0255   20.4645 C   0  0  0  0  0  0
  -22.7246  -10.2132   20.3052 C   0  0  0  0  0  0
  -21.6855   -6.0737   22.5280 C   0  0  0  0  0  0
  -21.4015   -6.5641   23.8213 C   0  0  0  0  0  0
  -21.3660   -5.6793   24.9175 C   0  0  0  0  0  0
  -21.6044   -4.3056   24.7225 C   0  0  0  0  0  0
  -21.8819   -3.8148   23.4346 C   0  0  0  0  0  0
  -21.9193   -4.6965   22.3403 C   0  0  0  0  0  0
  -22.7799  -13.5210   21.1877 C   0  0  0  0  0  0
  -22.1662   -4.2151   21.0980 F   0  0  0  0  0  0
  -21.5628   -3.4539   25.7737 F   0  0  0  0  0  0
  -29.9426  -13.7075   20.4026 N   0  0  0  0  0  0
  -26.2886  -12.9439   20.3246 N   0  0  0  0  0  0
  -25.9323  -11.6568   20.5722 N   0  0  0  0  0  0
  -22.0454  -12.8196   22.0435 N   0  0  0  0  0  0
  -25.4155  -15.1941   20.4157 N   0  0  0  0  0  0
  -31.7241  -15.0191   20.0739 O   0  0  0  0  0  0
  -21.6642   -6.8880   21.4242 O   0  0  0  0  0  0
  -22.3477  -14.5514   20.6725 O   0  0  0  0  0  0
  -24.6453  -31.8425   23.1881 C   0  0  0  0  0  0
  -25.9218  -32.4687   23.8272 C   0  0  1  0  0  0
  -27.2145  -27.1135   20.1571 C   0  0  0  0  0  0
  -25.5959  -33.8495   24.2185 N   0  0  0  0  0  0
  -23.4506  -30.4617   21.5336 C   0  0  2  0  0  0
  -24.9024  -28.8873   20.1095 C   0  0  0  0  0  0
  -22.7580  -29.4536   22.4851 C   0  0  0  0  0  0
  -18.0308  -28.1398   22.8478 C   0  0  0  0  0  0
  -24.1492  -36.7251   23.2641 C   0  0  0  0  0  0
  -26.0087  -30.7064   21.3946 C   0  0  0  0  0  0
  -26.0791  -29.3150   20.7387 C   0  0  0  0  0  0
  -27.2354  -28.4420   20.7522 C   0  0  0  0  0  0
  -26.0204  -26.8066   19.4671 C   0  0  0  0  0  0
  -24.8865  -27.6460   19.4580 C   0  0  0  0  0  0
  -23.6799  -29.7920   20.1529 C   0  0  0  0  0  0
  -25.4125  -36.3028   24.0314 C   0  0  1  0  0  0
  -20.5922  -28.3728   23.1228 C   0  0  2  0  0  0
  -20.6790  -26.9428   22.5403 C   0  0  0  0  0  0
  -19.5763  -26.6382   21.5212 C   0  0  0  0  0  0
  -18.1946  -26.7936   22.1625 C   0  0  0  0  0  0
  -19.1565  -28.8881   23.2844 C   0  0  0  0  0  0
  -18.9480  -30.1476   23.8872 C   0  0  0  0  0  0
  -17.6476  -30.6593   24.0559 C   0  0  0  0  0  0
  -25.9077  -34.9403   23.5059 C   0  0  0  0  0  0
  -16.5367  -29.9085   23.6337 C   0  0  0  0  0  0
  -16.7292  -28.6504   23.0359 C   0  0  0  0  0  0
  -26.4532  -31.6564   25.0724 C   0  0  0  0  0  0
  -25.3707  -31.3761   26.1411 C   0  0  0  0  0  0
  -27.0404  -30.2955   24.6330 C   0  0  0  0  0  0
  -27.6054  -32.4339   25.7512 C   0  0  0  0  0  0
  -27.5575  -37.1785   24.8466 C   0  0  0  0  0  0
  -21.4270  -29.3048   22.3595 N   0  0  0  0  0  0
  -26.4287  -37.3743   23.9407 N   0  0  0  0  0  0
  -24.7212  -31.0255   22.0934 N   0  0  0  0  0  0
  -23.4209  -28.8084   23.3012 O   0  0  0  0  0  0
  -28.2343  -26.0831   20.2088 O   0  0  0  0  0  0
  -26.5664  -34.8903   22.4639 O   0  0  0  0  0  0
  -23.5566  -32.1316   23.7083 O   0  0  0  0  0  0
  -28.3215  -19.5033   21.1641 C   0  0  0  0  0  0
  -27.9598  -20.9338   21.2055 C   0  0  0  0  0  0
  -28.7301  -21.8451   20.4738 C   0  0  0  0  0  0
  -29.4422  -19.1274   20.4381 C   0  0  0  0  0  0
  -28.5629  -23.4009   20.3065 C   0  0  0  0  0  0
  -27.8744  -24.6646   20.3950 C   0  0  0  0  0  0
  -29.0603  -16.2977   21.9532 C   0  0  0  0  0  0
  -30.1722  -17.6588   20.1586 C   0  0  0  0  0  0
  -26.8530  -21.3048   21.9814 N   0  0  0  0  0  0
  -29.8359  -16.2038   20.7154 N   0  0  0  0  0  0
  -30.0125  -20.7465   19.7688 S   0  0  0  0  0  0
  -31.4718  -12.7743   19.1895 H   0  0  0  0  0  0
  -30.4466  -11.6574   20.0282 H   0  0  0  0  0  0
  -29.8495  -11.7566   17.5877 H   0  0  0  0  0  0
  -29.6089  -13.4825   17.6977 H   0  0  0  0  0  0
  -27.9478  -11.2851   18.9614 H   0  0  0  0  0  0
  -27.3945  -12.4760   17.8128 H   0  0  0  0  0  0
  -27.6044  -14.2597   19.4394 H   0  0  0  0  0  0
  -28.7762  -12.2335   21.3964 H   0  0  0  0  0  0
  -28.3283  -13.8486   21.8084 H   0  0  0  0  0  0
  -25.2769   -9.5687   22.4756 H   0  0  0  0  0  0
  -24.0007   -7.4637   22.7474 H   0  0  0  0  0  0
  -21.0846   -8.8775   19.8952 H   0  0  0  0  0  0
  -22.3704  -10.9671   19.6162 H   0  0  0  0  0  0
  -21.2008   -7.6149   23.9717 H   0  0  0  0  0  0
  -21.1482   -6.0523   25.9078 H   0  0  0  0  0  0
  -22.0597   -2.7610   23.2846 H   0  0  0  0  0  0
  -22.4082  -11.9861   22.4821 H   0  0  0  0  0  0
  -21.1070  -13.1212   22.2645 H   0  0  0  0  0  0
  -24.6510  -15.8498   20.5337 H   0  0  0  0  0  0
  -26.2708  -15.6346   20.1018 H   0  0  0  0  0  0
  -26.7282  -32.5287   23.0997 H   0  0  0  0  0  0
  -25.0077  -33.9607   25.0313 H   0  0  0  0  0  0
  -22.7544  -31.2886   21.3783 H   0  0  0  0  0  0
  -23.3759  -35.9577   23.3290 H   0  0  0  0  0  0
  -24.3575  -36.8898   22.2058 H   0  0  0  0  0  0
  -23.7241  -37.6441   23.6688 H   0  0  0  0  0  0
  -26.1689  -31.4582   20.6206 H   0  0  0  0  0  0
  -26.8773  -30.7574   22.0391 H   0  0  0  0  0  0
  -28.1281  -28.7598   21.2722 H   0  0  0  0  0  0
  -25.9379  -25.8603   18.9519 H   0  0  0  0  0  0
  -23.9930  -27.3168   18.9455 H   0  0  0  0  0  0
  -23.8188  -30.5673   19.3984 H   0  0  0  0  0  0
  -22.7943  -29.2359   19.8404 H   0  0  0  0  0  0
  -25.1313  -36.1855   25.0806 H   0  0  0  0  0  0
  -21.0014  -28.3321   24.1349 H   0  0  0  0  0  0
  -20.5682  -26.2344   23.3626 H   0  0  0  0  0  0
  -21.6656  -26.7429   22.1203 H   0  0  0  0  0  0
  -19.6923  -25.6286   21.1261 H   0  0  0  0  0  0
  -19.6698  -27.3176   20.6728 H   0  0  0  0  0  0
  -17.4214  -26.6680   21.4030 H   0  0  0  0  0  0
  -18.0346  -26.0082   22.9027 H   0  0  0  0  0  0
  -19.7955  -30.7300   24.2231 H   0  0  0  0  0  0
  -17.5028  -31.6271   24.5166 H   0  0  0  0  0  0
  -15.5366  -30.2979   23.7674 H   0  0  0  0  0  0
  -15.8693  -28.0812   22.7090 H   0  0  0  0  0  0
  -24.5899  -30.7095   25.7732 H   0  0  0  0  0  0
  -24.8881  -32.2945   26.4767 H   0  0  0  0  0  0
  -25.7983  -30.8985   27.0235 H   0  0  0  0  0  0
  -26.3034  -29.6672   24.1313 H   0  0  0  0  0  0
  -27.3976  -29.7263   25.4921 H   0  0  0  0  0  0
  -27.8960  -30.4180   23.9685 H   0  0  0  0  0  0
  -27.2640  -33.3661   26.2024 H   0  0  0  0  0  0
  -28.3899  -32.6866   25.0366 H   0  0  0  0  0  0
  -28.0682  -31.8509   26.5483 H   0  0  0  0  0  0
  -28.2586  -38.0088   24.7511 H   0  0  0  0  0  0
  -28.1080  -36.2617   24.6297 H   0  0  0  0  0  0
  -27.2292  -37.1436   25.8868 H   0  0  0  0  0  0
  -20.9487  -29.8760   21.6769 H   0  0  0  0  0  0
  -26.0152  -38.2811   24.1408 H   0  0  0  0  0  0
  -27.7195  -18.7838   21.6997 H   0  0  0  0  0  0
  -27.5444  -23.0604   20.3507 H   0  0  0  0  0  0
  -26.8234  -24.6733   20.6820 H   0  0  0  0  0  0
  -27.9931  -16.2098   21.7493 H   0  0  0  0  0  0
  -29.2368  -17.2433   22.4633 H   0  0  0  0  0  0
  -29.3463  -15.5361   22.6800 H   0  0  0  0  0  0
  -31.2259  -17.7983   20.4036 H   0  0  0  0  0  0
  -30.1805  -17.5283   19.0758 H   0  0  0  0  0  0
  -26.5425  -20.6515   22.6933 H   0  0  0  0  0  0
  -26.8128  -22.2667   22.3010 H   0  0  0  0  0  0
  1 25  1  0  0  0
  1 30  2  0  0  0
  1 80  1  0  0  0
  2  3  1  0  0  0
  2 25  1  0  0  0
  2 82  1  0  0  0
  2 83  1  0  0  0
  3  4  1  0  0  0
  3 84  1  0  0  0
  3 85  1  0  0  0
  4  5  1  0  0  0
  4 86  1  0  0  0
  4 87  1  0  0  0
  5  6  1  0  0  0
  5 26  1  0  0  0
  5 88  1  0  0  0
  6 25  1  0  0  0
  6 89  1  0  0  0
  6 90  1  0  0  0
  7  8  2  0  0  0
  7 26  1  0  0  0
  7 29  1  0  0  0
  8  9  1  0  0  0
  8 22  1  0  0  0
  9 10  1  0  0  0
  9 27  2  0  0  0
 10 11  2  0  0  0
 10 15  1  0  0  0
 11 12  1  0  0  0
 11 91  1  0  0  0
 12 13  2  0  0  0
 12 92  1  0  0  0
 13 14  1  0  0  0
 13 31  1  0  0  0
 14 15  2  0  0  0
 14 93  1  0  0  0
 15 94  1  0  0  0
 16 17  2  0  0  0
 16 21  1  0  0  0
 16 31  1  0  0  0
 17 18  1  0  0  0
 17 95  1  0  0  0
 18 19  2  0  0  0
 18 96  1  0  0  0
 19 20  1  0  0  0
 19 24  1  0  0  0
 20 21  2  0  0  0
 20 97  1  0  0  0
 21 23  1  0  0  0
 22 28  1  0  0  0
 22 32  2  0  0  0
 26 27  1  0  0  0
 28 98  1  0  0  0
 28 99  1  0  0  0
 29100  1  0  0  0
 29101  1  0  0  0
 33 34  1  0  0  0
 33 66  1  0  0  0
 33 70  2  0  0  0
 34 36  1  0  0  0
 34 59  1  0  0  0
 34102  1  0  0  0
 35 44  2  0  0  0
 35 45  1  0  0  0
 35 68  1  0  0  0
 36 56  1  0  0  0
 36103  1  0  0  0
 37 39  1  0  0  0
 37 47  1  0  0  0
 37 66  1  0  0  0
 37104  1  0  0  0
 38 43  2  0  0  0
 38 46  1  0  0  0
 38 47  1  0  0  0
 39 64  1  0  0  0
 39 67  2  0  0  0
 40 52  1  0  0  0
 40 53  2  0  0  0
 40 58  1  0  0  0
 41105  1  0  0  0
 41106  1  0  0  0
 41107  1  0  0  0
 41 48  1  0  0  0
 42 43  1  0  0  0
 42 66  1  0  0  0
 42108  1  0  0  0
 42109  1  0  0  0
 43 44  1  0  0  0
 44110  1  0  0  0
 45 46  2  0  0  0
 45111  1  0  0  0
 46112  1  0  0  0
 47113  1  0  0  0
 47114  1  0  0  0
 48 56  1  0  0  0
 48 65  1  0  0  0
 48115  1  0  0  0
 49 50  1  0  0  0
 49 53  1  0  0  0
 49 64  1  0  0  0
 49116  1  0  0  0
 50 51  1  0  0  0
 50117  1  0  0  0
 50118  1  0  0  0
 51 52  1  0  0  0
 51119  1  0  0  0
 51120  1  0  0  0
 52121  1  0  0  0
 52122  1  0  0  0
 53 54  1  0  0  0
 54 55  2  0  0  0
 54123  1  0  0  0
 55 57  1  0  0  0
 55124  1  0  0  0
 56 69  2  0  0  0
 57 58  2  0  0  0
 57125  1  0  0  0
 58126  1  0  0  0
 59 60  1  0  0  0
 59 61  1  0  0  0
 59 62  1  0  0  0
 60127  1  0  0  0
 60128  1  0  0  0
 60129  1  0  0  0
 61130  1  0  0  0
 61131  1  0  0  0
 61132  1  0  0  0
 62133  1  0  0  0
 62134  1  0  0  0
 62135  1  0  0  0
 63 65  1  0  0  0
 63136  1  0  0  0
 63137  1  0  0  0
 63138  1  0  0  0
 64139  1  0  0  0
 65140  1  0  0  0
 68 76  1  0  0  0
 71 72  1  0  0  0
 71 74  2  0  0  0
 71141  1  0  0  0
 72 73  2  0  0  0
 72 79  1  0  0  0
 73 75  1  0  0  0
 73 81  1  0  0  0
 74 78  1  0  0  0
 74 81  1  0  0  0
 75 76  2  0  0  0
 75142  1  0  0  0
 76143  1  0  0  0
 77 80  1  0  0  0
 77144  1  0  0  0
 77145  1  0  0  0
 77146  1  0  0  0
 78 80  1  0  0  0
 78147  1  0  0  0
 78148  1  0  0  0
 79149  1  0  0  0
 79150  1  0  0  0
M  ISO  4   1 100  68 101  76 101  80 100
M  END
> <chiral flag>
0

> <version>
0

> <s_m_source_file>
/data/baiqing/PycharmProjects/Reinvent-master-3.2/result/LINK_invent/BTK/process_docking_weight1_custom_product_contain_oxygen_bond_distance_aromatic_linkinvent_7_9_3/rearranged_h_0105.sdf

> <i_m_source_file_index>
29

> <r_mmod_Potential_Energy-OPLS-2005>
813.802856445312

> <r_mmod_Stretch_Energy-OPLS-2005>
271.615600585938

> <r_mmod_Bend_Energy-OPLS-2005>
463.577545166016

> <r_mmod_Torsional_Energy-OPLS-2005>
259.467559814453

> <r_mmod_Improper_Torsional_Energy-OPLS-2005>
13.8966760635376

> <r_mmod_Van_der_Waal_Energy-OPLS-2005>
136.00862121582

> <r_mmod_Electrostatic_Energy-OPLS-2005>
-330.624206542969

> <r_mmod_Solvation_Energy-OPLS-2005>
-208.108932495117

> <b_mmod_Minimization_Converged-OPLS-2005>
0

> <r_mmod_RMS_Derivative-OPLS-2005>
0.158148273825645

$$$$
29
                    3D
 Structure written by MMmdl.
156164  0  0  1  0            999 V2000
  -30.7164  -14.5552   20.4944 C   0  0  0  0  0  0
  -30.4204  -12.3407   19.4381 C   0  0  0  0  0  0
  -29.4942  -12.4675   18.2116 C   0  0  0  0  0  0
  -28.0176  -12.3348   18.6310 C   0  0  0  0  0  0
  -27.6507  -13.2159   19.8559 C   0  0  2  0  0  0
  -28.7037  -13.0994   20.9825 C   0  0  0  0  0  0
  -25.2542  -13.8124   20.5648 C   0  0  0  0  0  0
  -24.1839  -13.0393   20.9231 C   0  0  0  0  0  0
  -24.6410  -11.6880   20.8785 C   0  0  0  0  0  0
  -23.9062  -10.4271   21.0424 C   0  0  0  0  0  0
  -24.3618   -9.4184   21.9190 C   0  0  0  0  0  0
  -23.6294   -8.2228   22.0748 C   0  0  0  0  0  0
  -22.4275   -8.0274   21.3530 C   0  0  0  0  0  0
  -21.9908   -9.0254   20.4638 C   0  0  0  0  0  0
  -22.7237  -10.2136   20.3056 C   0  0  0  0  0  0
  -21.6866   -6.0739   22.5277 C   0  0  0  0  0  0
  -21.4025   -6.5637   23.8209 C   0  0  0  0  0  0
  -21.3652   -5.6780   24.9166 C   0  0  0  0  0  0
  -21.6046   -4.3043   24.7221 C   0  0  0  0  0  0
  -21.8825   -3.8140   23.4334 C   0  0  0  0  0  0
  -21.9199   -4.6965   22.3389 C   0  0  0  0  0  0
  -22.7864  -13.5213   21.1865 C   0  0  0  0  0  0
  -22.1664   -4.2146   21.0967 F   0  0  0  0  0  0
  -21.5626   -3.4523   25.7732 F   0  0  0  0  0  0
  -30.0209  -13.3844   20.3973 N   0  0  0  0  0  0
  -26.2993  -12.9336   20.3329 N   0  0  0  0  0  0
  -25.9346  -11.6486   20.5807 N   0  0  0  0  0  0
  -22.0494  -12.8231   22.0422 N   0  0  0  0  0  0
  -25.4133  -15.1816   20.3898 N   0  0  0  0  0  0
  -31.9125  -14.6191   20.1967 O   0  0  0  0  0  0
  -21.6634   -6.8878   21.4236 O   0  0  0  0  0  0
  -22.3573  -14.5508   20.6674 O   0  0  0  0  0  0
  -24.6162  -31.8677   23.2122 C   0  0  0  0  0  0
  -25.9041  -32.4825   23.8410 C   0  0  1  0  0  0
  -27.2272  -27.4028   20.1140 C   0  0  0  0  0  0
  -25.5902  -33.8625   24.2335 N   0  0  0  0  0  0
  -23.4045  -30.4948   21.5524 C   0  0  2  0  0  0
  -24.8518  -28.9685   20.1112 C   0  0  0  0  0  0
  -22.7417  -29.4661   22.4982 C   0  0  0  0  0  0
  -18.0272  -28.1372   22.8493 C   0  0  0  0  0  0
  -24.1484  -36.7321   23.2641 C   0  0  0  0  0  0
  -25.9394  -30.8288   21.3705 C   0  0  0  0  0  0
  -26.0160  -29.4639   20.7114 C   0  0  0  0  0  0
  -27.2056  -28.6923   20.7057 C   0  0  0  0  0  0
  -26.0398  -26.9441   19.4883 C   0  0  0  0  0  0
  -24.8618  -27.7086   19.4946 C   0  0  0  0  0  0
  -23.6147  -29.8368   20.1645 C   0  0  0  0  0  0
  -25.4111  -36.3111   24.0339 C   0  0  1  0  0  0
  -20.5865  -28.3650   23.1320 C   0  0  2  0  0  0
  -20.6768  -26.9380   22.5426 C   0  0  0  0  0  0
  -19.5750  -26.6374   21.5216 C   0  0  0  0  0  0
  -18.1931  -26.7922   22.1617 C   0  0  0  0  0  0
  -19.1521  -28.8824   23.2905 C   0  0  0  0  0  0
  -18.9455  -30.1438   23.8911 C   0  0  0  0  0  0
  -17.6458  -30.6577   24.0561 C   0  0  0  0  0  0
  -25.9038  -34.9476   23.5129 C   0  0  0  0  0  0
  -16.5351  -29.9081   23.6326 C   0  0  0  0  0  0
  -16.7263  -28.6497   23.0347 C   0  0  0  0  0  0
  -26.4470  -31.6613   25.0744 C   0  0  0  0  0  0
  -25.3745  -31.3741   26.1502 C   0  0  0  0  0  0
  -27.0302  -30.3049   24.6141 C   0  0  0  0  0  0
  -27.6041  -32.4352   25.7496 C   0  0  0  0  0  0
  -27.5579  -37.1813   24.8466 C   0  0  0  0  0  0
  -21.4139  -29.3027   22.3728 N   0  0  0  0  0  0
  -26.4291  -37.3799   23.9402 N   0  0  0  0  0  0
  -24.6718  -31.0771   22.1033 N   0  0  0  0  0  0
  -23.4193  -28.8200   23.3015 O   0  0  0  0  0  0
  -28.3688  -26.6082   20.1851 O   0  0  0  0  0  0
  -26.5596  -34.8916   22.4688 O   0  0  0  0  0  0
  -23.5354  -32.1435   23.7510 O   0  0  0  0  0  0
  -26.9570  -18.8713   20.9030 C   0  0  0  0  0  0
  -27.7801  -17.7541   21.1093 C   0  0  0  0  0  0
  -27.5141  -20.1603   20.8327 C   0  0  0  0  0  0
  -29.7260  -19.2192   21.2022 C   0  0  0  0  0  0
  -29.1733  -17.9019   21.2385 C   0  0  0  0  0  0
  -28.9109  -20.3712   20.9802 C   0  0  0  0  0  0
  -30.0198  -16.6497   21.4286 C   0  0  0  0  0  0
  -29.7243  -16.1949   19.0721 C   0  0  0  0  0  0
  -29.2362  -24.1874   20.5752 C   0  0  0  0  0  0
  -28.8099  -22.7179   20.2550 C   0  0  0  0  0  0
  -28.1468  -25.1797   20.0677 C   0  0  0  0  0  0
  -29.9719  -15.6969   20.4451 N   0  0  0  0  0  0
  -30.6566  -16.5314   22.4818 O   0  0  0  0  0  0
  -29.4972  -21.6431   20.9444 O   0  0  0  0  0  0
  -31.4639  -12.4291   19.1319 H   0  0  0  0  0  0
  -30.3261  -11.3533   19.8946 H   0  0  0  0  0  0
  -29.7404  -11.7031   17.4749 H   0  0  0  0  0  0
  -29.6506  -13.4233   17.7139 H   0  0  0  0  0  0
  -27.8394  -11.2854   18.8665 H   0  0  0  0  0  0
  -27.3654  -12.5673   17.7904 H   0  0  0  0  0  0
  -27.6568  -14.2442   19.5008 H   0  0  0  0  0  0
  -28.7014  -12.0980   21.4147 H   0  0  0  0  0  0
  -28.4762  -13.7881   21.7972 H   0  0  0  0  0  0
  -25.2766   -9.5677   22.4759 H   0  0  0  0  0  0
  -24.0008   -7.4625   22.7471 H   0  0  0  0  0  0
  -21.0834   -8.8772   19.8958 H   0  0  0  0  0  0
  -22.3687  -10.9678   19.6169 H   0  0  0  0  0  0
  -21.2022   -7.6146   23.9714 H   0  0  0  0  0  0
  -21.1468   -6.0506   25.9070 H   0  0  0  0  0  0
  -22.0619   -2.7603   23.2828 H   0  0  0  0  0  0
  -22.4122  -11.9920   22.4840 H   0  0  0  0  0  0
  -21.1115  -13.1286   22.2604 H   0  0  0  0  0  0
  -24.6286  -15.8169   20.4703 H   0  0  0  0  0  0
  -26.2227  -15.6034   19.9569 H   0  0  0  0  0  0
  -26.7119  -32.5525   23.1173 H   0  0  0  0  0  0
  -25.0056  -33.9792   25.0472 H   0  0  0  0  0  0
  -22.6934  -31.3135   21.4179 H   0  0  0  0  0  0
  -23.3735  -35.9661   23.3327 H   0  0  0  0  0  0
  -24.3578  -36.8911   22.2055 H   0  0  0  0  0  0
  -23.7245  -37.6536   23.6644 H   0  0  0  0  0  0
  -26.0596  -31.6018   20.6098 H   0  0  0  0  0  0
  -26.8242  -30.8743   21.9946 H   0  0  0  0  0  0
  -28.0981  -29.0677   21.1868 H   0  0  0  0  0  0
  -25.9887  -25.9826   19.0008 H   0  0  0  0  0  0
  -23.9679  -27.3212   19.0261 H   0  0  0  0  0  0
  -23.7254  -30.6176   19.4125 H   0  0  0  0  0  0
  -22.7362  -29.2645   19.8611 H   0  0  0  0  0  0
  -25.1284  -36.1986   25.0835 H   0  0  0  0  0  0
  -20.9952  -28.3220   24.1436 H   0  0  0  0  0  0
  -20.5674  -26.2257   23.3615 H   0  0  0  0  0  0
  -21.6645  -26.7441   22.1211 H   0  0  0  0  0  0
  -19.6920  -25.6293   21.1234 H   0  0  0  0  0  0
  -19.6696  -27.3185   20.6752 H   0  0  0  0  0  0
  -17.4204  -26.6671   21.4013 H   0  0  0  0  0  0
  -18.0317  -26.0051   22.9000 H   0  0  0  0  0  0
  -19.7940  -30.7245   24.2278 H   0  0  0  0  0  0
  -17.5022  -31.6249   24.5164 H   0  0  0  0  0  0
  -15.5353  -30.2989   23.7643 H   0  0  0  0  0  0
  -15.8663  -28.0819   22.7061 H   0  0  0  0  0  0
  -24.5867  -30.7136   25.7858 H   0  0  0  0  0  0
  -24.8990  -32.2918   26.5000 H   0  0  0  0  0  0
  -25.8099  -30.8875   27.0241 H   0  0  0  0  0  0
  -26.2854  -29.6820   24.1174 H   0  0  0  0  0  0
  -27.4042  -29.7284   25.4614 H   0  0  0  0  0  0
  -27.8705  -30.4367   23.9313 H   0  0  0  0  0  0
  -27.2633  -33.3630   26.2109 H   0  0  0  0  0  0
  -28.3813  -32.6964   25.0301 H   0  0  0  0  0  0
  -28.0744  -31.8468   26.5383 H   0  0  0  0  0  0
  -28.2615  -38.0091   24.7489 H   0  0  0  0  0  0
  -28.1046  -36.2623   24.6311 H   0  0  0  0  0  0
  -27.2294  -37.1497   25.8867 H   0  0  0  0  0  0
  -20.9302  -29.8776   21.6976 H   0  0  0  0  0  0
  -26.0186  -38.2874   24.1400 H   0  0  0  0  0  0
  -25.8884  -18.7391   20.8037 H   0  0  0  0  0  0
  -27.3426  -16.7700   21.1790 H   0  0  0  0  0  0
  -26.8080  -20.9618   20.6894 H   0  0  0  0  0  0
  -30.7921  -19.3448   21.3193 H   0  0  0  0  0  0
  -28.6585  -16.3000   18.8775 H   0  0  0  0  0  0
  -30.1310  -15.5452   18.2948 H   0  0  0  0  0  0
  -30.1931  -17.1686   18.9011 H   0  0  0  0  0  0
  -30.2037  -24.4127   20.1265 H   0  0  0  0  0  0
  -29.3547  -24.3049   21.6522 H   0  0  0  0  0  0
  -28.9121  -22.5433   19.1813 H   0  0  0  0  0  0
  -27.7483  -22.6971   20.4662 H   0  0  0  0  0  0
  -27.2439  -24.9280   20.6292 H   0  0  0  0  0  0
  -27.9461  -24.9567   19.0195 H   0  0  0  0  0  0
  1 25  1  0  0  0
  1 30  2  0  0  0
  1 82  1  0  0  0
  2  3  1  0  0  0
  2 25  1  0  0  0
  2 85  1  0  0  0
  2 86  1  0  0  0
  3  4  1  0  0  0
  3 87  1  0  0  0
  3 88  1  0  0  0
  4  5  1  0  0  0
  4 89  1  0  0  0
  4 90  1  0  0  0
  5  6  1  0  0  0
  5 26  1  0  0  0
  5 91  1  0  0  0
  6 25  1  0  0  0
  6 92  1  0  0  0
  6 93  1  0  0  0
  7  8  2  0  0  0
  7 26  1  0  0  0
  7 29  1  0  0  0
  8  9  1  0  0  0
  8 22  1  0  0  0
  9 10  1  0  0  0
  9 27  2  0  0  0
 10 11  2  0  0  0
 10 15  1  0  0  0
 11 12  1  0  0  0
 11 94  1  0  0  0
 12 13  2  0  0  0
 12 95  1  0  0  0
 13 14  1  0  0  0
 13 31  1  0  0  0
 14 15  2  0  0  0
 14 96  1  0  0  0
 15 97  1  0  0  0
 16 17  2  0  0  0
 16 21  1  0  0  0
 16 31  1  0  0  0
 17 18  1  0  0  0
 17 98  1  0  0  0
 18 19  2  0  0  0
 18 99  1  0  0  0
 19 20  1  0  0  0
 19 24  1  0  0  0
 20 21  2  0  0  0
 20100  1  0  0  0
 21 23  1  0  0  0
 22 28  1  0  0  0
 22 32  2  0  0  0
 26 27  1  0  0  0
 28101  1  0  0  0
 28102  1  0  0  0
 29103  1  0  0  0
 29104  1  0  0  0
 33 34  1  0  0  0
 33 66  1  0  0  0
 33 70  2  0  0  0
 34 36  1  0  0  0
 34 59  1  0  0  0
 34105  1  0  0  0
 35 44  2  0  0  0
 35 45  1  0  0  0
 35 68  1  0  0  0
 36 56  1  0  0  0
 36106  1  0  0  0
 37 39  1  0  0  0
 37 47  1  0  0  0
 37 66  1  0  0  0
 37107  1  0  0  0
 38 43  2  0  0  0
 38 46  1  0  0  0
 38 47  1  0  0  0
 39 64  1  0  0  0
 39 67  2  0  0  0
 40 52  1  0  0  0
 40 53  2  0  0  0
 40 58  1  0  0  0
 41108  1  0  0  0
 41109  1  0  0  0
 41110  1  0  0  0
 41 48  1  0  0  0
 42 43  1  0  0  0
 42 66  1  0  0  0
 42111  1  0  0  0
 42112  1  0  0  0
 43 44  1  0  0  0
 44113  1  0  0  0
 45 46  2  0  0  0
 45114  1  0  0  0
 46115  1  0  0  0
 47116  1  0  0  0
 47117  1  0  0  0
 48 56  1  0  0  0
 48 65  1  0  0  0
 48118  1  0  0  0
 49 50  1  0  0  0
 49 53  1  0  0  0
 49 64  1  0  0  0
 49119  1  0  0  0
 50 51  1  0  0  0
 50120  1  0  0  0
 50121  1  0  0  0
 51 52  1  0  0  0
 51122  1  0  0  0
 51123  1  0  0  0
 52124  1  0  0  0
 52125  1  0  0  0
 53 54  1  0  0  0
 54 55  2  0  0  0
 54126  1  0  0  0
 55 57  1  0  0  0
 55127  1  0  0  0
 56 69  2  0  0  0
 57 58  2  0  0  0
 57128  1  0  0  0
 58129  1  0  0  0
 59 60  1  0  0  0
 59 61  1  0  0  0
 59 62  1  0  0  0
 60130  1  0  0  0
 60131  1  0  0  0
 60132  1  0  0  0
 61133  1  0  0  0
 61134  1  0  0  0
 61135  1  0  0  0
 62136  1  0  0  0
 62137  1  0  0  0
 62138  1  0  0  0
 63 65  1  0  0  0
 63139  1  0  0  0
 63140  1  0  0  0
 63141  1  0  0  0
 64142  1  0  0  0
 65143  1  0  0  0
 68 81  1  0  0  0
 71 72  2  0  0  0
 71 73  1  0  0  0
 71144  1  0  0  0
 72 75  1  0  0  0
 72145  1  0  0  0
 73 76  2  0  0  0
 73146  1  0  0  0
 74 75  2  0  0  0
 74 76  1  0  0  0
 74147  1  0  0  0
 75 77  1  0  0  0
 76 84  1  0  0  0
 77 82  1  0  0  0
 77 83  2  0  0  0
 78 82  1  0  0  0
 78148  1  0  0  0
 78149  1  0  0  0
 78150  1  0  0  0
 79 80  1  0  0  0
 79 81  1  0  0  0
 79151  1  0  0  0
 79152  1  0  0  0
 80 84  1  0  0  0
 80153  1  0  0  0
 80154  1  0  0  0
 81155  1  0  0  0
 81156  1  0  0  0
M  ISO  4   1 100  68 101  81 101  82 100
M  END
> <chiral flag>
0

> <version>
0

> <s_m_source_file>
/data/baiqing/PycharmProjects/Reinvent-master-3.2/result/LINK_invent/BTK/process_docking_weight1_custom_product_contain_oxygen_bond_distance_aromatic_linkinvent_7_9_3/rearranged_h_0105.sdf

> <i_m_source_file_index>
30

> <r_mmod_Potential_Energy-OPLS-2005>
176.200637817383

> <r_mmod_Stretch_Energy-OPLS-2005>
53.3062591552734

> <r_mmod_Bend_Energy-OPLS-2005>
117.868621826172

> <r_mmod_Torsional_Energy-OPLS-2005>
332.376403808594

> <r_mmod_Improper_Torsional_Energy-OPLS-2005>
17.9616966247559

> <r_mmod_Van_der_Waal_Energy-OPLS-2005>
171.107833862305

> <r_mmod_Electrostatic_Energy-OPLS-2005>
-345.036102294922

> <r_mmod_Solvation_Energy-OPLS-2005>
-203.3046875

> <b_mmod_Minimization_Converged-OPLS-2005>
0

> <r_mmod_RMS_Derivative-OPLS-2005>
2.92499279975891

$$$$
30
                    3D
 Structure written by MMmdl.
163172  0  0  1  0            999 V2000
  -29.0262  -13.0842   21.6286 C   0  0  0  0  0  0
  -30.5888  -12.5630   19.4833 C   0  0  0  0  0  0
  -29.9297  -12.7138   17.9991 C   0  0  0  0  0  0
  -28.3772  -12.9839   17.9384 C   0  0  0  0  0  0
  -28.0868  -13.4467   19.3261 C   0  0  2  0  0  0
  -28.5254  -12.0635   19.9782 C   0  0  0  0  0  0
  -26.2605  -14.8601   20.5908 C   0  0  0  0  0  0
  -25.1498  -14.4235   21.0497 C   0  0  0  0  0  0
  -25.2412  -13.1099   20.1466 C   0  0  0  0  0  0
  -23.6931  -10.8619   20.7111 C   0  0  0  0  0  0
  -24.1000   -9.7335   21.6609 C   0  0  0  0  0  0
  -23.5200   -8.4666   21.9355 C   0  0  0  0  0  0
  -22.3293   -8.1333   21.2982 C   0  0  0  0  0  0
  -21.7955   -9.1232   20.4608 C   0  0  0  0  0  0
  -22.4028  -10.3896   20.2367 C   0  0  0  0  0  0
  -21.7127   -6.1099   22.5088 C   0  0  0  0  0  0
  -21.4217   -6.5926   23.8049 C   0  0  0  0  0  0
  -21.3789   -5.7027   24.9009 C   0  0  0  0  0  0
  -21.6114   -4.3265   24.7079 C   0  0  0  0  0  0
  -21.8869   -3.8402   23.4179 C   0  0  0  0  0  0
  -21.9334   -4.7263   22.3264 C   0  0  0  0  0  0
  -23.9271  -15.0269   22.1958 C   0  0  0  0  0  0
  -22.1720   -4.2382   21.0846 F   0  0  0  0  0  0
  -21.5632   -3.4719   25.7570 F   0  0  0  0  0  0
  -29.6128  -12.3709   20.6288 N   0  0  0  0  0  0
  -26.8497  -13.9065   19.7836 N   0  0  0  0  0  0
  -26.0609  -13.2451   19.2178 N   0  0  0  0  0  0
  -22.7692  -14.3970   22.7257 N   0  0  0  0  0  0
  -26.7674  -16.0354   20.8760 N   0  0  0  0  0  0
  -29.8522  -14.0935   21.6850 O   0  0  0  0  0  0
  -21.6747   -6.9209   21.3946 O   0  0  0  0  0  0
  -23.5289  -16.1411   22.1893 O   0  0  0  0  0  0
  -24.7474  -31.6947   23.1092 C   0  0  0  0  0  0
  -25.9784  -32.3880   23.7762 C   0  0  1  0  0  0
  -26.1379  -25.6289   20.2149 C   0  0  0  0  0  0
  -25.6081  -33.7817   24.1485 N   0  0  0  0  0  0
  -23.5439  -30.3427   21.4863 C   0  0  2  0  0  0
  -24.8070  -28.5376   20.0292 C   0  0  0  0  0  0
  -22.7751  -29.3900   22.4435 C   0  0  0  0  0  0
  -18.0303  -28.1428   22.8417 C   0  0  0  0  0  0
  -24.1491  -36.6912   23.2675 C   0  0  0  0  0  0
  -26.0930  -29.9816   21.5448 C   0  0  0  0  0  0
  -25.9236  -28.4880   20.8454 C   0  0  0  0  0  0
  -26.5854  -27.0558   20.9107 C   0  0  0  0  0  0
  -25.3294  -26.1933   19.2069 C   0  0  0  0  0  0
  -24.6472  -27.4525   19.1610 C   0  0  0  0  0  0
  -23.7827  -29.6918   20.0890 C   0  0  0  0  0  0
  -25.4179  -36.2585   24.0218 C   0  0  1  0  0  0
  -20.5923  -28.3771   23.1042 C   0  0  2  0  0  0
  -20.6732  -26.9390   22.5414 C   0  0  0  0  0  0
  -19.5741  -26.6323   21.5204 C   0  0  0  0  0  0
  -18.1916  -26.7951   22.1581 C   0  0  0  0  0  0
  -19.1575  -28.8933   23.2712 C   0  0  0  0  0  0
  -18.9515  -30.1508   23.8787 C   0  0  0  0  0  0
  -17.6515  -30.6612   24.0546 C   0  0  0  0  0  0
  -25.9221  -34.8991   23.4746 C   0  0  0  0  0  0
  -16.5390  -29.9104   23.6360 C   0  0  0  0  0  0
  -16.7293  -28.6521   23.0375 C   0  0  0  0  0  0
  -26.4745  -31.6444   25.0799 C   0  0  0  0  0  0
  -25.3636  -31.4053   26.1313 C   0  0  0  0  0  0
  -27.0872  -30.2727   24.7467 C   0  0  0  0  0  0
  -27.6027  -32.4606   25.7565 C   0  0  0  0  0  0
  -27.5534  -37.1621   24.8461 C   0  0  0  0  0  0
  -21.4377  -29.2919   22.3255 N   0  0  0  0  0  0
  -26.4218  -37.3459   23.9420 N   0  0  0  0  0  0
  -24.8483  -30.7458   22.0865 N   0  0  0  0  0  0
  -23.3992  -28.7506   23.2947 O   0  0  0  0  0  0
  -26.1972  -23.8362   20.2689 O   0  0  0  0  0  0
  -26.5969  -34.8735   22.4443 O   0  0  0  0  0  0
  -23.6435  -32.0651   23.5592 O   0  0  0  0  0  0
  -24.7502  -11.2644   18.7126 C   0  0  0  0  0  0
  -23.4076  -12.4679   18.8979 C   0  0  0  0  0  0
  -25.9307  -10.8730   20.0597 C   0  0  0  0  0  0
  -24.2256  -12.5252   22.0547 C   0  0  0  0  0  0
  -23.0665  -13.4488   20.3605 C   0  0  0  0  0  0
  -25.9459  -11.6803   21.7189 C   0  0  0  0  0  0
  -22.0190  -16.3597   19.8396 C   0  0  0  0  0  0
  -24.2246  -17.1688   19.6498 C   0  0  0  0  0  0
  -21.8531  -17.9611   20.2171 C   0  0  0  0  0  0
  -22.7995  -19.2666   19.7965 C   0  0  0  0  0  0
  -24.3818  -19.3935   20.0704 C   0  0  2  0  0  0
  -28.4091  -13.4198   24.4792 C   0  0  0  0  0  0
  -25.2184  -21.8149   19.8781 C   0  0  0  0  0  0
  -27.2333  -13.2289   23.4936 C   0  0  0  0  0  0
  -23.2159  -15.6444   19.7996 N   0  0  0  0  0  0
  -27.5215  -12.5722   22.2021 N   0  0  0  0  0  0
  -20.9667  -15.7460   19.6293 O   0  0  0  0  0  0
  -25.1212  -16.9479   18.8298 O   0  0  0  0  0  0
  -31.1977  -13.4440   19.6812 H   0  0  0  0  0  0
  -31.2913  -11.7280   19.4731 H   0  0  0  0  0  0
  -30.1442  -11.8192   17.4140 H   0  0  0  0  0  0
  -30.4459  -13.5126   17.4640 H   0  0  0  0  0  0
  -27.8090  -12.1107   17.6089 H   0  0  0  0  0  0
  -28.1634  -13.7803   17.2263 H   0  0  0  0  0  0
  -28.7407  -14.3214   19.4421 H   0  0  0  0  0  0
  -28.7201  -11.2266   19.2937 H   0  0  0  0  0  0
  -28.0570  -11.2848   20.5261 H   0  0  0  0  0  0
  -24.9981   -9.7309   22.2531 H   0  0  0  0  0  0
  -24.0088   -7.7742   22.6073 H   0  0  0  0  0  0
  -20.8528   -8.9170   19.9717 H   0  0  0  0  0  0
  -21.7699  -11.0023   19.6098 H   0  0  0  0  0  0
  -21.2139   -7.6422   23.9544 H   0  0  0  0  0  0
  -21.1587   -6.0776   25.8887 H   0  0  0  0  0  0
  -22.0533   -2.7856   23.2596 H   0  0  0  0  0  0
  -22.6331  -13.4046   22.5914 H   0  0  0  0  0  0
  -22.0723  -14.9433   23.2099 H   0  0  0  0  0  0
  -26.3220  -16.7144   21.4774 H   0  0  0  0  0  0
  -27.6671  -16.3479   20.5310 H   0  0  0  0  0  0
  -26.7907  -32.4067   23.0467 H   0  0  0  0  0  0
  -25.0069  -33.8757   24.9538 H   0  0  0  0  0  0
  -22.9200  -31.2249   21.3178 H   0  0  0  0  0  0
  -23.3810  -35.9177   23.3196 H   0  0  0  0  0  0
  -24.3525  -36.8780   22.2118 H   0  0  0  0  0  0
  -23.7200  -37.5991   23.6926 H   0  0  0  0  0  0
  -26.5338  -30.6267   20.7834 H   0  0  0  0  0  0
  -26.8731  -29.8879   22.2828 H   0  0  0  0  0  0
  -27.3446  -26.9562   21.6735 H   0  0  0  0  0  0
  -24.9728  -25.4806   18.4764 H   0  0  0  0  0  0
  -23.8731  -27.5394   18.4109 H   0  0  0  0  0  0
  -24.1231  -30.4628   19.3975 H   0  0  0  0  0  0
  -22.8306  -29.3433   19.6863 H   0  0  0  0  0  0
  -25.1428  -36.1224   25.0703 H   0  0  0  0  0  0
  -21.0015  -28.3478   24.1165 H   0  0  0  0  0  0
  -20.5514  -26.2429   23.3722 H   0  0  0  0  0  0
  -21.6602  -26.7246   22.1293 H   0  0  0  0  0  0
  -19.6886  -25.6196   21.1333 H   0  0  0  0  0  0
  -19.6731  -27.3051   20.6673 H   0  0  0  0  0  0
  -17.4195  -26.6696   21.3975 H   0  0  0  0  0  0
  -18.0272  -26.0115   22.8988 H   0  0  0  0  0  0
  -19.8011  -30.7322   24.2111 H   0  0  0  0  0  0
  -17.5091  -31.6284   24.5170 H   0  0  0  0  0  0
  -15.5396  -30.3000   23.7757 H   0  0  0  0  0  0
  -15.8674  -28.0831   22.7160 H   0  0  0  0  0  0
  -24.5837  -30.7358   25.7660 H   0  0  0  0  0  0
  -24.8822  -32.3373   26.4291 H   0  0  0  0  0  0
  -25.7654  -30.9533   27.0391 H   0  0  0  0  0  0
  -26.3511  -29.5725   24.3508 H   0  0  0  0  0  0
  -27.4823  -29.8014   25.6477 H   0  0  0  0  0  0
  -27.9314  -30.3607   24.0628 H   0  0  0  0  0  0
  -27.2438  -33.4092   26.1577 H   0  0  0  0  0  0
  -28.4049  -32.6878   25.0534 H   0  0  0  0  0  0
  -28.0470  -31.9206   26.5935 H   0  0  0  0  0  0
  -28.2442  -38.0014   24.7537 H   0  0  0  0  0  0
  -28.1135  -36.2525   24.6245 H   0  0  0  0  0  0
  -27.2255  -37.1179   25.8861 H   0  0  0  0  0  0
  -20.9730  -29.8623   21.6330 H   0  0  0  0  0  0
  -25.9955  -38.2455   24.1485 H   0  0  0  0  0  0
  -24.8831  -10.7890   17.7517 H   0  0  0  0  0  0
  -22.9222  -12.7643   17.9803 H   0  0  0  0  0  0
  -26.6863  -10.1579   19.7635 H   0  0  0  0  0  0
  -24.2748  -12.7936   23.1053 H   0  0  0  0  0  0
  -21.7537  -17.9838   21.3025 H   0  0  0  0  0  0
  -20.8588  -18.2248   19.8578 H   0  0  0  0  0  0
  -22.3420  -20.1386   20.2640 H   0  0  0  0  0  0
  -22.6487  -19.4405   18.7326 H   0  0  0  0  0  0
  -24.5147  -19.3031   21.1472 H   0  0  0  0  0  0
  -28.9820  -12.5051   24.6373 H   0  0  0  0  0  0
  -28.0373  -13.7402   25.4547 H   0  0  0  0  0  0
  -29.0985  -14.2010   24.1524 H   0  0  0  0  0  0
  -24.2214  -22.2563   19.8647 H   0  0  0  0  0  0
  -25.5173  -21.7712   18.8321 H   0  0  0  0  0  0
  -26.4803  -12.6254   24.0044 H   0  0  0  0  0  0
  -26.7550  -14.1907   23.3082 H   0  0  0  0  0  0
  1 25  1  0  0  0
  1 30  2  0  0  0
  1 86  1  0  0  0
  2  3  1  0  0  0
  2 25  1  0  0  0
  2 89  1  0  0  0
  2 90  1  0  0  0
  3  4  1  0  0  0
  3 91  1  0  0  0
  3 92  1  0  0  0
  4  5  1  0  0  0
  4 93  1  0  0  0
  4 94  1  0  0  0
  5  6  1  0  0  0
  5 26  1  0  0  0
  5 95  1  0  0  0
  6 25  1  0  0  0
  6 96  1  0  0  0
  6 97  1  0  0  0
  7  8  2  0  0  0
  7 26  1  0  0  0
  7 29  1  0  0  0
  8  9  1  0  0  0
  8 22  1  0  0  0
  9 10  1  0  0  0
  9 27  2  0  0  0
 10 11  2  0  0  0
 10 15  1  0  0  0
 11 12  1  0  0  0
 11 98  1  0  0  0
 12 13  2  0  0  0
 12 99  1  0  0  0
 13 14  1  0  0  0
 13 31  1  0  0  0
 14 15  2  0  0  0
 14100  1  0  0  0
 15101  1  0  0  0
 16 17  2  0  0  0
 16 21  1  0  0  0
 16 31  1  0  0  0
 17 18  1  0  0  0
 17102  1  0  0  0
 18 19  2  0  0  0
 18103  1  0  0  0
 19 20  1  0  0  0
 19 24  1  0  0  0
 20 21  2  0  0  0
 20104  1  0  0  0
 21 23  1  0  0  0
 22 28  1  0  0  0
 22 32  2  0  0  0
 26 27  1  0  0  0
 28105  1  0  0  0
 28106  1  0  0  0
 29107  1  0  0  0
 29108  1  0  0  0
 33 34  1  0  0  0
 33 66  1  0  0  0
 33 70  2  0  0  0
 34 36  1  0  0  0
 34 59  1  0  0  0
 34109  1  0  0  0
 35 44  2  0  0  0
 35 45  1  0  0  0
 35 68  1  0  0  0
 36 56  1  0  0  0
 36110  1  0  0  0
 37 39  1  0  0  0
 37 47  1  0  0  0
 37 66  1  0  0  0
 37111  1  0  0  0
 38 43  2  0  0  0
 38 46  1  0  0  0
 38 47  1  0  0  0
 39 64  1  0  0  0
 39 67  2  0  0  0
 40 52  1  0  0  0
 40 53  2  0  0  0
 40 58  1  0  0  0
 41112  1  0  0  0
 41113  1  0  0  0
 41114  1  0  0  0
 41 48  1  0  0  0
 42 43  1  0  0  0
 42 66  1  0  0  0
 42115  1  0  0  0
 42116  1  0  0  0
 43 44  1  0  0  0
 44117  1  0  0  0
 45 46  2  0  0  0
 45118  1  0  0  0
 46119  1  0  0  0
 47120  1  0  0  0
 47121  1  0  0  0
 48 56  1  0  0  0
 48 65  1  0  0  0
 48122  1  0  0  0
 49 50  1  0  0  0
 49 53  1  0  0  0
 49 64  1  0  0  0
 49123  1  0  0  0
 50 51  1  0  0  0
 50124  1  0  0  0
 50125  1  0  0  0
 51 52  1  0  0  0
 51126  1  0  0  0
 51127  1  0  0  0
 52128  1  0  0  0
 52129  1  0  0  0
 53 54  1  0  0  0
 54 55  2  0  0  0
 54130  1  0  0  0
 55 57  1  0  0  0
 55131  1  0  0  0
 56 69  2  0  0  0
 57 58  2  0  0  0
 57132  1  0  0  0
 58133  1  0  0  0
 59 60  1  0  0  0
 59 61  1  0  0  0
 59 62  1  0  0  0
 60134  1  0  0  0
 60135  1  0  0  0
 60136  1  0  0  0
 61137  1  0  0  0
 61138  1  0  0  0
 61139  1  0  0  0
 62140  1  0  0  0
 62141  1  0  0  0
 62142  1  0  0  0
 63 65  1  0  0  0
 63143  1  0  0  0
 63144  1  0  0  0
 63145  1  0  0  0
 64146  1  0  0  0
 65147  1  0  0  0
 68 83  1  0  0  0
 71 72  2  0  0  0
 71 73  1  0  0  0
 71148  1  0  0  0
 72 75  1  0  0  0
 72149  1  0  0  0
 73 76  2  0  0  0
 73150  1  0  0  0
 74 75  2  0  0  0
 74 76  1  0  0  0
 74151  1  0  0  0
 75 85  1  0  0  0
 76 86  1  0  0  0
 77 79  1  0  0  0
 77 85  1  0  0  0
 77 87  2  0  0  0
 78 81  1  0  0  0
 78 85  1  0  0  0
 78 88  2  0  0  0
 79 80  1  0  0  0
 79152  1  0  0  0
 79153  1  0  0  0
 80 81  1  0  0  0
 80154  1  0  0  0
 80155  1  0  0  0
 81 83  1  0  0  0
 81156  1  0  0  0
 82 84  1  0  0  0
 82157  1  0  0  0
 82158  1  0  0  0
 82159  1  0  0  0
 83160  1  0  0  0
 83161  1  0  0  0
 84 86  1  0  0  0
 84162  1  0  0  0
 84163  1  0  0  0
M  ISO  4   1 100  68 101  83 101  86 100
M  END
> <chiral flag>
0

> <version>
0

> <s_m_source_file>
/data/baiqing/PycharmProjects/Reinvent-master-3.2/result/LINK_invent/BTK/process_docking_weight1_custom_product_contain_oxygen_bond_distance_aromatic_linkinvent_7_9_3/rearranged_h_0105.sdf

> <i_m_source_file_index>
31

> <r_mmod_Potential_Energy-OPLS-2005>
25594.58203125

> <r_mmod_Stretch_Energy-OPLS-2005>
12158.62890625

> <r_mmod_Bend_Energy-OPLS-2005>
1997.48352050781

> <r_mmod_Torsional_Energy-OPLS-2005>
730.283935546875

> <r_mmod_Improper_Torsional_Energy-OPLS-2005>
84.1523056030273

> <r_mmod_Van_der_Waal_Energy-OPLS-2005>
3705.83715820312

> <r_mmod_Electrostatic_Energy-OPLS-2005>
-299.335357666016

> <r_mmod_Solvation_Energy-OPLS-2005>
-215.207107543945

> <b_mmod_Minimization_Converged-OPLS-2005>
0

> <r_mmod_RMS_Derivative-OPLS-2005>
6.70692300796509

$$$$
31
                    3D
 Structure written by MMmdl.
149157  0  0  1  0            999 V2000
  -30.5332  -15.1181   20.3765 C   0  0  0  0  0  0
  -30.4265  -12.6993   19.5294 C   0  0  0  0  0  0
  -29.5263  -12.5522   18.2807 C   0  0  0  0  0  0
  -28.0676  -12.3087   18.7008 C   0  0  0  0  0  0
  -27.6169  -13.2711   19.8296 C   0  0  2  0  0  0
  -28.6530  -13.4043   20.9679 C   0  0  0  0  0  0
  -25.2404  -13.8256   20.5746 C   0  0  0  0  0  0
  -24.1748  -13.0448   20.9252 C   0  0  0  0  0  0
  -24.6395  -11.6942   20.8761 C   0  0  0  0  0  0
  -23.9090  -10.4299   21.0403 C   0  0  0  0  0  0
  -24.3634   -9.4211   21.9181 C   0  0  0  0  0  0
  -23.6305   -8.2246   22.0750 C   0  0  0  0  0  0
  -22.4287   -8.0284   21.3541 C   0  0  0  0  0  0
  -21.9927   -9.0258   20.4642 C   0  0  0  0  0  0
  -22.7259  -10.2136   20.3053 C   0  0  0  0  0  0
  -21.6858   -6.0738   22.5279 C   0  0  0  0  0  0
  -21.4018   -6.5641   23.8213 C   0  0  0  0  0  0
  -21.3660   -5.6793   24.9175 C   0  0  0  0  0  0
  -21.6044   -4.3056   24.7226 C   0  0  0  0  0  0
  -21.8819   -3.8147   23.4347 C   0  0  0  0  0  0
  -21.9195   -4.6964   22.3403 C   0  0  0  0  0  0
  -22.7764  -13.5199   21.1898 C   0  0  0  0  0  0
  -22.1663   -4.2149   21.0981 F   0  0  0  0  0  0
  -21.5627   -3.4539   25.7738 F   0  0  0  0  0  0
  -29.9112  -13.8490   20.3531 N   0  0  0  0  0  0
  -26.2835  -12.9528   20.3244 N   0  0  0  0  0  0
  -25.9334  -11.6635   20.5740 N   0  0  0  0  0  0
  -22.0423  -12.8176   22.0451 N   0  0  0  0  0  0
  -25.4050  -15.1988   20.4177 N   0  0  0  0  0  0
  -31.7461  -15.0529   20.1382 O   0  0  0  0  0  0
  -21.6647   -6.8882   21.4241 O   0  0  0  0  0  0
  -22.3442  -14.5501   20.6741 O   0  0  0  0  0  0
  -24.6544  -31.8341   23.1824 C   0  0  0  0  0  0
  -25.9272  -32.4641   23.8241 C   0  0  1  0  0  0
  -27.2037  -27.0115   20.1713 C   0  0  0  0  0  0
  -25.5978  -33.8454   24.2143 N   0  0  0  0  0  0
  -23.4646  -30.4523   21.5295 C   0  0  2  0  0  0
  -24.9184  -28.8672   20.1071 C   0  0  0  0  0  0
  -22.7627  -29.4493   22.4812 C   0  0  0  0  0  0
  -18.0316  -28.1402   22.8470 C   0  0  0  0  0  0
  -24.1493  -36.7229   23.2643 C   0  0  0  0  0  0
  -26.0307  -30.6635   21.4084 C   0  0  0  0  0  0
  -26.0975  -29.2638   20.7519 C   0  0  0  0  0  0
  -27.2365  -28.3504   20.7763 C   0  0  0  0  0  0
  -26.0163  -26.7797   19.4372 C   0  0  0  0  0  0
  -24.8983  -27.6416   19.4306 C   0  0  0  0  0  0
  -23.7005  -29.7828   20.1497 C   0  0  0  0  0  0
  -25.4130  -36.2999   24.0305 C   0  0  1  0  0  0
  -20.5936  -28.3743   23.1200 C   0  0  2  0  0  0
  -20.6795  -26.9432   22.5399 C   0  0  0  0  0  0
  -19.5768  -26.6378   21.5211 C   0  0  0  0  0  0
  -18.1951  -26.7936   22.1623 C   0  0  0  0  0  0
  -19.1575  -28.8892   23.2825 C   0  0  0  0  0  0
  -18.9489  -30.1484   23.8858 C   0  0  0  0  0  0
  -17.6482  -30.6595   24.0556 C   0  0  0  0  0  0
  -25.9090  -34.9377   23.5037 C   0  0  0  0  0  0
  -16.5373  -29.9083   23.6341 C   0  0  0  0  0  0
  -16.7299  -28.6503   23.0361 C   0  0  0  0  0  0
  -26.4552  -31.6550   25.0731 C   0  0  0  0  0  0
  -25.3699  -31.3783   26.1399 C   0  0  0  0  0  0
  -27.0441  -30.2923   24.6423 C   0  0  0  0  0  0
  -27.6053  -32.4350   25.7528 C   0  0  0  0  0  0
  -27.5572  -37.1773   24.8468 C   0  0  0  0  0  0
  -21.4305  -29.3048   22.3558 N   0  0  0  0  0  0
  -26.4285  -37.3723   23.9406 N   0  0  0  0  0  0
  -24.7368  -31.0078   22.0934 N   0  0  0  0  0  0
  -23.4214  -28.8041   23.3006 O   0  0  0  0  0  0
  -28.1638  -25.8910   20.2517 O   0  0  0  0  0  0
  -26.5686  -34.8891   22.4622 O   0  0  0  0  0  0
  -23.5633  -32.1285   23.6959 O   0  0  0  0  0  0
  -28.6059  -20.2841   20.1978 C   0  0  0  0  0  0
  -29.7662  -19.3419   20.4074 C   0  0  0  0  0  0
  -28.8468  -21.7002   20.4003 C   0  0  0  0  0  0
  -30.6419  -20.3711   20.7781 C   0  0  0  0  0  0
  -28.0000  -23.0429   20.3663 C   0  0  0  0  0  0
  -27.6772  -24.4705   20.3359 C   0  0  0  0  0  0
  -30.3173  -17.7587   20.2001 C   0  0  0  0  0  0
  -32.8003  -21.3836   21.4295 C   0  0  0  0  0  0
  -31.9779  -20.2145   21.1529 N   0  0  0  0  0  0
  -29.8435  -16.4089   20.4855 N   0  0  0  0  0  0
  -31.4324  -17.7723   19.6686 O   0  0  0  0  0  0
  -30.1583  -21.6924   20.7632 O   0  0  0  0  0  0
  -31.4597  -12.8434   19.2112 H   0  0  0  0  0  0
  -30.4314  -11.7770   20.1128 H   0  0  0  0  0  0
  -29.8775  -11.7335   17.6511 H   0  0  0  0  0  0
  -29.5897  -13.4571   17.6744 H   0  0  0  0  0  0
  -27.9955  -11.2771   19.0473 H   0  0  0  0  0  0
  -27.4028  -12.3883   17.8399 H   0  0  0  0  0  0
  -27.5485  -14.2500   19.3538 H   0  0  0  0  0  0
  -28.7779  -12.4631   21.5053 H   0  0  0  0  0  0
  -28.3196  -14.1403   21.7011 H   0  0  0  0  0  0
  -25.2775   -9.5688   22.4763 H   0  0  0  0  0  0
  -24.0012   -7.4637   22.7471 H   0  0  0  0  0  0
  -21.0858   -8.8780   19.8949 H   0  0  0  0  0  0
  -22.3714  -10.9676   19.6165 H   0  0  0  0  0  0
  -21.2012   -7.6149   23.9717 H   0  0  0  0  0  0
  -21.1482   -6.0523   25.9078 H   0  0  0  0  0  0
  -22.0597   -2.7609   23.2849 H   0  0  0  0  0  0
  -22.4062  -11.9851   22.4846 H   0  0  0  0  0  0
  -21.1031  -13.1175   22.2650 H   0  0  0  0  0  0
  -24.6336  -15.8486   20.5257 H   0  0  0  0  0  0
  -26.2463  -15.6387   20.0683 H   0  0  0  0  0  0
  -26.7334  -32.5206   23.0956 H   0  0  0  0  0  0
  -25.0090  -33.9554   25.0268 H   0  0  0  0  0  0
  -22.7733  -31.2823   21.3696 H   0  0  0  0  0  0
  -23.3764  -35.9552   23.3289 H   0  0  0  0  0  0
  -24.3571  -36.8885   22.2060 H   0  0  0  0  0  0
  -23.7243  -37.6412   23.6701 H   0  0  0  0  0  0
  -26.2063  -31.4098   20.6323 H   0  0  0  0  0  0
  -26.8932  -30.7147   22.0607 H   0  0  0  0  0  0
  -28.1211  -28.6408   21.3253 H   0  0  0  0  0  0
  -25.9099  -25.8587   18.8827 H   0  0  0  0  0  0
  -24.0102  -27.3413   18.8913 H   0  0  0  0  0  0
  -23.8478  -30.5590   19.3979 H   0  0  0  0  0  0
  -22.8124  -29.2338   19.8317 H   0  0  0  0  0  0
  -25.1321  -36.1811   25.0796 H   0  0  0  0  0  0
  -21.0026  -28.3345   24.1322 H   0  0  0  0  0  0
  -20.5680  -26.2361   23.3634 H   0  0  0  0  0  0
  -21.6658  -26.7419   22.1201 H   0  0  0  0  0  0
  -19.6929  -25.6279   21.1265 H   0  0  0  0  0  0
  -19.6701  -27.3167   20.6723 H   0  0  0  0  0  0
  -17.4215  -26.6678   21.4031 H   0  0  0  0  0  0
  -18.0352  -26.0088   22.9030 H   0  0  0  0  0  0
  -19.7965  -30.7311   24.2209 H   0  0  0  0  0  0
  -17.5036  -31.6271   24.5165 H   0  0  0  0  0  0
  -15.5372  -30.2973   23.7687 H   0  0  0  0  0  0
  -15.8700  -28.0808   22.7100 H   0  0  0  0  0  0
  -24.5896  -30.7110   25.7719 H   0  0  0  0  0  0
  -24.8868  -32.2978   26.4714 H   0  0  0  0  0  0
  -25.7948  -30.9032   27.0250 H   0  0  0  0  0  0
  -26.3101  -29.6612   24.1400 H   0  0  0  0  0  0
  -27.3959  -29.7266   25.5061 H   0  0  0  0  0  0
  -27.9050  -30.4114   23.9842 H   0  0  0  0  0  0
  -27.2621  -33.3681   26.2010 H   0  0  0  0  0  0
  -28.3915  -32.6864   25.0396 H   0  0  0  0  0  0
  -28.0667  -31.8544   26.5527 H   0  0  0  0  0  0
  -28.2578  -38.0079   24.7505 H   0  0  0  0  0  0
  -28.1078  -36.2604   24.6307 H   0  0  0  0  0  0
  -27.2286  -37.1430   25.8869 H   0  0  0  0  0  0
  -20.9541  -29.8757   21.6715 H   0  0  0  0  0  0
  -26.0142  -38.2786   24.1408 H   0  0  0  0  0  0
  -27.6377  -19.9339   19.8708 H   0  0  0  0  0  0
  -27.0116  -22.6090   20.4351 H   0  0  0  0  0  0
  -26.6047  -24.5617   20.4217 H   0  0  0  0  0  0
  -33.8074  -21.0816   21.7204 H   0  0  0  0  0  0
  -32.3783  -21.9756   22.2434 H   0  0  0  0  0  0
  -32.8806  -22.0213   20.5477 H   0  0  0  0  0  0
  -32.4575  -19.3374   20.9515 H   0  0  0  0  0  0
  -28.8848  -16.3596   20.7882 H   0  0  0  0  0  0
  1 25  1  0  0  0
  1 30  2  0  0  0
  1 80  1  0  0  0
  2  3  1  0  0  0
  2 25  1  0  0  0
  2 83  1  0  0  0
  2 84  1  0  0  0
  3  4  1  0  0  0
  3 85  1  0  0  0
  3 86  1  0  0  0
  4  5  1  0  0  0
  4 87  1  0  0  0
  4 88  1  0  0  0
  5  6  1  0  0  0
  5 26  1  0  0  0
  5 89  1  0  0  0
  6 25  1  0  0  0
  6 90  1  0  0  0
  6 91  1  0  0  0
  7  8  2  0  0  0
  7 26  1  0  0  0
  7 29  1  0  0  0
  8  9  1  0  0  0
  8 22  1  0  0  0
  9 10  1  0  0  0
  9 27  2  0  0  0
 10 11  2  0  0  0
 10 15  1  0  0  0
 11 12  1  0  0  0
 11 92  1  0  0  0
 12 13  2  0  0  0
 12 93  1  0  0  0
 13 14  1  0  0  0
 13 31  1  0  0  0
 14 15  2  0  0  0
 14 94  1  0  0  0
 15 95  1  0  0  0
 16 17  2  0  0  0
 16 21  1  0  0  0
 16 31  1  0  0  0
 17 18  1  0  0  0
 17 96  1  0  0  0
 18 19  2  0  0  0
 18 97  1  0  0  0
 19 20  1  0  0  0
 19 24  1  0  0  0
 20 21  2  0  0  0
 20 98  1  0  0  0
 21 23  1  0  0  0
 22 28  1  0  0  0
 22 32  2  0  0  0
 26 27  1  0  0  0
 28 99  1  0  0  0
 28100  1  0  0  0
 29101  1  0  0  0
 29102  1  0  0  0
 33 34  1  0  0  0
 33 66  1  0  0  0
 33 70  2  0  0  0
 34 36  1  0  0  0
 34 59  1  0  0  0
 34103  1  0  0  0
 35 44  2  0  0  0
 35 45  1  0  0  0
 35 68  1  0  0  0
 36 56  1  0  0  0
 36104  1  0  0  0
 37 39  1  0  0  0
 37 47  1  0  0  0
 37 66  1  0  0  0
 37105  1  0  0  0
 38 43  2  0  0  0
 38 46  1  0  0  0
 38 47  1  0  0  0
 39 64  1  0  0  0
 39 67  2  0  0  0
 40 52  1  0  0  0
 40 53  2  0  0  0
 40 58  1  0  0  0
 41106  1  0  0  0
 41107  1  0  0  0
 41108  1  0  0  0
 41 48  1  0  0  0
 42 43  1  0  0  0
 42 66  1  0  0  0
 42109  1  0  0  0
 42110  1  0  0  0
 43 44  1  0  0  0
 44111  1  0  0  0
 45 46  2  0  0  0
 45112  1  0  0  0
 46113  1  0  0  0
 47114  1  0  0  0
 47115  1  0  0  0
 48 56  1  0  0  0
 48 65  1  0  0  0
 48116  1  0  0  0
 49 50  1  0  0  0
 49 53  1  0  0  0
 49 64  1  0  0  0
 49117  1  0  0  0
 50 51  1  0  0  0
 50118  1  0  0  0
 50119  1  0  0  0
 51 52  1  0  0  0
 51120  1  0  0  0
 51121  1  0  0  0
 52122  1  0  0  0
 52123  1  0  0  0
 53 54  1  0  0  0
 54 55  2  0  0  0
 54124  1  0  0  0
 55 57  1  0  0  0
 55125  1  0  0  0
 56 69  2  0  0  0
 57 58  2  0  0  0
 57126  1  0  0  0
 58127  1  0  0  0
 59 60  1  0  0  0
 59 61  1  0  0  0
 59 62  1  0  0  0
 60128  1  0  0  0
 60129  1  0  0  0
 60130  1  0  0  0
 61131  1  0  0  0
 61132  1  0  0  0
 61133  1  0  0  0
 62134  1  0  0  0
 62135  1  0  0  0
 62136  1  0  0  0
 63 65  1  0  0  0
 63137  1  0  0  0
 63138  1  0  0  0
 63139  1  0  0  0
 64140  1  0  0  0
 65141  1  0  0  0
 68 76  1  0  0  0
 71 72  1  0  0  0
 71 73  2  0  0  0
 71142  1  0  0  0
 72 74  2  0  0  0
 72 77  1  0  0  0
 73 75  1  0  0  0
 73 82  1  0  0  0
 74 79  1  0  0  0
 74 82  1  0  0  0
 75 76  2  0  0  0
 75143  1  0  0  0
 76144  1  0  0  0
 77 80  1  0  0  0
 77 81  2  0  0  0
 78 79  1  0  0  0
 78145  1  0  0  0
 78146  1  0  0  0
 78147  1  0  0  0
 79148  1  0  0  0
 80149  1  0  0  0
M  ISO  4   1 100  68 101  76 101  80 100
M  END
> <chiral flag>
0

> <version>
0

> <s_m_source_file>
/data/baiqing/PycharmProjects/Reinvent-master-3.2/result/LINK_invent/BTK/process_docking_weight1_custom_product_contain_oxygen_bond_distance_aromatic_linkinvent_7_9_3/rearranged_h_0105.sdf

> <i_m_source_file_index>
32

> <r_mmod_Potential_Energy-OPLS-2005>
963.718078613281

> <r_mmod_Stretch_Energy-OPLS-2005>
376.466369628906

> <r_mmod_Bend_Energy-OPLS-2005>
487.410400390625

> <r_mmod_Torsional_Energy-OPLS-2005>
223.189468383789

> <r_mmod_Improper_Torsional_Energy-OPLS-2005>
5.84190273284912

> <r_mmod_Van_der_Waal_Energy-OPLS-2005>
134.622161865234

> <r_mmod_Electrostatic_Energy-OPLS-2005>
-348.844177246094

> <r_mmod_Solvation_Energy-OPLS-2005>
-249.548538208008

> <b_mmod_Minimization_Converged-OPLS-2005>
0

> <r_mmod_RMS_Derivative-OPLS-2005>
0.282142400741577

$$$$
32
                    3D
 Structure written by MMmdl.
156164  0  0  1  0            999 V2000
  -30.6357  -14.5614   20.4448 C   0  0  0  0  0  0
  -30.4374  -12.3418   19.4066 C   0  0  0  0  0  0
  -29.4921  -12.4683   18.1909 C   0  0  0  0  0  0
  -28.0131  -12.3373   18.6138 C   0  0  0  0  0  0
  -27.6479  -13.2057   19.8491 C   0  0  2  0  0  0
  -28.7065  -13.0400   20.9642 C   0  0  0  0  0  0
  -25.2550  -13.8145   20.5702 C   0  0  0  0  0  0
  -24.1814  -13.0411   20.9205 C   0  0  0  0  0  0
  -24.6380  -11.6884   20.8743 C   0  0  0  0  0  0
  -23.9045  -10.4268   21.0401 C   0  0  0  0  0  0
  -24.3597   -9.4197   21.9188 C   0  0  0  0  0  0
  -23.6281   -8.2224   22.0752 C   0  0  0  0  0  0
  -22.4255   -8.0265   21.3540 C   0  0  0  0  0  0
  -21.9893   -9.0236   20.4631 C   0  0  0  0  0  0
  -22.7220  -10.2127   20.3042 C   0  0  0  0  0  0
  -21.6837   -6.0721   22.5289 C   0  0  0  0  0  0
  -21.4001   -6.5627   23.8224 C   0  0  0  0  0  0
  -21.3663   -5.6776   24.9184 C   0  0  0  0  0  0
  -21.6027   -4.3036   24.7218 C   0  0  0  0  0  0
  -21.8822   -3.8144   23.4335 C   0  0  0  0  0  0
  -21.9198   -4.6957   22.3404 C   0  0  0  0  0  0
  -22.7840  -13.5213   21.1851 C   0  0  0  0  0  0
  -22.1662   -4.2147   21.0974 F   0  0  0  0  0  0
  -21.5635   -3.4529   25.7733 F   0  0  0  0  0  0
  -30.0159  -13.3523   20.3830 N   0  0  0  0  0  0
  -26.2968  -12.9319   20.3307 N   0  0  0  0  0  0
  -25.9302  -11.6475   20.5727 N   0  0  0  0  0  0
  -22.0465  -12.8237   22.0412 N   0  0  0  0  0  0
  -25.4245  -15.1886   20.4157 N   0  0  0  0  0  0
  -31.8421  -14.6990   20.2371 O   0  0  0  0  0  0
  -21.6614   -6.8881   21.4248 O   0  0  0  0  0  0
  -22.3536  -14.5523   20.6706 O   0  0  0  0  0  0
  -24.6169  -31.8671   23.2086 C   0  0  0  0  0  0
  -25.9052  -32.4817   23.8350 C   0  0  1  0  0  0
  -27.2338  -27.4098   20.1234 C   0  0  0  0  0  0
  -25.5922  -33.8618   24.2312 N   0  0  0  0  0  0
  -23.4038  -30.4934   21.5453 C   0  0  2  0  0  0
  -24.8507  -28.9479   20.1196 C   0  0  0  0  0  0
  -22.7390  -29.4639   22.4925 C   0  0  0  0  0  0
  -18.0263  -28.1386   22.8443 C   0  0  0  0  0  0
  -24.1510  -36.7315   23.2634 C   0  0  0  0  0  0
  -25.9330  -30.8262   21.3637 C   0  0  0  0  0  0
  -26.0120  -29.4581   20.7130 C   0  0  0  0  0  0
  -27.2076  -28.7000   20.7075 C   0  0  0  0  0  0
  -26.0544  -26.9186   19.5214 C   0  0  0  0  0  0
  -24.8657  -27.6743   19.5261 C   0  0  0  0  0  0
  -23.6185  -29.8234   20.1620 C   0  0  0  0  0  0
  -25.4126  -36.3098   24.0330 C   0  0  1  0  0  0
  -20.5855  -28.3625   23.1253 C   0  0  2  0  0  0
  -20.6710  -26.9360   22.5380 C   0  0  0  0  0  0
  -19.5700  -26.6358   21.5164 C   0  0  0  0  0  0
  -18.1901  -26.7923   22.1626 C   0  0  0  0  0  0
  -19.1541  -28.8814   23.2857 C   0  0  0  0  0  0
  -18.9454  -30.1400   23.8891 C   0  0  0  0  0  0
  -17.6445  -30.6538   24.0538 C   0  0  0  0  0  0
  -25.9064  -34.9470   23.5106 C   0  0  0  0  0  0
  -16.5329  -29.9057   23.6295 C   0  0  0  0  0  0
  -16.7265  -28.6508   23.0283 C   0  0  0  0  0  0
  -26.4460  -31.6607   25.0685 C   0  0  0  0  0  0
  -25.3717  -31.3698   26.1424 C   0  0  0  0  0  0
  -27.0297  -30.3049   24.6080 C   0  0  0  0  0  0
  -27.6005  -32.4332   25.7458 C   0  0  0  0  0  0
  -27.5587  -37.1813   24.8466 C   0  0  0  0  0  0
  -21.4126  -29.3017   22.3656 N   0  0  0  0  0  0
  -26.4310  -37.3786   23.9395 N   0  0  0  0  0  0
  -24.6681  -31.0789   22.0964 N   0  0  0  0  0  0
  -23.4139  -28.8178   23.2979 O   0  0  0  0  0  0
  -28.3791  -26.6358   20.1562 O   0  0  0  0  0  0
  -26.5623  -34.8924   22.4685 O   0  0  0  0  0  0
  -23.5366  -32.1380   23.7531 O   0  0  0  0  0  0
  -29.0679  -16.6526   22.2162 C   0  0  0  0  0  0
  -28.6658  -19.0734   22.2745 C   0  0  0  0  0  0
  -28.6472  -17.8090   22.9082 C   0  0  0  0  0  0
  -29.4735  -16.7440   20.8704 C   0  0  0  0  0  0
  -29.0438  -19.1999   20.9142 C   0  0  0  0  0  0
  -29.4252  -18.0116   20.2244 C   0  0  0  0  0  0
  -28.6329  -24.1585   19.8123 C   0  0  0  0  0  0
  -28.1215  -22.7249   20.1942 C   0  0  0  0  0  0
  -28.2222  -25.3243   20.7533 C   0  0  0  0  0  0
  -29.1161  -21.7001   20.8299 C   0  0  0  0  0  0
  -28.1813  -17.6919   24.2167 N   0  0  0  0  0  0
  -29.8207  -15.5861   20.1049 N   0  0  0  0  0  0
  -28.9976  -20.3993   20.1983 O   0  0  0  0  0  0
  -29.7442  -18.0836   18.9098 F   0  0  0  0  0  0
  -31.4723  -12.4748   19.0871 H   0  0  0  0  0  0
  -30.3832  -11.3488   19.8508 H   0  0  0  0  0  0
  -29.7335  -11.7053   17.4501 H   0  0  0  0  0  0
  -29.6526  -13.4274   17.6969 H   0  0  0  0  0  0
  -27.8258  -11.2882   18.8415 H   0  0  0  0  0  0
  -27.3617  -12.5837   17.7752 H   0  0  0  0  0  0
  -27.6559  -14.2370   19.5098 H   0  0  0  0  0  0
  -28.7060  -12.0176   21.3430 H   0  0  0  0  0  0
  -28.4861  -13.6873   21.8089 H   0  0  0  0  0  0
  -25.2746   -9.5682   22.4752 H   0  0  0  0  0  0
  -23.9991   -7.4616   22.7483 H   0  0  0  0  0  0
  -21.0823   -8.8738   19.8949 H   0  0  0  0  0  0
  -22.3671  -10.9653   19.6137 H   0  0  0  0  0  0
  -21.1960   -7.6135   23.9724 H   0  0  0  0  0  0
  -21.1491   -6.0501   25.9089 H   0  0  0  0  0  0
  -22.0601   -2.7602   23.2831 H   0  0  0  0  0  0
  -22.4045  -11.9928   22.4885 H   0  0  0  0  0  0
  -21.1051  -13.1270   22.2486 H   0  0  0  0  0  0
  -24.6619  -15.8458   20.5398 H   0  0  0  0  0  0
  -26.2826  -15.6353   20.1182 H   0  0  0  0  0  0
  -26.7117  -32.5521   23.1101 H   0  0  0  0  0  0
  -25.0063  -33.9786   25.0438 H   0  0  0  0  0  0
  -22.6922  -31.3108   21.4032 H   0  0  0  0  0  0
  -23.3780  -35.9652   23.3316 H   0  0  0  0  0  0
  -24.3572  -36.8914   22.2041 H   0  0  0  0  0  0
  -23.7287  -37.6520   23.6655 H   0  0  0  0  0  0
  -26.0528  -31.5906   20.5938 H   0  0  0  0  0  0
  -26.8121  -30.8710   21.9945 H   0  0  0  0  0  0
  -28.0962  -29.0910   21.1815 H   0  0  0  0  0  0
  -26.0474  -25.9358   19.0680 H   0  0  0  0  0  0
  -23.9658  -27.2711   19.0794 H   0  0  0  0  0  0
  -23.7368  -30.5925   19.3973 H   0  0  0  0  0  0
  -22.7384  -29.2499   19.8654 H   0  0  0  0  0  0
  -25.1325  -36.1916   25.0824 H   0  0  0  0  0  0
  -20.9987  -28.3181   24.1378 H   0  0  0  0  0  0
  -20.5580  -26.2280   23.3601 H   0  0  0  0  0  0
  -21.6598  -26.7293   22.1258 H   0  0  0  0  0  0
  -19.6823  -25.6271   21.1141 H   0  0  0  0  0  0
  -19.6638  -27.3225   20.6740 H   0  0  0  0  0  0
  -17.4138  -26.6590   21.4067 H   0  0  0  0  0  0
  -18.0280  -26.0088   22.9040 H   0  0  0  0  0  0
  -19.7910  -30.7204   24.2317 H   0  0  0  0  0  0
  -17.5046  -31.6197   24.5177 H   0  0  0  0  0  0
  -15.5304  -30.2943   23.7665 H   0  0  0  0  0  0
  -15.8659  -28.0845   22.6991 H   0  0  0  0  0  0
  -24.5896  -30.7060   25.7733 H   0  0  0  0  0  0
  -24.8923  -32.2852   26.4891 H   0  0  0  0  0  0
  -25.8056  -30.8819   27.0169 H   0  0  0  0  0  0
  -26.2838  -29.6800   24.1171 H   0  0  0  0  0  0
  -27.4081  -29.7278   25.4526 H   0  0  0  0  0  0
  -27.8666  -30.4350   23.9223 H   0  0  0  0  0  0
  -27.2602  -33.3631   26.2044 H   0  0  0  0  0  0
  -28.3816  -32.6918   25.0288 H   0  0  0  0  0  0
  -28.0683  -31.8456   26.5364 H   0  0  0  0  0  0
  -28.2617  -38.0096   24.7498 H   0  0  0  0  0  0
  -28.1071  -36.2625   24.6330 H   0  0  0  0  0  0
  -27.2299  -37.1506   25.8867 H   0  0  0  0  0  0
  -20.9289  -29.8734   21.6859 H   0  0  0  0  0  0
  -26.0196  -38.2869   24.1367 H   0  0  0  0  0  0
  -29.0485  -15.6880   22.7037 H   0  0  0  0  0  0
  -28.3377  -19.9349   22.8360 H   0  0  0  0  0  0
  -29.7125  -24.1642   19.6504 H   0  0  0  0  0  0
  -28.2082  -24.3949   18.8355 H   0  0  0  0  0  0
  -27.7628  -22.2900   19.2641 H   0  0  0  0  0  0
  -27.2274  -22.7912   20.8161 H   0  0  0  0  0  0
  -28.8196  -25.2865   21.6660 H   0  0  0  0  0  0
  -27.1962  -25.1732   21.0848 H   0  0  0  0  0  0
  -28.9902  -21.6907   21.9123 H   0  0  0  0  0  0
  -30.1414  -22.0388   20.6647 H   0  0  0  0  0  0
  -27.6181  -18.4557   24.5790 H   0  0  0  0  0  0
  -27.8115  -16.7865   24.4994 H   0  0  0  0  0  0
  -29.9556  -15.8311   19.1336 H   0  0  0  0  0  0
  1 25  1  0  0  0
  1 30  2  0  0  0
  1 82  1  0  0  0
  2  3  1  0  0  0
  2 25  1  0  0  0
  2 85  1  0  0  0
  2 86  1  0  0  0
  3  4  1  0  0  0
  3 87  1  0  0  0
  3 88  1  0  0  0
  4  5  1  0  0  0
  4 89  1  0  0  0
  4 90  1  0  0  0
  5  6  1  0  0  0
  5 26  1  0  0  0
  5 91  1  0  0  0
  6 25  1  0  0  0
  6 92  1  0  0  0
  6 93  1  0  0  0
  7  8  2  0  0  0
  7 26  1  0  0  0
  7 29  1  0  0  0
  8  9  1  0  0  0
  8 22  1  0  0  0
  9 10  1  0  0  0
  9 27  2  0  0  0
 10 11  2  0  0  0
 10 15  1  0  0  0
 11 12  1  0  0  0
 11 94  1  0  0  0
 12 13  2  0  0  0
 12 95  1  0  0  0
 13 14  1  0  0  0
 13 31  1  0  0  0
 14 15  2  0  0  0
 14 96  1  0  0  0
 15 97  1  0  0  0
 16 17  2  0  0  0
 16 21  1  0  0  0
 16 31  1  0  0  0
 17 18  1  0  0  0
 17 98  1  0  0  0
 18 19  2  0  0  0
 18 99  1  0  0  0
 19 20  1  0  0  0
 19 24  1  0  0  0
 20 21  2  0  0  0
 20100  1  0  0  0
 21 23  1  0  0  0
 22 28  1  0  0  0
 22 32  2  0  0  0
 26 27  1  0  0  0
 28101  1  0  0  0
 28102  1  0  0  0
 29103  1  0  0  0
 29104  1  0  0  0
 33 34  1  0  0  0
 33 66  1  0  0  0
 33 70  2  0  0  0
 34 36  1  0  0  0
 34 59  1  0  0  0
 34105  1  0  0  0
 35 44  2  0  0  0
 35 45  1  0  0  0
 35 68  1  0  0  0
 36 56  1  0  0  0
 36106  1  0  0  0
 37 39  1  0  0  0
 37 47  1  0  0  0
 37 66  1  0  0  0
 37107  1  0  0  0
 38 43  2  0  0  0
 38 46  1  0  0  0
 38 47  1  0  0  0
 39 64  1  0  0  0
 39 67  2  0  0  0
 40 52  1  0  0  0
 40 53  2  0  0  0
 40 58  1  0  0  0
 41108  1  0  0  0
 41109  1  0  0  0
 41110  1  0  0  0
 41 48  1  0  0  0
 42 43  1  0  0  0
 42 66  1  0  0  0
 42111  1  0  0  0
 42112  1  0  0  0
 43 44  1  0  0  0
 44113  1  0  0  0
 45 46  2  0  0  0
 45114  1  0  0  0
 46115  1  0  0  0
 47116  1  0  0  0
 47117  1  0  0  0
 48 56  1  0  0  0
 48 65  1  0  0  0
 48118  1  0  0  0
 49 50  1  0  0  0
 49 53  1  0  0  0
 49 64  1  0  0  0
 49119  1  0  0  0
 50 51  1  0  0  0
 50120  1  0  0  0
 50121  1  0  0  0
 51 52  1  0  0  0
 51122  1  0  0  0
 51123  1  0  0  0
 52124  1  0  0  0
 52125  1  0  0  0
 53 54  1  0  0  0
 54 55  2  0  0  0
 54126  1  0  0  0
 55 57  1  0  0  0
 55127  1  0  0  0
 56 69  2  0  0  0
 57 58  2  0  0  0
 57128  1  0  0  0
 58129  1  0  0  0
 59 60  1  0  0  0
 59 61  1  0  0  0
 59 62  1  0  0  0
 60130  1  0  0  0
 60131  1  0  0  0
 60132  1  0  0  0
 61133  1  0  0  0
 61134  1  0  0  0
 61135  1  0  0  0
 62136  1  0  0  0
 62137  1  0  0  0
 62138  1  0  0  0
 63 65  1  0  0  0
 63139  1  0  0  0
 63140  1  0  0  0
 63141  1  0  0  0
 64142  1  0  0  0
 65143  1  0  0  0
 68 79  1  0  0  0
 71 73  2  0  0  0
 71 74  1  0  0  0
 71144  1  0  0  0
 72 73  1  0  0  0
 72 75  2  0  0  0
 72145  1  0  0  0
 73 81  1  0  0  0
 74 76  2  0  0  0
 74 82  1  0  0  0
 75 76  1  0  0  0
 75 83  1  0  0  0
 76 84  1  0  0  0
 77 78  1  0  0  0
 77 79  1  0  0  0
 77146  1  0  0  0
 77147  1  0  0  0
 78 80  1  0  0  0
 78148  1  0  0  0
 78149  1  0  0  0
 79150  1  0  0  0
 79151  1  0  0  0
 80 83  1  0  0  0
 80152  1  0  0  0
 80153  1  0  0  0
 81154  1  0  0  0
 81155  1  0  0  0
 82156  1  0  0  0
M  ISO  4   1 100  68 101  79 101  82 100
M  END
> <chiral flag>
0

> <version>
0

> <s_m_source_file>
/data/baiqing/PycharmProjects/Reinvent-master-3.2/result/LINK_invent/BTK/process_docking_weight1_custom_product_contain_oxygen_bond_distance_aromatic_linkinvent_7_9_3/rearranged_h_0105.sdf

> <i_m_source_file_index>
33

> <r_mmod_Potential_Energy-OPLS-2005>
115.710395812988

> <r_mmod_Stretch_Energy-OPLS-2005>
45.5805320739746

> <r_mmod_Bend_Energy-OPLS-2005>
122.513305664062

> <r_mmod_Torsional_Energy-OPLS-2005>
320.643218994141

> <r_mmod_Improper_Torsional_Energy-OPLS-2005>
29.8554649353027

> <r_mmod_Van_der_Waal_Energy-OPLS-2005>
143.842361450195

> <r_mmod_Electrostatic_Energy-OPLS-2005>
-365.527862548828

> <r_mmod_Solvation_Energy-OPLS-2005>
-212.021072387695

> <b_mmod_Minimization_Converged-OPLS-2005>
0

> <r_mmod_RMS_Derivative-OPLS-2005>
5.41866064071655

$$$$
33
                    3D
 Structure written by MMmdl.
157165  0  0  1  0            999 V2000
  -30.6563  -14.6814   20.3512 C   0  0  0  0  0  0
  -30.4383  -12.3802   19.4567 C   0  0  0  0  0  0
  -29.5026  -12.3850   18.2269 C   0  0  0  0  0  0
  -28.0212  -12.2751   18.6473 C   0  0  0  0  0  0
  -27.6316  -13.2038   19.8304 C   0  0  2  0  0  0
  -28.6957  -13.1819   20.9499 C   0  0  0  0  0  0
  -25.2485  -13.8054   20.5775 C   0  0  0  0  0  0
  -24.1763  -13.0341   20.9251 C   0  0  0  0  0  0
  -24.6343  -11.6835   20.8787 C   0  0  0  0  0  0
  -23.9021  -10.4231   21.0420 C   0  0  0  0  0  0
  -24.3581   -9.4155   21.9192 C   0  0  0  0  0  0
  -23.6256   -8.2198   22.0751 C   0  0  0  0  0  0
  -22.4239   -8.0245   21.3543 C   0  0  0  0  0  0
  -21.9876   -9.0215   20.4642 C   0  0  0  0  0  0
  -22.7203  -10.2092   20.3057 C   0  0  0  0  0  0
  -21.6833   -6.0721   22.5282 C   0  0  0  0  0  0
  -21.4003   -6.5627   23.8219 C   0  0  0  0  0  0
  -21.3664   -5.6780   24.9178 C   0  0  0  0  0  0
  -21.6045   -4.3043   24.7220 C   0  0  0  0  0  0
  -21.8820   -3.8136   23.4341 C   0  0  0  0  0  0
  -21.9185   -4.6953   22.3400 C   0  0  0  0  0  0
  -22.7801  -13.5164   21.1886 C   0  0  0  0  0  0
  -22.1656   -4.2147   21.0976 F   0  0  0  0  0  0
  -21.5629   -3.4525   25.7733 F   0  0  0  0  0  0
  -30.0082  -13.4686   20.3511 N   0  0  0  0  0  0
  -26.2897  -12.9240   20.3298 N   0  0  0  0  0  0
  -25.9264  -11.6414   20.5814 N   0  0  0  0  0  0
  -22.0444  -12.8188   22.0464 N   0  0  0  0  0  0
  -25.4118  -15.1761   20.4285 N   0  0  0  0  0  0
  -31.8865  -14.7469   20.3286 O   0  0  0  0  0  0
  -21.6614   -6.8848   21.4237 O   0  0  0  0  0  0
  -22.3508  -14.5473   20.6713 O   0  0  0  0  0  0
  -24.6230  -31.8621   23.2052 C   0  0  0  0  0  0
  -25.9091  -32.4792   23.8364 C   0  0  1  0  0  0
  -27.2321  -27.3514   20.1083 C   0  0  0  0  0  0
  -25.5924  -33.8593   24.2297 N   0  0  0  0  0  0
  -23.4150  -30.4849   21.5474 C   0  0  2  0  0  0
  -24.8625  -28.9462   20.1128 C   0  0  0  0  0  0
  -22.7458  -29.4626   22.4961 C   0  0  0  0  0  0
  -18.0288  -28.1377   22.8499 C   0  0  0  0  0  0
  -24.1493  -36.7301   23.2638 C   0  0  0  0  0  0
  -25.9538  -30.8025   21.3723 C   0  0  0  0  0  0
  -26.0294  -29.4331   20.7139 C   0  0  0  0  0  0
  -27.2164  -28.6464   20.7041 C   0  0  0  0  0  0
  -26.0392  -26.9100   19.4864 C   0  0  0  0  0  0
  -24.8671  -27.6876   19.4944 C   0  0  0  0  0  0
  -23.6275  -29.8204   20.1624 C   0  0  0  0  0  0
  -25.4118  -36.3097   24.0330 C   0  0  1  0  0  0
  -20.5889  -28.3670   23.1319 C   0  0  2  0  0  0
  -20.6790  -26.9408   22.5410 C   0  0  0  0  0  0
  -19.5761  -26.6398   21.5210 C   0  0  0  0  0  0
  -18.1941  -26.7925   22.1622 C   0  0  0  0  0  0
  -19.1540  -28.8838   23.2908 C   0  0  0  0  0  0
  -18.9468  -30.1446   23.8917 C   0  0  0  0  0  0
  -17.6469  -30.6583   24.0578 C   0  0  0  0  0  0
  -25.9044  -34.9459   23.5109 C   0  0  0  0  0  0
  -16.5362  -29.9081   23.6344 C   0  0  0  0  0  0
  -16.7274  -28.6503   23.0348 C   0  0  0  0  0  0
  -26.4486  -31.6586   25.0712 C   0  0  0  0  0  0
  -25.3732  -31.3718   26.1448 C   0  0  0  0  0  0
  -27.0315  -30.3011   24.6144 C   0  0  0  0  0  0
  -27.6052  -32.4318   25.7481 C   0  0  0  0  0  0
  -27.5583  -37.1804   24.8462 C   0  0  0  0  0  0
  -21.4172  -29.3036   22.3717 N   0  0  0  0  0  0
  -26.4301  -37.3784   23.9400 N   0  0  0  0  0  0
  -24.6823  -31.0653   22.0992 N   0  0  0  0  0  0
  -23.4191  -28.8166   23.3030 O   0  0  0  0  0  0
  -28.3685  -26.5319   20.1566 O   0  0  0  0  0  0
  -26.5609  -34.8925   22.4674 O   0  0  0  0  0  0
  -23.5402  -32.1413   23.7399 O   0  0  0  0  0  0
  -30.9522  -17.9734   20.7337 C   0  0  0  0  0  0
  -28.8057  -19.6113   19.9993 C   0  0  0  0  0  0
  -29.8500  -17.3295   20.1079 C   0  0  0  0  0  0
  -28.7524  -18.2070   19.7773 C   0  0  0  0  0  0
  -30.9946  -19.3845   20.9485 C   0  0  0  0  0  0
  -29.9335  -20.2469   20.5590 C   0  0  0  0  0  0
  -29.8993  -15.8605   19.6233 C   0  0  0  0  0  0
  -27.4655  -17.7199   19.1268 C   0  0  0  0  0  0
  -29.3298  -24.0989   20.4174 C   0  0  0  0  0  0
  -28.1790  -25.0846   19.9745 C   0  0  0  0  0  0
  -29.0312  -22.5539   20.2259 C   0  0  0  0  0  0
  -29.4023  -15.6319   18.4800 N   0  0  0  0  0  0
  -32.1262  -19.9532   21.5307 N   0  0  0  0  0  0
  -30.0487  -21.6403   20.7364 O   0  0  0  0  0  0
  -31.4752  -12.4993   19.1380 H   0  0  0  0  0  0
  -30.3870  -11.4236   19.9786 H   0  0  0  0  0  0
  -29.7553  -11.5456   17.5774 H   0  0  0  0  0  0
  -29.6643  -13.2731   17.6194 H   0  0  0  0  0  0
  -27.8511  -11.2358   18.9320 H   0  0  0  0  0  0
  -27.3715  -12.4600   17.7914 H   0  0  0  0  0  0
  -27.5831  -14.2067   19.4205 H   0  0  0  0  0  0
  -28.7155  -12.2132   21.4498 H   0  0  0  0  0  0
  -28.4574  -13.9225   21.7151 H   0  0  0  0  0  0
  -25.2722   -9.5629   22.4777 H   0  0  0  0  0  0
  -23.9967   -7.4576   22.7451 H   0  0  0  0  0  0
  -21.0821   -8.8708   19.8931 H   0  0  0  0  0  0
  -22.3654  -10.9628   19.6162 H   0  0  0  0  0  0
  -21.1998   -7.6139   23.9716 H   0  0  0  0  0  0
  -21.1492   -6.0515   25.9083 H   0  0  0  0  0  0
  -22.0601   -2.7598   23.2836 H   0  0  0  0  0  0
  -22.4034  -11.9842   22.4867 H   0  0  0  0  0  0
  -21.1057  -13.1217   22.2632 H   0  0  0  0  0  0
  -24.6497  -15.8333   20.5510 H   0  0  0  0  0  0
  -26.2720  -15.6126   20.1297 H   0  0  0  0  0  0
  -26.7151  -32.5464   23.1108 H   0  0  0  0  0  0
  -25.0074  -33.9750   25.0443 H   0  0  0  0  0  0
  -22.7082  -31.3051   21.4069 H   0  0  0  0  0  0
  -23.3757  -35.9628   23.3306 H   0  0  0  0  0  0
  -24.3589  -36.8915   22.2052 H   0  0  0  0  0  0
  -23.7242  -37.6506   23.6646 H   0  0  0  0  0  0
  -26.0816  -31.5686   20.6063 H   0  0  0  0  0  0
  -26.8348  -30.8505   22.0000 H   0  0  0  0  0  0
  -28.1109  -29.0160   21.1858 H   0  0  0  0  0  0
  -25.9822  -25.9515   18.9928 H   0  0  0  0  0  0
  -23.9711  -27.3088   19.0238 H   0  0  0  0  0  0
  -23.7404  -30.5967   19.4047 H   0  0  0  0  0  0
  -22.7489  -29.2448   19.8647 H   0  0  0  0  0  0
  -25.1300  -36.1954   25.0820 H   0  0  0  0  0  0
  -20.9979  -28.3221   24.1440 H   0  0  0  0  0  0
  -20.5715  -26.2255   23.3580 H   0  0  0  0  0  0
  -21.6654  -26.7459   22.1189 H   0  0  0  0  0  0
  -19.6917  -25.6318   21.1217 H   0  0  0  0  0  0
  -19.6687  -27.3244   20.6763 H   0  0  0  0  0  0
  -17.4206  -26.6698   21.4017 H   0  0  0  0  0  0
  -18.0339  -26.0056   22.9005 H   0  0  0  0  0  0
  -19.7944  -30.7270   24.2288 H   0  0  0  0  0  0
  -17.5020  -31.6263   24.5186 H   0  0  0  0  0  0
  -15.5365  -30.2978   23.7684 H   0  0  0  0  0  0
  -15.8675  -28.0841   22.7038 H   0  0  0  0  0  0
  -24.5914  -30.7053   25.7789 H   0  0  0  0  0  0
  -24.8911  -32.2880   26.4864 H   0  0  0  0  0  0
  -25.8079  -30.8909   27.0222 H   0  0  0  0  0  0
  -26.2870  -29.6777   24.1178 H   0  0  0  0  0  0
  -27.4033  -29.7252   25.4632 H   0  0  0  0  0  0
  -27.8735  -30.4306   23.9342 H   0  0  0  0  0  0
  -27.2659  -33.3616   26.2064 H   0  0  0  0  0  0
  -28.3858  -32.6890   25.0304 H   0  0  0  0  0  0
  -28.0718  -31.8434   26.5394 H   0  0  0  0  0  0
  -28.2609  -38.0097   24.7514 H   0  0  0  0  0  0
  -28.1083  -36.2631   24.6290 H   0  0  0  0  0  0
  -27.2300  -37.1454   25.8867 H   0  0  0  0  0  0
  -20.9336  -29.8764   21.6941 H   0  0  0  0  0  0
  -26.0191  -38.2863   24.1399 H   0  0  0  0  0  0
  -31.8167  -17.3802   20.9957 H   0  0  0  0  0  0
  -27.9570  -20.2085   19.7011 H   0  0  0  0  0  0
  -26.6167  -18.3496   19.3959 H   0  0  0  0  0  0
  -27.2191  -16.7117   19.4410 H   0  0  0  0  0  0
  -27.5563  -17.7346   18.0404 H   0  0  0  0  0  0
  -29.5510  -24.2793   21.4687 H   0  0  0  0  0  0
  -30.2386  -24.3543   19.8712 H   0  0  0  0  0  0
  -27.2865  -24.7825   20.5259 H   0  0  0  0  0  0
  -27.9713  -24.9015   18.9195 H   0  0  0  0  0  0
  -28.8928  -22.3568   19.1621 H   0  0  0  0  0  0
  -28.0818  -22.3211   20.7103 H   0  0  0  0  0  0
  -29.0108  -16.4791   18.0914 H   0  0  0  0  0  0
  -32.0224  -20.9022   21.8791 H   0  0  0  0  0  0
  -32.7136  -19.3752   22.1233 H   0  0  0  0  0  0
  1 25  1  0  0  0
  1 30  2  0  0  0
  1 77  1  0  0  0
  2  3  1  0  0  0
  2 25  1  0  0  0
  2 85  1  0  0  0
  2 86  1  0  0  0
  3  4  1  0  0  0
  3 87  1  0  0  0
  3 88  1  0  0  0
  4  5  1  0  0  0
  4 89  1  0  0  0
  4 90  1  0  0  0
  5  6  1  0  0  0
  5 26  1  0  0  0
  5 91  1  0  0  0
  6 25  1  0  0  0
  6 92  1  0  0  0
  6 93  1  0  0  0
  7  8  2  0  0  0
  7 26  1  0  0  0
  7 29  1  0  0  0
  8  9  1  0  0  0
  8 22  1  0  0  0
  9 10  1  0  0  0
  9 27  2  0  0  0
 10 11  2  0  0  0
 10 15  1  0  0  0
 11 12  1  0  0  0
 11 94  1  0  0  0
 12 13  2  0  0  0
 12 95  1  0  0  0
 13 14  1  0  0  0
 13 31  1  0  0  0
 14 15  2  0  0  0
 14 96  1  0  0  0
 15 97  1  0  0  0
 16 17  2  0  0  0
 16 21  1  0  0  0
 16 31  1  0  0  0
 17 18  1  0  0  0
 17 98  1  0  0  0
 18 19  2  0  0  0
 18 99  1  0  0  0
 19 20  1  0  0  0
 19 24  1  0  0  0
 20 21  2  0  0  0
 20100  1  0  0  0
 21 23  1  0  0  0
 22 28  1  0  0  0
 22 32  2  0  0  0
 26 27  1  0  0  0
 28101  1  0  0  0
 28102  1  0  0  0
 29103  1  0  0  0
 29104  1  0  0  0
 33 34  1  0  0  0
 33 66  1  0  0  0
 33 70  2  0  0  0
 34 36  1  0  0  0
 34 59  1  0  0  0
 34105  1  0  0  0
 35 44  2  0  0  0
 35 45  1  0  0  0
 35 68  1  0  0  0
 36 56  1  0  0  0
 36106  1  0  0  0
 37 39  1  0  0  0
 37 47  1  0  0  0
 37 66  1  0  0  0
 37107  1  0  0  0
 38 43  2  0  0  0
 38 46  1  0  0  0
 38 47  1  0  0  0
 39 64  1  0  0  0
 39 67  2  0  0  0
 40 52  1  0  0  0
 40 53  2  0  0  0
 40 58  1  0  0  0
 41108  1  0  0  0
 41109  1  0  0  0
 41110  1  0  0  0
 41 48  1  0  0  0
 42 43  1  0  0  0
 42 66  1  0  0  0
 42111  1  0  0  0
 42112  1  0  0  0
 43 44  1  0  0  0
 44113  1  0  0  0
 45 46  2  0  0  0
 45114  1  0  0  0
 46115  1  0  0  0
 47116  1  0  0  0
 47117  1  0  0  0
 48 56  1  0  0  0
 48 65  1  0  0  0
 48118  1  0  0  0
 49 50  1  0  0  0
 49 53  1  0  0  0
 49 64  1  0  0  0
 49119  1  0  0  0
 50 51  1  0  0  0
 50120  1  0  0  0
 50121  1  0  0  0
 51 52  1  0  0  0
 51122  1  0  0  0
 51123  1  0  0  0
 52124  1  0  0  0
 52125  1  0  0  0
 53 54  1  0  0  0
 54 55  2  0  0  0
 54126  1  0  0  0
 55 57  1  0  0  0
 55127  1  0  0  0
 56 69  2  0  0  0
 57 58  2  0  0  0
 57128  1  0  0  0
 58129  1  0  0  0
 59 60  1  0  0  0
 59 61  1  0  0  0
 59 62  1  0  0  0
 60130  1  0  0  0
 60131  1  0  0  0
 60132  1  0  0  0
 61133  1  0  0  0
 61134  1  0  0  0
 61135  1  0  0  0
 62136  1  0  0  0
 62137  1  0  0  0
 62138  1  0  0  0
 63 65  1  0  0  0
 63139  1  0  0  0
 63140  1  0  0  0
 63141  1  0  0  0
 64142  1  0  0  0
 65143  1  0  0  0
 68 80  1  0  0  0
 71 73  2  0  0  0
 71 75  1  0  0  0
 71144  1  0  0  0
 72 74  2  0  0  0
 72 76  1  0  0  0
 72145  1  0  0  0
 73 74  1  0  0  0
 73 77  1  0  0  0
 74 78  1  0  0  0
 75 76  2  0  0  0
 75 83  1  0  0  0
 76 84  1  0  0  0
 77 82  2  0  0  0
 78146  1  0  0  0
 78147  1  0  0  0
 78148  1  0  0  0
 79 80  1  0  0  0
 79 81  1  0  0  0
 79149  1  0  0  0
 79150  1  0  0  0
 80151  1  0  0  0
 80152  1  0  0  0
 81 84  1  0  0  0
 81153  1  0  0  0
 81154  1  0  0  0
 82155  1  0  0  0
 83156  1  0  0  0
 83157  1  0  0  0
M  ISO  4   1 100  68 101  77 100  80 101
M  END
> <chiral flag>
0

> <version>
0

> <s_m_source_file>
/data/baiqing/PycharmProjects/Reinvent-master-3.2/result/LINK_invent/BTK/process_docking_weight1_custom_product_contain_oxygen_bond_distance_aromatic_linkinvent_7_9_3/rearranged_h_0105.sdf

> <i_m_source_file_index>
34

> <r_mmod_Potential_Energy-OPLS-2005>
261.726959228516

> <r_mmod_Stretch_Energy-OPLS-2005>
81.6353073120117

> <r_mmod_Bend_Energy-OPLS-2005>
143.662399291992

> <r_mmod_Torsional_Energy-OPLS-2005>
249.792907714844

> <r_mmod_Improper_Torsional_Energy-OPLS-2005>
29.8967380523682

> <r_mmod_Van_der_Waal_Energy-OPLS-2005>
163.016616821289

> <r_mmod_Electrostatic_Energy-OPLS-2005>
-261.838287353516

> <r_mmod_Solvation_Energy-OPLS-2005>
-213.927780151367

> <b_mmod_Minimization_Converged-OPLS-2005>
0

> <r_mmod_RMS_Derivative-OPLS-2005>
1.77243292331696

$$$$
34
                    3D
 Structure written by MMmdl.
163172  0  0  1  0            999 V2000
  -30.6586  -14.5087   20.5871 C   0  0  0  0  0  0
  -30.4423  -12.3380   19.4145 C   0  0  0  0  0  0
  -29.5013  -12.5191   18.2035 C   0  0  0  0  0  0
  -28.0219  -12.3710   18.6146 C   0  0  0  0  0  0
  -27.6652  -13.1999   19.8766 C   0  0  2  0  0  0
  -28.7068  -12.9586   20.9916 C   0  0  0  0  0  0
  -25.2576  -13.8101   20.5612 C   0  0  0  0  0  0
  -24.1828  -13.0404   20.9162 C   0  0  0  0  0  0
  -24.6380  -11.6878   20.8743 C   0  0  0  0  0  0
  -23.9033  -10.4274   21.0398 C   0  0  0  0  0  0
  -24.3592   -9.4192   21.9171 C   0  0  0  0  0  0
  -23.6287   -8.2220   22.0720 C   0  0  0  0  0  0
  -22.4265   -8.0264   21.3518 C   0  0  0  0  0  0
  -21.9902   -9.0235   20.4612 C   0  0  0  0  0  0
  -22.7215  -10.2119   20.3036 C   0  0  0  0  0  0
  -21.6837   -6.0732   22.5284 C   0  0  0  0  0  0
  -21.3999   -6.5637   23.8224 C   0  0  0  0  0  0
  -21.3642   -5.6783   24.9182 C   0  0  0  0  0  0
  -21.6042   -4.3050   24.7223 C   0  0  0  0  0  0
  -21.8830   -3.8144   23.4340 C   0  0  0  0  0  0
  -21.9180   -4.6964   22.3403 C   0  0  0  0  0  0
  -22.7863  -13.5233   21.1832 C   0  0  0  0  0  0
  -22.1640   -4.2155   21.0977 F   0  0  0  0  0  0
  -21.5632   -3.4519   25.7727 F   0  0  0  0  0  0
  -30.0383  -13.2991   20.4528 N   0  0  0  0  0  0
  -26.3029  -12.9272   20.3324 N   0  0  0  0  0  0
  -25.9311  -11.6447   20.5762 N   0  0  0  0  0  0
  -22.0474  -12.8251   22.0372 N   0  0  0  0  0  0
  -25.4261  -15.1798   20.3953 N   0  0  0  0  0  0
  -31.7677  -14.7539   20.1020 O   0  0  0  0  0  0
  -21.6613   -6.8872   21.4239 O   0  0  0  0  0  0
  -22.3584  -14.5568   20.6706 O   0  0  0  0  0  0
  -24.6185  -31.8647   23.2104 C   0  0  0  0  0  0
  -25.9083  -32.4790   23.8399 C   0  0  1  0  0  0
  -27.2363  -27.4195   20.1045 C   0  0  0  0  0  0
  -25.5959  -33.8594   24.2348 N   0  0  0  0  0  0
  -23.4077  -30.4887   21.5472 C   0  0  2  0  0  0
  -24.8572  -28.9515   20.1125 C   0  0  0  0  0  0
  -22.7419  -29.4651   22.4963 C   0  0  0  0  0  0
  -18.0263  -28.1370   22.8476 C   0  0  0  0  0  0
  -24.1488  -36.7269   23.2639 C   0  0  0  0  0  0
  -25.9396  -30.8230   21.3694 C   0  0  0  0  0  0
  -26.0186  -29.4588   20.7126 C   0  0  0  0  0  0
  -27.2149  -28.7014   20.7036 C   0  0  0  0  0  0
  -26.0628  -26.9295   19.4965 C   0  0  0  0  0  0
  -24.8749  -27.6859   19.5000 C   0  0  0  0  0  0
  -23.6207  -29.8207   20.1620 C   0  0  0  0  0  0
  -25.4106  -36.3084   24.0352 C   0  0  1  0  0  0
  -20.5855  -28.3669   23.1285 C   0  0  2  0  0  0
  -20.6750  -26.9409   22.5390 C   0  0  0  0  0  0
  -19.5737  -26.6378   21.5185 C   0  0  0  0  0  0
  -18.1910  -26.7926   22.1586 C   0  0  0  0  0  0
  -19.1512  -28.8833   23.2868 C   0  0  0  0  0  0
  -18.9456  -30.1438   23.8877 C   0  0  0  0  0  0
  -17.6466  -30.6586   24.0555 C   0  0  0  0  0  0
  -25.9049  -34.9458   23.5134 C   0  0  0  0  0  0
  -16.5349  -29.9082   23.6345 C   0  0  0  0  0  0
  -16.7252  -28.6492   23.0365 C   0  0  0  0  0  0
  -26.4522  -31.6563   25.0723 C   0  0  0  0  0  0
  -25.3812  -31.3636   26.1487 C   0  0  0  0  0  0
  -27.0375  -30.3010   24.6108 C   0  0  0  0  0  0
  -27.6100  -32.4289   25.7467 C   0  0  0  0  0  0
  -27.5601  -37.1752   24.8452 C   0  0  0  0  0  0
  -21.4140  -29.3030   22.3689 N   0  0  0  0  0  0
  -26.4264  -37.3802   23.9470 N   0  0  0  0  0  0
  -24.6726  -31.0749   22.1000 N   0  0  0  0  0  0
  -23.4177  -28.8208   23.3027 O   0  0  0  0  0  0
  -28.3558  -26.6137   20.1301 O   0  0  0  0  0  0
  -26.5574  -34.8926   22.4670 O   0  0  0  0  0  0
  -23.5373  -32.1404   23.7492 O   0  0  0  0  0  0
  -30.5409  -19.1676   21.2478 C   0  0  0  0  0  0
  -30.8060  -17.7747   21.3218 C   0  0  0  0  0  0
  -28.5639  -17.3294   20.5279 C   0  0  0  0  0  0
  -29.2744  -19.6675   20.8404 C   0  0  0  0  0  0
  -28.2918  -18.7155   20.4453 C   0  0  0  0  0  0
  -29.8046  -16.8373   20.9825 C   0  0  0  0  0  0
  -29.0382  -21.9749   19.5945 C   0  0  0  0  0  0
  -29.6888  -21.9850   21.9925 C   0  0  0  0  0  0
  -28.4149  -23.3953   19.7265 C   0  0  0  0  0  0
  -29.0825  -23.3996   22.1666 C   0  0  0  0  0  0
  -28.9268  -21.1828   20.9179 C   0  0  2  0  0  0
  -29.0381  -24.2480   20.8642 C   0  0  2  0  0  0
  -26.9041  -19.1385   19.9829 C   0  0  0  0  0  0
  -28.2764  -25.5851   21.1385 C   0  0  0  0  0  0
  -29.9181  -15.4323   21.2352 N   0  0  0  0  0  0
  -31.4797  -12.4794   19.1063 H   0  0  0  0  0  0
  -30.3828  -11.3208   19.8035 H   0  0  0  0  0  0
  -29.7444  -11.7952   17.4238 H   0  0  0  0  0  0
  -29.6571  -13.5055   17.7624 H   0  0  0  0  0  0
  -27.8313  -11.3139   18.8015 H   0  0  0  0  0  0
  -27.3736  -12.6521   17.7843 H   0  0  0  0  0  0
  -27.7143  -14.2507   19.5909 H   0  0  0  0  0  0
  -28.6928  -11.9110   21.2953 H   0  0  0  0  0  0
  -28.4492  -13.5159   21.8934 H   0  0  0  0  0  0
  -25.2718   -9.5688   22.4771 H   0  0  0  0  0  0
  -23.9984   -7.4614   22.7456 H   0  0  0  0  0  0
  -21.0815   -8.8772   19.8936 H   0  0  0  0  0  0
  -22.3665  -10.9672   19.6166 H   0  0  0  0  0  0
  -21.1989   -7.6145   23.9735 H   0  0  0  0  0  0
  -21.1448   -6.0493   25.9087 H   0  0  0  0  0  0
  -22.0630   -2.7612   23.2830 H   0  0  0  0  0  0
  -22.4062  -11.9891   22.4746 H   0  0  0  0  0  0
  -21.1102  -13.1313   22.2580 H   0  0  0  0  0  0
  -24.6507  -15.8263   20.4869 H   0  0  0  0  0  0
  -26.2566  -15.6069   20.0114 H   0  0  0  0  0  0
  -26.7143  -32.5499   23.1151 H   0  0  0  0  0  0
  -25.0235  -33.9741   25.0584 H   0  0  0  0  0  0
  -22.6982  -31.3064   21.4058 H   0  0  0  0  0  0
  -23.3805  -35.9534   23.3204 H   0  0  0  0  0  0
  -24.3621  -36.8972   22.2073 H   0  0  0  0  0  0
  -23.7151  -37.6411   23.6704 H   0  0  0  0  0  0
  -26.0664  -31.5937   20.6079 H   0  0  0  0  0  0
  -26.8216  -30.8665   21.9964 H   0  0  0  0  0  0
  -28.1081  -29.0842   21.1780 H   0  0  0  0  0  0
  -26.0695  -25.9506   19.0373 H   0  0  0  0  0  0
  -23.9840  -27.2850   19.0353 H   0  0  0  0  0  0
  -23.7362  -30.5955   19.4035 H   0  0  0  0  0  0
  -22.7450  -29.2428   19.8616 H   0  0  0  0  0  0
  -25.1261  -36.1918   25.0841 H   0  0  0  0  0  0
  -20.9928  -28.3228   24.1414 H   0  0  0  0  0  0
  -20.5631  -26.2289   23.3578 H   0  0  0  0  0  0
  -21.6626  -26.7437   22.1206 H   0  0  0  0  0  0
  -19.6908  -25.6285   21.1224 H   0  0  0  0  0  0
  -19.6690  -27.3171   20.6704 H   0  0  0  0  0  0
  -17.4197  -26.6676   21.3972 H   0  0  0  0  0  0
  -18.0307  -26.0044   22.8956 H   0  0  0  0  0  0
  -19.7947  -30.7236   24.2237 H   0  0  0  0  0  0
  -17.5048  -31.6272   24.5137 H   0  0  0  0  0  0
  -15.5358  -30.2990   23.7695 H   0  0  0  0  0  0
  -15.8639  -28.0815   22.7113 H   0  0  0  0  0  0
  -24.6013  -30.6943   25.7843 H   0  0  0  0  0  0
  -24.8978  -32.2764   26.4973 H   0  0  0  0  0  0
  -25.8220  -30.8805   27.0219 H   0  0  0  0  0  0
  -26.2906  -29.6694   24.1288 H   0  0  0  0  0  0
  -27.4286  -29.7318   25.4553 H   0  0  0  0  0  0
  -27.8686  -30.4322   23.9175 H   0  0  0  0  0  0
  -27.2743  -33.3597   26.2048 H   0  0  0  0  0  0
  -28.3909  -32.6823   25.0284 H   0  0  0  0  0  0
  -28.0785  -31.8413   26.5373 H   0  0  0  0  0  0
  -28.2505  -38.0166   24.7711 H   0  0  0  0  0  0
  -28.1208  -36.2719   24.5999 H   0  0  0  0  0  0
  -27.2363  -37.1058   25.8853 H   0  0  0  0  0  0
  -20.9325  -29.8740   21.6887 H   0  0  0  0  0  0
  -26.0136  -38.2839   24.1605 H   0  0  0  0  0  0
  -31.3151  -19.8522   21.5645 H   0  0  0  0  0  0
  -31.7606  -17.4364   21.6999 H   0  0  0  0  0  0
  -27.7844  -16.6289   20.2732 H   0  0  0  0  0  0
  -30.0844  -22.0543   19.2967 H   0  0  0  0  0  0
  -28.5391  -21.4413   18.7867 H   0  0  0  0  0  0
  -29.6407  -21.4610   22.9468 H   0  0  0  0  0  0
  -30.7450  -22.0648   21.7333 H   0  0  0  0  0  0
  -27.3427  -23.2945   19.9048 H   0  0  0  0  0  0
  -28.5101  -23.9289   18.7796 H   0  0  0  0  0  0
  -29.6372  -23.9362   22.9376 H   0  0  0  0  0  0
  -28.0669  -23.2946   22.5527 H   0  0  0  0  0  0
  -27.8809  -21.2195   21.2250 H   0  0  0  0  0  0
  -30.0659  -24.4902   20.5890 H   0  0  0  0  0  0
  -26.3283  -18.2892   19.6149 H   0  0  0  0  0  0
  -26.9575  -19.8609   19.1693 H   0  0  0  0  0  0
  -26.3375  -19.5757   20.8047 H   0  0  0  0  0  0
  -28.6755  -26.0326   22.0506 H   0  0  0  0  0  0
  -27.2377  -25.3407   21.3711 H   0  0  0  0  0  0
  -29.0790  -15.0158   21.6062 H   0  0  0  0  0  0
  1 25  1  0  0  0
  1 30  2  0  0  0
  1 85  1  0  0  0
  2  3  1  0  0  0
  2 25  1  0  0  0
  2 86  1  0  0  0
  2 87  1  0  0  0
  3  4  1  0  0  0
  3 88  1  0  0  0
  3 89  1  0  0  0
  4  5  1  0  0  0
  4 90  1  0  0  0
  4 91  1  0  0  0
  5  6  1  0  0  0
  5 26  1  0  0  0
  5 92  1  0  0  0
  6 25  1  0  0  0
  6 93  1  0  0  0
  6 94  1  0  0  0
  7  8  2  0  0  0
  7 26  1  0  0  0
  7 29  1  0  0  0
  8  9  1  0  0  0
  8 22  1  0  0  0
  9 10  1  0  0  0
  9 27  2  0  0  0
 10 11  2  0  0  0
 10 15  1  0  0  0
 11 12  1  0  0  0
 11 95  1  0  0  0
 12 13  2  0  0  0
 12 96  1  0  0  0
 13 14  1  0  0  0
 13 31  1  0  0  0
 14 15  2  0  0  0
 14 97  1  0  0  0
 15 98  1  0  0  0
 16 17  2  0  0  0
 16 21  1  0  0  0
 16 31  1  0  0  0
 17 18  1  0  0  0
 17 99  1  0  0  0
 18 19  2  0  0  0
 18100  1  0  0  0
 19 20  1  0  0  0
 19 24  1  0  0  0
 20 21  2  0  0  0
 20101  1  0  0  0
 21 23  1  0  0  0
 22 28  1  0  0  0
 22 32  2  0  0  0
 26 27  1  0  0  0
 28102  1  0  0  0
 28103  1  0  0  0
 29104  1  0  0  0
 29105  1  0  0  0
 33 34  1  0  0  0
 33 66  1  0  0  0
 33 70  2  0  0  0
 34 36  1  0  0  0
 34 59  1  0  0  0
 34106  1  0  0  0
 35 44  2  0  0  0
 35 45  1  0  0  0
 35 68  1  0  0  0
 36 56  1  0  0  0
 36107  1  0  0  0
 37 39  1  0  0  0
 37 47  1  0  0  0
 37 66  1  0  0  0
 37108  1  0  0  0
 38 43  2  0  0  0
 38 46  1  0  0  0
 38 47  1  0  0  0
 39 64  1  0  0  0
 39 67  2  0  0  0
 40 52  1  0  0  0
 40 53  2  0  0  0
 40 58  1  0  0  0
 41109  1  0  0  0
 41110  1  0  0  0
 41111  1  0  0  0
 41 48  1  0  0  0
 42 43  1  0  0  0
 42 66  1  0  0  0
 42112  1  0  0  0
 42113  1  0  0  0
 43 44  1  0  0  0
 44114  1  0  0  0
 45 46  2  0  0  0
 45115  1  0  0  0
 46116  1  0  0  0
 47117  1  0  0  0
 47118  1  0  0  0
 48 56  1  0  0  0
 48 65  1  0  0  0
 48119  1  0  0  0
 49 50  1  0  0  0
 49 53  1  0  0  0
 49 64  1  0  0  0
 49120  1  0  0  0
 50 51  1  0  0  0
 50121  1  0  0  0
 50122  1  0  0  0
 51 52  1  0  0  0
 51123  1  0  0  0
 51124  1  0  0  0
 52125  1  0  0  0
 52126  1  0  0  0
 53 54  1  0  0  0
 54 55  2  0  0  0
 54127  1  0  0  0
 55 57  1  0  0  0
 55128  1  0  0  0
 56 69  2  0  0  0
 57 58  2  0  0  0
 57129  1  0  0  0
 58130  1  0  0  0
 59 60  1  0  0  0
 59 61  1  0  0  0
 59 62  1  0  0  0
 60131  1  0  0  0
 60132  1  0  0  0
 60133  1  0  0  0
 61134  1  0  0  0
 61135  1  0  0  0
 61136  1  0  0  0
 62137  1  0  0  0
 62138  1  0  0  0
 62139  1  0  0  0
 63 65  1  0  0  0
 63140  1  0  0  0
 63141  1  0  0  0
 63142  1  0  0  0
 64143  1  0  0  0
 65144  1  0  0  0
 68 84  1  0  0  0
 71 72  2  0  0  0
 71 74  1  0  0  0
 71145  1  0  0  0
 72 76  1  0  0  0
 72146  1  0  0  0
 73 75  1  0  0  0
 73 76  2  0  0  0
 73147  1  0  0  0
 74 75  2  0  0  0
 74 81  1  0  0  0
 75 83  1  0  0  0
 76 85  1  0  0  0
 77 79  1  0  0  0
 77 81  1  0  0  0
 77148  1  0  0  0
 77149  1  0  0  0
 78 80  1  0  0  0
 78 81  1  0  0  0
 78150  1  0  0  0
 78151  1  0  0  0
 79 82  1  0  0  0
 79152  1  0  0  0
 79153  1  0  0  0
 80 82  1  0  0  0
 80154  1  0  0  0
 80155  1  0  0  0
 81156  1  0  0  0
 82 84  1  0  0  0
 82157  1  0  0  0
 83158  1  0  0  0
 83159  1  0  0  0
 83160  1  0  0  0
 84161  1  0  0  0
 84162  1  0  0  0
 85163  1  0  0  0
M  ISO  4   1 100  68 101  84 101  85 100
M  END
> <chiral flag>
0

> <version>
0

> <s_m_source_file>
/data/baiqing/PycharmProjects/Reinvent-master-3.2/result/LINK_invent/BTK/process_docking_weight1_custom_product_contain_oxygen_bond_distance_aromatic_linkinvent_7_9_3/rearranged_h_0105.sdf

> <i_m_source_file_index>
35

> <r_mmod_Potential_Energy-OPLS-2005>
41.1947784423828

> <r_mmod_Stretch_Energy-OPLS-2005>
45.4956169128418

> <r_mmod_Bend_Energy-OPLS-2005>
108.557884216309

> <r_mmod_Torsional_Energy-OPLS-2005>
280.417938232422

> <r_mmod_Improper_Torsional_Energy-OPLS-2005>
5.95006418228149

> <r_mmod_Van_der_Waal_Energy-OPLS-2005>
145.679092407227

> <r_mmod_Electrostatic_Energy-OPLS-2005>
-365.080932617188

> <r_mmod_Solvation_Energy-OPLS-2005>
-197.568450927734

> <b_mmod_Minimization_Converged-OPLS-2005>
0

> <r_mmod_RMS_Derivative-OPLS-2005>
2.39866662025452

$$$$
35
                    3D
 Structure written by MMmdl.
150158  0  0  1  0            999 V2000
  -30.5474  -14.9884   20.3640 C   0  0  0  0  0  0
  -30.4509  -12.6060   19.4934 C   0  0  0  0  0  0
  -29.5288  -12.5296   18.2548 C   0  0  0  0  0  0
  -28.0636  -12.3082   18.6738 C   0  0  0  0  0  0
  -27.6349  -13.2486   19.8301 C   0  0  2  0  0  0
  -28.6853  -13.3084   20.9639 C   0  0  0  0  0  0
  -25.2503  -13.8233   20.5699 C   0  0  0  0  0  0
  -24.1810  -13.0456   20.9213 C   0  0  0  0  0  0
  -24.6427  -11.6944   20.8735 C   0  0  0  0  0  0
  -23.9095  -10.4315   21.0380 C   0  0  0  0  0  0
  -24.3636   -9.4220   21.9153 C   0  0  0  0  0  0
  -23.6302   -8.2258   22.0748 C   0  0  0  0  0  0
  -22.4272   -8.0296   21.3544 C   0  0  0  0  0  0
  -21.9893   -9.0280   20.4641 C   0  0  0  0  0  0
  -22.7256  -10.2148   20.3049 C   0  0  0  0  0  0
  -21.6858   -6.0725   22.5266 C   0  0  0  0  0  0
  -21.4034   -6.5627   23.8208 C   0  0  0  0  0  0
  -21.3664   -5.6774   24.9159 C   0  0  0  0  0  0
  -21.6035   -4.3040   24.7207 C   0  0  0  0  0  0
  -21.8823   -3.8135   23.4329 C   0  0  0  0  0  0
  -21.9206   -4.6949   22.3380 C   0  0  0  0  0  0
  -22.7828  -13.5221   21.1846 C   0  0  0  0  0  0
  -22.1669   -4.2139   21.0953 F   0  0  0  0  0  0
  -21.5615   -3.4528   25.7719 F   0  0  0  0  0  0
  -29.9635  -13.7164   20.3588 N   0  0  0  0  0  0
  -26.2929  -12.9461   20.3218 N   0  0  0  0  0  0
  -25.9357  -11.6587   20.5710 N   0  0  0  0  0  0
  -22.0483  -12.8240   22.0417 N   0  0  0  0  0  0
  -25.4176  -15.1970   20.4092 N   0  0  0  0  0  0
  -31.7484  -15.0612   20.0934 O   0  0  0  0  0  0
  -21.6641   -6.8881   21.4238 O   0  0  0  0  0  0
  -22.3492  -14.5515   20.6665 O   0  0  0  0  0  0
  -24.6476  -31.8387   23.1845 C   0  0  0  0  0  0
  -25.9241  -32.4652   23.8266 C   0  0  1  0  0  0
  -27.2334  -27.1282   20.1355 C   0  0  0  0  0  0
  -25.5995  -33.8456   24.2218 N   0  0  0  0  0  0
  -23.4517  -30.4608   21.5288 C   0  0  2  0  0  0
  -24.9052  -28.8802   20.1088 C   0  0  0  0  0  0
  -22.7600  -29.4551   22.4813 C   0  0  0  0  0  0
  -18.0327  -28.1400   22.8436 C   0  0  0  0  0  0
  -24.1507  -36.7247   23.2640 C   0  0  0  0  0  0
  -26.0099  -30.7084   21.3846 C   0  0  0  0  0  0
  -26.0851  -29.3158   20.7296 C   0  0  0  0  0  0
  -27.2504  -28.4553   20.7314 C   0  0  0  0  0  0
  -26.0292  -26.8008   19.4723 C   0  0  0  0  0  0
  -24.8888  -27.6318   19.4708 C   0  0  0  0  0  0
  -23.6809  -29.7839   20.1514 C   0  0  0  0  0  0
  -25.4126  -36.3005   24.0318 C   0  0  1  0  0  0
  -20.5937  -28.3728   23.1177 C   0  0  2  0  0  0
  -20.6796  -26.9422   22.5365 C   0  0  0  0  0  0
  -19.5778  -26.6377   21.5165 C   0  0  0  0  0  0
  -18.1977  -26.7933   22.1606 C   0  0  0  0  0  0
  -19.1583  -28.8884   23.2817 C   0  0  0  0  0  0
  -18.9497  -30.1472   23.8853 C   0  0  0  0  0  0
  -17.6484  -30.6576   24.0548 C   0  0  0  0  0  0
  -25.9061  -34.9365   23.5075 C   0  0  0  0  0  0
  -16.5376  -29.9061   23.6322 C   0  0  0  0  0  0
  -16.7306  -28.6492   23.0320 C   0  0  0  0  0  0
  -26.4569  -31.6493   25.0685 C   0  0  0  0  0  0
  -25.3807  -31.3693   26.1442 C   0  0  0  0  0  0
  -27.0356  -30.2853   24.6275 C   0  0  0  0  0  0
  -27.6161  -32.4212   25.7428 C   0  0  0  0  0  0
  -27.5577  -37.1796   24.8480 C   0  0  0  0  0  0
  -21.4280  -29.3050   22.3554 N   0  0  0  0  0  0
  -26.4310  -37.3689   23.9390 N   0  0  0  0  0  0
  -24.7233  -31.0231   22.0881 N   0  0  0  0  0  0
  -23.4249  -28.8103   23.2954 O   0  0  0  0  0  0
  -28.2558  -26.1012   20.1599 O   0  0  0  0  0  0
  -26.5613  -34.8870   22.4634 O   0  0  0  0  0  0
  -23.5588  -32.1288   23.7045 O   0  0  0  0  0  0
  -28.4850  -19.9231   20.3704 C   0  0  0  0  0  0
  -28.5831  -18.4745   20.4880 C   0  0  0  0  0  0
  -30.8711  -18.5555   19.9787 C   0  0  0  0  0  0
  -29.5673  -20.8110   20.0505 C   0  0  0  0  0  0
  -30.7851  -20.0176   19.8516 C   0  0  0  0  0  0
  -29.7731  -17.6820   20.3126 C   0  0  0  0  0  0
  -28.2987  -23.3686   20.4791 C   0  0  0  0  0  0
  -27.8846  -24.7379   20.5546 C   0  0  0  0  0  0
  -29.4436  -22.4485   19.9009 C   0  0  0  0  0  0
  -32.0916  -20.7295   19.4909 C   0  0  0  0  0  0
  -29.7206  -16.1449   20.4859 N   0  0  0  0  0  0
  -30.3252  -23.0377   19.2730 O   0  0  0  0  0  0
  -31.4823  -12.7645   19.1783 H   0  0  0  0  0  0
  -30.4488  -11.6628   20.0424 H   0  0  0  0  0  0
  -29.8485  -11.7261   17.5904 H   0  0  0  0  0  0
  -29.6128  -13.4528   17.6800 H   0  0  0  0  0  0
  -27.9642  -11.2698   18.9914 H   0  0  0  0  0  0
  -27.4056  -12.4308   17.8128 H   0  0  0  0  0  0
  -27.5849  -14.2405   19.3818 H   0  0  0  0  0  0
  -28.7803  -12.3447   21.4690 H   0  0  0  0  0  0
  -28.3832  -14.0300   21.7247 H   0  0  0  0  0  0
  -25.2784   -9.5671   22.4719 H   0  0  0  0  0  0
  -24.0001   -7.4640   22.7468 H   0  0  0  0  0  0
  -21.0829   -8.8808   19.8949 H   0  0  0  0  0  0
  -22.3720  -10.9681   19.6161 H   0  0  0  0  0  0
  -21.2045   -7.6131   23.9695 H   0  0  0  0  0  0
  -21.1469   -6.0501   25.9052 H   0  0  0  0  0  0
  -22.0605   -2.7596   23.2831 H   0  0  0  0  0  0
  -22.4090  -11.9934   22.4871 H   0  0  0  0  0  0
  -21.1094  -13.1277   22.2598 H   0  0  0  0  0  0
  -24.6508  -15.8528   20.5118 H   0  0  0  0  0  0
  -26.2508  -15.6268   20.0297 H   0  0  0  0  0  0
  -26.7311  -32.5284   23.0994 H   0  0  0  0  0  0
  -25.0153  -33.9536   25.0391 H   0  0  0  0  0  0
  -22.7573  -31.2894   21.3707 H   0  0  0  0  0  0
  -23.3723  -35.9626   23.3318 H   0  0  0  0  0  0
  -24.3617  -36.8824   22.2054 H   0  0  0  0  0  0
  -23.7327  -37.6484   23.6649 H   0  0  0  0  0  0
  -26.1641  -31.4595   20.6080 H   0  0  0  0  0  0
  -26.8823  -30.7681   22.0222 H   0  0  0  0  0  0
  -28.1478  -28.7811   21.2391 H   0  0  0  0  0  0
  -25.9520  -25.8442   18.9757 H   0  0  0  0  0  0
  -23.9892  -27.2913   18.9759 H   0  0  0  0  0  0
  -23.8209  -30.5561   19.3941 H   0  0  0  0  0  0
  -22.7947  -29.2270   19.8418 H   0  0  0  0  0  0
  -25.1307  -36.1825   25.0805 H   0  0  0  0  0  0
  -21.0043  -28.3318   24.1284 H   0  0  0  0  0  0
  -20.5629  -26.2340   23.3588 H   0  0  0  0  0  0
  -21.6669  -26.7389   22.1196 H   0  0  0  0  0  0
  -19.6923  -25.6278   21.1217 H   0  0  0  0  0  0
  -19.6673  -27.3144   20.6657 H   0  0  0  0  0  0
  -17.4205  -26.6589   21.4073 H   0  0  0  0  0  0
  -18.0427  -26.0120   22.9053 H   0  0  0  0  0  0
  -19.7975  -30.7310   24.2198 H   0  0  0  0  0  0
  -17.5028  -31.6262   24.5138 H   0  0  0  0  0  0
  -15.5369  -30.2928   23.7683 H   0  0  0  0  0  0
  -15.8714  -28.0790   22.7026 H   0  0  0  0  0  0
  -24.5830  -30.7237   25.7759 H   0  0  0  0  0  0
  -24.9225  -32.2889   26.5094 H   0  0  0  0  0  0
  -25.8120  -30.8642   27.0099 H   0  0  0  0  0  0
  -26.2924  -29.6590   24.1327 H   0  0  0  0  0  0
  -27.3945  -29.7150   25.4858 H   0  0  0  0  0  0
  -27.8880  -30.3991   23.9567 H   0  0  0  0  0  0
  -27.2832  -33.3529   26.2021 H   0  0  0  0  0  0
  -28.3972  -32.6727   25.0232 H   0  0  0  0  0  0
  -28.0853  -31.8312   26.5315 H   0  0  0  0  0  0
  -28.2625  -38.0040   24.7431 H   0  0  0  0  0  0
  -28.1029  -36.2587   24.6424 H   0  0  0  0  0  0
  -27.2301  -37.1598   25.8876 H   0  0  0  0  0  0
  -20.9496  -29.8768   21.6732 H   0  0  0  0  0  0
  -26.0165  -38.2764   24.1300 H   0  0  0  0  0  0
  -27.5036  -20.3562   20.5103 H   0  0  0  0  0  0
  -27.6699  -17.9505   20.7321 H   0  0  0  0  0  0
  -31.8343  -18.0934   19.8110 H   0  0  0  0  0  0
  -27.5955  -22.7358   20.9973 H   0  0  0  0  0  0
  -26.9687  -24.8348   21.1217 H   0  0  0  0  0  0
  -32.9398  -20.0480   19.4071 H   0  0  0  0  0  0
  -32.3500  -21.4627   20.2558 H   0  0  0  0  0  0
  -32.0166  -21.2538   18.5353 H   0  0  0  0  0  0
  -28.7886  -15.8378   20.7199 H   0  0  0  0  0  0
  1 25  1  0  0  0
  1 30  2  0  0  0
  1 81  1  0  0  0
  2  3  1  0  0  0
  2 25  1  0  0  0
  2 83  1  0  0  0
  2 84  1  0  0  0
  3  4  1  0  0  0
  3 85  1  0  0  0
  3 86  1  0  0  0
  4  5  1  0  0  0
  4 87  1  0  0  0
  4 88  1  0  0  0
  5  6  1  0  0  0
  5 26  1  0  0  0
  5 89  1  0  0  0
  6 25  1  0  0  0
  6 90  1  0  0  0
  6 91  1  0  0  0
  7  8  2  0  0  0
  7 26  1  0  0  0
  7 29  1  0  0  0
  8  9  1  0  0  0
  8 22  1  0  0  0
  9 10  1  0  0  0
  9 27  2  0  0  0
 10 11  2  0  0  0
 10 15  1  0  0  0
 11 12  1  0  0  0
 11 92  1  0  0  0
 12 13  2  0  0  0
 12 93  1  0  0  0
 13 14  1  0  0  0
 13 31  1  0  0  0
 14 15  2  0  0  0
 14 94  1  0  0  0
 15 95  1  0  0  0
 16 17  2  0  0  0
 16 21  1  0  0  0
 16 31  1  0  0  0
 17 18  1  0  0  0
 17 96  1  0  0  0
 18 19  2  0  0  0
 18 97  1  0  0  0
 19 20  1  0  0  0
 19 24  1  0  0  0
 20 21  2  0  0  0
 20 98  1  0  0  0
 21 23  1  0  0  0
 22 28  1  0  0  0
 22 32  2  0  0  0
 26 27  1  0  0  0
 28 99  1  0  0  0
 28100  1  0  0  0
 29101  1  0  0  0
 29102  1  0  0  0
 33 34  1  0  0  0
 33 66  1  0  0  0
 33 70  2  0  0  0
 34 36  1  0  0  0
 34 59  1  0  0  0
 34103  1  0  0  0
 35 44  2  0  0  0
 35 45  1  0  0  0
 35 68  1  0  0  0
 36 56  1  0  0  0
 36104  1  0  0  0
 37 39  1  0  0  0
 37 47  1  0  0  0
 37 66  1  0  0  0
 37105  1  0  0  0
 38 43  2  0  0  0
 38 46  1  0  0  0
 38 47  1  0  0  0
 39 64  1  0  0  0
 39 67  2  0  0  0
 40 52  1  0  0  0
 40 53  2  0  0  0
 40 58  1  0  0  0
 41106  1  0  0  0
 41107  1  0  0  0
 41108  1  0  0  0
 41 48  1  0  0  0
 42 43  1  0  0  0
 42 66  1  0  0  0
 42109  1  0  0  0
 42110  1  0  0  0
 43 44  1  0  0  0
 44111  1  0  0  0
 45 46  2  0  0  0
 45112  1  0  0  0
 46113  1  0  0  0
 47114  1  0  0  0
 47115  1  0  0  0
 48 56  1  0  0  0
 48 65  1  0  0  0
 48116  1  0  0  0
 49 50  1  0  0  0
 49 53  1  0  0  0
 49 64  1  0  0  0
 49117  1  0  0  0
 50 51  1  0  0  0
 50118  1  0  0  0
 50119  1  0  0  0
 51 52  1  0  0  0
 51120  1  0  0  0
 51121  1  0  0  0
 52122  1  0  0  0
 52123  1  0  0  0
 53 54  1  0  0  0
 54 55  2  0  0  0
 54124  1  0  0  0
 55 57  1  0  0  0
 55125  1  0  0  0
 56 69  2  0  0  0
 57 58  2  0  0  0
 57126  1  0  0  0
 58127  1  0  0  0
 59 60  1  0  0  0
 59 61  1  0  0  0
 59 62  1  0  0  0
 60128  1  0  0  0
 60129  1  0  0  0
 60130  1  0  0  0
 61131  1  0  0  0
 61132  1  0  0  0
 61133  1  0  0  0
 62134  1  0  0  0
 62135  1  0  0  0
 62136  1  0  0  0
 63 65  1  0  0  0
 63137  1  0  0  0
 63138  1  0  0  0
 63139  1  0  0  0
 64140  1  0  0  0
 65141  1  0  0  0
 68 78  1  0  0  0
 71 72  2  0  0  0
 71 74  1  0  0  0
 71142  1  0  0  0
 72 76  1  0  0  0
 72143  1  0  0  0
 73 75  1  0  0  0
 73 76  2  0  0  0
 73144  1  0  0  0
 74 75  2  0  0  0
 74 79  1  0  0  0
 75 80  1  0  0  0
 76 81  1  0  0  0
 77 78  2  0  0  0
 77 79  1  0  0  0
 77145  1  0  0  0
 78146  1  0  0  0
 79 82  2  0  0  0
 80147  1  0  0  0
 80148  1  0  0  0
 80149  1  0  0  0
 81150  1  0  0  0
M  ISO  4   1 100  68 101  78 101  81 100
M  END
> <chiral flag>
0

> <version>
0

> <s_m_source_file>
/data/baiqing/PycharmProjects/Reinvent-master-3.2/result/LINK_invent/BTK/process_docking_weight1_custom_product_contain_oxygen_bond_distance_aromatic_linkinvent_7_9_3/rearranged_h_0105.sdf

> <i_m_source_file_index>
36

> <r_mmod_Potential_Energy-OPLS-2005>
604.231323242188

> <r_mmod_Stretch_Energy-OPLS-2005>
250.299072265625

> <r_mmod_Bend_Energy-OPLS-2005>
330.389984130859

> <r_mmod_Torsional_Energy-OPLS-2005>
210.625335693359

> <r_mmod_Improper_Torsional_Energy-OPLS-2005>
4.32428979873657

> <r_mmod_Van_der_Waal_Energy-OPLS-2005>
133.135803222656

> <r_mmod_Electrostatic_Energy-OPLS-2005>
-318.781280517578

> <r_mmod_Solvation_Energy-OPLS-2005>
-223.191528320312

> <b_mmod_Minimization_Converged-OPLS-2005>
0

> <r_mmod_RMS_Derivative-OPLS-2005>
4.57500457763672

$$$$
36
                    3D
 Structure written by MMmdl.
160168  0  0  1  0            999 V2000
  -30.7863  -14.3876   20.6295 C   0  0  0  0  0  0
  -30.4019  -12.2869   19.3997 C   0  0  0  0  0  0
  -29.4808  -12.5079   18.1892 C   0  0  0  0  0  0
  -28.0096  -12.3607   18.6160 C   0  0  0  0  0  0
  -27.6601  -13.2108   19.8668 C   0  0  2  0  0  0
  -28.7018  -13.0055   20.9884 C   0  0  0  0  0  0
  -25.2597  -13.8167   20.5689 C   0  0  0  0  0  0
  -24.1855  -13.0430   20.9156 C   0  0  0  0  0  0
  -24.6419  -11.6892   20.8699 C   0  0  0  0  0  0
  -23.9085  -10.4279   21.0389 C   0  0  0  0  0  0
  -24.3629   -9.4194   21.9187 C   0  0  0  0  0  0
  -23.6286   -8.2236   22.0770 C   0  0  0  0  0  0
  -22.4269   -8.0269   21.3553 C   0  0  0  0  0  0
  -21.9904   -9.0255   20.4667 C   0  0  0  0  0  0
  -22.7245  -10.2118   20.3063 C   0  0  0  0  0  0
  -21.6862   -6.0719   22.5284 C   0  0  0  0  0  0
  -21.4021   -6.5631   23.8213 C   0  0  0  0  0  0
  -21.3649   -5.6788   24.9180 C   0  0  0  0  0  0
  -21.6044   -4.3055   24.7234 C   0  0  0  0  0  0
  -21.8810   -3.8134   23.4358 C   0  0  0  0  0  0
  -21.9186   -4.6945   22.3403 C   0  0  0  0  0  0
  -22.7877  -13.5219   21.1812 C   0  0  0  0  0  0
  -22.1658   -4.2138   21.0980 F   0  0  0  0  0  0
  -21.5606   -3.4533   25.7741 F   0  0  0  0  0  0
  -30.0358  -13.2758   20.4210 N   0  0  0  0  0  0
  -26.3026  -12.9359   20.3343 N   0  0  0  0  0  0
  -25.9352  -11.6505   20.5739 N   0  0  0  0  0  0
  -22.0517  -12.8253   22.0386 N   0  0  0  0  0  0
  -25.4312  -15.1892   20.4111 N   0  0  0  0  0  0
  -31.8971  -14.5437   20.1102 O   0  0  0  0  0  0
  -21.6639   -6.8871   21.4244 O   0  0  0  0  0  0
  -22.3559  -14.5517   20.6632 O   0  0  0  0  0  0
  -24.6068  -31.8704   23.2142 C   0  0  0  0  0  0
  -25.8997  -32.4829   23.8406 C   0  0  1  0  0  0
  -27.2525  -27.5032   20.0842 C   0  0  0  0  0  0
  -25.5881  -33.8623   24.2348 N   0  0  0  0  0  0
  -23.3935  -30.4932   21.5486 C   0  0  2  0  0  0
  -24.8460  -28.9573   20.1264 C   0  0  0  0  0  0
  -22.7363  -29.4686   22.4984 C   0  0  0  0  0  0
  -18.0263  -28.1374   22.8496 C   0  0  0  0  0  0
  -24.1490  -36.7313   23.2637 C   0  0  0  0  0  0
  -25.9153  -30.8559   21.3619 C   0  0  0  0  0  0
  -25.9988  -29.4904   20.7182 C   0  0  0  0  0  0
  -27.2044  -28.7640   20.7078 C   0  0  0  0  0  0
  -26.0926  -26.9718   19.4856 C   0  0  0  0  0  0
  -24.8817  -27.6894   19.5182 C   0  0  0  0  0  0
  -23.6050  -29.8166   20.1668 C   0  0  0  0  0  0
  -25.4109  -36.3117   24.0344 C   0  0  1  0  0  0
  -20.5843  -28.3664   23.1316 C   0  0  2  0  0  0
  -20.6767  -26.9399   22.5412 C   0  0  0  0  0  0
  -19.5753  -26.6391   21.5205 C   0  0  0  0  0  0
  -18.1924  -26.7921   22.1615 C   0  0  0  0  0  0
  -19.1508  -28.8841   23.2905 C   0  0  0  0  0  0
  -18.9447  -30.1440   23.8912 C   0  0  0  0  0  0
  -17.6454  -30.6585   24.0570 C   0  0  0  0  0  0
  -25.9028  -34.9480   23.5150 C   0  0  0  0  0  0
  -16.5349  -29.9084   23.6320 C   0  0  0  0  0  0
  -16.7256  -28.6499   23.0347 C   0  0  0  0  0  0
  -26.4460  -31.6579   25.0707 C   0  0  0  0  0  0
  -25.3750  -31.3685   26.1478 C   0  0  0  0  0  0
  -27.0292  -30.3027   24.6058 C   0  0  0  0  0  0
  -27.6046  -32.4281   25.7449 C   0  0  0  0  0  0
  -27.5578  -37.1813   24.8469 C   0  0  0  0  0  0
  -21.4099  -29.3035   22.3724 N   0  0  0  0  0  0
  -26.4298  -37.3803   23.9405 N   0  0  0  0  0  0
  -24.6552  -31.0870   22.1014 N   0  0  0  0  0  0
  -23.4160  -28.8217   23.3002 O   0  0  0  0  0  0
  -28.4363  -26.8223   20.0215 O   0  0  0  0  0  0
  -26.5584  -34.8921   22.4703 O   0  0  0  0  0  0
  -23.5277  -32.1412   23.7589 O   0  0  0  0  0  0
  -29.3417  -18.1893   20.7931 C   0  0  0  0  0  0
  -29.4818  -19.7819   22.4139 C   0  0  0  0  0  0
  -29.0832  -19.5426   21.1281 C   0  0  0  0  0  0
  -30.0547  -17.6721   21.8406 C   0  0  0  0  0  0
  -30.8046  -16.4028   21.8898 C   0  0  0  0  0  0
  -29.2619  -21.5991   19.8651 C   0  0  0  0  0  0
  -30.7537  -18.4971   24.1545 C   0  0  0  0  0  0
  -28.6286  -22.5579   18.8473 C   0  0  0  0  0  0
  -28.8460  -24.0402   19.2225 C   0  0  0  0  0  0
  -28.1320  -24.4712   20.5219 C   0  0  0  0  0  0
  -28.6043  -25.8398   21.0290 C   0  0  0  0  0  0
  -30.1149  -18.6307   22.8566 N   0  0  0  0  0  0
  -28.5721  -20.5048   20.2281 N   0  0  0  0  0  0
  -30.1884  -15.3605   21.3238 N   0  0  0  0  0  0
  -31.9169  -16.3441   22.4301 O   0  0  0  0  0  0
  -30.3777  -21.8625   20.3252 O   0  0  0  0  0  0
  -31.4475  -12.3457   19.0987 H   0  0  0  0  0  0
  -30.2644  -11.2823   19.8013 H   0  0  0  0  0  0
  -29.7162  -11.7879   17.4051 H   0  0  0  0  0  0
  -29.6484  -13.4944   17.7561 H   0  0  0  0  0  0
  -27.8433  -11.3037   18.8303 H   0  0  0  0  0  0
  -27.3480  -12.6069   17.7844 H   0  0  0  0  0  0
  -27.7030  -14.2581   19.5642 H   0  0  0  0  0  0
  -28.6659  -11.9841   21.3659 H   0  0  0  0  0  0
  -28.4645  -13.6342   21.8480 H   0  0  0  0  0  0
  -25.2766   -9.5651   22.4773 H   0  0  0  0  0  0
  -23.9967   -7.4639   22.7490 H   0  0  0  0  0  0
  -21.0833   -8.8769   19.9006 H   0  0  0  0  0  0
  -22.3693  -10.9655   19.6167 H   0  0  0  0  0  0
  -21.2046   -7.6147   23.9719 H   0  0  0  0  0  0
  -21.1480   -6.0526   25.9087 H   0  0  0  0  0  0
  -22.0606   -2.7597   23.2861 H   0  0  0  0  0  0
  -22.4098  -11.9899   22.4778 H   0  0  0  0  0  0
  -21.1163  -13.1324   22.2589 H   0  0  0  0  0  0
  -24.6634  -15.8418   20.5312 H   0  0  0  0  0  0
  -26.2828  -15.6363   20.0950 H   0  0  0  0  0  0
  -26.7075  -32.5598   23.1180 H   0  0  0  0  0  0
  -25.0068  -33.9792   25.0518 H   0  0  0  0  0  0
  -22.6796  -31.3065   21.4024 H   0  0  0  0  0  0
  -23.3749  -35.9650   23.3326 H   0  0  0  0  0  0
  -24.3591  -36.8895   22.2048 H   0  0  0  0  0  0
  -23.7238  -37.6526   23.6626 H   0  0  0  0  0  0
  -26.0214  -31.6240   20.5946 H   0  0  0  0  0  0
  -26.8031  -30.9117   21.9789 H   0  0  0  0  0  0
  -28.0926  -29.1761   21.1656 H   0  0  0  0  0  0
  -26.1310  -26.0136   18.9878 H   0  0  0  0  0  0
  -23.9966  -27.2708   19.0604 H   0  0  0  0  0  0
  -23.7192  -30.5838   19.3998 H   0  0  0  0  0  0
  -22.7362  -29.2268   19.8692 H   0  0  0  0  0  0
  -25.1286  -36.1994   25.0840 H   0  0  0  0  0  0
  -20.9941  -28.3250   24.1438 H   0  0  0  0  0  0
  -20.5679  -26.2277   23.3600 H   0  0  0  0  0  0
  -21.6641  -26.7478   22.1195 H   0  0  0  0  0  0
  -19.6930  -25.6312   21.1215 H   0  0  0  0  0  0
  -19.6687  -27.3218   20.6747 H   0  0  0  0  0  0
  -17.4196  -26.6668   21.4008 H   0  0  0  0  0  0
  -18.0339  -26.0041   22.8997 H   0  0  0  0  0  0
  -19.7933  -30.7242   24.2281 H   0  0  0  0  0  0
  -17.5022  -31.6259   24.5172 H   0  0  0  0  0  0
  -15.5349  -30.3001   23.7639 H   0  0  0  0  0  0
  -15.8656  -28.0829   22.7055 H   0  0  0  0  0  0
  -24.5893  -30.7069   25.7813 H   0  0  0  0  0  0
  -24.8990  -32.2864   26.4948 H   0  0  0  0  0  0
  -25.8122  -30.8816   27.0207 H   0  0  0  0  0  0
  -26.2850  -29.6771   24.1135 H   0  0  0  0  0  0
  -27.4108  -29.7268   25.4491 H   0  0  0  0  0  0
  -27.8644  -30.4339   23.9177 H   0  0  0  0  0  0
  -27.2669  -33.3556   26.2076 H   0  0  0  0  0  0
  -28.3819  -32.6884   25.0252 H   0  0  0  0  0  0
  -28.0757  -31.8379   26.5317 H   0  0  0  0  0  0
  -28.2622  -38.0086   24.7509 H   0  0  0  0  0  0
  -28.1050  -36.2627   24.6315 H   0  0  0  0  0  0
  -27.2302  -37.1485   25.8874 H   0  0  0  0  0  0
  -20.9259  -29.8726   21.6915 H   0  0  0  0  0  0
  -26.0194  -38.2888   24.1398 H   0  0  0  0  0  0
  -29.1556  -17.6806   19.8558 H   0  0  0  0  0  0
  -29.4378  -20.6734   23.0282 H   0  0  0  0  0  0
  -31.8367  -18.4619   24.0289 H   0  0  0  0  0  0
  -30.4143  -17.5839   24.6437 H   0  0  0  0  0  0
  -30.4984  -19.3477   24.7876 H   0  0  0  0  0  0
  -27.5650  -22.3560   18.7151 H   0  0  0  0  0  0
  -29.0981  -22.3691   17.8801 H   0  0  0  0  0  0
  -28.5123  -24.6742   18.3972 H   0  0  0  0  0  0
  -29.9176  -24.2304   19.3146 H   0  0  0  0  0  0
  -28.3141  -23.7468   21.3151 H   0  0  0  0  0  0
  -27.0529  -24.4712   20.3721 H   0  0  0  0  0  0
  -29.6616  -25.8000   21.2905 H   0  0  0  0  0  0
  -28.0803  -26.1169   21.9458 H   0  0  0  0  0  0
  -27.7267  -20.2817   19.7168 H   0  0  0  0  0  0
  -29.1827  -15.3869   21.2931 H   0  0  0  0  0  0
  1 25  1  0  0  0
  1 30  2  0  0  0
  1 84  1  0  0  0
  2  3  1  0  0  0
  2 25  1  0  0  0
  2 87  1  0  0  0
  2 88  1  0  0  0
  3  4  1  0  0  0
  3 89  1  0  0  0
  3 90  1  0  0  0
  4  5  1  0  0  0
  4 91  1  0  0  0
  4 92  1  0  0  0
  5  6  1  0  0  0
  5 26  1  0  0  0
  5 93  1  0  0  0
  6 25  1  0  0  0
  6 94  1  0  0  0
  6 95  1  0  0  0
  7  8  2  0  0  0
  7 26  1  0  0  0
  7 29  1  0  0  0
  8  9  1  0  0  0
  8 22  1  0  0  0
  9 10  1  0  0  0
  9 27  2  0  0  0
 10 11  2  0  0  0
 10 15  1  0  0  0
 11 12  1  0  0  0
 11 96  1  0  0  0
 12 13  2  0  0  0
 12 97  1  0  0  0
 13 14  1  0  0  0
 13 31  1  0  0  0
 14 15  2  0  0  0
 14 98  1  0  0  0
 15 99  1  0  0  0
 16 17  2  0  0  0
 16 21  1  0  0  0
 16 31  1  0  0  0
 17 18  1  0  0  0
 17100  1  0  0  0
 18 19  2  0  0  0
 18101  1  0  0  0
 19 20  1  0  0  0
 19 24  1  0  0  0
 20 21  2  0  0  0
 20102  1  0  0  0
 21 23  1  0  0  0
 22 28  1  0  0  0
 22 32  2  0  0  0
 26 27  1  0  0  0
 28103  1  0  0  0
 28104  1  0  0  0
 29105  1  0  0  0
 29106  1  0  0  0
 33 34  1  0  0  0
 33 66  1  0  0  0
 33 70  2  0  0  0
 34 36  1  0  0  0
 34 59  1  0  0  0
 34107  1  0  0  0
 35 44  2  0  0  0
 35 45  1  0  0  0
 35 68  1  0  0  0
 36 56  1  0  0  0
 36108  1  0  0  0
 37 39  1  0  0  0
 37 47  1  0  0  0
 37 66  1  0  0  0
 37109  1  0  0  0
 38 43  2  0  0  0
 38 46  1  0  0  0
 38 47  1  0  0  0
 39 64  1  0  0  0
 39 67  2  0  0  0
 40 52  1  0  0  0
 40 53  2  0  0  0
 40 58  1  0  0  0
 41110  1  0  0  0
 41111  1  0  0  0
 41112  1  0  0  0
 41 48  1  0  0  0
 42 43  1  0  0  0
 42 66  1  0  0  0
 42113  1  0  0  0
 42114  1  0  0  0
 43 44  1  0  0  0
 44115  1  0  0  0
 45 46  2  0  0  0
 45116  1  0  0  0
 46117  1  0  0  0
 47118  1  0  0  0
 47119  1  0  0  0
 48 56  1  0  0  0
 48 65  1  0  0  0
 48120  1  0  0  0
 49 50  1  0  0  0
 49 53  1  0  0  0
 49 64  1  0  0  0
 49121  1  0  0  0
 50 51  1  0  0  0
 50122  1  0  0  0
 50123  1  0  0  0
 51 52  1  0  0  0
 51124  1  0  0  0
 51125  1  0  0  0
 52126  1  0  0  0
 52127  1  0  0  0
 53 54  1  0  0  0
 54 55  2  0  0  0
 54128  1  0  0  0
 55 57  1  0  0  0
 55129  1  0  0  0
 56 69  2  0  0  0
 57 58  2  0  0  0
 57130  1  0  0  0
 58131  1  0  0  0
 59 60  1  0  0  0
 59 61  1  0  0  0
 59 62  1  0  0  0
 60132  1  0  0  0
 60133  1  0  0  0
 60134  1  0  0  0
 61135  1  0  0  0
 61136  1  0  0  0
 61137  1  0  0  0
 62138  1  0  0  0
 62139  1  0  0  0
 62140  1  0  0  0
 63 65  1  0  0  0
 63141  1  0  0  0
 63142  1  0  0  0
 63143  1  0  0  0
 64144  1  0  0  0
 65145  1  0  0  0
 68 81  1  0  0  0
 71 73  1  0  0  0
 71 74  2  0  0  0
 71146  1  0  0  0
 72 73  2  0  0  0
 72 82  1  0  0  0
 72147  1  0  0  0
 73 83  1  0  0  0
 74 75  1  0  0  0
 74 82  1  0  0  0
 75 84  1  0  0  0
 75 85  2  0  0  0
 76 78  1  0  0  0
 76 83  1  0  0  0
 76 86  2  0  0  0
 77 82  1  0  0  0
 77148  1  0  0  0
 77149  1  0  0  0
 77150  1  0  0  0
 78 79  1  0  0  0
 78151  1  0  0  0
 78152  1  0  0  0
 79 80  1  0  0  0
 79153  1  0  0  0
 79154  1  0  0  0
 80 81  1  0  0  0
 80155  1  0  0  0
 80156  1  0  0  0
 81157  1  0  0  0
 81158  1  0  0  0
 83159  1  0  0  0
 84160  1  0  0  0
M  ISO  4   1 100  68 101  81 101  84 100
M  END
> <chiral flag>
0

> <version>
0

> <s_m_source_file>
/data/baiqing/PycharmProjects/Reinvent-master-3.2/result/LINK_invent/BTK/process_docking_weight1_custom_product_contain_oxygen_bond_distance_aromatic_linkinvent_7_9_3/rearranged_h_0105.sdf

> <i_m_source_file_index>
37

> <r_mmod_Potential_Energy-OPLS-2005>
-123.510833740234

> <r_mmod_Stretch_Energy-OPLS-2005>
30.0597991943359

> <r_mmod_Bend_Energy-OPLS-2005>
94.5462265014648

> <r_mmod_Torsional_Energy-OPLS-2005>
299.051239013672

> <r_mmod_Improper_Torsional_Energy-OPLS-2005>
4.2418041229248

> <r_mmod_Van_der_Waal_Energy-OPLS-2005>
143.635177612305

> <r_mmod_Electrostatic_Energy-OPLS-2005>
-458.392150878906

> <r_mmod_Solvation_Energy-OPLS-2005>
-247.497970581055

> <b_mmod_Minimization_Converged-OPLS-2005>
0

> <r_mmod_RMS_Derivative-OPLS-2005>
4.09156847000122

$$$$
37
                    3D
 Structure written by MMmdl.
158166  0  0  1  0            999 V2000
  -30.7122  -14.6449   20.5052 C   0  0  0  0  0  0
  -30.4103  -12.3981   19.4825 C   0  0  0  0  0  0
  -29.5089  -12.4953   18.2388 C   0  0  0  0  0  0
  -28.0323  -12.3285   18.6450 C   0  0  0  0  0  0
  -27.6409  -13.2294   19.8491 C   0  0  2  0  0  0
  -28.6846  -13.1706   20.9881 C   0  0  0  0  0  0
  -25.2487  -13.8192   20.5652 C   0  0  0  0  0  0
  -24.1785  -13.0443   20.9190 C   0  0  0  0  0  0
  -24.6382  -11.6924   20.8753 C   0  0  0  0  0  0
  -23.9058  -10.4308   21.0420 C   0  0  0  0  0  0
  -24.3614   -9.4223   21.9194 C   0  0  0  0  0  0
  -23.6293   -8.2249   22.0754 C   0  0  0  0  0  0
  -22.4274   -8.0287   21.3547 C   0  0  0  0  0  0
  -21.9914   -9.0253   20.4642 C   0  0  0  0  0  0
  -22.7232  -10.2140   20.3058 C   0  0  0  0  0  0
  -21.6854   -6.0743   22.5287 C   0  0  0  0  0  0
  -21.4011   -6.5642   23.8221 C   0  0  0  0  0  0
  -21.3670   -5.6791   24.9175 C   0  0  0  0  0  0
  -21.6059   -4.3052   24.7227 C   0  0  0  0  0  0
  -21.8810   -3.8154   23.4336 C   0  0  0  0  0  0
  -21.9187   -4.6971   22.3399 C   0  0  0  0  0  0
  -22.7807  -13.5231   21.1854 C   0  0  0  0  0  0
  -22.1648   -4.2162   21.0980 F   0  0  0  0  0  0
  -21.5640   -3.4533   25.7737 F   0  0  0  0  0  0
  -29.9932  -13.4794   20.4006 N   0  0  0  0  0  0
  -26.2921  -12.9397   20.3261 N   0  0  0  0  0  0
  -25.9315  -11.6547   20.5771 N   0  0  0  0  0  0
  -22.0449  -12.8233   22.0414 N   0  0  0  0  0  0
  -25.4190  -15.1907   20.4031 N   0  0  0  0  0  0
  -31.8976  -14.6342   20.1670 O   0  0  0  0  0  0
  -21.6642   -6.8883   21.4246 O   0  0  0  0  0  0
  -22.3490  -14.5546   20.6713 O   0  0  0  0  0  0
  -24.6287  -31.8596   23.2013 C   0  0  0  0  0  0
  -25.9146  -32.4760   23.8339 C   0  0  1  0  0  0
  -27.2115  -27.3058   20.1346 C   0  0  0  0  0  0
  -25.5986  -33.8560   24.2276 N   0  0  0  0  0  0
  -23.4202  -30.4876   21.5412 C   0  0  2  0  0  0
  -24.8660  -28.9428   20.1048 C   0  0  0  0  0  0
  -22.7480  -29.4651   22.4890 C   0  0  0  0  0  0
  -18.0302  -28.1394   22.8487 C   0  0  0  0  0  0
  -24.1496  -36.7298   23.2632 C   0  0  0  0  0  0
  -25.9619  -30.7897   21.3731 C   0  0  0  0  0  0
  -26.0345  -29.4149   20.7191 C   0  0  0  0  0  0
  -27.2117  -28.6075   20.7267 C   0  0  0  0  0  0
  -26.0317  -26.9026   19.4705 C   0  0  0  0  0  0
  -24.8679  -27.6927   19.4684 C   0  0  0  0  0  0
  -23.6364  -29.8264   20.1541 C   0  0  0  0  0  0
  -25.4115  -36.3061   24.0318 C   0  0  1  0  0  0
  -20.5906  -28.3708   23.1267 C   0  0  2  0  0  0
  -20.6801  -26.9431   22.5399 C   0  0  0  0  0  0
  -19.5768  -26.6406   21.5205 C   0  0  0  0  0  0
  -18.1949  -26.7944   22.1618 C   0  0  0  0  0  0
  -19.1551  -28.8865   23.2874 C   0  0  0  0  0  0
  -18.9472  -30.1467   23.8878 C   0  0  0  0  0  0
  -17.6464  -30.6581   24.0580 C   0  0  0  0  0  0
  -25.9058  -34.9435   23.5081 C   0  0  0  0  0  0
  -16.5361  -29.9078   23.6339 C   0  0  0  0  0  0
  -16.7283  -28.6513   23.0335 C   0  0  0  0  0  0
  -26.4528  -31.6533   25.0695 C   0  0  0  0  0  0
  -25.3777  -31.3677   26.1432 C   0  0  0  0  0  0
  -27.0340  -30.2942   24.6129 C   0  0  0  0  0  0
  -27.6083  -32.4249   25.7483 C   0  0  0  0  0  0
  -27.5573  -37.1802   24.8464 C   0  0  0  0  0  0
  -21.4192  -29.3063   22.3644 N   0  0  0  0  0  0
  -26.4283  -37.3770   23.9406 N   0  0  0  0  0  0
  -24.6891  -31.0627   22.0955 N   0  0  0  0  0  0
  -23.4200  -28.8218   23.2994 O   0  0  0  0  0  0
  -28.2983  -26.4155   20.1923 O   0  0  0  0  0  0
  -26.5595  -34.8905   22.4628 O   0  0  0  0  0  0
  -23.5459  -32.1403   23.7335 O   0  0  0  0  0  0
  -30.6577  -19.6080   21.3148 C   0  0  0  0  0  0
  -30.1420  -20.9237   21.1341 C   0  0  0  0  0  0
  -28.7604  -18.6579   20.1985 C   0  0  0  0  0  0
  -29.9939  -18.4297   20.8577 C   0  0  0  0  0  0
  -28.9071  -21.1491   20.4832 C   0  0  0  0  0  0
  -28.2205  -19.9824   20.0138 C   0  0  0  0  0  0
  -30.6807  -17.0469   21.0014 C   0  0  0  0  0  0
  -27.9717  -25.1153   22.2077 C   0  0  0  0  0  0
  -26.2738  -19.0777   18.9268 C   0  0  0  0  0  0
  -28.9472  -23.8035   20.2368 C   0  0  0  0  0  0
  -28.0133  -25.0321   20.6744 C   0  0  2  0  0  0
  -28.3045  -22.4452   20.3247 N   0  0  0  0  0  0
  -30.0610  -15.8384   20.7565 N   0  0  0  0  0  0
  -31.8555  -17.0888   21.3904 O   0  0  0  0  0  0
  -27.0229  -20.2072   19.3615 O   0  0  0  0  0  0
  -31.4607  -12.4600   19.1935 H   0  0  0  0  0  0
  -30.2948  -11.4281   19.9696 H   0  0  0  0  0  0
  -29.7924  -11.7361   17.5082 H   0  0  0  0  0  0
  -29.6552  -13.4626   17.7559 H   0  0  0  0  0  0
  -27.8813  -11.2787   18.9016 H   0  0  0  0  0  0
  -27.3820  -12.5290   17.7923 H   0  0  0  0  0  0
  -27.6367  -14.2484   19.4642 H   0  0  0  0  0  0
  -28.7007  -12.1822   21.4502 H   0  0  0  0  0  0
  -28.4296  -13.8766   21.7801 H   0  0  0  0  0  0
  -25.2752   -9.5717   22.4765 H   0  0  0  0  0  0
  -24.0026   -7.4644   22.7464 H   0  0  0  0  0  0
  -21.0857   -8.8755   19.8934 H   0  0  0  0  0  0
  -22.3689  -10.9671   19.6166 H   0  0  0  0  0  0
  -21.1998   -7.6144   23.9726 H   0  0  0  0  0  0
  -21.1507   -6.0523   25.9092 H   0  0  0  0  0  0
  -22.0587   -2.7615   23.2833 H   0  0  0  0  0  0
  -22.4053  -11.9892   22.4805 H   0  0  0  0  0  0
  -21.1070  -13.1276   22.2622 H   0  0  0  0  0  0
  -24.6461  -15.8406   20.4990 H   0  0  0  0  0  0
  -26.2646  -15.6271   20.0636 H   0  0  0  0  0  0
  -26.7224  -32.5413   23.1097 H   0  0  0  0  0  0
  -25.0204  -33.9697   25.0473 H   0  0  0  0  0  0
  -22.7161  -31.3090   21.3982 H   0  0  0  0  0  0
  -23.3731  -35.9654   23.3279 H   0  0  0  0  0  0
  -24.3615  -36.8926   22.2053 H   0  0  0  0  0  0
  -23.7264  -37.6510   23.6655 H   0  0  0  0  0  0
  -26.0910  -31.5523   20.6036 H   0  0  0  0  0  0
  -26.8458  -30.8420   21.9971 H   0  0  0  0  0  0
  -28.1014  -28.9579   21.2282 H   0  0  0  0  0  0
  -25.9940  -25.9543   18.9530 H   0  0  0  0  0  0
  -23.9774  -27.3313   18.9707 H   0  0  0  0  0  0
  -23.7594  -30.6056   19.4010 H   0  0  0  0  0  0
  -22.7545  -29.2609   19.8466 H   0  0  0  0  0  0
  -25.1288  -36.1909   25.0809 H   0  0  0  0  0  0
  -21.0006  -28.3289   24.1382 H   0  0  0  0  0  0
  -20.5742  -26.2311   23.3600 H   0  0  0  0  0  0
  -21.6666  -26.7486   22.1162 H   0  0  0  0  0  0
  -19.6940  -25.6326   21.1217 H   0  0  0  0  0  0
  -19.6689  -27.3231   20.6748 H   0  0  0  0  0  0
  -17.4232  -26.6709   21.4007 H   0  0  0  0  0  0
  -18.0335  -26.0068   22.9001 H   0  0  0  0  0  0
  -19.7940  -30.7310   24.2210 H   0  0  0  0  0  0
  -17.5009  -31.6244   24.5215 H   0  0  0  0  0  0
  -15.5358  -30.2970   23.7654 H   0  0  0  0  0  0
  -15.8693  -28.0833   22.7014 H   0  0  0  0  0  0
  -24.5975  -30.6989   25.7798 H   0  0  0  0  0  0
  -24.8959  -32.2841   26.4834 H   0  0  0  0  0  0
  -25.8151  -30.8904   27.0206 H   0  0  0  0  0  0
  -26.2899  -29.6708   24.1166 H   0  0  0  0  0  0
  -27.4051  -29.7185   25.4613 H   0  0  0  0  0  0
  -27.8766  -30.4202   23.9323 H   0  0  0  0  0  0
  -27.2694  -33.3558   26.2031 H   0  0  0  0  0  0
  -28.3930  -32.6774   25.0341 H   0  0  0  0  0  0
  -28.0691  -31.8372   26.5420 H   0  0  0  0  0  0
  -28.2583  -38.0109   24.7502 H   0  0  0  0  0  0
  -28.1071  -36.2637   24.6279 H   0  0  0  0  0  0
  -27.2298  -37.1439   25.8870 H   0  0  0  0  0  0
  -20.9360  -29.8777   21.6858 H   0  0  0  0  0  0
  -26.0145  -38.2836   24.1421 H   0  0  0  0  0  0
  -31.6114  -19.5148   21.8161 H   0  0  0  0  0  0
  -30.7082  -21.7567   21.5274 H   0  0  0  0  0  0
  -28.2460  -17.7885   19.8214 H   0  0  0  0  0  0
  -27.6968  -24.1561   22.6480 H   0  0  0  0  0  0
  -27.2450  -25.8515   22.5513 H   0  0  0  0  0  0
  -28.9469  -25.3938   22.6075 H   0  0  0  0  0  0
  -25.9740  -18.4595   19.7745 H   0  0  0  0  0  0
  -26.8344  -18.4718   18.2131 H   0  0  0  0  0  0
  -25.3643  -19.4058   18.4239 H   0  0  0  0  0  0
  -29.8830  -23.8256   20.7969 H   0  0  0  0  0  0
  -29.2236  -23.9489   19.1913 H   0  0  0  0  0  0
  -27.0145  -24.7411   20.3598 H   0  0  0  0  0  0
  -27.3766  -22.3931   19.9108 H   0  0  0  0  0  0
  -29.0577  -15.8391   20.7030 H   0  0  0  0  0  0
  1 25  1  0  0  0
  1 30  2  0  0  0
  1 83  1  0  0  0
  2  3  1  0  0  0
  2 25  1  0  0  0
  2 86  1  0  0  0
  2 87  1  0  0  0
  3  4  1  0  0  0
  3 88  1  0  0  0
  3 89  1  0  0  0
  4  5  1  0  0  0
  4 90  1  0  0  0
  4 91  1  0  0  0
  5  6  1  0  0  0
  5 26  1  0  0  0
  5 92  1  0  0  0
  6 25  1  0  0  0
  6 93  1  0  0  0
  6 94  1  0  0  0
  7  8  2  0  0  0
  7 26  1  0  0  0
  7 29  1  0  0  0
  8  9  1  0  0  0
  8 22  1  0  0  0
  9 10  1  0  0  0
  9 27  2  0  0  0
 10 11  2  0  0  0
 10 15  1  0  0  0
 11 12  1  0  0  0
 11 95  1  0  0  0
 12 13  2  0  0  0
 12 96  1  0  0  0
 13 14  1  0  0  0
 13 31  1  0  0  0
 14 15  2  0  0  0
 14 97  1  0  0  0
 15 98  1  0  0  0
 16 17  2  0  0  0
 16 21  1  0  0  0
 16 31  1  0  0  0
 17 18  1  0  0  0
 17 99  1  0  0  0
 18 19  2  0  0  0
 18100  1  0  0  0
 19 20  1  0  0  0
 19 24  1  0  0  0
 20 21  2  0  0  0
 20101  1  0  0  0
 21 23  1  0  0  0
 22 28  1  0  0  0
 22 32  2  0  0  0
 26 27  1  0  0  0
 28102  1  0  0  0
 28103  1  0  0  0
 29104  1  0  0  0
 29105  1  0  0  0
 33 34  1  0  0  0
 33 66  1  0  0  0
 33 70  2  0  0  0
 34 36  1  0  0  0
 34 59  1  0  0  0
 34106  1  0  0  0
 35 44  2  0  0  0
 35 45  1  0  0  0
 35 68  1  0  0  0
 36 56  1  0  0  0
 36107  1  0  0  0
 37 39  1  0  0  0
 37 47  1  0  0  0
 37 66  1  0  0  0
 37108  1  0  0  0
 38 43  2  0  0  0
 38 46  1  0  0  0
 38 47  1  0  0  0
 39 64  1  0  0  0
 39 67  2  0  0  0
 40 52  1  0  0  0
 40 53  2  0  0  0
 40 58  1  0  0  0
 41109  1  0  0  0
 41110  1  0  0  0
 41111  1  0  0  0
 41 48  1  0  0  0
 42 43  1  0  0  0
 42 66  1  0  0  0
 42112  1  0  0  0
 42113  1  0  0  0
 43 44  1  0  0  0
 44114  1  0  0  0
 45 46  2  0  0  0
 45115  1  0  0  0
 46116  1  0  0  0
 47117  1  0  0  0
 47118  1  0  0  0
 48 56  1  0  0  0
 48 65  1  0  0  0
 48119  1  0  0  0
 49 50  1  0  0  0
 49 53  1  0  0  0
 49 64  1  0  0  0
 49120  1  0  0  0
 50 51  1  0  0  0
 50121  1  0  0  0
 50122  1  0  0  0
 51 52  1  0  0  0
 51123  1  0  0  0
 51124  1  0  0  0
 52125  1  0  0  0
 52126  1  0  0  0
 53 54  1  0  0  0
 54 55  2  0  0  0
 54127  1  0  0  0
 55 57  1  0  0  0
 55128  1  0  0  0
 56 69  2  0  0  0
 57 58  2  0  0  0
 57129  1  0  0  0
 58130  1  0  0  0
 59 60  1  0  0  0
 59 61  1  0  0  0
 59 62  1  0  0  0
 60131  1  0  0  0
 60132  1  0  0  0
 60133  1  0  0  0
 61134  1  0  0  0
 61135  1  0  0  0
 61136  1  0  0  0
 62137  1  0  0  0
 62138  1  0  0  0
 62139  1  0  0  0
 63 65  1  0  0  0
 63140  1  0  0  0
 63141  1  0  0  0
 63142  1  0  0  0
 64143  1  0  0  0
 65144  1  0  0  0
 68 81  1  0  0  0
 71 72  2  0  0  0
 71 74  1  0  0  0
 71145  1  0  0  0
 72 75  1  0  0  0
 72146  1  0  0  0
 73 74  2  0  0  0
 73 76  1  0  0  0
 73147  1  0  0  0
 74 77  1  0  0  0
 75 76  2  0  0  0
 75 82  1  0  0  0
 76 85  1  0  0  0
 77 83  1  0  0  0
 77 84  2  0  0  0
 78148  1  0  0  0
 78149  1  0  0  0
 78150  1  0  0  0
 78 81  1  0  0  0
 79 85  1  0  0  0
 79151  1  0  0  0
 79152  1  0  0  0
 79153  1  0  0  0
 80 81  1  0  0  0
 80 82  1  0  0  0
 80154  1  0  0  0
 80155  1  0  0  0
 81156  1  0  0  0
 82157  1  0  0  0
 83158  1  0  0  0
M  ISO  4   1 100  68 101  81 101  83 100
M  END
> <chiral flag>
0

> <version>
0

> <s_m_source_file>
/data/baiqing/PycharmProjects/Reinvent-master-3.2/result/LINK_invent/BTK/process_docking_weight1_custom_product_contain_oxygen_bond_distance_aromatic_linkinvent_7_9_3/rearranged_h_0105.sdf

> <i_m_source_file_index>
38

> <r_mmod_Potential_Energy-OPLS-2005>
11.9714088439941

> <r_mmod_Stretch_Energy-OPLS-2005>
88.2947463989258

> <r_mmod_Bend_Energy-OPLS-2005>
167.712905883789

> <r_mmod_Torsional_Energy-OPLS-2005>
236.014007568359

> <r_mmod_Improper_Torsional_Energy-OPLS-2005>
6.61565256118774

> <r_mmod_Van_der_Waal_Energy-OPLS-2005>
163.236129760742

> <r_mmod_Electrostatic_Energy-OPLS-2005>
-475.706329345703

> <r_mmod_Solvation_Energy-OPLS-2005>
-236.161651611328

> <b_mmod_Minimization_Converged-OPLS-2005>
0

> <r_mmod_RMS_Derivative-OPLS-2005>
2.57115197181702

$$$$
38
                    3D
 Structure written by MMmdl.
163172  0  0  1  0            999 V2000
  -30.7294  -14.4783   20.5720 C   0  0  0  0  0  0
  -30.4237  -12.3157   19.4204 C   0  0  0  0  0  0
  -29.4931  -12.5012   18.2050 C   0  0  0  0  0  0
  -28.0172  -12.3601   18.6221 C   0  0  0  0  0  0
  -27.6615  -13.2111   19.8704 C   0  0  2  0  0  0
  -28.7079  -13.0187   20.9931 C   0  0  0  0  0  0
  -25.2596  -13.8162   20.5695 C   0  0  0  0  0  0
  -24.1842  -13.0442   20.9184 C   0  0  0  0  0  0
  -24.6389  -11.6905   20.8723 C   0  0  0  0  0  0
  -23.9041  -10.4292   21.0385 C   0  0  0  0  0  0
  -24.3593   -9.4215   21.9163 C   0  0  0  0  0  0
  -23.6281   -8.2244   22.0739 C   0  0  0  0  0  0
  -22.4262   -8.0272   21.3533 C   0  0  0  0  0  0
  -21.9891   -9.0246   20.4645 C   0  0  0  0  0  0
  -22.7208  -10.2132   20.3049 C   0  0  0  0  0  0
  -21.6864   -6.0723   22.5272 C   0  0  0  0  0  0
  -21.4013   -6.5624   23.8205 C   0  0  0  0  0  0
  -21.3654   -5.6773   24.9167 C   0  0  0  0  0  0
  -21.6041   -4.3031   24.7214 C   0  0  0  0  0  0
  -21.8820   -3.8131   23.4336 C   0  0  0  0  0  0
  -21.9196   -4.6950   22.3395 C   0  0  0  0  0  0
  -22.7869  -13.5256   21.1835 C   0  0  0  0  0  0
  -22.1669   -4.2138   21.0973 F   0  0  0  0  0  0
  -21.5627   -3.4514   25.7725 F   0  0  0  0  0  0
  -30.0371  -13.3138   20.4308 N   0  0  0  0  0  0
  -26.3031  -12.9340   20.3356 N   0  0  0  0  0  0
  -25.9323  -11.6494   20.5759 N   0  0  0  0  0  0
  -22.0487  -12.8276   22.0390 N   0  0  0  0  0  0
  -25.4312  -15.1882   20.4112 N   0  0  0  0  0  0
  -31.8634  -14.6304   20.1071 O   0  0  0  0  0  0
  -21.6642   -6.8862   21.4234 O   0  0  0  0  0  0
  -22.3568  -14.5559   20.6663 O   0  0  0  0  0  0
  -24.6194  -31.8661   23.2120 C   0  0  0  0  0  0
  -25.9079  -32.4807   23.8414 C   0  0  1  0  0  0
  -27.2226  -27.4064   20.0831 C   0  0  0  0  0  0
  -25.5936  -33.8604   24.2326 N   0  0  0  0  0  0
  -23.4065  -30.4964   21.5531 C   0  0  2  0  0  0
  -24.8493  -28.9690   20.1107 C   0  0  0  0  0  0
  -22.7433  -29.4659   22.4967 C   0  0  0  0  0  0
  -18.0276  -28.1380   22.8491 C   0  0  0  0  0  0
  -24.1478  -36.7297   23.2624 C   0  0  0  0  0  0
  -25.9435  -30.8226   21.3723 C   0  0  0  0  0  0
  -26.0161  -29.4600   20.7084 C   0  0  0  0  0  0
  -27.2059  -28.6874   20.6914 C   0  0  0  0  0  0
  -26.0308  -26.9545   19.4611 C   0  0  0  0  0  0
  -24.8531  -27.7166   19.4827 C   0  0  0  0  0  0
  -23.6147  -29.8395   20.1649 C   0  0  0  0  0  0
  -25.4088  -36.3092   24.0341 C   0  0  1  0  0  0
  -20.5872  -28.3665   23.1318 C   0  0  2  0  0  0
  -20.6746  -26.9394   22.5438 C   0  0  0  0  0  0
  -19.5742  -26.6382   21.5212 C   0  0  0  0  0  0
  -18.1912  -26.7935   22.1601 C   0  0  0  0  0  0
  -19.1527  -28.8837   23.2903 C   0  0  0  0  0  0
  -18.9456  -30.1437   23.8913 C   0  0  0  0  0  0
  -17.6458  -30.6588   24.0569 C   0  0  0  0  0  0
  -25.9048  -34.9466   23.5130 C   0  0  0  0  0  0
  -16.5346  -29.9095   23.6329 C   0  0  0  0  0  0
  -16.7265  -28.6513   23.0352 C   0  0  0  0  0  0
  -26.4484  -31.6603   25.0759 C   0  0  0  0  0  0
  -25.3767  -31.3797   26.1550 C   0  0  0  0  0  0
  -27.0261  -30.3007   24.6174 C   0  0  0  0  0  0
  -27.6082  -32.4311   25.7489 C   0  0  0  0  0  0
  -27.5616  -37.1736   24.8406 C   0  0  0  0  0  0
  -21.4156  -29.3031   22.3717 N   0  0  0  0  0  0
  -26.4237  -37.3820   23.9494 N   0  0  0  0  0  0
  -24.6752  -31.0755   22.1031 N   0  0  0  0  0  0
  -23.4209  -28.8183   23.2993 O   0  0  0  0  0  0
  -28.3626  -26.6095   20.1252 O   0  0  0  0  0  0
  -26.5605  -34.8929   22.4689 O   0  0  0  0  0  0
  -23.5377  -32.1418   23.7505 O   0  0  0  0  0  0
  -32.2049  -18.4515   22.0593 C   0  0  0  0  0  0
  -31.3215  -19.5263   21.8385 C   0  0  0  0  0  0
  -31.8021  -17.1272   21.8016 C   0  0  0  0  0  0
  -29.6306  -17.9485   21.0747 C   0  0  0  0  0  0
  -30.0215  -19.2933   21.3317 C   0  0  0  0  0  0
  -30.5056  -16.8564   21.3063 C   0  0  0  0  0  0
  -30.1522  -23.6010   19.5301 C   0  0  0  0  0  0
  -30.4994  -22.1795   20.0354 C   0  0  0  0  0  0
  -28.5326  -22.9179   21.1271 C   0  0  0  0  0  0
  -29.1863  -24.1967   20.5669 C   0  0  2  0  0  0
  -27.8528  -20.2589   22.1552 C   0  0  0  0  0  0
  -28.1169  -25.1849   20.0183 C   0  0  0  0  0  0
  -28.9948  -20.4323   21.1242 C   0  0  1  0  0  0
  -30.0437  -15.5140   21.1011 N   0  0  0  0  0  0
  -29.5503  -21.8361   21.1271 N   0  3  1  0  0  0
  -31.4672  -12.4071   19.1109 H   0  0  0  0  0  0
  -30.3248  -11.3095   19.8302 H   0  0  0  0  0  0
  -29.7324  -11.7698   17.4326 H   0  0  0  0  0  0
  -29.6575  -13.4836   17.7580 H   0  0  0  0  0  0
  -27.8345  -11.3061   18.8316 H   0  0  0  0  0  0
  -27.3613  -12.6190   17.7897 H   0  0  0  0  0  0
  -27.6979  -14.2549   19.5572 H   0  0  0  0  0  0
  -28.6874  -11.9921   21.3607 H   0  0  0  0  0  0
  -28.4707  -13.6423   21.8567 H   0  0  0  0  0  0
  -25.2741   -9.5707   22.4732 H   0  0  0  0  0  0
  -24.0001   -7.4645   22.7458 H   0  0  0  0  0  0
  -21.0812   -8.8751   19.8968 H   0  0  0  0  0  0
  -22.3637  -10.9659   19.6159 H   0  0  0  0  0  0
  -21.2000   -7.6133   23.9704 H   0  0  0  0  0  0
  -21.1475   -6.0498   25.9069 H   0  0  0  0  0  0
  -22.0598   -2.7591   23.2826 H   0  0  0  0  0  0
  -22.4082  -11.9946   22.4812 H   0  0  0  0  0  0
  -21.1110  -13.1333   22.2572 H   0  0  0  0  0  0
  -24.6615  -15.8403   20.5137 H   0  0  0  0  0  0
  -26.2801  -15.6255   20.0757 H   0  0  0  0  0  0
  -26.7151  -32.5499   23.1173 H   0  0  0  0  0  0
  -25.0098  -33.9755   25.0484 H   0  0  0  0  0  0
  -22.6971  -31.3161   21.4187 H   0  0  0  0  0  0
  -23.3794  -35.9564   23.3114 H   0  0  0  0  0  0
  -24.3636  -36.9088   22.2082 H   0  0  0  0  0  0
  -23.7120  -37.6403   23.6746 H   0  0  0  0  0  0
  -26.0670  -31.5941   20.6111 H   0  0  0  0  0  0
  -26.8287  -30.8646   21.9957 H   0  0  0  0  0  0
  -28.1040  -29.0572   21.1666 H   0  0  0  0  0  0
  -25.9749  -26.0032   18.9530 H   0  0  0  0  0  0
  -23.9572  -27.3364   19.0103 H   0  0  0  0  0  0
  -23.7332  -30.6200   19.4127 H   0  0  0  0  0  0
  -22.7357  -29.2684   19.8601 H   0  0  0  0  0  0
  -25.1231  -36.1911   25.0816 H   0  0  0  0  0  0
  -20.9970  -28.3231   24.1439 H   0  0  0  0  0  0
  -20.5613  -26.2277   23.3634 H   0  0  0  0  0  0
  -21.6623  -26.7418   22.1262 H   0  0  0  0  0  0
  -19.6903  -25.6297   21.1229 H   0  0  0  0  0  0
  -19.6701  -27.3200   20.6752 H   0  0  0  0  0  0
  -17.4208  -26.6738   21.3964 H   0  0  0  0  0  0
  -18.0271  -26.0057   22.8968 H   0  0  0  0  0  0
  -19.7931  -30.7236   24.2297 H   0  0  0  0  0  0
  -17.5024  -31.6264   24.5181 H   0  0  0  0  0  0
  -15.5347  -30.3006   23.7637 H   0  0  0  0  0  0
  -15.8667  -28.0836   22.7058 H   0  0  0  0  0  0
  -24.5911  -30.7125   25.7984 H   0  0  0  0  0  0
  -24.8994  -32.2994   26.4956 H   0  0  0  0  0  0
  -25.8162  -30.9053   27.0336 H   0  0  0  0  0  0
  -26.2789  -29.6795   24.1214 H   0  0  0  0  0  0
  -27.3953  -29.7234   25.4660 H   0  0  0  0  0  0
  -27.8685  -30.4256   23.9363 H   0  0  0  0  0  0
  -27.2721  -33.3609   26.2095 H   0  0  0  0  0  0
  -28.3878  -32.6870   25.0299 H   0  0  0  0  0  0
  -28.0764  -31.8413   26.5380 H   0  0  0  0  0  0
  -28.2451  -38.0214   24.7760 H   0  0  0  0  0  0
  -28.1286  -36.2784   24.5788 H   0  0  0  0  0  0
  -27.2434  -37.0868   25.8812 H   0  0  0  0  0  0
  -20.9308  -29.8796   21.6975 H   0  0  0  0  0  0
  -26.0093  -38.2837   24.1722 H   0  0  0  0  0  0
  -33.1959  -18.6420   22.4480 H   0  0  0  0  0  0
  -31.6646  -20.5208   22.0819 H   0  0  0  0  0  0
  -32.4941  -16.3230   22.0083 H   0  0  0  0  0  0
  -28.6332  -17.7532   20.7080 H   0  0  0  0  0  0
  -29.6662  -23.5158   18.5573 H   0  0  0  0  0  0
  -31.0407  -24.2175   19.3885 H   0  0  0  0  0  0
  -31.5184  -22.1533   20.4223 H   0  0  0  0  0  0
  -30.4501  -21.4598   19.2169 H   0  0  0  0  0  0
  -27.7097  -22.6234   20.4726 H   0  0  0  0  0  0
  -28.1211  -23.0833   22.1236 H   0  0  0  0  0  0
  -29.7527  -24.6713   21.3692 H   0  0  0  0  0  0
  -27.4247  -19.2577   22.1069 H   0  0  0  0  0  0
  -27.0194  -20.9401   21.9845 H   0  0  0  0  0  0
  -28.2090  -20.4086   23.1750 H   0  0  0  0  0  0
  -27.2105  -24.9704   20.5884 H   0  0  0  0  0  0
  -27.8960  -24.9296   18.9802 H   0  0  0  0  0  0
  -28.5586  -20.2770   20.1360 H   0  0  0  0  0  0
  -29.0715  -15.3317   21.2997 H   0  0  0  0  0  0
  -30.0636  -21.9460   21.9892 H   0  0  0  0  0  0
  1 25  1  0  0  0
  1 30  2  0  0  0
  1 84  1  0  0  0
  2  3  1  0  0  0
  2 25  1  0  0  0
  2 86  1  0  0  0
  2 87  1  0  0  0
  3  4  1  0  0  0
  3 88  1  0  0  0
  3 89  1  0  0  0
  4  5  1  0  0  0
  4 90  1  0  0  0
  4 91  1  0  0  0
  5  6  1  0  0  0
  5 26  1  0  0  0
  5 92  1  0  0  0
  6 25  1  0  0  0
  6 93  1  0  0  0
  6 94  1  0  0  0
  7  8  2  0  0  0
  7 26  1  0  0  0
  7 29  1  0  0  0
  8  9  1  0  0  0
  8 22  1  0  0  0
  9 10  1  0  0  0
  9 27  2  0  0  0
 10 11  2  0  0  0
 10 15  1  0  0  0
 11 12  1  0  0  0
 11 95  1  0  0  0
 12 13  2  0  0  0
 12 96  1  0  0  0
 13 14  1  0  0  0
 13 31  1  0  0  0
 14 15  2  0  0  0
 14 97  1  0  0  0
 15 98  1  0  0  0
 16 17  2  0  0  0
 16 21  1  0  0  0
 16 31  1  0  0  0
 17 18  1  0  0  0
 17 99  1  0  0  0
 18 19  2  0  0  0
 18100  1  0  0  0
 19 20  1  0  0  0
 19 24  1  0  0  0
 20 21  2  0  0  0
 20101  1  0  0  0
 21 23  1  0  0  0
 22 28  1  0  0  0
 22 32  2  0  0  0
 26 27  1  0  0  0
 28102  1  0  0  0
 28103  1  0  0  0
 29104  1  0  0  0
 29105  1  0  0  0
 33 34  1  0  0  0
 33 66  1  0  0  0
 33 70  2  0  0  0
 34 36  1  0  0  0
 34 59  1  0  0  0
 34106  1  0  0  0
 35 44  2  0  0  0
 35 45  1  0  0  0
 35 68  1  0  0  0
 36 56  1  0  0  0
 36107  1  0  0  0
 37 39  1  0  0  0
 37 47  1  0  0  0
 37 66  1  0  0  0
 37108  1  0  0  0
 38 43  2  0  0  0
 38 46  1  0  0  0
 38 47  1  0  0  0
 39 64  1  0  0  0
 39 67  2  0  0  0
 40 52  1  0  0  0
 40 53  2  0  0  0
 40 58  1  0  0  0
 41109  1  0  0  0
 41110  1  0  0  0
 41111  1  0  0  0
 41 48  1  0  0  0
 42 43  1  0  0  0
 42 66  1  0  0  0
 42112  1  0  0  0
 42113  1  0  0  0
 43 44  1  0  0  0
 44114  1  0  0  0
 45 46  2  0  0  0
 45115  1  0  0  0
 46116  1  0  0  0
 47117  1  0  0  0
 47118  1  0  0  0
 48 56  1  0  0  0
 48 65  1  0  0  0
 48119  1  0  0  0
 49 50  1  0  0  0
 49 53  1  0  0  0
 49 64  1  0  0  0
 49120  1  0  0  0
 50 51  1  0  0  0
 50121  1  0  0  0
 50122  1  0  0  0
 51 52  1  0  0  0
 51123  1  0  0  0
 51124  1  0  0  0
 52125  1  0  0  0
 52126  1  0  0  0
 53 54  1  0  0  0
 54 55  2  0  0  0
 54127  1  0  0  0
 55 57  1  0  0  0
 55128  1  0  0  0
 56 69  2  0  0  0
 57 58  2  0  0  0
 57129  1  0  0  0
 58130  1  0  0  0
 59 60  1  0  0  0
 59 61  1  0  0  0
 59 62  1  0  0  0
 60131  1  0  0  0
 60132  1  0  0  0
 60133  1  0  0  0
 61134  1  0  0  0
 61135  1  0  0  0
 61136  1  0  0  0
 62137  1  0  0  0
 62138  1  0  0  0
 62139  1  0  0  0
 63 65  1  0  0  0
 63140  1  0  0  0
 63141  1  0  0  0
 63142  1  0  0  0
 64143  1  0  0  0
 65144  1  0  0  0
 68 82  1  0  0  0
 71 72  2  0  0  0
 71 73  1  0  0  0
 71145  1  0  0  0
 72 75  1  0  0  0
 72146  1  0  0  0
 73 76  2  0  0  0
 73147  1  0  0  0
 74 75  2  0  0  0
 74 76  1  0  0  0
 74148  1  0  0  0
 75 83  1  0  0  0
 76 84  1  0  0  0
 77 78  1  0  0  0
 77 80  1  0  0  0
 77149  1  0  0  0
 77150  1  0  0  0
 78151  1  0  0  0
 78152  1  0  0  0
 78 85  1  0  0  0
 79 80  1  0  0  0
 79 85  1  0  0  0
 79153  1  0  0  0
 79154  1  0  0  0
 80 82  1  0  0  0
 80155  1  0  0  0
 81156  1  0  0  0
 81157  1  0  0  0
 81158  1  0  0  0
 81 83  1  0  0  0
 82159  1  0  0  0
 82160  1  0  0  0
 83 85  1  0  0  0
 83161  1  0  0  0
 84162  1  0  0  0
 85163  1  0  0  0
M  CHG  1  85   1
M  ISO  4   1 100  68 101  82 101  84 100
M  END
> <chiral flag>
0

> <version>
0

> <s_m_source_file>
/data/baiqing/PycharmProjects/Reinvent-master-3.2/result/LINK_invent/BTK/process_docking_weight1_custom_product_contain_oxygen_bond_distance_aromatic_linkinvent_7_9_3/rearranged_h_0105.sdf

> <i_m_source_file_index>
39

> <r_mmod_Potential_Energy-OPLS-2005>
-70.420768737793

> <r_mmod_Stretch_Energy-OPLS-2005>
45.3724136352539

> <r_mmod_Bend_Energy-OPLS-2005>
125.696922302246

> <r_mmod_Torsional_Energy-OPLS-2005>
290.017913818359

> <r_mmod_Improper_Torsional_Energy-OPLS-2005>
3.81359791755676

> <r_mmod_Van_der_Waal_Energy-OPLS-2005>
164.438980102539

> <r_mmod_Electrostatic_Energy-OPLS-2005>
-270.068237304688

> <r_mmod_Solvation_Energy-OPLS-2005>
-448.358001708984

> <b_mmod_Minimization_Converged-OPLS-2005>
0

> <r_mmod_RMS_Derivative-OPLS-2005>
1.91446197032928

$$$$
39
                    3D
 Structure written by MMmdl.
152160  0  0  1  0            999 V2000
  -30.5793  -14.6903   20.4864 C   0  0  0  0  0  0
  -30.4491  -12.4168   19.4610 C   0  0  0  0  0  0
  -29.5162  -12.5102   18.2301 C   0  0  0  0  0  0
  -28.0370  -12.3372   18.6358 C   0  0  0  0  0  0
  -27.6511  -13.2117   19.8570 C   0  0  2  0  0  0
  -28.6966  -13.0788   20.9855 C   0  0  0  0  0  0
  -25.2569  -13.8145   20.5682 C   0  0  0  0  0  0
  -24.1828  -13.0421   20.9177 C   0  0  0  0  0  0
  -24.6392  -11.6889   20.8732 C   0  0  0  0  0  0
  -23.9057  -10.4279   21.0404 C   0  0  0  0  0  0
  -24.3613   -9.4198   21.9181 C   0  0  0  0  0  0
  -23.6286   -8.2237   22.0753 C   0  0  0  0  0  0
  -22.4268   -8.0274   21.3545 C   0  0  0  0  0  0
  -21.9906   -9.0247   20.4646 C   0  0  0  0  0  0
  -22.7234  -10.2122   20.3051 C   0  0  0  0  0  0
  -21.6845   -6.0734   22.5278 C   0  0  0  0  0  0
  -21.4013   -6.5637   23.8215 C   0  0  0  0  0  0
  -21.3660   -5.6789   24.9178 C   0  0  0  0  0  0
  -21.6046   -4.3052   24.7229 C   0  0  0  0  0  0
  -21.8820   -3.8145   23.4349 C   0  0  0  0  0  0
  -21.9191   -4.6962   22.3403 C   0  0  0  0  0  0
  -22.7852  -13.5221   21.1847 C   0  0  0  0  0  0
  -22.1660   -4.2149   21.0980 F   0  0  0  0  0  0
  -21.5628   -3.4536   25.7743 F   0  0  0  0  0  0
  -30.0099  -13.4399   20.4333 N   0  0  0  0  0  0
  -26.2982  -12.9313   20.3288 N   0  0  0  0  0  0
  -25.9316  -11.6475   20.5734 N   0  0  0  0  0  0
  -22.0494  -12.8216   22.0405 N   0  0  0  0  0  0
  -25.4300  -15.1868   20.4127 N   0  0  0  0  0  0
  -31.7498  -14.8502   20.1256 O   0  0  0  0  0  0
  -21.6634   -6.8873   21.4239 O   0  0  0  0  0  0
  -22.3540  -14.5530   20.6698 O   0  0  0  0  0  0
  -24.6270  -31.8586   23.1999 C   0  0  0  0  0  0
  -25.9112  -32.4773   23.8342 C   0  0  1  0  0  0
  -27.2297  -27.3103   20.1283 C   0  0  0  0  0  0
  -25.5923  -33.8575   24.2271 N   0  0  0  0  0  0
  -23.4222  -30.4792   21.5428 C   0  0  2  0  0  0
  -24.8719  -28.9275   20.1146 C   0  0  0  0  0  0
  -22.7478  -29.4616   22.4936 C   0  0  0  0  0  0
  -18.0285  -28.1389   22.8486 C   0  0  0  0  0  0
  -24.1488  -36.7287   23.2637 C   0  0  0  0  0  0
  -25.9632  -30.7875   21.3714 C   0  0  0  0  0  0
  -26.0406  -29.4120   20.7169 C   0  0  0  0  0  0
  -27.2261  -28.6166   20.7092 C   0  0  0  0  0  0
  -26.0414  -26.8744   19.5067 C   0  0  0  0  0  0
  -24.8742  -27.6642   19.5000 C   0  0  0  0  0  0
  -23.6389  -29.8086   20.1605 C   0  0  0  0  0  0
  -25.4113  -36.3082   24.0329 C   0  0  1  0  0  0
  -20.5887  -28.3698   23.1279 C   0  0  2  0  0  0
  -20.6777  -26.9420   22.5411 C   0  0  0  0  0  0
  -19.5750  -26.6387   21.5215 C   0  0  0  0  0  0
  -18.1929  -26.7931   22.1625 C   0  0  0  0  0  0
  -19.1539  -28.8862   23.2875 C   0  0  0  0  0  0
  -18.9463  -30.1465   23.8890 C   0  0  0  0  0  0
  -17.6461  -30.6591   24.0562 C   0  0  0  0  0  0
  -25.9052  -34.9452   23.5102 C   0  0  0  0  0  0
  -16.5351  -29.9088   23.6333 C   0  0  0  0  0  0
  -16.7273  -28.6506   23.0353 C   0  0  0  0  0  0
  -26.4492  -31.6586   25.0717 C   0  0  0  0  0  0
  -25.3731  -31.3730   26.1452 C   0  0  0  0  0  0
  -27.0324  -30.3004   24.6175 C   0  0  0  0  0  0
  -27.6062  -32.4316   25.7483 C   0  0  0  0  0  0
  -27.5585  -37.1788   24.8458 C   0  0  0  0  0  0
  -21.4193  -29.3046   22.3671 N   0  0  0  0  0  0
  -26.4284  -37.3784   23.9422 N   0  0  0  0  0  0
  -24.6895  -31.0587   22.0952 N   0  0  0  0  0  0
  -23.4191  -28.8162   23.3028 O   0  0  0  0  0  0
  -28.3375  -26.4513   20.1312 O   0  0  0  0  0  0
  -26.5625  -34.8922   22.4672 O   0  0  0  0  0  0
  -23.5431  -32.1393   23.7319 O   0  0  0  0  0  0
  -29.5175  -18.5793   20.4382 C   0  0  0  0  0  0
  -30.8009  -20.0993   21.7461 C   0  0  0  0  0  0
  -30.1345  -17.4645   20.9856 C   0  0  0  0  0  0
  -29.8337  -19.9947   20.8161 C   0  0  0  0  0  0
  -31.1880  -17.6942   21.9863 C   0  0  0  0  0  0
  -28.7383  -23.8335   20.0859 C   0  0  0  0  0  0
  -29.6636  -15.9689   20.7726 C   0  0  0  0  0  0
  -29.0558  -22.5379   20.9543 C   0  0  0  0  0  0
  -28.1595  -25.1329   20.7981 C   0  0  0  0  0  0
  -31.4485  -18.9838   22.2895 N   0  0  0  0  0  0
  -29.1949  -21.1732   20.3129 N   0  0  0  0  0  0
  -31.8017  -16.7983   22.5674 O   0  0  0  0  0  0
  -28.9245  -23.8167   18.8641 O   0  0  0  0  0  0
  -31.4885  -12.5560   19.1586 H   0  0  0  0  0  0
  -30.3997  -11.4231   19.9085 H   0  0  0  0  0  0
  -29.7913  -11.7564   17.4911 H   0  0  0  0  0  0
  -29.6511  -13.4779   17.7445 H   0  0  0  0  0  0
  -27.8784  -11.2839   18.8715 H   0  0  0  0  0  0
  -27.3851  -12.5599   17.7907 H   0  0  0  0  0  0
  -27.6585  -14.2404   19.5033 H   0  0  0  0  0  0
  -28.7194  -12.0553   21.3628 H   0  0  0  0  0  0
  -28.4299  -13.6969   21.8423 H   0  0  0  0  0  0
  -25.2759   -9.5672   22.4753 H   0  0  0  0  0  0
  -23.9994   -7.4631   22.7476 H   0  0  0  0  0  0
  -21.0837   -8.8766   19.8954 H   0  0  0  0  0  0
  -22.3694  -10.9661   19.6159 H   0  0  0  0  0  0
  -21.2006   -7.6145   23.9718 H   0  0  0  0  0  0
  -21.1480   -6.0520   25.9079 H   0  0  0  0  0  0
  -22.0600   -2.7608   23.2853 H   0  0  0  0  0  0
  -22.4108  -11.9875   22.4793 H   0  0  0  0  0  0
  -21.1118  -13.1250   22.2620 H   0  0  0  0  0  0
  -24.6684  -15.8454   20.5347 H   0  0  0  0  0  0
  -26.2896  -15.6283   20.1123 H   0  0  0  0  0  0
  -26.7182  -32.5447   23.1096 H   0  0  0  0  0  0
  -25.0073  -33.9722   25.0418 H   0  0  0  0  0  0
  -22.7160  -31.2993   21.3963 H   0  0  0  0  0  0
  -23.3773  -35.9593   23.3258 H   0  0  0  0  0  0
  -24.3586  -36.8956   22.2061 H   0  0  0  0  0  0
  -23.7207  -37.6459   23.6692 H   0  0  0  0  0  0
  -26.0930  -31.5492   20.6016 H   0  0  0  0  0  0
  -26.8441  -30.8404   22.0000 H   0  0  0  0  0  0
  -28.1269  -28.9863   21.1790 H   0  0  0  0  0  0
  -26.0122  -25.9042   19.0302 H   0  0  0  0  0  0
  -23.9786  -27.2871   19.0259 H   0  0  0  0  0  0
  -23.7570  -30.5827   19.4013 H   0  0  0  0  0  0
  -22.7594  -29.2365   19.8593 H   0  0  0  0  0  0
  -25.1287  -36.1929   25.0821 H   0  0  0  0  0  0
  -20.9979  -28.3281   24.1401 H   0  0  0  0  0  0
  -20.5697  -26.2303   23.3612 H   0  0  0  0  0  0
  -21.6642  -26.7452   22.1197 H   0  0  0  0  0  0
  -19.6911  -25.6297   21.1246 H   0  0  0  0  0  0
  -19.6685  -27.3196   20.6743 H   0  0  0  0  0  0
  -17.4198  -26.6683   21.4025 H   0  0  0  0  0  0
  -18.0323  -26.0074   22.9024 H   0  0  0  0  0  0
  -19.7938  -30.7285   24.2254 H   0  0  0  0  0  0
  -17.5015  -31.6270   24.5167 H   0  0  0  0  0  0
  -15.5355  -30.2987   23.7663 H   0  0  0  0  0  0
  -15.8672  -28.0825   22.7072 H   0  0  0  0  0  0
  -24.5860  -30.7139   25.7767 H   0  0  0  0  0  0
  -24.8979  -32.2905   26.4933 H   0  0  0  0  0  0
  -25.8051  -30.8839   27.0193 H   0  0  0  0  0  0
  -26.2881  -29.6758   24.1219 H   0  0  0  0  0  0
  -27.4032  -29.7265   25.4678 H   0  0  0  0  0  0
  -27.8753  -30.4279   23.9380 H   0  0  0  0  0  0
  -27.2693  -33.3642   26.2022 H   0  0  0  0  0  0
  -28.3888  -32.6831   25.0313 H   0  0  0  0  0  0
  -28.0704  -31.8455   26.5427 H   0  0  0  0  0  0
  -28.2567  -38.0122   24.7568 H   0  0  0  0  0  0
  -28.1119  -36.2657   24.6207 H   0  0  0  0  0  0
  -27.2311  -37.1344   25.8860 H   0  0  0  0  0  0
  -20.9381  -29.8754   21.6863 H   0  0  0  0  0  0
  -26.0164  -38.2848   24.1467 H   0  0  0  0  0  0
  -28.7000  -18.4107   19.7525 H   0  0  0  0  0  0
  -31.1643  -21.0334   22.1511 H   0  0  0  0  0  0
  -28.9371  -16.0008   19.9631 H   0  0  0  0  0  0
  -29.0908  -15.7504   21.6719 H   0  0  0  0  0  0
  -28.2744  -22.4670   21.7115 H   0  0  0  0  0  0
  -29.9712  -22.7608   21.5007 H   0  0  0  0  0  0
  -28.6252  -25.2003   21.7813 H   0  0  0  0  0  0
  -27.1015  -24.9510   20.9869 H   0  0  0  0  0  0
  -32.1618  -19.1621   22.9827 H   0  0  0  0  0  0
  -28.5540  -21.0527   19.5334 H   0  0  0  0  0  0
  1 25  1  0  0  0
  1 30  2  0  0  0
  1 77  1  0  0  0
  2  3  1  0  0  0
  2 25  1  0  0  0
  2 84  1  0  0  0
  2 85  1  0  0  0
  3  4  1  0  0  0
  3 86  1  0  0  0
  3 87  1  0  0  0
  4  5  1  0  0  0
  4 88  1  0  0  0
  4 89  1  0  0  0
  5  6  1  0  0  0
  5 26  1  0  0  0
  5 90  1  0  0  0
  6 25  1  0  0  0
  6 91  1  0  0  0
  6 92  1  0  0  0
  7  8  2  0  0  0
  7 26  1  0  0  0
  7 29  1  0  0  0
  8  9  1  0  0  0
  8 22  1  0  0  0
  9 10  1  0  0  0
  9 27  2  0  0  0
 10 11  2  0  0  0
 10 15  1  0  0  0
 11 12  1  0  0  0
 11 93  1  0  0  0
 12 13  2  0  0  0
 12 94  1  0  0  0
 13 14  1  0  0  0
 13 31  1  0  0  0
 14 15  2  0  0  0
 14 95  1  0  0  0
 15 96  1  0  0  0
 16 17  2  0  0  0
 16 21  1  0  0  0
 16 31  1  0  0  0
 17 18  1  0  0  0
 17 97  1  0  0  0
 18 19  2  0  0  0
 18 98  1  0  0  0
 19 20  1  0  0  0
 19 24  1  0  0  0
 20 21  2  0  0  0
 20 99  1  0  0  0
 21 23  1  0  0  0
 22 28  1  0  0  0
 22 32  2  0  0  0
 26 27  1  0  0  0
 28100  1  0  0  0
 28101  1  0  0  0
 29102  1  0  0  0
 29103  1  0  0  0
 33 34  1  0  0  0
 33 66  1  0  0  0
 33 70  2  0  0  0
 34 36  1  0  0  0
 34 59  1  0  0  0
 34104  1  0  0  0
 35 44  2  0  0  0
 35 45  1  0  0  0
 35 68  1  0  0  0
 36 56  1  0  0  0
 36105  1  0  0  0
 37 39  1  0  0  0
 37 47  1  0  0  0
 37 66  1  0  0  0
 37106  1  0  0  0
 38 43  2  0  0  0
 38 46  1  0  0  0
 38 47  1  0  0  0
 39 64  1  0  0  0
 39 67  2  0  0  0
 40 52  1  0  0  0
 40 53  2  0  0  0
 40 58  1  0  0  0
 41107  1  0  0  0
 41108  1  0  0  0
 41109  1  0  0  0
 41 48  1  0  0  0
 42 43  1  0  0  0
 42 66  1  0  0  0
 42110  1  0  0  0
 42111  1  0  0  0
 43 44  1  0  0  0
 44112  1  0  0  0
 45 46  2  0  0  0
 45113  1  0  0  0
 46114  1  0  0  0
 47115  1  0  0  0
 47116  1  0  0  0
 48 56  1  0  0  0
 48 65  1  0  0  0
 48117  1  0  0  0
 49 50  1  0  0  0
 49 53  1  0  0  0
 49 64  1  0  0  0
 49118  1  0  0  0
 50 51  1  0  0  0
 50119  1  0  0  0
 50120  1  0  0  0
 51 52  1  0  0  0
 51121  1  0  0  0
 51122  1  0  0  0
 52123  1  0  0  0
 52124  1  0  0  0
 53 54  1  0  0  0
 54 55  2  0  0  0
 54125  1  0  0  0
 55 57  1  0  0  0
 55126  1  0  0  0
 56 69  2  0  0  0
 57 58  2  0  0  0
 57127  1  0  0  0
 58128  1  0  0  0
 59 60  1  0  0  0
 59 61  1  0  0  0
 59 62  1  0  0  0
 60129  1  0  0  0
 60130  1  0  0  0
 60131  1  0  0  0
 61132  1  0  0  0
 61133  1  0  0  0
 61134  1  0  0  0
 62135  1  0  0  0
 62136  1  0  0  0
 62137  1  0  0  0
 63 65  1  0  0  0
 63138  1  0  0  0
 63139  1  0  0  0
 63140  1  0  0  0
 64141  1  0  0  0
 65142  1  0  0  0
 68 79  1  0  0  0
 71 73  2  0  0  0
 71 74  1  0  0  0
 71143  1  0  0  0
 72 74  2  0  0  0
 72 80  1  0  0  0
 72144  1  0  0  0
 73 75  1  0  0  0
 73 77  1  0  0  0
 74 81  1  0  0  0
 75 80  1  0  0  0
 75 82  2  0  0  0
 76 78  1  0  0  0
 76 79  1  0  0  0
 76 83  2  0  0  0
 77145  1  0  0  0
 77146  1  0  0  0
 78 81  1  0  0  0
 78147  1  0  0  0
 78148  1  0  0  0
 79149  1  0  0  0
 79150  1  0  0  0
 80151  1  0  0  0
 81152  1  0  0  0
M  ISO  4   1 100  68 101  77 100  79 101
M  END
> <chiral flag>
0

> <version>
0

> <s_m_source_file>
/data/baiqing/PycharmProjects/Reinvent-master-3.2/result/LINK_invent/BTK/process_docking_weight1_custom_product_contain_oxygen_bond_distance_aromatic_linkinvent_7_9_3/rearranged_h_0105.sdf

> <i_m_source_file_index>
40

> <r_mmod_Potential_Energy-OPLS-2005>
-1.81843936443329

> <r_mmod_Stretch_Energy-OPLS-2005>
98.0934143066406

> <r_mmod_Bend_Energy-OPLS-2005>
148.163879394531

> <r_mmod_Torsional_Energy-OPLS-2005>
201.640838623047

> <r_mmod_Improper_Torsional_Energy-OPLS-2005>
5.99558258056641

> <r_mmod_Van_der_Waal_Energy-OPLS-2005>
141.096176147461

> <r_mmod_Electrostatic_Energy-OPLS-2005>
-390.078582763672

> <r_mmod_Solvation_Energy-OPLS-2005>
-265.812622070312

> <b_mmod_Minimization_Converged-OPLS-2005>
0

> <r_mmod_RMS_Derivative-OPLS-2005>
0.758210718631744

$$$$
40
                    3D
 Structure written by MMmdl.
156164  0  0  1  0            999 V2000
  -30.6660  -14.7065   20.5571 C   0  0  0  0  0  0
  -30.4189  -12.4507   19.4902 C   0  0  0  0  0  0
  -29.5100  -12.5394   18.2454 C   0  0  0  0  0  0
  -28.0344  -12.3597   18.6454 C   0  0  0  0  0  0
  -27.6438  -13.2322   19.8687 C   0  0  2  0  0  0
  -28.6837  -13.1410   21.0136 C   0  0  0  0  0  0
  -25.2357  -13.7999   20.5434 C   0  0  0  0  0  0
  -24.1734  -13.0304   20.9209 C   0  0  0  0  0  0
  -24.6394  -11.6824   20.8818 C   0  0  0  0  0  0
  -23.9071  -10.4225   21.0465 C   0  0  0  0  0  0
  -24.3627   -9.4145   21.9228 C   0  0  0  0  0  0
  -23.6287   -8.2191   22.0778 C   0  0  0  0  0  0
  -22.4262   -8.0258   21.3564 C   0  0  0  0  0  0
  -21.9916   -9.0229   20.4659 C   0  0  0  0  0  0
  -22.7261  -10.2094   20.3081 C   0  0  0  0  0  0
  -21.6834   -6.0745   22.5289 C   0  0  0  0  0  0
  -21.3998   -6.5640   23.8225 C   0  0  0  0  0  0
  -21.3657   -5.6790   24.9183 C   0  0  0  0  0  0
  -21.6041   -4.3053   24.7226 C   0  0  0  0  0  0
  -21.8822   -3.8154   23.4342 C   0  0  0  0  0  0
  -21.9184   -4.6977   22.3405 C   0  0  0  0  0  0
  -22.7764  -13.5142   21.1842 C   0  0  0  0  0  0
  -22.1657   -4.2158   21.0982 F   0  0  0  0  0  0
  -21.5626   -3.4537   25.7743 F   0  0  0  0  0  0
  -29.9969  -13.4982   20.4596 N   0  0  0  0  0  0
  -26.2915  -12.9314   20.3328 N   0  0  0  0  0  0
  -25.9354  -11.6466   20.5894 N   0  0  0  0  0  0
  -22.0400  -12.8184   22.0434 N   0  0  0  0  0  0
  -25.3759  -15.1581   20.3313 N   0  0  0  0  0  0
  -31.7525  -14.8477   19.9840 O   0  0  0  0  0  0
  -21.6609   -6.8874   21.4253 O   0  0  0  0  0  0
  -22.3455  -14.5449   20.6692 O   0  0  0  0  0  0
  -24.6298  -31.8558   23.2002 C   0  0  0  0  0  0
  -25.9132  -32.4748   23.8336 C   0  0  1  0  0  0
  -27.2218  -27.2691   20.1410 C   0  0  0  0  0  0
  -25.5931  -33.8551   24.2254 N   0  0  0  0  0  0
  -23.4272  -30.4781   21.5421 C   0  0  2  0  0  0
  -24.8769  -28.9308   20.1118 C   0  0  0  0  0  0
  -22.7491  -29.4604   22.4919 C   0  0  0  0  0  0
  -18.0301  -28.1407   22.8483 C   0  0  0  0  0  0
  -24.1494  -36.7277   23.2642 C   0  0  0  0  0  0
  -25.9721  -30.7731   21.3802 C   0  0  0  0  0  0
  -26.0471  -29.3967   20.7237 C   0  0  0  0  0  0
  -27.2229  -28.5795   20.7257 C   0  0  0  0  0  0
  -26.0328  -26.8783   19.4837 C   0  0  0  0  0  0
  -24.8760  -27.6799   19.4788 C   0  0  0  0  0  0
  -23.6446  -29.8131   20.1587 C   0  0  0  0  0  0
  -25.4123  -36.3058   24.0325 C   0  0  1  0  0  0
  -20.5894  -28.3710   23.1276 C   0  0  2  0  0  0
  -20.6788  -26.9432   22.5418 C   0  0  0  0  0  0
  -19.5768  -26.6403   21.5222 C   0  0  0  0  0  0
  -18.1947  -26.7943   22.1629 C   0  0  0  0  0  0
  -19.1548  -28.8877   23.2869 C   0  0  0  0  0  0
  -18.9468  -30.1480   23.8880 C   0  0  0  0  0  0
  -17.6463  -30.6603   24.0565 C   0  0  0  0  0  0
  -25.9062  -34.9430   23.5087 C   0  0  0  0  0  0
  -16.5355  -29.9102   23.6340 C   0  0  0  0  0  0
  -16.7280  -28.6523   23.0351 C   0  0  0  0  0  0
  -26.4533  -31.6566   25.0711 C   0  0  0  0  0  0
  -25.3758  -31.3665   26.1416 C   0  0  0  0  0  0
  -27.0375  -30.2970   24.6195 C   0  0  0  0  0  0
  -27.6087  -32.4306   25.7477 C   0  0  0  0  0  0
  -27.5580  -37.1784   24.8470 C   0  0  0  0  0  0
  -21.4200  -29.3046   22.3652 N   0  0  0  0  0  0
  -26.4294  -37.3763   23.9410 N   0  0  0  0  0  0
  -24.6953  -31.0544   22.0966 N   0  0  0  0  0  0
  -23.4188  -28.8142   23.3018 O   0  0  0  0  0  0
  -28.3133  -26.3715   20.1926 O   0  0  0  0  0  0
  -26.5642  -34.8897   22.4660 O   0  0  0  0  0  0
  -23.5448  -32.1384   23.7290 O   0  0  0  0  0  0
  -29.8185  -18.5128   20.8953 C   0  0  0  0  0  0
  -27.9554  -16.9792   21.1427 C   0  0  0  0  0  0
  -27.5426  -19.3639   20.8224 C   0  0  0  0  0  0
  -29.3553  -17.1387   21.0725 C   0  0  0  0  0  0
  -28.9232  -19.6615   20.7784 C   0  0  0  0  0  0
  -27.0535  -18.0591   21.0448 C   0  0  0  0  0  0
  -30.1838  -15.8923   21.5081 C   0  0  0  0  0  0
  -28.6205  -22.2594   20.8607 C   0  0  0  0  0  0
  -24.8108  -18.8611   21.4482 C   0  0  0  0  0  0
  -29.0914  -23.7167   20.3937 C   0  0  0  0  0  0
  -28.0276  -24.9328   20.5391 C   0  0  0  0  0  0
  -30.5267  -15.8438   22.7275 N   0  0  0  0  0  0
  -29.3282  -21.0850   20.5967 N   0  0  0  0  0  0
  -27.5854  -22.2258   21.5320 O   0  0  0  0  0  0
  -25.7133  -17.7845   21.2148 O   0  0  0  0  0  0
  -31.4657  -12.5483   19.1988 H   0  0  0  0  0  0
  -30.3400  -11.4617   19.9454 H   0  0  0  0  0  0
  -29.7932  -11.7845   17.5119 H   0  0  0  0  0  0
  -29.6478  -13.5063   17.7590 H   0  0  0  0  0  0
  -27.8771  -11.3051   18.8766 H   0  0  0  0  0  0
  -27.3837  -12.5855   17.8000 H   0  0  0  0  0  0
  -27.6437  -14.2623   19.5137 H   0  0  0  0  0  0
  -28.7071  -12.1301   21.4237 H   0  0  0  0  0  0
  -28.4050  -13.7903   21.8434 H   0  0  0  0  0  0
  -25.2770   -9.5608   22.4808 H   0  0  0  0  0  0
  -23.9989   -7.4571   22.7488 H   0  0  0  0  0  0
  -21.0851   -8.8766   19.8956 H   0  0  0  0  0  0
  -22.3756  -10.9644   19.6183 H   0  0  0  0  0  0
  -21.1990   -7.6142   23.9739 H   0  0  0  0  0  0
  -21.1476   -6.0512   25.9090 H   0  0  0  0  0  0
  -22.0609   -2.7613   23.2839 H   0  0  0  0  0  0
  -22.3998  -11.9861   22.4864 H   0  0  0  0  0  0
  -21.1026  -13.1270   22.2622 H   0  0  0  0  0  0
  -24.6239  -15.8165   20.4998 H   0  0  0  0  0  0
  -26.2047  -15.6131   19.9751 H   0  0  0  0  0  0
  -26.7179  -32.5409   23.1064 H   0  0  0  0  0  0
  -25.0023  -33.9699   25.0356 H   0  0  0  0  0  0
  -22.7228  -31.2993   21.3967 H   0  0  0  0  0  0
  -23.3753  -35.9613   23.3305 H   0  0  0  0  0  0
  -24.3580  -36.8909   22.2056 H   0  0  0  0  0  0
  -23.7252  -37.6474   23.6675 H   0  0  0  0  0  0
  -26.1118  -31.5359   20.6128 H   0  0  0  0  0  0
  -26.8488  -30.8200   22.0130 H   0  0  0  0  0  0
  -28.1181  -28.9298   21.2212 H   0  0  0  0  0  0
  -25.9696  -25.9353   18.9626 H   0  0  0  0  0  0
  -23.9842  -27.3226   18.9821 H   0  0  0  0  0  0
  -23.7607  -30.5893   19.4025 H   0  0  0  0  0  0
  -22.7639  -29.2439   19.8570 H   0  0  0  0  0  0
  -25.1302  -36.1904   25.0819 H   0  0  0  0  0  0
  -20.9988  -28.3304   24.1396 H   0  0  0  0  0  0
  -20.5727  -26.2317   23.3618 H   0  0  0  0  0  0
  -21.6654  -26.7485   22.1186 H   0  0  0  0  0  0
  -19.6945  -25.6326   21.1243 H   0  0  0  0  0  0
  -19.6705  -27.3217   20.6760 H   0  0  0  0  0  0
  -17.4219  -26.6684   21.4034 H   0  0  0  0  0  0
  -18.0346  -26.0111   22.9042 H   0  0  0  0  0  0
  -19.7940  -30.7315   24.2227 H   0  0  0  0  0  0
  -17.5017  -31.6279   24.5171 H   0  0  0  0  0  0
  -15.5356  -30.2994   23.7690 H   0  0  0  0  0  0
  -15.8676  -28.0847   22.7068 H   0  0  0  0  0  0
  -24.5972  -30.6984   25.7720 H   0  0  0  0  0  0
  -24.8908  -32.2800   26.4845 H   0  0  0  0  0  0
  -25.8098  -30.8832   27.0176 H   0  0  0  0  0  0
  -26.2940  -29.6678   24.1274 H   0  0  0  0  0  0
  -27.4096  -29.7274   25.4729 H   0  0  0  0  0  0
  -27.8820  -30.4223   23.9409 H   0  0  0  0  0  0
  -27.2705  -33.3619   26.2025 H   0  0  0  0  0  0
  -28.3908  -32.6838   25.0308 H   0  0  0  0  0  0
  -28.0741  -31.8442   26.5404 H   0  0  0  0  0  0
  -28.2584  -38.0090   24.7522 H   0  0  0  0  0  0
  -28.1086  -36.2616   24.6298 H   0  0  0  0  0  0
  -27.2286  -37.1431   25.8868 H   0  0  0  0  0  0
  -20.9401  -29.8715   21.6800 H   0  0  0  0  0  0
  -26.0165  -38.2831   24.1415 H   0  0  0  0  0  0
  -30.8843  -18.6882   20.9126 H   0  0  0  0  0  0
  -27.5603  -16.0026   21.3776 H   0  0  0  0  0  0
  -26.8298  -20.1595   20.6993 H   0  0  0  0  0  0
  -24.7001  -19.4931   20.5663 H   0  0  0  0  0  0
  -25.1276  -19.4734   22.2931 H   0  0  0  0  0  0
  -23.8244  -18.4639   21.6883 H   0  0  0  0  0  0
  -29.4079  -23.6418   19.3535 H   0  0  0  0  0  0
  -29.9855  -23.9633   20.9643 H   0  0  0  0  0  0
  -27.7155  -24.9528   21.5848 H   0  0  0  0  0  0
  -27.1500  -24.5881   19.9973 H   0  0  0  0  0  0
  -30.1836  -16.6578   23.2220 H   0  0  0  0  0  0
  -30.2472  -21.2245   20.1985 H   0  0  0  0  0  0
  1 25  1  0  0  0
  1 30  2  0  0  0
  1 77  1  0  0  0
  2  3  1  0  0  0
  2 25  1  0  0  0
  2 86  1  0  0  0
  2 87  1  0  0  0
  3  4  1  0  0  0
  3 88  1  0  0  0
  3 89  1  0  0  0
  4  5  1  0  0  0
  4 90  1  0  0  0
  4 91  1  0  0  0
  5  6  1  0  0  0
  5 26  1  0  0  0
  5 92  1  0  0  0
  6 25  1  0  0  0
  6 93  1  0  0  0
  6 94  1  0  0  0
  7  8  2  0  0  0
  7 26  1  0  0  0
  7 29  1  0  0  0
  8  9  1  0  0  0
  8 22  1  0  0  0
  9 10  1  0  0  0
  9 27  2  0  0  0
 10 11  2  0  0  0
 10 15  1  0  0  0
 11 12  1  0  0  0
 11 95  1  0  0  0
 12 13  2  0  0  0
 12 96  1  0  0  0
 13 14  1  0  0  0
 13 31  1  0  0  0
 14 15  2  0  0  0
 14 97  1  0  0  0
 15 98  1  0  0  0
 16 17  2  0  0  0
 16 21  1  0  0  0
 16 31  1  0  0  0
 17 18  1  0  0  0
 17 99  1  0  0  0
 18 19  2  0  0  0
 18100  1  0  0  0
 19 20  1  0  0  0
 19 24  1  0  0  0
 20 21  2  0  0  0
 20101  1  0  0  0
 21 23  1  0  0  0
 22 28  1  0  0  0
 22 32  2  0  0  0
 26 27  1  0  0  0
 28102  1  0  0  0
 28103  1  0  0  0
 29104  1  0  0  0
 29105  1  0  0  0
 33 34  1  0  0  0
 33 66  1  0  0  0
 33 70  2  0  0  0
 34 36  1  0  0  0
 34 59  1  0  0  0
 34106  1  0  0  0
 35 44  2  0  0  0
 35 45  1  0  0  0
 35 68  1  0  0  0
 36 56  1  0  0  0
 36107  1  0  0  0
 37 39  1  0  0  0
 37 47  1  0  0  0
 37 66  1  0  0  0
 37108  1  0  0  0
 38 43  2  0  0  0
 38 46  1  0  0  0
 38 47  1  0  0  0
 39 64  1  0  0  0
 39 67  2  0  0  0
 40 52  1  0  0  0
 40 53  2  0  0  0
 40 58  1  0  0  0
 41109  1  0  0  0
 41110  1  0  0  0
 41111  1  0  0  0
 41 48  1  0  0  0
 42 43  1  0  0  0
 42 66  1  0  0  0
 42112  1  0  0  0
 42113  1  0  0  0
 43 44  1  0  0  0
 44114  1  0  0  0
 45 46  2  0  0  0
 45115  1  0  0  0
 46116  1  0  0  0
 47117  1  0  0  0
 47118  1  0  0  0
 48 56  1  0  0  0
 48 65  1  0  0  0
 48119  1  0  0  0
 49 50  1  0  0  0
 49 53  1  0  0  0
 49 64  1  0  0  0
 49120  1  0  0  0
 50 51  1  0  0  0
 50121  1  0  0  0
 50122  1  0  0  0
 51 52  1  0  0  0
 51123  1  0  0  0
 51124  1  0  0  0
 52125  1  0  0  0
 52126  1  0  0  0
 53 54  1  0  0  0
 54 55  2  0  0  0
 54127  1  0  0  0
 55 57  1  0  0  0
 55128  1  0  0  0
 56 69  2  0  0  0
 57 58  2  0  0  0
 57129  1  0  0  0
 58130  1  0  0  0
 59 60  1  0  0  0
 59 61  1  0  0  0
 59 62  1  0  0  0
 60131  1  0  0  0
 60132  1  0  0  0
 60133  1  0  0  0
 61134  1  0  0  0
 61135  1  0  0  0
 61136  1  0  0  0
 62137  1  0  0  0
 62138  1  0  0  0
 62139  1  0  0  0
 63 65  1  0  0  0
 63140  1  0  0  0
 63141  1  0  0  0
 63142  1  0  0  0
 64143  1  0  0  0
 65144  1  0  0  0
 68 81  1  0  0  0
 71 74  2  0  0  0
 71 75  1  0  0  0
 71145  1  0  0  0
 72 74  1  0  0  0
 72 76  2  0  0  0
 72146  1  0  0  0
 73 75  2  0  0  0
 73 76  1  0  0  0
 73147  1  0  0  0
 74 77  1  0  0  0
 75 83  1  0  0  0
 76 85  1  0  0  0
 77 82  2  0  0  0
 78 80  1  0  0  0
 78 83  1  0  0  0
 78 84  2  0  0  0
 79 85  1  0  0  0
 79148  1  0  0  0
 79149  1  0  0  0
 79150  1  0  0  0
 80 81  1  0  0  0
 80151  1  0  0  0
 80152  1  0  0  0
 81153  1  0  0  0
 81154  1  0  0  0
 82155  1  0  0  0
 83156  1  0  0  0
M  ISO  4   1 100  68 101  77 100  81 101
M  END
> <chiral flag>
0

> <version>
0

> <s_m_source_file>
/data/baiqing/PycharmProjects/Reinvent-master-3.2/result/LINK_invent/BTK/process_docking_weight1_custom_product_contain_oxygen_bond_distance_aromatic_linkinvent_7_9_3/rearranged_h_0105.sdf

> <i_m_source_file_index>
41

> <r_mmod_Potential_Energy-OPLS-2005>
317.741638183594

> <r_mmod_Stretch_Energy-OPLS-2005>
134.819763183594

> <r_mmod_Bend_Energy-OPLS-2005>
192.196838378906

> <r_mmod_Torsional_Energy-OPLS-2005>
262.925170898438

> <r_mmod_Improper_Torsional_Energy-OPLS-2005>
5.75950193405151

> <r_mmod_Van_der_Waal_Energy-OPLS-2005>
151.148895263672

> <r_mmod_Electrostatic_Energy-OPLS-2005>
-280.256469726562

> <r_mmod_Solvation_Energy-OPLS-2005>
-223.841415405273

> <b_mmod_Minimization_Converged-OPLS-2005>
0

> <r_mmod_RMS_Derivative-OPLS-2005>
2.42167806625366

$$$$
41
                    3D
 Structure written by MMmdl.
153161  0  0  1  0            999 V2000
  -30.7233  -14.6089   20.4902 C   0  0  0  0  0  0
  -30.4112  -12.3929   19.4395 C   0  0  0  0  0  0
  -29.4855  -12.5010   18.2117 C   0  0  0  0  0  0
  -28.0111  -12.3396   18.6321 C   0  0  0  0  0  0
  -27.6441  -13.2086   19.8653 C   0  0  2  0  0  0
  -28.7048  -13.0632   20.9840 C   0  0  0  0  0  0
  -25.2476  -13.8122   20.5678 C   0  0  0  0  0  0
  -24.1733  -13.0394   20.9138 C   0  0  0  0  0  0
  -24.6330  -11.6879   20.8751 C   0  0  0  0  0  0
  -23.9023  -10.4271   21.0420 C   0  0  0  0  0  0
  -24.3593   -9.4199   21.9196 C   0  0  0  0  0  0
  -23.6272   -8.2235   22.0762 C   0  0  0  0  0  0
  -22.4256   -8.0274   21.3552 C   0  0  0  0  0  0
  -21.9882   -9.0244   20.4657 C   0  0  0  0  0  0
  -22.7201  -10.2124   20.3065 C   0  0  0  0  0  0
  -21.6836   -6.0728   22.5285 C   0  0  0  0  0  0
  -21.4005   -6.5634   23.8219 C   0  0  0  0  0  0
  -21.3654   -5.6789   24.9182 C   0  0  0  0  0  0
  -21.6044   -4.3052   24.7230 C   0  0  0  0  0  0
  -21.8816   -3.8143   23.4349 C   0  0  0  0  0  0
  -21.9182   -4.6957   22.3405 C   0  0  0  0  0  0
  -22.7769  -13.5214   21.1800 C   0  0  0  0  0  0
  -22.1655   -4.2147   21.0981 F   0  0  0  0  0  0
  -21.5637   -3.4536   25.7743 F   0  0  0  0  0  0
  -29.9934  -13.4447   20.3952 N   0  0  0  0  0  0
  -26.2934  -12.9307   20.3425 N   0  0  0  0  0  0
  -25.9270  -11.6464   20.5840 N   0  0  0  0  0  0
  -22.0397  -12.8239   22.0376 N   0  0  0  0  0  0
  -25.4173  -15.1823   20.4140 N   0  0  0  0  0  0
  -31.9117  -14.6012   20.1751 O   0  0  0  0  0  0
  -21.6623   -6.8867   21.4243 O   0  0  0  0  0  0
  -22.3483  -14.5539   20.6662 O   0  0  0  0  0  0
  -24.6195  -31.8637   23.2065 C   0  0  0  0  0  0
  -25.9066  -32.4802   23.8378 C   0  0  1  0  0  0
  -27.2284  -27.3799   20.1100 C   0  0  0  0  0  0
  -25.5903  -33.8604   24.2310 N   0  0  0  0  0  0
  -23.4113  -30.4867   21.5481 C   0  0  2  0  0  0
  -24.8591  -28.9471   20.1136 C   0  0  0  0  0  0
  -22.7442  -29.4633   22.4966 C   0  0  0  0  0  0
  -18.0273  -28.1378   22.8485 C   0  0  0  0  0  0
  -24.1490  -36.7305   23.2640 C   0  0  0  0  0  0
  -25.9457  -30.8141   21.3669 C   0  0  0  0  0  0
  -26.0236  -29.4450   20.7123 C   0  0  0  0  0  0
  -27.2148  -28.6718   20.7010 C   0  0  0  0  0  0
  -26.0483  -26.9166   19.4909 C   0  0  0  0  0  0
  -24.8690  -27.6849   19.4963 C   0  0  0  0  0  0
  -23.6233  -29.8197   20.1635 C   0  0  0  0  0  0
  -25.4111  -36.3099   24.0338 C   0  0  1  0  0  0
  -20.5870  -28.3671   23.1303 C   0  0  2  0  0  0
  -20.6765  -26.9401   22.5415 C   0  0  0  0  0  0
  -19.5744  -26.6383   21.5212 C   0  0  0  0  0  0
  -18.1922  -26.7921   22.1622 C   0  0  0  0  0  0
  -19.1524  -28.8839   23.2892 C   0  0  0  0  0  0
  -18.9451  -30.1443   23.8905 C   0  0  0  0  0  0
  -17.6454  -30.6584   24.0558 C   0  0  0  0  0  0
  -25.9044  -34.9468   23.5126 C   0  0  0  0  0  0
  -16.5346  -29.9084   23.6323 C   0  0  0  0  0  0
  -16.7262  -28.6501   23.0346 C   0  0  0  0  0  0
  -26.4478  -31.6594   25.0724 C   0  0  0  0  0  0
  -25.3734  -31.3708   26.1468 C   0  0  0  0  0  0
  -27.0316  -30.3032   24.6122 C   0  0  0  0  0  0
  -27.6051  -32.4313   25.7489 C   0  0  0  0  0  0
  -27.5578  -37.1810   24.8464 C   0  0  0  0  0  0
  -21.4161  -29.3033   22.3709 N   0  0  0  0  0  0
  -26.4292  -37.3786   23.9409 N   0  0  0  0  0  0
  -24.6777  -31.0698   22.0988 N   0  0  0  0  0  0
  -23.4192  -28.8174   23.3026 O   0  0  0  0  0  0
  -28.3590  -26.5726   20.1160 O   0  0  0  0  0  0
  -26.5609  -34.8921   22.4688 O   0  0  0  0  0  0
  -23.5374  -32.1411   23.7427 O   0  0  0  0  0  0
  -29.6962  -19.0339   20.4797 C   0  0  0  0  0  0
  -28.8804  -20.2168   20.3153 C   0  0  0  0  0  0
  -28.8654  -17.9442   20.6682 C   0  0  0  0  0  0
  -27.5918  -19.7503   20.4021 C   0  0  0  0  0  0
  -29.0307  -16.4603   20.9200 C   0  0  0  0  0  0
  -26.2342  -20.3555   20.2557 C   0  0  0  0  0  0
  -28.8831  -24.0354   19.9848 C   0  0  0  0  0  0
  -28.1942  -25.2469   20.7078 C   0  0  0  0  0  0
  -28.6694  -22.6439   20.6884 C   0  0  0  0  0  0
  -30.2136  -15.8721   20.6361 N   0  0  0  0  0  0
  -28.0498  -15.8663   21.3599 O   0  0  0  0  0  0
  -27.5828  -18.4090   20.6406 O   0  0  0  0  0  0
  -29.3146  -21.5160   20.0361 O   0  0  0  0  0  0
  -31.4507  -12.4821   19.1204 H   0  0  0  0  0  0
  -30.3350  -11.4036   19.8930 H   0  0  0  0  0  0
  -29.7496  -11.7455   17.4703 H   0  0  0  0  0  0
  -29.6284  -13.4676   17.7265 H   0  0  0  0  0  0
  -27.8476  -11.2860   18.8612 H   0  0  0  0  0  0
  -27.3503  -12.5739   17.7959 H   0  0  0  0  0  0
  -27.6531  -14.2353   19.5036 H   0  0  0  0  0  0
  -28.7379  -12.0271   21.3242 H   0  0  0  0  0  0
  -28.4756  -13.6262   21.8852 H   0  0  0  0  0  0
  -25.2738   -9.5684   22.4772 H   0  0  0  0  0  0
  -23.9978   -7.4629   22.7489 H   0  0  0  0  0  0
  -21.0808   -8.8751   19.8973 H   0  0  0  0  0  0
  -22.3656  -10.9662   19.6176 H   0  0  0  0  0  0
  -21.2000   -7.6144   23.9720 H   0  0  0  0  0  0
  -21.1485   -6.0520   25.9086 H   0  0  0  0  0  0
  -22.0602   -2.7604   23.2849 H   0  0  0  0  0  0
  -22.3989  -11.9908   22.4803 H   0  0  0  0  0  0
  -21.1033  -13.1326   22.2585 H   0  0  0  0  0  0
  -24.6783  -15.8201   20.6861 H   0  0  0  0  0  0
  -26.3478  -15.5656   20.5794 H   0  0  0  0  0  0
  -26.7134  -32.5502   23.1136 H   0  0  0  0  0  0
  -25.0049  -33.9757   25.0452 H   0  0  0  0  0  0
  -22.7020  -31.3051   21.4064 H   0  0  0  0  0  0
  -23.3751  -35.9638   23.3313 H   0  0  0  0  0  0
  -24.3577  -36.8908   22.2048 H   0  0  0  0  0  0
  -23.7252  -37.6517   23.6649 H   0  0  0  0  0  0
  -26.0651  -31.5792   20.5985 H   0  0  0  0  0  0
  -26.8313  -30.8673   21.9887 H   0  0  0  0  0  0
  -28.1132  -29.0506   21.1694 H   0  0  0  0  0  0
  -26.0382  -25.9508   19.0050 H   0  0  0  0  0  0
  -23.9759  -27.2977   19.0252 H   0  0  0  0  0  0
  -23.7357  -30.5958   19.4056 H   0  0  0  0  0  0
  -22.7461  -29.2427   19.8651 H   0  0  0  0  0  0
  -25.1292  -36.1959   25.0831 H   0  0  0  0  0  0
  -20.9954  -28.3236   24.1426 H   0  0  0  0  0  0
  -20.5657  -26.2277   23.3609 H   0  0  0  0  0  0
  -21.6637  -26.7431   22.1214 H   0  0  0  0  0  0
  -19.6908  -25.6297   21.1233 H   0  0  0  0  0  0
  -19.6688  -27.3199   20.6749 H   0  0  0  0  0  0
  -17.4192  -26.6658   21.4027 H   0  0  0  0  0  0
  -18.0325  -26.0066   22.9022 H   0  0  0  0  0  0
  -19.7930  -30.7251   24.2286 H   0  0  0  0  0  0
  -17.5011  -31.6264   24.5160 H   0  0  0  0  0  0
  -15.5346  -30.2990   23.7644 H   0  0  0  0  0  0
  -15.8661  -28.0825   22.7058 H   0  0  0  0  0  0
  -24.5901  -30.7061   25.7802 H   0  0  0  0  0  0
  -24.8933  -32.2868   26.4922 H   0  0  0  0  0  0
  -25.8078  -30.8868   27.0228 H   0  0  0  0  0  0
  -26.2874  -29.6796   24.1150 H   0  0  0  0  0  0
  -27.4054  -29.7259   25.4592 H   0  0  0  0  0  0
  -27.8726  -30.4351   23.9308 H   0  0  0  0  0  0
  -27.2670  -33.3599   26.2103 H   0  0  0  0  0  0
  -28.3846  -32.6896   25.0307 H   0  0  0  0  0  0
  -28.0745  -31.8419   26.5377 H   0  0  0  0  0  0
  -28.2608  -38.0096   24.7499 H   0  0  0  0  0  0
  -28.1066  -36.2627   24.6310 H   0  0  0  0  0  0
  -27.2295  -37.1483   25.8868 H   0  0  0  0  0  0
  -20.9323  -29.8759   21.6933 H   0  0  0  0  0  0
  -26.0183  -38.2867   24.1398 H   0  0  0  0  0  0
  -30.7756  -18.9870   20.4541 H   0  0  0  0  0  0
  -25.8892  -20.7741   21.2015 H   0  0  0  0  0  0
  -25.5076  -19.6082   19.9373 H   0  0  0  0  0  0
  -26.2347  -21.1474   19.5071 H   0  0  0  0  0  0
  -29.9521  -24.2314   19.8996 H   0  0  0  0  0  0
  -28.5054  -23.9747   18.9636 H   0  0  0  0  0  0
  -28.6015  -25.3117   21.7170 H   0  0  0  0  0  0
  -27.1421  -24.9984   20.8498 H   0  0  0  0  0  0
  -27.5997  -22.4849   20.7931 H   0  0  0  0  0  0
  -29.0574  -22.7001   21.7060 H   0  0  0  0  0  0
  -30.9175  -16.5609   20.4325 H   0  0  0  0  0  0
  1 25  1  0  0  0
  1 30  2  0  0  0
  1 80  1  0  0  0
  2  3  1  0  0  0
  2 25  1  0  0  0
  2 84  1  0  0  0
  2 85  1  0  0  0
  3  4  1  0  0  0
  3 86  1  0  0  0
  3 87  1  0  0  0
  4  5  1  0  0  0
  4 88  1  0  0  0
  4 89  1  0  0  0
  5  6  1  0  0  0
  5 26  1  0  0  0
  5 90  1  0  0  0
  6 25  1  0  0  0
  6 91  1  0  0  0
  6 92  1  0  0  0
  7  8  2  0  0  0
  7 26  1  0  0  0
  7 29  1  0  0  0
  8  9  1  0  0  0
  8 22  1  0  0  0
  9 10  1  0  0  0
  9 27  2  0  0  0
 10 11  2  0  0  0
 10 15  1  0  0  0
 11 12  1  0  0  0
 11 93  1  0  0  0
 12 13  2  0  0  0
 12 94  1  0  0  0
 13 14  1  0  0  0
 13 31  1  0  0  0
 14 15  2  0  0  0
 14 95  1  0  0  0
 15 96  1  0  0  0
 16 17  2  0  0  0
 16 21  1  0  0  0
 16 31  1  0  0  0
 17 18  1  0  0  0
 17 97  1  0  0  0
 18 19  2  0  0  0
 18 98  1  0  0  0
 19 20  1  0  0  0
 19 24  1  0  0  0
 20 21  2  0  0  0
 20 99  1  0  0  0
 21 23  1  0  0  0
 22 28  1  0  0  0
 22 32  2  0  0  0
 26 27  1  0  0  0
 28100  1  0  0  0
 28101  1  0  0  0
 29102  1  0  0  0
 29103  1  0  0  0
 33 34  1  0  0  0
 33 66  1  0  0  0
 33 70  2  0  0  0
 34 36  1  0  0  0
 34 59  1  0  0  0
 34104  1  0  0  0
 35 44  2  0  0  0
 35 45  1  0  0  0
 35 68  1  0  0  0
 36 56  1  0  0  0
 36105  1  0  0  0
 37 39  1  0  0  0
 37 47  1  0  0  0
 37 66  1  0  0  0
 37106  1  0  0  0
 38 43  2  0  0  0
 38 46  1  0  0  0
 38 47  1  0  0  0
 39 64  1  0  0  0
 39 67  2  0  0  0
 40 52  1  0  0  0
 40 53  2  0  0  0
 40 58  1  0  0  0
 41107  1  0  0  0
 41108  1  0  0  0
 41109  1  0  0  0
 41 48  1  0  0  0
 42 43  1  0  0  0
 42 66  1  0  0  0
 42110  1  0  0  0
 42111  1  0  0  0
 43 44  1  0  0  0
 44112  1  0  0  0
 45 46  2  0  0  0
 45113  1  0  0  0
 46114  1  0  0  0
 47115  1  0  0  0
 47116  1  0  0  0
 48 56  1  0  0  0
 48 65  1  0  0  0
 48117  1  0  0  0
 49 50  1  0  0  0
 49 53  1  0  0  0
 49 64  1  0  0  0
 49118  1  0  0  0
 50 51  1  0  0  0
 50119  1  0  0  0
 50120  1  0  0  0
 51 52  1  0  0  0
 51121  1  0  0  0
 51122  1  0  0  0
 52123  1  0  0  0
 52124  1  0  0  0
 53 54  1  0  0  0
 54 55  2  0  0  0
 54125  1  0  0  0
 55 57  1  0  0  0
 55126  1  0  0  0
 56 69  2  0  0  0
 57 58  2  0  0  0
 57127  1  0  0  0
 58128  1  0  0  0
 59 60  1  0  0  0
 59 61  1  0  0  0
 59 62  1  0  0  0
 60129  1  0  0  0
 60130  1  0  0  0
 60131  1  0  0  0
 61132  1  0  0  0
 61133  1  0  0  0
 61134  1  0  0  0
 62135  1  0  0  0
 62136  1  0  0  0
 62137  1  0  0  0
 63 65  1  0  0  0
 63138  1  0  0  0
 63139  1  0  0  0
 63140  1  0  0  0
 64141  1  0  0  0
 65142  1  0  0  0
 68 78  1  0  0  0
 71 72  1  0  0  0
 71 73  2  0  0  0
 71143  1  0  0  0
 72 74  2  0  0  0
 72 83  1  0  0  0
 73 75  1  0  0  0
 73 82  1  0  0  0
 74 76  1  0  0  0
 74 82  1  0  0  0
 75 80  1  0  0  0
 75 81  2  0  0  0
 76144  1  0  0  0
 76145  1  0  0  0
 76146  1  0  0  0
 77 78  1  0  0  0
 77 79  1  0  0  0
 77147  1  0  0  0
 77148  1  0  0  0
 78149  1  0  0  0
 78150  1  0  0  0
 79 83  1  0  0  0
 79151  1  0  0  0
 79152  1  0  0  0
 80153  1  0  0  0
M  ISO  4   1 100  68 101  78 101  80 100
M  END
> <chiral flag>
0

> <version>
0

> <s_m_source_file>
/data/baiqing/PycharmProjects/Reinvent-master-3.2/result/LINK_invent/BTK/process_docking_weight1_custom_product_contain_oxygen_bond_distance_aromatic_linkinvent_7_9_3/rearranged_h_0105.sdf

> <i_m_source_file_index>
42

> <r_mmod_Potential_Energy-OPLS-2005>
-42.1346702575684

> <r_mmod_Stretch_Energy-OPLS-2005>
54.7697067260742

> <r_mmod_Bend_Energy-OPLS-2005>
180.316925048828

> <r_mmod_Torsional_Energy-OPLS-2005>
246.56559753418

> <r_mmod_Improper_Torsional_Energy-OPLS-2005>
9.68634033203125

> <r_mmod_Van_der_Waal_Energy-OPLS-2005>
131.604095458984

> <r_mmod_Electrostatic_Energy-OPLS-2005>
-502.31298828125

> <r_mmod_Solvation_Energy-OPLS-2005>
-200.266403198242

> <b_mmod_Minimization_Converged-OPLS-2005>
0

> <r_mmod_RMS_Derivative-OPLS-2005>
1.16416251659393

$$$$
42
                    3D
 Structure written by MMmdl.
169178  0  0  1  0            999 V2000
  -30.6556  -14.7151   20.3502 C   0  0  0  0  0  0
  -30.4218  -12.4097   19.4470 C   0  0  0  0  0  0
  -29.4797  -12.3893   18.2201 C   0  0  0  0  0  0
  -28.0100  -12.2799   18.6568 C   0  0  0  0  0  0
  -27.6341  -13.2282   19.8277 C   0  0  2  0  0  0
  -28.6949  -13.2161   20.9471 C   0  0  0  0  0  0
  -25.2510  -13.8215   20.5721 C   0  0  0  0  0  0
  -24.1795  -13.0457   20.9226 C   0  0  0  0  0  0
  -24.6375  -11.6930   20.8791 C   0  0  0  0  0  0
  -23.9058  -10.4296   21.0432 C   0  0  0  0  0  0
  -24.3623   -9.4204   21.9201 C   0  0  0  0  0  0
  -23.6294   -8.2238   22.0762 C   0  0  0  0  0  0
  -22.4277   -8.0279   21.3545 C   0  0  0  0  0  0
  -21.9910   -9.0253   20.4646 C   0  0  0  0  0  0
  -22.7237  -10.2135   20.3059 C   0  0  0  0  0  0
  -21.6845   -6.0733   22.5274 C   0  0  0  0  0  0
  -21.4023   -6.5644   23.8209 C   0  0  0  0  0  0
  -21.3663   -5.6800   24.9174 C   0  0  0  0  0  0
  -21.6039   -4.3058   24.7219 C   0  0  0  0  0  0
  -21.8817   -3.8144   23.4340 C   0  0  0  0  0  0
  -21.9189   -4.6961   22.3397 C   0  0  0  0  0  0
  -22.7814  -13.5239   21.1863 C   0  0  0  0  0  0
  -22.1654   -4.2151   21.0972 F   0  0  0  0  0  0
  -21.5621   -3.4541   25.7730 F   0  0  0  0  0  0
  -29.9838  -13.5178   20.3168 N   0  0  0  0  0  0
  -26.2927  -12.9420   20.3296 N   0  0  0  0  0  0
  -25.9311  -11.6572   20.5841 N   0  0  0  0  0  0
  -22.0458  -12.8235   22.0419 N   0  0  0  0  0  0
  -25.4226  -15.1932   20.4139 N   0  0  0  0  0  0
  -31.8885  -14.7181   20.3853 O   0  0  0  0  0  0
  -21.6630   -6.8883   21.4239 O   0  0  0  0  0  0
  -22.3502  -14.5543   20.6688 O   0  0  0  0  0  0
  -24.6285  -31.8590   23.1991 C   0  0  0  0  0  0
  -25.9125  -32.4756   23.8334 C   0  0  1  0  0  0
  -27.2211  -27.3003   20.1130 C   0  0  0  0  0  0
  -25.5930  -33.8559   24.2272 N   0  0  0  0  0  0
  -23.4222  -30.4827   21.5415 C   0  0  2  0  0  0
  -24.8675  -28.9332   20.1053 C   0  0  0  0  0  0
  -22.7469  -29.4640   22.4919 C   0  0  0  0  0  0
  -18.0293  -28.1386   22.8490 C   0  0  0  0  0  0
  -24.1494  -36.7291   23.2642 C   0  0  0  0  0  0
  -25.9641  -30.7826   21.3721 C   0  0  0  0  0  0
  -26.0346  -29.4085   20.7138 C   0  0  0  0  0  0
  -27.2112  -28.6018   20.7084 C   0  0  0  0  0  0
  -26.0245  -26.8737   19.4932 C   0  0  0  0  0  0
  -24.8648  -27.6728   19.4872 C   0  0  0  0  0  0
  -23.6378  -29.8179   20.1560 C   0  0  0  0  0  0
  -25.4112  -36.3077   24.0342 C   0  0  1  0  0  0
  -20.5891  -28.3712   23.1270 C   0  0  2  0  0  0
  -20.6791  -26.9429   22.5408 C   0  0  0  0  0  0
  -19.5772  -26.6388   21.5209 C   0  0  0  0  0  0
  -18.1949  -26.7923   22.1628 C   0  0  0  0  0  0
  -19.1542  -28.8860   23.2879 C   0  0  0  0  0  0
  -18.9469  -30.1450   23.8913 C   0  0  0  0  0  0
  -17.6471  -30.6587   24.0560 C   0  0  0  0  0  0
  -25.9053  -34.9440   23.5116 C   0  0  0  0  0  0
  -16.5361  -29.9098   23.6315 C   0  0  0  0  0  0
  -16.7279  -28.6508   23.0353 C   0  0  0  0  0  0
  -26.4503  -31.6550   25.0701 C   0  0  0  0  0  0
  -25.3729  -31.3681   26.1421 C   0  0  0  0  0  0
  -27.0336  -30.2967   24.6150 C   0  0  0  0  0  0
  -27.6066  -32.4278   25.7470 C   0  0  0  0  0  0
  -27.5579  -37.1804   24.8463 C   0  0  0  0  0  0
  -21.4188  -29.3069   22.3662 N   0  0  0  0  0  0
  -26.4288  -37.3772   23.9409 N   0  0  0  0  0  0
  -24.6906  -31.0595   22.0936 N   0  0  0  0  0  0
  -23.4177  -28.8178   23.3014 O   0  0  0  0  0  0
  -28.3538  -26.4682   20.1893 O   0  0  0  0  0  0
  -26.5619  -34.8913   22.4674 O   0  0  0  0  0  0
  -23.5451  -32.1397   23.7310 O   0  0  0  0  0  0
  -29.2055  -19.5148   19.3196 C   0  0  0  0  0  0
  -29.5276  -18.1578   19.0296 C   0  0  0  0  0  0
  -29.1458  -18.9463   21.6314 C   0  0  0  0  0  0
  -28.9818  -19.9676   20.6379 C   0  0  0  0  0  0
  -29.7207  -17.1325   20.0179 C   0  0  0  0  0  0
  -29.5233  -17.5854   21.3550 C   0  0  0  0  0  0
  -28.7390  -22.5365   20.1823 C   0  0  0  0  0  0
  -28.2168  -23.7913   20.4579 C   0  0  0  0  0  0
  -27.3145  -23.8754   21.6278 C   0  0  0  0  0  0
  -26.7341  -22.5626   22.1489 C   0  0  0  0  0  0
  -27.7701  -21.4224   22.1715 C   0  0  0  0  0  0
  -32.0227  -17.8149   25.1806 C   0  0  0  0  0  0
  -30.5225  -15.6571   18.1922 C   0  0  0  0  0  0
  -28.4240  -25.1026   19.5929 C   0  0  0  0  0  0
  -30.8270  -17.8832   24.2253 C   0  0  0  0  0  0
  -30.8621  -16.7900   23.1418 C   0  0  0  0  0  0
  -28.5555  -21.3261   20.9333 N   0  0  0  0  0  0
  -30.0843  -15.7430   19.6072 N   0  0  0  0  0  0
  -26.9899  -24.9233   22.1897 O   0  0  0  0  0  0
  -29.6473  -16.6975   22.3959 O   0  0  0  0  0  0
  -31.4610  -12.5207   19.1318 H   0  0  0  0  0  0
  -30.3678  -11.4635   19.9888 H   0  0  0  0  0  0
  -29.7333  -11.5476   17.5742 H   0  0  0  0  0  0
  -29.5895  -13.2702   17.5958 H   0  0  0  0  0  0
  -27.8510  -11.2443   18.9571 H   0  0  0  0  0  0
  -27.3485  -12.4479   17.8058 H   0  0  0  0  0  0
  -27.6142  -14.2345   19.4074 H   0  0  0  0  0  0
  -28.7238  -12.2483   21.4509 H   0  0  0  0  0  0
  -28.4565  -13.9657   21.7041 H   0  0  0  0  0  0
  -25.2763   -9.5667   22.4790 H   0  0  0  0  0  0
  -23.9978   -7.4632   22.7489 H   0  0  0  0  0  0
  -21.0832   -8.8771   19.8969 H   0  0  0  0  0  0
  -22.3685  -10.9677   19.6175 H   0  0  0  0  0  0
  -21.2025   -7.6157   23.9714 H   0  0  0  0  0  0
  -21.1492   -6.0532   25.9082 H   0  0  0  0  0  0
  -22.0591   -2.7605   23.2830 H   0  0  0  0  0  0
  -22.4069  -11.9904   22.4821 H   0  0  0  0  0  0
  -21.1076  -13.1282   22.2623 H   0  0  0  0  0  0
  -24.6632  -15.8539   20.5342 H   0  0  0  0  0  0
  -26.2852  -15.6317   20.1161 H   0  0  0  0  0  0
  -26.7188  -32.5430   23.1074 H   0  0  0  0  0  0
  -25.0057  -33.9676   25.0411 H   0  0  0  0  0  0
  -22.7185  -31.3054   21.3965 H   0  0  0  0  0  0
  -23.3755  -35.9627   23.3307 H   0  0  0  0  0  0
  -24.3585  -36.8904   22.2056 H   0  0  0  0  0  0
  -23.7252  -37.6497   23.6660 H   0  0  0  0  0  0
  -26.0962  -31.5455   20.6037 H   0  0  0  0  0  0
  -26.8444  -30.8304   22.0013 H   0  0  0  0  0  0
  -28.1085  -28.9596   21.1930 H   0  0  0  0  0  0
  -25.9419  -25.9013   19.0341 H   0  0  0  0  0  0
  -23.9657  -27.2994   19.0155 H   0  0  0  0  0  0
  -23.7620  -30.5958   19.4020 H   0  0  0  0  0  0
  -22.7561  -29.2527   19.8507 H   0  0  0  0  0  0
  -25.1291  -36.1931   25.0840 H   0  0  0  0  0  0
  -20.9983  -28.3290   24.1390 H   0  0  0  0  0  0
  -20.5683  -26.2317   23.3614 H   0  0  0  0  0  0
  -21.6664  -26.7457   22.1205 H   0  0  0  0  0  0
  -19.6936  -25.6297   21.1244 H   0  0  0  0  0  0
  -19.6694  -27.3198   20.6742 H   0  0  0  0  0  0
  -17.4207  -26.6656   21.4038 H   0  0  0  0  0  0
  -18.0361  -26.0065   22.9034 H   0  0  0  0  0  0
  -19.7947  -30.7246   24.2305 H   0  0  0  0  0  0
  -17.5038  -31.6266   24.5166 H   0  0  0  0  0  0
  -15.5369  -30.3016   23.7632 H   0  0  0  0  0  0
  -15.8677  -28.0826   22.7084 H   0  0  0  0  0  0
  -24.5913  -30.7020   25.7740 H   0  0  0  0  0  0
  -24.8910  -32.2845   26.4838 H   0  0  0  0  0  0
  -25.8045  -30.8863   27.0201 H   0  0  0  0  0  0
  -26.2905  -29.6719   24.1176 H   0  0  0  0  0  0
  -27.4035  -29.7211   25.4643 H   0  0  0  0  0  0
  -27.8782  -30.4236   23.9371 H   0  0  0  0  0  0
  -27.2680  -33.3584   26.2039 H   0  0  0  0  0  0
  -28.3877  -32.6826   25.0294 H   0  0  0  0  0  0
  -28.0734  -31.8399   26.5383 H   0  0  0  0  0  0
  -28.2596  -38.0099   24.7495 H   0  0  0  0  0  0
  -28.1078  -36.2629   24.6308 H   0  0  0  0  0  0
  -27.2297  -37.1472   25.8866 H   0  0  0  0  0  0
  -20.9369  -29.8790   21.6866 H   0  0  0  0  0  0
  -26.0177  -38.2852   24.1393 H   0  0  0  0  0  0
  -29.0864  -20.2048   18.4967 H   0  0  0  0  0  0
  -29.6177  -17.9396   17.9772 H   0  0  0  0  0  0
  -28.9733  -19.1978   22.6643 H   0  0  0  0  0  0
  -29.3859  -22.4064   19.3248 H   0  0  0  0  0  0
  -25.9037  -22.2923   21.4971 H   0  0  0  0  0  0
  -26.3137  -22.7081   23.1441 H   0  0  0  0  0  0
  -27.2137  -20.5005   22.3513 H   0  0  0  0  0  0
  -28.4509  -21.5564   23.0132 H   0  0  0  0  0  0
  -31.9961  -18.6376   25.8965 H   0  0  0  0  0  0
  -32.9657  -17.8805   24.6359 H   0  0  0  0  0  0
  -32.0289  -16.8836   25.7461 H   0  0  0  0  0  0
  -29.6691  -15.7159   17.5158 H   0  0  0  0  0  0
  -31.0775  -14.7538   17.9325 H   0  0  0  0  0  0
  -31.2211  -16.4589   17.9520 H   0  0  0  0  0  0
  -27.8065  -25.0257   18.6998 H   0  0  0  0  0  0
  -29.4382  -25.0255   19.2008 H   0  0  0  0  0  0
  -30.8327  -18.8672   23.7616 H   0  0  0  0  0  0
  -29.9015  -17.8098   24.7984 H   0  0  0  0  0  0
  -31.0167  -15.8199   23.6166 H   0  0  0  0  0  0
  -31.7159  -16.9418   22.4790 H   0  0  0  0  0  0
  1 25  1  0  0  0
  1 30  2  0  0  0
  1 88  1  0  0  0
  2  3  1  0  0  0
  2 25  1  0  0  0
  2 91  1  0  0  0
  2 92  1  0  0  0
  3  4  1  0  0  0
  3 93  1  0  0  0
  3 94  1  0  0  0
  4  5  1  0  0  0
  4 95  1  0  0  0
  4 96  1  0  0  0
  5  6  1  0  0  0
  5 26  1  0  0  0
  5 97  1  0  0  0
  6 25  1  0  0  0
  6 98  1  0  0  0
  6 99  1  0  0  0
  7  8  2  0  0  0
  7 26  1  0  0  0
  7 29  1  0  0  0
  8  9  1  0  0  0
  8 22  1  0  0  0
  9 10  1  0  0  0
  9 27  2  0  0  0
 10 11  2  0  0  0
 10 15  1  0  0  0
 11 12  1  0  0  0
 11100  1  0  0  0
 12 13  2  0  0  0
 12101  1  0  0  0
 13 14  1  0  0  0
 13 31  1  0  0  0
 14 15  2  0  0  0
 14102  1  0  0  0
 15103  1  0  0  0
 16 17  2  0  0  0
 16 21  1  0  0  0
 16 31  1  0  0  0
 17 18  1  0  0  0
 17104  1  0  0  0
 18 19  2  0  0  0
 18105  1  0  0  0
 19 20  1  0  0  0
 19 24  1  0  0  0
 20 21  2  0  0  0
 20106  1  0  0  0
 21 23  1  0  0  0
 22 28  1  0  0  0
 22 32  2  0  0  0
 26 27  1  0  0  0
 28107  1  0  0  0
 28108  1  0  0  0
 29109  1  0  0  0
 29110  1  0  0  0
 33 34  1  0  0  0
 33 66  1  0  0  0
 33 70  2  0  0  0
 34 36  1  0  0  0
 34 59  1  0  0  0
 34111  1  0  0  0
 35 44  2  0  0  0
 35 45  1  0  0  0
 35 68  1  0  0  0
 36 56  1  0  0  0
 36112  1  0  0  0
 37 39  1  0  0  0
 37 47  1  0  0  0
 37 66  1  0  0  0
 37113  1  0  0  0
 38 43  2  0  0  0
 38 46  1  0  0  0
 38 47  1  0  0  0
 39 64  1  0  0  0
 39 67  2  0  0  0
 40 52  1  0  0  0
 40 53  2  0  0  0
 40 58  1  0  0  0
 41114  1  0  0  0
 41115  1  0  0  0
 41116  1  0  0  0
 41 48  1  0  0  0
 42 43  1  0  0  0
 42 66  1  0  0  0
 42117  1  0  0  0
 42118  1  0  0  0
 43 44  1  0  0  0
 44119  1  0  0  0
 45 46  2  0  0  0
 45120  1  0  0  0
 46121  1  0  0  0
 47122  1  0  0  0
 47123  1  0  0  0
 48 56  1  0  0  0
 48 65  1  0  0  0
 48124  1  0  0  0
 49 50  1  0  0  0
 49 53  1  0  0  0
 49 64  1  0  0  0
 49125  1  0  0  0
 50 51  1  0  0  0
 50126  1  0  0  0
 50127  1  0  0  0
 51 52  1  0  0  0
 51128  1  0  0  0
 51129  1  0  0  0
 52130  1  0  0  0
 52131  1  0  0  0
 53 54  1  0  0  0
 54 55  2  0  0  0
 54132  1  0  0  0
 55 57  1  0  0  0
 55133  1  0  0  0
 56 69  2  0  0  0
 57 58  2  0  0  0
 57134  1  0  0  0
 58135  1  0  0  0
 59 60  1  0  0  0
 59 61  1  0  0  0
 59 62  1  0  0  0
 60136  1  0  0  0
 60137  1  0  0  0
 60138  1  0  0  0
 61139  1  0  0  0
 61140  1  0  0  0
 61141  1  0  0  0
 62142  1  0  0  0
 62143  1  0  0  0
 62144  1  0  0  0
 63 65  1  0  0  0
 63145  1  0  0  0
 63146  1  0  0  0
 63147  1  0  0  0
 64148  1  0  0  0
 65149  1  0  0  0
 68 84  1  0  0  0
 71 72  2  0  0  0
 71 74  1  0  0  0
 71150  1  0  0  0
 72 75  1  0  0  0
 72151  1  0  0  0
 73 74  2  0  0  0
 73 76  1  0  0  0
 73152  1  0  0  0
 74 87  1  0  0  0
 75 76  2  0  0  0
 75 88  1  0  0  0
 76 90  1  0  0  0
 77 78  2  0  0  0
 77 87  1  0  0  0
 77153  1  0  0  0
 78 79  1  0  0  0
 78 84  1  0  0  0
 79 80  1  0  0  0
 79 89  2  0  0  0
 80 81  1  0  0  0
 80154  1  0  0  0
 80155  1  0  0  0
 81 87  1  0  0  0
 81156  1  0  0  0
 81157  1  0  0  0
 82 85  1  0  0  0
 82158  1  0  0  0
 82159  1  0  0  0
 82160  1  0  0  0
 83 88  1  0  0  0
 83161  1  0  0  0
 83162  1  0  0  0
 83163  1  0  0  0
 84164  1  0  0  0
 84165  1  0  0  0
 85 86  1  0  0  0
 85166  1  0  0  0
 85167  1  0  0  0
 86 90  1  0  0  0
 86168  1  0  0  0
 86169  1  0  0  0
M  ISO  4   1 100  68 101  84 101  88 100
M  END
> <chiral flag>
0

> <version>
0

> <s_m_source_file>
/data/baiqing/PycharmProjects/Reinvent-master-3.2/result/LINK_invent/BTK/process_docking_weight1_custom_product_contain_oxygen_bond_distance_aromatic_linkinvent_7_9_3/rearranged_h_0105.sdf

> <i_m_source_file_index>
43

> <r_mmod_Potential_Energy-OPLS-2005>
350.723693847656

> <r_mmod_Stretch_Energy-OPLS-2005>
106.640853881836

> <r_mmod_Bend_Energy-OPLS-2005>
179.473403930664

> <r_mmod_Torsional_Energy-OPLS-2005>
296.738922119141

> <r_mmod_Improper_Torsional_Energy-OPLS-2005>
32.2312507629395

> <r_mmod_Van_der_Waal_Energy-OPLS-2005>
169.416732788086

> <r_mmod_Electrostatic_Energy-OPLS-2005>
-313.352874755859

> <r_mmod_Solvation_Energy-OPLS-2005>
-210.821319580078

> <b_mmod_Minimization_Converged-OPLS-2005>
0

> <r_mmod_RMS_Derivative-OPLS-2005>
2.11353898048401

$$$$
43
                    3D
 Structure written by MMmdl.
158167  0  0  1  0            999 V2000
  -30.5179  -14.9053   20.4467 C   0  0  0  0  0  0
  -30.4552  -12.5587   19.4925 C   0  0  0  0  0  0
  -29.5276  -12.5344   18.2535 C   0  0  0  0  0  0
  -28.0568  -12.3256   18.6663 C   0  0  0  0  0  0
  -27.6403  -13.2381   19.8493 C   0  0  2  0  0  0
  -28.6843  -13.2078   20.9873 C   0  0  0  0  0  0
  -25.2480  -13.8174   20.5644 C   0  0  0  0  0  0
  -24.1798  -13.0421   20.9218 C   0  0  0  0  0  0
  -24.6408  -11.6907   20.8759 C   0  0  0  0  0  0
  -23.9083  -10.4285   21.0414 C   0  0  0  0  0  0
  -24.3628   -9.4198   21.9191 C   0  0  0  0  0  0
  -23.6296   -8.2237   22.0758 C   0  0  0  0  0  0
  -22.4278   -8.0280   21.3547 C   0  0  0  0  0  0
  -21.9919   -9.0257   20.4650 C   0  0  0  0  0  0
  -22.7255  -10.2132   20.3060 C   0  0  0  0  0  0
  -21.6851   -6.0736   22.5279 C   0  0  0  0  0  0
  -21.4015   -6.5639   23.8213 C   0  0  0  0  0  0
  -21.3660   -5.6791   24.9174 C   0  0  0  0  0  0
  -21.6043   -4.3054   24.7224 C   0  0  0  0  0  0
  -21.8819   -3.8147   23.4345 C   0  0  0  0  0  0
  -21.9191   -4.6964   22.3401 C   0  0  0  0  0  0
  -22.7818  -13.5207   21.1869 C   0  0  0  0  0  0
  -22.1660   -4.2150   21.0978 F   0  0  0  0  0  0
  -21.5626   -3.4537   25.7737 F   0  0  0  0  0  0
  -29.9707  -13.6263   20.4087 N   0  0  0  0  0  0
  -26.2931  -12.9404   20.3258 N   0  0  0  0  0  0
  -25.9344  -11.6545   20.5756 N   0  0  0  0  0  0
  -22.0460  -12.8208   22.0430 N   0  0  0  0  0  0
  -25.4085  -15.1883   20.3931 N   0  0  0  0  0  0
  -31.6995  -15.0471   20.1110 O   0  0  0  0  0  0
  -21.6637   -6.8881   21.4242 O   0  0  0  0  0  0
  -22.3504  -14.5510   20.6707 O   0  0  0  0  0  0
  -24.6418  -31.8457   23.1894 C   0  0  0  0  0  0
  -25.9196  -32.4704   23.8279 C   0  0  1  0  0  0
  -27.2225  -27.1559   20.1497 C   0  0  0  0  0  0
  -25.5945  -33.8509   24.2194 N   0  0  0  0  0  0
  -23.4444  -30.4652   21.5353 C   0  0  2  0  0  0
  -24.8939  -28.8928   20.1145 C   0  0  0  0  0  0
  -22.7558  -29.4557   22.4876 C   0  0  0  0  0  0
  -18.0302  -28.1396   22.8479 C   0  0  0  0  0  0
  -24.1490  -36.7264   23.2643 C   0  0  0  0  0  0
  -25.9990  -30.7262   21.3845 C   0  0  0  0  0  0
  -26.0714  -29.3382   20.7283 C   0  0  0  0  0  0
  -27.2376  -28.4869   20.7263 C   0  0  0  0  0  0
  -26.0170  -26.8065   19.5010 C   0  0  0  0  0  0
  -24.8783  -27.6392   19.4864 C   0  0  0  0  0  0
  -23.6697  -29.7930   20.1556 C   0  0  0  0  0  0
  -25.4121  -36.3038   24.0316 C   0  0  1  0  0  0
  -20.5913  -28.3719   23.1243 C   0  0  2  0  0  0
  -20.6787  -26.9425   22.5405 C   0  0  0  0  0  0
  -19.5761  -26.6382   21.5214 C   0  0  0  0  0  0
  -18.1942  -26.7934   22.1626 C   0  0  0  0  0  0
  -19.1558  -28.8876   23.2852 C   0  0  0  0  0  0
  -18.9476  -30.1472   23.8877 C   0  0  0  0  0  0
  -17.6473  -30.6592   24.0561 C   0  0  0  0  0  0
  -25.9071  -34.9412   23.5065 C   0  0  0  0  0  0
  -16.5363  -29.9086   23.6336 C   0  0  0  0  0  0
  -16.7287  -28.6505   23.0356 C   0  0  0  0  0  0
  -26.4518  -31.6567   25.0716 C   0  0  0  0  0  0
  -25.3705  -31.3757   26.1415 C   0  0  0  0  0  0
  -27.0381  -30.2965   24.6287 C   0  0  0  0  0  0
  -27.6045  -32.4334   25.7505 C   0  0  0  0  0  0
  -27.5574  -37.1788   24.8464 C   0  0  0  0  0  0
  -21.4253  -29.3047   22.3618 N   0  0  0  0  0  0
  -26.4286  -37.3750   23.9407 N   0  0  0  0  0  0
  -24.7150  -31.0329   22.0919 N   0  0  0  0  0  0
  -23.4208  -28.8107   23.3022 O   0  0  0  0  0  0
  -28.2955  -26.1977   20.1885 O   0  0  0  0  0  0
  -26.5660  -34.8908   22.4645 O   0  0  0  0  0  0
  -23.5541  -32.1324   23.7125 O   0  0  0  0  0  0
  -30.2447  -19.9216   20.0678 C   0  0  0  0  0  0
  -30.4473  -18.4697   20.0483 C   0  0  0  0  0  0
  -28.2721  -19.6166   21.3138 C   0  0  0  0  0  0
  -28.4627  -18.1833   21.3079 C   0  0  0  0  0  0
  -29.1469  -20.5861   20.7271 C   0  0  0  0  0  0
  -29.5740  -17.5128   20.6824 C   0  0  0  0  0  0
  -29.2820  -22.4012   22.3250 C   0  0  0  0  0  0
  -30.0654  -23.6995   22.4456 C   0  0  0  0  0  0
  -30.3909  -24.0165   20.9927 C   0  0  0  0  0  0
  -29.1808  -23.4364   20.2613 C   0  0  2  0  0  0
  -27.4121  -17.3880   22.0696 C   0  0  0  0  0  0
  -28.0352  -24.6703   20.3123 C   0  0  0  0  0  0
  -28.9785  -22.0846   21.0440 N   0  0  0  0  0  0
  -29.6477  -15.9830   20.7227 N   0  0  0  0  0  0
  -28.9979  -21.7405   23.3294 O   0  0  0  0  0  0
  -31.4874  -12.7305   19.1831 H   0  0  0  0  0  0
  -30.4531  -11.5915   19.9976 H   0  0  0  0  0  0
  -29.8392  -11.7487   17.5638 H   0  0  0  0  0  0
  -29.6229  -13.4746   17.7079 H   0  0  0  0  0  0
  -27.9410  -11.2793   18.9518 H   0  0  0  0  0  0
  -27.3966  -12.4825   17.8127 H   0  0  0  0  0  0
  -27.6202  -14.2521   19.4493 H   0  0  0  0  0  0
  -28.7593  -12.2087   21.4191 H   0  0  0  0  0  0
  -28.3880  -13.8677   21.8040 H   0  0  0  0  0  0
  -25.2771   -9.5669   22.4769 H   0  0  0  0  0  0
  -23.9999   -7.4627   22.7478 H   0  0  0  0  0  0
  -21.0849   -8.8784   19.8956 H   0  0  0  0  0  0
  -22.3719  -10.9674   19.6170 H   0  0  0  0  0  0
  -21.2011   -7.6148   23.9719 H   0  0  0  0  0  0
  -21.1481   -6.0519   25.9078 H   0  0  0  0  0  0
  -22.0598   -2.7609   23.2843 H   0  0  0  0  0  0
  -22.4076  -11.9879   22.4837 H   0  0  0  0  0  0
  -21.1077  -13.1236   22.2627 H   0  0  0  0  0  0
  -24.6218  -15.8227   20.4744 H   0  0  0  0  0  0
  -26.2216  -15.6210   19.9759 H   0  0  0  0  0  0
  -26.7263  -32.5318   23.1012 H   0  0  0  0  0  0
  -25.0055  -33.9624   25.0315 H   0  0  0  0  0  0
  -22.7459  -31.2904   21.3811 H   0  0  0  0  0  0
  -23.3753  -35.9595   23.3293 H   0  0  0  0  0  0
  -24.3576  -36.8909   22.2060 H   0  0  0  0  0  0
  -23.7244  -37.6457   23.6687 H   0  0  0  0  0  0
  -26.1499  -31.4805   20.6110 H   0  0  0  0  0  0
  -26.8714  -30.7782   22.0245 H   0  0  0  0  0  0
  -28.1377  -28.8269   21.2187 H   0  0  0  0  0  0
  -25.9222  -25.8569   18.9988 H   0  0  0  0  0  0
  -23.9800  -27.2935   18.9932 H   0  0  0  0  0  0
  -23.8050  -30.5661   19.3985 H   0  0  0  0  0  0
  -22.7849  -29.2334   19.8466 H   0  0  0  0  0  0
  -25.1308  -36.1868   25.0808 H   0  0  0  0  0  0
  -21.0004  -28.3307   24.1365 H   0  0  0  0  0  0
  -20.5684  -26.2332   23.3623 H   0  0  0  0  0  0
  -21.6653  -26.7435   22.1203 H   0  0  0  0  0  0
  -19.6923  -25.6288   21.1257 H   0  0  0  0  0  0
  -19.6697  -27.3182   20.6734 H   0  0  0  0  0  0
  -17.4211  -26.6678   21.4029 H   0  0  0  0  0  0
  -18.0343  -26.0081   22.9028 H   0  0  0  0  0  0
  -19.7951  -30.7293   24.2238 H   0  0  0  0  0  0
  -17.5026  -31.6271   24.5165 H   0  0  0  0  0  0
  -15.5363  -30.2982   23.7670 H   0  0  0  0  0  0
  -15.8688  -28.0817   22.7082 H   0  0  0  0  0  0
  -24.5887  -30.7101   25.7738 H   0  0  0  0  0  0
  -24.8892  -32.2942   26.4785 H   0  0  0  0  0  0
  -25.7992  -30.8967   27.0228 H   0  0  0  0  0  0
  -26.2996  -29.6692   24.1283 H   0  0  0  0  0  0
  -27.3985  -29.7259   25.4856 H   0  0  0  0  0  0
  -27.8906  -30.4202   23.9605 H   0  0  0  0  0  0
  -27.2631  -33.3647   26.2035 H   0  0  0  0  0  0
  -28.3885  -32.6876   25.0359 H   0  0  0  0  0  0
  -28.0684  -31.8495   26.5466 H   0  0  0  0  0  0
  -28.2584  -38.0091   24.7508 H   0  0  0  0  0  0
  -28.1077  -36.2620   24.6291 H   0  0  0  0  0  0
  -27.2293  -37.1438   25.8867 H   0  0  0  0  0  0
  -20.9462  -29.8756   21.6794 H   0  0  0  0  0  0
  -26.0153  -38.2818   24.1410 H   0  0  0  0  0  0
  -31.0011  -20.5388   19.6033 H   0  0  0  0  0  0
  -31.3196  -18.0919   19.5332 H   0  0  0  0  0  0
  -27.4213  -19.9972   21.8628 H   0  0  0  0  0  0
  -30.9624  -23.5768   23.0527 H   0  0  0  0  0  0
  -29.4367  -24.4665   22.8985 H   0  0  0  0  0  0
  -31.3038  -23.5011   20.6884 H   0  0  0  0  0  0
  -30.5411  -25.0815   20.8136 H   0  0  0  0  0  0
  -29.4444  -23.2282   19.2239 H   0  0  0  0  0  0
  -27.4720  -17.6230   23.1327 H   0  0  0  0  0  0
  -27.5031  -16.3087   21.9708 H   0  0  0  0  0  0
  -26.4145  -17.6627   21.7258 H   0  0  0  0  0  0
  -27.4995  -24.5652   21.2562 H   0  0  0  0  0  0
  -27.3051  -24.3890   19.5570 H   0  0  0  0  0  0
  -28.7711  -15.5927   21.0299 H   0  0  0  0  0  0
  1 25  1  0  0  0
  1 30  2  0  0  0
  1 84  1  0  0  0
  2  3  1  0  0  0
  2 25  1  0  0  0
  2 86  1  0  0  0
  2 87  1  0  0  0
  3  4  1  0  0  0
  3 88  1  0  0  0
  3 89  1  0  0  0
  4  5  1  0  0  0
  4 90  1  0  0  0
  4 91  1  0  0  0
  5  6  1  0  0  0
  5 26  1  0  0  0
  5 92  1  0  0  0
  6 25  1  0  0  0
  6 93  1  0  0  0
  6 94  1  0  0  0
  7  8  2  0  0  0
  7 26  1  0  0  0
  7 29  1  0  0  0
  8  9  1  0  0  0
  8 22  1  0  0  0
  9 10  1  0  0  0
  9 27  2  0  0  0
 10 11  2  0  0  0
 10 15  1  0  0  0
 11 12  1  0  0  0
 11 95  1  0  0  0
 12 13  2  0  0  0
 12 96  1  0  0  0
 13 14  1  0  0  0
 13 31  1  0  0  0
 14 15  2  0  0  0
 14 97  1  0  0  0
 15 98  1  0  0  0
 16 17  2  0  0  0
 16 21  1  0  0  0
 16 31  1  0  0  0
 17 18  1  0  0  0
 17 99  1  0  0  0
 18 19  2  0  0  0
 18100  1  0  0  0
 19 20  1  0  0  0
 19 24  1  0  0  0
 20 21  2  0  0  0
 20101  1  0  0  0
 21 23  1  0  0  0
 22 28  1  0  0  0
 22 32  2  0  0  0
 26 27  1  0  0  0
 28102  1  0  0  0
 28103  1  0  0  0
 29104  1  0  0  0
 29105  1  0  0  0
 33 34  1  0  0  0
 33 66  1  0  0  0
 33 70  2  0  0  0
 34 36  1  0  0  0
 34 59  1  0  0  0
 34106  1  0  0  0
 35 44  2  0  0  0
 35 45  1  0  0  0
 35 68  1  0  0  0
 36 56  1  0  0  0
 36107  1  0  0  0
 37 39  1  0  0  0
 37 47  1  0  0  0
 37 66  1  0  0  0
 37108  1  0  0  0
 38 43  2  0  0  0
 38 46  1  0  0  0
 38 47  1  0  0  0
 39 64  1  0  0  0
 39 67  2  0  0  0
 40 52  1  0  0  0
 40 53  2  0  0  0
 40 58  1  0  0  0
 41109  1  0  0  0
 41110  1  0  0  0
 41111  1  0  0  0
 41 48  1  0  0  0
 42 43  1  0  0  0
 42 66  1  0  0  0
 42112  1  0  0  0
 42113  1  0  0  0
 43 44  1  0  0  0
 44114  1  0  0  0
 45 46  2  0  0  0
 45115  1  0  0  0
 46116  1  0  0  0
 47117  1  0  0  0
 47118  1  0  0  0
 48 56  1  0  0  0
 48 65  1  0  0  0
 48119  1  0  0  0
 49 50  1  0  0  0
 49 53  1  0  0  0
 49 64  1  0  0  0
 49120  1  0  0  0
 50 51  1  0  0  0
 50121  1  0  0  0
 50122  1  0  0  0
 51 52  1  0  0  0
 51123  1  0  0  0
 51124  1  0  0  0
 52125  1  0  0  0
 52126  1  0  0  0
 53 54  1  0  0  0
 54 55  2  0  0  0
 54127  1  0  0  0
 55 57  1  0  0  0
 55128  1  0  0  0
 56 69  2  0  0  0
 57 58  2  0  0  0
 57129  1  0  0  0
 58130  1  0  0  0
 59 60  1  0  0  0
 59 61  1  0  0  0
 59 62  1  0  0  0
 60131  1  0  0  0
 60132  1  0  0  0
 60133  1  0  0  0
 61134  1  0  0  0
 61135  1  0  0  0
 61136  1  0  0  0
 62137  1  0  0  0
 62138  1  0  0  0
 62139  1  0  0  0
 63 65  1  0  0  0
 63140  1  0  0  0
 63141  1  0  0  0
 63142  1  0  0  0
 64143  1  0  0  0
 65144  1  0  0  0
 68 82  1  0  0  0
 71 72  2  0  0  0
 71 75  1  0  0  0
 71145  1  0  0  0
 72 76  1  0  0  0
 72146  1  0  0  0
 73 74  1  0  0  0
 73 75  2  0  0  0
 73147  1  0  0  0
 74 76  2  0  0  0
 74 81  1  0  0  0
 75 83  1  0  0  0
 76 84  1  0  0  0
 77 78  1  0  0  0
 77 83  1  0  0  0
 77 85  2  0  0  0
 78 79  1  0  0  0
 78148  1  0  0  0
 78149  1  0  0  0
 79 80  1  0  0  0
 79150  1  0  0  0
 79151  1  0  0  0
 80 82  1  0  0  0
 80 83  1  0  0  0
 80152  1  0  0  0
 81153  1  0  0  0
 81154  1  0  0  0
 81155  1  0  0  0
 82156  1  0  0  0
 82157  1  0  0  0
 84158  1  0  0  0
M  ISO  4   1 100  68 101  82 101  84 100
M  END
> <chiral flag>
0

> <version>
0

> <s_m_source_file>
/data/baiqing/PycharmProjects/Reinvent-master-3.2/result/LINK_invent/BTK/process_docking_weight1_custom_product_contain_oxygen_bond_distance_aromatic_linkinvent_7_9_3/rearranged_h_0105.sdf

> <i_m_source_file_index>
44

> <r_mmod_Potential_Energy-OPLS-2005>
552.936889648438

> <r_mmod_Stretch_Energy-OPLS-2005>
227.273803710938

> <r_mmod_Bend_Energy-OPLS-2005>
308.938873291016

> <r_mmod_Torsional_Energy-OPLS-2005>
310.801177978516

> <r_mmod_Improper_Torsional_Energy-OPLS-2005>
6.81311988830566

> <r_mmod_Van_der_Waal_Energy-OPLS-2005>
132.208877563477

> <r_mmod_Electrostatic_Energy-OPLS-2005>
-379.520568847656

> <r_mmod_Solvation_Energy-OPLS-2005>
-219.796157836914

> <b_mmod_Minimization_Converged-OPLS-2005>
0

> <r_mmod_RMS_Derivative-OPLS-2005>
0.370410859584808

$$$$
44
                    3D
 Structure written by MMmdl.
158167  0  0  1  0            999 V2000
  -30.6104  -14.7486   20.4979 C   0  0  0  0  0  0
  -30.4372  -12.4680   19.4744 C   0  0  0  0  0  0
  -29.5131  -12.5327   18.2377 C   0  0  0  0  0  0
  -28.0393  -12.3529   18.6427 C   0  0  0  0  0  0
  -27.6461  -13.2328   19.8582 C   0  0  2  0  0  0
  -28.6890  -13.1489   20.9969 C   0  0  0  0  0  0
  -25.2570  -13.8209   20.5719 C   0  0  0  0  0  0
  -24.1842  -13.0458   20.9187 C   0  0  0  0  0  0
  -24.6422  -11.6920   20.8707 C   0  0  0  0  0  0
  -23.9091  -10.4298   21.0382 C   0  0  0  0  0  0
  -24.3633   -9.4187   21.9136 C   0  0  0  0  0  0
  -23.6295   -8.2237   22.0734 C   0  0  0  0  0  0
  -22.4270   -8.0279   21.3530 C   0  0  0  0  0  0
  -21.9917   -9.0255   20.4622 C   0  0  0  0  0  0
  -22.7274  -10.2122   20.3016 C   0  0  0  0  0  0
  -21.6863   -6.0715   22.5259 C   0  0  0  0  0  0
  -21.4016   -6.5635   23.8196 C   0  0  0  0  0  0
  -21.3674   -5.6783   24.9156 C   0  0  0  0  0  0
  -21.6054   -4.3057   24.7222 C   0  0  0  0  0  0
  -21.8831   -3.8142   23.4335 C   0  0  0  0  0  0
  -21.9205   -4.6960   22.3391 C   0  0  0  0  0  0
  -22.7869  -13.5239   21.1834 C   0  0  0  0  0  0
  -22.1657   -4.2150   21.0965 F   0  0  0  0  0  0
  -21.5637   -3.4530   25.7715 F   0  0  0  0  0  0
  -30.0007  -13.5099   20.4401 N   0  0  0  0  0  0
  -26.2995  -12.9414   20.3344 N   0  0  0  0  0  0
  -25.9365  -11.6557   20.5767 N   0  0  0  0  0  0
  -22.0517  -12.8198   22.0395 N   0  0  0  0  0  0
  -25.4302  -15.1932   20.4117 N   0  0  0  0  0  0
  -31.7537  -14.8858   20.0472 O   0  0  0  0  0  0
  -21.6659   -6.8863   21.4234 O   0  0  0  0  0  0
  -22.3525  -14.5516   20.6618 O   0  0  0  0  0  0
  -24.6285  -31.8563   23.2007 C   0  0  0  0  0  0
  -25.9133  -32.4740   23.8330 C   0  0  1  0  0  0
  -27.2178  -27.2625   20.1512 C   0  0  0  0  0  0
  -25.5970  -33.8552   24.2275 N   0  0  0  0  0  0
  -23.4231  -30.4794   21.5409 C   0  0  2  0  0  0
  -24.8749  -28.9291   20.1087 C   0  0  0  0  0  0
  -22.7473  -29.4609   22.4893 C   0  0  0  0  0  0
  -18.0305  -28.1371   22.8475 C   0  0  0  0  0  0
  -24.1512  -36.7297   23.2631 C   0  0  0  0  0  0
  -25.9650  -30.7726   21.3807 C   0  0  0  0  0  0
  -26.0410  -29.3922   20.7312 C   0  0  0  0  0  0
  -27.2101  -28.5686   20.7472 C   0  0  0  0  0  0
  -26.0409  -26.8852   19.4628 C   0  0  0  0  0  0
  -24.8793  -27.6819   19.4645 C   0  0  0  0  0  0
  -23.6459  -29.8170   20.1551 C   0  0  0  0  0  0
  -25.4131  -36.3049   24.0312 C   0  0  1  0  0  0
  -20.5901  -28.3695   23.1279 C   0  0  2  0  0  0
  -20.6802  -26.9413   22.5423 C   0  0  0  0  0  0
  -19.5781  -26.6368   21.5224 C   0  0  0  0  0  0
  -18.1955  -26.7918   22.1616 C   0  0  0  0  0  0
  -19.1543  -28.8844   23.2880 C   0  0  0  0  0  0
  -18.9458  -30.1446   23.8894 C   0  0  0  0  0  0
  -17.6448  -30.6583   24.0557 C   0  0  0  0  0  0
  -25.9054  -34.9427   23.5077 C   0  0  0  0  0  0
  -16.5354  -29.9075   23.6315 C   0  0  0  0  0  0
  -16.7279  -28.6498   23.0328 C   0  0  0  0  0  0
  -26.4525  -31.6532   25.0695 C   0  0  0  0  0  0
  -25.3785  -31.3661   26.1437 C   0  0  0  0  0  0
  -27.0348  -30.2931   24.6141 C   0  0  0  0  0  0
  -27.6058  -32.4261   25.7504 C   0  0  0  0  0  0
  -27.5584  -37.1805   24.8452 C   0  0  0  0  0  0
  -21.4198  -29.3043   22.3651 N   0  0  0  0  0  0
  -26.4290  -37.3759   23.9393 N   0  0  0  0  0  0
  -24.6898  -31.0552   22.0973 N   0  0  0  0  0  0
  -23.4171  -28.8148   23.3005 O   0  0  0  0  0  0
  -28.3137  -26.3737   20.2560 O   0  0  0  0  0  0
  -26.5593  -34.8887   22.4617 O   0  0  0  0  0  0
  -23.5440  -32.1401   23.7311 O   0  0  0  0  0  0
  -29.8114  -18.4795   21.0070 C   0  0  0  0  0  0
  -28.4964  -19.5837   19.2765 C   0  0  0  0  0  0
  -28.8272  -17.1459   19.2262 C   0  0  0  0  0  0
  -29.2798  -19.7207   20.4408 C   0  0  0  0  0  0
  -29.5890  -17.1597   20.4161 C   0  0  0  0  0  0
  -28.2841  -18.3261   18.6748 C   0  0  0  0  0  0
  -27.4375  -22.1299   21.7440 C   0  0  0  0  0  0
  -27.0595  -23.3623   22.5531 C   0  0  0  0  0  0
  -28.3431  -24.1857   22.4681 C   0  0  0  0  0  0
  -28.8703  -23.8410   21.0681 C   0  0  2  0  0  0
  -29.5766  -21.2122   20.9517 C   0  0  0  0  0  0
  -28.1509  -24.8864   20.0586 C   0  0  0  0  0  0
  -28.5325  -22.3389   20.9825 N   0  0  0  0  0  0
  -29.9107  -15.8319   21.0155 N   0  0  0  0  0  0
  -26.8558  -21.0549   21.9131 O   0  0  0  0  0  0
  -27.5266  -18.2533   17.5522 F   0  0  0  0  0  0
  -31.4757  -12.5974   19.1632 H   0  0  0  0  0  0
  -30.3934  -11.4796   19.9337 H   0  0  0  0  0  0
  -29.7985  -11.7668   17.5152 H   0  0  0  0  0  0
  -29.6435  -13.4948   17.7394 H   0  0  0  0  0  0
  -27.8879  -11.3004   18.8764 H   0  0  0  0  0  0
  -27.3896  -12.5661   17.7900 H   0  0  0  0  0  0
  -27.6401  -14.2572   19.4887 H   0  0  0  0  0  0
  -28.7285  -12.1438   21.4180 H   0  0  0  0  0  0
  -28.4099  -13.8091   21.8206 H   0  0  0  0  0  0
  -25.2757   -9.5686   22.4728 H   0  0  0  0  0  0
  -24.0020   -7.4638   22.7465 H   0  0  0  0  0  0
  -21.0857   -8.8746   19.8944 H   0  0  0  0  0  0
  -22.3681  -10.9653   19.6127 H   0  0  0  0  0  0
  -21.1970   -7.6130   23.9687 H   0  0  0  0  0  0
  -21.1510   -6.0510   25.9052 H   0  0  0  0  0  0
  -22.0593   -2.7604   23.2826 H   0  0  0  0  0  0
  -22.4102  -11.9891   22.4851 H   0  0  0  0  0  0
  -21.1099  -13.1156   22.2496 H   0  0  0  0  0  0
  -24.6708  -15.8557   20.5160 H   0  0  0  0  0  0
  -26.2956  -15.6319   20.1237 H   0  0  0  0  0  0
  -26.7187  -32.5414   23.1067 H   0  0  0  0  0  0
  -25.0213  -33.9708   25.0477 H   0  0  0  0  0  0
  -22.7170  -31.3011   21.3968 H   0  0  0  0  0  0
  -23.3752  -35.9647   23.3258 H   0  0  0  0  0  0
  -24.3617  -36.8945   22.2048 H   0  0  0  0  0  0
  -23.7288  -37.6494   23.6681 H   0  0  0  0  0  0
  -26.1024  -31.5310   20.6082 H   0  0  0  0  0  0
  -26.8416  -30.8251   22.0132 H   0  0  0  0  0  0
  -28.0909  -28.9110   21.2728 H   0  0  0  0  0  0
  -25.9886  -25.9537   18.9188 H   0  0  0  0  0  0
  -23.9940  -27.3308   18.9536 H   0  0  0  0  0  0
  -23.7723  -30.5980   19.4037 H   0  0  0  0  0  0
  -22.7635  -29.2556   19.8435 H   0  0  0  0  0  0
  -25.1322  -36.1882   25.0807 H   0  0  0  0  0  0
  -21.0010  -28.3287   24.1394 H   0  0  0  0  0  0
  -20.5733  -26.2298   23.3625 H   0  0  0  0  0  0
  -21.6664  -26.7475   22.1185 H   0  0  0  0  0  0
  -19.6952  -25.6282   21.1238 H   0  0  0  0  0  0
  -19.6727  -27.3179   20.6752 H   0  0  0  0  0  0
  -17.4248  -26.6687   21.3997 H   0  0  0  0  0  0
  -18.0335  -26.0051   22.8995 H   0  0  0  0  0  0
  -19.7940  -30.7268   24.2257 H   0  0  0  0  0  0
  -17.5010  -31.6249   24.5162 H   0  0  0  0  0  0
  -15.5347  -30.2953   23.7654 H   0  0  0  0  0  0
  -15.8690  -28.0807   22.7018 H   0  0  0  0  0  0
  -24.5994  -30.6948   25.7809 H   0  0  0  0  0  0
  -24.8960  -32.2820   26.4850 H   0  0  0  0  0  0
  -25.8166  -30.8889   27.0214 H   0  0  0  0  0  0
  -26.2893  -29.6673   24.1211 H   0  0  0  0  0  0
  -27.4073  -29.7186   25.4635 H   0  0  0  0  0  0
  -27.8769  -30.4171   23.9330 H   0  0  0  0  0  0
  -27.2626  -33.3550   26.2075 H   0  0  0  0  0  0
  -28.3911  -32.6818   25.0381 H   0  0  0  0  0  0
  -28.0673  -31.8383   26.5450 H   0  0  0  0  0  0
  -28.2560  -38.0139   24.7495 H   0  0  0  0  0  0
  -28.1115  -36.2656   24.6273 H   0  0  0  0  0  0
  -27.2297  -37.1438   25.8852 H   0  0  0  0  0  0
  -20.9345  -29.8791   21.6902 H   0  0  0  0  0  0
  -26.0156  -38.2815   24.1393 H   0  0  0  0  0  0
  -30.4081  -18.5457   21.9077 H   0  0  0  0  0  0
  -28.0572  -20.4587   18.8216 H   0  0  0  0  0  0
  -28.6135  -16.2143   18.7322 H   0  0  0  0  0  0
  -26.7795  -23.1112   23.5771 H   0  0  0  0  0  0
  -26.2195  -23.8741   22.0798 H   0  0  0  0  0  0
  -29.0485  -23.8495   23.2297 H   0  0  0  0  0  0
  -28.1808  -25.2522   22.6327 H   0  0  0  0  0  0
  -29.9509  -23.9816   21.0187 H   0  0  0  0  0  0
  -30.3891  -21.5844   20.3294 H   0  0  0  0  0  0
  -30.0108  -21.1472   21.9496 H   0  0  0  0  0  0
  -27.0966  -24.6150   20.0591 H   0  0  0  0  0  0
  -28.5004  -24.6706   19.0499 H   0  0  0  0  0  0
  -29.1707  -15.5000   21.6184 H   0  0  0  0  0  0
  1 25  1  0  0  0
  1 30  2  0  0  0
  1 84  1  0  0  0
  2  3  1  0  0  0
  2 25  1  0  0  0
  2 87  1  0  0  0
  2 88  1  0  0  0
  3  4  1  0  0  0
  3 89  1  0  0  0
  3 90  1  0  0  0
  4  5  1  0  0  0
  4 91  1  0  0  0
  4 92  1  0  0  0
  5  6  1  0  0  0
  5 26  1  0  0  0
  5 93  1  0  0  0
  6 25  1  0  0  0
  6 94  1  0  0  0
  6 95  1  0  0  0
  7  8  2  0  0  0
  7 26  1  0  0  0
  7 29  1  0  0  0
  8  9  1  0  0  0
  8 22  1  0  0  0
  9 10  1  0  0  0
  9 27  2  0  0  0
 10 11  2  0  0  0
 10 15  1  0  0  0
 11 12  1  0  0  0
 11 96  1  0  0  0
 12 13  2  0  0  0
 12 97  1  0  0  0
 13 14  1  0  0  0
 13 31  1  0  0  0
 14 15  2  0  0  0
 14 98  1  0  0  0
 15 99  1  0  0  0
 16 17  2  0  0  0
 16 21  1  0  0  0
 16 31  1  0  0  0
 17 18  1  0  0  0
 17100  1  0  0  0
 18 19  2  0  0  0
 18101  1  0  0  0
 19 20  1  0  0  0
 19 24  1  0  0  0
 20 21  2  0  0  0
 20102  1  0  0  0
 21 23  1  0  0  0
 22 28  1  0  0  0
 22 32  2  0  0  0
 26 27  1  0  0  0
 28103  1  0  0  0
 28104  1  0  0  0
 29105  1  0  0  0
 29106  1  0  0  0
 33 34  1  0  0  0
 33 66  1  0  0  0
 33 70  2  0  0  0
 34 36  1  0  0  0
 34 59  1  0  0  0
 34107  1  0  0  0
 35 44  2  0  0  0
 35 45  1  0  0  0
 35 68  1  0  0  0
 36 56  1  0  0  0
 36108  1  0  0  0
 37 39  1  0  0  0
 37 47  1  0  0  0
 37 66  1  0  0  0
 37109  1  0  0  0
 38 43  2  0  0  0
 38 46  1  0  0  0
 38 47  1  0  0  0
 39 64  1  0  0  0
 39 67  2  0  0  0
 40 52  1  0  0  0
 40 53  2  0  0  0
 40 58  1  0  0  0
 41110  1  0  0  0
 41111  1  0  0  0
 41112  1  0  0  0
 41 48  1  0  0  0
 42 43  1  0  0  0
 42 66  1  0  0  0
 42113  1  0  0  0
 42114  1  0  0  0
 43 44  1  0  0  0
 44115  1  0  0  0
 45 46  2  0  0  0
 45116  1  0  0  0
 46117  1  0  0  0
 47118  1  0  0  0
 47119  1  0  0  0
 48 56  1  0  0  0
 48 65  1  0  0  0
 48120  1  0  0  0
 49 50  1  0  0  0
 49 53  1  0  0  0
 49 64  1  0  0  0
 49121  1  0  0  0
 50 51  1  0  0  0
 50122  1  0  0  0
 50123  1  0  0  0
 51 52  1  0  0  0
 51124  1  0  0  0
 51125  1  0  0  0
 52126  1  0  0  0
 52127  1  0  0  0
 53 54  1  0  0  0
 54 55  2  0  0  0
 54128  1  0  0  0
 55 57  1  0  0  0
 55129  1  0  0  0
 56 69  2  0  0  0
 57 58  2  0  0  0
 57130  1  0  0  0
 58131  1  0  0  0
 59 60  1  0  0  0
 59 61  1  0  0  0
 59 62  1  0  0  0
 60132  1  0  0  0
 60133  1  0  0  0
 60134  1  0  0  0
 61135  1  0  0  0
 61136  1  0  0  0
 61137  1  0  0  0
 62138  1  0  0  0
 62139  1  0  0  0
 62140  1  0  0  0
 63 65  1  0  0  0
 63141  1  0  0  0
 63142  1  0  0  0
 63143  1  0  0  0
 64144  1  0  0  0
 65145  1  0  0  0
 68 82  1  0  0  0
 71 74  2  0  0  0
 71 75  1  0  0  0
 71146  1  0  0  0
 72 74  1  0  0  0
 72 76  2  0  0  0
 72147  1  0  0  0
 73 75  2  0  0  0
 73 76  1  0  0  0
 73148  1  0  0  0
 74 81  1  0  0  0
 75 84  1  0  0  0
 76 86  1  0  0  0
 77 78  1  0  0  0
 77 83  1  0  0  0
 77 85  2  0  0  0
 78 79  1  0  0  0
 78149  1  0  0  0
 78150  1  0  0  0
 79 80  1  0  0  0
 79151  1  0  0  0
 79152  1  0  0  0
 80 82  1  0  0  0
 80 83  1  0  0  0
 80153  1  0  0  0
 81 83  1  0  0  0
 81154  1  0  0  0
 81155  1  0  0  0
 82156  1  0  0  0
 82157  1  0  0  0
 84158  1  0  0  0
M  ISO  4   1 100  68 101  82 101  84 100
M  END
> <chiral flag>
0

> <version>
0

> <s_m_source_file>
/data/baiqing/PycharmProjects/Reinvent-master-3.2/result/LINK_invent/BTK/process_docking_weight1_custom_product_contain_oxygen_bond_distance_aromatic_linkinvent_7_9_3/rearranged_h_0105.sdf

> <i_m_source_file_index>
45

> <r_mmod_Potential_Energy-OPLS-2005>
268.966888427734

> <r_mmod_Stretch_Energy-OPLS-2005>
136.295883178711

> <r_mmod_Bend_Energy-OPLS-2005>
212.601303100586

> <r_mmod_Torsional_Energy-OPLS-2005>
295.161499023438

> <r_mmod_Improper_Torsional_Energy-OPLS-2005>
9.81877040863037

> <r_mmod_Van_der_Waal_Energy-OPLS-2005>
128.615646362305

> <r_mmod_Electrostatic_Energy-OPLS-2005>
-371.014892578125

> <r_mmod_Solvation_Energy-OPLS-2005>
-228.211791992188

> <b_mmod_Minimization_Converged-OPLS-2005>
0

> <r_mmod_RMS_Derivative-OPLS-2005>
5.05900049209595

$$$$
45
                    3D
 Structure written by MMmdl.
164173  0  0  1  0            999 V2000
  -30.7657  -14.4607   20.5487 C   0  0  0  0  0  0
  -30.3995  -12.2992   19.4307 C   0  0  0  0  0  0
  -29.4884  -12.5010   18.2055 C   0  0  0  0  0  0
  -28.0101  -12.3661   18.6162 C   0  0  0  0  0  0
  -27.6528  -13.2220   19.8636 C   0  0  2  0  0  0
  -28.7017  -13.0568   20.9913 C   0  0  0  0  0  0
  -25.2528  -13.8146   20.5666 C   0  0  0  0  0  0
  -24.1822  -13.0397   20.9220 C   0  0  0  0  0  0
  -24.6402  -11.6880   20.8784 C   0  0  0  0  0  0
  -23.9057  -10.4253   21.0438 C   0  0  0  0  0  0
  -24.3584   -9.4156   21.9221 C   0  0  0  0  0  0
  -23.6258   -8.2201   22.0799 C   0  0  0  0  0  0
  -22.4257   -8.0237   21.3568 C   0  0  0  0  0  0
  -21.9888   -9.0213   20.4682 C   0  0  0  0  0  0
  -22.7224  -10.2091   20.3085 C   0  0  0  0  0  0
  -21.6817   -6.0701   22.5279 C   0  0  0  0  0  0
  -21.4008   -6.5624   23.8206 C   0  0  0  0  0  0
  -21.3681   -5.6794   24.9182 C   0  0  0  0  0  0
  -21.6058   -4.3056   24.7245 C   0  0  0  0  0  0
  -21.8814   -3.8128   23.4372 C   0  0  0  0  0  0
  -21.9183   -4.6935   22.3418 C   0  0  0  0  0  0
  -22.7837  -13.5189   21.1845 C   0  0  0  0  0  0
  -22.1647   -4.2110   21.0997 F   0  0  0  0  0  0
  -21.5626   -3.4564   25.7773 F   0  0  0  0  0  0
  -30.0329  -13.3209   20.4244 N   0  0  0  0  0  0
  -26.2996  -12.9362   20.3355 N   0  0  0  0  0  0
  -25.9336  -11.6496   20.5794 N   0  0  0  0  0  0
  -22.0467  -12.8217   22.0433 N   0  0  0  0  0  0
  -25.4115  -15.1856   20.3939 N   0  0  0  0  0  0
  -31.9045  -14.5568   20.0870 O   0  0  0  0  0  0
  -21.6605   -6.8850   21.4242 O   0  0  0  0  0  0
  -22.3516  -14.5461   20.6619 O   0  0  0  0  0  0
  -24.6127  -31.8667   23.2119 C   0  0  0  0  0  0
  -25.9032  -32.4814   23.8417 C   0  0  1  0  0  0
  -27.2302  -27.4240   20.1097 C   0  0  0  0  0  0
  -25.5873  -33.8603   24.2334 N   0  0  0  0  0  0
  -23.4029  -30.4925   21.5488 C   0  0  2  0  0  0
  -24.8515  -28.9557   20.1185 C   0  0  0  0  0  0
  -22.7430  -29.4663   22.4966 C   0  0  0  0  0  0
  -18.0309  -28.1472   22.8507 C   0  0  0  0  0  0
  -24.1473  -36.7318   23.2646 C   0  0  0  0  0  0
  -25.9321  -30.8323   21.3663 C   0  0  0  0  0  0
  -26.0114  -29.4624   20.7206 C   0  0  0  0  0  0
  -27.2058  -28.7006   20.7212 C   0  0  0  0  0  0
  -26.0621  -26.9401   19.4908 C   0  0  0  0  0  0
  -24.8708  -27.6886   19.5086 C   0  0  0  0  0  0
  -23.6127  -29.8219   20.1638 C   0  0  0  0  0  0
  -25.4110  -36.3107   24.0325 C   0  0  1  0  0  0
  -20.5884  -28.3778   23.1378 C   0  0  2  0  0  0
  -20.6823  -26.9466   22.5589 C   0  0  0  0  0  0
  -19.5815  -26.6353   21.5388 C   0  0  0  0  0  0
  -18.1947  -26.7974   22.1700 C   0  0  0  0  0  0
  -19.1549  -28.8936   23.2897 C   0  0  0  0  0  0
  -18.9488  -30.1549   23.8908 C   0  0  0  0  0  0
  -17.6508  -30.6678   24.0594 C   0  0  0  0  0  0
  -25.9032  -34.9463   23.5132 C   0  0  0  0  0  0
  -16.5390  -29.9197   23.6357 C   0  0  0  0  0  0
  -16.7298  -28.6610   23.0373 C   0  0  0  0  0  0
  -26.4473  -31.6593   25.0740 C   0  0  0  0  0  0
  -25.3753  -31.3679   26.1494 C   0  0  0  0  0  0
  -27.0312  -30.3037   24.6124 C   0  0  0  0  0  0
  -27.6035  -32.4327   25.7505 C   0  0  0  0  0  0
  -27.5574  -37.1813   24.8461 C   0  0  0  0  0  0
  -21.4148  -29.3086   22.3734 N   0  0  0  0  0  0
  -26.4302  -37.3788   23.9389 N   0  0  0  0  0  0
  -24.6672  -31.0770   22.1023 N   0  0  0  0  0  0
  -23.4209  -28.8185   23.2990 O   0  0  0  0  0  0
  -28.3752  -26.6592   20.0644 O   0  0  0  0  0  0
  -26.5596  -34.8912   22.4701 O   0  0  0  0  0  0
  -23.5326  -32.1435   23.7526 O   0  0  0  0  0  0
  -30.3995  -19.3132   21.6190 C   0  0  0  0  0  0
  -29.8009  -20.5680   21.3692 C   0  0  0  0  0  0
  -28.4486  -19.5552   19.6395 C   0  0  0  0  0  0
  -30.0487  -18.1593   20.8798 C   0  0  0  0  0  0
  -28.8078  -20.7175   20.3746 C   0  0  0  0  0  0
  -29.0642  -18.2991   19.8681 C   0  0  0  0  0  0
  -28.0078  -24.3016   20.8738 C   0  0  0  0  0  0
  -28.7096  -23.2506   20.3601 C   0  0  0  0  0  0
  -26.6044  -24.0594   21.2573 C   0  0  0  0  0  0
  -25.8620  -23.0373   20.4090 C   0  0  0  0  0  0
  -26.6927  -21.7676   20.1525 C   0  0  0  0  0  0
  -30.1423  -23.4219   19.8696 C   0  0  0  0  0  0
  -30.8396  -16.8632   21.1591 C   0  0  0  0  0  0
  -28.5481  -25.7215   21.1442 C   0  0  0  0  0  0
  -28.1523  -21.9644   20.1696 N   0  0  0  0  0  0
  -28.7057  -17.2162   19.0632 N   0  0  0  0  0  0
  -30.1635  -15.5482   21.0659 N   0  0  0  0  0  0
  -26.0183  -24.6362   22.1776 O   0  0  0  0  0  0
  -31.4485  -12.3469   19.1340 H   0  0  0  0  0  0
  -30.2572  -11.3025   19.8500 H   0  0  0  0  0  0
  -29.7248  -11.7716   17.4306 H   0  0  0  0  0  0
  -29.6712  -13.4835   17.7662 H   0  0  0  0  0  0
  -27.8212  -11.3119   18.8229 H   0  0  0  0  0  0
  -27.3631  -12.6266   17.7761 H   0  0  0  0  0  0
  -27.6771  -14.2643   19.5425 H   0  0  0  0  0  0
  -28.6779  -12.0439   21.3955 H   0  0  0  0  0  0
  -28.4770  -13.7136   21.8310 H   0  0  0  0  0  0
  -25.2726   -9.5601   22.4810 H   0  0  0  0  0  0
  -23.9953   -7.4592   22.7539 H   0  0  0  0  0  0
  -21.0814   -8.8700   19.9013 H   0  0  0  0  0  0
  -22.3662  -10.9596   19.6183 H   0  0  0  0  0  0
  -21.1988   -7.6133   23.9685 H   0  0  0  0  0  0
  -21.1525   -6.0555   25.9074 H   0  0  0  0  0  0
  -22.0579   -2.7582   23.2895 H   0  0  0  0  0  0
  -22.4093  -11.9879   22.4805 H   0  0  0  0  0  0
  -21.1098  -13.1262   22.2637 H   0  0  0  0  0  0
  -24.6035  -15.7994   20.4065 H   0  0  0  0  0  0
  -26.2190  -15.5994   19.9418 H   0  0  0  0  0  0
  -26.7103  -32.5530   23.1190 H   0  0  0  0  0  0
  -24.9971  -33.9767   25.0433 H   0  0  0  0  0  0
  -22.6925  -31.3111   21.4064 H   0  0  0  0  0  0
  -23.3714  -35.9672   23.3340 H   0  0  0  0  0  0
  -24.3563  -36.8907   22.2055 H   0  0  0  0  0  0
  -23.7256  -37.6543   23.6647 H   0  0  0  0  0  0
  -26.0486  -31.5990   20.5983 H   0  0  0  0  0  0
  -26.8164  -30.8906   21.9876 H   0  0  0  0  0  0
  -28.1026  -29.0879   21.1845 H   0  0  0  0  0  0
  -26.0708  -25.9781   18.9991 H   0  0  0  0  0  0
  -23.9788  -27.2940   19.0429 H   0  0  0  0  0  0
  -23.7256  -30.5947   19.4007 H   0  0  0  0  0  0
  -22.7366  -29.2413   19.8683 H   0  0  0  0  0  0
  -25.1293  -36.2005   25.0818 H   0  0  0  0  0  0
  -20.9980  -28.3504   24.1516 H   0  0  0  0  0  0
  -20.5752  -26.2451   23.3882 H   0  0  0  0  0  0
  -21.6715  -26.7482   22.1429 H   0  0  0  0  0  0
  -19.6985  -25.6222   21.1529 H   0  0  0  0  0  0
  -19.6829  -27.3056   20.6842 H   0  0  0  0  0  0
  -17.4237  -26.6675   21.4091 H   0  0  0  0  0  0
  -18.0239  -26.0193   22.9145 H   0  0  0  0  0  0
  -19.7978  -30.7370   24.2246 H   0  0  0  0  0  0
  -17.5103  -31.6350   24.5238 H   0  0  0  0  0  0
  -15.5408  -30.3145   23.7711 H   0  0  0  0  0  0
  -15.8693  -28.0955   22.7131 H   0  0  0  0  0  0
  -24.5920  -30.7038   25.7840 H   0  0  0  0  0  0
  -24.8955  -32.2818   26.4976 H   0  0  0  0  0  0
  -25.8123  -30.8835   27.0232 H   0  0  0  0  0  0
  -26.2866  -29.6801   24.1171 H   0  0  0  0  0  0
  -27.4070  -29.7281   25.4590 H   0  0  0  0  0  0
  -27.8693  -30.4348   23.9291 H   0  0  0  0  0  0
  -27.2629  -33.3604   26.2113 H   0  0  0  0  0  0
  -28.3823  -32.6935   25.0329 H   0  0  0  0  0  0
  -28.0735  -31.8454   26.5403 H   0  0  0  0  0  0
  -28.2609  -38.0092   24.7487 H   0  0  0  0  0  0
  -28.1055  -36.2622   24.6325 H   0  0  0  0  0  0
  -27.2270  -37.1492   25.8859 H   0  0  0  0  0  0
  -20.9300  -29.8856   21.7000 H   0  0  0  0  0  0
  -26.0189  -38.2864   24.1399 H   0  0  0  0  0  0
  -31.1533  -19.2463   22.3911 H   0  0  0  0  0  0
  -30.1007  -21.4158   21.9685 H   0  0  0  0  0  0
  -27.7019  -19.6333   18.8622 H   0  0  0  0  0  0
  -25.6466  -23.5253   19.4603 H   0  0  0  0  0  0
  -24.9038  -22.7828   20.8628 H   0  0  0  0  0  0
  -26.4188  -21.0190   20.8985 H   0  0  0  0  0  0
  -26.4001  -21.3641   19.1827 H   0  0  0  0  0  0
  -30.2365  -24.3408   19.2919 H   0  0  0  0  0  0
  -30.4551  -22.6047   19.2158 H   0  0  0  0  0  0
  -30.8376  -23.4824   20.7075 H   0  0  0  0  0  0
  -31.2912  -16.9315   22.1489 H   0  0  0  0  0  0
  -31.6759  -16.9112   20.4576 H   0  0  0  0  0  0
  -29.6184  -25.6480   21.3378 H   0  0  0  0  0  0
  -28.1273  -26.1245   22.0680 H   0  0  0  0  0  0
  -27.8389  -17.2030   18.5393 H   0  0  0  0  0  0
  -29.1622  -16.3194   19.1736 H   0  0  0  0  0  0
  -29.2175  -15.4709   21.4102 H   0  0  0  0  0  0
  1 25  1  0  0  0
  1 30  2  0  0  0
  1 87  1  0  0  0
  2  3  1  0  0  0
  2 25  1  0  0  0
  2 89  1  0  0  0
  2 90  1  0  0  0
  3  4  1  0  0  0
  3 91  1  0  0  0
  3 92  1  0  0  0
  4  5  1  0  0  0
  4 93  1  0  0  0
  4 94  1  0  0  0
  5  6  1  0  0  0
  5 26  1  0  0  0
  5 95  1  0  0  0
  6 25  1  0  0  0
  6 96  1  0  0  0
  6 97  1  0  0  0
  7  8  2  0  0  0
  7 26  1  0  0  0
  7 29  1  0  0  0
  8  9  1  0  0  0
  8 22  1  0  0  0
  9 10  1  0  0  0
  9 27  2  0  0  0
 10 11  2  0  0  0
 10 15  1  0  0  0
 11 12  1  0  0  0
 11 98  1  0  0  0
 12 13  2  0  0  0
 12 99  1  0  0  0
 13 14  1  0  0  0
 13 31  1  0  0  0
 14 15  2  0  0  0
 14100  1  0  0  0
 15101  1  0  0  0
 16 17  2  0  0  0
 16 21  1  0  0  0
 16 31  1  0  0  0
 17 18  1  0  0  0
 17102  1  0  0  0
 18 19  2  0  0  0
 18103  1  0  0  0
 19 20  1  0  0  0
 19 24  1  0  0  0
 20 21  2  0  0  0
 20104  1  0  0  0
 21 23  1  0  0  0
 22 28  1  0  0  0
 22 32  2  0  0  0
 26 27  1  0  0  0
 28105  1  0  0  0
 28106  1  0  0  0
 29107  1  0  0  0
 29108  1  0  0  0
 33 34  1  0  0  0
 33 66  1  0  0  0
 33 70  2  0  0  0
 34 36  1  0  0  0
 34 59  1  0  0  0
 34109  1  0  0  0
 35 44  2  0  0  0
 35 45  1  0  0  0
 35 68  1  0  0  0
 36 56  1  0  0  0
 36110  1  0  0  0
 37 39  1  0  0  0
 37 47  1  0  0  0
 37 66  1  0  0  0
 37111  1  0  0  0
 38 43  2  0  0  0
 38 46  1  0  0  0
 38 47  1  0  0  0
 39 64  1  0  0  0
 39 67  2  0  0  0
 40 52  1  0  0  0
 40 53  2  0  0  0
 40 58  1  0  0  0
 41112  1  0  0  0
 41113  1  0  0  0
 41114  1  0  0  0
 41 48  1  0  0  0
 42 43  1  0  0  0
 42 66  1  0  0  0
 42115  1  0  0  0
 42116  1  0  0  0
 43 44  1  0  0  0
 44117  1  0  0  0
 45 46  2  0  0  0
 45118  1  0  0  0
 46119  1  0  0  0
 47120  1  0  0  0
 47121  1  0  0  0
 48 56  1  0  0  0
 48 65  1  0  0  0
 48122  1  0  0  0
 49 50  1  0  0  0
 49 53  1  0  0  0
 49 64  1  0  0  0
 49123  1  0  0  0
 50 51  1  0  0  0
 50124  1  0  0  0
 50125  1  0  0  0
 51 52  1  0  0  0
 51126  1  0  0  0
 51127  1  0  0  0
 52128  1  0  0  0
 52129  1  0  0  0
 53 54  1  0  0  0
 54 55  2  0  0  0
 54130  1  0  0  0
 55 57  1  0  0  0
 55131  1  0  0  0
 56 69  2  0  0  0
 57 58  2  0  0  0
 57132  1  0  0  0
 58133  1  0  0  0
 59 60  1  0  0  0
 59 61  1  0  0  0
 59 62  1  0  0  0
 60134  1  0  0  0
 60135  1  0  0  0
 60136  1  0  0  0
 61137  1  0  0  0
 61138  1  0  0  0
 61139  1  0  0  0
 62140  1  0  0  0
 62141  1  0  0  0
 62142  1  0  0  0
 63 65  1  0  0  0
 63143  1  0  0  0
 63144  1  0  0  0
 63145  1  0  0  0
 64146  1  0  0  0
 65147  1  0  0  0
 68 84  1  0  0  0
 71 72  2  0  0  0
 71 74  1  0  0  0
 71148  1  0  0  0
 72 75  1  0  0  0
 72149  1  0  0  0
 73 75  2  0  0  0
 73 76  1  0  0  0
 73150  1  0  0  0
 74 76  2  0  0  0
 74 83  1  0  0  0
 75 85  1  0  0  0
 76 86  1  0  0  0
 77 78  2  0  0  0
 77 79  1  0  0  0
 77 84  1  0  0  0
 78 82  1  0  0  0
 78 85  1  0  0  0
 79 80  1  0  0  0
 79 88  2  0  0  0
 80 81  1  0  0  0
 80151  1  0  0  0
 80152  1  0  0  0
 81 85  1  0  0  0
 81153  1  0  0  0
 81154  1  0  0  0
 82155  1  0  0  0
 82156  1  0  0  0
 82157  1  0  0  0
 83 87  1  0  0  0
 83158  1  0  0  0
 83159  1  0  0  0
 84160  1  0  0  0
 84161  1  0  0  0
 86162  1  0  0  0
 86163  1  0  0  0
 87164  1  0  0  0
M  ISO  4   1 100  68 101  84 101  87 100
M  END
> <chiral flag>
0

> <version>
0

> <s_m_source_file>
/data/baiqing/PycharmProjects/Reinvent-master-3.2/result/LINK_invent/BTK/process_docking_weight1_custom_product_contain_oxygen_bond_distance_aromatic_linkinvent_7_9_3/rearranged_h_0105.sdf

> <i_m_source_file_index>
46

> <r_mmod_Potential_Energy-OPLS-2005>
-18.1241264343262

> <r_mmod_Stretch_Energy-OPLS-2005>
46.1829605102539

> <r_mmod_Bend_Energy-OPLS-2005>
112.683372497559

> <r_mmod_Torsional_Energy-OPLS-2005>
228.590377807617

> <r_mmod_Improper_Torsional_Energy-OPLS-2005>
6.30251455307007

> <r_mmod_Van_der_Waal_Energy-OPLS-2005>
168.280258178711

> <r_mmod_Electrostatic_Energy-OPLS-2005>
-372.443939208984

> <r_mmod_Solvation_Energy-OPLS-2005>
-224.580688476562

> <b_mmod_Minimization_Converged-OPLS-2005>
0

> <r_mmod_RMS_Derivative-OPLS-2005>
4.2989068031311

$$$$
46
                    3D
 Structure written by MMmdl.
159167  0  0  1  0            999 V2000
  -30.7067  -14.6446   20.4986 C   0  0  0  0  0  0
  -30.4121  -12.4026   19.4618 C   0  0  0  0  0  0
  -29.5006  -12.4927   18.2243 C   0  0  0  0  0  0
  -28.0258  -12.3364   18.6381 C   0  0  0  0  0  0
  -27.6407  -13.2328   19.8470 C   0  0  2  0  0  0
  -28.6871  -13.1685   20.9808 C   0  0  0  0  0  0
  -25.2511  -13.8210   20.5699 C   0  0  0  0  0  0
  -24.1810  -13.0458   20.9228 C   0  0  0  0  0  0
  -24.6399  -11.6939   20.8768 C   0  0  0  0  0  0
  -23.9081  -10.4314   21.0427 C   0  0  0  0  0  0
  -24.3632   -9.4217   21.9189 C   0  0  0  0  0  0
  -23.6304   -8.2253   22.0761 C   0  0  0  0  0  0
  -22.4284   -8.0296   21.3549 C   0  0  0  0  0  0
  -21.9921   -9.0274   20.4652 C   0  0  0  0  0  0
  -22.7259  -10.2149   20.3069 C   0  0  0  0  0  0
  -21.6852   -6.0742   22.5286 C   0  0  0  0  0  0
  -21.4014   -6.5645   23.8220 C   0  0  0  0  0  0
  -21.3665   -5.6796   24.9179 C   0  0  0  0  0  0
  -21.6042   -4.3060   24.7219 C   0  0  0  0  0  0
  -21.8824   -3.8152   23.4343 C   0  0  0  0  0  0
  -21.9191   -4.6970   22.3403 C   0  0  0  0  0  0
  -22.7832  -13.5245   21.1868 C   0  0  0  0  0  0
  -22.1664   -4.2163   21.0979 F   0  0  0  0  0  0
  -21.5619   -3.4548   25.7731 F   0  0  0  0  0  0
  -29.9934  -13.4778   20.3881 N   0  0  0  0  0  0
  -26.2937  -12.9418   20.3274 N   0  0  0  0  0  0
  -25.9326  -11.6563   20.5763 N   0  0  0  0  0  0
  -22.0463  -12.8248   22.0418 N   0  0  0  0  0  0
  -25.4157  -15.1932   20.4064 N   0  0  0  0  0  0
  -31.8993  -14.6374   20.1811 O   0  0  0  0  0  0
  -21.6644   -6.8893   21.4252 O   0  0  0  0  0  0
  -22.3534  -14.5549   20.6703 O   0  0  0  0  0  0
  -24.6263  -31.8577   23.2073 C   0  0  0  0  0  0
  -25.9090  -32.4776   23.8391 C   0  0  1  0  0  0
  -27.2158  -27.3025   20.1109 C   0  0  0  0  0  0
  -25.5875  -33.8576   24.2289 N   0  0  0  0  0  0
  -23.4204  -30.4883   21.5497 C   0  0  2  0  0  0
  -24.8657  -28.9465   20.1133 C   0  0  0  0  0  0
  -22.7442  -29.4641   22.4932 C   0  0  0  0  0  0
  -18.0283  -28.1397   22.8507 C   0  0  0  0  0  0
  -24.1465  -36.7315   23.2645 C   0  0  0  0  0  0
  -25.9654  -30.7818   21.3847 C   0  0  0  0  0  0
  -26.0358  -29.4080   20.7278 C   0  0  0  0  0  0
  -27.2105  -28.5948   20.7219 C   0  0  0  0  0  0
  -26.0206  -26.9138   19.4545 C   0  0  0  0  0  0
  -24.8619  -27.7054   19.4658 C   0  0  0  0  0  0
  -23.6361  -29.8287   20.1640 C   0  0  0  0  0  0
  -25.4091  -36.3086   24.0334 C   0  0  1  0  0  0
  -20.5881  -28.3697   23.1300 C   0  0  2  0  0  0
  -20.6771  -26.9428   22.5427 C   0  0  0  0  0  0
  -19.5752  -26.6401   21.5229 C   0  0  0  0  0  0
  -18.1937  -26.7939   22.1656 C   0  0  0  0  0  0
  -19.1528  -28.8866   23.2905 C   0  0  0  0  0  0
  -18.9446  -30.1469   23.8934 C   0  0  0  0  0  0
  -17.6446  -30.6597   24.0598 C   0  0  0  0  0  0
  -25.9038  -34.9452   23.5118 C   0  0  0  0  0  0
  -16.5340  -29.9108   23.6348 C   0  0  0  0  0  0
  -16.7272  -28.6526   23.0359 C   0  0  0  0  0  0
  -26.4470  -31.6571   25.0757 C   0  0  0  0  0  0
  -25.3700  -31.3691   26.1468 C   0  0  0  0  0  0
  -27.0332  -30.3003   24.6237 C   0  0  0  0  0  0
  -27.6050  -32.4267   25.7513 C   0  0  0  0  0  0
  -27.5584  -37.1795   24.8465 C   0  0  0  0  0  0
  -21.4148  -29.3041   22.3664 N   0  0  0  0  0  0
  -26.4285  -37.3778   23.9431 N   0  0  0  0  0  0
  -24.6899  -31.0601   22.1029 N   0  0  0  0  0  0
  -23.4145  -28.8168   23.3013 O   0  0  0  0  0  0
  -28.3234  -26.4287   20.1725 O   0  0  0  0  0  0
  -26.5638  -34.8905   22.4704 O   0  0  0  0  0  0
  -23.5417  -32.1353   23.7414 O   0  0  0  0  0  0
  -28.3578  -24.6733   17.1859 C   0  0  0  0  0  0
  -28.2609  -24.8007   18.3962 C   0  0  0  0  0  0
  -28.7226  -18.7770   21.2957 C   0  0  0  0  0  0
  -30.1582  -20.8646   20.0904 C   0  0  0  0  0  0
  -29.9777  -18.4378   20.7236 C   0  0  0  0  0  0
  -30.6715  -19.5301   20.0854 C   0  0  0  0  0  0
  -28.9347  -21.2034   20.7108 C   0  0  0  0  0  0
  -28.2150  -20.1173   21.2884 C   0  0  0  0  0  0
  -30.6480  -17.0548   20.9540 C   0  0  0  0  0  0
  -25.8941  -19.7952   21.2666 C   0  0  0  0  0  0
  -29.0307  -23.8634   20.5863 C   0  0  0  0  0  0
  -28.1427  -24.9791   19.8615 C   0  0  1  0  0  0
  -31.8937  -19.3531   19.4268 N   0  0  0  0  0  0
  -28.3678  -22.5240   20.7488 N   0  0  0  0  0  0
  -30.0414  -15.8364   20.7192 N   0  0  0  0  0  0
  -31.8116  -17.1094   21.3763 O   0  0  0  0  0  0
  -27.0164  -20.4017   21.8944 O   0  0  0  0  0  0
  -31.4582  -12.4788   19.1593 H   0  0  0  0  0  0
  -30.3150  -11.4280   19.9445 H   0  0  0  0  0  0
  -29.7711  -11.7234   17.5010 H   0  0  0  0  0  0
  -29.6453  -13.4514   17.7228 H   0  0  0  0  0  0
  -27.8687  -11.2871   18.8927 H   0  0  0  0  0  0
  -27.3720  -12.5438   17.7910 H   0  0  0  0  0  0
  -27.6372  -14.2552   19.4687 H   0  0  0  0  0  0
  -28.7030  -12.1815   21.4462 H   0  0  0  0  0  0
  -28.4390  -13.8758   21.7737 H   0  0  0  0  0  0
  -25.2776   -9.5691   22.4765 H   0  0  0  0  0  0
  -24.0012   -7.4644   22.7487 H   0  0  0  0  0  0
  -21.0844   -8.8795   19.8961 H   0  0  0  0  0  0
  -22.3716  -10.9687   19.6183 H   0  0  0  0  0  0
  -21.2020   -7.6157   23.9726 H   0  0  0  0  0  0
  -21.1478   -6.0523   25.9079 H   0  0  0  0  0  0
  -22.0596   -2.7618   23.2837 H   0  0  0  0  0  0
  -22.4083  -11.9916   22.4809 H   0  0  0  0  0  0
  -21.1071  -13.1268   22.2597 H   0  0  0  0  0  0
  -24.6312  -15.8301   20.4915 H   0  0  0  0  0  0
  -26.2326  -15.6252   19.9958 H   0  0  0  0  0  0
  -26.7152  -32.5436   23.1137 H   0  0  0  0  0  0
  -24.9929  -33.9732   25.0355 H   0  0  0  0  0  0
  -22.7166  -31.3106   21.4113 H   0  0  0  0  0  0
  -23.3736  -35.9644   23.3301 H   0  0  0  0  0  0
  -24.3587  -36.8940   22.2073 H   0  0  0  0  0  0
  -23.7191  -37.6507   23.6649 H   0  0  0  0  0  0
  -26.0984  -31.5391   20.6110 H   0  0  0  0  0  0
  -26.8466  -30.8320   22.0128 H   0  0  0  0  0  0
  -28.1024  -28.9406   21.2222 H   0  0  0  0  0  0
  -25.9326  -25.9802   18.9217 H   0  0  0  0  0  0
  -23.9738  -27.3554   18.9599 H   0  0  0  0  0  0
  -23.7564  -30.6062   19.4092 H   0  0  0  0  0  0
  -22.7539  -29.2622   19.8624 H   0  0  0  0  0  0
  -25.1264  -36.1970   25.0832 H   0  0  0  0  0  0
  -21.0000  -28.3262   24.1409 H   0  0  0  0  0  0
  -20.5684  -26.2295   23.3615 H   0  0  0  0  0  0
  -21.6637  -26.7468   22.1214 H   0  0  0  0  0  0
  -19.6909  -25.6309   21.1262 H   0  0  0  0  0  0
  -19.6691  -27.3216   20.6761 H   0  0  0  0  0  0
  -17.4193  -26.6700   21.4069 H   0  0  0  0  0  0
  -18.0357  -26.0081   22.9062 H   0  0  0  0  0  0
  -19.7905  -30.7298   24.2300 H   0  0  0  0  0  0
  -17.4990  -31.6287   24.5177 H   0  0  0  0  0  0
  -15.5339  -30.3027   23.7629 H   0  0  0  0  0  0
  -15.8671  -28.0865   22.7038 H   0  0  0  0  0  0
  -24.5913  -30.7011   25.7782 H   0  0  0  0  0  0
  -24.8854  -32.2829   26.4896 H   0  0  0  0  0  0
  -25.8009  -30.8864   27.0245 H   0  0  0  0  0  0
  -26.2938  -29.6757   24.1226 H   0  0  0  0  0  0
  -27.3988  -29.7240   25.4754 H   0  0  0  0  0  0
  -27.8796  -30.4353   23.9513 H   0  0  0  0  0  0
  -27.2716  -33.3548   26.2169 H   0  0  0  0  0  0
  -28.3799  -32.6848   25.0278 H   0  0  0  0  0  0
  -28.0763  -31.8331   26.5367 H   0  0  0  0  0  0
  -28.2551  -38.0138   24.7543 H   0  0  0  0  0  0
  -28.1102  -36.2665   24.6202 H   0  0  0  0  0  0
  -27.2328  -37.1333   25.8871 H   0  0  0  0  0  0
  -20.9295  -29.8766   21.6903 H   0  0  0  0  0  0
  -26.0174  -38.2844   24.1468 H   0  0  0  0  0  0
  -28.4531  -24.5655   16.1271 H   0  0  0  0  0  0
  -28.1621  -18.0083   21.8078 H   0  0  0  0  0  0
  -30.7205  -21.6470   19.6042 H   0  0  0  0  0  0
  -24.9867  -20.0482   21.8134 H   0  0  0  0  0  0
  -25.9702  -18.7082   21.2313 H   0  0  0  0  0  0
  -25.7744  -20.1718   20.2494 H   0  0  0  0  0  0
  -29.2640  -24.2243   21.5899 H   0  0  0  0  0  0
  -29.9942  -23.7594   20.0833 H   0  0  0  0  0  0
  -27.1237  -24.7092   20.1342 H   0  0  0  0  0  0
  -32.4415  -20.1736   19.1846 H   0  0  0  0  0  0
  -32.4773  -18.5655   19.6977 H   0  0  0  0  0  0
  -27.4831  -22.5512   21.2515 H   0  0  0  0  0  0
  -29.0416  -15.8303   20.6187 H   0  0  0  0  0  0
  1 25  1  0  0  0
  1 30  2  0  0  0
  1 85  1  0  0  0
  2  3  1  0  0  0
  2 25  1  0  0  0
  2 88  1  0  0  0
  2 89  1  0  0  0
  3  4  1  0  0  0
  3 90  1  0  0  0
  3 91  1  0  0  0
  4  5  1  0  0  0
  4 92  1  0  0  0
  4 93  1  0  0  0
  5  6  1  0  0  0
  5 26  1  0  0  0
  5 94  1  0  0  0
  6 25  1  0  0  0
  6 95  1  0  0  0
  6 96  1  0  0  0
  7  8  2  0  0  0
  7 26  1  0  0  0
  7 29  1  0  0  0
  8  9  1  0  0  0
  8 22  1  0  0  0
  9 10  1  0  0  0
  9 27  2  0  0  0
 10 11  2  0  0  0
 10 15  1  0  0  0
 11 12  1  0  0  0
 11 97  1  0  0  0
 12 13  2  0  0  0
 12 98  1  0  0  0
 13 14  1  0  0  0
 13 31  1  0  0  0
 14 15  2  0  0  0
 14 99  1  0  0  0
 15100  1  0  0  0
 16 17  2  0  0  0
 16 21  1  0  0  0
 16 31  1  0  0  0
 17 18  1  0  0  0
 17101  1  0  0  0
 18 19  2  0  0  0
 18102  1  0  0  0
 19 20  1  0  0  0
 19 24  1  0  0  0
 20 21  2  0  0  0
 20103  1  0  0  0
 21 23  1  0  0  0
 22 28  1  0  0  0
 22 32  2  0  0  0
 26 27  1  0  0  0
 28104  1  0  0  0
 28105  1  0  0  0
 29106  1  0  0  0
 29107  1  0  0  0
 33 34  1  0  0  0
 33 66  1  0  0  0
 33 70  2  0  0  0
 34 36  1  0  0  0
 34 59  1  0  0  0
 34108  1  0  0  0
 35 44  2  0  0  0
 35 45  1  0  0  0
 35 68  1  0  0  0
 36 56  1  0  0  0
 36109  1  0  0  0
 37 39  1  0  0  0
 37 47  1  0  0  0
 37 66  1  0  0  0
 37110  1  0  0  0
 38 43  2  0  0  0
 38 46  1  0  0  0
 38 47  1  0  0  0
 39 64  1  0  0  0
 39 67  2  0  0  0
 40 52  1  0  0  0
 40 53  2  0  0  0
 40 58  1  0  0  0
 41111  1  0  0  0
 41112  1  0  0  0
 41113  1  0  0  0
 41 48  1  0  0  0
 42 43  1  0  0  0
 42 66  1  0  0  0
 42114  1  0  0  0
 42115  1  0  0  0
 43 44  1  0  0  0
 44116  1  0  0  0
 45 46  2  0  0  0
 45117  1  0  0  0
 46118  1  0  0  0
 47119  1  0  0  0
 47120  1  0  0  0
 48 56  1  0  0  0
 48 65  1  0  0  0
 48121  1  0  0  0
 49 50  1  0  0  0
 49 53  1  0  0  0
 49 64  1  0  0  0
 49122  1  0  0  0
 50 51  1  0  0  0
 50123  1  0  0  0
 50124  1  0  0  0
 51 52  1  0  0  0
 51125  1  0  0  0
 51126  1  0  0  0
 52127  1  0  0  0
 52128  1  0  0  0
 53 54  1  0  0  0
 54 55  2  0  0  0
 54129  1  0  0  0
 55 57  1  0  0  0
 55130  1  0  0  0
 56 69  2  0  0  0
 57 58  2  0  0  0
 57131  1  0  0  0
 58132  1  0  0  0
 59 60  1  0  0  0
 59 61  1  0  0  0
 59 62  1  0  0  0
 60133  1  0  0  0
 60134  1  0  0  0
 60135  1  0  0  0
 61136  1  0  0  0
 61137  1  0  0  0
 61138  1  0  0  0
 62139  1  0  0  0
 62140  1  0  0  0
 62141  1  0  0  0
 63 65  1  0  0  0
 63142  1  0  0  0
 63143  1  0  0  0
 63144  1  0  0  0
 64145  1  0  0  0
 65146  1  0  0  0
 68 82  1  0  0  0
 71 72  3  0  0  0
 71147  1  0  0  0
 72 82  1  0  0  0
 73 75  2  0  0  0
 73 78  1  0  0  0
 73148  1  0  0  0
 74 76  2  0  0  0
 74 77  1  0  0  0
 74149  1  0  0  0
 75 76  1  0  0  0
 75 79  1  0  0  0
 76 83  1  0  0  0
 77 78  2  0  0  0
 77 84  1  0  0  0
 78 87  1  0  0  0
 79 85  1  0  0  0
 79 86  2  0  0  0
 80 87  1  0  0  0
 80150  1  0  0  0
 80151  1  0  0  0
 80152  1  0  0  0
 81 82  1  0  0  0
 81 84  1  0  0  0
 81153  1  0  0  0
 81154  1  0  0  0
 82155  1  0  0  0
 83156  1  0  0  0
 83157  1  0  0  0
 84158  1  0  0  0
 85159  1  0  0  0
M  ISO  4   1 100  68 101  82 101  85 100
M  END
> <chiral flag>
0

> <version>
0

> <s_m_source_file>
/data/baiqing/PycharmProjects/Reinvent-master-3.2/result/LINK_invent/BTK/process_docking_weight1_custom_product_contain_oxygen_bond_distance_aromatic_linkinvent_7_9_3/rearranged_h_0105.sdf

> <i_m_source_file_index>
47

> <r_mmod_Potential_Energy-OPLS-2005>
182.017593383789

> <r_mmod_Stretch_Energy-OPLS-2005>
89.651008605957

> <r_mmod_Bend_Energy-OPLS-2005>
170.30207824707

> <r_mmod_Torsional_Energy-OPLS-2005>
260.069488525391

> <r_mmod_Improper_Torsional_Energy-OPLS-2005>
11.2559280395508

> <r_mmod_Van_der_Waal_Energy-OPLS-2005>
163.293472290039

> <r_mmod_Electrostatic_Energy-OPLS-2005>
-327.653503417969

> <r_mmod_Solvation_Energy-OPLS-2005>
-245.901351928711

> <b_mmod_Minimization_Converged-OPLS-2005>
0

> <r_mmod_RMS_Derivative-OPLS-2005>
4.03064489364624

$$$$
47
                    3D
 Structure written by MMmdl.
166175  0  0  1  0            999 V2000
  -30.7124  -14.4181   20.6348 C   0  0  0  0  0  0
  -30.4182  -12.2933   19.4043 C   0  0  0  0  0  0
  -29.4806  -12.4971   18.1984 C   0  0  0  0  0  0
  -28.0006  -12.3758   18.6075 C   0  0  0  0  0  0
  -27.6556  -13.1955   19.8765 C   0  0  2  0  0  0
  -28.6948  -12.9439   20.9897 C   0  0  0  0  0  0
  -25.2533  -13.8149   20.5677 C   0  0  0  0  0  0
  -24.1801  -13.0434   20.9201 C   0  0  0  0  0  0
  -24.6372  -11.6901   20.8806 C   0  0  0  0  0  0
  -23.9057  -10.4319   21.0481 C   0  0  0  0  0  0
  -24.3638   -9.4237   21.9231 C   0  0  0  0  0  0
  -23.6318   -8.2265   22.0780 C   0  0  0  0  0  0
  -22.4292   -8.0299   21.3567 C   0  0  0  0  0  0
  -21.9942   -9.0271   20.4662 C   0  0  0  0  0  0
  -22.7256  -10.2163   20.3099 C   0  0  0  0  0  0
  -21.6849   -6.0777   22.5311 C   0  0  0  0  0  0
  -21.4017   -6.5682   23.8245 C   0  0  0  0  0  0
  -21.3653   -5.6819   24.9197 C   0  0  0  0  0  0
  -21.6035   -4.3083   24.7246 C   0  0  0  0  0  0
  -21.8815   -3.8182   23.4363 C   0  0  0  0  0  0
  -21.9189   -4.7008   22.3422 C   0  0  0  0  0  0
  -22.7816  -13.5225   21.1820 C   0  0  0  0  0  0
  -22.1617   -4.2197   21.0995 F   0  0  0  0  0  0
  -21.5626   -3.4573   25.7757 F   0  0  0  0  0  0
  -30.0317  -13.2541   20.4486 N   0  0  0  0  0  0
  -26.2964  -12.9299   20.3370 N   0  0  0  0  0  0
  -25.9275  -11.6464   20.5792 N   0  0  0  0  0  0
  -22.0459  -12.8240   22.0412 N   0  0  0  0  0  0
  -25.4185  -15.1885   20.4058 N   0  0  0  0  0  0
  -31.7921  -14.6668   20.0851 O   0  0  0  0  0  0
  -21.6624   -6.8920   21.4267 O   0  0  0  0  0  0
  -22.3505  -14.5514   20.6645 O   0  0  0  0  0  0
  -24.6102  -31.8701   23.2107 C   0  0  0  0  0  0
  -25.9011  -32.4837   23.8393 C   0  0  1  0  0  0
  -27.2450  -27.4702   20.0974 C   0  0  0  0  0  0
  -25.5892  -33.8634   24.2325 N   0  0  0  0  0  0
  -23.3981  -30.4894   21.5524 C   0  0  2  0  0  0
  -24.8482  -28.9576   20.1141 C   0  0  0  0  0  0
  -22.7394  -29.4660   22.5034 C   0  0  0  0  0  0
  -18.0256  -28.1364   22.8495 C   0  0  0  0  0  0
  -24.1483  -36.7316   23.2625 C   0  0  0  0  0  0
  -25.9198  -30.8471   21.3581 C   0  0  0  0  0  0
  -26.0019  -29.4826   20.7095 C   0  0  0  0  0  0
  -27.2052  -28.7459   20.6985 C   0  0  0  0  0  0
  -26.0827  -26.9530   19.4896 C   0  0  0  0  0  0
  -24.8819  -27.6910   19.5003 C   0  0  0  0  0  0
  -23.6019  -29.8129   20.1689 C   0  0  0  0  0  0
  -25.4103  -36.3118   24.0327 C   0  0  1  0  0  0
  -20.5840  -28.3639   23.1349 C   0  0  2  0  0  0
  -20.6746  -26.9386   22.5423 C   0  0  0  0  0  0
  -19.5723  -26.6376   21.5217 C   0  0  0  0  0  0
  -18.1904  -26.7921   22.1626 C   0  0  0  0  0  0
  -19.1499  -28.8823   23.2913 C   0  0  0  0  0  0
  -18.9437  -30.1434   23.8906 C   0  0  0  0  0  0
  -17.6443  -30.6578   24.0562 C   0  0  0  0  0  0
  -25.9032  -34.9479   23.5118 C   0  0  0  0  0  0
  -16.5338  -29.9074   23.6330 C   0  0  0  0  0  0
  -16.7250  -28.6493   23.0355 C   0  0  0  0  0  0
  -26.4440  -31.6618   25.0718 C   0  0  0  0  0  0
  -25.3714  -31.3718   26.1481 C   0  0  0  0  0  0
  -27.0263  -30.3065   24.6067 C   0  0  0  0  0  0
  -27.6013  -32.4330   25.7481 C   0  0  0  0  0  0
  -27.5599  -37.1787   24.8436 C   0  0  0  0  0  0
  -21.4124  -29.3010   22.3770 N   0  0  0  0  0  0
  -26.4284  -37.3811   23.9427 N   0  0  0  0  0  0
  -24.6608  -31.0827   22.0995 N   0  0  0  0  0  0
  -23.4179  -28.8218   23.3079 O   0  0  0  0  0  0
  -28.3897  -26.7135   20.0894 O   0  0  0  0  0  0
  -26.5603  -34.8942   22.4685 O   0  0  0  0  0  0
  -23.5299  -32.1431   23.7519 O   0  0  0  0  0  0
  -28.9475  -18.8191   20.1568 C   0  0  0  0  0  0
  -29.3756  -20.1557   20.0677 C   0  0  0  0  0  0
  -31.0682  -18.2050   21.1681 C   0  0  0  0  0  0
  -29.7875  -17.8288   20.7056 C   0  0  0  0  0  0
  -30.6537  -20.5409   20.5320 C   0  0  0  0  0  0
  -31.5015  -19.5488   21.0944 C   0  0  0  0  0  0
  -29.6285  -25.2109   21.4781 C   0  0  0  0  0  0
  -28.8452  -26.2924   21.3149 C   0  0  0  0  0  0
  -30.0862  -24.6610   22.8074 C   0  0  0  0  0  0
  -30.0955  -24.2760   20.3877 C   0  0  0  0  0  0
  -30.7087  -23.2957   22.4595 C   0  0  0  0  0  0
  -30.3793  -15.4888   22.8079 C   0  0  0  0  0  0
  -29.2594  -16.3923   20.7469 C   0  0  0  0  0  0
  -31.0837  -21.9985   20.3338 C   0  0  0  0  0  0
  -32.7773  -19.8462   21.5755 N   0  0  0  0  0  0
  -30.0795  -15.3472   21.3824 N   0  0  0  0  0  0
  -30.2574  -22.9791   21.0833 N   0  3  2  0  0  0
  -31.4609  -12.4027   19.0966 H   0  0  0  0  0  0
  -30.3298  -11.2745   19.7851 H   0  0  0  0  0  0
  -29.6990  -11.7580   17.4271 H   0  0  0  0  0  0
  -29.6597  -13.4765   17.7573 H   0  0  0  0  0  0
  -27.7876  -11.3191   18.7722 H   0  0  0  0  0  0
  -27.3614  -12.6843   17.7791 H   0  0  0  0  0  0
  -27.7070  -14.2459   19.5982 H   0  0  0  0  0  0
  -28.6727  -11.9000   21.2999 H   0  0  0  0  0  0
  -28.4418  -13.5119   21.8846 H   0  0  0  0  0  0
  -25.2817   -9.5685   22.4783 H   0  0  0  0  0  0
  -24.0063   -7.4652   22.7472 H   0  0  0  0  0  0
  -21.0889   -8.8759   19.8957 H   0  0  0  0  0  0
  -22.3712  -10.9692   19.6195 H   0  0  0  0  0  0
  -21.1988   -7.6183   23.9768 H   0  0  0  0  0  0
  -21.1459   -6.0546   25.9092 H   0  0  0  0  0  0
  -22.0601   -2.7647   23.2849 H   0  0  0  0  0  0
  -22.4083  -11.9931   22.4838 H   0  0  0  0  0  0
  -21.1079  -13.1249   22.2613 H   0  0  0  0  0  0
  -24.6434  -15.8360   20.5087 H   0  0  0  0  0  0
  -26.2482  -15.6358   20.0396 H   0  0  0  0  0  0
  -26.7094  -32.5559   23.1173 H   0  0  0  0  0  0
  -25.0071  -33.9807   25.0495 H   0  0  0  0  0  0
  -22.6833  -31.3033   21.4131 H   0  0  0  0  0  0
  -23.3767  -35.9620   23.3237 H   0  0  0  0  0  0
  -24.3599  -36.8991   22.2053 H   0  0  0  0  0  0
  -23.7212  -37.6490   23.6683 H   0  0  0  0  0  0
  -26.0232  -31.6119   20.5870 H   0  0  0  0  0  0
  -26.8120  -30.9049   21.9705 H   0  0  0  0  0  0
  -28.1005  -29.1485   21.1511 H   0  0  0  0  0  0
  -26.1080  -25.9778   19.0225 H   0  0  0  0  0  0
  -23.9960  -27.2833   19.0331 H   0  0  0  0  0  0
  -23.6876  -30.5819   19.4003 H   0  0  0  0  0  0
  -22.7333  -29.2155   19.8883 H   0  0  0  0  0  0
  -25.1265  -36.1965   25.0816 H   0  0  0  0  0  0
  -20.9907  -28.3185   24.1481 H   0  0  0  0  0  0
  -20.5655  -26.2235   23.3594 H   0  0  0  0  0  0
  -21.6623  -26.7439   22.1225 H   0  0  0  0  0  0
  -19.6886  -25.6295   21.1230 H   0  0  0  0  0  0
  -19.6674  -27.3194   20.6762 H   0  0  0  0  0  0
  -17.4184  -26.6673   21.4027 H   0  0  0  0  0  0
  -18.0294  -26.0048   22.8998 H   0  0  0  0  0  0
  -19.7910  -30.7243   24.2283 H   0  0  0  0  0  0
  -17.5000  -31.6265   24.5146 H   0  0  0  0  0  0
  -15.5338  -30.2984   23.7657 H   0  0  0  0  0  0
  -15.8650  -28.0822   22.7068 H   0  0  0  0  0  0
  -24.5879  -30.7070   25.7830 H   0  0  0  0  0  0
  -24.8916  -32.2872   26.4951 H   0  0  0  0  0  0
  -25.8079  -30.8883   27.0231 H   0  0  0  0  0  0
  -26.2801  -29.6863   24.1088 H   0  0  0  0  0  0
  -27.4011  -29.7268   25.4512 H   0  0  0  0  0  0
  -27.8638  -30.4403   23.9215 H   0  0  0  0  0  0
  -27.2636  -33.3639   26.2051 H   0  0  0  0  0  0
  -28.3834  -32.6882   25.0318 H   0  0  0  0  0  0
  -28.0660  -31.8455   26.5414 H   0  0  0  0  0  0
  -28.2518  -38.0176   24.7643 H   0  0  0  0  0  0
  -28.1194  -36.2732   24.6057 H   0  0  0  0  0  0
  -27.2341  -37.1178   25.8830 H   0  0  0  0  0  0
  -20.9288  -29.8732   21.6994 H   0  0  0  0  0  0
  -26.0160  -38.2856   24.1529 H   0  0  0  0  0  0
  -27.9705  -18.5477   19.7782 H   0  0  0  0  0  0
  -28.7203  -20.8858   19.6097 H   0  0  0  0  0  0
  -31.7323  -17.4556   21.5717 H   0  0  0  0  0  0
  -28.4993  -26.9005   22.1408 H   0  0  0  0  0  0
  -29.2221  -24.5471   23.4648 H   0  0  0  0  0  0
  -30.7973  -25.3324   23.2950 H   0  0  0  0  0  0
  -31.0550  -24.6289   20.0058 H   0  0  0  0  0  0
  -29.3883  -24.2159   19.5589 H   0  0  0  0  0  0
  -30.4255  -22.5121   23.1636 H   0  0  0  0  0  0
  -31.7967  -23.3777   22.4971 H   0  0  0  0  0  0
  -29.9503  -14.6595   23.3702 H   0  0  0  0  0  0
  -29.9752  -16.4135   23.2201 H   0  0  0  0  0  0
  -31.4570  -15.4831   22.9810 H   0  0  0  0  0  0
  -28.2924  -16.3988   21.2476 H   0  0  0  0  0  0
  -29.0466  -16.1151   19.7114 H   0  0  0  0  0  0
  -30.9725  -22.1999   19.2669 H   0  0  0  0  0  0
  -32.1422  -22.1494   20.5403 H   0  0  0  0  0  0
  -33.4011  -19.0741   21.7893 H   0  0  0  0  0  0
  -33.2783  -20.6572   21.2301 H   0  0  0  0  0  0
  -29.3315  -22.5888   21.1699 H   0  0  0  0  0  0
  1 25  1  0  0  0
  1 30  2  0  0  0
  1 86  1  0  0  0
  2  3  1  0  0  0
  2 25  1  0  0  0
  2 88  1  0  0  0
  2 89  1  0  0  0
  3  4  1  0  0  0
  3 90  1  0  0  0
  3 91  1  0  0  0
  4  5  1  0  0  0
  4 92  1  0  0  0
  4 93  1  0  0  0
  5  6  1  0  0  0
  5 26  1  0  0  0
  5 94  1  0  0  0
  6 25  1  0  0  0
  6 95  1  0  0  0
  6 96  1  0  0  0
  7  8  2  0  0  0
  7 26  1  0  0  0
  7 29  1  0  0  0
  8  9  1  0  0  0
  8 22  1  0  0  0
  9 10  1  0  0  0
  9 27  2  0  0  0
 10 11  2  0  0  0
 10 15  1  0  0  0
 11 12  1  0  0  0
 11 97  1  0  0  0
 12 13  2  0  0  0
 12 98  1  0  0  0
 13 14  1  0  0  0
 13 31  1  0  0  0
 14 15  2  0  0  0
 14 99  1  0  0  0
 15100  1  0  0  0
 16 17  2  0  0  0
 16 21  1  0  0  0
 16 31  1  0  0  0
 17 18  1  0  0  0
 17101  1  0  0  0
 18 19  2  0  0  0
 18102  1  0  0  0
 19 20  1  0  0  0
 19 24  1  0  0  0
 20 21  2  0  0  0
 20103  1  0  0  0
 21 23  1  0  0  0
 22 28  1  0  0  0
 22 32  2  0  0  0
 26 27  1  0  0  0
 28104  1  0  0  0
 28105  1  0  0  0
 29106  1  0  0  0
 29107  1  0  0  0
 33 34  1  0  0  0
 33 66  1  0  0  0
 33 70  2  0  0  0
 34 36  1  0  0  0
 34 59  1  0  0  0
 34108  1  0  0  0
 35 44  2  0  0  0
 35 45  1  0  0  0
 35 68  1  0  0  0
 36 56  1  0  0  0
 36109  1  0  0  0
 37 39  1  0  0  0
 37 47  1  0  0  0
 37 66  1  0  0  0
 37110  1  0  0  0
 38 43  2  0  0  0
 38 46  1  0  0  0
 38 47  1  0  0  0
 39 64  1  0  0  0
 39 67  2  0  0  0
 40 52  1  0  0  0
 40 53  2  0  0  0
 40 58  1  0  0  0
 41111  1  0  0  0
 41112  1  0  0  0
 41113  1  0  0  0
 41 48  1  0  0  0
 42 43  1  0  0  0
 42 66  1  0  0  0
 42114  1  0  0  0
 42115  1  0  0  0
 43 44  1  0  0  0
 44116  1  0  0  0
 45 46  2  0  0  0
 45117  1  0  0  0
 46118  1  0  0  0
 47119  1  0  0  0
 47120  1  0  0  0
 48 56  1  0  0  0
 48 65  1  0  0  0
 48121  1  0  0  0
 49 50  1  0  0  0
 49 53  1  0  0  0
 49 64  1  0  0  0
 49122  1  0  0  0
 50 51  1  0  0  0
 50123  1  0  0  0
 50124  1  0  0  0
 51 52  1  0  0  0
 51125  1  0  0  0
 51126  1  0  0  0
 52127  1  0  0  0
 52128  1  0  0  0
 53 54  1  0  0  0
 54 55  2  0  0  0
 54129  1  0  0  0
 55 57  1  0  0  0
 55130  1  0  0  0
 56 69  2  0  0  0
 57 58  2  0  0  0
 57131  1  0  0  0
 58132  1  0  0  0
 59 60  1  0  0  0
 59 61  1  0  0  0
 59 62  1  0  0  0
 60133  1  0  0  0
 60134  1  0  0  0
 60135  1  0  0  0
 61136  1  0  0  0
 61137  1  0  0  0
 61138  1  0  0  0
 62139  1  0  0  0
 62140  1  0  0  0
 62141  1  0  0  0
 63 65  1  0  0  0
 63142  1  0  0  0
 63143  1  0  0  0
 63144  1  0  0  0
 64145  1  0  0  0
 65146  1  0  0  0
 68 78  1  0  0  0
 71 72  2  0  0  0
 71 74  1  0  0  0
 71147  1  0  0  0
 72 75  1  0  0  0
 72148  1  0  0  0
 73 74  2  0  0  0
 73 76  1  0  0  0
 73149  1  0  0  0
 74 83  1  0  0  0
 75 76  2  0  0  0
 75 84  1  0  0  0
 76 85  1  0  0  0
 77 78  2  0  0  0
 77 79  1  0  0  0
 77 80  1  0  0  0
 78150  1  0  0  0
 79 81  1  0  0  0
 79151  1  0  0  0
 79152  1  0  0  0
 80 87  1  0  0  0
 80153  1  0  0  0
 80154  1  0  0  0
 81 87  1  0  0  0
 81155  1  0  0  0
 81156  1  0  0  0
 82 86  1  0  0  0
 82157  1  0  0  0
 82158  1  0  0  0
 82159  1  0  0  0
 83 86  1  0  0  0
 83160  1  0  0  0
 83161  1  0  0  0
 84162  1  0  0  0
 84163  1  0  0  0
 84 87  1  0  0  0
 85164  1  0  0  0
 85165  1  0  0  0
 87166  1  0  0  0
M  CHG  1  87   1
M  ISO  4   1 100  68 101  78 101  86 100
M  END
> <chiral flag>
0

> <version>
0

> <s_m_source_file>
/data/baiqing/PycharmProjects/Reinvent-master-3.2/result/LINK_invent/BTK/process_docking_weight1_custom_product_contain_oxygen_bond_distance_aromatic_linkinvent_7_9_3/rearranged_h_0105.sdf

> <i_m_source_file_index>
48

> <r_mmod_Potential_Energy-OPLS-2005>
-40.3174171447754

> <r_mmod_Stretch_Energy-OPLS-2005>
34.6112632751465

> <r_mmod_Bend_Energy-OPLS-2005>
124.138496398926

> <r_mmod_Torsional_Energy-OPLS-2005>
321.177551269531

> <r_mmod_Improper_Torsional_Energy-OPLS-2005>
6.13718175888062

> <r_mmod_Van_der_Waal_Energy-OPLS-2005>
142.574249267578

> <r_mmod_Electrostatic_Energy-OPLS-2005>
-263.254730224609

> <r_mmod_Solvation_Energy-OPLS-2005>
-413.53662109375

> <b_mmod_Minimization_Converged-OPLS-2005>
0

> <r_mmod_RMS_Derivative-OPLS-2005>
3.76212549209595

$$$$
48
                    3D
 Structure written by MMmdl.
165174  0  0  1  0            999 V2000
  -30.7285  -14.5333   20.5481 C   0  0  0  0  0  0
  -30.4119  -12.3459   19.4299 C   0  0  0  0  0  0
  -29.4857  -12.4963   18.2071 C   0  0  0  0  0  0
  -28.0116  -12.3384   18.6250 C   0  0  0  0  0  0
  -27.6446  -13.2041   19.8575 C   0  0  2  0  0  0
  -28.6960  -13.0667   20.9848 C   0  0  0  0  0  0
  -25.2526  -13.8131   20.5689 C   0  0  0  0  0  0
  -24.1798  -13.0414   20.9221 C   0  0  0  0  0  0
  -24.6356  -11.6884   20.8771 C   0  0  0  0  0  0
  -23.9023  -10.4278   21.0424 C   0  0  0  0  0  0
  -24.3585   -9.4197   21.9195 C   0  0  0  0  0  0
  -23.6273   -8.2230   22.0755 C   0  0  0  0  0  0
  -22.4259   -8.0263   21.3540 C   0  0  0  0  0  0
  -21.9888   -9.0229   20.4642 C   0  0  0  0  0  0
  -22.7205  -10.2114   20.3062 C   0  0  0  0  0  0
  -21.6845   -6.0720   22.5276 C   0  0  0  0  0  0
  -21.4007   -6.5631   23.8206 C   0  0  0  0  0  0
  -21.3658   -5.6782   24.9169 C   0  0  0  0  0  0
  -21.6047   -4.3045   24.7222 C   0  0  0  0  0  0
  -21.8826   -3.8132   23.4345 C   0  0  0  0  0  0
  -21.9193   -4.6946   22.3402 C   0  0  0  0  0  0
  -22.7826  -13.5227   21.1863 C   0  0  0  0  0  0
  -22.1667   -4.2134   21.0979 F   0  0  0  0  0  0
  -21.5631   -3.4532   25.7737 F   0  0  0  0  0  0
  -30.0192  -13.3701   20.4156 N   0  0  0  0  0  0
  -26.2937  -12.9285   20.3323 N   0  0  0  0  0  0
  -25.9276  -11.6457   20.5784 N   0  0  0  0  0  0
  -22.0449  -12.8230   22.0408 N   0  0  0  0  0  0
  -25.4204  -15.1850   20.4063 N   0  0  0  0  0  0
  -31.8780  -14.6393   20.1105 O   0  0  0  0  0  0
  -21.6633   -6.8854   21.4235 O   0  0  0  0  0  0
  -22.3531  -14.5532   20.6692 O   0  0  0  0  0  0
  -24.6170  -31.8650   23.2078 C   0  0  0  0  0  0
  -25.9053  -32.4809   23.8383 C   0  0  1  0  0  0
  -27.2374  -27.4043   20.0845 C   0  0  0  0  0  0
  -25.5914  -33.8609   24.2319 N   0  0  0  0  0  0
  -23.4081  -30.4891   21.5474 C   0  0  2  0  0  0
  -24.8549  -28.9548   20.1072 C   0  0  0  0  0  0
  -22.7435  -29.4635   22.4949 C   0  0  0  0  0  0
  -18.0283  -28.1373   22.8490 C   0  0  0  0  0  0
  -24.1484  -36.7298   23.2637 C   0  0  0  0  0  0
  -25.9399  -30.8202   21.3659 C   0  0  0  0  0  0
  -26.0162  -29.4535   20.7092 C   0  0  0  0  0  0
  -27.2052  -28.6814   20.7035 C   0  0  0  0  0  0
  -26.0509  -26.9278   19.4882 C   0  0  0  0  0  0
  -24.8679  -27.6906   19.4961 C   0  0  0  0  0  0
  -23.6181  -29.8251   20.1602 C   0  0  0  0  0  0
  -25.4112  -36.3109   24.0338 C   0  0  1  0  0  0
  -20.5875  -28.3665   23.1292 C   0  0  2  0  0  0
  -20.6764  -26.9396   22.5409 C   0  0  0  0  0  0
  -19.5744  -26.6375   21.5202 C   0  0  0  0  0  0
  -18.1926  -26.7925   22.1611 C   0  0  0  0  0  0
  -19.1532  -28.8835   23.2890 C   0  0  0  0  0  0
  -18.9461  -30.1440   23.8898 C   0  0  0  0  0  0
  -17.6464  -30.6581   24.0561 C   0  0  0  0  0  0
  -25.9043  -34.9473   23.5127 C   0  0  0  0  0  0
  -16.5351  -29.9087   23.6325 C   0  0  0  0  0  0
  -16.7272  -28.6499   23.0350 C   0  0  0  0  0  0
  -26.4476  -31.6595   25.0718 C   0  0  0  0  0  0
  -25.3742  -31.3707   26.1466 C   0  0  0  0  0  0
  -27.0311  -30.3040   24.6101 C   0  0  0  0  0  0
  -27.6058  -32.4305   25.7484 C   0  0  0  0  0  0
  -27.5579  -37.1815   24.8472 C   0  0  0  0  0  0
  -21.4157  -29.3025   22.3693 N   0  0  0  0  0  0
  -26.4298  -37.3791   23.9413 N   0  0  0  0  0  0
  -24.6737  -31.0727   22.0990 N   0  0  0  0  0  0
  -23.4191  -28.8169   23.2999 O   0  0  0  0  0  0
  -28.3842  -26.6280   20.1622 O   0  0  0  0  0  0
  -26.5591  -34.8928   22.4684 O   0  0  0  0  0  0
  -23.5357  -32.1404   23.7460 O   0  0  0  0  0  0
  -29.9094  -18.5147   19.4457 C   0  0  0  0  0  0
  -28.2087  -18.7109   21.1585 C   0  0  0  0  0  0
  -29.7503  -19.8903   19.1380 C   0  0  0  0  0  0
  -28.0531  -20.0865   20.8524 C   0  0  0  0  0  0
  -29.0992  -17.8917   20.4240 C   0  0  0  0  0  0
  -28.7869  -20.6882   19.8053 C   0  0  0  0  0  0
  -28.3211  -24.3638   18.8990 C   0  0  0  0  0  0
  -28.7625  -23.2626   19.5939 C   0  0  0  0  0  0
  -27.3936  -24.1411   17.7557 C   0  0  0  0  0  0
  -26.6424  -22.8195   17.7136 C   0  0  0  0  0  0
  -27.5835  -21.6654   18.0577 C   0  0  0  0  0  0
  -29.7520  -23.3988   20.7428 C   0  0  0  0  0  0
  -30.9527  -16.3698   22.1279 C   0  0  0  0  0  0
  -29.0332  -16.3492   20.5579 C   0  0  0  0  0  0
  -28.8318  -25.8286   19.0431 C   0  0  0  0  0  0
  -28.3707  -21.9361   19.2651 N   0  0  0  0  0  0
  -30.1479  -15.5920   21.1814 N   0  0  0  0  0  0
  -27.1823  -24.9623   16.8578 O   0  0  0  0  0  0
  -31.4555  -12.4312   19.1219 H   0  0  0  0  0  0
  -30.3144  -11.3494   19.8647 H   0  0  0  0  0  0
  -29.7391  -11.7538   17.4498 H   0  0  0  0  0  0
  -29.6367  -13.4719   17.7425 H   0  0  0  0  0  0
  -27.8408  -11.2847   18.8478 H   0  0  0  0  0  0
  -27.3545  -12.5784   17.7880 H   0  0  0  0  0  0
  -27.6464  -14.2288   19.5013 H   0  0  0  0  0  0
  -28.6922  -12.0535   21.3887 H   0  0  0  0  0  0
  -28.4524  -13.7198   21.8230 H   0  0  0  0  0  0
  -25.2729   -9.5678   22.4772 H   0  0  0  0  0  0
  -23.9981   -7.4618   22.7471 H   0  0  0  0  0  0
  -21.0821   -8.8728   19.8949 H   0  0  0  0  0  0
  -22.3653  -10.9644   19.6167 H   0  0  0  0  0  0
  -21.1995   -7.6140   23.9704 H   0  0  0  0  0  0
  -21.1479   -6.0514   25.9068 H   0  0  0  0  0  0
  -22.0609   -2.7594   23.2845 H   0  0  0  0  0  0
  -22.4051  -11.9896   22.4819 H   0  0  0  0  0  0
  -21.1057  -13.1254   22.2576 H   0  0  0  0  0  0
  -24.6456  -15.8307   20.5122 H   0  0  0  0  0  0
  -26.2544  -15.6242   20.0413 H   0  0  0  0  0  0
  -26.7129  -32.5507   23.1146 H   0  0  0  0  0  0
  -25.0134  -33.9776   25.0511 H   0  0  0  0  0  0
  -22.6988  -31.3078   21.4085 H   0  0  0  0  0  0
  -23.3755  -35.9623   23.3325 H   0  0  0  0  0  0
  -24.3576  -36.8878   22.2046 H   0  0  0  0  0  0
  -23.7222  -37.6509   23.6628 H   0  0  0  0  0  0
  -26.0577  -31.5877   20.5992 H   0  0  0  0  0  0
  -26.8247  -30.8684   21.9887 H   0  0  0  0  0  0
  -28.0977  -29.0586   21.1828 H   0  0  0  0  0  0
  -26.0029  -25.9468   19.0523 H   0  0  0  0  0  0
  -23.9712  -27.2934   19.0409 H   0  0  0  0  0  0
  -23.7310  -30.6027   19.4036 H   0  0  0  0  0  0
  -22.7401  -29.2494   19.8609 H   0  0  0  0  0  0
  -25.1288  -36.1977   25.0832 H   0  0  0  0  0  0
  -20.9977  -28.3227   24.1408 H   0  0  0  0  0  0
  -20.5639  -26.2279   23.3602 H   0  0  0  0  0  0
  -21.6630  -26.7416   22.1209 H   0  0  0  0  0  0
  -19.6911  -25.6289   21.1222 H   0  0  0  0  0  0
  -19.6697  -27.3188   20.6735 H   0  0  0  0  0  0
  -17.4205  -26.6688   21.4002 H   0  0  0  0  0  0
  -18.0320  -26.0049   22.8986 H   0  0  0  0  0  0
  -19.7943  -30.7250   24.2255 H   0  0  0  0  0  0
  -17.5031  -31.6260   24.5168 H   0  0  0  0  0  0
  -15.5357  -30.2993   23.7645 H   0  0  0  0  0  0
  -15.8672  -28.0824   22.7054 H   0  0  0  0  0  0
  -24.5939  -30.7018   25.7811 H   0  0  0  0  0  0
  -24.8903  -32.2858   26.4884 H   0  0  0  0  0  0
  -25.8090  -30.8914   27.0243 H   0  0  0  0  0  0
  -26.2858  -29.6801   24.1153 H   0  0  0  0  0  0
  -27.4086  -29.7267   25.4547 H   0  0  0  0  0  0
  -27.8687  -30.4364   23.9251 H   0  0  0  0  0  0
  -27.2703  -33.3619   26.2052 H   0  0  0  0  0  0
  -28.3880  -32.6828   25.0314 H   0  0  0  0  0  0
  -28.0710  -31.8430   26.5406 H   0  0  0  0  0  0
  -28.2617  -38.0095   24.7503 H   0  0  0  0  0  0
  -28.1055  -36.2625   24.6320 H   0  0  0  0  0  0
  -27.2299  -37.1483   25.8877 H   0  0  0  0  0  0
  -20.9314  -29.8792   21.6956 H   0  0  0  0  0  0
  -26.0189  -38.2872   24.1411 H   0  0  0  0  0  0
  -30.5955  -17.9194   18.8597 H   0  0  0  0  0  0
  -27.5704  -18.2687   21.9105 H   0  0  0  0  0  0
  -30.3153  -20.3110   18.3183 H   0  0  0  0  0  0
  -27.2939  -20.6584   21.3660 H   0  0  0  0  0  0
  -26.1944  -22.6722   16.7305 H   0  0  0  0  0  0
  -25.8276  -22.8670   18.4353 H   0  0  0  0  0  0
  -28.2656  -21.4943   17.2233 H   0  0  0  0  0  0
  -26.9942  -20.7528   18.1677 H   0  0  0  0  0  0
  -30.7263  -23.7135   20.3687 H   0  0  0  0  0  0
  -29.8951  -22.4786   21.3088 H   0  0  0  0  0  0
  -29.4035  -24.1556   21.4472 H   0  0  0  0  0  0
  -30.3166  -16.9448   22.8013 H   0  0  0  0  0  0
  -31.6134  -17.0609   21.6020 H   0  0  0  0  0  0
  -31.5735  -15.7198   22.7472 H   0  0  0  0  0  0
  -28.8907  -15.9898   19.5384 H   0  0  0  0  0  0
  -28.1227  -16.0858   21.0957 H   0  0  0  0  0  0
  -28.6919  -26.4065   18.1291 H   0  0  0  0  0  0
  -29.9156  -25.7650   19.1422 H   0  0  0  0  0  0
  1 25  1  0  0  0
  1 30  2  0  0  0
  1 87  1  0  0  0
  2  3  1  0  0  0
  2 25  1  0  0  0
  2 89  1  0  0  0
  2 90  1  0  0  0
  3  4  1  0  0  0
  3 91  1  0  0  0
  3 92  1  0  0  0
  4  5  1  0  0  0
  4 93  1  0  0  0
  4 94  1  0  0  0
  5  6  1  0  0  0
  5 26  1  0  0  0
  5 95  1  0  0  0
  6 25  1  0  0  0
  6 96  1  0  0  0
  6 97  1  0  0  0
  7  8  2  0  0  0
  7 26  1  0  0  0
  7 29  1  0  0  0
  8  9  1  0  0  0
  8 22  1  0  0  0
  9 10  1  0  0  0
  9 27  2  0  0  0
 10 11  2  0  0  0
 10 15  1  0  0  0
 11 12  1  0  0  0
 11 98  1  0  0  0
 12 13  2  0  0  0
 12 99  1  0  0  0
 13 14  1  0  0  0
 13 31  1  0  0  0
 14 15  2  0  0  0
 14100  1  0  0  0
 15101  1  0  0  0
 16 17  2  0  0  0
 16 21  1  0  0  0
 16 31  1  0  0  0
 17 18  1  0  0  0
 17102  1  0  0  0
 18 19  2  0  0  0
 18103  1  0  0  0
 19 20  1  0  0  0
 19 24  1  0  0  0
 20 21  2  0  0  0
 20104  1  0  0  0
 21 23  1  0  0  0
 22 28  1  0  0  0
 22 32  2  0  0  0
 26 27  1  0  0  0
 28105  1  0  0  0
 28106  1  0  0  0
 29107  1  0  0  0
 29108  1  0  0  0
 33 34  1  0  0  0
 33 66  1  0  0  0
 33 70  2  0  0  0
 34 36  1  0  0  0
 34 59  1  0  0  0
 34109  1  0  0  0
 35 44  2  0  0  0
 35 45  1  0  0  0
 35 68  1  0  0  0
 36 56  1  0  0  0
 36110  1  0  0  0
 37 39  1  0  0  0
 37 47  1  0  0  0
 37 66  1  0  0  0
 37111  1  0  0  0
 38 43  2  0  0  0
 38 46  1  0  0  0
 38 47  1  0  0  0
 39 64  1  0  0  0
 39 67  2  0  0  0
 40 52  1  0  0  0
 40 53  2  0  0  0
 40 58  1  0  0  0
 41112  1  0  0  0
 41113  1  0  0  0
 41114  1  0  0  0
 41 48  1  0  0  0
 42 43  1  0  0  0
 42 66  1  0  0  0
 42115  1  0  0  0
 42116  1  0  0  0
 43 44  1  0  0  0
 44117  1  0  0  0
 45 46  2  0  0  0
 45118  1  0  0  0
 46119  1  0  0  0
 47120  1  0  0  0
 47121  1  0  0  0
 48 56  1  0  0  0
 48 65  1  0  0  0
 48122  1  0  0  0
 49 50  1  0  0  0
 49 53  1  0  0  0
 49 64  1  0  0  0
 49123  1  0  0  0
 50 51  1  0  0  0
 50124  1  0  0  0
 50125  1  0  0  0
 51 52  1  0  0  0
 51126  1  0  0  0
 51127  1  0  0  0
 52128  1  0  0  0
 52129  1  0  0  0
 53 54  1  0  0  0
 54 55  2  0  0  0
 54130  1  0  0  0
 55 57  1  0  0  0
 55131  1  0  0  0
 56 69  2  0  0  0
 57 58  2  0  0  0
 57132  1  0  0  0
 58133  1  0  0  0
 59 60  1  0  0  0
 59 61  1  0  0  0
 59 62  1  0  0  0
 60134  1  0  0  0
 60135  1  0  0  0
 60136  1  0  0  0
 61137  1  0  0  0
 61138  1  0  0  0
 61139  1  0  0  0
 62140  1  0  0  0
 62141  1  0  0  0
 62142  1  0  0  0
 63 65  1  0  0  0
 63143  1  0  0  0
 63144  1  0  0  0
 63145  1  0  0  0
 64146  1  0  0  0
 65147  1  0  0  0
 68 85  1  0  0  0
 71 73  2  0  0  0
 71 75  1  0  0  0
 71148  1  0  0  0
 72 74  1  0  0  0
 72 75  2  0  0  0
 72149  1  0  0  0
 73 76  1  0  0  0
 73150  1  0  0  0
 74 76  2  0  0  0
 74151  1  0  0  0
 75 84  1  0  0  0
 76 86  1  0  0  0
 77 78  2  0  0  0
 77 79  1  0  0  0
 77 85  1  0  0  0
 78 82  1  0  0  0
 78 86  1  0  0  0
 79 80  1  0  0  0
 79 88  2  0  0  0
 80 81  1  0  0  0
 80152  1  0  0  0
 80153  1  0  0  0
 81 86  1  0  0  0
 81154  1  0  0  0
 81155  1  0  0  0
 82156  1  0  0  0
 82157  1  0  0  0
 82158  1  0  0  0
 83 87  1  0  0  0
 83159  1  0  0  0
 83160  1  0  0  0
 83161  1  0  0  0
 84 87  1  0  0  0
 84162  1  0  0  0
 84163  1  0  0  0
 85164  1  0  0  0
 85165  1  0  0  0
M  ISO  4   1 100  68 101  85 101  87 100
M  END
> <chiral flag>
0

> <version>
0

> <s_m_source_file>
/data/baiqing/PycharmProjects/Reinvent-master-3.2/result/LINK_invent/BTK/process_docking_weight1_custom_product_contain_oxygen_bond_distance_aromatic_linkinvent_7_9_3/rearranged_h_0105.sdf

> <i_m_source_file_index>
49

> <r_mmod_Potential_Energy-OPLS-2005>
158.929443359375

> <r_mmod_Stretch_Energy-OPLS-2005>
55.4755554199219

> <r_mmod_Bend_Energy-OPLS-2005>
128.431243896484

> <r_mmod_Torsional_Energy-OPLS-2005>
302.526306152344

> <r_mmod_Improper_Torsional_Energy-OPLS-2005>
7.38515281677246

> <r_mmod_Van_der_Waal_Energy-OPLS-2005>
162.034240722656

> <r_mmod_Electrostatic_Energy-OPLS-2005>
-315.770416259766

> <r_mmod_Solvation_Energy-OPLS-2005>
-205.119827270508

> <b_mmod_Minimization_Converged-OPLS-2005>
0

> <r_mmod_RMS_Derivative-OPLS-2005>
1.39039659500122

$$$$
49
                    3D
 Structure written by MMmdl.
161170  0  0  1  0            999 V2000
  -30.5765  -14.7352   20.4511 C   0  0  0  0  0  0
  -30.4476  -12.4459   19.4577 C   0  0  0  0  0  0
  -29.5139  -12.5047   18.2269 C   0  0  0  0  0  0
  -28.0378  -12.3320   18.6407 C   0  0  0  0  0  0
  -27.6456  -13.2216   19.8500 C   0  0  2  0  0  0
  -28.6945  -13.1268   20.9797 C   0  0  0  0  0  0
  -25.2531  -13.8188   20.5663 C   0  0  0  0  0  0
  -24.1817  -13.0434   20.9172 C   0  0  0  0  0  0
  -24.6399  -11.6909   20.8729 C   0  0  0  0  0  0
  -23.9068  -10.4292   21.0403 C   0  0  0  0  0  0
  -24.3620   -9.4209   21.9184 C   0  0  0  0  0  0
  -23.6292   -8.2247   22.0756 C   0  0  0  0  0  0
  -22.4275   -8.0285   21.3544 C   0  0  0  0  0  0
  -21.9906   -9.0257   20.4648 C   0  0  0  0  0  0
  -22.7240  -10.2134   20.3056 C   0  0  0  0  0  0
  -21.6852   -6.0736   22.5277 C   0  0  0  0  0  0
  -21.4016   -6.5640   23.8213 C   0  0  0  0  0  0
  -21.3658   -5.6791   24.9172 C   0  0  0  0  0  0
  -21.6044   -4.3053   24.7223 C   0  0  0  0  0  0
  -21.8820   -3.8145   23.4346 C   0  0  0  0  0  0
  -21.9194   -4.6959   22.3400 C   0  0  0  0  0  0
  -22.7837  -13.5222   21.1843 C   0  0  0  0  0  0
  -22.1662   -4.2144   21.0979 F   0  0  0  0  0  0
  -21.5624   -3.4541   25.7738 F   0  0  0  0  0  0
  -29.9970  -13.4890   20.4015 N   0  0  0  0  0  0
  -26.2961  -12.9374   20.3268 N   0  0  0  0  0  0
  -25.9331  -11.6525   20.5744 N   0  0  0  0  0  0
  -22.0487  -12.8226   22.0415 N   0  0  0  0  0  0
  -25.4135  -15.1935   20.4126 N   0  0  0  0  0  0
  -31.7698  -14.8879   20.1722 O   0  0  0  0  0  0
  -21.6644   -6.8876   21.4240 O   0  0  0  0  0  0
  -22.3514  -14.5519   20.6681 O   0  0  0  0  0  0
  -24.6299  -31.8559   23.1993 C   0  0  0  0  0  0
  -25.9124  -32.4759   23.8343 C   0  0  1  0  0  0
  -27.2269  -27.2824   20.1236 C   0  0  0  0  0  0
  -25.5918  -33.8560   24.2264 N   0  0  0  0  0  0
  -23.4281  -30.4764   21.5424 C   0  0  2  0  0  0
  -24.8785  -28.9222   20.1150 C   0  0  0  0  0  0
  -22.7501  -29.4595   22.4920 C   0  0  0  0  0  0
  -18.0293  -28.1387   22.8478 C   0  0  0  0  0  0
  -24.1485  -36.7283   23.2640 C   0  0  0  0  0  0
  -25.9725  -30.7730   21.3781 C   0  0  0  0  0  0
  -26.0496  -29.3948   20.7240 C   0  0  0  0  0  0
  -27.2311  -28.5853   20.7217 C   0  0  0  0  0  0
  -26.0362  -26.8671   19.4970 C   0  0  0  0  0  0
  -24.8742  -27.6631   19.4935 C   0  0  0  0  0  0
  -23.6481  -29.8081   20.1597 C   0  0  0  0  0  0
  -25.4110  -36.3070   24.0330 C   0  0  1  0  0  0
  -20.5893  -28.3696   23.1269 C   0  0  2  0  0  0
  -20.6775  -26.9414   22.5405 C   0  0  0  0  0  0
  -19.5752  -26.6383   21.5206 C   0  0  0  0  0  0
  -18.1937  -26.7928   22.1623 C   0  0  0  0  0  0
  -19.1545  -28.8861   23.2868 C   0  0  0  0  0  0
  -18.9467  -30.1458   23.8893 C   0  0  0  0  0  0
  -17.6465  -30.6584   24.0568 C   0  0  0  0  0  0
  -25.9048  -34.9440   23.5101 C   0  0  0  0  0  0
  -16.5358  -29.9083   23.6329 C   0  0  0  0  0  0
  -16.7278  -28.6501   23.0349 C   0  0  0  0  0  0
  -26.4493  -31.6580   25.0728 C   0  0  0  0  0  0
  -25.3717  -31.3733   26.1451 C   0  0  0  0  0  0
  -27.0342  -30.3000   24.6205 C   0  0  0  0  0  0
  -27.6050  -32.4321   25.7495 C   0  0  0  0  0  0
  -27.5575  -37.1797   24.8464 C   0  0  0  0  0  0
  -21.4208  -29.3039   22.3658 N   0  0  0  0  0  0
  -26.4285  -37.3769   23.9410 N   0  0  0  0  0  0
  -24.6956  -31.0528   22.0968 N   0  0  0  0  0  0
  -23.4200  -28.8142   23.3024 O   0  0  0  0  0  0
  -28.2930  -26.3644   20.1030 O   0  0  0  0  0  0
  -26.5626  -34.8914   22.4673 O   0  0  0  0  0  0
  -23.5447  -32.1376   23.7289 O   0  0  0  0  0  0
  -28.5666  -19.4306   20.0587 C   0  0  0  0  0  0
  -30.8131  -18.0729   21.0624 C   0  0  0  0  0  0
  -29.5653  -20.2406   20.6694 C   0  0  0  0  0  0
  -28.6707  -17.9972   19.9857 C   0  0  0  0  0  0
  -30.7014  -19.5033   21.1457 C   0  0  0  0  0  0
  -29.7814  -17.2685   20.5095 C   0  0  0  0  0  0
  -28.5438  -23.9959   21.1526 C   0  0  0  0  0  0
  -28.3109  -25.3698   21.1013 C   0  0  0  0  0  0
  -28.5533  -23.3300   22.5117 C   0  0  0  0  0  0
  -28.9587  -21.8570   22.3303 C   0  0  0  0  0  0
  -28.8625  -22.8132   20.1657 C   0  0  1  0  0  0
  -29.7531  -23.2167   18.9868 C   0  0  0  0  0  0
  -29.4317  -21.6653   20.9627 N   0  0  0  0  0  0
  -27.6425  -17.2648   19.3867 N   0  0  0  0  0  0
  -31.7349  -20.2198   21.7492 N   0  0  0  0  0  0
  -29.6962  -15.7921   20.5695 N   0  0  0  0  0  0
  -31.4846  -12.5953   19.1514 H   0  0  0  0  0  0
  -30.4096  -11.4631   19.9305 H   0  0  0  0  0  0
  -29.7922  -11.7348   17.5063 H   0  0  0  0  0  0
  -29.6414  -13.4607   17.7154 H   0  0  0  0  0  0
  -27.8888  -11.2814   18.8930 H   0  0  0  0  0  0
  -27.3831  -12.5360   17.7927 H   0  0  0  0  0  0
  -27.6409  -14.2455   19.4781 H   0  0  0  0  0  0
  -28.7283  -12.1185   21.3954 H   0  0  0  0  0  0
  -28.4326  -13.7876   21.8080 H   0  0  0  0  0  0
  -25.2769   -9.5685   22.4757 H   0  0  0  0  0  0
  -23.9996   -7.4642   22.7482 H   0  0  0  0  0  0
  -21.0832   -8.8787   19.8958 H   0  0  0  0  0  0
  -22.3705  -10.9675   19.6164 H   0  0  0  0  0  0
  -21.2013   -7.6151   23.9714 H   0  0  0  0  0  0
  -21.1474   -6.0522   25.9074 H   0  0  0  0  0  0
  -22.0598   -2.7603   23.2854 H   0  0  0  0  0  0
  -22.4113  -11.9903   22.4824 H   0  0  0  0  0  0
  -21.1105  -13.1255   22.2616 H   0  0  0  0  0  0
  -24.6291  -15.8255   20.5277 H   0  0  0  0  0  0
  -26.2551  -15.6848   20.1199 H   0  0  0  0  0  0
  -26.7196  -32.5422   23.1094 H   0  0  0  0  0  0
  -25.0052  -33.9700   25.0400 H   0  0  0  0  0  0
  -22.7240  -31.2978   21.3948 H   0  0  0  0  0  0
  -23.3746  -35.9617   23.3305 H   0  0  0  0  0  0
  -24.3577  -36.8899   22.2053 H   0  0  0  0  0  0
  -23.7240  -37.6487   23.6663 H   0  0  0  0  0  0
  -26.1074  -31.5322   20.6066 H   0  0  0  0  0  0
  -26.8510  -30.8262   22.0095 H   0  0  0  0  0  0
  -28.1321  -28.9407   21.2018 H   0  0  0  0  0  0
  -26.0035  -25.8959   19.0242 H   0  0  0  0  0  0
  -23.9764  -27.2935   19.0169 H   0  0  0  0  0  0
  -23.7733  -30.5840   19.4033 H   0  0  0  0  0  0
  -22.7669  -29.2408   19.8547 H   0  0  0  0  0  0
  -25.1289  -36.1921   25.0823 H   0  0  0  0  0  0
  -20.9985  -28.3272   24.1391 H   0  0  0  0  0  0
  -20.5663  -26.2309   23.3607 H   0  0  0  0  0  0
  -21.6644  -26.7425   22.1210 H   0  0  0  0  0  0
  -19.6911  -25.6294   21.1236 H   0  0  0  0  0  0
  -19.6687  -27.3193   20.6736 H   0  0  0  0  0  0
  -17.4198  -26.6665   21.4037 H   0  0  0  0  0  0
  -18.0346  -26.0075   22.9025 H   0  0  0  0  0  0
  -19.7943  -30.7274   24.2262 H   0  0  0  0  0  0
  -17.5019  -31.6262   24.5174 H   0  0  0  0  0  0
  -15.5359  -30.2984   23.7655 H   0  0  0  0  0  0
  -15.8679  -28.0817   22.7069 H   0  0  0  0  0  0
  -24.5888  -30.7086   25.7781 H   0  0  0  0  0  0
  -24.8915  -32.2905   26.4872 H   0  0  0  0  0  0
  -25.8031  -30.8913   27.0231 H   0  0  0  0  0  0
  -26.2928  -29.6747   24.1217 H   0  0  0  0  0  0
  -27.4018  -29.7262   25.4722 H   0  0  0  0  0  0
  -27.8805  -30.4283   23.9454 H   0  0  0  0  0  0
  -27.2665  -33.3631   26.2053 H   0  0  0  0  0  0
  -28.3866  -32.6860   25.0323 H   0  0  0  0  0  0
  -28.0708  -31.8457   26.5424 H   0  0  0  0  0  0
  -28.2591  -38.0096   24.7512 H   0  0  0  0  0  0
  -28.1072  -36.2628   24.6283 H   0  0  0  0  0  0
  -27.2297  -37.1437   25.8868 H   0  0  0  0  0  0
  -20.9400  -29.8761   21.6858 H   0  0  0  0  0  0
  -26.0162  -38.2839   24.1422 H   0  0  0  0  0  0
  -27.6769  -19.9145   19.6838 H   0  0  0  0  0  0
  -31.6775  -17.5816   21.4853 H   0  0  0  0  0  0
  -28.1212  -25.8590   22.0469 H   0  0  0  0  0  0
  -27.5722  -23.4083   22.9821 H   0  0  0  0  0  0
  -29.2681  -23.8429   23.1566 H   0  0  0  0  0  0
  -28.0981  -21.2113   22.5156 H   0  0  0  0  0  0
  -29.7270  -21.5813   23.0541 H   0  0  0  0  0  0
  -27.9031  -22.4769   19.7677 H   0  0  0  0  0  0
  -30.7272  -23.5723   19.3239 H   0  0  0  0  0  0
  -29.2908  -24.0185   18.4098 H   0  0  0  0  0  0
  -29.9161  -22.3789   18.3081 H   0  0  0  0  0  0
  -26.9617  -17.8216   18.8809 H   0  0  0  0  0  0
  -27.9735  -16.5138   18.7918 H   0  0  0  0  0  0
  -32.6783  -19.8708   21.6249 H   0  0  0  0  0  0
  -31.6600  -21.2201   21.5823 H   0  0  0  0  0  0
  -28.7378  -15.4808   20.6075 H   0  0  0  0  0  0
  1 25  1  0  0  0
  1 30  2  0  0  0
  1 86  1  0  0  0
  2  3  1  0  0  0
  2 25  1  0  0  0
  2 87  1  0  0  0
  2 88  1  0  0  0
  3  4  1  0  0  0
  3 89  1  0  0  0
  3 90  1  0  0  0
  4  5  1  0  0  0
  4 91  1  0  0  0
  4 92  1  0  0  0
  5  6  1  0  0  0
  5 26  1  0  0  0
  5 93  1  0  0  0
  6 25  1  0  0  0
  6 94  1  0  0  0
  6 95  1  0  0  0
  7  8  2  0  0  0
  7 26  1  0  0  0
  7 29  1  0  0  0
  8  9  1  0  0  0
  8 22  1  0  0  0
  9 10  1  0  0  0
  9 27  2  0  0  0
 10 11  2  0  0  0
 10 15  1  0  0  0
 11 12  1  0  0  0
 11 96  1  0  0  0
 12 13  2  0  0  0
 12 97  1  0  0  0
 13 14  1  0  0  0
 13 31  1  0  0  0
 14 15  2  0  0  0
 14 98  1  0  0  0
 15 99  1  0  0  0
 16 17  2  0  0  0
 16 21  1  0  0  0
 16 31  1  0  0  0
 17 18  1  0  0  0
 17100  1  0  0  0
 18 19  2  0  0  0
 18101  1  0  0  0
 19 20  1  0  0  0
 19 24  1  0  0  0
 20 21  2  0  0  0
 20102  1  0  0  0
 21 23  1  0  0  0
 22 28  1  0  0  0
 22 32  2  0  0  0
 26 27  1  0  0  0
 28103  1  0  0  0
 28104  1  0  0  0
 29105  1  0  0  0
 29106  1  0  0  0
 33 34  1  0  0  0
 33 66  1  0  0  0
 33 70  2  0  0  0
 34 36  1  0  0  0
 34 59  1  0  0  0
 34107  1  0  0  0
 35 44  2  0  0  0
 35 45  1  0  0  0
 35 68  1  0  0  0
 36 56  1  0  0  0
 36108  1  0  0  0
 37 39  1  0  0  0
 37 47  1  0  0  0
 37 66  1  0  0  0
 37109  1  0  0  0
 38 43  2  0  0  0
 38 46  1  0  0  0
 38 47  1  0  0  0
 39 64  1  0  0  0
 39 67  2  0  0  0
 40 52  1  0  0  0
 40 53  2  0  0  0
 40 58  1  0  0  0
 41110  1  0  0  0
 41111  1  0  0  0
 41112  1  0  0  0
 41 48  1  0  0  0
 42 43  1  0  0  0
 42 66  1  0  0  0
 42113  1  0  0  0
 42114  1  0  0  0
 43 44  1  0  0  0
 44115  1  0  0  0
 45 46  2  0  0  0
 45116  1  0  0  0
 46117  1  0  0  0
 47118  1  0  0  0
 47119  1  0  0  0
 48 56  1  0  0  0
 48 65  1  0  0  0
 48120  1  0  0  0
 49 50  1  0  0  0
 49 53  1  0  0  0
 49 64  1  0  0  0
 49121  1  0  0  0
 50 51  1  0  0  0
 50122  1  0  0  0
 50123  1  0  0  0
 51 52  1  0  0  0
 51124  1  0  0  0
 51125  1  0  0  0
 52126  1  0  0  0
 52127  1  0  0  0
 53 54  1  0  0  0
 54 55  2  0  0  0
 54128  1  0  0  0
 55 57  1  0  0  0
 55129  1  0  0  0
 56 69  2  0  0  0
 57 58  2  0  0  0
 57130  1  0  0  0
 58131  1  0  0  0
 59 60  1  0  0  0
 59 61  1  0  0  0
 59 62  1  0  0  0
 60132  1  0  0  0
 60133  1  0  0  0
 60134  1  0  0  0
 61135  1  0  0  0
 61136  1  0  0  0
 61137  1  0  0  0
 62138  1  0  0  0
 62139  1  0  0  0
 62140  1  0  0  0
 63 65  1  0  0  0
 63141  1  0  0  0
 63142  1  0  0  0
 63143  1  0  0  0
 64144  1  0  0  0
 65145  1  0  0  0
 68 78  1  0  0  0
 71 73  2  0  0  0
 71 74  1  0  0  0
 71146  1  0  0  0
 72 75  2  0  0  0
 72 76  1  0  0  0
 72147  1  0  0  0
 73 75  1  0  0  0
 73 83  1  0  0  0
 74 76  2  0  0  0
 74 84  1  0  0  0
 75 85  1  0  0  0
 76 86  1  0  0  0
 77 78  2  0  0  0
 77 79  1  0  0  0
 77 81  1  0  0  0
 78148  1  0  0  0
 79 80  1  0  0  0
 79149  1  0  0  0
 79150  1  0  0  0
 80 83  1  0  0  0
 80151  1  0  0  0
 80152  1  0  0  0
 81 82  1  0  0  0
 81 83  1  0  0  0
 81153  1  0  0  0
 82154  1  0  0  0
 82155  1  0  0  0
 82156  1  0  0  0
 84157  1  0  0  0
 84158  1  0  0  0
 85159  1  0  0  0
 85160  1  0  0  0
 86161  1  0  0  0
M  ISO  4   1 100  68 101  78 101  86 100
M  END
> <chiral flag>
0

> <version>
0

> <s_m_source_file>
/data/baiqing/PycharmProjects/Reinvent-master-3.2/result/LINK_invent/BTK/process_docking_weight1_custom_product_contain_oxygen_bond_distance_aromatic_linkinvent_7_9_3/rearranged_h_0105.sdf

> <i_m_source_file_index>
50

> <r_mmod_Potential_Energy-OPLS-2005>
117.875633239746

> <r_mmod_Stretch_Energy-OPLS-2005>
97.1598739624023

> <r_mmod_Bend_Energy-OPLS-2005>
236.251770019531

> <r_mmod_Torsional_Energy-OPLS-2005>
296.986755371094

> <r_mmod_Improper_Torsional_Energy-OPLS-2005>
21.0342979431152

> <r_mmod_Van_der_Waal_Energy-OPLS-2005>
130.731292724609

> <r_mmod_Electrostatic_Energy-OPLS-2005>
-533.062438964844

> <r_mmod_Solvation_Energy-OPLS-2005>
-212.270721435547

> <b_mmod_Minimization_Converged-OPLS-2005>
0

> <r_mmod_RMS_Derivative-OPLS-2005>
1.00704824924469

$$$$
50
                    3D
 Structure written by MMmdl.
160169  0  0  1  0            999 V2000
  -30.6489  -14.6472   20.5742 C   0  0  0  0  0  0
  -30.4386  -12.4182   19.4641 C   0  0  0  0  0  0
  -29.5119  -12.5348   18.2321 C   0  0  0  0  0  0
  -28.0332  -12.3619   18.6322 C   0  0  0  0  0  0
  -27.6558  -13.2167   19.8695 C   0  0  2  0  0  0
  -28.6922  -13.0369   20.9972 C   0  0  0  0  0  0
  -25.2564  -13.8169   20.5674 C   0  0  0  0  0  0
  -24.1827  -13.0434   20.9169 C   0  0  0  0  0  0
  -24.6394  -11.6905   20.8719 C   0  0  0  0  0  0
  -23.9061  -10.4291   21.0395 C   0  0  0  0  0  0
  -24.3613   -9.4210   21.9177 C   0  0  0  0  0  0
  -23.6289   -8.2247   22.0752 C   0  0  0  0  0  0
  -22.4271   -8.0282   21.3546 C   0  0  0  0  0  0
  -21.9904   -9.0254   20.4645 C   0  0  0  0  0  0
  -22.7231  -10.2133   20.3050 C   0  0  0  0  0  0
  -21.6850   -6.0734   22.5279 C   0  0  0  0  0  0
  -21.4012   -6.5638   23.8212 C   0  0  0  0  0  0
  -21.3661   -5.6791   24.9175 C   0  0  0  0  0  0
  -21.6043   -4.3053   24.7226 C   0  0  0  0  0  0
  -21.8820   -3.8145   23.4348 C   0  0  0  0  0  0
  -21.9191   -4.6961   22.3403 C   0  0  0  0  0  0
  -22.7853  -13.5233   21.1844 C   0  0  0  0  0  0
  -22.1661   -4.2147   21.0980 F   0  0  0  0  0  0
  -21.5630   -3.4538   25.7740 F   0  0  0  0  0  0
  -30.0130  -13.4244   20.4669 N   0  0  0  0  0  0
  -26.2993  -12.9350   20.3314 N   0  0  0  0  0  0
  -25.9321  -11.6500   20.5721 N   0  0  0  0  0  0
  -22.0502  -12.8231   22.0411 N   0  0  0  0  0  0
  -25.4280  -15.1891   20.4114 N   0  0  0  0  0  0
  -31.7338  -14.8414   20.0136 O   0  0  0  0  0  0
  -21.6638   -6.8876   21.4241 O   0  0  0  0  0  0
  -22.3537  -14.5540   20.6694 O   0  0  0  0  0  0
  -24.6256  -31.8594   23.2032 C   0  0  0  0  0  0
  -25.9104  -32.4776   23.8358 C   0  0  1  0  0  0
  -27.2195  -27.3065   20.1315 C   0  0  0  0  0  0
  -25.5918  -33.8576   24.2278 N   0  0  0  0  0  0
  -23.4216  -30.4819   21.5448 C   0  0  2  0  0  0
  -24.8713  -28.9344   20.1142 C   0  0  0  0  0  0
  -22.7477  -29.4618   22.4933 C   0  0  0  0  0  0
  -18.0282  -28.1388   22.8488 C   0  0  0  0  0  0
  -24.1488  -36.7291   23.2644 C   0  0  0  0  0  0
  -25.9639  -30.7823   21.3827 C   0  0  0  0  0  0
  -26.0377  -29.4066   20.7317 C   0  0  0  0  0  0
  -27.2169  -28.6010   20.7382 C   0  0  0  0  0  0
  -26.0488  -26.9066   19.4611 C   0  0  0  0  0  0
  -24.8783  -27.6876   19.4703 C   0  0  0  0  0  0
  -23.6398  -29.8163   20.1605 C   0  0  0  0  0  0
  -25.4115  -36.3079   24.0329 C   0  0  1  0  0  0
  -20.5884  -28.3697   23.1275 C   0  0  2  0  0  0
  -20.6773  -26.9419   22.5409 C   0  0  0  0  0  0
  -19.5746  -26.6385   21.5215 C   0  0  0  0  0  0
  -18.1927  -26.7930   22.1628 C   0  0  0  0  0  0
  -19.1536  -28.8858   23.2876 C   0  0  0  0  0  0
  -18.9459  -30.1459   23.8896 C   0  0  0  0  0  0
  -17.6462  -30.6591   24.0564 C   0  0  0  0  0  0
  -25.9053  -34.9449   23.5106 C   0  0  0  0  0  0
  -16.5351  -29.9089   23.6333 C   0  0  0  0  0  0
  -16.7269  -28.6505   23.0358 C   0  0  0  0  0  0
  -26.4491  -31.6590   25.0729 C   0  0  0  0  0  0
  -25.3716  -31.3712   26.1448 C   0  0  0  0  0  0
  -27.0359  -30.3015   24.6207 C   0  0  0  0  0  0
  -27.6044  -32.4340   25.7492 C   0  0  0  0  0  0
  -27.5580  -37.1796   24.8466 C   0  0  0  0  0  0
  -21.4190  -29.3044   22.3666 N   0  0  0  0  0  0
  -26.4294  -37.3775   23.9409 N   0  0  0  0  0  0
  -24.6885  -31.0590   22.0997 N   0  0  0  0  0  0
  -23.4191  -28.8161   23.3025 O   0  0  0  0  0  0
  -28.3188  -26.4383   20.1046 O   0  0  0  0  0  0
  -26.5629  -34.8914   22.4678 O   0  0  0  0  0  0
  -23.5414  -32.1406   23.7344 O   0  0  0  0  0  0
  -29.5562  -17.6583   19.6336 C   0  0  0  0  0  0
  -29.9133  -18.3538   21.8888 C   0  0  0  0  0  0
  -29.2294  -19.0108   19.2943 C   0  0  0  0  0  0
  -29.5889  -19.7055   21.5502 C   0  0  0  0  0  0
  -29.8733  -17.2651   20.9606 C   0  0  0  0  0  0
  -29.1849  -20.0804   20.2447 C   0  0  0  0  0  0
  -28.0834  -23.7746   20.4662 C   0  0  0  0  0  0
  -28.9814  -22.7122   20.4123 C   0  0  0  0  0  0
  -26.6519  -23.4329   20.2335 C   0  0  0  0  0  0
  -30.0143  -15.7989   21.4540 C   0  0  0  0  0  0
  -26.2922  -22.0596   19.6665 C   0  0  0  0  0  0
  -27.4894  -21.3370   19.0426 C   0  0  0  0  0  0
  -30.4395  -22.8955   20.7993 C   0  0  0  0  0  0
  -28.3307  -25.2533   21.0043 C   0  0  0  0  0  0
  -29.6611  -15.5522   22.6482 N   0  0  0  0  0  0
  -28.6611  -21.3976   19.9221 N   0  0  0  0  0  0
  -25.7131  -24.1571   20.5714 O   0  0  0  0  0  0
  -31.4795  -12.5459   19.1630 H   0  0  0  0  0  0
  -30.3834  -11.4151   19.8898 H   0  0  0  0  0  0
  -29.7853  -11.7903   17.4833 H   0  0  0  0  0  0
  -29.6527  -13.5089   17.7608 H   0  0  0  0  0  0
  -27.8687  -11.3058   18.8490 H   0  0  0  0  0  0
  -27.3823  -12.6043   17.7914 H   0  0  0  0  0  0
  -27.6861  -14.2601   19.5553 H   0  0  0  0  0  0
  -28.7150  -11.9964   21.3242 H   0  0  0  0  0  0
  -28.3839  -13.5926   21.8778 H   0  0  0  0  0  0
  -25.2759   -9.5689   22.4751 H   0  0  0  0  0  0
  -23.9998   -7.4640   22.7475 H   0  0  0  0  0  0
  -21.0835   -8.8771   19.8953 H   0  0  0  0  0  0
  -22.3687  -10.9670   19.6160 H   0  0  0  0  0  0
  -21.2005   -7.6146   23.9714 H   0  0  0  0  0  0
  -21.1481   -6.0522   25.9078 H   0  0  0  0  0  0
  -22.0597   -2.7607   23.2850 H   0  0  0  0  0  0
  -22.4117  -11.9893   22.4802 H   0  0  0  0  0  0
  -21.1130  -13.1270   22.2631 H   0  0  0  0  0  0
  -24.6658  -15.8467   20.5329 H   0  0  0  0  0  0
  -26.2900  -15.6317   20.1195 H   0  0  0  0  0  0
  -26.7168  -32.5446   23.1102 H   0  0  0  0  0  0
  -25.0038  -33.9721   25.0405 H   0  0  0  0  0  0
  -22.7159  -31.3026   21.4001 H   0  0  0  0  0  0
  -23.3750  -35.9623   23.3300 H   0  0  0  0  0  0
  -24.3577  -36.8927   22.2062 H   0  0  0  0  0  0
  -23.7244  -37.6488   23.6677 H   0  0  0  0  0  0
  -26.1014  -31.5421   20.6121 H   0  0  0  0  0  0
  -26.8417  -30.8312   22.0150 H   0  0  0  0  0  0
  -28.1127  -28.9580   21.2269 H   0  0  0  0  0  0
  -26.0357  -25.9702   18.9251 H   0  0  0  0  0  0
  -23.9920  -27.3268   18.9669 H   0  0  0  0  0  0
  -23.7613  -30.5923   19.4038 H   0  0  0  0  0  0
  -22.7601  -29.2460   19.8575 H   0  0  0  0  0  0
  -25.1295  -36.1932   25.0820 H   0  0  0  0  0  0
  -20.9977  -28.3279   24.1396 H   0  0  0  0  0  0
  -20.5683  -26.2306   23.3610 H   0  0  0  0  0  0
  -21.6641  -26.7452   22.1200 H   0  0  0  0  0  0
  -19.6907  -25.6294   21.1253 H   0  0  0  0  0  0
  -19.6680  -27.3186   20.6737 H   0  0  0  0  0  0
  -17.4197  -26.6673   21.4032 H   0  0  0  0  0  0
  -18.0322  -26.0074   22.9024 H   0  0  0  0  0  0
  -19.7936  -30.7273   24.2270 H   0  0  0  0  0  0
  -17.5015  -31.6269   24.5170 H   0  0  0  0  0  0
  -15.5352  -30.2994   23.7660 H   0  0  0  0  0  0
  -15.8665  -28.0824   22.7082 H   0  0  0  0  0  0
  -24.5893  -30.7072   25.7754 H   0  0  0  0  0  0
  -24.8900  -32.2871   26.4882 H   0  0  0  0  0  0
  -25.8027  -30.8870   27.0219 H   0  0  0  0  0  0
  -26.2947  -29.6738   24.1249 H   0  0  0  0  0  0
  -27.4073  -29.7301   25.4724 H   0  0  0  0  0  0
  -27.8804  -30.4304   23.9434 H   0  0  0  0  0  0
  -27.2652  -33.3648   26.2048 H   0  0  0  0  0  0
  -28.3847  -32.6899   25.0311 H   0  0  0  0  0  0
  -28.0720  -31.8487   26.5419 H   0  0  0  0  0  0
  -28.2593  -38.0102   24.7536 H   0  0  0  0  0  0
  -28.1087  -36.2635   24.6274 H   0  0  0  0  0  0
  -27.2291  -37.1422   25.8866 H   0  0  0  0  0  0
  -20.9371  -29.8766   21.6874 H   0  0  0  0  0  0
  -26.0173  -38.2846   24.1420 H   0  0  0  0  0  0
  -29.5044  -16.9059   18.8595 H   0  0  0  0  0  0
  -30.1581  -18.1524   22.9219 H   0  0  0  0  0  0
  -28.9694  -19.2082   18.2642 H   0  0  0  0  0  0
  -29.5917  -20.4510   22.3323 H   0  0  0  0  0  0
  -25.4936  -22.1679   18.9327 H   0  0  0  0  0  0
  -25.8922  -21.4598   20.4839 H   0  0  0  0  0  0
  -27.7428  -21.7970   18.0861 H   0  0  0  0  0  0
  -27.1657  -20.3209   18.8190 H   0  0  0  0  0  0
  -30.8638  -23.7567   20.2814 H   0  0  0  0  0  0
  -31.0547  -22.0323   20.5442 H   0  0  0  0  0  0
  -30.5282  -23.0657   21.8730 H   0  0  0  0  0  0
  -29.3133  -25.2630   21.4739 H   0  0  0  0  0  0
  -27.6451  -25.4351   21.8336 H   0  0  0  0  0  0
  -29.2940  -16.3838   23.0936 H   0  0  0  0  0  0
  1 25  1  0  0  0
  1 30  2  0  0  0
  1 80  1  0  0  0
  2  3  1  0  0  0
  2 25  1  0  0  0
  2 88  1  0  0  0
  2 89  1  0  0  0
  3  4  1  0  0  0
  3 90  1  0  0  0
  3 91  1  0  0  0
  4  5  1  0  0  0
  4 92  1  0  0  0
  4 93  1  0  0  0
  5  6  1  0  0  0
  5 26  1  0  0  0
  5 94  1  0  0  0
  6 25  1  0  0  0
  6 95  1  0  0  0
  6 96  1  0  0  0
  7  8  2  0  0  0
  7 26  1  0  0  0
  7 29  1  0  0  0
  8  9  1  0  0  0
  8 22  1  0  0  0
  9 10  1  0  0  0
  9 27  2  0  0  0
 10 11  2  0  0  0
 10 15  1  0  0  0
 11 12  1  0  0  0
 11 97  1  0  0  0
 12 13  2  0  0  0
 12 98  1  0  0  0
 13 14  1  0  0  0
 13 31  1  0  0  0
 14 15  2  0  0  0
 14 99  1  0  0  0
 15100  1  0  0  0
 16 17  2  0  0  0
 16 21  1  0  0  0
 16 31  1  0  0  0
 17 18  1  0  0  0
 17101  1  0  0  0
 18 19  2  0  0  0
 18102  1  0  0  0
 19 20  1  0  0  0
 19 24  1  0  0  0
 20 21  2  0  0  0
 20103  1  0  0  0
 21 23  1  0  0  0
 22 28  1  0  0  0
 22 32  2  0  0  0
 26 27  1  0  0  0
 28104  1  0  0  0
 28105  1  0  0  0
 29106  1  0  0  0
 29107  1  0  0  0
 33 34  1  0  0  0
 33 66  1  0  0  0
 33 70  2  0  0  0
 34 36  1  0  0  0
 34 59  1  0  0  0
 34108  1  0  0  0
 35 44  2  0  0  0
 35 45  1  0  0  0
 35 68  1  0  0  0
 36 56  1  0  0  0
 36109  1  0  0  0
 37 39  1  0  0  0
 37 47  1  0  0  0
 37 66  1  0  0  0
 37110  1  0  0  0
 38 43  2  0  0  0
 38 46  1  0  0  0
 38 47  1  0  0  0
 39 64  1  0  0  0
 39 67  2  0  0  0
 40 52  1  0  0  0
 40 53  2  0  0  0
 40 58  1  0  0  0
 41111  1  0  0  0
 41112  1  0  0  0
 41113  1  0  0  0
 41 48  1  0  0  0
 42 43  1  0  0  0
 42 66  1  0  0  0
 42114  1  0  0  0
 42115  1  0  0  0
 43 44  1  0  0  0
 44116  1  0  0  0
 45 46  2  0  0  0
 45117  1  0  0  0
 46118  1  0  0  0
 47119  1  0  0  0
 47120  1  0  0  0
 48 56  1  0  0  0
 48 65  1  0  0  0
 48121  1  0  0  0
 49 50  1  0  0  0
 49 53  1  0  0  0
 49 64  1  0  0  0
 49122  1  0  0  0
 50 51  1  0  0  0
 50123  1  0  0  0
 50124  1  0  0  0
 51 52  1  0  0  0
 51125  1  0  0  0
 51126  1  0  0  0
 52127  1  0  0  0
 52128  1  0  0  0
 53 54  1  0  0  0
 54 55  2  0  0  0
 54129  1  0  0  0
 55 57  1  0  0  0
 55130  1  0  0  0
 56 69  2  0  0  0
 57 58  2  0  0  0
 57131  1  0  0  0
 58132  1  0  0  0
 59 60  1  0  0  0
 59 61  1  0  0  0
 59 62  1  0  0  0
 60133  1  0  0  0
 60134  1  0  0  0
 60135  1  0  0  0
 61136  1  0  0  0
 61137  1  0  0  0
 61138  1  0  0  0
 62139  1  0  0  0
 62140  1  0  0  0
 62141  1  0  0  0
 63 65  1  0  0  0
 63142  1  0  0  0
 63143  1  0  0  0
 63144  1  0  0  0
 64145  1  0  0  0
 65146  1  0  0  0
 68 84  1  0  0  0
 71 73  2  0  0  0
 71 75  1  0  0  0
 71147  1  0  0  0
 72 74  1  0  0  0
 72 75  2  0  0  0
 72148  1  0  0  0
 73 76  1  0  0  0
 73149  1  0  0  0
 74 76  2  0  0  0
 74150  1  0  0  0
 75 80  1  0  0  0
 76 86  1  0  0  0
 77 78  2  0  0  0
 77 79  1  0  0  0
 77 84  1  0  0  0
 78 83  1  0  0  0
 78 86  1  0  0  0
 79 81  1  0  0  0
 79 87  2  0  0  0
 80 85  2  0  0  0
 81 82  1  0  0  0
 81151  1  0  0  0
 81152  1  0  0  0
 82 86  1  0  0  0
 82153  1  0  0  0
 82154  1  0  0  0
 83155  1  0  0  0
 83156  1  0  0  0
 83157  1  0  0  0
 84158  1  0  0  0
 84159  1  0  0  0
 85160  1  0  0  0
M  ISO  4   1 100  68 101  80 100  84 101
M  END
> <chiral flag>
0

> <version>
0

> <s_m_source_file>
/data/baiqing/PycharmProjects/Reinvent-master-3.2/result/LINK_invent/BTK/process_docking_weight1_custom_product_contain_oxygen_bond_distance_aromatic_linkinvent_7_9_3/rearranged_h_0105.sdf

> <i_m_source_file_index>
51

> <r_mmod_Potential_Energy-OPLS-2005>
284.635589599609

> <r_mmod_Stretch_Energy-OPLS-2005>
108.303916931152

> <r_mmod_Bend_Energy-OPLS-2005>
163.578048706055

> <r_mmod_Torsional_Energy-OPLS-2005>
222.364120483398

> <r_mmod_Improper_Torsional_Energy-OPLS-2005>
4.78281831741333

> <r_mmod_Van_der_Waal_Energy-OPLS-2005>
163.61149597168

> <r_mmod_Electrostatic_Energy-OPLS-2005>
-218.749252319336

> <r_mmod_Solvation_Energy-OPLS-2005>
-209.636688232422

> <b_mmod_Minimization_Converged-OPLS-2005>
0

> <r_mmod_RMS_Derivative-OPLS-2005>
0.51782488822937

$$$$
51
                    3D
 Structure written by MMmdl.
161170  0  0  1  0            999 V2000
  -30.5574  -14.6105   20.5413 C   0  0  0  0  0  0
  -30.4689  -12.3950   19.3941 C   0  0  0  0  0  0
  -29.5108  -12.5189   18.1891 C   0  0  0  0  0  0
  -28.0210  -12.3774   18.5866 C   0  0  0  0  0  0
  -27.6557  -13.1987   19.8505 C   0  0  2  0  0  0
  -28.7121  -12.9598   20.9594 C   0  0  0  0  0  0
  -25.2548  -13.8164   20.5610 C   0  0  0  0  0  0
  -24.1805  -13.0441   20.9164 C   0  0  0  0  0  0
  -24.6361  -11.6911   20.8665 C   0  0  0  0  0  0
  -23.9041  -10.4285   21.0310 C   0  0  0  0  0  0
  -24.3597   -9.4217   21.9106 C   0  0  0  0  0  0
  -23.6279   -8.2254   22.0687 C   0  0  0  0  0  0
  -22.4253   -8.0274   21.3522 C   0  0  0  0  0  0
  -21.9889   -9.0220   20.4607 C   0  0  0  0  0  0
  -22.7205  -10.2113   20.2992 C   0  0  0  0  0  0
  -21.6874   -6.0711   22.5262 C   0  0  0  0  0  0
  -21.4020   -6.5624   23.8191 C   0  0  0  0  0  0
  -21.3643   -5.6784   24.9162 C   0  0  0  0  0  0
  -21.6027   -4.3047   24.7223 C   0  0  0  0  0  0
  -21.8842   -3.8136   23.4365 C   0  0  0  0  0  0
  -21.9193   -4.6935   22.3404 C   0  0  0  0  0  0
  -22.7806  -13.5165   21.1846 C   0  0  0  0  0  0
  -22.1651   -4.2125   21.0978 F   0  0  0  0  0  0
  -21.5623   -3.4535   25.7742 F   0  0  0  0  0  0
  -30.0282  -13.3548   20.4216 N   0  0  0  0  0  0
  -26.2980  -12.9319   20.3210 N   0  0  0  0  0  0
  -25.9293  -11.6500   20.5695 N   0  0  0  0  0  0
  -22.0434  -12.8213   22.0421 N   0  0  0  0  0  0
  -25.4298  -15.1917   20.4070 N   0  0  0  0  0  0
  -31.7057  -14.8808   20.1723 O   0  0  0  0  0  0
  -21.6660   -6.8869   21.4231 O   0  0  0  0  0  0
  -22.3493  -14.5434   20.6644 O   0  0  0  0  0  0
  -24.6255  -31.8599   23.2011 C   0  0  0  0  0  0
  -25.9158  -32.4748   23.8292 C   0  0  1  0  0  0
  -27.2530  -27.3683   20.1472 C   0  0  0  0  0  0
  -25.6008  -33.8548   24.2279 N   0  0  0  0  0  0
  -23.4163  -30.4855   21.5347 C   0  0  2  0  0  0
  -24.8731  -28.9424   20.1183 C   0  0  0  0  0  0
  -22.7439  -29.4657   22.4847 C   0  0  0  0  0  0
  -18.0301  -28.1359   22.8485 C   0  0  0  0  0  0
  -24.1524  -36.7248   23.2626 C   0  0  0  0  0  0
  -25.9512  -30.8225   21.3582 C   0  0  0  0  0  0
  -26.0371  -29.4507   20.7088 C   0  0  0  0  0  0
  -27.2285  -28.6764   20.7091 C   0  0  0  0  0  0
  -26.0580  -26.8907   19.5566 C   0  0  0  0  0  0
  -24.8836  -27.6668   19.5343 C   0  0  0  0  0  0
  -23.6320  -29.8093   20.1558 C   0  0  0  0  0  0
  -25.4135  -36.3048   24.0328 C   0  0  1  0  0  0
  -20.5897  -28.3697   23.1248 C   0  0  2  0  0  0
  -20.6796  -26.9413   22.5402 C   0  0  0  0  0  0
  -19.5764  -26.6372   21.5207 C   0  0  0  0  0  0
  -18.1941  -26.7908   22.1599 C   0  0  0  0  0  0
  -19.1560  -28.8836   23.2882 C   0  0  0  0  0  0
  -18.9466  -30.1435   23.8906 C   0  0  0  0  0  0
  -17.6468  -30.6580   24.0570 C   0  0  0  0  0  0
  -25.9064  -34.9430   23.5082 C   0  0  0  0  0  0
  -16.5364  -29.9075   23.6333 C   0  0  0  0  0  0
  -16.7292  -28.6486   23.0367 C   0  0  0  0  0  0
  -26.4600  -31.6516   25.0618 C   0  0  0  0  0  0
  -25.3846  -31.3660   26.1326 C   0  0  0  0  0  0
  -27.0457  -30.2941   24.6041 C   0  0  0  0  0  0
  -27.6149  -32.4231   25.7425 C   0  0  0  0  0  0
  -27.5598  -37.1768   24.8456 C   0  0  0  0  0  0
  -21.4147  -29.3078   22.3624 N   0  0  0  0  0  0
  -26.4311  -37.3746   23.9418 N   0  0  0  0  0  0
  -24.6808  -31.0723   22.0885 N   0  0  0  0  0  0
  -23.4189  -28.8164   23.2897 O   0  0  0  0  0  0
  -28.4164  -26.5959   20.1746 O   0  0  0  0  0  0
  -26.5576  -34.8911   22.4601 O   0  0  0  0  0  0
  -23.5445  -32.1320   23.7417 O   0  0  0  0  0  0
  -31.6662  -20.5241   21.2135 C   0  0  0  0  0  0
  -32.2614  -19.3190   21.6247 C   0  0  0  0  0  0
  -29.6799  -19.2918   20.5898 C   0  0  0  0  0  0
  -30.2507  -18.0409   21.0266 C   0  0  0  0  0  0
  -30.3523  -20.5458   20.7076 C   0  0  0  0  0  0
  -31.5595  -18.0904   21.5902 C   0  0  0  0  0  0
  -30.3326  -23.0561   18.1691 C   0  0  0  0  0  0
  -29.6916  -22.9424   21.0092 C   0  0  0  0  0  0
  -29.3213  -16.8194   21.0662 C   0  0  0  0  0  0
  -30.3447  -24.3820   18.9316 C   0  0  0  0  0  0
  -29.5440  -21.9051   18.7923 C   0  0  0  0  0  0
  -29.6711  -24.3662   20.3315 C   0  0  1  0  0  0
  -28.3003  -25.1453   20.3525 C   0  0  0  0  0  0
  -29.8116  -21.8088   20.2339 N   0  0  0  0  0  0
  -32.2165  -17.0012   22.1742 N   0  0  0  0  0  0
  -29.5955  -15.4910   20.9218 N   0  0  0  0  0  0
  -30.9376  -22.9321   17.1019 O   0  0  0  0  0  0
  -29.6702  -22.8902   22.2438 O   0  0  0  0  0  0
  -28.1226  -17.0663   21.2295 O   0  0  0  0  0  0
  -31.4871  -12.5997   19.0598 H   0  0  0  0  0  0
  -30.4850  -11.3774   19.7846 H   0  0  0  0  0  0
  -29.7640  -11.7826   17.4278 H   0  0  0  0  0  0
  -29.6736  -13.4935   17.7288 H   0  0  0  0  0  0
  -27.8007  -11.3235   18.7526 H   0  0  0  0  0  0
  -27.3980  -12.6936   17.7487 H   0  0  0  0  0  0
  -27.6828  -14.2429   19.5365 H   0  0  0  0  0  0
  -28.7400  -11.9085   21.2403 H   0  0  0  0  0  0
  -28.4566  -13.4961   21.8728 H   0  0  0  0  0  0
  -25.2730   -9.5760   22.4716 H   0  0  0  0  0  0
  -23.9986   -7.4677   22.7444 H   0  0  0  0  0  0
  -21.0791   -8.8731   19.8953 H   0  0  0  0  0  0
  -22.3570  -10.9642   19.6126 H   0  0  0  0  0  0
  -21.2004   -7.6133   23.9711 H   0  0  0  0  0  0
  -21.1436   -6.0495   25.9068 H   0  0  0  0  0  0
  -22.0630   -2.7601   23.2874 H   0  0  0  0  0  0
  -22.3956  -11.9896   22.4939 H   0  0  0  0  0  0
  -21.1019  -13.1237   22.2505 H   0  0  0  0  0  0
  -24.6927  -15.8650   20.5899 H   0  0  0  0  0  0
  -26.3018  -15.6453   20.1614 H   0  0  0  0  0  0
  -26.7208  -32.5503   23.1036 H   0  0  0  0  0  0
  -25.0357  -33.9659   25.0567 H   0  0  0  0  0  0
  -22.7121  -31.3049   21.3841 H   0  0  0  0  0  0
  -23.3806  -35.9561   23.3254 H   0  0  0  0  0  0
  -24.3668  -36.8881   22.2057 H   0  0  0  0  0  0
  -23.7270  -37.6441   23.6652 H   0  0  0  0  0  0
  -26.0729  -31.5922   20.5910 H   0  0  0  0  0  0
  -26.8330  -30.8700   21.9820 H   0  0  0  0  0  0
  -28.1184  -29.0777   21.1760 H   0  0  0  0  0  0
  -26.0031  -25.9086   19.1174 H   0  0  0  0  0  0
  -23.9852  -27.2595   19.0918 H   0  0  0  0  0  0
  -23.7439  -30.5746   19.3835 H   0  0  0  0  0  0
  -22.7630  -29.2183   19.8595 H   0  0  0  0  0  0
  -25.1333  -36.1855   25.0820 H   0  0  0  0  0  0
  -21.0065  -28.3287   24.1332 H   0  0  0  0  0  0
  -20.5693  -26.2292   23.3598 H   0  0  0  0  0  0
  -21.6648  -26.7411   22.1182 H   0  0  0  0  0  0
  -19.6931  -25.6287   21.1219 H   0  0  0  0  0  0
  -19.6722  -27.3187   20.6741 H   0  0  0  0  0  0
  -17.4234  -26.6699   21.4004 H   0  0  0  0  0  0
  -18.0329  -26.0041   22.8964 H   0  0  0  0  0  0
  -19.7963  -30.7257   24.2267 H   0  0  0  0  0  0
  -17.5042  -31.6262   24.5136 H   0  0  0  0  0  0
  -15.5370  -30.2984   23.7655 H   0  0  0  0  0  0
  -15.8679  -28.0814   22.7069 H   0  0  0  0  0  0
  -24.6052  -30.6974   25.7660 H   0  0  0  0  0  0
  -24.9030  -32.2844   26.4681 H   0  0  0  0  0  0
  -25.8174  -30.8893   27.0114 H   0  0  0  0  0  0
  -26.3000  -29.6599   24.1215 H   0  0  0  0  0  0
  -27.4345  -29.7272   25.4511 H   0  0  0  0  0  0
  -27.8780  -30.4213   23.9103 H   0  0  0  0  0  0
  -27.2749  -33.3527   26.1980 H   0  0  0  0  0  0
  -28.4008  -32.6759   25.0296 H   0  0  0  0  0  0
  -28.0740  -31.8338   26.5362 H   0  0  0  0  0  0
  -28.2554  -38.0132   24.7586 H   0  0  0  0  0  0
  -28.1156  -36.2661   24.6171 H   0  0  0  0  0  0
  -27.2309  -37.1248   25.8855 H   0  0  0  0  0  0
  -20.9275  -29.8849   21.6908 H   0  0  0  0  0  0
  -26.0163  -38.2798   24.1467 H   0  0  0  0  0  0
  -32.2350  -21.4413   21.2765 H   0  0  0  0  0  0
  -33.2716  -19.3548   22.0070 H   0  0  0  0  0  0
  -28.6732  -19.2982   20.1926 H   0  0  0  0  0  0
  -29.9065  -25.1581   18.3046 H   0  0  0  0  0  0
  -31.3948  -24.6448   19.0551 H   0  0  0  0  0  0
  -29.8253  -20.9784   18.2916 H   0  0  0  0  0  0
  -28.4824  -22.0621   18.6098 H   0  0  0  0  0  0
  -30.3270  -24.9587   20.9709 H   0  0  0  0  0  0
  -27.7973  -24.9630   21.3061 H   0  0  0  0  0  0
  -27.6644  -24.7148   19.5810 H   0  0  0  0  0  0
  -33.2235  -17.0734   22.2710 H   0  0  0  0  0  0
  -31.9666  -16.0680   21.8555 H   0  0  0  0  0  0
  -28.7422  -14.9823   21.0664 H   0  0  0  0  0  0
  1 25  1  0  0  0
  1 30  2  0  0  0
  1 86  1  0  0  0
  2  3  1  0  0  0
  2 25  1  0  0  0
  2 90  1  0  0  0
  2 91  1  0  0  0
  3  4  1  0  0  0
  3 92  1  0  0  0
  3 93  1  0  0  0
  4  5  1  0  0  0
  4 94  1  0  0  0
  4 95  1  0  0  0
  5  6  1  0  0  0
  5 26  1  0  0  0
  5 96  1  0  0  0
  6 25  1  0  0  0
  6 97  1  0  0  0
  6 98  1  0  0  0
  7  8  2  0  0  0
  7 26  1  0  0  0
  7 29  1  0  0  0
  8  9  1  0  0  0
  8 22  1  0  0  0
  9 10  1  0  0  0
  9 27  2  0  0  0
 10 11  2  0  0  0
 10 15  1  0  0  0
 11 12  1  0  0  0
 11 99  1  0  0  0
 12 13  2  0  0  0
 12100  1  0  0  0
 13 14  1  0  0  0
 13 31  1  0  0  0
 14 15  2  0  0  0
 14101  1  0  0  0
 15102  1  0  0  0
 16 17  2  0  0  0
 16 21  1  0  0  0
 16 31  1  0  0  0
 17 18  1  0  0  0
 17103  1  0  0  0
 18 19  2  0  0  0
 18104  1  0  0  0
 19 20  1  0  0  0
 19 24  1  0  0  0
 20 21  2  0  0  0
 20105  1  0  0  0
 21 23  1  0  0  0
 22 28  1  0  0  0
 22 32  2  0  0  0
 26 27  1  0  0  0
 28106  1  0  0  0
 28107  1  0  0  0
 29108  1  0  0  0
 29109  1  0  0  0
 33 34  1  0  0  0
 33 66  1  0  0  0
 33 70  2  0  0  0
 34 36  1  0  0  0
 34 59  1  0  0  0
 34110  1  0  0  0
 35 44  2  0  0  0
 35 45  1  0  0  0
 35 68  1  0  0  0
 36 56  1  0  0  0
 36111  1  0  0  0
 37 39  1  0  0  0
 37 47  1  0  0  0
 37 66  1  0  0  0
 37112  1  0  0  0
 38 43  2  0  0  0
 38 46  1  0  0  0
 38 47  1  0  0  0
 39 64  1  0  0  0
 39 67  2  0  0  0
 40 52  1  0  0  0
 40 53  2  0  0  0
 40 58  1  0  0  0
 41113  1  0  0  0
 41114  1  0  0  0
 41115  1  0  0  0
 41 48  1  0  0  0
 42 43  1  0  0  0
 42 66  1  0  0  0
 42116  1  0  0  0
 42117  1  0  0  0
 43 44  1  0  0  0
 44118  1  0  0  0
 45 46  2  0  0  0
 45119  1  0  0  0
 46120  1  0  0  0
 47121  1  0  0  0
 47122  1  0  0  0
 48 56  1  0  0  0
 48 65  1  0  0  0
 48123  1  0  0  0
 49 50  1  0  0  0
 49 53  1  0  0  0
 49 64  1  0  0  0
 49124  1  0  0  0
 50 51  1  0  0  0
 50125  1  0  0  0
 50126  1  0  0  0
 51 52  1  0  0  0
 51127  1  0  0  0
 51128  1  0  0  0
 52129  1  0  0  0
 52130  1  0  0  0
 53 54  1  0  0  0
 54 55  2  0  0  0
 54131  1  0  0  0
 55 57  1  0  0  0
 55132  1  0  0  0
 56 69  2  0  0  0
 57 58  2  0  0  0
 57133  1  0  0  0
 58134  1  0  0  0
 59 60  1  0  0  0
 59 61  1  0  0  0
 59 62  1  0  0  0
 60135  1  0  0  0
 60136  1  0  0  0
 60137  1  0  0  0
 61138  1  0  0  0
 61139  1  0  0  0
 61140  1  0  0  0
 62141  1  0  0  0
 62142  1  0  0  0
 62143  1  0  0  0
 63 65  1  0  0  0
 63144  1  0  0  0
 63145  1  0  0  0
 63146  1  0  0  0
 64147  1  0  0  0
 65148  1  0  0  0
 68 83  1  0  0  0
 71 72  2  0  0  0
 71 75  1  0  0  0
 71149  1  0  0  0
 72 76  1  0  0  0
 72150  1  0  0  0
 73 74  1  0  0  0
 73 75  2  0  0  0
 73151  1  0  0  0
 74 76  2  0  0  0
 74 79  1  0  0  0
 75 84  1  0  0  0
 76 85  1  0  0  0
 77 80  1  0  0  0
 77 81  1  0  0  0
 77 87  2  0  0  0
 78 82  1  0  0  0
 78 84  1  0  0  0
 78 88  2  0  0  0
 79 86  1  0  0  0
 79 89  2  0  0  0
 80 82  1  0  0  0
 80152  1  0  0  0
 80153  1  0  0  0
 81 84  1  0  0  0
 81154  1  0  0  0
 81155  1  0  0  0
 82 83  1  0  0  0
 82156  1  0  0  0
 83157  1  0  0  0
 83158  1  0  0  0
 85159  1  0  0  0
 85160  1  0  0  0
 86161  1  0  0  0
M  ISO  4   1 100  68 101  83 101  86 100
M  END
> <chiral flag>
0

> <version>
0

> <s_m_source_file>
/data/baiqing/PycharmProjects/Reinvent-master-3.2/result/LINK_invent/BTK/process_docking_weight1_custom_product_contain_oxygen_bond_distance_aromatic_linkinvent_7_9_3/rearranged_h_0105.sdf

> <i_m_source_file_index>
52

> <r_mmod_Potential_Energy-OPLS-2005>
118.402671813965

> <r_mmod_Stretch_Energy-OPLS-2005>
69.0868148803711

> <r_mmod_Bend_Energy-OPLS-2005>
211.612060546875

> <r_mmod_Torsional_Energy-OPLS-2005>
318.303314208984

> <r_mmod_Improper_Torsional_Energy-OPLS-2005>
11.2758378982544

> <r_mmod_Van_der_Waal_Energy-OPLS-2005>
165.102127075195

> <r_mmod_Electrostatic_Energy-OPLS-2005>
-455.519500732422

> <r_mmod_Solvation_Energy-OPLS-2005>
-240.936614990234

> <b_mmod_Minimization_Converged-OPLS-2005>
0

> <r_mmod_RMS_Derivative-OPLS-2005>
7.60173559188843

$$$$
52
                    3D
 Structure written by MMmdl.
160168  0  0  1  0            999 V2000
  -30.6836  -14.5265   20.3802 C   0  0  0  0  0  0
  -30.4175  -12.2720   19.4467 C   0  0  0  0  0  0
  -29.4892  -12.3442   18.2139 C   0  0  0  0  0  0
  -28.0019  -12.2904   18.6257 C   0  0  0  0  0  0
  -27.6397  -13.1924   19.8387 C   0  0  2  0  0  0
  -28.6964  -13.0877   20.9593 C   0  0  0  0  0  0
  -25.2532  -13.8089   20.5759 C   0  0  0  0  0  0
  -24.1782  -13.0390   20.9206 C   0  0  0  0  0  0
  -24.6327  -11.6858   20.8761 C   0  0  0  0  0  0
  -23.9005  -10.4263   21.0414 C   0  0  0  0  0  0
  -24.3580   -9.4180   21.9183 C   0  0  0  0  0  0
  -23.6258   -8.2215   22.0755 C   0  0  0  0  0  0
  -22.4241   -8.0252   21.3535 C   0  0  0  0  0  0
  -21.9873   -9.0220   20.4638 C   0  0  0  0  0  0
  -22.7189  -10.2106   20.3042 C   0  0  0  0  0  0
  -21.6840   -6.0710   22.5267 C   0  0  0  0  0  0
  -21.4008   -6.5613   23.8203 C   0  0  0  0  0  0
  -21.3655   -5.6769   24.9164 C   0  0  0  0  0  0
  -21.6049   -4.3036   24.7219 C   0  0  0  0  0  0
  -21.8826   -3.8122   23.4343 C   0  0  0  0  0  0
  -21.9194   -4.6937   22.3396 C   0  0  0  0  0  0
  -22.7811  -13.5209   21.1857 C   0  0  0  0  0  0
  -22.1661   -4.2122   21.0969 F   0  0  0  0  0  0
  -21.5639   -3.4528   25.7733 F   0  0  0  0  0  0
  -30.0202  -13.3370   20.3753 N   0  0  0  0  0  0
  -26.2923  -12.9244   20.3292 N   0  0  0  0  0  0
  -25.9240  -11.6429   20.5786 N   0  0  0  0  0  0
  -22.0449  -12.8213   22.0425 N   0  0  0  0  0  0
  -25.4226  -15.1817   20.4352 N   0  0  0  0  0  0
  -31.9098  -14.6116   20.2960 O   0  0  0  0  0  0
  -21.6618   -6.8841   21.4221 O   0  0  0  0  0  0
  -22.3503  -14.5517   20.6682 O   0  0  0  0  0  0
  -24.6123  -31.8683   23.2111 C   0  0  0  0  0  0
  -25.9019  -32.4827   23.8405 C   0  0  1  0  0  0
  -27.2369  -27.4465   20.1111 C   0  0  0  0  0  0
  -25.5893  -33.8624   24.2344 N   0  0  0  0  0  0
  -23.4003  -30.4886   21.5502 C   0  0  2  0  0  0
  -24.8503  -28.9511   20.1193 C   0  0  0  0  0  0
  -22.7395  -29.4649   22.5005 C   0  0  0  0  0  0
  -18.0271  -28.1368   22.8486 C   0  0  0  0  0  0
  -24.1468  -36.7298   23.2642 C   0  0  0  0  0  0
  -25.9262  -30.8393   21.3598 C   0  0  0  0  0  0
  -26.0060  -29.4703   20.7170 C   0  0  0  0  0  0
  -27.2040  -28.7234   20.7117 C   0  0  0  0  0  0
  -26.0713  -26.9354   19.5065 C   0  0  0  0  0  0
  -24.8755  -27.6813   19.5136 C   0  0  0  0  0  0
  -23.6099  -29.8152   20.1664 C   0  0  0  0  0  0
  -25.4095  -36.3110   24.0346 C   0  0  1  0  0  0
  -20.5854  -28.3649   23.1323 C   0  0  2  0  0  0
  -20.6755  -26.9388   22.5421 C   0  0  0  0  0  0
  -19.5741  -26.6382   21.5205 C   0  0  0  0  0  0
  -18.1912  -26.7922   22.1600 C   0  0  0  0  0  0
  -19.1519  -28.8827   23.2898 C   0  0  0  0  0  0
  -18.9445  -30.1436   23.8907 C   0  0  0  0  0  0
  -17.6450  -30.6581   24.0563 C   0  0  0  0  0  0
  -25.9031  -34.9477   23.5144 C   0  0  0  0  0  0
  -16.5343  -29.9082   23.6332 C   0  0  0  0  0  0
  -16.7263  -28.6497   23.0359 C   0  0  0  0  0  0
  -26.4465  -31.6595   25.0719 C   0  0  0  0  0  0
  -25.3753  -31.3662   26.1481 C   0  0  0  0  0  0
  -27.0300  -30.3053   24.6048 C   0  0  0  0  0  0
  -27.6044  -32.4306   25.7494 C   0  0  0  0  0  0
  -27.5578  -37.1795   24.8458 C   0  0  0  0  0  0
  -21.4127  -29.3016   22.3736 N   0  0  0  0  0  0
  -26.4272  -37.3805   23.9430 N   0  0  0  0  0  0
  -24.6646  -31.0798   22.0997 N   0  0  0  0  0  0
  -23.4173  -28.8205   23.3052 O   0  0  0  0  0  0
  -28.4004  -26.7180   20.0765 O   0  0  0  0  0  0
  -26.5584  -34.8923   22.4698 O   0  0  0  0  0  0
  -23.5319  -32.1427   23.7510 O   0  0  0  0  0  0
  -30.2636  -17.3710   21.5313 C   0  0  0  0  0  0
  -28.2642  -19.0437   20.5136 C   0  0  0  0  0  0
  -29.5077  -16.9105   20.4225 C   0  0  0  0  0  0
  -28.4494  -17.7598   19.9582 C   0  0  0  0  0  0
  -30.0568  -18.6534   22.0880 C   0  0  0  0  0  0
  -29.0921  -19.5302   21.5477 C   0  0  0  0  0  0
  -29.9201  -15.6636   19.6774 C   0  0  0  0  0  0
  -27.4961  -17.3844   18.8258 C   0  0  0  0  0  0
  -28.3108  -24.3341   20.6671 C   0  0  0  0  0  0
  -28.7542  -23.2438   21.6722 C   0  0  0  0  0  0
  -28.5648  -25.7797   21.1455 C   0  0  0  0  0  0
  -28.4357  -21.8150   21.1858 C   0  0  0  0  0  0
  -29.7519  -15.5881   18.4220 N   0  0  0  0  0  0
  -30.8463  -19.0895   23.1505 N   0  0  0  0  0  0
  -29.0105  -20.8225   22.0424 O   0  0  0  0  0  0
  -31.4629  -12.3478   19.1451 H   0  0  0  0  0  0
  -30.3168  -11.3027   19.9370 H   0  0  0  0  0  0
  -29.7057  -11.5004   17.5570 H   0  0  0  0  0  0
  -29.6914  -13.2211   17.6061 H   0  0  0  0  0  0
  -27.7859  -11.2494   18.8688 H   0  0  0  0  0  0
  -27.3649  -12.5315   17.7743 H   0  0  0  0  0  0
  -27.6333  -14.2109   19.4665 H   0  0  0  0  0  0
  -28.6776  -12.0951   21.4122 H   0  0  0  0  0  0
  -28.4859  -13.7961   21.7628 H   0  0  0  0  0  0
  -25.2723   -9.5678   22.4751 H   0  0  0  0  0  0
  -23.9980   -7.4610   22.7470 H   0  0  0  0  0  0
  -21.0810   -8.8710   19.8938 H   0  0  0  0  0  0
  -22.3626  -10.9640   19.6150 H   0  0  0  0  0  0
  -21.1998   -7.6121   23.9686 H   0  0  0  0  0  0
  -21.1470   -6.0503   25.9063 H   0  0  0  0  0  0
  -22.0619   -2.7584   23.2832 H   0  0  0  0  0  0
  -22.4051  -11.9874   22.4812 H   0  0  0  0  0  0
  -21.1067  -13.1238   22.2625 H   0  0  0  0  0  0
  -24.6580  -15.8343   20.5672 H   0  0  0  0  0  0
  -26.2971  -15.6335   20.2094 H   0  0  0  0  0  0
  -26.7093  -32.5552   23.1179 H   0  0  0  0  0  0
  -25.0074  -33.9789   25.0508 H   0  0  0  0  0  0
  -22.6874  -31.3035   21.4086 H   0  0  0  0  0  0
  -23.3761  -35.9593   23.3259 H   0  0  0  0  0  0
  -24.3571  -36.8966   22.2065 H   0  0  0  0  0  0
  -23.7172  -37.6466   23.6692 H   0  0  0  0  0  0
  -26.0257  -31.5996   20.5833 H   0  0  0  0  0  0
  -26.8190  -30.9039   21.9700 H   0  0  0  0  0  0
  -28.1007  -29.1206   21.1655 H   0  0  0  0  0  0
  -26.0889  -25.9641   19.0335 H   0  0  0  0  0  0
  -23.9855  -27.2765   19.0524 H   0  0  0  0  0  0
  -23.7147  -30.5865   19.4026 H   0  0  0  0  0  0
  -22.7361  -29.2301   19.8754 H   0  0  0  0  0  0
  -25.1255  -36.1969   25.0837 H   0  0  0  0  0  0
  -20.9932  -28.3212   24.1447 H   0  0  0  0  0  0
  -20.5653  -26.2251   23.3599 H   0  0  0  0  0  0
  -21.6630  -26.7428   22.1233 H   0  0  0  0  0  0
  -19.6907  -25.6300   21.1225 H   0  0  0  0  0  0
  -19.6694  -27.3198   20.6742 H   0  0  0  0  0  0
  -17.4191  -26.6688   21.3986 H   0  0  0  0  0  0
  -18.0290  -26.0056   22.8984 H   0  0  0  0  0  0
  -19.7925  -30.7242   24.2282 H   0  0  0  0  0  0
  -17.5015  -31.6263   24.5164 H   0  0  0  0  0  0
  -15.5348  -30.2992   23.7663 H   0  0  0  0  0  0
  -15.8655  -28.0829   22.7078 H   0  0  0  0  0  0
  -24.5938  -30.6988   25.7828 H   0  0  0  0  0  0
  -24.8923  -32.2799   26.4958 H   0  0  0  0  0  0
  -25.8138  -30.8829   27.0221 H   0  0  0  0  0  0
  -26.2821  -29.6808   24.1148 H   0  0  0  0  0  0
  -27.4158  -29.7284   25.4465 H   0  0  0  0  0  0
  -27.8610  -30.4409   23.9122 H   0  0  0  0  0  0
  -27.2680  -33.3631   26.2038 H   0  0  0  0  0  0
  -28.3881  -32.6816   25.0335 H   0  0  0  0  0  0
  -28.0666  -31.8436   26.5441 H   0  0  0  0  0  0
  -28.2558  -38.0134   24.7586 H   0  0  0  0  0  0
  -28.1113  -36.2669   24.6182 H   0  0  0  0  0  0
  -27.2307  -37.1332   25.8862 H   0  0  0  0  0  0
  -20.9294  -29.8717   21.6936 H   0  0  0  0  0  0
  -26.0152  -38.2864   24.1502 H   0  0  0  0  0  0
  -31.0687  -16.7640   21.9171 H   0  0  0  0  0  0
  -27.4825  -19.6642   20.1008 H   0  0  0  0  0  0
  -26.5550  -17.9306   18.8949 H   0  0  0  0  0  0
  -27.2386  -16.3279   18.8332 H   0  0  0  0  0  0
  -27.9415  -17.6117   17.8568 H   0  0  0  0  0  0
  -27.2519  -24.2138   20.4380 H   0  0  0  0  0  0
  -28.8434  -24.1767   19.7287 H   0  0  0  0  0  0
  -28.2797  -23.4126   22.6394 H   0  0  0  0  0  0
  -29.8289  -23.3329   21.8383 H   0  0  0  0  0  0
  -29.5901  -25.8760   21.5039 H   0  0  0  0  0  0
  -27.9252  -26.0165   21.9984 H   0  0  0  0  0  0
  -28.8220  -21.6964   20.1721 H   0  0  0  0  0  0
  -27.3537  -21.6821   21.1462 H   0  0  0  0  0  0
  -30.1386  -14.7206   18.0721 H   0  0  0  0  0  0
  -31.1649  -18.3924   23.8147 H   0  0  0  0  0  0
  -30.5238  -19.9368   23.6097 H   0  0  0  0  0  0
  1 25  1  0  0  0
  1 30  2  0  0  0
  1 77  1  0  0  0
  2  3  1  0  0  0
  2 25  1  0  0  0
  2 86  1  0  0  0
  2 87  1  0  0  0
  3  4  1  0  0  0
  3 88  1  0  0  0
  3 89  1  0  0  0
  4  5  1  0  0  0
  4 90  1  0  0  0
  4 91  1  0  0  0
  5  6  1  0  0  0
  5 26  1  0  0  0
  5 92  1  0  0  0
  6 25  1  0  0  0
  6 93  1  0  0  0
  6 94  1  0  0  0
  7  8  2  0  0  0
  7 26  1  0  0  0
  7 29  1  0  0  0
  8  9  1  0  0  0
  8 22  1  0  0  0
  9 10  1  0  0  0
  9 27  2  0  0  0
 10 11  2  0  0  0
 10 15  1  0  0  0
 11 12  1  0  0  0
 11 95  1  0  0  0
 12 13  2  0  0  0
 12 96  1  0  0  0
 13 14  1  0  0  0
 13 31  1  0  0  0
 14 15  2  0  0  0
 14 97  1  0  0  0
 15 98  1  0  0  0
 16 17  2  0  0  0
 16 21  1  0  0  0
 16 31  1  0  0  0
 17 18  1  0  0  0
 17 99  1  0  0  0
 18 19  2  0  0  0
 18100  1  0  0  0
 19 20  1  0  0  0
 19 24  1  0  0  0
 20 21  2  0  0  0
 20101  1  0  0  0
 21 23  1  0  0  0
 22 28  1  0  0  0
 22 32  2  0  0  0
 26 27  1  0  0  0
 28102  1  0  0  0
 28103  1  0  0  0
 29104  1  0  0  0
 29105  1  0  0  0
 33 34  1  0  0  0
 33 66  1  0  0  0
 33 70  2  0  0  0
 34 36  1  0  0  0
 34 59  1  0  0  0
 34106  1  0  0  0
 35 44  2  0  0  0
 35 45  1  0  0  0
 35 68  1  0  0  0
 36 56  1  0  0  0
 36107  1  0  0  0
 37 39  1  0  0  0
 37 47  1  0  0  0
 37 66  1  0  0  0
 37108  1  0  0  0
 38 43  2  0  0  0
 38 46  1  0  0  0
 38 47  1  0  0  0
 39 64  1  0  0  0
 39 67  2  0  0  0
 40 52  1  0  0  0
 40 53  2  0  0  0
 40 58  1  0  0  0
 41109  1  0  0  0
 41110  1  0  0  0
 41111  1  0  0  0
 41 48  1  0  0  0
 42 43  1  0  0  0
 42 66  1  0  0  0
 42112  1  0  0  0
 42113  1  0  0  0
 43 44  1  0  0  0
 44114  1  0  0  0
 45 46  2  0  0  0
 45115  1  0  0  0
 46116  1  0  0  0
 47117  1  0  0  0
 47118  1  0  0  0
 48 56  1  0  0  0
 48 65  1  0  0  0
 48119  1  0  0  0
 49 50  1  0  0  0
 49 53  1  0  0  0
 49 64  1  0  0  0
 49120  1  0  0  0
 50 51  1  0  0  0
 50121  1  0  0  0
 50122  1  0  0  0
 51 52  1  0  0  0
 51123  1  0  0  0
 51124  1  0  0  0
 52125  1  0  0  0
 52126  1  0  0  0
 53 54  1  0  0  0
 54 55  2  0  0  0
 54127  1  0  0  0
 55 57  1  0  0  0
 55128  1  0  0  0
 56 69  2  0  0  0
 57 58  2  0  0  0
 57129  1  0  0  0
 58130  1  0  0  0
 59 60  1  0  0  0
 59 61  1  0  0  0
 59 62  1  0  0  0
 60131  1  0  0  0
 60132  1  0  0  0
 60133  1  0  0  0
 61134  1  0  0  0
 61135  1  0  0  0
 61136  1  0  0  0
 62137  1  0  0  0
 62138  1  0  0  0
 62139  1  0  0  0
 63 65  1  0  0  0
 63140  1  0  0  0
 63141  1  0  0  0
 63142  1  0  0  0
 64143  1  0  0  0
 65144  1  0  0  0
 68 81  1  0  0  0
 71 73  2  0  0  0
 71 75  1  0  0  0
 71145  1  0  0  0
 72 74  2  0  0  0
 72 76  1  0  0  0
 72146  1  0  0  0
 73 74  1  0  0  0
 73 77  1  0  0  0
 74 78  1  0  0  0
 75 76  2  0  0  0
 75 84  1  0  0  0
 76 85  1  0  0  0
 77 83  2  0  0  0
 78147  1  0  0  0
 78148  1  0  0  0
 78149  1  0  0  0
 79 80  1  0  0  0
 79 81  1  0  0  0
 79150  1  0  0  0
 79151  1  0  0  0
 80 82  1  0  0  0
 80152  1  0  0  0
 80153  1  0  0  0
 81154  1  0  0  0
 81155  1  0  0  0
 82 85  1  0  0  0
 82156  1  0  0  0
 82157  1  0  0  0
 83158  1  0  0  0
 84159  1  0  0  0
 84160  1  0  0  0
M  ISO  4   1 100  68 101  77 100  81 101
M  END
> <chiral flag>
0

> <version>
0

> <s_m_source_file>
/data/baiqing/PycharmProjects/Reinvent-master-3.2/result/LINK_invent/BTK/process_docking_weight1_custom_product_contain_oxygen_bond_distance_aromatic_linkinvent_7_9_3/rearranged_h_0105.sdf

> <i_m_source_file_index>
53

> <r_mmod_Potential_Energy-OPLS-2005>
189.178253173828

> <r_mmod_Stretch_Energy-OPLS-2005>
42.0953788757324

> <r_mmod_Bend_Energy-OPLS-2005>
105.077049255371

> <r_mmod_Torsional_Energy-OPLS-2005>
291.941772460938

> <r_mmod_Improper_Torsional_Energy-OPLS-2005>
32.1107406616211

> <r_mmod_Van_der_Waal_Energy-OPLS-2005>
160.004257202148

> <r_mmod_Electrostatic_Energy-OPLS-2005>
-271.311584472656

> <r_mmod_Solvation_Energy-OPLS-2005>
-206.825210571289

> <b_mmod_Minimization_Converged-OPLS-2005>
0

> <r_mmod_RMS_Derivative-OPLS-2005>
2.30653381347656

$$$$
53
                    3D
 Structure written by MMmdl.
163171  0  0  1  0            999 V2000
  -30.7314  -14.4642   20.5795 C   0  0  0  0  0  0
  -30.4058  -12.3105   19.4206 C   0  0  0  0  0  0
  -29.4847  -12.5062   18.2017 C   0  0  0  0  0  0
  -28.0088  -12.3613   18.6183 C   0  0  0  0  0  0
  -27.6531  -13.2128   19.8669 C   0  0  2  0  0  0
  -28.6953  -13.0262   20.9916 C   0  0  0  0  0  0
  -25.2554  -13.8176   20.5680 C   0  0  0  0  0  0
  -24.1824  -13.0448   20.9195 C   0  0  0  0  0  0
  -24.6389  -11.6914   20.8758 C   0  0  0  0  0  0
  -23.9067  -10.4298   21.0424 C   0  0  0  0  0  0
  -24.3619   -9.4209   21.9198 C   0  0  0  0  0  0
  -23.6292   -8.2248   22.0763 C   0  0  0  0  0  0
  -22.4277   -8.0290   21.3548 C   0  0  0  0  0  0
  -21.9917   -9.0266   20.4649 C   0  0  0  0  0  0
  -22.7249  -10.2140   20.3064 C   0  0  0  0  0  0
  -21.6845   -6.0748   22.5281 C   0  0  0  0  0  0
  -21.4011   -6.5651   23.8216 C   0  0  0  0  0  0
  -21.3658   -5.6801   24.9177 C   0  0  0  0  0  0
  -21.6044   -4.3066   24.7224 C   0  0  0  0  0  0
  -21.8818   -3.8162   23.4344 C   0  0  0  0  0  0
  -21.9188   -4.6980   22.3399 C   0  0  0  0  0  0
  -22.7849  -13.5242   21.1859 C   0  0  0  0  0  0
  -22.1659   -4.2171   21.0977 F   0  0  0  0  0  0
  -21.5630   -3.4544   25.7732 F   0  0  0  0  0  0
  -30.0190  -13.3157   20.4225 N   0  0  0  0  0  0
  -26.2982  -12.9358   20.3338 N   0  0  0  0  0  0
  -25.9308  -11.6514   20.5764 N   0  0  0  0  0  0
  -22.0484  -12.8227   22.0402 N   0  0  0  0  0  0
  -25.4265  -15.1898   20.4077 N   0  0  0  0  0  0
  -31.8873  -14.5647   20.1569 O   0  0  0  0  0  0
  -21.6631   -6.8897   21.4246 O   0  0  0  0  0  0
  -22.3539  -14.5560   20.6717 O   0  0  0  0  0  0
  -24.6164  -31.8661   23.2109 C   0  0  0  0  0  0
  -25.9061  -32.4806   23.8403 C   0  0  1  0  0  0
  -27.2363  -27.4273   20.0827 C   0  0  0  0  0  0
  -25.5920  -33.8602   24.2332 N   0  0  0  0  0  0
  -23.4030  -30.4898   21.5505 C   0  0  2  0  0  0
  -24.8484  -28.9537   20.1161 C   0  0  0  0  0  0
  -22.7409  -29.4652   22.4991 C   0  0  0  0  0  0
  -18.0270  -28.1362   22.8488 C   0  0  0  0  0  0
  -24.1486  -36.7310   23.2648 C   0  0  0  0  0  0
  -25.9321  -30.8291   21.3638 C   0  0  0  0  0  0
  -26.0084  -29.4629   20.7096 C   0  0  0  0  0  0
  -27.2019  -28.7050   20.6923 C   0  0  0  0  0  0
  -26.0502  -26.9304   19.4932 C   0  0  0  0  0  0
  -24.8633  -27.6865   19.5090 C   0  0  0  0  0  0
  -23.6107  -29.8200   20.1661 C   0  0  0  0  0  0
  -25.4106  -36.3099   24.0337 C   0  0  1  0  0  0
  -20.5861  -28.3657   23.1311 C   0  0  2  0  0  0
  -20.6750  -26.9392   22.5407 C   0  0  0  0  0  0
  -19.5730  -26.6379   21.5202 C   0  0  0  0  0  0
  -18.1905  -26.7909   22.1613 C   0  0  0  0  0  0
  -19.1519  -28.8827   23.2894 C   0  0  0  0  0  0
  -18.9454  -30.1440   23.8896 C   0  0  0  0  0  0
  -17.6454  -30.6574   24.0560 C   0  0  0  0  0  0
  -25.9038  -34.9460   23.5127 C   0  0  0  0  0  0
  -16.5346  -29.9068   23.6332 C   0  0  0  0  0  0
  -16.7260  -28.6485   23.0354 C   0  0  0  0  0  0
  -26.4498  -31.6590   25.0731 C   0  0  0  0  0  0
  -25.3777  -31.3644   26.1481 C   0  0  0  0  0  0
  -27.0376  -30.3047   24.6112 C   0  0  0  0  0  0
  -27.6072  -32.4302   25.7500 C   0  0  0  0  0  0
  -27.5575  -37.1813   24.8467 C   0  0  0  0  0  0
  -21.4137  -29.3027   22.3724 N   0  0  0  0  0  0
  -26.4292  -37.3783   23.9405 N   0  0  0  0  0  0
  -24.6687  -31.0756   22.1008 N   0  0  0  0  0  0
  -23.4182  -28.8206   23.3042 O   0  0  0  0  0  0
  -28.4268  -26.7224   20.0944 O   0  0  0  0  0  0
  -26.5574  -34.8910   22.4672 O   0  0  0  0  0  0
  -23.5358  -32.1426   23.7498 O   0  0  0  0  0  0
  -29.1037  -19.8999   19.7693 C   0  0  0  0  0  0
  -28.4340  -19.8316   22.0983 C   0  0  0  0  0  0
  -29.7282  -17.9682   21.1657 C   0  0  0  0  0  0
  -29.7221  -18.6348   19.9064 C   0  0  0  0  0  0
  -28.4766  -20.5214   20.8685 C   0  0  0  0  0  0
  -29.0552  -18.5623   22.2665 C   0  0  0  0  0  0
  -30.5752  -16.7295   21.3614 C   0  0  0  0  0  0
  -28.1392  -24.2605   20.3753 C   0  0  0  0  0  0
  -30.4140  -18.0335   18.6892 C   0  0  0  0  0  0
  -28.4084  -17.4307   25.7328 C   0  0  0  0  0  0
  -28.4431  -22.8254   19.8889 C   0  0  0  0  0  0
  -28.5290  -25.4351   19.4489 C   0  0  0  0  0  0
  -28.3070  -18.4049   24.5579 C   0  0  0  0  0  0
  -27.8878  -21.7972   20.7818 N   0  0  0  0  0  0
  -30.0392  -15.5380   21.0206 N   0  0  0  0  0  0
  -31.7302  -16.8796   21.7785 O   0  0  0  0  0  0
  -27.6087  -24.4461   21.4780 O   0  0  0  0  0  0
  -29.0576  -17.8802   23.4690 O   0  0  0  0  0  0
  -31.4523  -12.3869   19.1209 H   0  0  0  0  0  0
  -30.2887  -11.3064   19.8317 H   0  0  0  0  0  0
  -29.7281  -11.7841   17.4210 H   0  0  0  0  0  0
  -29.6489  -13.4937   17.7669 H   0  0  0  0  0  0
  -27.8262  -11.3060   18.8251 H   0  0  0  0  0  0
  -27.3552  -12.6242   17.7859 H   0  0  0  0  0  0
  -27.6853  -14.2553   19.5503 H   0  0  0  0  0  0
  -28.6720  -12.0026   21.3685 H   0  0  0  0  0  0
  -28.4648  -13.6609   21.8489 H   0  0  0  0  0  0
  -25.2761   -9.5677   22.4780 H   0  0  0  0  0  0
  -23.9998   -7.4633   22.7483 H   0  0  0  0  0  0
  -21.0858   -8.8800   19.8943 H   0  0  0  0  0  0
  -22.3732  -10.9694   19.6180 H   0  0  0  0  0  0
  -21.2009   -7.6161   23.9729 H   0  0  0  0  0  0
  -21.1483   -6.0530   25.9081 H   0  0  0  0  0  0
  -22.0600   -2.7627   23.2834 H   0  0  0  0  0  0
  -22.4086  -11.9861   22.4756 H   0  0  0  0  0  0
  -21.1113  -13.1270   22.2632 H   0  0  0  0  0  0
  -24.6550  -15.8403   20.5095 H   0  0  0  0  0  0
  -26.2696  -15.6301   20.0629 H   0  0  0  0  0  0
  -26.7129  -32.5510   23.1170 H   0  0  0  0  0  0
  -25.0132  -33.9770   25.0518 H   0  0  0  0  0  0
  -22.6933  -31.3074   21.4086 H   0  0  0  0  0  0
  -23.3743  -35.9650   23.3317 H   0  0  0  0  0  0
  -24.3590  -36.8928   22.2065 H   0  0  0  0  0  0
  -23.7250  -37.6516   23.6668 H   0  0  0  0  0  0
  -26.0410  -31.5958   20.5962 H   0  0  0  0  0  0
  -26.8211  -30.8843   21.9806 H   0  0  0  0  0  0
  -28.1005  -29.0966   21.1486 H   0  0  0  0  0  0
  -26.0113  -25.9591   19.0241 H   0  0  0  0  0  0
  -23.9678  -27.2863   19.0540 H   0  0  0  0  0  0
  -23.7167  -30.5928   19.4036 H   0  0  0  0  0  0
  -22.7354  -29.2372   19.8735 H   0  0  0  0  0  0
  -25.1278  -36.1964   25.0824 H   0  0  0  0  0  0
  -20.9949  -28.3239   24.1435 H   0  0  0  0  0  0
  -20.5651  -26.2265   23.3593 H   0  0  0  0  0  0
  -21.6617  -26.7428   22.1207 H   0  0  0  0  0  0
  -19.6893  -25.6293   21.1227 H   0  0  0  0  0  0
  -19.6672  -27.3193   20.6730 H   0  0  0  0  0  0
  -17.4169  -26.6673   21.4013 H   0  0  0  0  0  0
  -18.0298  -26.0044   22.8996 H   0  0  0  0  0  0
  -19.7935  -30.7251   24.2261 H   0  0  0  0  0  0
  -17.5005  -31.6252   24.5162 H   0  0  0  0  0  0
  -15.5342  -30.2960   23.7659 H   0  0  0  0  0  0
  -15.8660  -28.0807   22.7065 H   0  0  0  0  0  0
  -24.5982  -30.6965   25.7799 H   0  0  0  0  0  0
  -24.8936  -32.2770   26.4958 H   0  0  0  0  0  0
  -25.8153  -30.8802   27.0228 H   0  0  0  0  0  0
  -26.2933  -29.6728   24.1257 H   0  0  0  0  0  0
  -27.4280  -29.7343   25.4558 H   0  0  0  0  0  0
  -27.8691  -30.4391   23.9189 H   0  0  0  0  0  0
  -27.2725  -33.3613   26.2076 H   0  0  0  0  0  0
  -28.3902  -32.6830   25.0339 H   0  0  0  0  0  0
  -28.0719  -31.8416   26.5427 H   0  0  0  0  0  0
  -28.2589  -38.0115   24.7514 H   0  0  0  0  0  0
  -28.1085  -36.2643   24.6308 H   0  0  0  0  0  0
  -27.2284  -37.1474   25.8870 H   0  0  0  0  0  0
  -20.9294  -29.8758   21.6959 H   0  0  0  0  0  0
  -26.0187  -38.2860   24.1411 H   0  0  0  0  0  0
  -29.1265  -20.3986   18.8096 H   0  0  0  0  0  0
  -27.9373  -20.3159   22.9259 H   0  0  0  0  0  0
  -30.2409  -18.6293   17.7924 H   0  0  0  0  0  0
  -30.0433  -17.0279   18.4866 H   0  0  0  0  0  0
  -31.4921  -17.9768   18.8437 H   0  0  0  0  0  0
  -27.8269  -17.7898   26.5821 H   0  0  0  0  0  0
  -29.4417  -17.3181   26.0620 H   0  0  0  0  0  0
  -28.0309  -16.4440   25.4618 H   0  0  0  0  0  0
  -29.5262  -22.7133   19.8127 H   0  0  0  0  0  0
  -28.0327  -22.7046   18.8852 H   0  0  0  0  0  0
  -27.9672  -25.3942   18.5165 H   0  0  0  0  0  0
  -29.5734  -25.2965   19.1720 H   0  0  0  0  0  0
  -28.6987  -19.3777   24.8593 H   0  0  0  0  0  0
  -27.2599  -18.5291   24.2764 H   0  0  0  0  0  0
  -27.5082  -22.1996   21.6375 H   0  0  0  0  0  0
  -29.0361  -15.4768   21.0038 H   0  0  0  0  0  0
  1 25  1  0  0  0
  1 30  2  0  0  0
  1 85  1  0  0  0
  2  3  1  0  0  0
  2 25  1  0  0  0
  2 89  1  0  0  0
  2 90  1  0  0  0
  3  4  1  0  0  0
  3 91  1  0  0  0
  3 92  1  0  0  0
  4  5  1  0  0  0
  4 93  1  0  0  0
  4 94  1  0  0  0
  5  6  1  0  0  0
  5 26  1  0  0  0
  5 95  1  0  0  0
  6 25  1  0  0  0
  6 96  1  0  0  0
  6 97  1  0  0  0
  7  8  2  0  0  0
  7 26  1  0  0  0
  7 29  1  0  0  0
  8  9  1  0  0  0
  8 22  1  0  0  0
  9 10  1  0  0  0
  9 27  2  0  0  0
 10 11  2  0  0  0
 10 15  1  0  0  0
 11 12  1  0  0  0
 11 98  1  0  0  0
 12 13  2  0  0  0
 12 99  1  0  0  0
 13 14  1  0  0  0
 13 31  1  0  0  0
 14 15  2  0  0  0
 14100  1  0  0  0
 15101  1  0  0  0
 16 17  2  0  0  0
 16 21  1  0  0  0
 16 31  1  0  0  0
 17 18  1  0  0  0
 17102  1  0  0  0
 18 19  2  0  0  0
 18103  1  0  0  0
 19 20  1  0  0  0
 19 24  1  0  0  0
 20 21  2  0  0  0
 20104  1  0  0  0
 21 23  1  0  0  0
 22 28  1  0  0  0
 22 32  2  0  0  0
 26 27  1  0  0  0
 28105  1  0  0  0
 28106  1  0  0  0
 29107  1  0  0  0
 29108  1  0  0  0
 33 34  1  0  0  0
 33 66  1  0  0  0
 33 70  2  0  0  0
 34 36  1  0  0  0
 34 59  1  0  0  0
 34109  1  0  0  0
 35 44  2  0  0  0
 35 45  1  0  0  0
 35 68  1  0  0  0
 36 56  1  0  0  0
 36110  1  0  0  0
 37 39  1  0  0  0
 37 47  1  0  0  0
 37 66  1  0  0  0
 37111  1  0  0  0
 38 43  2  0  0  0
 38 46  1  0  0  0
 38 47  1  0  0  0
 39 64  1  0  0  0
 39 67  2  0  0  0
 40 52  1  0  0  0
 40 53  2  0  0  0
 40 58  1  0  0  0
 41112  1  0  0  0
 41113  1  0  0  0
 41114  1  0  0  0
 41 48  1  0  0  0
 42 43  1  0  0  0
 42 66  1  0  0  0
 42115  1  0  0  0
 42116  1  0  0  0
 43 44  1  0  0  0
 44117  1  0  0  0
 45 46  2  0  0  0
 45118  1  0  0  0
 46119  1  0  0  0
 47120  1  0  0  0
 47121  1  0  0  0
 48 56  1  0  0  0
 48 65  1  0  0  0
 48122  1  0  0  0
 49 50  1  0  0  0
 49 53  1  0  0  0
 49 64  1  0  0  0
 49123  1  0  0  0
 50 51  1  0  0  0
 50124  1  0  0  0
 50125  1  0  0  0
 51 52  1  0  0  0
 51126  1  0  0  0
 51127  1  0  0  0
 52128  1  0  0  0
 52129  1  0  0  0
 53 54  1  0  0  0
 54 55  2  0  0  0
 54130  1  0  0  0
 55 57  1  0  0  0
 55131  1  0  0  0
 56 69  2  0  0  0
 57 58  2  0  0  0
 57132  1  0  0  0
 58133  1  0  0  0
 59 60  1  0  0  0
 59 61  1  0  0  0
 59 62  1  0  0  0
 60134  1  0  0  0
 60135  1  0  0  0
 60136  1  0  0  0
 61137  1  0  0  0
 61138  1  0  0  0
 61139  1  0  0  0
 62140  1  0  0  0
 62141  1  0  0  0
 62142  1  0  0  0
 63 65  1  0  0  0
 63143  1  0  0  0
 63144  1  0  0  0
 63145  1  0  0  0
 64146  1  0  0  0
 65147  1  0  0  0
 68 82  1  0  0  0
 71 74  2  0  0  0
 71 75  1  0  0  0
 71148  1  0  0  0
 72 75  2  0  0  0
 72 76  1  0  0  0
 72149  1  0  0  0
 73 74  1  0  0  0
 73 76  2  0  0  0
 73 77  1  0  0  0
 74 79  1  0  0  0
 75 84  1  0  0  0
 76 88  1  0  0  0
 77 85  1  0  0  0
 77 86  2  0  0  0
 78 81  1  0  0  0
 78 82  1  0  0  0
 78 87  2  0  0  0
 79150  1  0  0  0
 79151  1  0  0  0
 79152  1  0  0  0
 80 83  1  0  0  0
 80153  1  0  0  0
 80154  1  0  0  0
 80155  1  0  0  0
 81 84  1  0  0  0
 81156  1  0  0  0
 81157  1  0  0  0
 82158  1  0  0  0
 82159  1  0  0  0
 83 88  1  0  0  0
 83160  1  0  0  0
 83161  1  0  0  0
 84162  1  0  0  0
 85163  1  0  0  0
M  ISO  4   1 100  68 101  82 101  85 100
M  END
> <chiral flag>
0

> <version>
0

> <s_m_source_file>
/data/baiqing/PycharmProjects/Reinvent-master-3.2/result/LINK_invent/BTK/process_docking_weight1_custom_product_contain_oxygen_bond_distance_aromatic_linkinvent_7_9_3/rearranged_h_0105.sdf

> <i_m_source_file_index>
54

> <r_mmod_Potential_Energy-OPLS-2005>
12.8077096939087

> <r_mmod_Stretch_Energy-OPLS-2005>
41.5724563598633

> <r_mmod_Bend_Energy-OPLS-2005>
114.64079284668

> <r_mmod_Torsional_Energy-OPLS-2005>
239.210174560547

> <r_mmod_Improper_Torsional_Energy-OPLS-2005>
8.33525657653809

> <r_mmod_Van_der_Waal_Energy-OPLS-2005>
163.610336303711

> <r_mmod_Electrostatic_Energy-OPLS-2005>
-320.154937744141

> <r_mmod_Solvation_Energy-OPLS-2005>
-250.37907409668

> <b_mmod_Minimization_Converged-OPLS-2005>
0

> <r_mmod_RMS_Derivative-OPLS-2005>
1.4315277338028

$$$$
54
                    3D
 Structure written by MMmdl.
158167  0  0  1  0            999 V2000
  -30.6718  -14.5801   20.4730 C   0  0  0  0  0  0
  -30.4239  -12.3520   19.4408 C   0  0  0  0  0  0
  -29.4995  -12.4668   18.2127 C   0  0  0  0  0  0
  -28.0193  -12.3276   18.6273 C   0  0  0  0  0  0
  -27.6433  -13.2162   19.8441 C   0  0  2  0  0  0
  -28.6903  -13.0976   20.9746 C   0  0  0  0  0  0
  -25.2496  -13.8173   20.5638 C   0  0  0  0  0  0
  -24.1788  -13.0430   20.9200 C   0  0  0  0  0  0
  -24.6363  -11.6912   20.8751 C   0  0  0  0  0  0
  -23.9037  -10.4292   21.0411 C   0  0  0  0  0  0
  -24.3604   -9.4208   21.9196 C   0  0  0  0  0  0
  -23.6288   -8.2239   22.0765 C   0  0  0  0  0  0
  -22.4270   -8.0270   21.3541 C   0  0  0  0  0  0
  -21.9904   -9.0231   20.4638 C   0  0  0  0  0  0
  -22.7226  -10.2118   20.3042 C   0  0  0  0  0  0
  -21.6843   -6.0731   22.5290 C   0  0  0  0  0  0
  -21.4009   -6.5635   23.8227 C   0  0  0  0  0  0
  -21.3658   -5.6786   24.9186 C   0  0  0  0  0  0
  -21.6050   -4.3043   24.7226 C   0  0  0  0  0  0
  -21.8820   -3.8139   23.4344 C   0  0  0  0  0  0
  -21.9196   -4.6964   22.3403 C   0  0  0  0  0  0
  -22.7809  -13.5216   21.1861 C   0  0  0  0  0  0
  -22.1660   -4.2146   21.0973 F   0  0  0  0  0  0
  -21.5636   -3.4519   25.7740 F   0  0  0  0  0  0
  -30.0095  -13.3922   20.3945 N   0  0  0  0  0  0
  -26.2925  -12.9360   20.3232 N   0  0  0  0  0  0
  -25.9279  -11.6516   20.5728 N   0  0  0  0  0  0
  -22.0428  -12.8231   22.0417 N   0  0  0  0  0  0
  -25.4122  -15.1894   20.4058 N   0  0  0  0  0  0
  -31.8659  -14.6806   20.1798 O   0  0  0  0  0  0
  -21.6632   -6.8871   21.4246 O   0  0  0  0  0  0
  -22.3504  -14.5520   20.6696 O   0  0  0  0  0  0
  -24.6238  -31.8593   23.2044 C   0  0  0  0  0  0
  -25.9096  -32.4769   23.8372 C   0  0  1  0  0  0
  -27.2092  -27.3612   20.1171 C   0  0  0  0  0  0
  -25.5933  -33.8581   24.2306 N   0  0  0  0  0  0
  -23.4155  -30.4873   21.5417 C   0  0  2  0  0  0
  -24.8558  -28.9394   20.1125 C   0  0  0  0  0  0
  -22.7444  -29.4652   22.4906 C   0  0  0  0  0  0
  -18.0269  -28.1441   22.8536 C   0  0  0  0  0  0
  -24.1475  -36.7296   23.2647 C   0  0  0  0  0  0
  -25.9509  -30.8033   21.3647 C   0  0  0  0  0  0
  -26.0214  -29.4313   20.7187 C   0  0  0  0  0  0
  -27.2056  -28.6488   20.7198 C   0  0  0  0  0  0
  -26.0318  -26.8998   19.4981 C   0  0  0  0  0  0
  -24.8591  -27.6750   19.4975 C   0  0  0  0  0  0
  -23.6271  -29.8207   20.1571 C   0  0  0  0  0  0
  -25.4096  -36.3091   24.0349 C   0  0  1  0  0  0
  -20.5874  -28.3724   23.1285 C   0  0  2  0  0  0
  -20.6775  -26.9452   22.5402 C   0  0  0  0  0  0
  -19.5714  -26.6411   21.5239 C   0  0  0  0  0  0
  -18.1897  -26.7996   22.1656 C   0  0  0  0  0  0
  -19.1531  -28.8900   23.2911 C   0  0  0  0  0  0
  -18.9455  -30.1522   23.8904 C   0  0  0  0  0  0
  -17.6458  -30.6641   24.0604 C   0  0  0  0  0  0
  -25.9035  -34.9461   23.5113 C   0  0  0  0  0  0
  -16.5348  -29.9142   23.6371 C   0  0  0  0  0  0
  -16.7256  -28.6565   23.0370 C   0  0  0  0  0  0
  -26.4512  -31.6574   25.0715 C   0  0  0  0  0  0
  -25.3783  -31.3645   26.1441 C   0  0  0  0  0  0
  -27.0364  -30.3042   24.6080 C   0  0  0  0  0  0
  -27.6069  -32.4308   25.7498 C   0  0  0  0  0  0
  -27.5558  -37.1815   24.8474 C   0  0  0  0  0  0
  -21.4152  -29.3100   22.3691 N   0  0  0  0  0  0
  -26.4266  -37.3786   23.9425 N   0  0  0  0  0  0
  -24.6827  -31.0673   22.0952 N   0  0  0  0  0  0
  -23.4178  -28.8163   23.2951 O   0  0  0  0  0  0
  -28.3193  -26.5366   20.1089 O   0  0  0  0  0  0
  -26.5556  -34.8929   22.4657 O   0  0  0  0  0  0
  -23.5415  -32.1338   23.7409 O   0  0  0  0  0  0
  -31.7510  -18.6695   21.9640 C   0  0  0  0  0  0
  -31.1324  -19.7386   21.2911 C   0  0  0  0  0  0
  -31.3559  -17.3424   21.7115 C   0  0  0  0  0  0
  -29.6965  -18.1550   20.1141 C   0  0  0  0  0  0
  -30.0998  -19.5069   20.3562 C   0  0  0  0  0  0
  -30.3231  -17.0575   20.7877 C   0  0  0  0  0  0
  -29.5711  -20.6928   19.5570 C   0  0  0  0  0  0
  -27.8470  -23.0402   21.8691 C   0  0  0  0  0  0
  -28.3816  -21.6480   21.5159 C   0  0  0  0  0  0
  -28.9372  -23.1566   19.7172 C   0  0  0  0  0  0
  -27.9428  -23.9424   20.6207 C   0  0  2  0  0  0
  -28.2815  -25.4262   21.0497 C   0  0  0  0  0  0
  -29.0465  -21.7618   20.2251 N   0  0  0  0  0  0
  -29.8951  -15.6912   20.5982 N   0  0  0  0  0  0
  -29.7494  -20.7048   18.3360 O   0  0  0  0  0  0
  -31.4634  -12.4672   19.1357 H   0  0  0  0  0  0
  -30.3499  -11.3652   19.8986 H   0  0  0  0  0  0
  -29.7600  -11.7023   17.4766 H   0  0  0  0  0  0
  -29.6547  -13.4271   17.7181 H   0  0  0  0  0  0
  -27.8506  -11.2777   18.8738 H   0  0  0  0  0  0
  -27.3675  -12.5463   17.7800 H   0  0  0  0  0  0
  -27.6540  -14.2447   19.4839 H   0  0  0  0  0  0
  -28.6795  -12.0973   21.4079 H   0  0  0  0  0  0
  -28.4538  -13.7846   21.7896 H   0  0  0  0  0  0
  -25.2751   -9.5701   22.4775 H   0  0  0  0  0  0
  -24.0009   -7.4627   22.7481 H   0  0  0  0  0  0
  -21.0846   -8.8713   19.8935 H   0  0  0  0  0  0
  -22.3670  -10.9637   19.6128 H   0  0  0  0  0  0
  -21.1981   -7.6147   23.9730 H   0  0  0  0  0  0
  -21.1484   -6.0509   25.9094 H   0  0  0  0  0  0
  -22.0598   -2.7604   23.2833 H   0  0  0  0  0  0
  -22.4019  -11.9891   22.4819 H   0  0  0  0  0  0
  -21.1025  -13.1259   22.2554 H   0  0  0  0  0  0
  -24.6281  -15.8262   20.5119 H   0  0  0  0  0  0
  -26.2469  -15.6461   20.0620 H   0  0  0  0  0  0
  -26.7159  -32.5427   23.1123 H   0  0  0  0  0  0
  -25.0265  -33.9758   25.0573 H   0  0  0  0  0  0
  -22.7113  -31.3083   21.3994 H   0  0  0  0  0  0
  -23.3741  -35.9623   23.3296 H   0  0  0  0  0  0
  -24.3600  -36.8893   22.2067 H   0  0  0  0  0  0
  -23.7215  -37.6505   23.6642 H   0  0  0  0  0  0
  -26.0660  -31.5548   20.5842 H   0  0  0  0  0  0
  -26.8442  -30.8641   21.9741 H   0  0  0  0  0  0
  -28.1031  -29.0208   21.1943 H   0  0  0  0  0  0
  -26.0208  -25.9297   19.0192 H   0  0  0  0  0  0
  -23.9650  -27.2888   19.0241 H   0  0  0  0  0  0
  -23.7453  -30.5929   19.3964 H   0  0  0  0  0  0
  -22.7489  -29.2462   19.8578 H   0  0  0  0  0  0
  -25.1283  -36.1937   25.0841 H   0  0  0  0  0  0
  -21.0004  -28.3256   24.1390 H   0  0  0  0  0  0
  -20.5719  -26.2333   23.3604 H   0  0  0  0  0  0
  -21.6625  -26.7497   22.1156 H   0  0  0  0  0  0
  -19.6827  -25.6299   21.1297 H   0  0  0  0  0  0
  -19.6638  -27.3217   20.6760 H   0  0  0  0  0  0
  -17.4188  -26.6819   21.4024 H   0  0  0  0  0  0
  -18.0226  -26.0129   22.9027 H   0  0  0  0  0  0
  -19.7917  -30.7379   24.2223 H   0  0  0  0  0  0
  -17.4997  -31.6310   24.5219 H   0  0  0  0  0  0
  -15.5350  -30.3054   23.7702 H   0  0  0  0  0  0
  -15.8651  -28.0911   22.7045 H   0  0  0  0  0  0
  -24.5985  -30.6943   25.7785 H   0  0  0  0  0  0
  -24.8955  -32.2792   26.4895 H   0  0  0  0  0  0
  -25.8184  -30.8827   27.0183 H   0  0  0  0  0  0
  -26.2891  -29.6756   24.1216 H   0  0  0  0  0  0
  -27.4258  -29.7304   25.4498 H   0  0  0  0  0  0
  -27.8672  -30.4419   23.9159 H   0  0  0  0  0  0
  -27.2660  -33.3626   26.2045 H   0  0  0  0  0  0
  -28.3917  -32.6814   25.0340 H   0  0  0  0  0  0
  -28.0688  -31.8422   26.5440 H   0  0  0  0  0  0
  -28.2576  -38.0114   24.7543 H   0  0  0  0  0  0
  -28.1051  -36.2651   24.6276 H   0  0  0  0  0  0
  -27.2296  -37.1440   25.8881 H   0  0  0  0  0  0
  -20.9265  -29.8921   21.7035 H   0  0  0  0  0  0
  -26.0123  -38.2841   24.1456 H   0  0  0  0  0  0
  -32.5408  -18.8702   22.6752 H   0  0  0  0  0  0
  -31.4770  -20.7496   21.4739 H   0  0  0  0  0  0
  -31.8490  -16.5447   22.2494 H   0  0  0  0  0  0
  -28.9173  -17.9641   19.3877 H   0  0  0  0  0  0
  -28.4699  -23.4383   22.6722 H   0  0  0  0  0  0
  -26.8291  -22.9861   22.2591 H   0  0  0  0  0  0
  -27.5688  -20.9231   21.4450 H   0  0  0  0  0  0
  -29.0714  -21.2951   22.2853 H   0  0  0  0  0  0
  -29.9252  -23.6169   19.7453 H   0  0  0  0  0  0
  -28.6047  -23.1776   18.6770 H   0  0  0  0  0  0
  -26.9661  -23.9244   20.1345 H   0  0  0  0  0  0
  -29.2523  -25.4201   21.5432 H   0  0  0  0  0  0
  -27.5756  -25.6820   21.8440 H   0  0  0  0  0  0
  -28.9005  -15.5348   20.5338 H   0  0  0  0  0  0
  1 25  1  0  0  0
  1 30  2  0  0  0
  1 84  1  0  0  0
  2  3  1  0  0  0
  2 25  1  0  0  0
  2 86  1  0  0  0
  2 87  1  0  0  0
  3  4  1  0  0  0
  3 88  1  0  0  0
  3 89  1  0  0  0
  4  5  1  0  0  0
  4 90  1  0  0  0
  4 91  1  0  0  0
  5  6  1  0  0  0
  5 26  1  0  0  0
  5 92  1  0  0  0
  6 25  1  0  0  0
  6 93  1  0  0  0
  6 94  1  0  0  0
  7  8  2  0  0  0
  7 26  1  0  0  0
  7 29  1  0  0  0
  8  9  1  0  0  0
  8 22  1  0  0  0
  9 10  1  0  0  0
  9 27  2  0  0  0
 10 11  2  0  0  0
 10 15  1  0  0  0
 11 12  1  0  0  0
 11 95  1  0  0  0
 12 13  2  0  0  0
 12 96  1  0  0  0
 13 14  1  0  0  0
 13 31  1  0  0  0
 14 15  2  0  0  0
 14 97  1  0  0  0
 15 98  1  0  0  0
 16 17  2  0  0  0
 16 21  1  0  0  0
 16 31  1  0  0  0
 17 18  1  0  0  0
 17 99  1  0  0  0
 18 19  2  0  0  0
 18100  1  0  0  0
 19 20  1  0  0  0
 19 24  1  0  0  0
 20 21  2  0  0  0
 20101  1  0  0  0
 21 23  1  0  0  0
 22 28  1  0  0  0
 22 32  2  0  0  0
 26 27  1  0  0  0
 28102  1  0  0  0
 28103  1  0  0  0
 29104  1  0  0  0
 29105  1  0  0  0
 33 34  1  0  0  0
 33 66  1  0  0  0
 33 70  2  0  0  0
 34 36  1  0  0  0
 34 59  1  0  0  0
 34106  1  0  0  0
 35 44  2  0  0  0
 35 45  1  0  0  0
 35 68  1  0  0  0
 36 56  1  0  0  0
 36107  1  0  0  0
 37 39  1  0  0  0
 37 47  1  0  0  0
 37 66  1  0  0  0
 37108  1  0  0  0
 38 43  2  0  0  0
 38 46  1  0  0  0
 38 47  1  0  0  0
 39 64  1  0  0  0
 39 67  2  0  0  0
 40 52  1  0  0  0
 40 53  2  0  0  0
 40 58  1  0  0  0
 41109  1  0  0  0
 41110  1  0  0  0
 41111  1  0  0  0
 41 48  1  0  0  0
 42 43  1  0  0  0
 42 66  1  0  0  0
 42112  1  0  0  0
 42113  1  0  0  0
 43 44  1  0  0  0
 44114  1  0  0  0
 45 46  2  0  0  0
 45115  1  0  0  0
 46116  1  0  0  0
 47117  1  0  0  0
 47118  1  0  0  0
 48 56  1  0  0  0
 48 65  1  0  0  0
 48119  1  0  0  0
 49 50  1  0  0  0
 49 53  1  0  0  0
 49 64  1  0  0  0
 49120  1  0  0  0
 50 51  1  0  0  0
 50121  1  0  0  0
 50122  1  0  0  0
 51 52  1  0  0  0
 51123  1  0  0  0
 51124  1  0  0  0
 52125  1  0  0  0
 52126  1  0  0  0
 53 54  1  0  0  0
 54 55  2  0  0  0
 54127  1  0  0  0
 55 57  1  0  0  0
 55128  1  0  0  0
 56 69  2  0  0  0
 57 58  2  0  0  0
 57129  1  0  0  0
 58130  1  0  0  0
 59 60  1  0  0  0
 59 61  1  0  0  0
 59 62  1  0  0  0
 60131  1  0  0  0
 60132  1  0  0  0
 60133  1  0  0  0
 61134  1  0  0  0
 61135  1  0  0  0
 61136  1  0  0  0
 62137  1  0  0  0
 62138  1  0  0  0
 62139  1  0  0  0
 63 65  1  0  0  0
 63140  1  0  0  0
 63141  1  0  0  0
 63142  1  0  0  0
 64143  1  0  0  0
 65144  1  0  0  0
 68 82  1  0  0  0
 71 72  2  0  0  0
 71 73  1  0  0  0
 71145  1  0  0  0
 72 75  1  0  0  0
 72146  1  0  0  0
 73 76  2  0  0  0
 73147  1  0  0  0
 74 75  2  0  0  0
 74 76  1  0  0  0
 74148  1  0  0  0
 75 77  1  0  0  0
 76 84  1  0  0  0
 77 83  1  0  0  0
 77 85  2  0  0  0
 78 79  1  0  0  0
 78 81  1  0  0  0
 78149  1  0  0  0
 78150  1  0  0  0
 79 83  1  0  0  0
 79151  1  0  0  0
 79152  1  0  0  0
 80 81  1  0  0  0
 80 83  1  0  0  0
 80153  1  0  0  0
 80154  1  0  0  0
 81 82  1  0  0  0
 81155  1  0  0  0
 82156  1  0  0  0
 82157  1  0  0  0
 84158  1  0  0  0
M  ISO  4   1 100  68 101  82 101  84 100
M  END
> <chiral flag>
0

> <version>
0

> <s_m_source_file>
/data/baiqing/PycharmProjects/Reinvent-master-3.2/result/LINK_invent/BTK/process_docking_weight1_custom_product_contain_oxygen_bond_distance_aromatic_linkinvent_7_9_3/rearranged_h_0105.sdf

> <i_m_source_file_index>
55

> <r_mmod_Potential_Energy-OPLS-2005>
169.051147460938

> <r_mmod_Stretch_Energy-OPLS-2005>
53.4390640258789

> <r_mmod_Bend_Energy-OPLS-2005>
127.432281494141

> <r_mmod_Torsional_Energy-OPLS-2005>
373.084411621094

> <r_mmod_Improper_Torsional_Energy-OPLS-2005>
8.83628559112549

> <r_mmod_Van_der_Waal_Energy-OPLS-2005>
138.704925537109

> <r_mmod_Electrostatic_Energy-OPLS-2005>
-337.401184082031

> <r_mmod_Solvation_Energy-OPLS-2005>
-232.789245605469

> <b_mmod_Minimization_Converged-OPLS-2005>
0

> <r_mmod_RMS_Derivative-OPLS-2005>
4.11057090759277

$$$$
55
                    3D
 Structure written by MMmdl.
151159  0  0  1  0            999 V2000
  -30.5917  -14.7124   20.4985 C   0  0  0  0  0  0
  -30.4400  -12.4384   19.4934 C   0  0  0  0  0  0
  -29.5212  -12.5219   18.2547 C   0  0  0  0  0  0
  -28.0449  -12.3396   18.6528 C   0  0  0  0  0  0
  -27.6516  -13.2200   19.8687 C   0  0  2  0  0  0
  -28.6866  -13.1136   21.0119 C   0  0  0  0  0  0
  -25.2546  -13.8172   20.5674 C   0  0  0  0  0  0
  -24.1824  -13.0430   20.9145 C   0  0  0  0  0  0
  -24.6400  -11.6898   20.8709 C   0  0  0  0  0  0
  -23.9053  -10.4294   21.0385 C   0  0  0  0  0  0
  -24.3610   -9.4221   21.9176 C   0  0  0  0  0  0
  -23.6296   -8.2256   22.0751 C   0  0  0  0  0  0
  -22.4277   -8.0282   21.3534 C   0  0  0  0  0  0
  -21.9898   -9.0252   20.4641 C   0  0  0  0  0  0
  -22.7209  -10.2138   20.3049 C   0  0  0  0  0  0
  -21.6871   -6.0742   22.5265 C   0  0  0  0  0  0
  -21.4032   -6.5653   23.8203 C   0  0  0  0  0  0
  -21.3643   -5.6795   24.9162 C   0  0  0  0  0  0
  -21.6049   -4.3060   24.7214 C   0  0  0  0  0  0
  -21.8825   -3.8149   23.4336 C   0  0  0  0  0  0
  -21.9202   -4.6969   22.3395 C   0  0  0  0  0  0
  -22.7842  -13.5221   21.1814 C   0  0  0  0  0  0
  -22.1661   -4.2160   21.0970 F   0  0  0  0  0  0
  -21.5623   -3.4548   25.7728 F   0  0  0  0  0  0
  -29.9947  -13.4747   20.4553 N   0  0  0  0  0  0
  -26.2971  -12.9370   20.3295 N   0  0  0  0  0  0
  -25.9342  -11.6522   20.5726 N   0  0  0  0  0  0
  -22.0510  -12.8229   22.0385 N   0  0  0  0  0  0
  -25.4214  -15.1906   20.4148 N   0  0  0  0  0  0
  -31.7576  -14.8445   20.1071 O   0  0  0  0  0  0
  -21.6637   -6.8874   21.4226 O   0  0  0  0  0  0
  -22.3547  -14.5524   20.6632 O   0  0  0  0  0  0
  -24.6288  -31.8545   23.2020 C   0  0  0  0  0  0
  -25.9127  -32.4753   23.8366 C   0  0  1  0  0  0
  -27.2092  -27.2647   20.1155 C   0  0  0  0  0  0
  -25.5912  -33.8542   24.2285 N   0  0  0  0  0  0
  -23.4240  -30.4800   21.5454 C   0  0  2  0  0  0
  -24.8669  -28.9299   20.1109 C   0  0  0  0  0  0
  -22.7519  -29.4572   22.4937 C   0  0  0  0  0  0
  -18.0346  -28.1369   22.8499 C   0  0  0  0  0  0
  -24.1483  -36.7299   23.2644 C   0  0  0  0  0  0
  -25.9700  -30.7681   21.3805 C   0  0  0  0  0  0
  -26.0392  -29.3915   20.7209 C   0  0  0  0  0  0
  -27.2109  -28.5714   20.7122 C   0  0  0  0  0  0
  -26.0084  -26.8645   19.4881 C   0  0  0  0  0  0
  -24.8587  -27.6756   19.4844 C   0  0  0  0  0  0
  -23.6408  -29.8197   20.1599 C   0  0  0  0  0  0
  -25.4112  -36.3068   24.0330 C   0  0  1  0  0  0
  -20.5946  -28.3644   23.1317 C   0  0  2  0  0  0
  -20.6837  -26.9360   22.5475 C   0  0  0  0  0  0
  -19.5829  -26.6340   21.5296 C   0  0  0  0  0  0
  -18.1990  -26.7920   22.1635 C   0  0  0  0  0  0
  -19.1597  -28.8826   23.2915 C   0  0  0  0  0  0
  -18.9533  -30.1430   23.8916 C   0  0  0  0  0  0
  -17.6540  -30.6582   24.0586 C   0  0  0  0  0  0
  -25.9045  -34.9431   23.5126 C   0  0  0  0  0  0
  -16.5417  -29.9101   23.6343 C   0  0  0  0  0  0
  -16.7336  -28.6499   23.0381 C   0  0  0  0  0  0
  -26.4511  -31.6567   25.0741 C   0  0  0  0  0  0
  -25.3752  -31.3695   26.1482 C   0  0  0  0  0  0
  -27.0354  -30.2984   24.6208 C   0  0  0  0  0  0
  -27.6068  -32.4316   25.7518 C   0  0  0  0  0  0
  -27.5572  -37.1809   24.8472 C   0  0  0  0  0  0
  -21.4238  -29.3000   22.3716 N   0  0  0  0  0  0
  -26.4298  -37.3759   23.9400 N   0  0  0  0  0  0
  -24.6942  -31.0508   22.0995 N   0  0  0  0  0  0
  -23.4256  -28.8120   23.3011 O   0  0  0  0  0  0
  -28.3332  -26.4091   20.1816 O   0  0  0  0  0  0
  -26.5617  -34.8891   22.4690 O   0  0  0  0  0  0
  -23.5440  -32.1360   23.7323 O   0  0  0  0  0  0
  -29.6989  -18.3334   18.0359 C   0  0  0  0  0  0
  -29.3899  -19.5542   18.6654 C   0  0  0  0  0  0
  -29.8735  -17.1490   18.7734 C   0  0  0  0  0  0
  -29.3954  -18.4072   20.8063 C   0  0  0  0  0  0
  -29.2370  -19.6572   20.0662 C   0  0  0  0  0  0
  -29.7299  -17.1303   20.1781 C   0  0  0  0  0  0
  -28.9232  -21.0545   20.6566 C   0  0  0  0  0  0
  -28.8711  -22.2968   20.0325 C   0  0  0  0  0  0
  -28.5763  -23.7330   20.6488 C   0  0  0  0  0  0
  -28.3670  -24.9966   19.6662 C   0  0  0  0  0  0
  -29.8208  -15.8114   20.8478 N   0  0  0  0  0  0
  -31.4825  -12.5711   19.1973 H   0  0  0  0  0  0
  -30.3894  -11.4494   19.9530 H   0  0  0  0  0  0
  -29.8161  -11.7723   17.5181 H   0  0  0  0  0  0
  -29.6465  -13.4924   17.7717 H   0  0  0  0  0  0
  -27.8950  -11.2827   18.8843 H   0  0  0  0  0  0
  -27.3964  -12.5571   17.8038 H   0  0  0  0  0  0
  -27.6652  -14.2496   19.5118 H   0  0  0  0  0  0
  -28.7153  -12.1004   21.4167 H   0  0  0  0  0  0
  -28.4113  -13.7632   21.8434 H   0  0  0  0  0  0
  -25.2777   -9.5723   22.4733 H   0  0  0  0  0  0
  -24.0040   -7.4654   22.7466 H   0  0  0  0  0  0
  -21.0842   -8.8747   19.8943 H   0  0  0  0  0  0
  -22.3661  -10.9674   19.6157 H   0  0  0  0  0  0
  -21.2037   -7.6166   23.9713 H   0  0  0  0  0  0
  -21.1447   -6.0525   25.9061 H   0  0  0  0  0  0
  -22.0620   -2.7625   23.2821 H   0  0  0  0  0  0
  -22.4172  -11.9890   22.4736 H   0  0  0  0  0  0
  -21.1142  -13.1264   22.2609 H   0  0  0  0  0  0
  -24.6443  -15.8307   20.5288 H   0  0  0  0  0  0
  -26.2671  -15.6482   20.0984 H   0  0  0  0  0  0
  -26.7174  -32.5398   23.1099 H   0  0  0  0  0  0
  -25.0038  -33.9715   25.0414 H   0  0  0  0  0  0
  -22.7174  -31.2997   21.4057 H   0  0  0  0  0  0
  -23.3728  -35.9649   23.3331 H   0  0  0  0  0  0
  -24.3576  -36.8897   22.2056 H   0  0  0  0  0  0
  -23.7265  -37.6513   23.6658 H   0  0  0  0  0  0
  -26.1072  -31.5298   20.6122 H   0  0  0  0  0  0
  -26.8524  -30.8199   22.0089 H   0  0  0  0  0  0
  -28.1112  -28.9173   21.2014 H   0  0  0  0  0  0
  -25.8968  -25.9080   19.0050 H   0  0  0  0  0  0
  -23.9593  -27.3166   19.0065 H   0  0  0  0  0  0
  -23.7711  -30.6009   19.4104 H   0  0  0  0  0  0
  -22.7593  -29.2569   19.8500 H   0  0  0  0  0  0
  -25.1290  -36.1940   25.0823 H   0  0  0  0  0  0
  -21.0063  -28.3200   24.1436 H   0  0  0  0  0  0
  -20.5700  -26.2296   23.3715 H   0  0  0  0  0  0
  -21.6718  -26.7374   22.1278 H   0  0  0  0  0  0
  -19.6938  -25.6244   21.1330 H   0  0  0  0  0  0
  -19.6789  -27.3155   20.6814 H   0  0  0  0  0  0
  -17.4298  -26.6688   21.3991 H   0  0  0  0  0  0
  -18.0316  -26.0069   22.9014 H   0  0  0  0  0  0
  -19.8038  -30.7220   24.2252 H   0  0  0  0  0  0
  -17.5142  -31.6282   24.5185 H   0  0  0  0  0  0
  -15.5435  -30.3035   23.7651 H   0  0  0  0  0  0
  -15.8731  -28.0820   22.7108 H   0  0  0  0  0  0
  -24.5967  -30.6996   25.7841 H   0  0  0  0  0  0
  -24.8912  -32.2839   26.4900 H   0  0  0  0  0  0
  -25.8115  -30.8907   27.0265 H   0  0  0  0  0  0
  -26.2919  -29.6736   24.1254 H   0  0  0  0  0  0
  -27.4061  -29.7247   25.4716 H   0  0  0  0  0  0
  -27.8791  -30.4266   23.9431 H   0  0  0  0  0  0
  -27.2676  -33.3634   26.2060 H   0  0  0  0  0  0
  -28.3896  -32.6851   25.0357 H   0  0  0  0  0  0
  -28.0712  -31.8461   26.5460 H   0  0  0  0  0  0
  -28.2604  -38.0080   24.7461 H   0  0  0  0  0  0
  -28.1042  -36.2613   24.6371 H   0  0  0  0  0  0
  -27.2281  -37.1549   25.8868 H   0  0  0  0  0  0
  -20.9392  -29.8821   21.7025 H   0  0  0  0  0  0
  -26.0178  -38.2834   24.1376 H   0  0  0  0  0  0
  -29.7864  -18.2977   16.9568 H   0  0  0  0  0  0
  -29.2570  -20.4185   18.0340 H   0  0  0  0  0  0
  -30.0856  -16.2397   18.2287 H   0  0  0  0  0  0
  -29.2537  -18.4317   21.8787 H   0  0  0  0  0  0
  -28.7154  -21.0491   21.7195 H   0  0  0  0  0  0
  -29.0824  -22.3382   18.9732 H   0  0  0  0  0  0
  -29.4211  -23.9655   21.2999 H   0  0  0  0  0  0
  -27.7102  -23.6449   21.3034 H   0  0  0  0  0  0
  -27.5456  -24.7676   18.9965 H   0  0  0  0  0  0
  -29.2229  -24.9899   18.9908 H   0  0  0  0  0  0
  -29.0197  -15.5786   21.4178 H   0  0  0  0  0  0
  1 25  1  0  0  0
  1 30  2  0  0  0
  1 81  1  0  0  0
  2  3  1  0  0  0
  2 25  1  0  0  0
  2 82  1  0  0  0
  2 83  1  0  0  0
  3  4  1  0  0  0
  3 84  1  0  0  0
  3 85  1  0  0  0
  4  5  1  0  0  0
  4 86  1  0  0  0
  4 87  1  0  0  0
  5  6  1  0  0  0
  5 26  1  0  0  0
  5 88  1  0  0  0
  6 25  1  0  0  0
  6 89  1  0  0  0
  6 90  1  0  0  0
  7  8  2  0  0  0
  7 26  1  0  0  0
  7 29  1  0  0  0
  8  9  1  0  0  0
  8 22  1  0  0  0
  9 10  1  0  0  0
  9 27  2  0  0  0
 10 11  2  0  0  0
 10 15  1  0  0  0
 11 12  1  0  0  0
 11 91  1  0  0  0
 12 13  2  0  0  0
 12 92  1  0  0  0
 13 14  1  0  0  0
 13 31  1  0  0  0
 14 15  2  0  0  0
 14 93  1  0  0  0
 15 94  1  0  0  0
 16 17  2  0  0  0
 16 21  1  0  0  0
 16 31  1  0  0  0
 17 18  1  0  0  0
 17 95  1  0  0  0
 18 19  2  0  0  0
 18 96  1  0  0  0
 19 20  1  0  0  0
 19 24  1  0  0  0
 20 21  2  0  0  0
 20 97  1  0  0  0
 21 23  1  0  0  0
 22 28  1  0  0  0
 22 32  2  0  0  0
 26 27  1  0  0  0
 28 98  1  0  0  0
 28 99  1  0  0  0
 29100  1  0  0  0
 29101  1  0  0  0
 33 34  1  0  0  0
 33 66  1  0  0  0
 33 70  2  0  0  0
 34 36  1  0  0  0
 34 59  1  0  0  0
 34102  1  0  0  0
 35 44  2  0  0  0
 35 45  1  0  0  0
 35 68  1  0  0  0
 36 56  1  0  0  0
 36103  1  0  0  0
 37 39  1  0  0  0
 37 47  1  0  0  0
 37 66  1  0  0  0
 37104  1  0  0  0
 38 43  2  0  0  0
 38 46  1  0  0  0
 38 47  1  0  0  0
 39 64  1  0  0  0
 39 67  2  0  0  0
 40 52  1  0  0  0
 40 53  2  0  0  0
 40 58  1  0  0  0
 41105  1  0  0  0
 41106  1  0  0  0
 41107  1  0  0  0
 41 48  1  0  0  0
 42 43  1  0  0  0
 42 66  1  0  0  0
 42108  1  0  0  0
 42109  1  0  0  0
 43 44  1  0  0  0
 44110  1  0  0  0
 45 46  2  0  0  0
 45111  1  0  0  0
 46112  1  0  0  0
 47113  1  0  0  0
 47114  1  0  0  0
 48 56  1  0  0  0
 48 65  1  0  0  0
 48115  1  0  0  0
 49 50  1  0  0  0
 49 53  1  0  0  0
 49 64  1  0  0  0
 49116  1  0  0  0
 50 51  1  0  0  0
 50117  1  0  0  0
 50118  1  0  0  0
 51 52  1  0  0  0
 51119  1  0  0  0
 51120  1  0  0  0
 52121  1  0  0  0
 52122  1  0  0  0
 53 54  1  0  0  0
 54 55  2  0  0  0
 54123  1  0  0  0
 55 57  1  0  0  0
 55124  1  0  0  0
 56 69  2  0  0  0
 57 58  2  0  0  0
 57125  1  0  0  0
 58126  1  0  0  0
 59 60  1  0  0  0
 59 61  1  0  0  0
 59 62  1  0  0  0
 60127  1  0  0  0
 60128  1  0  0  0
 60129  1  0  0  0
 61130  1  0  0  0
 61131  1  0  0  0
 61132  1  0  0  0
 62133  1  0  0  0
 62134  1  0  0  0
 62135  1  0  0  0
 63 65  1  0  0  0
 63136  1  0  0  0
 63137  1  0  0  0
 63138  1  0  0  0
 64139  1  0  0  0
 65140  1  0  0  0
 68 80  1  0  0  0
 71 72  2  0  0  0
 71 73  1  0  0  0
 71141  1  0  0  0
 72 75  1  0  0  0
 72142  1  0  0  0
 73 76  2  0  0  0
 73143  1  0  0  0
 74 75  2  0  0  0
 74 76  1  0  0  0
 74144  1  0  0  0
 75 77  1  0  0  0
 76 81  1  0  0  0
 77 78  2  0  0  0
 77145  1  0  0  0
 78 79  1  0  0  0
 78146  1  0  0  0
 79 80  1  0  0  0
 79147  1  0  0  0
 79148  1  0  0  0
 80149  1  0  0  0
 80150  1  0  0  0
 81151  1  0  0  0
M  ISO  4   1 100  68 101  80 101  81 100
M  END
> <chiral flag>
0

> <version>
0

> <s_m_source_file>
/data/baiqing/PycharmProjects/Reinvent-master-3.2/result/LINK_invent/BTK/process_docking_weight1_custom_product_contain_oxygen_bond_distance_aromatic_linkinvent_7_9_3/rearranged_h_0105.sdf

> <i_m_source_file_index>
56

> <r_mmod_Potential_Energy-OPLS-2005>
173.24983215332

> <r_mmod_Stretch_Energy-OPLS-2005>
117.691413879395

> <r_mmod_Bend_Energy-OPLS-2005>
156.105590820312

> <r_mmod_Torsional_Energy-OPLS-2005>
235.575302124023

> <r_mmod_Improper_Torsional_Energy-OPLS-2005>
4.88599252700806

> <r_mmod_Van_der_Waal_Energy-OPLS-2005>
141.469467163086

> <r_mmod_Electrostatic_Energy-OPLS-2005>
-347.909973144531

> <r_mmod_Solvation_Energy-OPLS-2005>
-208.009765625

> <b_mmod_Minimization_Converged-OPLS-2005>
0

> <r_mmod_RMS_Derivative-OPLS-2005>
4.0600414276123

$$$$
56
                    3D
 Structure written by MMmdl.
149157  0  0  1  0            999 V2000
  -30.3651  -15.3813   20.3505 C   0  0  0  0  0  0
  -30.4446  -12.8792   19.5504 C   0  0  0  0  0  0
  -29.5508  -12.6019   18.3102 C   0  0  0  0  0  0
  -28.1021  -12.3002   18.7309 C   0  0  0  0  0  0
  -27.6085  -13.2846   19.8176 C   0  0  2  0  0  0
  -28.6309  -13.4975   20.9534 C   0  0  0  0  0  0
  -25.2373  -13.8257   20.5737 C   0  0  0  0  0  0
  -24.1734  -13.0437   20.9252 C   0  0  0  0  0  0
  -24.6397  -11.6937   20.8742 C   0  0  0  0  0  0
  -23.9091  -10.4295   21.0394 C   0  0  0  0  0  0
  -24.3636   -9.4212   21.9174 C   0  0  0  0  0  0
  -23.6304   -8.2248   22.0750 C   0  0  0  0  0  0
  -22.4286   -8.0281   21.3543 C   0  0  0  0  0  0
  -21.9925   -9.0254   20.4642 C   0  0  0  0  0  0
  -22.7258  -10.2128   20.3047 C   0  0  0  0  0  0
  -21.6855   -6.0735   22.5278 C   0  0  0  0  0  0
  -21.4016   -6.5638   23.8211 C   0  0  0  0  0  0
  -21.3662   -5.6790   24.9173 C   0  0  0  0  0  0
  -21.6046   -4.3054   24.7223 C   0  0  0  0  0  0
  -21.8819   -3.8144   23.4345 C   0  0  0  0  0  0
  -21.9193   -4.6961   22.3400 C   0  0  0  0  0  0
  -22.7751  -13.5180   21.1918 C   0  0  0  0  0  0
  -22.1660   -4.2145   21.0979 F   0  0  0  0  0  0
  -21.5631   -3.4539   25.7738 F   0  0  0  0  0  0
  -29.8635  -14.0327   20.3461 N   0  0  0  0  0  0
  -26.2802  -12.9544   20.3173 N   0  0  0  0  0  0
  -25.9336  -11.6643   20.5678 N   0  0  0  0  0  0
  -22.0413  -12.8153   22.0469 N   0  0  0  0  0  0
  -25.4023  -15.1997   20.4209 N   0  0  0  0  0  0
  -31.5876  -15.3764   20.1160 O   0  0  0  0  0  0
  -21.6646   -6.8880   21.4240 O   0  0  0  0  0  0
  -22.3425  -14.5483   20.6766 O   0  0  0  0  0  0
  -24.6692  -31.8167   23.1648 C   0  0  0  0  0  0
  -25.9341  -32.4559   23.8136 C   0  0  1  0  0  0
  -27.2233  -26.8552   20.1982 C   0  0  0  0  0  0
  -25.5989  -33.8375   24.2043 N   0  0  0  0  0  0
  -23.4884  -30.4251   21.5150 C   0  0  2  0  0  0
  -24.9448  -28.7966   20.1160 C   0  0  0  0  0  0
  -22.7705  -29.4404   22.4757 C   0  0  0  0  0  0
  -18.0332  -28.1422   22.8476 C   0  0  0  0  0  0
  -24.1488  -36.7186   23.2650 C   0  0  0  0  0  0
  -26.0611  -30.5992   21.4062 C   0  0  0  0  0  0
  -26.1291  -29.1788   20.7581 C   0  0  0  0  0  0
  -27.2595  -28.2307   20.7738 C   0  0  0  0  0  0
  -26.0107  -26.6472   19.4998 C   0  0  0  0  0  0
  -24.9148  -27.5524   19.4657 C   0  0  0  0  0  0
  -23.7345  -29.7344   20.1442 C   0  0  0  0  0  0
  -25.4133  -36.2948   24.0297 C   0  0  1  0  0  0
  -20.5961  -28.3768   23.1180 C   0  0  2  0  0  0
  -20.6808  -26.9443   22.5407 C   0  0  0  0  0  0
  -19.5778  -26.6387   21.5224 C   0  0  0  0  0  0
  -18.1959  -26.7960   22.1628 C   0  0  0  0  0  0
  -19.1595  -28.8919   23.2817 C   0  0  0  0  0  0
  -18.9503  -30.1507   23.8856 C   0  0  0  0  0  0
  -17.6494  -30.6612   24.0561 C   0  0  0  0  0  0
  -25.9105  -34.9336   23.4993 C   0  0  0  0  0  0
  -16.5386  -29.9099   23.6347 C   0  0  0  0  0  0
  -16.7312  -28.6518   23.0372 C   0  0  0  0  0  0
  -26.4575  -31.6520   25.0681 C   0  0  0  0  0  0
  -25.3684  -31.3783   26.1319 C   0  0  0  0  0  0
  -27.0474  -30.2881   24.6440 C   0  0  0  0  0  0
  -27.6063  -32.4333   25.7486 C   0  0  0  0  0  0
  -27.5562  -37.1749   24.8473 C   0  0  0  0  0  0
  -21.4367  -29.3042   22.3517 N   0  0  0  0  0  0
  -26.4275  -37.3692   23.9413 N   0  0  0  0  0  0
  -24.7616  -30.9759   22.0821 N   0  0  0  0  0  0
  -23.4221  -28.7979   23.3027 O   0  0  0  0  0  0
  -28.2191  -25.7159   20.2313 O   0  0  0  0  0  0
  -26.5721  -34.8884   22.4594 O   0  0  0  0  0  0
  -23.5744  -32.1172   23.6691 O   0  0  0  0  0  0
  -28.7221  -22.8815   20.2710 C   0  0  0  0  0  0
  -27.9640  -24.1783   20.3106 C   0  0  0  0  0  0
  -30.0535  -18.6424   20.2664 C   0  0  0  0  0  0
  -30.2200  -22.7039   20.0733 C   0  0  0  0  0  0
  -28.3673  -21.2058   20.4068 C   0  0  0  0  0  0
  -30.6691  -21.1626   20.0165 C   0  0  0  0  0  0
  -29.5080  -16.9661   20.4848 C   0  0  0  0  0  0
  -29.5946  -20.1241   20.2608 N   0  0  0  0  0  0
  -31.3756  -18.5396   20.0126 N   0  3  0  0  0  0
  -31.4596  -13.0984   19.2165 H   0  0  0  0  0  0
  -30.5320  -11.9857   20.1707 H   0  0  0  0  0  0
  -29.9545  -11.7720   17.7286 H   0  0  0  0  0  0
  -29.5658  -13.4730   17.6534 H   0  0  0  0  0  0
  -28.0774  -11.2827   19.1231 H   0  0  0  0  0  0
  -27.4380  -12.3127   17.8658 H   0  0  0  0  0  0
  -27.5120  -14.2407   19.3016 H   0  0  0  0  0  0
  -28.8129  -12.5747   21.5065 H   0  0  0  0  0  0
  -28.2429  -14.2182   21.6748 H   0  0  0  0  0  0
  -25.2777   -9.5686   22.4756 H   0  0  0  0  0  0
  -24.0008   -7.4638   22.7473 H   0  0  0  0  0  0
  -21.0856   -8.8773   19.8945 H   0  0  0  0  0  0
  -22.3714  -10.9665   19.6158 H   0  0  0  0  0  0
  -21.2009   -7.6147   23.9712 H   0  0  0  0  0  0
  -21.1486   -6.0522   25.9075 H   0  0  0  0  0  0
  -22.0595   -2.7607   23.2847 H   0  0  0  0  0  0
  -22.4041  -11.9816   22.4851 H   0  0  0  0  0  0
  -21.1022  -13.1148   22.2679 H   0  0  0  0  0  0
  -24.6336  -15.8514   20.5381 H   0  0  0  0  0  0
  -26.2477  -15.6422   20.0860 H   0  0  0  0  0  0
  -26.7415  -32.5084   23.0852 H   0  0  0  0  0  0
  -25.0095  -33.9444   25.0167 H   0  0  0  0  0  0
  -22.8057  -31.2584   21.3373 H   0  0  0  0  0  0
  -23.3767  -35.9499   23.3285 H   0  0  0  0  0  0
  -24.3563  -36.8860   22.2071 H   0  0  0  0  0  0
  -23.7230  -37.6361   23.6723 H   0  0  0  0  0  0
  -26.2435  -31.3311   20.6184 H   0  0  0  0  0  0
  -26.9216  -30.6666   22.0593 H   0  0  0  0  0  0
  -28.1572  -28.5256   21.2983 H   0  0  0  0  0  0
  -25.8792  -25.7018   18.9934 H   0  0  0  0  0  0
  -24.0192  -27.2545   18.9381 H   0  0  0  0  0  0
  -23.8974  -30.4998   19.3841 H   0  0  0  0  0  0
  -22.8432  -29.1931   19.8237 H   0  0  0  0  0  0
  -25.1335  -36.1734   25.0788 H   0  0  0  0  0  0
  -21.0057  -28.3379   24.1300 H   0  0  0  0  0  0
  -20.5698  -26.2383   23.3653 H   0  0  0  0  0  0
  -21.6667  -26.7419   22.1202 H   0  0  0  0  0  0
  -19.6931  -25.6288   21.1281 H   0  0  0  0  0  0
  -19.6715  -27.3181   20.6742 H   0  0  0  0  0  0
  -17.4230  -26.6720   21.4029 H   0  0  0  0  0  0
  -18.0333  -26.0116   22.9033 H   0  0  0  0  0  0
  -19.7976  -30.7338   24.2207 H   0  0  0  0  0  0
  -17.5044  -31.6286   24.5172 H   0  0  0  0  0  0
  -15.5386  -30.2987   23.7697 H   0  0  0  0  0  0
  -15.8713  -28.0821   22.7113 H   0  0  0  0  0  0
  -24.5909  -30.7086   25.7627 H   0  0  0  0  0  0
  -24.8823  -32.2982   26.4577 H   0  0  0  0  0  0
  -25.7899  -30.9070   27.0205 H   0  0  0  0  0  0
  -26.3149  -29.6556   24.1413 H   0  0  0  0  0  0
  -27.3965  -29.7245   25.5104 H   0  0  0  0  0  0
  -27.9108  -30.4064   23.9889 H   0  0  0  0  0  0
  -27.2643  -33.3700   26.1898 H   0  0  0  0  0  0
  -28.3957  -32.6784   25.0368 H   0  0  0  0  0  0
  -28.0632  -31.8561   26.5534 H   0  0  0  0  0  0
  -28.2567  -38.0056   24.7513 H   0  0  0  0  0  0
  -28.1071  -36.2582   24.6314 H   0  0  0  0  0  0
  -27.2276  -37.1408   25.8875 H   0  0  0  0  0  0
  -20.9632  -29.8725   21.6632 H   0  0  0  0  0  0
  -26.0114  -38.2744   24.1429 H   0  0  0  0  0  0
  -26.9016  -24.0561   20.4648 H   0  0  0  0  0  0
  -30.7375  -23.2079   20.8901 H   0  0  0  0  0  0
  -30.5161  -23.2155   19.1569 H   0  0  0  0  0  0
  -27.6151  -20.9596   19.6577 H   0  0  0  0  0  0
  -27.8951  -21.0396   21.3742 H   0  0  0  0  0  0
  -31.4684  -21.0150   20.7435 H   0  0  0  0  0  0
  -31.1002  -20.9686   19.0338 H   0  0  0  0  0  0
  -28.6513  -16.8572   19.8212 H   0  0  0  0  0  0
  -29.0666  -16.9382   21.4801 H   0  0  0  0  0  0
  -31.8274  -17.6312   19.9777 H   0  0  0  0  0  0
  -31.9568  -19.3471   19.8398 H   0  0  0  0  0  0
  1 25  1  0  0  0
  1 30  2  0  0  0
  1 77  1  0  0  0
  2  3  1  0  0  0
  2 25  1  0  0  0
  2 80  1  0  0  0
  2 81  1  0  0  0
  3  4  1  0  0  0
  3 82  1  0  0  0
  3 83  1  0  0  0
  4  5  1  0  0  0
  4 84  1  0  0  0
  4 85  1  0  0  0
  5  6  1  0  0  0
  5 26  1  0  0  0
  5 86  1  0  0  0
  6 25  1  0  0  0
  6 87  1  0  0  0
  6 88  1  0  0  0
  7  8  2  0  0  0
  7 26  1  0  0  0
  7 29  1  0  0  0
  8  9  1  0  0  0
  8 22  1  0  0  0
  9 10  1  0  0  0
  9 27  2  0  0  0
 10 11  2  0  0  0
 10 15  1  0  0  0
 11 12  1  0  0  0
 11 89  1  0  0  0
 12 13  2  0  0  0
 12 90  1  0  0  0
 13 14  1  0  0  0
 13 31  1  0  0  0
 14 15  2  0  0  0
 14 91  1  0  0  0
 15 92  1  0  0  0
 16 17  2  0  0  0
 16 21  1  0  0  0
 16 31  1  0  0  0
 17 18  1  0  0  0
 17 93  1  0  0  0
 18 19  2  0  0  0
 18 94  1  0  0  0
 19 20  1  0  0  0
 19 24  1  0  0  0
 20 21  2  0  0  0
 20 95  1  0  0  0
 21 23  1  0  0  0
 22 28  1  0  0  0
 22 32  2  0  0  0
 26 27  1  0  0  0
 28 96  1  0  0  0
 28 97  1  0  0  0
 29 98  1  0  0  0
 29 99  1  0  0  0
 33 34  1  0  0  0
 33 66  1  0  0  0
 33 70  2  0  0  0
 34 36  1  0  0  0
 34 59  1  0  0  0
 34100  1  0  0  0
 35 44  2  0  0  0
 35 45  1  0  0  0
 35 68  1  0  0  0
 36 56  1  0  0  0
 36101  1  0  0  0
 37 39  1  0  0  0
 37 47  1  0  0  0
 37 66  1  0  0  0
 37102  1  0  0  0
 38 43  2  0  0  0
 38 46  1  0  0  0
 38 47  1  0  0  0
 39 64  1  0  0  0
 39 67  2  0  0  0
 40 52  1  0  0  0
 40 53  2  0  0  0
 40 58  1  0  0  0
 41103  1  0  0  0
 41104  1  0  0  0
 41105  1  0  0  0
 41 48  1  0  0  0
 42 43  1  0  0  0
 42 66  1  0  0  0
 42106  1  0  0  0
 42107  1  0  0  0
 43 44  1  0  0  0
 44108  1  0  0  0
 45 46  2  0  0  0
 45109  1  0  0  0
 46110  1  0  0  0
 47111  1  0  0  0
 47112  1  0  0  0
 48 56  1  0  0  0
 48 65  1  0  0  0
 48113  1  0  0  0
 49 50  1  0  0  0
 49 53  1  0  0  0
 49 64  1  0  0  0
 49114  1  0  0  0
 50 51  1  0  0  0
 50115  1  0  0  0
 50116  1  0  0  0
 51 52  1  0  0  0
 51117  1  0  0  0
 51118  1  0  0  0
 52119  1  0  0  0
 52120  1  0  0  0
 53 54  1  0  0  0
 54 55  2  0  0  0
 54121  1  0  0  0
 55 57  1  0  0  0
 55122  1  0  0  0
 56 69  2  0  0  0
 57 58  2  0  0  0
 57123  1  0  0  0
 58124  1  0  0  0
 59 60  1  0  0  0
 59 61  1  0  0  0
 59 62  1  0  0  0
 60125  1  0  0  0
 60126  1  0  0  0
 60127  1  0  0  0
 61128  1  0  0  0
 61129  1  0  0  0
 61130  1  0  0  0
 62131  1  0  0  0
 62132  1  0  0  0
 62133  1  0  0  0
 63 65  1  0  0  0
 63134  1  0  0  0
 63135  1  0  0  0
 63136  1  0  0  0
 64137  1  0  0  0
 65138  1  0  0  0
 68 72  1  0  0  0
 71 72  2  0  0  0
 71 74  1  0  0  0
 71 75  1  0  0  0
 72139  1  0  0  0
 73 77  1  0  0  0
 73 78  1  0  0  0
 73 79  2  0  0  0
 74 76  1  0  0  0
 74140  1  0  0  0
 74141  1  0  0  0
 75 78  1  0  0  0
 75142  1  0  0  0
 75143  1  0  0  0
 76 78  1  0  0  0
 76144  1  0  0  0
 76145  1  0  0  0
 77146  1  0  0  0
 77147  1  0  0  0
 79148  1  0  0  0
 79149  1  0  0  0
M  CHG  1  79   1
M  ISO  4   1 100  68 101  72 101  77 100
M  END
> <chiral flag>
0

> <version>
0

> <s_m_source_file>
/data/baiqing/PycharmProjects/Reinvent-master-3.2/result/LINK_invent/BTK/process_docking_weight1_custom_product_contain_oxygen_bond_distance_aromatic_linkinvent_7_9_3/rearranged_h_0105.sdf

> <i_m_source_file_index>
57

> <r_mmod_Potential_Energy-OPLS-2005>
1607.03881835938

> <r_mmod_Stretch_Energy-OPLS-2005>
684.509887695312

> <r_mmod_Bend_Energy-OPLS-2005>
539.550476074219

> <r_mmod_Torsional_Energy-OPLS-2005>
203.934112548828

> <r_mmod_Improper_Torsional_Energy-OPLS-2005>
2.59954333305359

> <r_mmod_Van_der_Waal_Energy-OPLS-2005>
117.601387023926

> <r_mmod_Electrostatic_Energy-OPLS-2005>
-97.7952194213867

> <r_mmod_Solvation_Energy-OPLS-2005>
-420.666198730469

> <b_mmod_Minimization_Converged-OPLS-2005>
0

> <r_mmod_RMS_Derivative-OPLS-2005>
0.86376827955246

$$$$
57
                    3D
 Structure written by MMmdl.
165174  0  0  1  0            999 V2000
  -30.7614  -14.4020   20.5772 C   0  0  0  0  0  0
  -30.3953  -12.2610   19.4261 C   0  0  0  0  0  0
  -29.4854  -12.5040   18.2074 C   0  0  0  0  0  0
  -28.0052  -12.3846   18.6160 C   0  0  0  0  0  0
  -27.6610  -13.2145   19.8826 C   0  0  2  0  0  0
  -28.7028  -12.9896   21.0046 C   0  0  0  0  0  0
  -25.2555  -13.8183   20.5693 C   0  0  0  0  0  0
  -24.1808  -13.0444   20.9184 C   0  0  0  0  0  0
  -24.6372  -11.6920   20.8741 C   0  0  0  0  0  0
  -23.9045  -10.4300   21.0401 C   0  0  0  0  0  0
  -24.3605   -9.4216   21.9172 C   0  0  0  0  0  0
  -23.6290   -8.2246   22.0745 C   0  0  0  0  0  0
  -22.4271   -8.0275   21.3541 C   0  0  0  0  0  0
  -21.9904   -9.0243   20.4639 C   0  0  0  0  0  0
  -22.7222  -10.2131   20.3048 C   0  0  0  0  0  0
  -21.6854   -6.0731   22.5278 C   0  0  0  0  0  0
  -21.4014   -6.5632   23.8208 C   0  0  0  0  0  0
  -21.3666   -5.6787   24.9167 C   0  0  0  0  0  0
  -21.6055   -4.3053   24.7220 C   0  0  0  0  0  0
  -21.8824   -3.8142   23.4341 C   0  0  0  0  0  0
  -21.9191   -4.6962   22.3405 C   0  0  0  0  0  0
  -22.7828  -13.5236   21.1856 C   0  0  0  0  0  0
  -22.1661   -4.2154   21.0984 F   0  0  0  0  0  0
  -21.5633   -3.4539   25.7727 F   0  0  0  0  0  0
  -30.0410  -13.2562   20.4522 N   0  0  0  0  0  0
  -26.3007  -12.9374   20.3415 N   0  0  0  0  0  0
  -25.9308  -11.6526   20.5802 N   0  0  0  0  0  0
  -22.0482  -12.8211   22.0409 N   0  0  0  0  0  0
  -25.4277  -15.1896   20.4101 N   0  0  0  0  0  0
  -31.8624  -14.5234   20.0387 O   0  0  0  0  0  0
  -21.6637   -6.8871   21.4239 O   0  0  0  0  0  0
  -22.3513  -14.5553   20.6726 O   0  0  0  0  0  0
  -24.6121  -31.8690   23.2070 C   0  0  0  0  0  0
  -25.9020  -32.4835   23.8365 C   0  0  1  0  0  0
  -27.2445  -27.4534   20.0949 C   0  0  0  0  0  0
  -25.5876  -33.8630   24.2305 N   0  0  0  0  0  0
  -23.3987  -30.4903   21.5486 C   0  0  2  0  0  0
  -24.8454  -28.9549   20.1158 C   0  0  0  0  0  0
  -22.7395  -29.4655   22.4996 C   0  0  0  0  0  0
  -18.0271  -28.1392   22.8500 C   0  0  0  0  0  0
  -24.1499  -36.7318   23.2639 C   0  0  0  0  0  0
  -25.9217  -30.8438   21.3518 C   0  0  0  0  0  0
  -26.0013  -29.4755   20.7078 C   0  0  0  0  0  0
  -27.1994  -28.7318   20.6925 C   0  0  0  0  0  0
  -26.0670  -26.9369   19.5036 C   0  0  0  0  0  0
  -24.8720  -27.6848   19.5123 C   0  0  0  0  0  0
  -23.6060  -29.8192   20.1641 C   0  0  0  0  0  0
  -25.4123  -36.3124   24.0334 C   0  0  1  0  0  0
  -20.5858  -28.3646   23.1355 C   0  0  2  0  0  0
  -20.6751  -26.9388   22.5432 C   0  0  0  0  0  0
  -19.5741  -26.6394   21.5214 C   0  0  0  0  0  0
  -18.1922  -26.7941   22.1628 C   0  0  0  0  0  0
  -19.1518  -28.8834   23.2928 C   0  0  0  0  0  0
  -18.9438  -30.1443   23.8928 C   0  0  0  0  0  0
  -17.6441  -30.6585   24.0572 C   0  0  0  0  0  0
  -25.9040  -34.9487   23.5127 C   0  0  0  0  0  0
  -16.5333  -29.9094   23.6328 C   0  0  0  0  0  0
  -16.7261  -28.6523   23.0336 C   0  0  0  0  0  0
  -26.4444  -31.6602   25.0678 C   0  0  0  0  0  0
  -25.3697  -31.3679   26.1412 C   0  0  0  0  0  0
  -27.0259  -30.3066   24.5990 C   0  0  0  0  0  0
  -27.6045  -32.4296   25.7429 C   0  0  0  0  0  0
  -27.5594  -37.1817   24.8468 C   0  0  0  0  0  0
  -21.4123  -29.3015   22.3747 N   0  0  0  0  0  0
  -26.4318  -37.3801   23.9397 N   0  0  0  0  0  0
  -24.6631  -31.0800   22.0964 N   0  0  0  0  0  0
  -23.4185  -28.8194   23.3024 O   0  0  0  0  0  0
  -28.4532  -26.7894   20.1052 O   0  0  0  0  0  0
  -26.5605  -34.8934   22.4695 O   0  0  0  0  0  0
  -23.5319  -32.1420   23.7488 O   0  0  0  0  0  0
  -31.1312  -19.5875   21.1558 C   0  0  0  0  0  0
  -29.5760  -17.7653   21.6322 C   0  0  0  0  0  0
  -31.8194  -17.2773   20.8351 C   0  0  0  0  0  0
  -29.8672  -19.1546   21.6189 C   0  0  0  0  0  0
  -32.1038  -18.6514   20.7688 C   0  0  0  0  0  0
  -30.5395  -16.8075   21.2336 C   0  0  0  0  0  0
  -28.8152  -20.1379   22.0149 C   0  0  0  0  0  0
  -28.6303  -24.8720   22.4167 C   0  0  0  0  0  0
  -28.2399  -23.6579   23.2641 C   0  0  0  0  0  0
  -28.1855  -23.0503   20.9503 C   0  0  0  0  0  0
  -27.9678  -24.5670   21.0746 C   0  0  2  0  0  0
  -33.4469  -19.1245   20.2488 C   0  0  0  0  0  0
  -29.2604  -21.4938   22.5886 C   0  0  0  0  0  0
  -28.5157  -25.3802   19.8801 C   0  0  0  0  0  0
  -30.1719  -15.4192   21.2383 N   0  0  0  0  0  0
  -28.2015  -22.5035   22.3350 N   0  3  1  0  0  0
  -27.6065  -19.8875   21.9416 O   0  0  0  0  0  0
  -31.4451  -12.3029   19.1300 H   0  0  0  0  0  0
  -30.2435  -11.2523   19.8147 H   0  0  0  0  0  0
  -29.7117  -11.7906   17.4142 H   0  0  0  0  0  0
  -29.6767  -13.4948   17.7930 H   0  0  0  0  0  0
  -27.7957  -11.3301   18.7956 H   0  0  0  0  0  0
  -27.3598  -12.6825   17.7893 H   0  0  0  0  0  0
  -27.7070  -14.2659   19.5966 H   0  0  0  0  0  0
  -28.6578  -11.9576   21.3587 H   0  0  0  0  0  0
  -28.4788  -13.6061   21.8753 H   0  0  0  0  0  0
  -25.2757   -9.5697   22.4734 H   0  0  0  0  0  0
  -24.0013   -7.4639   22.7457 H   0  0  0  0  0  0
  -21.0839   -8.8747   19.8937 H   0  0  0  0  0  0
  -22.3674  -10.9658   19.6150 H   0  0  0  0  0  0
  -21.2007   -7.6137   23.9716 H   0  0  0  0  0  0
  -21.1487   -6.0509   25.9071 H   0  0  0  0  0  0
  -22.0601   -2.7606   23.2834 H   0  0  0  0  0  0
  -22.4109  -11.9873   22.4786 H   0  0  0  0  0  0
  -21.1106  -13.1232   22.2651 H   0  0  0  0  0  0
  -24.6632  -15.8481   20.5167 H   0  0  0  0  0  0
  -26.2852  -15.6262   20.0945 H   0  0  0  0  0  0
  -26.7089  -32.5565   23.1130 H   0  0  0  0  0  0
  -25.0018  -33.9794   25.0441 H   0  0  0  0  0  0
  -22.6870  -31.3059   21.4075 H   0  0  0  0  0  0
  -23.3758  -35.9657   23.3327 H   0  0  0  0  0  0
  -24.3588  -36.8909   22.2049 H   0  0  0  0  0  0
  -23.7250  -37.6530   23.6635 H   0  0  0  0  0  0
  -26.0167  -31.6084   20.5792 H   0  0  0  0  0  0
  -26.8163  -30.9109   21.9581 H   0  0  0  0  0  0
  -28.0958  -29.1379   21.1416 H   0  0  0  0  0  0
  -26.0554  -25.9686   19.0261 H   0  0  0  0  0  0
  -23.9814  -27.2804   19.0511 H   0  0  0  0  0  0
  -23.7113  -30.5913   19.4016 H   0  0  0  0  0  0
  -22.7302  -29.2379   19.8713 H   0  0  0  0  0  0
  -25.1305  -36.1997   25.0826 H   0  0  0  0  0  0
  -20.9944  -28.3195   24.1479 H   0  0  0  0  0  0
  -20.5658  -26.2231   23.3599 H   0  0  0  0  0  0
  -21.6622  -26.7446   22.1211 H   0  0  0  0  0  0
  -19.6893  -25.6309   21.1237 H   0  0  0  0  0  0
  -19.6698  -27.3210   20.6754 H   0  0  0  0  0  0
  -17.4180  -26.6696   21.4036 H   0  0  0  0  0  0
  -18.0317  -26.0087   22.9029 H   0  0  0  0  0  0
  -19.7905  -30.7265   24.2303 H   0  0  0  0  0  0
  -17.4989  -31.6271   24.5163 H   0  0  0  0  0  0
  -15.5333  -30.2999   23.7632 H   0  0  0  0  0  0
  -15.8669  -28.0858   22.7009 H   0  0  0  0  0  0
  -24.5898  -30.7005   25.7717 H   0  0  0  0  0  0
  -24.8820  -32.2808   26.4853 H   0  0  0  0  0  0
  -25.8035  -30.8844   27.0174 H   0  0  0  0  0  0
  -26.2768  -29.6844   24.1072 H   0  0  0  0  0  0
  -27.4102  -29.7293   25.4406 H   0  0  0  0  0  0
  -27.8573  -30.4427   23.9067 H   0  0  0  0  0  0
  -27.2716  -33.3617   26.2012 H   0  0  0  0  0  0
  -28.3844  -32.6820   25.0227 H   0  0  0  0  0  0
  -28.0715  -31.8390   26.5320 H   0  0  0  0  0  0
  -28.2626  -38.0101   24.7515 H   0  0  0  0  0  0
  -28.1083  -36.2637   24.6313 H   0  0  0  0  0  0
  -27.2304  -37.1481   25.8868 H   0  0  0  0  0  0
  -20.9258  -29.8753   21.7002 H   0  0  0  0  0  0
  -26.0219  -38.2893   24.1375 H   0  0  0  0  0  0
  -31.3781  -20.6352   21.0656 H   0  0  0  0  0  0
  -28.5929  -17.4376   21.9441 H   0  0  0  0  0  0
  -32.6169  -16.6134   20.5426 H   0  0  0  0  0  0
  -29.7162  -24.9180   22.3101 H   0  0  0  0  0  0
  -28.2961  -25.8157   22.8487 H   0  0  0  0  0  0
  -27.2340  -23.8018   23.6618 H   0  0  0  0  0  0
  -28.9006  -23.5171   24.1210 H   0  0  0  0  0  0
  -29.1414  -22.8574   20.4593 H   0  0  0  0  0  0
  -27.4097  -22.5802   20.3455 H   0  0  0  0  0  0
  -26.8973  -24.7500   21.1759 H   0  0  0  0  0  0
  -34.2007  -18.3399   20.3170 H   0  0  0  0  0  0
  -33.8073  -19.9834   20.8151 H   0  0  0  0  0  0
  -33.3584  -19.4168   19.2022 H   0  0  0  0  0  0
  -30.2153  -21.8433   22.2039 H   0  0  0  0  0  0
  -29.3893  -21.3515   23.6613 H   0  0  0  0  0  0
  -28.0354  -25.0973   18.9430 H   0  0  0  0  0  0
  -29.5705  -25.1354   19.7450 H   0  0  0  0  0  0
  -29.2725  -15.1950   21.6370 H   0  0  0  0  0  0
  -27.3354  -22.0016   22.4868 H   0  0  0  0  0  0
  1 25  1  0  0  0
  1 30  2  0  0  0
  1 85  1  0  0  0
  2  3  1  0  0  0
  2 25  1  0  0  0
  2 88  1  0  0  0
  2 89  1  0  0  0
  3  4  1  0  0  0
  3 90  1  0  0  0
  3 91  1  0  0  0
  4  5  1  0  0  0
  4 92  1  0  0  0
  4 93  1  0  0  0
  5  6  1  0  0  0
  5 26  1  0  0  0
  5 94  1  0  0  0
  6 25  1  0  0  0
  6 95  1  0  0  0
  6 96  1  0  0  0
  7  8  2  0  0  0
  7 26  1  0  0  0
  7 29  1  0  0  0
  8  9  1  0  0  0
  8 22  1  0  0  0
  9 10  1  0  0  0
  9 27  2  0  0  0
 10 11  2  0  0  0
 10 15  1  0  0  0
 11 12  1  0  0  0
 11 97  1  0  0  0
 12 13  2  0  0  0
 12 98  1  0  0  0
 13 14  1  0  0  0
 13 31  1  0  0  0
 14 15  2  0  0  0
 14 99  1  0  0  0
 15100  1  0  0  0
 16 17  2  0  0  0
 16 21  1  0  0  0
 16 31  1  0  0  0
 17 18  1  0  0  0
 17101  1  0  0  0
 18 19  2  0  0  0
 18102  1  0  0  0
 19 20  1  0  0  0
 19 24  1  0  0  0
 20 21  2  0  0  0
 20103  1  0  0  0
 21 23  1  0  0  0
 22 28  1  0  0  0
 22 32  2  0  0  0
 26 27  1  0  0  0
 28104  1  0  0  0
 28105  1  0  0  0
 29106  1  0  0  0
 29107  1  0  0  0
 33 34  1  0  0  0
 33 66  1  0  0  0
 33 70  2  0  0  0
 34 36  1  0  0  0
 34 59  1  0  0  0
 34108  1  0  0  0
 35 44  2  0  0  0
 35 45  1  0  0  0
 35 68  1  0  0  0
 36 56  1  0  0  0
 36109  1  0  0  0
 37 39  1  0  0  0
 37 47  1  0  0  0
 37 66  1  0  0  0
 37110  1  0  0  0
 38 43  2  0  0  0
 38 46  1  0  0  0
 38 47  1  0  0  0
 39 64  1  0  0  0
 39 67  2  0  0  0
 40 52  1  0  0  0
 40 53  2  0  0  0
 40 58  1  0  0  0
 41111  1  0  0  0
 41112  1  0  0  0
 41113  1  0  0  0
 41 48  1  0  0  0
 42 43  1  0  0  0
 42 66  1  0  0  0
 42114  1  0  0  0
 42115  1  0  0  0
 43 44  1  0  0  0
 44116  1  0  0  0
 45 46  2  0  0  0
 45117  1  0  0  0
 46118  1  0  0  0
 47119  1  0  0  0
 47120  1  0  0  0
 48 56  1  0  0  0
 48 65  1  0  0  0
 48121  1  0  0  0
 49 50  1  0  0  0
 49 53  1  0  0  0
 49 64  1  0  0  0
 49122  1  0  0  0
 50 51  1  0  0  0
 50123  1  0  0  0
 50124  1  0  0  0
 51 52  1  0  0  0
 51125  1  0  0  0
 51126  1  0  0  0
 52127  1  0  0  0
 52128  1  0  0  0
 53 54  1  0  0  0
 54 55  2  0  0  0
 54129  1  0  0  0
 55 57  1  0  0  0
 55130  1  0  0  0
 56 69  2  0  0  0
 57 58  2  0  0  0
 57131  1  0  0  0
 58132  1  0  0  0
 59 60  1  0  0  0
 59 61  1  0  0  0
 59 62  1  0  0  0
 60133  1  0  0  0
 60134  1  0  0  0
 60135  1  0  0  0
 61136  1  0  0  0
 61137  1  0  0  0
 61138  1  0  0  0
 62139  1  0  0  0
 62140  1  0  0  0
 62141  1  0  0  0
 63 65  1  0  0  0
 63142  1  0  0  0
 63143  1  0  0  0
 63144  1  0  0  0
 64145  1  0  0  0
 65146  1  0  0  0
 68 84  1  0  0  0
 71 74  2  0  0  0
 71 75  1  0  0  0
 71147  1  0  0  0
 72 74  1  0  0  0
 72 76  2  0  0  0
 72148  1  0  0  0
 73 75  2  0  0  0
 73 76  1  0  0  0
 73149  1  0  0  0
 74 77  1  0  0  0
 75 82  1  0  0  0
 76 85  1  0  0  0
 77 83  1  0  0  0
 77 87  2  0  0  0
 78 79  1  0  0  0
 78 81  1  0  0  0
 78150  1  0  0  0
 78151  1  0  0  0
 79 86  1  0  0  0
 79152  1  0  0  0
 79153  1  0  0  0
 80 81  1  0  0  0
 80 86  1  0  0  0
 80154  1  0  0  0
 80155  1  0  0  0
 81 84  1  0  0  0
 81156  1  0  0  0
 82157  1  0  0  0
 82158  1  0  0  0
 82159  1  0  0  0
 83160  1  0  0  0
 83161  1  0  0  0
 83 86  1  0  0  0
 84162  1  0  0  0
 84163  1  0  0  0
 85164  1  0  0  0
 86165  1  0  0  0
M  CHG  1  86   1
M  ISO  4   1 100  68 101  84 101  85 100
M  END
> <chiral flag>
0

> <version>
0

> <s_m_source_file>
/data/baiqing/PycharmProjects/Reinvent-master-3.2/result/LINK_invent/BTK/process_docking_weight1_custom_product_contain_oxygen_bond_distance_aromatic_linkinvent_7_9_3/rearranged_h_0105.sdf

> <i_m_source_file_index>
58

> <r_mmod_Potential_Energy-OPLS-2005>
-153.580505371094

> <r_mmod_Stretch_Energy-OPLS-2005>
36.6917877197266

> <r_mmod_Bend_Energy-OPLS-2005>
131.777297973633

> <r_mmod_Torsional_Energy-OPLS-2005>
290.357421875

> <r_mmod_Improper_Torsional_Energy-OPLS-2005>
3.0952775478363

> <r_mmod_Van_der_Waal_Energy-OPLS-2005>
165.826370239258

> <r_mmod_Electrostatic_Energy-OPLS-2005>
-340.193664550781

> <r_mmod_Solvation_Energy-OPLS-2005>
-453.263610839844

> <b_mmod_Minimization_Converged-OPLS-2005>
0

> <r_mmod_RMS_Derivative-OPLS-2005>
2.07950019836426

$$$$
58
                    3D
 Structure written by MMmdl.
158167  0  0  1  0            999 V2000
  -30.6807  -14.5666   20.5929 C   0  0  0  0  0  0
  -30.4390  -12.3725   19.4455 C   0  0  0  0  0  0
  -29.5058  -12.5283   18.2245 C   0  0  0  0  0  0
  -28.0297  -12.3616   18.6352 C   0  0  0  0  0  0
  -27.6608  -13.2154   19.8759 C   0  0  2  0  0  0
  -28.7039  -13.0302   21.0045 C   0  0  0  0  0  0
  -25.2465  -13.8108   20.5539 C   0  0  0  0  0  0
  -24.1797  -13.0381   20.9201 C   0  0  0  0  0  0
  -24.6409  -11.6876   20.8782 C   0  0  0  0  0  0
  -23.9074  -10.4271   21.0433 C   0  0  0  0  0  0
  -24.3621   -9.4186   21.9206 C   0  0  0  0  0  0
  -23.6296   -8.2223   22.0757 C   0  0  0  0  0  0
  -22.4278   -8.0265   21.3546 C   0  0  0  0  0  0
  -21.9915   -9.0243   20.4646 C   0  0  0  0  0  0
  -22.7247  -10.2124   20.3076 C   0  0  0  0  0  0
  -21.6846   -6.0735   22.5286 C   0  0  0  0  0  0
  -21.4010   -6.5638   23.8218 C   0  0  0  0  0  0
  -21.3661   -5.6790   24.9180 C   0  0  0  0  0  0
  -21.6049   -4.3057   24.7227 C   0  0  0  0  0  0
  -21.8820   -3.8148   23.4349 C   0  0  0  0  0  0
  -21.9190   -4.6965   22.3407 C   0  0  0  0  0  0
  -22.7818  -13.5176   21.1861 C   0  0  0  0  0  0
  -22.1660   -4.2152   21.0983 F   0  0  0  0  0  0
  -21.5633   -3.4538   25.7744 F   0  0  0  0  0  0
  -30.0390  -13.3614   20.4666 N   0  0  0  0  0  0
  -26.3000  -12.9347   20.3353 N   0  0  0  0  0  0
  -25.9347  -11.6502   20.5829 N   0  0  0  0  0  0
  -22.0463  -12.8191   22.0440 N   0  0  0  0  0  0
  -25.3895  -15.1784   20.3604 N   0  0  0  0  0  0
  -31.7585  -14.7987   20.0374 O   0  0  0  0  0  0
  -21.6632   -6.8870   21.4243 O   0  0  0  0  0  0
  -22.3501  -14.5476   20.6695 O   0  0  0  0  0  0
  -24.6200  -31.8635   23.2058 C   0  0  0  0  0  0
  -25.9064  -32.4808   23.8371 C   0  0  1  0  0  0
  -27.2397  -27.3734   20.1178 C   0  0  0  0  0  0
  -25.5893  -33.8609   24.2296 N   0  0  0  0  0  0
  -23.4127  -30.4843   21.5473 C   0  0  2  0  0  0
  -24.8631  -28.9438   20.1165 C   0  0  0  0  0  0
  -22.7446  -29.4630   22.4970 C   0  0  0  0  0  0
  -18.0274  -28.1384   22.8489 C   0  0  0  0  0  0
  -24.1487  -36.7310   23.2637 C   0  0  0  0  0  0
  -25.9479  -30.8118   21.3691 C   0  0  0  0  0  0
  -26.0270  -29.4422   20.7151 C   0  0  0  0  0  0
  -27.2190  -28.6682   20.7048 C   0  0  0  0  0  0
  -26.0559  -26.9124   19.4979 C   0  0  0  0  0  0
  -24.8762  -27.6818   19.5002 C   0  0  0  0  0  0
  -23.6258  -29.8150   20.1637 C   0  0  0  0  0  0
  -25.4112  -36.3105   24.0329 C   0  0  1  0  0  0
  -20.5870  -28.3672   23.1307 C   0  0  2  0  0  0
  -20.6764  -26.9401   22.5416 C   0  0  0  0  0  0
  -19.5745  -26.6385   21.5213 C   0  0  0  0  0  0
  -18.1922  -26.7929   22.1622 C   0  0  0  0  0  0
  -19.1524  -28.8846   23.2893 C   0  0  0  0  0  0
  -18.9451  -30.1452   23.8903 C   0  0  0  0  0  0
  -17.6452  -30.6587   24.0564 C   0  0  0  0  0  0
  -25.9041  -34.9472   23.5115 C   0  0  0  0  0  0
  -16.5344  -29.9088   23.6330 C   0  0  0  0  0  0
  -16.7261  -28.6508   23.0347 C   0  0  0  0  0  0
  -26.4463  -31.6611   25.0727 C   0  0  0  0  0  0
  -25.3712  -31.3740   26.1465 C   0  0  0  0  0  0
  -27.0294  -30.3038   24.6156 C   0  0  0  0  0  0
  -27.6032  -32.4337   25.7489 C   0  0  0  0  0  0
  -27.5584  -37.1805   24.8458 C   0  0  0  0  0  0
  -21.4166  -29.3030   22.3712 N   0  0  0  0  0  0
  -26.4293  -37.3793   23.9405 N   0  0  0  0  0  0
  -24.6783  -31.0685   22.0988 N   0  0  0  0  0  0
  -23.4189  -28.8168   23.3030 O   0  0  0  0  0  0
  -28.3880  -26.5841   20.1282 O   0  0  0  0  0  0
  -26.5617  -34.8930   22.4684 O   0  0  0  0  0  0
  -23.5372  -32.1404   23.7412 O   0  0  0  0  0  0
  -27.6386  -18.2267   20.6905 C   0  0  0  0  0  0
  -28.4306  -19.3844   20.6105 C   0  0  0  0  0  0
  -28.2318  -16.9736   20.9248 C   0  0  0  0  0  0
  -30.4265  -18.0087   20.9606 C   0  0  0  0  0  0
  -29.8288  -19.3050   20.7700 C   0  0  0  0  0  0
  -29.6262  -16.8218   21.0329 C   0  0  0  0  0  0
  -29.5306  -22.9067   21.0897 C   0  0  0  0  0  0
  -29.7128  -23.7844   18.8882 C   0  0  0  0  0  0
  -30.3770  -22.3953   19.0048 C   0  0  0  0  0  0
  -29.4876  -24.2605   20.3292 C   0  0  1  0  0  0
  -30.6607  -20.6151   20.8187 C   0  0  0  0  0  0
  -28.2349  -25.1885   20.5454 C   0  0  0  0  0  0
  -30.0634  -21.9066   20.3444 N   0  0  0  0  0  0
  -30.0714  -15.4887   21.3792 N   0  0  0  0  0  0
  -29.1856  -22.7992   22.2691 O   0  0  0  0  0  0
  -31.4806  -12.4917   19.1414 H   0  0  0  0  0  0
  -30.3674  -11.3648   19.8565 H   0  0  0  0  0  0
  -29.7650  -11.8000   17.4547 H   0  0  0  0  0  0
  -29.6523  -13.5122   17.7757 H   0  0  0  0  0  0
  -27.8625  -11.3052   18.8508 H   0  0  0  0  0  0
  -27.3743  -12.6081   17.7986 H   0  0  0  0  0  0
  -27.6928  -14.2580   19.5588 H   0  0  0  0  0  0
  -28.6980  -11.9975   21.3567 H   0  0  0  0  0  0
  -28.4347  -13.6307   21.8739 H   0  0  0  0  0  0
  -25.2762   -9.5659   22.4780 H   0  0  0  0  0  0
  -24.0011   -7.4602   22.7463 H   0  0  0  0  0  0
  -21.0854   -8.8753   19.8938 H   0  0  0  0  0  0
  -22.3706  -10.9661   19.6182 H   0  0  0  0  0  0
  -21.1996   -7.6147   23.9724 H   0  0  0  0  0  0
  -21.1485   -6.0521   25.9084 H   0  0  0  0  0  0
  -22.0598   -2.7612   23.2850 H   0  0  0  0  0  0
  -22.4082  -11.9865   22.4853 H   0  0  0  0  0  0
  -21.1077  -13.1216   22.2630 H   0  0  0  0  0  0
  -24.5837  -15.7934   20.3982 H   0  0  0  0  0  0
  -26.1802  -15.5933   19.8854 H   0  0  0  0  0  0
  -26.7139  -32.5500   23.1132 H   0  0  0  0  0  0
  -25.0013  -33.9768   25.0418 H   0  0  0  0  0  0
  -22.7035  -31.3022   21.4036 H   0  0  0  0  0  0
  -23.3755  -35.9636   23.3300 H   0  0  0  0  0  0
  -24.3574  -36.8934   22.2051 H   0  0  0  0  0  0
  -23.7241  -37.6512   23.6659 H   0  0  0  0  0  0
  -26.0705  -31.5776   20.6020 H   0  0  0  0  0  0
  -26.8307  -30.8619   21.9947 H   0  0  0  0  0  0
  -28.1171  -29.0505   21.1698 H   0  0  0  0  0  0
  -26.0306  -25.9556   18.9978 H   0  0  0  0  0  0
  -23.9849  -27.2965   19.0245 H   0  0  0  0  0  0
  -23.7363  -30.5890   19.4033 H   0  0  0  0  0  0
  -22.7495  -29.2355   19.8672 H   0  0  0  0  0  0
  -25.1295  -36.1960   25.0822 H   0  0  0  0  0  0
  -20.9952  -28.3238   24.1432 H   0  0  0  0  0  0
  -20.5665  -26.2275   23.3607 H   0  0  0  0  0  0
  -21.6636  -26.7435   22.1208 H   0  0  0  0  0  0
  -19.6905  -25.6296   21.1243 H   0  0  0  0  0  0
  -19.6698  -27.3199   20.6749 H   0  0  0  0  0  0
  -17.4191  -26.6675   21.4026 H   0  0  0  0  0  0
  -18.0321  -26.0073   22.9021 H   0  0  0  0  0  0
  -19.7923  -30.7268   24.2276 H   0  0  0  0  0  0
  -17.5004  -31.6270   24.5161 H   0  0  0  0  0  0
  -15.5345  -30.2992   23.7654 H   0  0  0  0  0  0
  -15.8661  -28.0836   22.7052 H   0  0  0  0  0  0
  -24.5859  -30.7124   25.7789 H   0  0  0  0  0  0
  -24.8930  -32.2906   26.4928 H   0  0  0  0  0  0
  -25.8037  -30.8877   27.0219 H   0  0  0  0  0  0
  -26.2859  -29.6816   24.1159 H   0  0  0  0  0  0
  -27.3974  -29.7269   25.4653 H   0  0  0  0  0  0
  -27.8736  -30.4329   23.9378 H   0  0  0  0  0  0
  -27.2639  -33.3612   26.2110 H   0  0  0  0  0  0
  -28.3811  -32.6947   25.0305 H   0  0  0  0  0  0
  -28.0737  -31.8445   26.5370 H   0  0  0  0  0  0
  -28.2596  -38.0108   24.7517 H   0  0  0  0  0  0
  -28.1087  -36.2642   24.6267 H   0  0  0  0  0  0
  -27.2301  -37.1437   25.8859 H   0  0  0  0  0  0
  -20.9338  -29.8754   21.6934 H   0  0  0  0  0  0
  -26.0185  -38.2867   24.1423 H   0  0  0  0  0  0
  -26.5634  -18.3044   20.6109 H   0  0  0  0  0  0
  -27.9448  -20.3397   20.4700 H   0  0  0  0  0  0
  -27.5983  -16.1138   21.0556 H   0  0  0  0  0  0
  -31.4959  -17.9353   21.1041 H   0  0  0  0  0  0
  -28.7571  -23.6929   18.3698 H   0  0  0  0  0  0
  -30.3257  -24.4830   18.3171 H   0  0  0  0  0  0
  -31.4596  -22.4834   18.8998 H   0  0  0  0  0  0
  -30.0215  -21.7100   18.2349 H   0  0  0  0  0  0
  -30.3697  -24.8058   20.6671 H   0  0  0  0  0  0
  -31.5822  -20.4426   20.2616 H   0  0  0  0  0  0
  -30.9787  -20.7519   21.8537 H   0  0  0  0  0  0
  -27.9937  -25.2072   21.6093 H   0  0  0  0  0  0
  -27.3843  -24.7089   20.0648 H   0  0  0  0  0  0
  -29.3860  -15.0093   21.9428 H   0  0  0  0  0  0
  1 25  1  0  0  0
  1 30  2  0  0  0
  1 84  1  0  0  0
  2  3  1  0  0  0
  2 25  1  0  0  0
  2 86  1  0  0  0
  2 87  1  0  0  0
  3  4  1  0  0  0
  3 88  1  0  0  0
  3 89  1  0  0  0
  4  5  1  0  0  0
  4 90  1  0  0  0
  4 91  1  0  0  0
  5  6  1  0  0  0
  5 26  1  0  0  0
  5 92  1  0  0  0
  6 25  1  0  0  0
  6 93  1  0  0  0
  6 94  1  0  0  0
  7  8  2  0  0  0
  7 26  1  0  0  0
  7 29  1  0  0  0
  8  9  1  0  0  0
  8 22  1  0  0  0
  9 10  1  0  0  0
  9 27  2  0  0  0
 10 11  2  0  0  0
 10 15  1  0  0  0
 11 12  1  0  0  0
 11 95  1  0  0  0
 12 13  2  0  0  0
 12 96  1  0  0  0
 13 14  1  0  0  0
 13 31  1  0  0  0
 14 15  2  0  0  0
 14 97  1  0  0  0
 15 98  1  0  0  0
 16 17  2  0  0  0
 16 21  1  0  0  0
 16 31  1  0  0  0
 17 18  1  0  0  0
 17 99  1  0  0  0
 18 19  2  0  0  0
 18100  1  0  0  0
 19 20  1  0  0  0
 19 24  1  0  0  0
 20 21  2  0  0  0
 20101  1  0  0  0
 21 23  1  0  0  0
 22 28  1  0  0  0
 22 32  2  0  0  0
 26 27  1  0  0  0
 28102  1  0  0  0
 28103  1  0  0  0
 29104  1  0  0  0
 29105  1  0  0  0
 33 34  1  0  0  0
 33 66  1  0  0  0
 33 70  2  0  0  0
 34 36  1  0  0  0
 34 59  1  0  0  0
 34106  1  0  0  0
 35 44  2  0  0  0
 35 45  1  0  0  0
 35 68  1  0  0  0
 36 56  1  0  0  0
 36107  1  0  0  0
 37 39  1  0  0  0
 37 47  1  0  0  0
 37 66  1  0  0  0
 37108  1  0  0  0
 38 43  2  0  0  0
 38 46  1  0  0  0
 38 47  1  0  0  0
 39 64  1  0  0  0
 39 67  2  0  0  0
 40 52  1  0  0  0
 40 53  2  0  0  0
 40 58  1  0  0  0
 41109  1  0  0  0
 41110  1  0  0  0
 41111  1  0  0  0
 41 48  1  0  0  0
 42 43  1  0  0  0
 42 66  1  0  0  0
 42112  1  0  0  0
 42113  1  0  0  0
 43 44  1  0  0  0
 44114  1  0  0  0
 45 46  2  0  0  0
 45115  1  0  0  0
 46116  1  0  0  0
 47117  1  0  0  0
 47118  1  0  0  0
 48 56  1  0  0  0
 48 65  1  0  0  0
 48119  1  0  0  0
 49 50  1  0  0  0
 49 53  1  0  0  0
 49 64  1  0  0  0
 49120  1  0  0  0
 50 51  1  0  0  0
 50121  1  0  0  0
 50122  1  0  0  0
 51 52  1  0  0  0
 51123  1  0  0  0
 51124  1  0  0  0
 52125  1  0  0  0
 52126  1  0  0  0
 53 54  1  0  0  0
 54 55  2  0  0  0
 54127  1  0  0  0
 55 57  1  0  0  0
 55128  1  0  0  0
 56 69  2  0  0  0
 57 58  2  0  0  0
 57129  1  0  0  0
 58130  1  0  0  0
 59 60  1  0  0  0
 59 61  1  0  0  0
 59 62  1  0  0  0
 60131  1  0  0  0
 60132  1  0  0  0
 60133  1  0  0  0
 61134  1  0  0  0
 61135  1  0  0  0
 61136  1  0  0  0
 62137  1  0  0  0
 62138  1  0  0  0
 62139  1  0  0  0
 63 65  1  0  0  0
 63140  1  0  0  0
 63141  1  0  0  0
 63142  1  0  0  0
 64143  1  0  0  0
 65144  1  0  0  0
 68 82  1  0  0  0
 71 72  2  0  0  0
 71 73  1  0  0  0
 71145  1  0  0  0
 72 75  1  0  0  0
 72146  1  0  0  0
 73 76  2  0  0  0
 73147  1  0  0  0
 74 75  2  0  0  0
 74 76  1  0  0  0
 74148  1  0  0  0
 75 81  1  0  0  0
 76 84  1  0  0  0
 77 80  1  0  0  0
 77 83  1  0  0  0
 77 85  2  0  0  0
 78 79  1  0  0  0
 78 80  1  0  0  0
 78149  1  0  0  0
 78150  1  0  0  0
 79 83  1  0  0  0
 79151  1  0  0  0
 79152  1  0  0  0
 80 82  1  0  0  0
 80153  1  0  0  0
 81 83  1  0  0  0
 81154  1  0  0  0
 81155  1  0  0  0
 82156  1  0  0  0
 82157  1  0  0  0
 84158  1  0  0  0
M  ISO  4   1 100  68 101  82 101  84 100
M  END
> <chiral flag>
0

> <version>
0

> <s_m_source_file>
/data/baiqing/PycharmProjects/Reinvent-master-3.2/result/LINK_invent/BTK/process_docking_weight1_custom_product_contain_oxygen_bond_distance_aromatic_linkinvent_7_9_3/rearranged_h_0105.sdf

> <i_m_source_file_index>
59

> <r_mmod_Potential_Energy-OPLS-2005>
60.4173164367676

> <r_mmod_Stretch_Energy-OPLS-2005>
59.2612533569336

> <r_mmod_Bend_Energy-OPLS-2005>
148.051193237305

> <r_mmod_Torsional_Energy-OPLS-2005>
279.355560302734

> <r_mmod_Improper_Torsional_Energy-OPLS-2005>
9.04409408569336

> <r_mmod_Van_der_Waal_Energy-OPLS-2005>
134.731964111328

> <r_mmod_Electrostatic_Energy-OPLS-2005>
-370.266754150391

> <r_mmod_Solvation_Energy-OPLS-2005>
-226.57649230957

> <b_mmod_Minimization_Converged-OPLS-2005>
0

> <r_mmod_RMS_Derivative-OPLS-2005>
1.14451444149017

$$$$
59
                    3D
 Structure written by MMmdl.
159168  0  0  1  0            999 V2000
  -30.7090  -14.5411   20.5817 C   0  0  0  0  0  0
  -30.4214  -12.3553   19.4455 C   0  0  0  0  0  0
  -29.4987  -12.5082   18.2193 C   0  0  0  0  0  0
  -28.0216  -12.3575   18.6302 C   0  0  0  0  0  0
  -27.6544  -13.2193   19.8689 C   0  0  2  0  0  0
  -28.6963  -13.0588   20.9992 C   0  0  0  0  0  0
  -25.2505  -13.8126   20.5638 C   0  0  0  0  0  0
  -24.1798  -13.0402   20.9197 C   0  0  0  0  0  0
  -24.6382  -11.6884   20.8743 C   0  0  0  0  0  0
  -23.9059  -10.4274   21.0404 C   0  0  0  0  0  0
  -24.3612   -9.4189   21.9186 C   0  0  0  0  0  0
  -23.6287   -8.2228   22.0753 C   0  0  0  0  0  0
  -22.4270   -8.0268   21.3542 C   0  0  0  0  0  0
  -21.9906   -9.0238   20.4641 C   0  0  0  0  0  0
  -22.7234  -10.2117   20.3048 C   0  0  0  0  0  0
  -21.6855   -6.0727   22.5279 C   0  0  0  0  0  0
  -21.4010   -6.5634   23.8211 C   0  0  0  0  0  0
  -21.3654   -5.6783   24.9175 C   0  0  0  0  0  0
  -21.6047   -4.3050   24.7226 C   0  0  0  0  0  0
  -21.8823   -3.8139   23.4347 C   0  0  0  0  0  0
  -21.9192   -4.6951   22.3402 C   0  0  0  0  0  0
  -22.7819  -13.5200   21.1855 C   0  0  0  0  0  0
  -22.1665   -4.2133   21.0981 F   0  0  0  0  0  0
  -21.5625   -3.4532   25.7742 F   0  0  0  0  0  0
  -30.0208  -13.3699   20.4393 N   0  0  0  0  0  0
  -26.2977  -12.9352   20.3334 N   0  0  0  0  0  0
  -25.9327  -11.6503   20.5792 N   0  0  0  0  0  0
  -22.0463  -12.8196   22.0411 N   0  0  0  0  0  0
  -25.4099  -15.1816   20.3928 N   0  0  0  0  0  0
  -31.8391  -14.6870   20.1090 O   0  0  0  0  0  0
  -21.6638   -6.8865   21.4241 O   0  0  0  0  0  0
  -22.3513  -14.5513   20.6707 O   0  0  0  0  0  0
  -24.6194  -31.8656   23.2058 C   0  0  0  0  0  0
  -25.9053  -32.4829   23.8362 C   0  0  1  0  0  0
  -27.2427  -27.3797   20.0974 C   0  0  0  0  0  0
  -25.5903  -33.8625   24.2296 N   0  0  0  0  0  0
  -23.4124  -30.4869   21.5473 C   0  0  2  0  0  0
  -24.8587  -28.9496   20.1098 C   0  0  0  0  0  0
  -22.7455  -29.4641   22.4962 C   0  0  0  0  0  0
  -18.0282  -28.1391   22.8526 C   0  0  0  0  0  0
  -24.1474  -36.7300   23.2644 C   0  0  0  0  0  0
  -25.9456  -30.8139   21.3648 C   0  0  0  0  0  0
  -26.0224  -29.4431   20.7115 C   0  0  0  0  0  0
  -27.2098  -28.6648   20.7060 C   0  0  0  0  0  0
  -26.0464  -26.9141   19.4967 C   0  0  0  0  0  0
  -24.8703  -27.6857   19.4995 C   0  0  0  0  0  0
  -23.6227  -29.8216   20.1617 C   0  0  0  0  0  0
  -25.4105  -36.3126   24.0350 C   0  0  1  0  0  0
  -20.5892  -28.3676   23.1340 C   0  0  2  0  0  0
  -20.6770  -26.9408   22.5443 C   0  0  0  0  0  0
  -19.5753  -26.6399   21.5246 C   0  0  0  0  0  0
  -18.1926  -26.7947   22.1649 C   0  0  0  0  0  0
  -19.1541  -28.8845   23.2938 C   0  0  0  0  0  0
  -18.9456  -30.1445   23.8957 C   0  0  0  0  0  0
  -17.6462  -30.6605   24.0570 C   0  0  0  0  0  0
  -25.9039  -34.9494   23.5125 C   0  0  0  0  0  0
  -16.5355  -29.9111   23.6329 C   0  0  0  0  0  0
  -16.7272  -28.6517   23.0387 C   0  0  0  0  0  0
  -26.4457  -31.6629   25.0703 C   0  0  0  0  0  0
  -25.3712  -31.3765   26.1442 C   0  0  0  0  0  0
  -27.0256  -30.3070   24.6065 C   0  0  0  0  0  0
  -27.6021  -32.4350   25.7470 C   0  0  0  0  0  0
  -27.5572  -37.1824   24.8491 C   0  0  0  0  0  0
  -21.4174  -29.3033   22.3726 N   0  0  0  0  0  0
  -26.4303  -37.3801   23.9403 N   0  0  0  0  0  0
  -24.6782  -31.0704   22.0980 N   0  0  0  0  0  0
  -23.4213  -28.8173   23.3014 O   0  0  0  0  0  0
  -28.4021  -26.6060   20.1743 O   0  0  0  0  0  0
  -26.5597  -34.8950   22.4683 O   0  0  0  0  0  0
  -23.5365  -32.1407   23.7428 O   0  0  0  0  0  0
  -28.4580  -19.9176   20.7019 C   0  0  0  0  0  0
  -28.6935  -18.5057   20.8807 C   0  0  0  0  0  0
  -29.9914  -18.2063   21.2445 C   0  0  0  0  0  0
  -29.5434  -20.7247   20.9385 C   0  0  0  0  0  0
  -30.5469  -24.3604   20.7343 C   0  0  0  0  0  0
  -30.8645  -22.8909   21.0989 C   0  0  0  0  0  0
  -28.6229  -23.0180   20.2481 C   0  0  0  0  0  0
  -29.4160  -24.2349   19.7100 C   0  0  1  0  0  0
  -27.6096  -17.4924   20.6918 C   0  0  0  0  0  0
  -30.6938  -16.8778   21.5691 C   0  0  0  0  0  0
  -28.6615  -25.5321   19.2308 C   0  0  0  0  0  0
  -29.6289  -22.1443   20.8743 N   0  0  0  0  0  0
  -30.0723  -15.5789   21.1830 N   0  0  0  0  0  0
  -30.9073  -19.7096   21.3909 S   0  0  0  0  0  0
  -31.4662  -12.4517   19.1439 H   0  0  0  0  0  0
  -30.3293  -11.3561   19.8742 H   0  0  0  0  0  0
  -29.7539  -11.7644   17.4629 H   0  0  0  0  0  0
  -29.6570  -13.4840   17.7573 H   0  0  0  0  0  0
  -27.8459  -11.3032   18.8461 H   0  0  0  0  0  0
  -27.3698  -12.6055   17.7911 H   0  0  0  0  0  0
  -27.6804  -14.2594   19.5431 H   0  0  0  0  0  0
  -28.6896  -12.0382   21.3851 H   0  0  0  0  0  0
  -28.4453  -13.6976   21.8471 H   0  0  0  0  0  0
  -25.2755   -9.5674   22.4756 H   0  0  0  0  0  0
  -23.9994   -7.4623   22.7480 H   0  0  0  0  0  0
  -21.0833   -8.8751   19.8952 H   0  0  0  0  0  0
  -22.3689  -10.9649   19.6148 H   0  0  0  0  0  0
  -21.2000   -7.6136   23.9708 H   0  0  0  0  0  0
  -21.1476   -6.0516   25.9076 H   0  0  0  0  0  0
  -22.0605   -2.7596   23.2854 H   0  0  0  0  0  0
  -22.4071  -11.9849   22.4787 H   0  0  0  0  0  0
  -21.1074  -13.1220   22.2604 H   0  0  0  0  0  0
  -24.6300  -15.8246   20.4733 H   0  0  0  0  0  0
  -26.2420  -15.6110   20.0132 H   0  0  0  0  0  0
  -26.7117  -32.5501   23.1113 H   0  0  0  0  0  0
  -25.0104  -33.9785   25.0481 H   0  0  0  0  0  0
  -22.7024  -31.3043   21.4055 H   0  0  0  0  0  0
  -23.3749  -35.9628   23.3395 H   0  0  0  0  0  0
  -24.3565  -36.8809   22.2042 H   0  0  0  0  0  0
  -23.7221  -37.6527   23.6587 H   0  0  0  0  0  0
  -26.0578  -31.5759   20.5914 H   0  0  0  0  0  0
  -26.8353  -30.8722   21.9790 H   0  0  0  0  0  0
  -28.1040  -29.0415   21.1842 H   0  0  0  0  0  0
  -25.9665  -25.9355   19.0531 H   0  0  0  0  0  0
  -23.9763  -27.2917   19.0349 H   0  0  0  0  0  0
  -23.7316  -30.5977   19.4034 H   0  0  0  0  0  0
  -22.7440  -29.2445   19.8647 H   0  0  0  0  0  0
  -25.1297  -36.2001   25.0853 H   0  0  0  0  0  0
  -21.0006  -28.3217   24.1454 H   0  0  0  0  0  0
  -20.5696  -26.2276   23.3626 H   0  0  0  0  0  0
  -21.6635  -26.7469   22.1202 H   0  0  0  0  0  0
  -19.6925  -25.6317   21.1252 H   0  0  0  0  0  0
  -19.6688  -27.3228   20.6797 H   0  0  0  0  0  0
  -17.4206  -26.6752   21.4026 H   0  0  0  0  0  0
  -18.0284  -26.0055   22.9006 H   0  0  0  0  0  0
  -19.7921  -30.7254   24.2365 H   0  0  0  0  0  0
  -17.5009  -31.6295   24.5153 H   0  0  0  0  0  0
  -15.5350  -30.3036   23.7623 H   0  0  0  0  0  0
  -15.8674  -28.0839   22.7121 H   0  0  0  0  0  0
  -24.5895  -30.7100   25.7789 H   0  0  0  0  0  0
  -24.8883  -32.2928   26.4846 H   0  0  0  0  0  0
  -25.8046  -30.8971   27.0235 H   0  0  0  0  0  0
  -26.2784  -29.6880   24.1070 H   0  0  0  0  0  0
  -27.3986  -29.7243   25.4498 H   0  0  0  0  0  0
  -27.8654  -30.4399   23.9237 H   0  0  0  0  0  0
  -27.2648  -33.3665   26.2041 H   0  0  0  0  0  0
  -28.3832  -32.6908   25.0298 H   0  0  0  0  0  0
  -28.0687  -31.8485   26.5387 H   0  0  0  0  0  0
  -28.2675  -38.0036   24.7442 H   0  0  0  0  0  0
  -28.0978  -36.2571   24.6447 H   0  0  0  0  0  0
  -27.2286  -37.1639   25.8897 H   0  0  0  0  0  0
  -20.9323  -29.8744   21.6954 H   0  0  0  0  0  0
  -26.0209  -38.2905   24.1337 H   0  0  0  0  0  0
  -27.4854  -20.2910   20.4144 H   0  0  0  0  0  0
  -31.4158  -24.8932   20.3441 H   0  0  0  0  0  0
  -30.1962  -24.9020   21.6142 H   0  0  0  0  0  0
  -31.2100  -22.8001   22.1302 H   0  0  0  0  0  0
  -31.6507  -22.4986   20.4510 H   0  0  0  0  0  0
  -28.0825  -22.5119   19.4477 H   0  0  0  0  0  0
  -27.8987  -23.3348   21.0008 H   0  0  0  0  0  0
  -29.8921  -23.8632   18.7995 H   0  0  0  0  0  0
  -26.6402  -17.9675   20.5343 H   0  0  0  0  0  0
  -27.5128  -16.8481   21.5667 H   0  0  0  0  0  0
  -27.8047  -16.8637   19.8225 H   0  0  0  0  0  0
  -30.8428  -16.8302   22.6487 H   0  0  0  0  0  0
  -31.7040  -16.9335   21.1622 H   0  0  0  0  0  0
  -27.7984  -25.2091   18.6576 H   0  0  0  0  0  0
  -29.3031  -26.0020   18.4858 H   0  0  0  0  0  0
  -29.1432  -15.3932   21.5270 H   0  0  0  0  0  0
  1 25  1  0  0  0
  1 30  2  0  0  0
  1 83  1  0  0  0
  2  3  1  0  0  0
  2 25  1  0  0  0
  2 85  1  0  0  0
  2 86  1  0  0  0
  3  4  1  0  0  0
  3 87  1  0  0  0
  3 88  1  0  0  0
  4  5  1  0  0  0
  4 89  1  0  0  0
  4 90  1  0  0  0
  5  6  1  0  0  0
  5 26  1  0  0  0
  5 91  1  0  0  0
  6 25  1  0  0  0
  6 92  1  0  0  0
  6 93  1  0  0  0
  7  8  2  0  0  0
  7 26  1  0  0  0
  7 29  1  0  0  0
  8  9  1  0  0  0
  8 22  1  0  0  0
  9 10  1  0  0  0
  9 27  2  0  0  0
 10 11  2  0  0  0
 10 15  1  0  0  0
 11 12  1  0  0  0
 11 94  1  0  0  0
 12 13  2  0  0  0
 12 95  1  0  0  0
 13 14  1  0  0  0
 13 31  1  0  0  0
 14 15  2  0  0  0
 14 96  1  0  0  0
 15 97  1  0  0  0
 16 17  2  0  0  0
 16 21  1  0  0  0
 16 31  1  0  0  0
 17 18  1  0  0  0
 17 98  1  0  0  0
 18 19  2  0  0  0
 18 99  1  0  0  0
 19 20  1  0  0  0
 19 24  1  0  0  0
 20 21  2  0  0  0
 20100  1  0  0  0
 21 23  1  0  0  0
 22 28  1  0  0  0
 22 32  2  0  0  0
 26 27  1  0  0  0
 28101  1  0  0  0
 28102  1  0  0  0
 29103  1  0  0  0
 29104  1  0  0  0
 33 34  1  0  0  0
 33 66  1  0  0  0
 33 70  2  0  0  0
 34 36  1  0  0  0
 34 59  1  0  0  0
 34105  1  0  0  0
 35 44  2  0  0  0
 35 45  1  0  0  0
 35 68  1  0  0  0
 36 56  1  0  0  0
 36106  1  0  0  0
 37 39  1  0  0  0
 37 47  1  0  0  0
 37 66  1  0  0  0
 37107  1  0  0  0
 38 43  2  0  0  0
 38 46  1  0  0  0
 38 47  1  0  0  0
 39 64  1  0  0  0
 39 67  2  0  0  0
 40 52  1  0  0  0
 40 53  2  0  0  0
 40 58  1  0  0  0
 41108  1  0  0  0
 41109  1  0  0  0
 41110  1  0  0  0
 41 48  1  0  0  0
 42 43  1  0  0  0
 42 66  1  0  0  0
 42111  1  0  0  0
 42112  1  0  0  0
 43 44  1  0  0  0
 44113  1  0  0  0
 45 46  2  0  0  0
 45114  1  0  0  0
 46115  1  0  0  0
 47116  1  0  0  0
 47117  1  0  0  0
 48 56  1  0  0  0
 48 65  1  0  0  0
 48118  1  0  0  0
 49 50  1  0  0  0
 49 53  1  0  0  0
 49 64  1  0  0  0
 49119  1  0  0  0
 50 51  1  0  0  0
 50120  1  0  0  0
 50121  1  0  0  0
 51 52  1  0  0  0
 51122  1  0  0  0
 51123  1  0  0  0
 52124  1  0  0  0
 52125  1  0  0  0
 53 54  1  0  0  0
 54 55  2  0  0  0
 54126  1  0  0  0
 55 57  1  0  0  0
 55127  1  0  0  0
 56 69  2  0  0  0
 57 58  2  0  0  0
 57128  1  0  0  0
 58129  1  0  0  0
 59 60  1  0  0  0
 59 61  1  0  0  0
 59 62  1  0  0  0
 60130  1  0  0  0
 60131  1  0  0  0
 60132  1  0  0  0
 61133  1  0  0  0
 61134  1  0  0  0
 61135  1  0  0  0
 62136  1  0  0  0
 62137  1  0  0  0
 62138  1  0  0  0
 63 65  1  0  0  0
 63139  1  0  0  0
 63140  1  0  0  0
 63141  1  0  0  0
 64142  1  0  0  0
 65143  1  0  0  0
 68 81  1  0  0  0
 71 72  1  0  0  0
 71 74  2  0  0  0
 71144  1  0  0  0
 72 73  2  0  0  0
 72 79  1  0  0  0
 73 80  1  0  0  0
 73 84  1  0  0  0
 74 82  1  0  0  0
 74 84  1  0  0  0
 75 76  1  0  0  0
 75 78  1  0  0  0
 75145  1  0  0  0
 75146  1  0  0  0
 76 82  1  0  0  0
 76147  1  0  0  0
 76148  1  0  0  0
 77 78  1  0  0  0
 77 82  1  0  0  0
 77149  1  0  0  0
 77150  1  0  0  0
 78 81  1  0  0  0
 78151  1  0  0  0
 79152  1  0  0  0
 79153  1  0  0  0
 79154  1  0  0  0
 80 83  1  0  0  0
 80155  1  0  0  0
 80156  1  0  0  0
 81157  1  0  0  0
 81158  1  0  0  0
 83159  1  0  0  0
M  ISO  4   1 100  68 101  81 101  83 100
M  END
> <chiral flag>
0

> <version>
0

> <s_m_source_file>
/data/baiqing/PycharmProjects/Reinvent-master-3.2/result/LINK_invent/BTK/process_docking_weight1_custom_product_contain_oxygen_bond_distance_aromatic_linkinvent_7_9_3/rearranged_h_0105.sdf

> <i_m_source_file_index>
60

> <r_mmod_Potential_Energy-OPLS-2005>
23.1969547271729

> <r_mmod_Stretch_Energy-OPLS-2005>
50.9552764892578

> <r_mmod_Bend_Energy-OPLS-2005>
178.84098815918

> <r_mmod_Torsional_Energy-OPLS-2005>
250.136779785156

> <r_mmod_Improper_Torsional_Energy-OPLS-2005>
3.63712620735168

> <r_mmod_Van_der_Waal_Energy-OPLS-2005>
122.580856323242

> <r_mmod_Electrostatic_Energy-OPLS-2005>
-375.132934570312

> <r_mmod_Solvation_Energy-OPLS-2005>
-232.886108398438

> <b_mmod_Minimization_Converged-OPLS-2005>
0

> <r_mmod_RMS_Derivative-OPLS-2005>
2.61268138885498

$$$$
60
                    3D
 Structure written by MMmdl.
159167  0  0  1  0            999 V2000
  -30.7432  -14.4714   20.5828 C   0  0  0  0  0  0
  -30.4146  -12.3196   19.4170 C   0  0  0  0  0  0
  -29.4860  -12.4933   18.2014 C   0  0  0  0  0  0
  -28.0088  -12.3586   18.6203 C   0  0  0  0  0  0
  -27.6543  -13.2155   19.8675 C   0  0  2  0  0  0
  -28.7025  -13.0327   20.9886 C   0  0  0  0  0  0
  -25.2547  -13.8188   20.5715 C   0  0  0  0  0  0
  -24.1818  -13.0440   20.9224 C   0  0  0  0  0  0
  -24.6395  -11.6922   20.8778 C   0  0  0  0  0  0
  -23.9083  -10.4300   21.0428 C   0  0  0  0  0  0
  -24.3632   -9.4203   21.9194 C   0  0  0  0  0  0
  -23.6299   -8.2240   22.0757 C   0  0  0  0  0  0
  -22.4283   -8.0285   21.3547 C   0  0  0  0  0  0
  -21.9928   -9.0271   20.4656 C   0  0  0  0  0  0
  -22.7265  -10.2140   20.3072 C   0  0  0  0  0  0
  -21.6844   -6.0740   22.5284 C   0  0  0  0  0  0
  -21.4009   -6.5642   23.8217 C   0  0  0  0  0  0
  -21.3657   -5.6794   24.9183 C   0  0  0  0  0  0
  -21.6045   -4.3056   24.7230 C   0  0  0  0  0  0
  -21.8811   -3.8149   23.4348 C   0  0  0  0  0  0
  -21.9187   -4.6970   22.3404 C   0  0  0  0  0  0
  -22.7839  -13.5230   21.1859 C   0  0  0  0  0  0
  -22.1650   -4.2155   21.0980 F   0  0  0  0  0  0
  -21.5629   -3.4538   25.7737 F   0  0  0  0  0  0
  -30.0224  -13.3281   20.4142 N   0  0  0  0  0  0
  -26.2999  -12.9382   20.3382 N   0  0  0  0  0  0
  -25.9323  -11.6537   20.5809 N   0  0  0  0  0  0
  -22.0465  -12.8245   22.0417 N   0  0  0  0  0  0
  -25.4195  -15.1912   20.4081 N   0  0  0  0  0  0
  -31.9004  -14.5631   20.1616 O   0  0  0  0  0  0
  -21.6635   -6.8890   21.4249 O   0  0  0  0  0  0
  -22.3528  -14.5531   20.6683 O   0  0  0  0  0  0
  -24.6131  -31.8670   23.2092 C   0  0  0  0  0  0
  -25.9035  -32.4816   23.8380 C   0  0  1  0  0  0
  -27.2376  -27.4453   20.1026 C   0  0  0  0  0  0
  -25.5898  -33.8614   24.2318 N   0  0  0  0  0  0
  -23.4013  -30.4918   21.5489 C   0  0  2  0  0  0
  -24.8509  -28.9565   20.1151 C   0  0  0  0  0  0
  -22.7390  -29.4671   22.4975 C   0  0  0  0  0  0
  -18.0264  -28.1382   22.8492 C   0  0  0  0  0  0
  -24.1487  -36.7306   23.2642 C   0  0  0  0  0  0
  -25.9300  -30.8396   21.3592 C   0  0  0  0  0  0
  -26.0112  -29.4761   20.7047 C   0  0  0  0  0  0
  -27.2116  -28.7298   20.6906 C   0  0  0  0  0  0
  -26.0648  -26.9368   19.5066 C   0  0  0  0  0  0
  -24.8724  -27.6855   19.5136 C   0  0  0  0  0  0
  -23.6102  -29.8201   20.1649 C   0  0  0  0  0  0
  -25.4115  -36.3109   24.0335 C   0  0  1  0  0  0
  -20.5856  -28.3664   23.1303 C   0  0  2  0  0  0
  -20.6765  -26.9396   22.5415 C   0  0  0  0  0  0
  -19.5743  -26.6383   21.5210 C   0  0  0  0  0  0
  -18.1917  -26.7932   22.1617 C   0  0  0  0  0  0
  -19.1515  -28.8841   23.2900 C   0  0  0  0  0  0
  -18.9449  -30.1451   23.8913 C   0  0  0  0  0  0
  -17.6452  -30.6591   24.0573 C   0  0  0  0  0  0
  -25.9037  -34.9471   23.5123 C   0  0  0  0  0  0
  -16.5342  -29.9094   23.6333 C   0  0  0  0  0  0
  -16.7255  -28.6509   23.0353 C   0  0  0  0  0  0
  -26.4480  -31.6606   25.0714 C   0  0  0  0  0  0
  -25.3755  -31.3721   26.1470 C   0  0  0  0  0  0
  -27.0326  -30.3048   24.6107 C   0  0  0  0  0  0
  -27.6047  -32.4337   25.7485 C   0  0  0  0  0  0
  -27.5570  -37.1827   24.8473 C   0  0  0  0  0  0
  -21.4119  -29.3032   22.3708 N   0  0  0  0  0  0
  -26.4299  -37.3794   23.9402 N   0  0  0  0  0  0
  -24.6666  -31.0786   22.0983 N   0  0  0  0  0  0
  -23.4166  -28.8200   23.3001 O   0  0  0  0  0  0
  -28.3860  -26.6852   20.1167 O   0  0  0  0  0  0
  -26.5587  -34.8921   22.4675 O   0  0  0  0  0  0
  -23.5331  -32.1386   23.7519 O   0  0  0  0  0  0
  -28.5903  -18.1155   20.7674 C   0  0  0  0  0  0
  -30.6522  -19.2395   21.3785 C   0  0  0  0  0  0
  -29.9316  -18.0296   21.2051 C   0  0  0  0  0  0
  -28.0192  -19.3721   20.4647 C   0  0  0  0  0  0
  -30.0883  -20.5104   21.0919 C   0  0  0  0  0  0
  -28.7526  -20.5765   20.6156 C   0  0  0  0  0  0
  -30.6429  -16.7096   21.4472 C   0  0  0  0  0  0
  -32.0737  -21.6535   21.8474 C   0  0  0  0  0  0
  -28.4598  -24.1867   20.1562 C   0  0  0  0  0  0
  -28.2989  -25.5097   20.9411 C   0  0  0  0  0  0
  -28.1838  -22.9266   21.0146 C   0  0  0  0  0  0
  -26.7076  -19.4313   19.9940 N   0  0  0  0  0  0
  -30.0686  -15.5559   21.0314 N   0  0  0  0  0  0
  -31.7598  -16.7395   21.9811 O   0  0  0  0  0  0
  -30.8075  -21.6848   21.2011 O   0  0  0  0  0  0
  -28.1473  -21.7523   20.1914 O   0  0  0  0  0  0
  -31.4572  -12.4102   19.1064 H   0  0  0  0  0  0
  -30.3184  -11.3171   19.8353 H   0  0  0  0  0  0
  -29.7248  -11.7554   17.4344 H   0  0  0  0  0  0
  -29.6532  -13.4702   17.7454 H   0  0  0  0  0  0
  -27.8187  -11.3038   18.8279 H   0  0  0  0  0  0
  -27.3583  -12.6220   17.7842 H   0  0  0  0  0  0
  -27.6880  -14.2579   19.5495 H   0  0  0  0  0  0
  -28.6869  -12.0082   21.3617 H   0  0  0  0  0  0
  -28.4747  -13.6633   21.8486 H   0  0  0  0  0  0
  -25.2771   -9.5660   22.4776 H   0  0  0  0  0  0
  -23.9994   -7.4631   22.7472 H   0  0  0  0  0  0
  -21.0855   -8.8807   19.8973 H   0  0  0  0  0  0
  -22.3732  -10.9688   19.6184 H   0  0  0  0  0  0
  -21.1995   -7.6144   23.9726 H   0  0  0  0  0  0
  -21.1493   -6.0520   25.9085 H   0  0  0  0  0  0
  -22.0594   -2.7613   23.2846 H   0  0  0  0  0  0
  -22.4075  -11.9926   22.4852 H   0  0  0  0  0  0
  -21.1074  -13.1288   22.2583 H   0  0  0  0  0  0
  -24.6362  -15.8295   20.5030 H   0  0  0  0  0  0
  -26.2377  -15.6308   20.0093 H   0  0  0  0  0  0
  -26.7104  -32.5545   23.1147 H   0  0  0  0  0  0
  -25.0110  -33.9785   25.0505 H   0  0  0  0  0  0
  -22.6895  -31.3094   21.4077 H   0  0  0  0  0  0
  -23.3731  -35.9660   23.3361 H   0  0  0  0  0  0
  -24.3554  -36.8856   22.2040 H   0  0  0  0  0  0
  -23.7263  -37.6540   23.6616 H   0  0  0  0  0  0
  -26.0445  -31.6097   20.5939 H   0  0  0  0  0  0
  -26.8166  -30.8897   21.9792 H   0  0  0  0  0  0
  -28.1065  -29.1294   21.1476 H   0  0  0  0  0  0
  -26.0743  -25.9583   19.0474 H   0  0  0  0  0  0
  -23.9789  -27.2765   19.0624 H   0  0  0  0  0  0
  -23.7170  -30.5946   19.4045 H   0  0  0  0  0  0
  -22.7353  -29.2378   19.8687 H   0  0  0  0  0  0
  -25.1305  -36.1974   25.0829 H   0  0  0  0  0  0
  -20.9965  -28.3257   24.1415 H   0  0  0  0  0  0
  -20.5672  -26.2272   23.3603 H   0  0  0  0  0  0
  -21.6635  -26.7442   22.1206 H   0  0  0  0  0  0
  -19.6896  -25.6295   21.1229 H   0  0  0  0  0  0
  -19.6700  -27.3204   20.6749 H   0  0  0  0  0  0
  -17.4188  -26.6675   21.4016 H   0  0  0  0  0  0
  -18.0322  -26.0080   22.9019 H   0  0  0  0  0  0
  -19.7931  -30.7262   24.2281 H   0  0  0  0  0  0
  -17.5013  -31.6276   24.5167 H   0  0  0  0  0  0
  -15.5348  -30.3007   23.7653 H   0  0  0  0  0  0
  -15.8650  -28.0842   22.7057 H   0  0  0  0  0  0
  -24.5896  -30.7107   25.7809 H   0  0  0  0  0  0
  -24.8993  -32.2890   26.4953 H   0  0  0  0  0  0
  -25.8098  -30.8855   27.0210 H   0  0  0  0  0  0
  -26.2880  -29.6791   24.1171 H   0  0  0  0  0  0
  -27.4097  -29.7304   25.4578 H   0  0  0  0  0  0
  -27.8713  -30.4362   23.9264 H   0  0  0  0  0  0
  -27.2644  -33.3608   26.2114 H   0  0  0  0  0  0
  -28.3838  -32.6945   25.0311 H   0  0  0  0  0  0
  -28.0747  -31.8442   26.5367 H   0  0  0  0  0  0
  -28.2653  -38.0065   24.7464 H   0  0  0  0  0  0
  -28.1000  -36.2593   24.6387 H   0  0  0  0  0  0
  -27.2273  -37.1592   25.8876 H   0  0  0  0  0  0
  -20.9248  -29.8757   21.6958 H   0  0  0  0  0  0
  -26.0183  -38.2879   24.1367 H   0  0  0  0  0  0
  -28.0100  -17.2148   20.6254 H   0  0  0  0  0  0
  -31.6792  -19.1686   21.7039 H   0  0  0  0  0  0
  -32.8264  -21.1833   21.2138 H   0  0  0  0  0  0
  -32.0380  -21.1340   22.8064 H   0  0  0  0  0  0
  -32.4010  -22.6741   22.0448 H   0  0  0  0  0  0
  -29.4636  -24.1290   19.7322 H   0  0  0  0  0  0
  -27.7703  -24.1913   19.3123 H   0  0  0  0  0  0
  -29.0795  -25.5765   21.6987 H   0  0  0  0  0  0
  -27.3582  -25.4901   21.4962 H   0  0  0  0  0  0
  -27.1946  -23.0201   21.4642 H   0  0  0  0  0  0
  -28.8718  -22.8671   21.8564 H   0  0  0  0  0  0
  -26.0698  -18.6845   20.2457 H   0  0  0  0  0  0
  -26.2685  -20.3463   20.0079 H   0  0  0  0  0  0
  -29.0673  -15.5301   20.9638 H   0  0  0  0  0  0
  1 25  1  0  0  0
  1 30  2  0  0  0
  1 83  1  0  0  0
  2  3  1  0  0  0
  2 25  1  0  0  0
  2 87  1  0  0  0
  2 88  1  0  0  0
  3  4  1  0  0  0
  3 89  1  0  0  0
  3 90  1  0  0  0
  4  5  1  0  0  0
  4 91  1  0  0  0
  4 92  1  0  0  0
  5  6  1  0  0  0
  5 26  1  0  0  0
  5 93  1  0  0  0
  6 25  1  0  0  0
  6 94  1  0  0  0
  6 95  1  0  0  0
  7  8  2  0  0  0
  7 26  1  0  0  0
  7 29  1  0  0  0
  8  9  1  0  0  0
  8 22  1  0  0  0
  9 10  1  0  0  0
  9 27  2  0  0  0
 10 11  2  0  0  0
 10 15  1  0  0  0
 11 12  1  0  0  0
 11 96  1  0  0  0
 12 13  2  0  0  0
 12 97  1  0  0  0
 13 14  1  0  0  0
 13 31  1  0  0  0
 14 15  2  0  0  0
 14 98  1  0  0  0
 15 99  1  0  0  0
 16 17  2  0  0  0
 16 21  1  0  0  0
 16 31  1  0  0  0
 17 18  1  0  0  0
 17100  1  0  0  0
 18 19  2  0  0  0
 18101  1  0  0  0
 19 20  1  0  0  0
 19 24  1  0  0  0
 20 21  2  0  0  0
 20102  1  0  0  0
 21 23  1  0  0  0
 22 28  1  0  0  0
 22 32  2  0  0  0
 26 27  1  0  0  0
 28103  1  0  0  0
 28104  1  0  0  0
 29105  1  0  0  0
 29106  1  0  0  0
 33 34  1  0  0  0
 33 66  1  0  0  0
 33 70  2  0  0  0
 34 36  1  0  0  0
 34 59  1  0  0  0
 34107  1  0  0  0
 35 44  2  0  0  0
 35 45  1  0  0  0
 35 68  1  0  0  0
 36 56  1  0  0  0
 36108  1  0  0  0
 37 39  1  0  0  0
 37 47  1  0  0  0
 37 66  1  0  0  0
 37109  1  0  0  0
 38 43  2  0  0  0
 38 46  1  0  0  0
 38 47  1  0  0  0
 39 64  1  0  0  0
 39 67  2  0  0  0
 40 52  1  0  0  0
 40 53  2  0  0  0
 40 58  1  0  0  0
 41110  1  0  0  0
 41111  1  0  0  0
 41112  1  0  0  0
 41 48  1  0  0  0
 42 43  1  0  0  0
 42 66  1  0  0  0
 42113  1  0  0  0
 42114  1  0  0  0
 43 44  1  0  0  0
 44115  1  0  0  0
 45 46  2  0  0  0
 45116  1  0  0  0
 46117  1  0  0  0
 47118  1  0  0  0
 47119  1  0  0  0
 48 56  1  0  0  0
 48 65  1  0  0  0
 48120  1  0  0  0
 49 50  1  0  0  0
 49 53  1  0  0  0
 49 64  1  0  0  0
 49121  1  0  0  0
 50 51  1  0  0  0
 50122  1  0  0  0
 50123  1  0  0  0
 51 52  1  0  0  0
 51124  1  0  0  0
 51125  1  0  0  0
 52126  1  0  0  0
 52127  1  0  0  0
 53 54  1  0  0  0
 54 55  2  0  0  0
 54128  1  0  0  0
 55 57  1  0  0  0
 55129  1  0  0  0
 56 69  2  0  0  0
 57 58  2  0  0  0
 57130  1  0  0  0
 58131  1  0  0  0
 59 60  1  0  0  0
 59 61  1  0  0  0
 59 62  1  0  0  0
 60132  1  0  0  0
 60133  1  0  0  0
 60134  1  0  0  0
 61135  1  0  0  0
 61136  1  0  0  0
 61137  1  0  0  0
 62138  1  0  0  0
 62139  1  0  0  0
 62140  1  0  0  0
 63 65  1  0  0  0
 63141  1  0  0  0
 63142  1  0  0  0
 63143  1  0  0  0
 64144  1  0  0  0
 65145  1  0  0  0
 68 80  1  0  0  0
 71 73  2  0  0  0
 71 74  1  0  0  0
 71146  1  0  0  0
 72 73  1  0  0  0
 72 75  2  0  0  0
 72147  1  0  0  0
 73 77  1  0  0  0
 74 76  2  0  0  0
 74 82  1  0  0  0
 75 76  1  0  0  0
 75 85  1  0  0  0
 76 86  1  0  0  0
 77 83  1  0  0  0
 77 84  2  0  0  0
 78 85  1  0  0  0
 78148  1  0  0  0
 78149  1  0  0  0
 78150  1  0  0  0
 79 80  1  0  0  0
 79 81  1  0  0  0
 79151  1  0  0  0
 79152  1  0  0  0
 80153  1  0  0  0
 80154  1  0  0  0
 81 86  1  0  0  0
 81155  1  0  0  0
 81156  1  0  0  0
 82157  1  0  0  0
 82158  1  0  0  0
 83159  1  0  0  0
M  ISO  4   1 100  68 101  80 101  83 100
M  END
> <chiral flag>
0

> <version>
0

> <s_m_source_file>
/data/baiqing/PycharmProjects/Reinvent-master-3.2/result/LINK_invent/BTK/process_docking_weight1_custom_product_contain_oxygen_bond_distance_aromatic_linkinvent_7_9_3/rearranged_h_0105.sdf

> <i_m_source_file_index>
61

> <r_mmod_Potential_Energy-OPLS-2005>
-116.00373840332

> <r_mmod_Stretch_Energy-OPLS-2005>
40.7958374023438

> <r_mmod_Bend_Energy-OPLS-2005>
110.516708374023

> <r_mmod_Torsional_Energy-OPLS-2005>
280.339050292969

> <r_mmod_Improper_Torsional_Energy-OPLS-2005>
8.95907020568848

> <r_mmod_Van_der_Waal_Energy-OPLS-2005>
168.650192260742

> <r_mmod_Electrostatic_Energy-OPLS-2005>
-506.807281494141

> <r_mmod_Solvation_Energy-OPLS-2005>
-235.11735534668

> <b_mmod_Minimization_Converged-OPLS-2005>
0

> <r_mmod_RMS_Derivative-OPLS-2005>
2.51835703849792

$$$$
61
                    3D
 Structure written by MMmdl.
165173  0  0  1  0            999 V2000
  -30.7484  -14.4426   20.6229 C   0  0  0  0  0  0
  -30.4174  -12.3152   19.4153 C   0  0  0  0  0  0
  -29.4940  -12.5295   18.2021 C   0  0  0  0  0  0
  -28.0189  -12.3711   18.6157 C   0  0  0  0  0  0
  -27.6617  -13.2103   19.8723 C   0  0  2  0  0  0
  -28.7026  -13.0005   20.9944 C   0  0  0  0  0  0
  -25.2573  -13.8172   20.5664 C   0  0  0  0  0  0
  -24.1826  -13.0445   20.9157 C   0  0  0  0  0  0
  -24.6394  -11.6919   20.8718 C   0  0  0  0  0  0
  -23.9067  -10.4305   21.0400 C   0  0  0  0  0  0
  -24.3622   -9.4213   21.9181 C   0  0  0  0  0  0
  -23.6285   -8.2255   22.0759 C   0  0  0  0  0  0
  -22.4265   -8.0296   21.3553 C   0  0  0  0  0  0
  -21.9907   -9.0272   20.4657 C   0  0  0  0  0  0
  -22.7239  -10.2146   20.3046 C   0  0  0  0  0  0
  -21.6854   -6.0737   22.5294 C   0  0  0  0  0  0
  -21.4017   -6.5636   23.8229 C   0  0  0  0  0  0
  -21.3664   -5.6783   24.9190 C   0  0  0  0  0  0
  -21.6036   -4.3046   24.7235 C   0  0  0  0  0  0
  -21.8812   -3.8149   23.4356 C   0  0  0  0  0  0
  -21.9186   -4.6966   22.3418 C   0  0  0  0  0  0
  -22.7851  -13.5247   21.1820 C   0  0  0  0  0  0
  -22.1649   -4.2148   21.0998 F   0  0  0  0  0  0
  -21.5631   -3.4540   25.7753 F   0  0  0  0  0  0
  -30.0377  -13.2966   20.4435 N   0  0  0  0  0  0
  -26.3022  -12.9347   20.3347 N   0  0  0  0  0  0
  -25.9320  -11.6504   20.5734 N   0  0  0  0  0  0
  -22.0472  -12.8283   22.0394 N   0  0  0  0  0  0
  -25.4279  -15.1899   20.4108 N   0  0  0  0  0  0
  -31.8385  -14.6438   20.0822 O   0  0  0  0  0  0
  -21.6629   -6.8889   21.4256 O   0  0  0  0  0  0
  -22.3558  -14.5558   20.6665 O   0  0  0  0  0  0
  -24.6148  -31.8686   23.2097 C   0  0  0  0  0  0
  -25.9035  -32.4834   23.8403 C   0  0  1  0  0  0
  -27.2370  -27.4302   20.1070 C   0  0  0  0  0  0
  -25.5870  -33.8632   24.2330 N   0  0  0  0  0  0
  -23.4046  -30.4928   21.5506 C   0  0  2  0  0  0
  -24.8538  -28.9591   20.1162 C   0  0  0  0  0  0
  -22.7429  -29.4673   22.4988 C   0  0  0  0  0  0
  -18.0274  -28.1395   22.8502 C   0  0  0  0  0  0
  -24.1477  -36.7332   23.2642 C   0  0  0  0  0  0
  -25.9343  -30.8376   21.3606 C   0  0  0  0  0  0
  -26.0146  -29.4704   20.7103 C   0  0  0  0  0  0
  -27.2125  -28.7165   20.6938 C   0  0  0  0  0  0
  -26.0619  -26.9419   19.4953 C   0  0  0  0  0  0
  -24.8736  -27.6956   19.5006 C   0  0  0  0  0  0
  -23.6151  -29.8257   20.1656 C   0  0  0  0  0  0
  -25.4098  -36.3119   24.0340 C   0  0  1  0  0  0
  -20.5878  -28.3689   23.1327 C   0  0  2  0  0  0
  -20.6776  -26.9419   22.5435 C   0  0  0  0  0  0
  -19.5743  -26.6398   21.5239 C   0  0  0  0  0  0
  -18.1922  -26.7948   22.1640 C   0  0  0  0  0  0
  -19.1534  -28.8860   23.2918 C   0  0  0  0  0  0
  -18.9440  -30.1462   23.8932 C   0  0  0  0  0  0
  -17.6448  -30.6600   24.0582 C   0  0  0  0  0  0
  -25.9021  -34.9481   23.5147 C   0  0  0  0  0  0
  -16.5338  -29.9112   23.6323 C   0  0  0  0  0  0
  -16.7270  -28.6530   23.0342 C   0  0  0  0  0  0
  -26.4459  -31.6621   25.0733 C   0  0  0  0  0  0
  -25.3715  -31.3744   26.1480 C   0  0  0  0  0  0
  -27.0298  -30.3059   24.6122 C   0  0  0  0  0  0
  -27.6059  -32.4331   25.7467 C   0  0  0  0  0  0
  -27.5580  -37.1817   24.8459 C   0  0  0  0  0  0
  -21.4149  -29.3041   22.3722 N   0  0  0  0  0  0
  -26.4288  -37.3797   23.9411 N   0  0  0  0  0  0
  -24.6700  -31.0800   22.0986 N   0  0  0  0  0  0
  -23.4204  -28.8203   23.3010 O   0  0  0  0  0  0
  -28.3936  -26.6743   20.1069 O   0  0  0  0  0  0
  -26.5605  -34.8926   22.4710 O   0  0  0  0  0  0
  -23.5334  -32.1415   23.7485 O   0  0  0  0  0  0
  -31.3661  -18.4919   20.3673 C   0  0  0  0  0  0
  -31.1477  -19.8023   19.8918 C   0  0  0  0  0  0
  -29.1689  -19.9772   21.2813 C   0  0  0  0  0  0
  -30.5032  -17.9164   21.3252 C   0  0  0  0  0  0
  -30.0629  -20.5724   20.3574 C   0  0  0  0  0  0
  -29.3846  -18.6588   21.7823 C   0  0  0  0  0  0
  -25.8081  -19.2213   21.8021 C   0  0  0  0  0  0
  -30.8685  -16.5596   21.9487 C   0  0  0  0  0  0
  -26.2274  -18.5618   23.1209 C   0  0  0  0  0  0
  -29.2606  -24.3291   20.0347 C   0  0  0  0  0  0
  -29.0499  -22.8741   20.5416 C   0  0  0  0  0  0
  -27.6891  -18.8141   23.5276 C   0  0  0  0  0  0
  -28.2739  -25.3476   20.6631 C   0  0  0  0  0  0
  -29.9320  -21.8989   19.8880 N   0  0  0  0  0  0
  -30.1885  -15.3725   21.4130 N   0  0  0  0  0  0
  -28.5790  -18.0438   22.7196 O   0  0  0  0  0  0
  -31.4640  -12.4033   19.1171 H   0  0  0  0  0  0
  -30.3075  -11.3030   19.8091 H   0  0  0  0  0  0
  -29.7431  -11.8253   17.4080 H   0  0  0  0  0  0
  -29.6558  -13.5267   17.7885 H   0  0  0  0  0  0
  -27.8441  -11.3144   18.8200 H   0  0  0  0  0  0
  -27.3645  -12.6330   17.7833 H   0  0  0  0  0  0
  -27.7040  -14.2576   19.5744 H   0  0  0  0  0  0
  -28.6787  -11.9678   21.3465 H   0  0  0  0  0  0
  -28.4506  -13.6073   21.8649 H   0  0  0  0  0  0
  -25.2777   -9.5689   22.4747 H   0  0  0  0  0  0
  -24.0001   -7.4652   22.7483 H   0  0  0  0  0  0
  -21.0838   -8.8790   19.8976 H   0  0  0  0  0  0
  -22.3705  -10.9679   19.6152 H   0  0  0  0  0  0
  -21.2005   -7.6141   23.9744 H   0  0  0  0  0  0
  -21.1487   -6.0511   25.9097 H   0  0  0  0  0  0
  -22.0581   -2.7611   23.2859 H   0  0  0  0  0  0
  -22.4065  -11.9966   22.4827 H   0  0  0  0  0  0
  -21.1110  -13.1362   22.2566 H   0  0  0  0  0  0
  -24.6578  -15.8415   20.5148 H   0  0  0  0  0  0
  -26.2880  -15.6406   20.1265 H   0  0  0  0  0  0
  -26.7116  -32.5567   23.1189 H   0  0  0  0  0  0
  -24.9962  -33.9779   25.0433 H   0  0  0  0  0  0
  -22.6922  -31.3088   21.4134 H   0  0  0  0  0  0
  -23.3723  -35.9680   23.3307 H   0  0  0  0  0  0
  -24.3562  -36.8941   22.2051 H   0  0  0  0  0  0
  -23.7240  -37.6544   23.6656 H   0  0  0  0  0  0
  -26.0416  -31.6017   20.5880 H   0  0  0  0  0  0
  -26.8236  -30.8952   21.9775 H   0  0  0  0  0  0
  -28.1125  -29.1111   21.1428 H   0  0  0  0  0  0
  -26.0623  -25.9788   19.0054 H   0  0  0  0  0  0
  -23.9841  -27.3013   19.0301 H   0  0  0  0  0  0
  -23.7232  -30.6023   19.4069 H   0  0  0  0  0  0
  -22.7392  -29.2445   19.8728 H   0  0  0  0  0  0
  -25.1272  -36.1984   25.0832 H   0  0  0  0  0  0
  -20.9979  -28.3256   24.1446 H   0  0  0  0  0  0
  -20.5707  -26.2280   23.3619 H   0  0  0  0  0  0
  -21.6638  -26.7476   22.1201 H   0  0  0  0  0  0
  -19.6889  -25.6309   21.1259 H   0  0  0  0  0  0
  -19.6681  -27.3223   20.6782 H   0  0  0  0  0  0
  -17.4195  -26.6723   21.4033 H   0  0  0  0  0  0
  -18.0292  -26.0093   22.9037 H   0  0  0  0  0  0
  -19.7917  -30.7278   24.2313 H   0  0  0  0  0  0
  -17.4996  -31.6280   24.5192 H   0  0  0  0  0  0
  -15.5336  -30.3021   23.7622 H   0  0  0  0  0  0
  -15.8675  -28.0862   22.7023 H   0  0  0  0  0  0
  -24.5830  -30.7179   25.7788 H   0  0  0  0  0  0
  -24.8968  -32.2910   26.4983 H   0  0  0  0  0  0
  -25.8015  -30.8829   27.0212 H   0  0  0  0  0  0
  -26.2857  -29.6805   24.1178 H   0  0  0  0  0  0
  -27.4062  -29.7318   25.4599 H   0  0  0  0  0  0
  -27.8686  -30.4377   23.9287 H   0  0  0  0  0  0
  -27.2712  -33.3615   26.2108 H   0  0  0  0  0  0
  -28.3810  -32.6920   25.0248 H   0  0  0  0  0  0
  -28.0804  -31.8425   26.5311 H   0  0  0  0  0  0
  -28.2610  -38.0106   24.7496 H   0  0  0  0  0  0
  -28.1064  -36.2635   24.6286 H   0  0  0  0  0  0
  -27.2303  -37.1475   25.8865 H   0  0  0  0  0  0
  -20.9306  -29.8743   21.6936 H   0  0  0  0  0  0
  -26.0180  -38.2880   24.1397 H   0  0  0  0  0  0
  -32.2319  -17.9433   20.0240 H   0  0  0  0  0  0
  -31.8467  -20.2198   19.1791 H   0  0  0  0  0  0
  -28.3162  -20.5475   21.6110 H   0  0  0  0  0  0
  -24.7707  -18.9846   21.5650 H   0  0  0  0  0  0
  -26.4213  -18.8747   20.9711 H   0  0  0  0  0  0
  -25.8885  -20.3071   21.8561 H   0  0  0  0  0  0
  -30.6453  -16.6024   23.0151 H   0  0  0  0  0  0
  -31.9521  -16.4304   21.9036 H   0  0  0  0  0  0
  -26.0519  -17.4874   23.0661 H   0  0  0  0  0  0
  -25.5721  -18.9259   23.9122 H   0  0  0  0  0  0
  -29.1516  -24.3552   18.9509 H   0  0  0  0  0  0
  -30.2818  -24.6501   20.2481 H   0  0  0  0  0  0
  -28.0140  -22.5792   20.3712 H   0  0  0  0  0  0
  -29.2085  -22.8401   21.6203 H   0  0  0  0  0  0
  -27.8200  -18.4495   24.5472 H   0  0  0  0  0  0
  -27.9293  -19.8756   23.5833 H   0  0  0  0  0  0
  -28.4653  -25.4221   21.7348 H   0  0  0  0  0  0
  -27.2650  -24.9422   20.5777 H   0  0  0  0  0  0
  -30.6631  -22.2605   19.2794 H   0  0  0  0  0  0
  -29.2765  -15.1635   21.7885 H   0  0  0  0  0  0
  1 25  1  0  0  0
  1 30  2  0  0  0
  1 85  1  0  0  0
  2  3  1  0  0  0
  2 25  1  0  0  0
  2 87  1  0  0  0
  2 88  1  0  0  0
  3  4  1  0  0  0
  3 89  1  0  0  0
  3 90  1  0  0  0
  4  5  1  0  0  0
  4 91  1  0  0  0
  4 92  1  0  0  0
  5  6  1  0  0  0
  5 26  1  0  0  0
  5 93  1  0  0  0
  6 25  1  0  0  0
  6 94  1  0  0  0
  6 95  1  0  0  0
  7  8  2  0  0  0
  7 26  1  0  0  0
  7 29  1  0  0  0
  8  9  1  0  0  0
  8 22  1  0  0  0
  9 10  1  0  0  0
  9 27  2  0  0  0
 10 11  2  0  0  0
 10 15  1  0  0  0
 11 12  1  0  0  0
 11 96  1  0  0  0
 12 13  2  0  0  0
 12 97  1  0  0  0
 13 14  1  0  0  0
 13 31  1  0  0  0
 14 15  2  0  0  0
 14 98  1  0  0  0
 15 99  1  0  0  0
 16 17  2  0  0  0
 16 21  1  0  0  0
 16 31  1  0  0  0
 17 18  1  0  0  0
 17100  1  0  0  0
 18 19  2  0  0  0
 18101  1  0  0  0
 19 20  1  0  0  0
 19 24  1  0  0  0
 20 21  2  0  0  0
 20102  1  0  0  0
 21 23  1  0  0  0
 22 28  1  0  0  0
 22 32  2  0  0  0
 26 27  1  0  0  0
 28103  1  0  0  0
 28104  1  0  0  0
 29105  1  0  0  0
 29106  1  0  0  0
 33 34  1  0  0  0
 33 66  1  0  0  0
 33 70  2  0  0  0
 34 36  1  0  0  0
 34 59  1  0  0  0
 34107  1  0  0  0
 35 44  2  0  0  0
 35 45  1  0  0  0
 35 68  1  0  0  0
 36 56  1  0  0  0
 36108  1  0  0  0
 37 39  1  0  0  0
 37 47  1  0  0  0
 37 66  1  0  0  0
 37109  1  0  0  0
 38 43  2  0  0  0
 38 46  1  0  0  0
 38 47  1  0  0  0
 39 64  1  0  0  0
 39 67  2  0  0  0
 40 52  1  0  0  0
 40 53  2  0  0  0
 40 58  1  0  0  0
 41110  1  0  0  0
 41111  1  0  0  0
 41112  1  0  0  0
 41 48  1  0  0  0
 42 43  1  0  0  0
 42 66  1  0  0  0
 42113  1  0  0  0
 42114  1  0  0  0
 43 44  1  0  0  0
 44115  1  0  0  0
 45 46  2  0  0  0
 45116  1  0  0  0
 46117  1  0  0  0
 47118  1  0  0  0
 47119  1  0  0  0
 48 56  1  0  0  0
 48 65  1  0  0  0
 48120  1  0  0  0
 49 50  1  0  0  0
 49 53  1  0  0  0
 49 64  1  0  0  0
 49121  1  0  0  0
 50 51  1  0  0  0
 50122  1  0  0  0
 50123  1  0  0  0
 51 52  1  0  0  0
 51124  1  0  0  0
 51125  1  0  0  0
 52126  1  0  0  0
 52127  1  0  0  0
 53 54  1  0  0  0
 54 55  2  0  0  0
 54128  1  0  0  0
 55 57  1  0  0  0
 55129  1  0  0  0
 56 69  2  0  0  0
 57 58  2  0  0  0
 57130  1  0  0  0
 58131  1  0  0  0
 59 60  1  0  0  0
 59 61  1  0  0  0
 59 62  1  0  0  0
 60132  1  0  0  0
 60133  1  0  0  0
 60134  1  0  0  0
 61135  1  0  0  0
 61136  1  0  0  0
 61137  1  0  0  0
 62138  1  0  0  0
 62139  1  0  0  0
 62140  1  0  0  0
 63 65  1  0  0  0
 63141  1  0  0  0
 63142  1  0  0  0
 63143  1  0  0  0
 64144  1  0  0  0
 65145  1  0  0  0
 68 83  1  0  0  0
 71 72  2  0  0  0
 71 74  1  0  0  0
 71146  1  0  0  0
 72 75  1  0  0  0
 72147  1  0  0  0
 73 75  2  0  0  0
 73 76  1  0  0  0
 73148  1  0  0  0
 74 76  2  0  0  0
 74 78  1  0  0  0
 75 84  1  0  0  0
 76 86  1  0  0  0
 77 79  1  0  0  0
 77149  1  0  0  0
 77150  1  0  0  0
 77151  1  0  0  0
 78 85  1  0  0  0
 78152  1  0  0  0
 78153  1  0  0  0
 79 82  1  0  0  0
 79154  1  0  0  0
 79155  1  0  0  0
 80 81  1  0  0  0
 80 83  1  0  0  0
 80156  1  0  0  0
 80157  1  0  0  0
 81 84  1  0  0  0
 81158  1  0  0  0
 81159  1  0  0  0
 82 86  1  0  0  0
 82160  1  0  0  0
 82161  1  0  0  0
 83162  1  0  0  0
 83163  1  0  0  0
 84164  1  0  0  0
 85165  1  0  0  0
M  ISO  4   1 100  68 101  83 101  85 100
M  END
> <chiral flag>
0

> <version>
0

> <s_m_source_file>
/data/baiqing/PycharmProjects/Reinvent-master-3.2/result/LINK_invent/BTK/process_docking_weight1_custom_product_contain_oxygen_bond_distance_aromatic_linkinvent_7_9_3/rearranged_h_0105.sdf

> <i_m_source_file_index>
62

> <r_mmod_Potential_Energy-OPLS-2005>
-73.2614135742188

> <r_mmod_Stretch_Energy-OPLS-2005>
40.3768653869629

> <r_mmod_Bend_Energy-OPLS-2005>
116.76057434082

> <r_mmod_Torsional_Energy-OPLS-2005>
210.731643676758

> <r_mmod_Improper_Torsional_Energy-OPLS-2005>
3.24761414527893

> <r_mmod_Van_der_Waal_Energy-OPLS-2005>
149.064437866211

> <r_mmod_Electrostatic_Energy-OPLS-2005>
-390.999572753906

> <r_mmod_Solvation_Energy-OPLS-2005>
-213.839828491211

> <b_mmod_Minimization_Converged-OPLS-2005>
0

> <r_mmod_RMS_Derivative-OPLS-2005>
2.74024271965027

$$$$
62
                    3D
 Structure written by MMmdl.
158167  0  0  1  0            999 V2000
  -30.6625  -14.6779   20.4060 C   0  0  0  0  0  0
  -30.4248  -12.4086   19.4521 C   0  0  0  0  0  0
  -29.5067  -12.5050   18.2162 C   0  0  0  0  0  0
  -28.0346  -12.3312   18.6412 C   0  0  0  0  0  0
  -27.6404  -13.2312   19.8446 C   0  0  2  0  0  0
  -28.6904  -13.1770   20.9755 C   0  0  0  0  0  0
  -25.2505  -13.8203   20.5696 C   0  0  0  0  0  0
  -24.1803  -13.0391   20.9195 C   0  0  0  0  0  0
  -24.6401  -11.6881   20.8697 C   0  0  0  0  0  0
  -23.9021  -10.4267   21.0375 C   0  0  0  0  0  0
  -24.3568   -9.4211   21.9170 C   0  0  0  0  0  0
  -23.6242   -8.2246   22.0757 C   0  0  0  0  0  0
  -22.4258   -8.0239   21.3541 C   0  0  0  0  0  0
  -21.9851   -9.0205   20.4678 C   0  0  0  0  0  0
  -22.7166  -10.2092   20.3051 C   0  0  0  0  0  0
  -21.6858   -6.0681   22.5254 C   0  0  0  0  0  0
  -21.4026   -6.5610   23.8181 C   0  0  0  0  0  0
  -21.3671   -5.6777   24.9172 C   0  0  0  0  0  0
  -21.6054   -4.3032   24.7244 C   0  0  0  0  0  0
  -21.8807   -3.8102   23.4367 C   0  0  0  0  0  0
  -21.9213   -4.6907   22.3412 C   0  0  0  0  0  0
  -22.7859  -13.5197   21.1873 C   0  0  0  0  0  0
  -22.1684   -4.2066   21.0984 F   0  0  0  0  0  0
  -21.5638   -3.4530   25.7779 F   0  0  0  0  0  0
  -29.9973  -13.4805   20.3744 N   0  0  0  0  0  0
  -26.2926  -12.9380   20.3257 N   0  0  0  0  0  0
  -25.9330  -11.6513   20.5648 N   0  0  0  0  0  0
  -22.0499  -12.8185   22.0452 N   0  0  0  0  0  0
  -25.4123  -15.1941   20.4233 N   0  0  0  0  0  0
  -31.8674  -14.7258   20.1581 O   0  0  0  0  0  0
  -21.6684   -6.8794   21.4197 O   0  0  0  0  0  0
  -22.3536  -14.5488   20.6750 O   0  0  0  0  0  0
  -24.6244  -31.8542   23.2064 C   0  0  0  0  0  0
  -25.9096  -32.4697   23.8340 C   0  0  1  0  0  0
  -27.1938  -27.2895   20.0734 C   0  0  0  0  0  0
  -25.5971  -33.8531   24.2258 N   0  0  0  0  0  0
  -23.4176  -30.4841   21.5485 C   0  0  2  0  0  0
  -24.8574  -28.9383   20.1149 C   0  0  0  0  0  0
  -22.7445  -29.4622   22.4954 C   0  0  0  0  0  0
  -18.0267  -28.1413   22.8440 C   0  0  0  0  0  0
  -24.1514  -36.7244   23.2635 C   0  0  0  0  0  0
  -25.9652  -30.7627   21.3955 C   0  0  0  0  0  0
  -26.0272  -29.3929   20.7309 C   0  0  0  0  0  0
  -27.1942  -28.5669   20.7260 C   0  0  0  0  0  0
  -26.0063  -26.9233   19.4080 C   0  0  0  0  0  0
  -24.8451  -27.7065   19.4572 C   0  0  0  0  0  0
  -23.6282  -29.8147   20.1659 C   0  0  0  0  0  0
  -25.4135  -36.3018   24.0302 C   0  0  1  0  0  0
  -20.5858  -28.3744   23.1257 C   0  0  2  0  0  0
  -20.6765  -26.9467   22.5399 C   0  0  0  0  0  0
  -19.5756  -26.6411   21.5182 C   0  0  0  0  0  0
  -18.1933  -26.7934   22.1605 C   0  0  0  0  0  0
  -19.1514  -28.8875   23.2837 C   0  0  0  0  0  0
  -18.9449  -30.1478   23.8868 C   0  0  0  0  0  0
  -17.6459  -30.6608   24.0550 C   0  0  0  0  0  0
  -25.9082  -34.9395   23.5047 C   0  0  0  0  0  0
  -16.5343  -29.9104   23.6335 C   0  0  0  0  0  0
  -16.7248  -28.6533   23.0320 C   0  0  0  0  0  0
  -26.4540  -31.6517   25.0678 C   0  0  0  0  0  0
  -25.3797  -31.3628   26.1385 C   0  0  0  0  0  0
  -27.0408  -30.2885   24.6257 C   0  0  0  0  0  0
  -27.6082  -32.4261   25.7440 C   0  0  0  0  0  0
  -27.5582  -37.1769   24.8457 C   0  0  0  0  0  0
  -21.4166  -29.3076   22.3646 N   0  0  0  0  0  0
  -26.4300  -37.3712   23.9383 N   0  0  0  0  0  0
  -24.6860  -31.0553   22.1044 N   0  0  0  0  0  0
  -23.4155  -28.8152   23.3032 O   0  0  0  0  0  0
  -28.2854  -26.4057   20.1164 O   0  0  0  0  0  0
  -26.5658  -34.8861   22.4629 O   0  0  0  0  0  0
  -23.5434  -32.1406   23.7394 O   0  0  0  0  0  0
  -28.8620  -19.2060   20.8250 C   0  0  0  0  0  0
  -30.0632  -19.2097   18.7452 C   0  0  0  0  0  0
  -28.3630  -20.5141   20.5440 C   0  0  0  0  0  0
  -29.5378  -20.5091   18.4511 C   0  0  0  0  0  0
  -29.7414  -18.5209   19.9499 C   0  0  0  0  0  0
  -28.6877  -21.2124   19.3531 C   0  0  0  0  0  0
  -26.9921  -22.3978   18.1917 C   0  0  0  0  0  0
  -25.8058  -23.1825   18.7219 C   0  0  0  0  0  0
  -26.3078  -23.6324   20.1084 C   0  0  0  0  0  0
  -27.8359  -23.6822   19.9438 C   0  0  2  0  0  0
  -30.5227  -17.2297   20.4102 C   0  0  0  0  0  0
  -28.3067  -25.1155   19.3603 C   0  0  0  0  0  0
  -28.0628  -22.5005   19.0102 N   0  0  0  0  0  0
  -29.9338  -15.8414   20.4706 N   0  0  0  0  0  0
  -26.9206  -21.7346   17.1498 O   0  0  0  0  0  0
  -31.4728  -12.4871   19.1671 H   0  0  0  0  0  0
  -30.3180  -11.4333   19.9235 H   0  0  0  0  0  0
  -29.7715  -11.7533   17.4697 H   0  0  0  0  0  0
  -29.6429  -13.4682   17.7300 H   0  0  0  0  0  0
  -27.8917  -11.2804   18.8972 H   0  0  0  0  0  0
  -27.3694  -12.5325   17.8053 H   0  0  0  0  0  0
  -27.6305  -14.2552   19.4679 H   0  0  0  0  0  0
  -28.6987  -12.1972   21.4595 H   0  0  0  0  0  0
  -28.4565  -13.9017   21.7597 H   0  0  0  0  0  0
  -25.2698   -9.5704   22.4760 H   0  0  0  0  0  0
  -23.9967   -7.4631   22.7466 H   0  0  0  0  0  0
  -21.0777   -8.8689   19.8971 H   0  0  0  0  0  0
  -22.3573  -10.9620   19.6169 H   0  0  0  0  0  0
  -21.2009   -7.6113   23.9646 H   0  0  0  0  0  0
  -21.1520   -6.0541   25.9059 H   0  0  0  0  0  0
  -22.0578   -2.7538   23.2936 H   0  0  0  0  0  0
  -22.4176  -11.9892   22.4848 H   0  0  0  0  0  0
  -21.1101  -13.1162   22.2620 H   0  0  0  0  0  0
  -24.6264  -15.8249   20.5474 H   0  0  0  0  0  0
  -26.2520  -15.6533   20.0848 H   0  0  0  0  0  0
  -26.7150  -32.5339   23.1081 H   0  0  0  0  0  0
  -25.0047  -33.9663   25.0351 H   0  0  0  0  0  0
  -22.7166  -31.3103   21.4046 H   0  0  0  0  0  0
  -23.3762  -35.9595   23.3271 H   0  0  0  0  0  0
  -24.3588  -36.8886   22.2053 H   0  0  0  0  0  0
  -23.7327  -37.6445   23.6695 H   0  0  0  0  0  0
  -26.1332  -31.5339   20.6467 H   0  0  0  0  0  0
  -26.8316  -30.7862   22.0449 H   0  0  0  0  0  0
  -28.0768  -28.8833   21.2667 H   0  0  0  0  0  0
  -25.9255  -26.0067   18.8545 H   0  0  0  0  0  0
  -23.9414  -27.3559   18.9765 H   0  0  0  0  0  0
  -23.7578  -30.5857   19.4088 H   0  0  0  0  0  0
  -22.7487  -29.2445   19.8564 H   0  0  0  0  0  0
  -25.1353  -36.1829   25.0802 H   0  0  0  0  0  0
  -20.9932  -28.3347   24.1376 H   0  0  0  0  0  0
  -20.5677  -26.2354   23.3619 H   0  0  0  0  0  0
  -21.6636  -26.7504   22.1197 H   0  0  0  0  0  0
  -19.6944  -25.6321   21.1221 H   0  0  0  0  0  0
  -19.6675  -27.3217   20.6713 H   0  0  0  0  0  0
  -17.4193  -26.6629   21.4024 H   0  0  0  0  0  0
  -18.0390  -26.0086   22.9033 H   0  0  0  0  0  0
  -19.7937  -30.7285   24.2240 H   0  0  0  0  0  0
  -17.5018  -31.6275   24.5208 H   0  0  0  0  0  0
  -15.5347  -30.3006   23.7689 H   0  0  0  0  0  0
  -15.8641  -28.0858   22.7042 H   0  0  0  0  0  0
  -24.5999  -30.6968   25.7669 H   0  0  0  0  0  0
  -24.8994  -32.2792   26.4812 H   0  0  0  0  0  0
  -25.8118  -30.8771   27.0158 H   0  0  0  0  0  0
  -26.3008  -29.6543   24.1326 H   0  0  0  0  0  0
  -27.4069  -29.7202   25.4856 H   0  0  0  0  0  0
  -27.8939  -30.4032   23.9536 H   0  0  0  0  0  0
  -27.2664  -33.3556   26.2037 H   0  0  0  0  0  0
  -28.3900  -32.6829   25.0257 H   0  0  0  0  0  0
  -28.0793  -31.8380   26.5367 H   0  0  0  0  0  0
  -28.2585  -38.0076   24.7458 H   0  0  0  0  0  0
  -28.1102  -36.2586   24.6357 H   0  0  0  0  0  0
  -27.2252  -37.1464   25.8847 H   0  0  0  0  0  0
  -20.9428  -29.8721   21.6737 H   0  0  0  0  0  0
  -26.0148  -38.2774   24.1372 H   0  0  0  0  0  0
  -28.5922  -18.7409   21.7622 H   0  0  0  0  0  0
  -30.7385  -18.7492   18.0343 H   0  0  0  0  0  0
  -27.7002  -20.9778   21.2626 H   0  0  0  0  0  0
  -29.7958  -20.9785   17.5085 H   0  0  0  0  0  0
  -24.9115  -22.5597   18.7885 H   0  0  0  0  0  0
  -25.6093  -24.0010   18.0343 H   0  0  0  0  0  0
  -25.8617  -24.5549   20.4651 H   0  0  0  0  0  0
  -26.0338  -22.8757   20.8521 H   0  0  0  0  0  0
  -28.3363  -23.4935   20.8968 H   0  0  0  0  0  0
  -30.8331  -17.4516   21.4370 H   0  0  0  0  0  0
  -31.4557  -17.1967   19.8426 H   0  0  0  0  0  0
  -29.3624  -24.9980   19.1198 H   0  0  0  0  0  0
  -27.8577  -25.2790   18.3791 H   0  0  0  0  0  0
  -28.9418  -15.7568   20.6175 H   0  0  0  0  0  0
  1 25  1  0  0  0
  1 30  2  0  0  0
  1 84  1  0  0  0
  2  3  1  0  0  0
  2 25  1  0  0  0
  2 86  1  0  0  0
  2 87  1  0  0  0
  3  4  1  0  0  0
  3 88  1  0  0  0
  3 89  1  0  0  0
  4  5  1  0  0  0
  4 90  1  0  0  0
  4 91  1  0  0  0
  5  6  1  0  0  0
  5 26  1  0  0  0
  5 92  1  0  0  0
  6 25  1  0  0  0
  6 93  1  0  0  0
  6 94  1  0  0  0
  7  8  2  0  0  0
  7 26  1  0  0  0
  7 29  1  0  0  0
  8  9  1  0  0  0
  8 22  1  0  0  0
  9 10  1  0  0  0
  9 27  2  0  0  0
 10 11  2  0  0  0
 10 15  1  0  0  0
 11 12  1  0  0  0
 11 95  1  0  0  0
 12 13  2  0  0  0
 12 96  1  0  0  0
 13 14  1  0  0  0
 13 31  1  0  0  0
 14 15  2  0  0  0
 14 97  1  0  0  0
 15 98  1  0  0  0
 16 17  2  0  0  0
 16 21  1  0  0  0
 16 31  1  0  0  0
 17 18  1  0  0  0
 17 99  1  0  0  0
 18 19  2  0  0  0
 18100  1  0  0  0
 19 20  1  0  0  0
 19 24  1  0  0  0
 20 21  2  0  0  0
 20101  1  0  0  0
 21 23  1  0  0  0
 22 28  1  0  0  0
 22 32  2  0  0  0
 26 27  1  0  0  0
 28102  1  0  0  0
 28103  1  0  0  0
 29104  1  0  0  0
 29105  1  0  0  0
 33 34  1  0  0  0
 33 66  1  0  0  0
 33 70  2  0  0  0
 34 36  1  0  0  0
 34 59  1  0  0  0
 34106  1  0  0  0
 35 44  2  0  0  0
 35 45  1  0  0  0
 35 68  1  0  0  0
 36 56  1  0  0  0
 36107  1  0  0  0
 37 39  1  0  0  0
 37 47  1  0  0  0
 37 66  1  0  0  0
 37108  1  0  0  0
 38 43  2  0  0  0
 38 46  1  0  0  0
 38 47  1  0  0  0
 39 64  1  0  0  0
 39 67  2  0  0  0
 40 52  1  0  0  0
 40 53  2  0  0  0
 40 58  1  0  0  0
 41109  1  0  0  0
 41110  1  0  0  0
 41111  1  0  0  0
 41 48  1  0  0  0
 42 43  1  0  0  0
 42 66  1  0  0  0
 42112  1  0  0  0
 42113  1  0  0  0
 43 44  1  0  0  0
 44114  1  0  0  0
 45 46  2  0  0  0
 45115  1  0  0  0
 46116  1  0  0  0
 47117  1  0  0  0
 47118  1  0  0  0
 48 56  1  0  0  0
 48 65  1  0  0  0
 48119  1  0  0  0
 49 50  1  0  0  0
 49 53  1  0  0  0
 49 64  1  0  0  0
 49120  1  0  0  0
 50 51  1  0  0  0
 50121  1  0  0  0
 50122  1  0  0  0
 51 52  1  0  0  0
 51123  1  0  0  0
 51124  1  0  0  0
 52125  1  0  0  0
 52126  1  0  0  0
 53 54  1  0  0  0
 54 55  2  0  0  0
 54127  1  0  0  0
 55 57  1  0  0  0
 55128  1  0  0  0
 56 69  2  0  0  0
 57 58  2  0  0  0
 57129  1  0  0  0
 58130  1  0  0  0
 59 60  1  0  0  0
 59 61  1  0  0  0
 59 62  1  0  0  0
 60131  1  0  0  0
 60132  1  0  0  0
 60133  1  0  0  0
 61134  1  0  0  0
 61135  1  0  0  0
 61136  1  0  0  0
 62137  1  0  0  0
 62138  1  0  0  0
 62139  1  0  0  0
 63 65  1  0  0  0
 63140  1  0  0  0
 63141  1  0  0  0
 63142  1  0  0  0
 64143  1  0  0  0
 65144  1  0  0  0
 68 82  1  0  0  0
 71 73  2  0  0  0
 71 75  1  0  0  0
 71145  1  0  0  0
 72 74  1  0  0  0
 72 75  2  0  0  0
 72146  1  0  0  0
 73 76  1  0  0  0
 73147  1  0  0  0
 74 76  2  0  0  0
 74148  1  0  0  0
 75 81  1  0  0  0
 76 83  1  0  0  0
 77 78  1  0  0  0
 77 83  1  0  0  0
 77 85  2  0  0  0
 78 79  1  0  0  0
 78149  1  0  0  0
 78150  1  0  0  0
 79 80  1  0  0  0
 79151  1  0  0  0
 79152  1  0  0  0
 80 82  1  0  0  0
 80 83  1  0  0  0
 80153  1  0  0  0
 81 84  1  0  0  0
 81154  1  0  0  0
 81155  1  0  0  0
 82156  1  0  0  0
 82157  1  0  0  0
 84158  1  0  0  0
M  ISO  4   1 100  68 101  82 101  84 100
M  END
> <chiral flag>
0

> <version>
0

> <s_m_source_file>
/data/baiqing/PycharmProjects/Reinvent-master-3.2/result/LINK_invent/BTK/process_docking_weight1_custom_product_contain_oxygen_bond_distance_aromatic_linkinvent_7_9_3/rearranged_h_0105.sdf

> <i_m_source_file_index>
63

> <r_mmod_Potential_Energy-OPLS-2005>
200.177627563477

> <r_mmod_Stretch_Energy-OPLS-2005>
93.7256851196289

> <r_mmod_Bend_Energy-OPLS-2005>
198.210494995117

> <r_mmod_Torsional_Energy-OPLS-2005>
300.895935058594

> <r_mmod_Improper_Torsional_Energy-OPLS-2005>
10.1942958831787

> <r_mmod_Van_der_Waal_Energy-OPLS-2005>
142.989303588867

> <r_mmod_Electrostatic_Energy-OPLS-2005>
-393.434478759766

> <r_mmod_Solvation_Energy-OPLS-2005>
-224.472412109375

> <b_mmod_Minimization_Converged-OPLS-2005>
0

> <r_mmod_RMS_Derivative-OPLS-2005>
8.20101070404053

$$$$
63
                    3D
 Structure written by MMmdl.
159168  0  0  1  0            999 V2000
  -30.6019  -14.7380   20.4370 C   0  0  0  0  0  0
  -30.4227  -12.4491   19.4697 C   0  0  0  0  0  0
  -29.4999  -12.5283   18.2332 C   0  0  0  0  0  0
  -28.0273  -12.3523   18.6415 C   0  0  0  0  0  0
  -27.6394  -13.2365   19.8557 C   0  0  2  0  0  0
  -28.6849  -13.1513   20.9915 C   0  0  0  0  0  0
  -25.2475  -13.8199   20.5687 C   0  0  0  0  0  0
  -24.1778  -13.0427   20.9190 C   0  0  0  0  0  0
  -24.6386  -11.6919   20.8753 C   0  0  0  0  0  0
  -23.9072  -10.4282   21.0409 C   0  0  0  0  0  0
  -24.3626   -9.4198   21.9192 C   0  0  0  0  0  0
  -23.6295   -8.2239   22.0765 C   0  0  0  0  0  0
  -22.4285   -8.0275   21.3543 C   0  0  0  0  0  0
  -21.9917   -9.0244   20.4640 C   0  0  0  0  0  0
  -22.7243  -10.2129   20.3053 C   0  0  0  0  0  0
  -21.6855   -6.0728   22.5287 C   0  0  0  0  0  0
  -21.4006   -6.5638   23.8212 C   0  0  0  0  0  0
  -21.3665   -5.6807   24.9184 C   0  0  0  0  0  0
  -21.6052   -4.3067   24.7230 C   0  0  0  0  0  0
  -21.8827   -3.8140   23.4356 C   0  0  0  0  0  0
  -21.9185   -4.6952   22.3411 C   0  0  0  0  0  0
  -22.7806  -13.5205   21.1853 C   0  0  0  0  0  0
  -22.1674   -4.2144   21.0988 F   0  0  0  0  0  0
  -21.5616   -3.4548   25.7738 F   0  0  0  0  0  0
  -29.9900  -13.5039   20.4168 N   0  0  0  0  0  0
  -26.2914  -12.9422   20.3305 N   0  0  0  0  0  0
  -25.9319  -11.6555   20.5774 N   0  0  0  0  0  0
  -22.0473  -12.8176   22.0412 N   0  0  0  0  0  0
  -25.4105  -15.1920   20.4076 N   0  0  0  0  0  0
  -31.7844  -14.8357   20.0889 O   0  0  0  0  0  0
  -21.6642   -6.8881   21.4255 O   0  0  0  0  0  0
  -22.3487  -14.5512   20.6712 O   0  0  0  0  0  0
  -24.6320  -31.8579   23.2000 C   0  0  0  0  0  0
  -25.9138  -32.4778   23.8350 C   0  0  1  0  0  0
  -27.2079  -27.2502   20.1303 C   0  0  0  0  0  0
  -25.5931  -33.8580   24.2257 N   0  0  0  0  0  0
  -23.4289  -30.4826   21.5442 C   0  0  2  0  0  0
  -24.8744  -28.9361   20.1080 C   0  0  0  0  0  0
  -22.7513  -29.4616   22.4915 C   0  0  0  0  0  0
  -18.0296  -28.1399   22.8499 C   0  0  0  0  0  0
  -24.1484  -36.7281   23.2637 C   0  0  0  0  0  0
  -25.9775  -30.7651   21.3836 C   0  0  0  0  0  0
  -26.0476  -29.3877   20.7264 C   0  0  0  0  0  0
  -27.2163  -28.5552   20.7339 C   0  0  0  0  0  0
  -26.0170  -26.8917   19.4522 C   0  0  0  0  0  0
  -24.8650  -27.6948   19.4611 C   0  0  0  0  0  0
  -23.6467  -29.8245   20.1576 C   0  0  0  0  0  0
  -25.4118  -36.3094   24.0331 C   0  0  1  0  0  0
  -20.5905  -28.3718   23.1276 C   0  0  2  0  0  0
  -20.6785  -26.9430   22.5426 C   0  0  0  0  0  0
  -19.5757  -26.6389   21.5227 C   0  0  0  0  0  0
  -18.1932  -26.7945   22.1630 C   0  0  0  0  0  0
  -19.1552  -28.8879   23.2874 C   0  0  0  0  0  0
  -18.9472  -30.1472   23.8903 C   0  0  0  0  0  0
  -17.6470  -30.6598   24.0581 C   0  0  0  0  0  0
  -25.9070  -34.9459   23.5099 C   0  0  0  0  0  0
  -16.5357  -29.9108   23.6331 C   0  0  0  0  0  0
  -16.7278  -28.6516   23.0363 C   0  0  0  0  0  0
  -26.4486  -31.6608   25.0746 C   0  0  0  0  0  0
  -25.3689  -31.3743   26.1448 C   0  0  0  0  0  0
  -27.0350  -30.3043   24.6219 C   0  0  0  0  0  0
  -27.6033  -32.4353   25.7531 C   0  0  0  0  0  0
  -27.5588  -37.1795   24.8452 C   0  0  0  0  0  0
  -21.4218  -29.3057   22.3654 N   0  0  0  0  0  0
  -26.4282  -37.3804   23.9425 N   0  0  0  0  0  0
  -24.6990  -31.0546   22.0979 N   0  0  0  0  0  0
  -23.4211  -28.8143   23.3012 O   0  0  0  0  0  0
  -28.2719  -26.3138   20.2279 O   0  0  0  0  0  0
  -26.5646  -34.8928   22.4671 O   0  0  0  0  0  0
  -23.5467  -32.1402   23.7285 O   0  0  0  0  0  0
  -30.4328  -18.5843   18.1031 C   0  0  0  0  0  0
  -30.0294  -19.7768   18.7370 C   0  0  0  0  0  0
  -30.3929  -17.3436   18.7670 C   0  0  0  0  0  0
  -29.5088  -18.4848   20.7260 C   0  0  0  0  0  0
  -29.5465  -19.7923   20.0646 C   0  0  0  0  0  0
  -29.9355  -17.2348   20.1002 C   0  0  0  0  0  0
  -28.7328  -23.5931   20.5256 C   0  0  0  0  0  0
  -28.6667  -22.2912   20.0218 C   0  0  0  0  0  0
  -29.4576  -23.7746   21.8045 C   0  0  0  0  0  0
  -30.2513  -22.5825   22.3560 C   0  0  0  0  0  0
  -29.6078  -21.2126   22.0471 C   0  0  0  0  0  0
  -27.8219  -22.0266   18.7807 C   0  0  0  0  0  0
  -27.9625  -24.8637   19.9271 C   0  0  0  0  0  0
  -29.2041  -21.0923   20.6444 N   0  0  0  0  0  0
  -29.8384  -15.8711   20.6935 N   0  0  0  0  0  0
  -29.4619  -24.8277   22.4496 O   0  0  0  0  0  0
  -31.4635  -12.5677   19.1639 H   0  0  0  0  0  0
  -30.3588  -11.4661   19.9385 H   0  0  0  0  0  0
  -29.7763  -11.7732   17.4972 H   0  0  0  0  0  0
  -29.6267  -13.4937   17.7397 H   0  0  0  0  0  0
  -27.8712  -11.3000   18.8803 H   0  0  0  0  0  0
  -27.3744  -12.5723   17.7955 H   0  0  0  0  0  0
  -27.6372  -14.2638   19.4882 H   0  0  0  0  0  0
  -28.7163  -12.1461   21.4163 H   0  0  0  0  0  0
  -28.4232  -13.8187   21.8144 H   0  0  0  0  0  0
  -25.2785   -9.5675   22.4758 H   0  0  0  0  0  0
  -24.0004   -7.4636   22.7496 H   0  0  0  0  0  0
  -21.0844   -8.8767   19.8948 H   0  0  0  0  0  0
  -22.3705  -10.9668   19.6161 H   0  0  0  0  0  0
  -21.2033   -7.6157   23.9706 H   0  0  0  0  0  0
  -21.1474   -6.0546   25.9090 H   0  0  0  0  0  0
  -22.0601   -2.7591   23.2864 H   0  0  0  0  0  0
  -22.4130  -11.9849   22.4787 H   0  0  0  0  0  0
  -21.1093  -13.1186   22.2646 H   0  0  0  0  0  0
  -24.6267  -15.8314   20.4791 H   0  0  0  0  0  0
  -26.2481  -15.6348   20.0517 H   0  0  0  0  0  0
  -26.7203  -32.5442   23.1088 H   0  0  0  0  0  0
  -25.0079  -33.9709   25.0406 H   0  0  0  0  0  0
  -22.7254  -31.3065   21.4021 H   0  0  0  0  0  0
  -23.3790  -35.9566   23.3261 H   0  0  0  0  0  0
  -24.3573  -36.8962   22.2060 H   0  0  0  0  0  0
  -23.7166  -37.6435   23.6698 H   0  0  0  0  0  0
  -26.1135  -31.5218   20.6089 H   0  0  0  0  0  0
  -26.8553  -30.8200   22.0151 H   0  0  0  0  0  0
  -28.1062  -28.8871   21.2508 H   0  0  0  0  0  0
  -25.9284  -25.9592   18.9161 H   0  0  0  0  0  0
  -23.9742  -27.3482   18.9554 H   0  0  0  0  0  0
  -23.7735  -30.6031   19.4048 H   0  0  0  0  0  0
  -22.7627  -29.2629   19.8506 H   0  0  0  0  0  0
  -25.1284  -36.1948   25.0818 H   0  0  0  0  0  0
  -20.9997  -28.3312   24.1402 H   0  0  0  0  0  0
  -20.5707  -26.2325   23.3637 H   0  0  0  0  0  0
  -21.6653  -26.7464   22.1219 H   0  0  0  0  0  0
  -19.6922  -25.6296   21.1266 H   0  0  0  0  0  0
  -19.6692  -27.3198   20.6757 H   0  0  0  0  0  0
  -17.4208  -26.6727   21.4012 H   0  0  0  0  0  0
  -18.0291  -26.0074   22.9007 H   0  0  0  0  0  0
  -19.7946  -30.7289   24.2283 H   0  0  0  0  0  0
  -17.5024  -31.6279   24.5184 H   0  0  0  0  0  0
  -15.5361  -30.3019   23.7638 H   0  0  0  0  0  0
  -15.8675  -28.0832   22.7092 H   0  0  0  0  0  0
  -24.5869  -30.7094   25.7757 H   0  0  0  0  0  0
  -24.8863  -32.2913   26.4851 H   0  0  0  0  0  0
  -25.7988  -30.8927   27.0243 H   0  0  0  0  0  0
  -26.2951  -29.6796   24.1202 H   0  0  0  0  0  0
  -27.4015  -29.7287   25.4730 H   0  0  0  0  0  0
  -27.8829  -30.4348   23.9489 H   0  0  0  0  0  0
  -27.2631  -33.3650   26.2101 H   0  0  0  0  0  0
  -28.3845  -32.6923   25.0368 H   0  0  0  0  0  0
  -28.0695  -31.8491   26.5456 H   0  0  0  0  0  0
  -28.2562  -38.0140   24.7601 H   0  0  0  0  0  0
  -28.1137  -36.2680   24.6166 H   0  0  0  0  0  0
  -27.2325  -37.1310   25.8857 H   0  0  0  0  0  0
  -20.9400  -29.8805   21.6878 H   0  0  0  0  0  0
  -26.0170  -38.2868   24.1507 H   0  0  0  0  0  0
  -30.7829  -18.6208   17.0811 H   0  0  0  0  0  0
  -30.1080  -20.7002   18.1811 H   0  0  0  0  0  0
  -30.6990  -16.4647   18.2157 H   0  0  0  0  0  0
  -29.1287  -18.4348   21.7361 H   0  0  0  0  0  0
  -30.3715  -22.6970   23.4327 H   0  0  0  0  0  0
  -31.2502  -22.6219   21.9228 H   0  0  0  0  0  0
  -28.7304  -21.0640   22.6784 H   0  0  0  0  0  0
  -30.3231  -20.4345   22.3201 H   0  0  0  0  0  0
  -26.8723  -22.5614   18.8460 H   0  0  0  0  0  0
  -27.5679  -20.9746   18.6551 H   0  0  0  0  0  0
  -28.3392  -22.3703   17.8838 H   0  0  0  0  0  0
  -26.9489  -24.6640   20.2753 H   0  0  0  0  0  0
  -27.9519  -24.7616   18.8423 H   0  0  0  0  0  0
  -28.9764  -15.6856   21.1833 H   0  0  0  0  0  0
  1 25  1  0  0  0
  1 30  2  0  0  0
  1 85  1  0  0  0
  2  3  1  0  0  0
  2 25  1  0  0  0
  2 87  1  0  0  0
  2 88  1  0  0  0
  3  4  1  0  0  0
  3 89  1  0  0  0
  3 90  1  0  0  0
  4  5  1  0  0  0
  4 91  1  0  0  0
  4 92  1  0  0  0
  5  6  1  0  0  0
  5 26  1  0  0  0
  5 93  1  0  0  0
  6 25  1  0  0  0
  6 94  1  0  0  0
  6 95  1  0  0  0
  7  8  2  0  0  0
  7 26  1  0  0  0
  7 29  1  0  0  0
  8  9  1  0  0  0
  8 22  1  0  0  0
  9 10  1  0  0  0
  9 27  2  0  0  0
 10 11  2  0  0  0
 10 15  1  0  0  0
 11 12  1  0  0  0
 11 96  1  0  0  0
 12 13  2  0  0  0
 12 97  1  0  0  0
 13 14  1  0  0  0
 13 31  1  0  0  0
 14 15  2  0  0  0
 14 98  1  0  0  0
 15 99  1  0  0  0
 16 17  2  0  0  0
 16 21  1  0  0  0
 16 31  1  0  0  0
 17 18  1  0  0  0
 17100  1  0  0  0
 18 19  2  0  0  0
 18101  1  0  0  0
 19 20  1  0  0  0
 19 24  1  0  0  0
 20 21  2  0  0  0
 20102  1  0  0  0
 21 23  1  0  0  0
 22 28  1  0  0  0
 22 32  2  0  0  0
 26 27  1  0  0  0
 28103  1  0  0  0
 28104  1  0  0  0
 29105  1  0  0  0
 29106  1  0  0  0
 33 34  1  0  0  0
 33 66  1  0  0  0
 33 70  2  0  0  0
 34 36  1  0  0  0
 34 59  1  0  0  0
 34107  1  0  0  0
 35 44  2  0  0  0
 35 45  1  0  0  0
 35 68  1  0  0  0
 36 56  1  0  0  0
 36108  1  0  0  0
 37 39  1  0  0  0
 37 47  1  0  0  0
 37 66  1  0  0  0
 37109  1  0  0  0
 38 43  2  0  0  0
 38 46  1  0  0  0
 38 47  1  0  0  0
 39 64  1  0  0  0
 39 67  2  0  0  0
 40 52  1  0  0  0
 40 53  2  0  0  0
 40 58  1  0  0  0
 41110  1  0  0  0
 41111  1  0  0  0
 41112  1  0  0  0
 41 48  1  0  0  0
 42 43  1  0  0  0
 42 66  1  0  0  0
 42113  1  0  0  0
 42114  1  0  0  0
 43 44  1  0  0  0
 44115  1  0  0  0
 45 46  2  0  0  0
 45116  1  0  0  0
 46117  1  0  0  0
 47118  1  0  0  0
 47119  1  0  0  0
 48 56  1  0  0  0
 48 65  1  0  0  0
 48120  1  0  0  0
 49 50  1  0  0  0
 49 53  1  0  0  0
 49 64  1  0  0  0
 49121  1  0  0  0
 50 51  1  0  0  0
 50122  1  0  0  0
 50123  1  0  0  0
 51 52  1  0  0  0
 51124  1  0  0  0
 51125  1  0  0  0
 52126  1  0  0  0
 52127  1  0  0  0
 53 54  1  0  0  0
 54 55  2  0  0  0
 54128  1  0  0  0
 55 57  1  0  0  0
 55129  1  0  0  0
 56 69  2  0  0  0
 57 58  2  0  0  0
 57130  1  0  0  0
 58131  1  0  0  0
 59 60  1  0  0  0
 59 61  1  0  0  0
 59 62  1  0  0  0
 60132  1  0  0  0
 60133  1  0  0  0
 60134  1  0  0  0
 61135  1  0  0  0
 61136  1  0  0  0
 61137  1  0  0  0
 62138  1  0  0  0
 62139  1  0  0  0
 62140  1  0  0  0
 63 65  1  0  0  0
 63141  1  0  0  0
 63142  1  0  0  0
 63143  1  0  0  0
 64144  1  0  0  0
 65145  1  0  0  0
 68 83  1  0  0  0
 71 72  2  0  0  0
 71 73  1  0  0  0
 71146  1  0  0  0
 72 75  1  0  0  0
 72147  1  0  0  0
 73 76  2  0  0  0
 73148  1  0  0  0
 74 75  2  0  0  0
 74 76  1  0  0  0
 74149  1  0  0  0
 75 84  1  0  0  0
 76 85  1  0  0  0
 77 78  2  0  0  0
 77 79  1  0  0  0
 77 83  1  0  0  0
 78 82  1  0  0  0
 78 84  1  0  0  0
 79 80  1  0  0  0
 79 86  2  0  0  0
 80 81  1  0  0  0
 80150  1  0  0  0
 80151  1  0  0  0
 81 84  1  0  0  0
 81152  1  0  0  0
 81153  1  0  0  0
 82154  1  0  0  0
 82155  1  0  0  0
 82156  1  0  0  0
 83157  1  0  0  0
 83158  1  0  0  0
 85159  1  0  0  0
M  ISO  4   1 100  68 101  83 101  85 100
M  END
> <chiral flag>
0

> <version>
0

> <s_m_source_file>
/data/baiqing/PycharmProjects/Reinvent-master-3.2/result/LINK_invent/BTK/process_docking_weight1_custom_product_contain_oxygen_bond_distance_aromatic_linkinvent_7_9_3/rearranged_h_0105.sdf

> <i_m_source_file_index>
64

> <r_mmod_Potential_Energy-OPLS-2005>
217.983825683594

> <r_mmod_Stretch_Energy-OPLS-2005>
134.375518798828

> <r_mmod_Bend_Energy-OPLS-2005>
162.40901184082

> <r_mmod_Torsional_Energy-OPLS-2005>
219.686584472656

> <r_mmod_Improper_Torsional_Energy-OPLS-2005>
5.25827932357788

> <r_mmod_Van_der_Waal_Energy-OPLS-2005>
163.915939331055

> <r_mmod_Electrostatic_Energy-OPLS-2005>
-331.047058105469

> <r_mmod_Solvation_Energy-OPLS-2005>
-227.947692871094

> <b_mmod_Minimization_Converged-OPLS-2005>
0

> <r_mmod_RMS_Derivative-OPLS-2005>
2.69921565055847

$$$$
64
                    3D
 Structure written by MMmdl.
163171  0  0  1  0            999 V2000
  -30.7941  -14.3644   20.6527 C   0  0  0  0  0  0
  -30.4081  -12.2818   19.3926 C   0  0  0  0  0  0
  -29.4782  -12.5147   18.1878 C   0  0  0  0  0  0
  -28.0042  -12.3833   18.6098 C   0  0  0  0  0  0
  -27.6660  -13.2104   19.8778 C   0  0  2  0  0  0
  -28.7097  -12.9713   20.9936 C   0  0  0  0  0  0
  -25.2605  -13.8176   20.5687 C   0  0  0  0  0  0
  -24.1861  -13.0450   20.9166 C   0  0  0  0  0  0
  -24.6427  -11.6918   20.8744 C   0  0  0  0  0  0
  -23.9095  -10.4302   21.0419 C   0  0  0  0  0  0
  -24.3643   -9.4207   21.9198 C   0  0  0  0  0  0
  -23.6305   -8.2249   22.0760 C   0  0  0  0  0  0
  -22.4284   -8.0295   21.3552 C   0  0  0  0  0  0
  -21.9933   -9.0277   20.4652 C   0  0  0  0  0  0
  -22.7271  -10.2151   20.3063 C   0  0  0  0  0  0
  -21.6845   -6.0748   22.5288 C   0  0  0  0  0  0
  -21.4008   -6.5654   23.8225 C   0  0  0  0  0  0
  -21.3655   -5.6801   24.9186 C   0  0  0  0  0  0
  -21.6035   -4.3061   24.7229 C   0  0  0  0  0  0
  -21.8821   -3.8157   23.4349 C   0  0  0  0  0  0
  -21.9195   -4.6978   22.3408 C   0  0  0  0  0  0
  -22.7878  -13.5237   21.1833 C   0  0  0  0  0  0
  -22.1658   -4.2165   21.0980 F   0  0  0  0  0  0
  -21.5633   -3.4546   25.7739 F   0  0  0  0  0  0
  -30.0510  -13.2458   20.4465 N   0  0  0  0  0  0
  -26.3062  -12.9372   20.3395 N   0  0  0  0  0  0
  -25.9357  -11.6519   20.5785 N   0  0  0  0  0  0
  -22.0507  -12.8241   22.0379 N   0  0  0  0  0  0
  -25.4320  -15.1899   20.4085 N   0  0  0  0  0  0
  -31.8214  -14.6107   20.0156 O   0  0  0  0  0  0
  -21.6632   -6.8900   21.4253 O   0  0  0  0  0  0
  -22.3574  -14.5548   20.6670 O   0  0  0  0  0  0
  -24.6132  -31.8682   23.2096 C   0  0  0  0  0  0
  -25.9022  -32.4834   23.8402 C   0  0  1  0  0  0
  -27.2500  -27.4509   20.0832 C   0  0  0  0  0  0
  -25.5869  -33.8623   24.2338 N   0  0  0  0  0  0
  -23.4011  -30.4894   21.5520 C   0  0  2  0  0  0
  -24.8502  -28.9527   20.1198 C   0  0  0  0  0  0
  -22.7405  -29.4657   22.5030 C   0  0  0  0  0  0
  -18.0259  -28.1351   22.8512 C   0  0  0  0  0  0
  -24.1493  -36.7314   23.2639 C   0  0  0  0  0  0
  -25.9289  -30.8385   21.3629 C   0  0  0  0  0  0
  -26.0070  -29.4714   20.7115 C   0  0  0  0  0  0
  -27.2046  -28.7247   20.6943 C   0  0  0  0  0  0
  -26.0691  -26.9336   19.5027 C   0  0  0  0  0  0
  -24.8737  -27.6810   19.5176 C   0  0  0  0  0  0
  -23.6076  -29.8150   20.1706 C   0  0  0  0  0  0
  -25.4111  -36.3119   24.0346 C   0  0  1  0  0  0
  -20.5861  -28.3642   23.1355 C   0  0  2  0  0  0
  -20.6755  -26.9388   22.5446 C   0  0  0  0  0  0
  -19.5743  -26.6372   21.5223 C   0  0  0  0  0  0
  -18.1904  -26.7900   22.1618 C   0  0  0  0  0  0
  -19.1516  -28.8806   23.2921 C   0  0  0  0  0  0
  -18.9434  -30.1405   23.8945 C   0  0  0  0  0  0
  -17.6444  -30.6582   24.0559 C   0  0  0  0  0  0
  -25.9030  -34.9481   23.5157 C   0  0  0  0  0  0
  -16.5332  -29.9090   23.6319 C   0  0  0  0  0  0
  -16.7251  -28.6484   23.0379 C   0  0  0  0  0  0
  -26.4447  -31.6610   25.0729 C   0  0  0  0  0  0
  -25.3679  -31.3708   26.1456 C   0  0  0  0  0  0
  -27.0282  -30.3057   24.6098 C   0  0  0  0  0  0
  -27.6037  -32.4318   25.7469 C   0  0  0  0  0  0
  -27.5584  -37.1816   24.8461 C   0  0  0  0  0  0
  -21.4136  -29.3012   22.3761 N   0  0  0  0  0  0
  -26.4300  -37.3805   23.9402 N   0  0  0  0  0  0
  -24.6658  -31.0810   22.0986 N   0  0  0  0  0  0
  -23.4196  -28.8196   23.3071 O   0  0  0  0  0  0
  -28.4642  -26.7936   20.0820 O   0  0  0  0  0  0
  -26.5622  -34.8922   22.4729 O   0  0  0  0  0  0
  -23.5333  -32.1391   23.7515 O   0  0  0  0  0  0
  -29.0433  -18.8248   24.1315 C   0  0  0  0  0  0
  -28.8322  -19.8418   23.1806 C   0  0  0  0  0  0
  -30.0783  -18.5539   21.5425 C   0  0  0  0  0  0
  -29.7777  -17.6664   23.8036 C   0  0  0  0  0  0
  -30.3062  -17.5311   22.4947 C   0  0  0  0  0  0
  -29.3608  -19.7259   21.8721 C   0  0  0  0  0  0
  -31.2506  -16.8832   25.7246 C   0  0  0  0  0  0
  -29.9976  -16.6110   24.8813 C   0  0  0  0  0  0
  -31.1612  -16.3334   22.0963 C   0  0  0  0  0  0
  -28.2727  -24.3865   20.5199 C   0  0  0  0  0  0
  -28.8821  -23.0129   20.1651 C   0  0  0  0  0  0
  -28.6124  -25.4942   19.5034 C   0  0  0  0  0  0
  -28.6675  -21.9612   21.2714 C   0  0  0  0  0  0
  -30.3855  -15.1823   21.6295 N   0  0  0  0  0  0
  -29.2313  -20.7007   20.8981 O   0  0  0  0  0  0
  -31.4521  -12.3597   19.0813 H   0  0  0  0  0  0
  -30.2935  -11.2646   19.7679 H   0  0  0  0  0  0
  -29.7008  -11.7976   17.3958 H   0  0  0  0  0  0
  -29.6580  -13.5034   17.7638 H   0  0  0  0  0  0
  -27.8065  -11.3264   18.7907 H   0  0  0  0  0  0
  -27.3516  -12.6770   17.7864 H   0  0  0  0  0  0
  -27.7194  -14.2621   19.5970 H   0  0  0  0  0  0
  -28.6695  -11.9351   21.3323 H   0  0  0  0  0  0
  -28.4699  -13.5747   21.8690 H   0  0  0  0  0  0
  -25.2795   -9.5666   22.4768 H   0  0  0  0  0  0
  -24.0007   -7.4634   22.7485 H   0  0  0  0  0  0
  -21.0865   -8.8821   19.8954 H   0  0  0  0  0  0
  -22.3764  -10.9699   19.6170 H   0  0  0  0  0  0
  -21.1994   -7.6164   23.9738 H   0  0  0  0  0  0
  -21.1471   -6.0527   25.9089 H   0  0  0  0  0  0
  -22.0600   -2.7621   23.2848 H   0  0  0  0  0  0
  -22.4121  -11.9914   22.4782 H   0  0  0  0  0  0
  -21.1116  -13.1284   22.2553 H   0  0  0  0  0  0
  -24.6702  -15.8490   20.5241 H   0  0  0  0  0  0
  -26.2957  -15.6300   20.1143 H   0  0  0  0  0  0
  -26.7104  -32.5615   23.1188 H   0  0  0  0  0  0
  -24.9952  -33.9757   25.0441 H   0  0  0  0  0  0
  -22.6871  -31.3026   21.4140 H   0  0  0  0  0  0
  -23.3761  -35.9644   23.3299 H   0  0  0  0  0  0
  -24.3563  -36.8921   22.2046 H   0  0  0  0  0  0
  -23.7239  -37.6514   23.6660 H   0  0  0  0  0  0
  -26.0379  -31.6082   20.5977 H   0  0  0  0  0  0
  -26.8175  -30.8951   21.9816 H   0  0  0  0  0  0
  -28.1003  -29.1264   21.1498 H   0  0  0  0  0  0
  -26.0519  -25.9618   19.0324 H   0  0  0  0  0  0
  -23.9825  -27.2721   19.0637 H   0  0  0  0  0  0
  -23.7017  -30.5867   19.4061 H   0  0  0  0  0  0
  -22.7327  -29.2258   19.8891 H   0  0  0  0  0  0
  -25.1297  -36.1976   25.0845 H   0  0  0  0  0  0
  -20.9967  -28.3243   24.1477 H   0  0  0  0  0  0
  -20.5683  -26.2244   23.3625 H   0  0  0  0  0  0
  -21.6612  -26.7447   22.1214 H   0  0  0  0  0  0
  -19.6918  -25.6303   21.1220 H   0  0  0  0  0  0
  -19.6678  -27.3205   20.6780 H   0  0  0  0  0  0
  -17.4171  -26.6652   21.4019 H   0  0  0  0  0  0
  -18.0272  -26.0040   22.9005 H   0  0  0  0  0  0
  -19.7915  -30.7173   24.2373 H   0  0  0  0  0  0
  -17.5011  -31.6287   24.5111 H   0  0  0  0  0  0
  -15.5335  -30.3015   23.7621 H   0  0  0  0  0  0
  -15.8630  -28.0820   22.7123 H   0  0  0  0  0  0
  -24.5923  -30.6974   25.7788 H   0  0  0  0  0  0
  -24.8757  -32.2833   26.4847 H   0  0  0  0  0  0
  -25.8006  -30.8948   27.0260 H   0  0  0  0  0  0
  -26.2845  -29.6822   24.1125 H   0  0  0  0  0  0
  -27.4013  -29.7301   25.4576 H   0  0  0  0  0  0
  -27.8695  -30.4368   23.9281 H   0  0  0  0  0  0
  -27.2714  -33.3658   26.2014 H   0  0  0  0  0  0
  -28.3864  -32.6784   25.0284 H   0  0  0  0  0  0
  -28.0667  -31.8422   26.5388 H   0  0  0  0  0  0
  -28.2630  -38.0094   24.7528 H   0  0  0  0  0  0
  -28.1065  -36.2630   24.6301 H   0  0  0  0  0  0
  -27.2287  -37.1475   25.8860 H   0  0  0  0  0  0
  -20.9269  -29.8693   21.6973 H   0  0  0  0  0  0
  -26.0205  -38.2902   24.1383 H   0  0  0  0  0  0
  -28.6433  -18.9465   25.1285 H   0  0  0  0  0  0
  -28.2631  -20.7071   23.4869 H   0  0  0  0  0  0
  -30.4896  -18.4511   20.5472 H   0  0  0  0  0  0
  -31.4339  -16.0652   26.4220 H   0  0  0  0  0  0
  -31.1361  -17.7979   26.3069 H   0  0  0  0  0  0
  -32.1389  -16.9912   25.1013 H   0  0  0  0  0  0
  -30.0536  -15.6165   24.4389 H   0  0  0  0  0  0
  -29.1248  -16.5832   25.5354 H   0  0  0  0  0  0
  -31.7870  -16.0150   22.9303 H   0  0  0  0  0  0
  -31.8684  -16.6728   21.3365 H   0  0  0  0  0  0
  -28.6427  -24.6858   21.5001 H   0  0  0  0  0  0
  -27.1905  -24.2983   20.6190 H   0  0  0  0  0  0
  -29.9542  -23.1272   19.9994 H   0  0  0  0  0  0
  -28.4686  -22.6596   19.2196 H   0  0  0  0  0  0
  -28.0708  -25.3775   18.5649 H   0  0  0  0  0  0
  -29.6670  -25.4123   19.2348 H   0  0  0  0  0  0
  -27.6013  -21.8441   21.4720 H   0  0  0  0  0  0
  -29.1442  -22.3235   22.1845 H   0  0  0  0  0  0
  -29.5387  -14.9439   22.1219 H   0  0  0  0  0  0
  1 25  1  0  0  0
  1 30  2  0  0  0
  1 84  1  0  0  0
  2  3  1  0  0  0
  2 25  1  0  0  0
  2 86  1  0  0  0
  2 87  1  0  0  0
  3  4  1  0  0  0
  3 88  1  0  0  0
  3 89  1  0  0  0
  4  5  1  0  0  0
  4 90  1  0  0  0
  4 91  1  0  0  0
  5  6  1  0  0  0
  5 26  1  0  0  0
  5 92  1  0  0  0
  6 25  1  0  0  0
  6 93  1  0  0  0
  6 94  1  0  0  0
  7  8  2  0  0  0
  7 26  1  0  0  0
  7 29  1  0  0  0
  8  9  1  0  0  0
  8 22  1  0  0  0
  9 10  1  0  0  0
  9 27  2  0  0  0
 10 11  2  0  0  0
 10 15  1  0  0  0
 11 12  1  0  0  0
 11 95  1  0  0  0
 12 13  2  0  0  0
 12 96  1  0  0  0
 13 14  1  0  0  0
 13 31  1  0  0  0
 14 15  2  0  0  0
 14 97  1  0  0  0
 15 98  1  0  0  0
 16 17  2  0  0  0
 16 21  1  0  0  0
 16 31  1  0  0  0
 17 18  1  0  0  0
 17 99  1  0  0  0
 18 19  2  0  0  0
 18100  1  0  0  0
 19 20  1  0  0  0
 19 24  1  0  0  0
 20 21  2  0  0  0
 20101  1  0  0  0
 21 23  1  0  0  0
 22 28  1  0  0  0
 22 32  2  0  0  0
 26 27  1  0  0  0
 28102  1  0  0  0
 28103  1  0  0  0
 29104  1  0  0  0
 29105  1  0  0  0
 33 34  1  0  0  0
 33 66  1  0  0  0
 33 70  2  0  0  0
 34 36  1  0  0  0
 34 59  1  0  0  0
 34106  1  0  0  0
 35 44  2  0  0  0
 35 45  1  0  0  0
 35 68  1  0  0  0
 36 56  1  0  0  0
 36107  1  0  0  0
 37 39  1  0  0  0
 37 47  1  0  0  0
 37 66  1  0  0  0
 37108  1  0  0  0
 38 43  2  0  0  0
 38 46  1  0  0  0
 38 47  1  0  0  0
 39 64  1  0  0  0
 39 67  2  0  0  0
 40 52  1  0  0  0
 40 53  2  0  0  0
 40 58  1  0  0  0
 41109  1  0  0  0
 41110  1  0  0  0
 41111  1  0  0  0
 41 48  1  0  0  0
 42 43  1  0  0  0
 42 66  1  0  0  0
 42112  1  0  0  0
 42113  1  0  0  0
 43 44  1  0  0  0
 44114  1  0  0  0
 45 46  2  0  0  0
 45115  1  0  0  0
 46116  1  0  0  0
 47117  1  0  0  0
 47118  1  0  0  0
 48 56  1  0  0  0
 48 65  1  0  0  0
 48119  1  0  0  0
 49 50  1  0  0  0
 49 53  1  0  0  0
 49 64  1  0  0  0
 49120  1  0  0  0
 50 51  1  0  0  0
 50121  1  0  0  0
 50122  1  0  0  0
 51 52  1  0  0  0
 51123  1  0  0  0
 51124  1  0  0  0
 52125  1  0  0  0
 52126  1  0  0  0
 53 54  1  0  0  0
 54 55  2  0  0  0
 54127  1  0  0  0
 55 57  1  0  0  0
 55128  1  0  0  0
 56 69  2  0  0  0
 57 58  2  0  0  0
 57129  1  0  0  0
 58130  1  0  0  0
 59 60  1  0  0  0
 59 61  1  0  0  0
 59 62  1  0  0  0
 60131  1  0  0  0
 60132  1  0  0  0
 60133  1  0  0  0
 61134  1  0  0  0
 61135  1  0  0  0
 61136  1  0  0  0
 62137  1  0  0  0
 62138  1  0  0  0
 62139  1  0  0  0
 63 65  1  0  0  0
 63140  1  0  0  0
 63141  1  0  0  0
 63142  1  0  0  0
 64143  1  0  0  0
 65144  1  0  0  0
 68 82  1  0  0  0
 71 72  2  0  0  0
 71 74  1  0  0  0
 71145  1  0  0  0
 72 76  1  0  0  0
 72146  1  0  0  0
 73 75  1  0  0  0
 73 76  2  0  0  0
 73147  1  0  0  0
 74 75  2  0  0  0
 74 78  1  0  0  0
 75 79  1  0  0  0
 76 85  1  0  0  0
 77 78  1  0  0  0
 77148  1  0  0  0
 77149  1  0  0  0
 77150  1  0  0  0
 78151  1  0  0  0
 78152  1  0  0  0
 79 84  1  0  0  0
 79153  1  0  0  0
 79154  1  0  0  0
 80 81  1  0  0  0
 80 82  1  0  0  0
 80155  1  0  0  0
 80156  1  0  0  0
 81 83  1  0  0  0
 81157  1  0  0  0
 81158  1  0  0  0
 82159  1  0  0  0
 82160  1  0  0  0
 83 85  1  0  0  0
 83161  1  0  0  0
 83162  1  0  0  0
 84163  1  0  0  0
M  ISO  4   1 100  68 101  82 101  84 100
M  END
> <chiral flag>
0

> <version>
0

> <s_m_source_file>
/data/baiqing/PycharmProjects/Reinvent-master-3.2/result/LINK_invent/BTK/process_docking_weight1_custom_product_contain_oxygen_bond_distance_aromatic_linkinvent_7_9_3/rearranged_h_0105.sdf

> <i_m_source_file_index>
65

> <r_mmod_Potential_Energy-OPLS-2005>
-139.13639831543

> <r_mmod_Stretch_Energy-OPLS-2005>
35.3434562683105

> <r_mmod_Bend_Energy-OPLS-2005>
105.196258544922

> <r_mmod_Torsional_Energy-OPLS-2005>
189.706787109375

> <r_mmod_Improper_Torsional_Energy-OPLS-2005>
1.87252402305603

> <r_mmod_Van_der_Waal_Energy-OPLS-2005>
159.224639892578

> <r_mmod_Electrostatic_Energy-OPLS-2005>
-435.899108886719

> <r_mmod_Solvation_Energy-OPLS-2005>
-203.37873840332

> <b_mmod_Minimization_Converged-OPLS-2005>
0

> <r_mmod_RMS_Derivative-OPLS-2005>
2.85281443595886

$$$$
65
                    3D
 Structure written by MMmdl.
160169  0  0  1  0            999 V2000
  -30.5517  -14.8674   20.4346 C   0  0  0  0  0  0
  -30.4440  -12.5284   19.5121 C   0  0  0  0  0  0
  -29.5288  -12.5369   18.2645 C   0  0  0  0  0  0
  -28.0559  -12.3360   18.6691 C   0  0  0  0  0  0
  -27.6429  -13.2440   19.8583 C   0  0  2  0  0  0
  -28.6814  -13.2125   21.0025 C   0  0  0  0  0  0
  -25.2502  -13.8210   20.5724 C   0  0  0  0  0  0
  -24.1796  -13.0445   20.9213 C   0  0  0  0  0  0
  -24.6399  -11.6926   20.8743 C   0  0  0  0  0  0
  -23.9075  -10.4298   21.0398 C   0  0  0  0  0  0
  -24.3623   -9.4214   21.9178 C   0  0  0  0  0  0
  -23.6300   -8.2249   22.0750 C   0  0  0  0  0  0
  -22.4283   -8.0285   21.3541 C   0  0  0  0  0  0
  -21.9915   -9.0258   20.4644 C   0  0  0  0  0  0
  -22.7246  -10.2139   20.3052 C   0  0  0  0  0  0
  -21.6851   -6.0738   22.5280 C   0  0  0  0  0  0
  -21.4014   -6.5638   23.8216 C   0  0  0  0  0  0
  -21.3664   -5.6790   24.9175 C   0  0  0  0  0  0
  -21.6048   -4.3054   24.7224 C   0  0  0  0  0  0
  -21.8818   -3.8147   23.4343 C   0  0  0  0  0  0
  -21.9191   -4.6965   22.3400 C   0  0  0  0  0  0
  -22.7815  -13.5225   21.1865 C   0  0  0  0  0  0
  -22.1661   -4.2149   21.0978 F   0  0  0  0  0  0
  -21.5629   -3.4539   25.7734 F   0  0  0  0  0  0
  -29.9779  -13.6028   20.4319 N   0  0  0  0  0  0
  -26.2943  -12.9444   20.3310 N   0  0  0  0  0  0
  -25.9340  -11.6570   20.5749 N   0  0  0  0  0  0
  -22.0455  -12.8224   22.0425 N   0  0  0  0  0  0
  -25.4185  -15.1939   20.4168 N   0  0  0  0  0  0
  -31.7223  -14.9731   20.0518 O   0  0  0  0  0  0
  -21.6643   -6.8888   21.4240 O   0  0  0  0  0  0
  -22.3499  -14.5527   20.6704 O   0  0  0  0  0  0
  -24.6386  -31.8479   23.1930 C   0  0  0  0  0  0
  -25.9177  -32.4713   23.8309 C   0  0  1  0  0  0
  -27.2214  -27.1749   20.1428 C   0  0  0  0  0  0
  -25.5943  -33.8518   24.2225 N   0  0  0  0  0  0
  -23.4400  -30.4681   21.5362 C   0  0  2  0  0  0
  -24.8905  -28.9006   20.1081 C   0  0  0  0  0  0
  -22.7543  -29.4569   22.4873 C   0  0  0  0  0  0
  -18.0309  -28.1387   22.8496 C   0  0  0  0  0  0
  -24.1493  -36.7260   23.2641 C   0  0  0  0  0  0
  -25.9927  -30.7298   21.3906 C   0  0  0  0  0  0
  -26.0624  -29.3449   20.7318 C   0  0  0  0  0  0
  -27.2238  -28.4936   20.7409 C   0  0  0  0  0  0
  -26.0288  -26.8296   19.4658 C   0  0  0  0  0  0
  -24.8841  -27.6550   19.4626 C   0  0  0  0  0  0
  -23.6642  -29.7968   20.1548 C   0  0  0  0  0  0
  -25.4120  -36.3041   24.0331 C   0  0  1  0  0  0
  -20.5920  -28.3709   23.1255 C   0  0  2  0  0  0
  -20.6793  -26.9419   22.5408 C   0  0  0  0  0  0
  -19.5764  -26.6378   21.5217 C   0  0  0  0  0  0
  -18.1945  -26.7932   22.1629 C   0  0  0  0  0  0
  -19.1565  -28.8863   23.2870 C   0  0  0  0  0  0
  -18.9480  -30.1464   23.8885 C   0  0  0  0  0  0
  -17.6477  -30.6587   24.0558 C   0  0  0  0  0  0
  -25.9064  -34.9415   23.5081 C   0  0  0  0  0  0
  -16.5367  -29.9080   23.6335 C   0  0  0  0  0  0
  -16.7293  -28.6496   23.0366 C   0  0  0  0  0  0
  -26.4515  -31.6573   25.0735 C   0  0  0  0  0  0
  -25.3702  -31.3759   26.1432 C   0  0  0  0  0  0
  -27.0397  -30.2982   24.6299 C   0  0  0  0  0  0
  -27.6054  -32.4330   25.7504 C   0  0  0  0  0  0
  -27.5580  -37.1791   24.8466 C   0  0  0  0  0  0
  -21.4240  -29.3045   22.3620 N   0  0  0  0  0  0
  -26.4290  -37.3748   23.9410 N   0  0  0  0  0  0
  -24.7093  -31.0369   22.0945 N   0  0  0  0  0  0
  -23.4208  -28.8117   23.3004 O   0  0  0  0  0  0
  -28.3024  -26.2381   20.2487 O   0  0  0  0  0  0
  -26.5645  -34.8908   22.4655 O   0  0  0  0  0  0
  -23.5518  -32.1339   23.7178 O   0  0  0  0  0  0
  -29.3585  -19.8996   20.9997 C   0  0  0  0  0  0
  -29.5046  -18.5132   21.1223 C   0  0  0  0  0  0
  -29.4416  -20.2740   18.6987 C   0  0  0  0  0  0
  -29.6536  -19.0442   18.1430 C   0  0  0  0  0  0
  -29.3466  -20.7963   19.9487 C   0  0  0  0  0  0
  -29.8350  -17.4282   20.3162 C   0  0  0  0  0  0
  -29.9399  -17.7259   18.8478 C   0  0  0  0  0  0
  -30.8719  -22.6808   19.9165 C   0  0  0  0  0  0
  -31.1773  -23.9307   20.7250 C   0  0  0  0  0  0
  -29.9515  -24.0445   21.6192 C   0  0  0  0  0  0
  -28.8421  -23.4627   20.7394 C   0  0  1  0  0  0
  -29.5904  -18.9107   16.6214 C   0  0  0  0  0  0
  -28.2418  -24.7453   19.8525 C   0  0  0  0  0  0
  -29.5840  -22.2741   20.0454 N   0  0  0  0  0  0
  -29.7662  -15.9970   20.7405 N   0  0  0  0  0  0
  -30.2456  -16.7762   18.1183 O   0  0  0  0  0  0
  -31.7727  -22.0865   19.3141 O   0  0  0  0  0  0
  -31.4846  -12.6679   19.2126 H   0  0  0  0  0  0
  -30.4094  -11.5591   20.0122 H   0  0  0  0  0  0
  -29.8377  -11.7611   17.5630 H   0  0  0  0  0  0
  -29.6374  -13.4870   17.7381 H   0  0  0  0  0  0
  -27.9307  -11.2886   18.9454 H   0  0  0  0  0  0
  -27.4006  -12.5062   17.8138 H   0  0  0  0  0  0
  -27.6277  -14.2609   19.4641 H   0  0  0  0  0  0
  -28.7399  -12.2187   21.4493 H   0  0  0  0  0  0
  -28.3910  -13.8909   21.8061 H   0  0  0  0  0  0
  -25.2766   -9.5691   22.4753 H   0  0  0  0  0  0
  -24.0006   -7.4641   22.7469 H   0  0  0  0  0  0
  -21.0846   -8.8779   19.8954 H   0  0  0  0  0  0
  -22.3701  -10.9674   19.6163 H   0  0  0  0  0  0
  -21.2006   -7.6146   23.9721 H   0  0  0  0  0  0
  -21.1490   -6.0517   25.9080 H   0  0  0  0  0  0
  -22.0590   -2.7606   23.2839 H   0  0  0  0  0  0
  -22.4069  -11.9903   22.4843 H   0  0  0  0  0  0
  -21.1069  -13.1243   22.2601 H   0  0  0  0  0  0
  -24.6491  -15.8446   20.5321 H   0  0  0  0  0  0
  -26.2658  -15.6367   20.0848 H   0  0  0  0  0  0
  -26.7226  -32.5338   23.1030 H   0  0  0  0  0  0
  -25.0073  -33.9643   25.0361 H   0  0  0  0  0  0
  -22.7402  -31.2926   21.3849 H   0  0  0  0  0  0
  -23.3762  -35.9584   23.3291 H   0  0  0  0  0  0
  -24.3549  -36.8898   22.2051 H   0  0  0  0  0  0
  -23.7258  -37.6462   23.6672 H   0  0  0  0  0  0
  -26.1488  -31.4863   20.6204 H   0  0  0  0  0  0
  -26.8618  -30.7757   22.0353 H   0  0  0  0  0  0
  -28.1115  -28.8232   21.2624 H   0  0  0  0  0  0
  -25.9352  -25.8935   18.9396 H   0  0  0  0  0  0
  -23.9914  -27.3140   18.9561 H   0  0  0  0  0  0
  -23.7946  -30.5698   19.3969 H   0  0  0  0  0  0
  -22.7807  -29.2343   19.8484 H   0  0  0  0  0  0
  -25.1311  -36.1863   25.0828 H   0  0  0  0  0  0
  -21.0028  -28.3285   24.1372 H   0  0  0  0  0  0
  -20.5689  -26.2320   23.3621 H   0  0  0  0  0  0
  -21.6658  -26.7437   22.1199 H   0  0  0  0  0  0
  -19.6919  -25.6284   21.1253 H   0  0  0  0  0  0
  -19.6691  -27.3183   20.6742 H   0  0  0  0  0  0
  -17.4221  -26.6701   21.4021 H   0  0  0  0  0  0
  -18.0334  -26.0068   22.9016 H   0  0  0  0  0  0
  -19.7946  -30.7293   24.2250 H   0  0  0  0  0  0
  -17.5021  -31.6266   24.5158 H   0  0  0  0  0  0
  -15.5364  -30.2971   23.7663 H   0  0  0  0  0  0
  -15.8697  -28.0795   22.7105 H   0  0  0  0  0  0
  -24.5865  -30.7133   25.7740 H   0  0  0  0  0  0
  -24.8913  -32.2952   26.4815 H   0  0  0  0  0  0
  -25.7977  -30.8938   27.0235 H   0  0  0  0  0  0
  -26.3036  -29.6693   24.1289 H   0  0  0  0  0  0
  -27.4018  -29.7281   25.4864 H   0  0  0  0  0  0
  -27.8923  -30.4238   23.9623 H   0  0  0  0  0  0
  -27.2657  -33.3638   26.2052 H   0  0  0  0  0  0
  -28.3874  -32.6885   25.0343 H   0  0  0  0  0  0
  -28.0712  -31.8481   26.5444 H   0  0  0  0  0  0
  -28.2604  -38.0083   24.7503 H   0  0  0  0  0  0
  -28.1081  -36.2618   24.6305 H   0  0  0  0  0  0
  -27.2287  -37.1447   25.8866 H   0  0  0  0  0  0
  -20.9440  -29.8733   21.6783 H   0  0  0  0  0  0
  -26.0162  -38.2825   24.1388 H   0  0  0  0  0  0
  -29.2379  -20.3874   21.9585 H   0  0  0  0  0  0
  -29.3795  -18.2061   22.1508 H   0  0  0  0  0  0
  -29.3345  -21.0415   17.9438 H   0  0  0  0  0  0
  -31.2644  -24.7831   20.0509 H   0  0  0  0  0  0
  -32.1022  -23.8345   21.2948 H   0  0  0  0  0  0
  -29.7605  -25.0660   21.9491 H   0  0  0  0  0  0
  -30.0846  -23.4363   22.5153 H   0  0  0  0  0  0
  -28.0495  -23.0733   21.3794 H   0  0  0  0  0  0
  -29.3228  -19.8463   16.1302 H   0  0  0  0  0  0
  -28.8414  -18.1709   16.3339 H   0  0  0  0  0  0
  -30.5546  -18.5923   16.2228 H   0  0  0  0  0  0
  -27.2146  -24.4613   19.6463 H   0  0  0  0  0  0
  -28.7278  -24.7102   18.8776 H   0  0  0  0  0  0
  -28.9682  -15.7844   21.3187 H   0  0  0  0  0  0
  1 25  1  0  0  0
  1 30  2  0  0  0
  1 85  1  0  0  0
  2  3  1  0  0  0
  2 25  1  0  0  0
  2 88  1  0  0  0
  2 89  1  0  0  0
  3  4  1  0  0  0
  3 90  1  0  0  0
  3 91  1  0  0  0
  4  5  1  0  0  0
  4 92  1  0  0  0
  4 93  1  0  0  0
  5  6  1  0  0  0
  5 26  1  0  0  0
  5 94  1  0  0  0
  6 25  1  0  0  0
  6 95  1  0  0  0
  6 96  1  0  0  0
  7  8  2  0  0  0
  7 26  1  0  0  0
  7 29  1  0  0  0
  8  9  1  0  0  0
  8 22  1  0  0  0
  9 10  1  0  0  0
  9 27  2  0  0  0
 10 11  2  0  0  0
 10 15  1  0  0  0
 11 12  1  0  0  0
 11 97  1  0  0  0
 12 13  2  0  0  0
 12 98  1  0  0  0
 13 14  1  0  0  0
 13 31  1  0  0  0
 14 15  2  0  0  0
 14 99  1  0  0  0
 15100  1  0  0  0
 16 17  2  0  0  0
 16 21  1  0  0  0
 16 31  1  0  0  0
 17 18  1  0  0  0
 17101  1  0  0  0
 18 19  2  0  0  0
 18102  1  0  0  0
 19 20  1  0  0  0
 19 24  1  0  0  0
 20 21  2  0  0  0
 20103  1  0  0  0
 21 23  1  0  0  0
 22 28  1  0  0  0
 22 32  2  0  0  0
 26 27  1  0  0  0
 28104  1  0  0  0
 28105  1  0  0  0
 29106  1  0  0  0
 29107  1  0  0  0
 33 34  1  0  0  0
 33 66  1  0  0  0
 33 70  2  0  0  0
 34 36  1  0  0  0
 34 59  1  0  0  0
 34108  1  0  0  0
 35 44  2  0  0  0
 35 45  1  0  0  0
 35 68  1  0  0  0
 36 56  1  0  0  0
 36109  1  0  0  0
 37 39  1  0  0  0
 37 47  1  0  0  0
 37 66  1  0  0  0
 37110  1  0  0  0
 38 43  2  0  0  0
 38 46  1  0  0  0
 38 47  1  0  0  0
 39 64  1  0  0  0
 39 67  2  0  0  0
 40 52  1  0  0  0
 40 53  2  0  0  0
 40 58  1  0  0  0
 41111  1  0  0  0
 41112  1  0  0  0
 41113  1  0  0  0
 41 48  1  0  0  0
 42 43  1  0  0  0
 42 66  1  0  0  0
 42114  1  0  0  0
 42115  1  0  0  0
 43 44  1  0  0  0
 44116  1  0  0  0
 45 46  2  0  0  0
 45117  1  0  0  0
 46118  1  0  0  0
 47119  1  0  0  0
 47120  1  0  0  0
 48 56  1  0  0  0
 48 65  1  0  0  0
 48121  1  0  0  0
 49 50  1  0  0  0
 49 53  1  0  0  0
 49 64  1  0  0  0
 49122  1  0  0  0
 50 51  1  0  0  0
 50123  1  0  0  0
 50124  1  0  0  0
 51 52  1  0  0  0
 51125  1  0  0  0
 51126  1  0  0  0
 52127  1  0  0  0
 52128  1  0  0  0
 53 54  1  0  0  0
 54 55  2  0  0  0
 54129  1  0  0  0
 55 57  1  0  0  0
 55130  1  0  0  0
 56 69  2  0  0  0
 57 58  2  0  0  0
 57131  1  0  0  0
 58132  1  0  0  0
 59 60  1  0  0  0
 59 61  1  0  0  0
 59 62  1  0  0  0
 60133  1  0  0  0
 60134  1  0  0  0
 60135  1  0  0  0
 61136  1  0  0  0
 61137  1  0  0  0
 61138  1  0  0  0
 62139  1  0  0  0
 62140  1  0  0  0
 62141  1  0  0  0
 63 65  1  0  0  0
 63142  1  0  0  0
 63143  1  0  0  0
 63144  1  0  0  0
 64145  1  0  0  0
 65146  1  0  0  0
 68 83  1  0  0  0
 71 72  1  0  0  0
 71 75  2  0  0  0
 71147  1  0  0  0
 72 76  2  0  0  0
 72148  1  0  0  0
 73 74  2  0  0  0
 73 75  1  0  0  0
 73149  1  0  0  0
 74 77  1  0  0  0
 74 82  1  0  0  0
 75 84  1  0  0  0
 76 77  1  0  0  0
 76 85  1  0  0  0
 77 86  2  0  0  0
 78 79  1  0  0  0
 78 84  1  0  0  0
 78 87  2  0  0  0
 79 80  1  0  0  0
 79150  1  0  0  0
 79151  1  0  0  0
 80 81  1  0  0  0
 80152  1  0  0  0
 80153  1  0  0  0
 81 83  1  0  0  0
 81 84  1  0  0  0
 81154  1  0  0  0
 82155  1  0  0  0
 82156  1  0  0  0
 82157  1  0  0  0
 83158  1  0  0  0
 83159  1  0  0  0
 85160  1  0  0  0
M  ISO  4   1 100  68 101  83 101  85 100
M  END
> <chiral flag>
0

> <version>
0

> <s_m_source_file>
/data/baiqing/PycharmProjects/Reinvent-master-3.2/result/LINK_invent/BTK/process_docking_weight1_custom_product_contain_oxygen_bond_distance_aromatic_linkinvent_7_9_3/rearranged_h_0105.sdf

> <i_m_source_file_index>
66

> <r_mmod_Potential_Energy-OPLS-2005>
458.396270751953

> <r_mmod_Stretch_Energy-OPLS-2005>
204.194213867188

> <r_mmod_Bend_Energy-OPLS-2005>
287.580352783203

> <r_mmod_Torsional_Energy-OPLS-2005>
283.519073486328

> <r_mmod_Improper_Torsional_Energy-OPLS-2005>
6.58067512512207

> <r_mmod_Van_der_Waal_Energy-OPLS-2005>
141.950912475586

> <r_mmod_Electrostatic_Energy-OPLS-2005>
-364.414123535156

> <r_mmod_Solvation_Energy-OPLS-2005>
-247.938827514648

> <b_mmod_Minimization_Converged-OPLS-2005>
0

> <r_mmod_RMS_Derivative-OPLS-2005>
1.42615163326263

$$$$
66
                    3D
 Structure written by MMmdl.
154162  0  0  1  0            999 V2000
  -30.6976  -14.5465   20.5679 C   0  0  0  0  0  0
  -30.4175  -12.3576   19.4395 C   0  0  0  0  0  0
  -29.4939  -12.5263   18.2177 C   0  0  0  0  0  0
  -28.0184  -12.3616   18.6279 C   0  0  0  0  0  0
  -27.6518  -13.2090   19.8759 C   0  0  2  0  0  0
  -28.6973  -13.0525   21.0028 C   0  0  0  0  0  0
  -25.2549  -13.8158   20.5809 C   0  0  0  0  0  0
  -24.1801  -13.0408   20.9198 C   0  0  0  0  0  0
  -24.6378  -11.6883   20.8773 C   0  0  0  0  0  0
  -23.9053  -10.4272   21.0435 C   0  0  0  0  0  0
  -24.3612   -9.4181   21.9197 C   0  0  0  0  0  0
  -23.6277   -8.2223   22.0765 C   0  0  0  0  0  0
  -22.4248   -8.0283   21.3560 C   0  0  0  0  0  0
  -21.9882   -9.0254   20.4647 C   0  0  0  0  0  0
  -22.7236  -10.2119   20.3059 C   0  0  0  0  0  0
  -21.6833   -6.0745   22.5289 C   0  0  0  0  0  0
  -21.4005   -6.5646   23.8216 C   0  0  0  0  0  0
  -21.3667   -5.6805   24.9174 C   0  0  0  0  0  0
  -21.6024   -4.3062   24.7227 C   0  0  0  0  0  0
  -21.8819   -3.8154   23.4342 C   0  0  0  0  0  0
  -21.9178   -4.6975   22.3403 C   0  0  0  0  0  0
  -22.7836  -13.5234   21.1882 C   0  0  0  0  0  0
  -22.1668   -4.2157   21.0992 F   0  0  0  0  0  0
  -21.5578   -3.4545   25.7747 F   0  0  0  0  0  0
  -30.0214  -13.3651   20.4427 N   0  0  0  0  0  0
  -26.2977  -12.9334   20.3427 N   0  0  0  0  0  0
  -25.9304  -11.6484   20.5808 N   0  0  0  0  0  0
  -22.0468  -12.8223   22.0428 N   0  0  0  0  0  0
  -25.4241  -15.1899   20.4445 N   0  0  0  0  0  0
  -31.8115  -14.7066   20.0648 O   0  0  0  0  0  0
  -21.6607   -6.8899   21.4265 O   0  0  0  0  0  0
  -22.3531  -14.5550   20.6733 O   0  0  0  0  0  0
  -24.6219  -31.8664   23.2071 C   0  0  0  0  0  0
  -25.9091  -32.4795   23.8413 C   0  0  1  0  0  0
  -27.2353  -27.3779   20.1103 C   0  0  0  0  0  0
  -25.5931  -33.8608   24.2338 N   0  0  0  0  0  0
  -23.4137  -30.4871   21.5503 C   0  0  2  0  0  0
  -24.8641  -28.9511   20.1194 C   0  0  0  0  0  0
  -22.7450  -29.4648   22.4995 C   0  0  0  0  0  0
  -18.0266  -28.1368   22.8494 C   0  0  0  0  0  0
  -24.1504  -36.7285   23.2637 C   0  0  0  0  0  0
  -25.9492  -30.8159   21.3691 C   0  0  0  0  0  0
  -26.0283  -29.4457   20.7153 C   0  0  0  0  0  0
  -27.2199  -28.6694   20.7034 C   0  0  0  0  0  0
  -26.0438  -26.9195   19.5049 C   0  0  0  0  0  0
  -24.8683  -27.6897   19.5094 C   0  0  0  0  0  0
  -23.6274  -29.8194   20.1673 C   0  0  0  0  0  0
  -25.4117  -36.3091   24.0352 C   0  0  1  0  0  0
  -20.5871  -28.3675   23.1310 C   0  0  2  0  0  0
  -20.6770  -26.9418   22.5417 C   0  0  0  0  0  0
  -19.5747  -26.6393   21.5218 C   0  0  0  0  0  0
  -18.1924  -26.7916   22.1617 C   0  0  0  0  0  0
  -19.1527  -28.8829   23.2891 C   0  0  0  0  0  0
  -18.9445  -30.1417   23.8947 C   0  0  0  0  0  0
  -17.6446  -30.6586   24.0547 C   0  0  0  0  0  0
  -25.9053  -34.9456   23.5132 C   0  0  0  0  0  0
  -16.5338  -29.9086   23.6306 C   0  0  0  0  0  0
  -16.7251  -28.6478   23.0378 C   0  0  0  0  0  0
  -26.4518  -31.6567   25.0726 C   0  0  0  0  0  0
  -25.3767  -31.3683   26.1440 C   0  0  0  0  0  0
  -27.0327  -30.3002   24.6095 C   0  0  0  0  0  0
  -27.6105  -32.4285   25.7472 C   0  0  0  0  0  0
  -27.5580  -37.1792   24.8475 C   0  0  0  0  0  0
  -21.4174  -29.3034   22.3714 N   0  0  0  0  0  0
  -26.4290  -37.3770   23.9423 N   0  0  0  0  0  0
  -24.6794  -31.0731   22.0991 N   0  0  0  0  0  0
  -23.4190  -28.8196   23.3063 O   0  0  0  0  0  0
  -28.3839  -26.5876   20.1374 O   0  0  0  0  0  0
  -26.5607  -34.8893   22.4688 O   0  0  0  0  0  0
  -23.5379  -32.1429   23.7393 O   0  0  0  0  0  0
  -28.4055  -18.3738   19.4112 C   0  0  0  0  0  0
  -28.6808  -17.0897   19.9316 C   0  0  0  0  0  0
  -30.3743  -19.2614   20.5084 C   0  0  0  0  0  0
  -29.2508  -19.4771   19.6714 C   0  0  0  0  0  0
  -29.8269  -16.8508   20.7239 C   0  0  0  0  0  0
  -30.6516  -17.9659   21.0305 C   0  0  0  0  0  0
  -29.0831  -22.0058   19.0695 C   0  0  0  0  0  0
  -29.3586  -22.7213   20.4149 C   0  0  0  0  0  0
  -29.4983  -24.2982   20.3350 C   0  0  0  0  0  0
  -28.2003  -25.1413   20.1131 C   0  0  0  0  0  0
  -29.0059  -20.6617   18.8946 N   0  0  0  0  0  0
  -30.1157  -15.5476   21.2668 N   0  0  0  0  0  0
  -28.9105  -22.7132   18.0761 O   0  0  0  0  0  0
  -31.7459  -17.7809   21.8110 F   0  0  0  0  0  0
  -31.4615  -12.4554   19.1362 H   0  0  0  0  0  0
  -30.3223  -11.3530   19.8562 H   0  0  0  0  0  0
  -29.7568  -11.8100   17.4395 H   0  0  0  0  0  0
  -29.6411  -13.5173   17.7836 H   0  0  0  0  0  0
  -27.8464  -11.3028   18.8285 H   0  0  0  0  0  0
  -27.3664  -12.6234   17.7932 H   0  0  0  0  0  0
  -27.6739  -14.2430   19.5490 H   0  0  0  0  0  0
  -28.6887  -12.0330   21.3935 H   0  0  0  0  0  0
  -28.4464  -13.6981   21.8442 H   0  0  0  0  0  0
  -25.2768   -9.5622   22.4772 H   0  0  0  0  0  0
  -23.9965   -7.4603   22.7472 H   0  0  0  0  0  0
  -21.0803   -8.8789   19.8959 H   0  0  0  0  0  0
  -22.3719  -10.9665   19.6153 H   0  0  0  0  0  0
  -21.2011   -7.6152   23.9716 H   0  0  0  0  0  0
  -21.1498   -6.0541   25.9084 H   0  0  0  0  0  0
  -22.0585   -2.7612   23.2842 H   0  0  0  0  0  0
  -22.4083  -11.9857   22.4795 H   0  0  0  0  0  0
  -21.1075  -13.1237   22.2648 H   0  0  0  0  0  0
  -24.6609  -15.8433   20.5829 H   0  0  0  0  0  0
  -26.3059  -15.6433   20.2508 H   0  0  0  0  0  0
  -26.7135  -32.5511   23.1162 H   0  0  0  0  0  0
  -25.0125  -33.9791   25.0511 H   0  0  0  0  0  0
  -22.7045  -31.3053   21.4064 H   0  0  0  0  0  0
  -23.3760  -35.9622   23.3321 H   0  0  0  0  0  0
  -24.3600  -36.8872   22.2045 H   0  0  0  0  0  0
  -23.7244  -37.6493   23.6638 H   0  0  0  0  0  0
  -26.0721  -31.5816   20.6018 H   0  0  0  0  0  0
  -26.8353  -30.8696   21.9919 H   0  0  0  0  0  0
  -28.1170  -29.0473   21.1727 H   0  0  0  0  0  0
  -25.9904  -25.9564   19.0227 H   0  0  0  0  0  0
  -23.9706  -27.3027   19.0482 H   0  0  0  0  0  0
  -23.7410  -30.5970   19.4114 H   0  0  0  0  0  0
  -22.7509  -29.2433   19.8655 H   0  0  0  0  0  0
  -25.1270  -36.1959   25.0838 H   0  0  0  0  0  0
  -20.9938  -28.3262   24.1437 H   0  0  0  0  0  0
  -20.5707  -26.2294   23.3615 H   0  0  0  0  0  0
  -21.6631  -26.7479   22.1200 H   0  0  0  0  0  0
  -19.6936  -25.6324   21.1218 H   0  0  0  0  0  0
  -19.6677  -27.3231   20.6782 H   0  0  0  0  0  0
  -17.4200  -26.6678   21.4014 H   0  0  0  0  0  0
  -18.0301  -26.0060   22.9013 H   0  0  0  0  0  0
  -19.7926  -30.7182   24.2416 H   0  0  0  0  0  0
  -17.5010  -31.6290   24.5101 H   0  0  0  0  0  0
  -15.5346  -30.2990   23.7605 H   0  0  0  0  0  0
  -15.8654  -28.0761   22.7144 H   0  0  0  0  0  0
  -24.5971  -30.6993   25.7765 H   0  0  0  0  0  0
  -24.8910  -32.2832   26.4854 H   0  0  0  0  0  0
  -25.8094  -30.8863   27.0210 H   0  0  0  0  0  0
  -26.2866  -29.6793   24.1104 H   0  0  0  0  0  0
  -27.4046  -29.7188   25.4542 H   0  0  0  0  0  0
  -27.8741  -30.4305   23.9279 H   0  0  0  0  0  0
  -27.2754  -33.3605   26.2043 H   0  0  0  0  0  0
  -28.3910  -32.6820   25.0285 H   0  0  0  0  0  0
  -28.0799  -31.8404   26.5372 H   0  0  0  0  0  0
  -28.2584  -38.0093   24.7497 H   0  0  0  0  0  0
  -28.1069  -36.2618   24.6315 H   0  0  0  0  0  0
  -27.2303  -37.1449   25.8874 H   0  0  0  0  0  0
  -20.9371  -29.8714   21.6880 H   0  0  0  0  0  0
  -26.0187  -38.2847   24.1405 H   0  0  0  0  0  0
  -27.5351  -18.4961   18.7758 H   0  0  0  0  0  0
  -27.9957  -16.2952   19.7074 H   0  0  0  0  0  0
  -31.0656  -20.0654   20.7123 H   0  0  0  0  0  0
  -30.2913  -22.3129   20.8062 H   0  0  0  0  0  0
  -28.5777  -22.4530   21.1275 H   0  0  0  0  0  0
  -30.2024  -24.5515   19.5448 H   0  0  0  0  0  0
  -29.9741  -24.6385   21.2553 H   0  0  0  0  0  0
  -27.4817  -24.8738   20.8910 H   0  0  0  0  0  0
  -27.7676  -24.8429   19.1600 H   0  0  0  0  0  0
  -28.6792  -20.4468   17.9627 H   0  0  0  0  0  0
  -30.6158  -15.6462   22.1415 H   0  0  0  0  0  0
  1 25  1  0  0  0
  1 30  2  0  0  0
  1 82  1  0  0  0
  2  3  1  0  0  0
  2 25  1  0  0  0
  2 85  1  0  0  0
  2 86  1  0  0  0
  3  4  1  0  0  0
  3 87  1  0  0  0
  3 88  1  0  0  0
  4  5  1  0  0  0
  4 89  1  0  0  0
  4 90  1  0  0  0
  5  6  1  0  0  0
  5 26  1  0  0  0
  5 91  1  0  0  0
  6 25  1  0  0  0
  6 92  1  0  0  0
  6 93  1  0  0  0
  7  8  2  0  0  0
  7 26  1  0  0  0
  7 29  1  0  0  0
  8  9  1  0  0  0
  8 22  1  0  0  0
  9 10  1  0  0  0
  9 27  2  0  0  0
 10 11  2  0  0  0
 10 15  1  0  0  0
 11 12  1  0  0  0
 11 94  1  0  0  0
 12 13  2  0  0  0
 12 95  1  0  0  0
 13 14  1  0  0  0
 13 31  1  0  0  0
 14 15  2  0  0  0
 14 96  1  0  0  0
 15 97  1  0  0  0
 16 17  2  0  0  0
 16 21  1  0  0  0
 16 31  1  0  0  0
 17 18  1  0  0  0
 17 98  1  0  0  0
 18 19  2  0  0  0
 18 99  1  0  0  0
 19 20  1  0  0  0
 19 24  1  0  0  0
 20 21  2  0  0  0
 20100  1  0  0  0
 21 23  1  0  0  0
 22 28  1  0  0  0
 22 32  2  0  0  0
 26 27  1  0  0  0
 28101  1  0  0  0
 28102  1  0  0  0
 29103  1  0  0  0
 29104  1  0  0  0
 33 34  1  0  0  0
 33 66  1  0  0  0
 33 70  2  0  0  0
 34 36  1  0  0  0
 34 59  1  0  0  0
 34105  1  0  0  0
 35 44  2  0  0  0
 35 45  1  0  0  0
 35 68  1  0  0  0
 36 56  1  0  0  0
 36106  1  0  0  0
 37 39  1  0  0  0
 37 47  1  0  0  0
 37 66  1  0  0  0
 37107  1  0  0  0
 38 43  2  0  0  0
 38 46  1  0  0  0
 38 47  1  0  0  0
 39 64  1  0  0  0
 39 67  2  0  0  0
 40 52  1  0  0  0
 40 53  2  0  0  0
 40 58  1  0  0  0
 41108  1  0  0  0
 41109  1  0  0  0
 41110  1  0  0  0
 41 48  1  0  0  0
 42 43  1  0  0  0
 42 66  1  0  0  0
 42111  1  0  0  0
 42112  1  0  0  0
 43 44  1  0  0  0
 44113  1  0  0  0
 45 46  2  0  0  0
 45114  1  0  0  0
 46115  1  0  0  0
 47116  1  0  0  0
 47117  1  0  0  0
 48 56  1  0  0  0
 48 65  1  0  0  0
 48118  1  0  0  0
 49 50  1  0  0  0
 49 53  1  0  0  0
 49 64  1  0  0  0
 49119  1  0  0  0
 50 51  1  0  0  0
 50120  1  0  0  0
 50121  1  0  0  0
 51 52  1  0  0  0
 51122  1  0  0  0
 51123  1  0  0  0
 52124  1  0  0  0
 52125  1  0  0  0
 53 54  1  0  0  0
 54 55  2  0  0  0
 54126  1  0  0  0
 55 57  1  0  0  0
 55127  1  0  0  0
 56 69  2  0  0  0
 57 58  2  0  0  0
 57128  1  0  0  0
 58129  1  0  0  0
 59 60  1  0  0  0
 59 61  1  0  0  0
 59 62  1  0  0  0
 60130  1  0  0  0
 60131  1  0  0  0
 60132  1  0  0  0
 61133  1  0  0  0
 61134  1  0  0  0
 61135  1  0  0  0
 62136  1  0  0  0
 62137  1  0  0  0
 62138  1  0  0  0
 63 65  1  0  0  0
 63139  1  0  0  0
 63140  1  0  0  0
 63141  1  0  0  0
 64142  1  0  0  0
 65143  1  0  0  0
 68 80  1  0  0  0
 71 72  2  0  0  0
 71 74  1  0  0  0
 71144  1  0  0  0
 72 75  1  0  0  0
 72145  1  0  0  0
 73 74  2  0  0  0
 73 76  1  0  0  0
 73146  1  0  0  0
 74 81  1  0  0  0
 75 76  2  0  0  0
 75 82  1  0  0  0
 76 84  1  0  0  0
 77 78  1  0  0  0
 77 81  1  0  0  0
 77 83  2  0  0  0
 78 79  1  0  0  0
 78147  1  0  0  0
 78148  1  0  0  0
 79 80  1  0  0  0
 79149  1  0  0  0
 79150  1  0  0  0
 80151  1  0  0  0
 80152  1  0  0  0
 81153  1  0  0  0
 82154  1  0  0  0
M  ISO  4   1 100  68 101  80 101  82 100
M  END
> <chiral flag>
0

> <version>
0

> <s_m_source_file>
/data/baiqing/PycharmProjects/Reinvent-master-3.2/result/LINK_invent/BTK/process_docking_weight1_custom_product_contain_oxygen_bond_distance_aromatic_linkinvent_7_9_3/rearranged_h_0105.sdf

> <i_m_source_file_index>
67

> <r_mmod_Potential_Energy-OPLS-2005>
-26.9753551483154

> <r_mmod_Stretch_Energy-OPLS-2005>
51.151481628418

> <r_mmod_Bend_Energy-OPLS-2005>
149.985046386719

> <r_mmod_Torsional_Energy-OPLS-2005>
293.577941894531

> <r_mmod_Improper_Torsional_Energy-OPLS-2005>
7.70067119598389

> <r_mmod_Van_der_Waal_Energy-OPLS-2005>
142.627593994141

> <r_mmod_Electrostatic_Energy-OPLS-2005>
-474.623809814453

> <r_mmod_Solvation_Energy-OPLS-2005>
-221.621917724609

> <b_mmod_Minimization_Converged-OPLS-2005>
0

> <r_mmod_RMS_Derivative-OPLS-2005>
4.51969861984253

$$$$
67
                    3D
 Structure written by MMmdl.
166175  0  0  1  0            999 V2000
  -30.5960  -14.6237   20.5847 C   0  0  0  0  0  0
  -30.4536  -12.4044   19.4351 C   0  0  0  0  0  0
  -29.5089  -12.5340   18.2178 C   0  0  0  0  0  0
  -28.0312  -12.3519   18.6295 C   0  0  0  0  0  0
  -27.6578  -13.2035   19.8710 C   0  0  2  0  0  0
  -28.7044  -13.0107   20.9924 C   0  0  0  0  0  0
  -25.2582  -13.8136   20.5692 C   0  0  0  0  0  0
  -24.1831  -13.0414   20.9192 C   0  0  0  0  0  0
  -24.6392  -11.6884   20.8745 C   0  0  0  0  0  0
  -23.9065  -10.4269   21.0402 C   0  0  0  0  0  0
  -24.3618   -9.4192   21.9186 C   0  0  0  0  0  0
  -23.6279   -8.2232   22.0759 C   0  0  0  0  0  0
  -22.4261   -8.0273   21.3548 C   0  0  0  0  0  0
  -21.9903   -9.0251   20.4647 C   0  0  0  0  0  0
  -22.7236  -10.2123   20.3057 C   0  0  0  0  0  0
  -21.6844   -6.0740   22.5284 C   0  0  0  0  0  0
  -21.4001   -6.5652   23.8220 C   0  0  0  0  0  0
  -21.3657   -5.6806   24.9186 C   0  0  0  0  0  0
  -21.6046   -4.3072   24.7242 C   0  0  0  0  0  0
  -21.8810   -3.8162   23.4363 C   0  0  0  0  0  0
  -21.9178   -4.6966   22.3412 C   0  0  0  0  0  0
  -22.7845  -13.5216   21.1851 C   0  0  0  0  0  0
  -22.1643   -4.2158   21.0991 F   0  0  0  0  0  0
  -21.5644   -3.4564   25.7761 F   0  0  0  0  0  0
  -30.0178  -13.3878   20.4460 N   0  0  0  0  0  0
  -26.3013  -12.9286   20.3362 N   0  0  0  0  0  0
  -25.9320  -11.6453   20.5779 N   0  0  0  0  0  0
  -22.0496  -12.8204   22.0408 N   0  0  0  0  0  0
  -25.4301  -15.1850   20.4094 N   0  0  0  0  0  0
  -31.7264  -14.8408   20.1317 O   0  0  0  0  0  0
  -21.6622   -6.8879   21.4243 O   0  0  0  0  0  0
  -22.3520  -14.5524   20.6701 O   0  0  0  0  0  0
  -24.6249  -31.8622   23.2048 C   0  0  0  0  0  0
  -25.9118  -32.4780   23.8375 C   0  0  1  0  0  0
  -27.2180  -27.3335   20.1142 C   0  0  0  0  0  0
  -25.5934  -33.8581   24.2296 N   0  0  0  0  0  0
  -23.4159  -30.4878   21.5471 C   0  0  2  0  0  0
  -24.8607  -28.9473   20.1120 C   0  0  0  0  0  0
  -22.7455  -29.4652   22.4948 C   0  0  0  0  0  0
  -18.0279  -28.1397   22.8492 C   0  0  0  0  0  0
  -24.1482  -36.7287   23.2626 C   0  0  0  0  0  0
  -25.9568  -30.7973   21.3746 C   0  0  0  0  0  0
  -26.0292  -29.4265   20.7167 C   0  0  0  0  0  0
  -27.2115  -28.6306   20.7096 C   0  0  0  0  0  0
  -26.0250  -26.9068   19.4838 C   0  0  0  0  0  0
  -24.8599  -27.6929   19.4875 C   0  0  0  0  0  0
  -23.6292  -29.8253   20.1610 C   0  0  0  0  0  0
  -25.4107  -36.3079   24.0322 C   0  0  1  0  0  0
  -20.5874  -28.3704   23.1293 C   0  0  2  0  0  0
  -20.6772  -26.9422   22.5427 C   0  0  0  0  0  0
  -19.5757  -26.6393   21.5215 C   0  0  0  0  0  0
  -18.1922  -26.7953   22.1596 C   0  0  0  0  0  0
  -19.1527  -28.8862   23.2895 C   0  0  0  0  0  0
  -18.9455  -30.1457   23.8932 C   0  0  0  0  0  0
  -17.6455  -30.6595   24.0572 C   0  0  0  0  0  0
  -25.9065  -34.9455   23.5113 C   0  0  0  0  0  0
  -16.5351  -29.9100   23.6321 C   0  0  0  0  0  0
  -16.7271  -28.6512   23.0365 C   0  0  0  0  0  0
  -26.4506  -31.6579   25.0734 C   0  0  0  0  0  0
  -25.3734  -31.3707   26.1456 C   0  0  0  0  0  0
  -27.0340  -30.2997   24.6194 C   0  0  0  0  0  0
  -27.6076  -32.4312   25.7492 C   0  0  0  0  0  0
  -27.5610  -37.1754   24.8422 C   0  0  0  0  0  0
  -21.4175  -29.3057   22.3683 N   0  0  0  0  0  0
  -26.4265  -37.3803   23.9464 N   0  0  0  0  0  0
  -24.6845  -31.0654   22.0987 N   0  0  0  0  0  0
  -23.4184  -28.8193   23.3021 O   0  0  0  0  0  0
  -28.3371  -26.4922   20.1713 O   0  0  0  0  0  0
  -26.5621  -34.8914   22.4674 O   0  0  0  0  0  0
  -23.5421  -32.1432   23.7386 O   0  0  0  0  0  0
  -30.0891  -18.2032   22.1170 C   0  0  0  0  0  0
  -29.8110  -19.3943   19.6186 C   0  0  0  0  0  0
  -29.9643  -17.3311   21.0019 C   0  0  0  0  0  0
  -30.0733  -19.6232   22.0024 C   0  0  0  0  0  0
  -29.8120  -17.9669   19.7355 C   0  0  0  0  0  0
  -29.9298  -20.2597   20.7388 C   0  0  0  0  0  0
  -29.1171  -22.6808   20.3712 C   0  0  0  0  0  0
  -29.2658  -24.0526   20.3406 C   0  0  0  0  0  0
  -31.6340  -24.3413   19.5741 C   0  0  0  0  0  0
  -30.6010  -24.7227   20.6314 C   0  0  0  0  0  0
  -31.9783  -22.8609   19.4027 C   0  0  0  0  0  0
  -31.5444  -21.9785   20.5873 C   0  0  0  0  0  0
  -30.2095  -20.4559   23.2685 C   0  0  0  0  0  0
  -29.6184  -17.1330   18.4801 C   0  0  0  0  0  0
  -29.7633  -15.7887   21.2699 C   0  0  0  0  0  0
  -28.1103  -25.0422   19.9930 C   0  0  0  0  0  0
  -30.1065  -21.6775   20.5851 N   0  0  0  0  0  0
  -32.1802  -25.2033   18.8805 O   0  0  0  0  0  0
  -31.4894  -12.5626   19.1294 H   0  0  0  0  0  0
  -30.4171  -11.3956   19.8475 H   0  0  0  0  0  0
  -29.7803  -11.8079   17.4509 H   0  0  0  0  0  0
  -29.6391  -13.5172   17.7614 H   0  0  0  0  0  0
  -27.8728  -11.2949   18.8456 H   0  0  0  0  0  0
  -27.3732  -12.5931   17.7938 H   0  0  0  0  0  0
  -27.6844  -14.2430   19.5485 H   0  0  0  0  0  0
  -28.7223  -11.9685   21.3169 H   0  0  0  0  0  0
  -28.4467  -13.5836   21.8834 H   0  0  0  0  0  0
  -25.2756   -9.5674   22.4766 H   0  0  0  0  0  0
  -23.9997   -7.4628   22.7472 H   0  0  0  0  0  0
  -21.0845   -8.8753   19.8948 H   0  0  0  0  0  0
  -22.3688  -10.9663   19.6169 H   0  0  0  0  0  0
  -21.1981   -7.6151   23.9739 H   0  0  0  0  0  0
  -21.1493   -6.0536   25.9093 H   0  0  0  0  0  0
  -22.0590   -2.7626   23.2877 H   0  0  0  0  0  0
  -22.4102  -11.9860   22.4784 H   0  0  0  0  0  0
  -21.1110  -13.1211   22.2625 H   0  0  0  0  0  0
  -24.6644  -15.8409   20.5195 H   0  0  0  0  0  0
  -26.2858  -15.6277   20.0979 H   0  0  0  0  0  0
  -26.7181  -32.5454   23.1125 H   0  0  0  0  0  0
  -25.0072  -33.9738   25.0429 H   0  0  0  0  0  0
  -22.7085  -31.3074   21.4036 H   0  0  0  0  0  0
  -23.3787  -35.9564   23.3147 H   0  0  0  0  0  0
  -24.3624  -36.9066   22.2073 H   0  0  0  0  0  0
  -23.7142  -37.6404   23.6753 H   0  0  0  0  0  0
  -26.0838  -31.5591   20.6043 H   0  0  0  0  0  0
  -26.8396  -30.8474   22.0001 H   0  0  0  0  0  0
  -28.1073  -28.9934   21.1961 H   0  0  0  0  0  0
  -25.9551  -25.9502   18.9894 H   0  0  0  0  0  0
  -23.9641  -27.3195   19.0110 H   0  0  0  0  0  0
  -23.7480  -30.6039   19.4066 H   0  0  0  0  0  0
  -22.7501  -29.2558   19.8571 H   0  0  0  0  0  0
  -25.1266  -36.1909   25.0805 H   0  0  0  0  0  0
  -20.9963  -28.3294   24.1418 H   0  0  0  0  0  0
  -20.5645  -26.2330   23.3639 H   0  0  0  0  0  0
  -21.6648  -26.7453   22.1235 H   0  0  0  0  0  0
  -19.6922  -25.6300   21.1249 H   0  0  0  0  0  0
  -19.6715  -27.3205   20.6748 H   0  0  0  0  0  0
  -17.4213  -26.6746   21.3965 H   0  0  0  0  0  0
  -18.0287  -26.0078   22.8961 H   0  0  0  0  0  0
  -19.7927  -30.7254   24.2336 H   0  0  0  0  0  0
  -17.5008  -31.6278   24.5172 H   0  0  0  0  0  0
  -15.5352  -30.3010   23.7639 H   0  0  0  0  0  0
  -15.8668  -28.0829   22.7094 H   0  0  0  0  0  0
  -24.5992  -30.6949   25.7808 H   0  0  0  0  0  0
  -24.8814  -32.2845   26.4796 H   0  0  0  0  0  0
  -25.8076  -30.8988   27.0277 H   0  0  0  0  0  0
  -26.2915  -29.6735   24.1230 H   0  0  0  0  0  0
  -27.4037  -29.7273   25.4713 H   0  0  0  0  0  0
  -27.8785  -30.4270   23.9415 H   0  0  0  0  0  0
  -27.2716  -33.3620   26.2076 H   0  0  0  0  0  0
  -28.3879  -32.6863   25.0303 H   0  0  0  0  0  0
  -28.0752  -31.8422   26.5396 H   0  0  0  0  0  0
  -28.2474  -38.0201   24.7704 H   0  0  0  0  0  0
  -28.1261  -36.2755   24.5934 H   0  0  0  0  0  0
  -27.2383  -37.1010   25.8823 H   0  0  0  0  0  0
  -20.9355  -29.8792   21.6897 H   0  0  0  0  0  0
  -26.0118  -38.2834   24.1640 H   0  0  0  0  0  0
  -30.1671  -17.7714   23.1058 H   0  0  0  0  0  0
  -29.7296  -19.8429   18.6381 H   0  0  0  0  0  0
  -28.1471  -22.2527   20.1502 H   0  0  0  0  0  0
  -30.9505  -24.4332   21.6213 H   0  0  0  0  0  0
  -30.5028  -25.8067   20.6535 H   0  0  0  0  0  0
  -33.0588  -22.7888   19.2769 H   0  0  0  0  0  0
  -31.5295  -22.4985   18.4785 H   0  0  0  0  0  0
  -31.8133  -22.4415   21.5375 H   0  0  0  0  0  0
  -32.1328  -21.0592   20.5470 H   0  0  0  0  0  0
  -29.9212  -19.8908   24.1549 H   0  0  0  0  0  0
  -29.5713  -21.3394   23.2289 H   0  0  0  0  0  0
  -31.2402  -20.7842   23.3984 H   0  0  0  0  0  0
  -29.4936  -17.7638   17.5995 H   0  0  0  0  0  0
  -28.7340  -16.5027   18.5679 H   0  0  0  0  0  0
  -30.4830  -16.4940   18.3027 H   0  0  0  0  0  0
  -28.7107  -15.6363   21.0424 H   0  0  0  0  0  0
  -29.8449  -15.6156   22.3439 H   0  0  0  0  0  0
  -27.2415  -24.7322   20.5762 H   0  0  0  0  0  0
  -27.8682  -24.8655   18.9448 H   0  0  0  0  0  0
  1 25  1  0  0  0
  1 30  2  0  0  0
  1 85  1  0  0  0
  2  3  1  0  0  0
  2 25  1  0  0  0
  2 89  1  0  0  0
  2 90  1  0  0  0
  3  4  1  0  0  0
  3 91  1  0  0  0
  3 92  1  0  0  0
  4  5  1  0  0  0
  4 93  1  0  0  0
  4 94  1  0  0  0
  5  6  1  0  0  0
  5 26  1  0  0  0
  5 95  1  0  0  0
  6 25  1  0  0  0
  6 96  1  0  0  0
  6 97  1  0  0  0
  7  8  2  0  0  0
  7 26  1  0  0  0
  7 29  1  0  0  0
  8  9  1  0  0  0
  8 22  1  0  0  0
  9 10  1  0  0  0
  9 27  2  0  0  0
 10 11  2  0  0  0
 10 15  1  0  0  0
 11 12  1  0  0  0
 11 98  1  0  0  0
 12 13  2  0  0  0
 12 99  1  0  0  0
 13 14  1  0  0  0
 13 31  1  0  0  0
 14 15  2  0  0  0
 14100  1  0  0  0
 15101  1  0  0  0
 16 17  2  0  0  0
 16 21  1  0  0  0
 16 31  1  0  0  0
 17 18  1  0  0  0
 17102  1  0  0  0
 18 19  2  0  0  0
 18103  1  0  0  0
 19 20  1  0  0  0
 19 24  1  0  0  0
 20 21  2  0  0  0
 20104  1  0  0  0
 21 23  1  0  0  0
 22 28  1  0  0  0
 22 32  2  0  0  0
 26 27  1  0  0  0
 28105  1  0  0  0
 28106  1  0  0  0
 29107  1  0  0  0
 29108  1  0  0  0
 33 34  1  0  0  0
 33 66  1  0  0  0
 33 70  2  0  0  0
 34 36  1  0  0  0
 34 59  1  0  0  0
 34109  1  0  0  0
 35 44  2  0  0  0
 35 45  1  0  0  0
 35 68  1  0  0  0
 36 56  1  0  0  0
 36110  1  0  0  0
 37 39  1  0  0  0
 37 47  1  0  0  0
 37 66  1  0  0  0
 37111  1  0  0  0
 38 43  2  0  0  0
 38 46  1  0  0  0
 38 47  1  0  0  0
 39 64  1  0  0  0
 39 67  2  0  0  0
 40 52  1  0  0  0
 40 53  2  0  0  0
 40 58  1  0  0  0
 41112  1  0  0  0
 41113  1  0  0  0
 41114  1  0  0  0
 41 48  1  0  0  0
 42 43  1  0  0  0
 42 66  1  0  0  0
 42115  1  0  0  0
 42116  1  0  0  0
 43 44  1  0  0  0
 44117  1  0  0  0
 45 46  2  0  0  0
 45118  1  0  0  0
 46119  1  0  0  0
 47120  1  0  0  0
 47121  1  0  0  0
 48 56  1  0  0  0
 48 65  1  0  0  0
 48122  1  0  0  0
 49 50  1  0  0  0
 49 53  1  0  0  0
 49 64  1  0  0  0
 49123  1  0  0  0
 50 51  1  0  0  0
 50124  1  0  0  0
 50125  1  0  0  0
 51 52  1  0  0  0
 51126  1  0  0  0
 51127  1  0  0  0
 52128  1  0  0  0
 52129  1  0  0  0
 53 54  1  0  0  0
 54 55  2  0  0  0
 54130  1  0  0  0
 55 57  1  0  0  0
 55131  1  0  0  0
 56 69  2  0  0  0
 57 58  2  0  0  0
 57132  1  0  0  0
 58133  1  0  0  0
 59 60  1  0  0  0
 59 61  1  0  0  0
 59 62  1  0  0  0
 60134  1  0  0  0
 60135  1  0  0  0
 60136  1  0  0  0
 61137  1  0  0  0
 61138  1  0  0  0
 61139  1  0  0  0
 62140  1  0  0  0
 62141  1  0  0  0
 62142  1  0  0  0
 63 65  1  0  0  0
 63143  1  0  0  0
 63144  1  0  0  0
 63145  1  0  0  0
 64146  1  0  0  0
 65147  1  0  0  0
 68 86  1  0  0  0
 71 73  2  0  0  0
 71 74  1  0  0  0
 71148  1  0  0  0
 72 75  2  0  0  0
 72 76  1  0  0  0
 72149  1  0  0  0
 73 75  1  0  0  0
 73 85  1  0  0  0
 74 76  2  0  0  0
 74 83  1  0  0  0
 75 84  1  0  0  0
 76 87  1  0  0  0
 77 78  2  0  0  0
 77 87  1  0  0  0
 77150  1  0  0  0
 78 80  1  0  0  0
 78 86  1  0  0  0
 79 80  1  0  0  0
 79 81  1  0  0  0
 79 88  2  0  0  0
 80151  1  0  0  0
 80152  1  0  0  0
 81 82  1  0  0  0
 81153  1  0  0  0
 81154  1  0  0  0
 82 87  1  0  0  0
 82155  1  0  0  0
 82156  1  0  0  0
 83157  1  0  0  0
 83158  1  0  0  0
 83159  1  0  0  0
 84160  1  0  0  0
 84161  1  0  0  0
 84162  1  0  0  0
 85163  1  0  0  0
 85164  1  0  0  0
 86165  1  0  0  0
 86166  1  0  0  0
M  ISO  4   1 100  68 101  85 100  86 101
M  END
> <chiral flag>
0

> <version>
0

> <s_m_source_file>
/data/baiqing/PycharmProjects/Reinvent-master-3.2/result/LINK_invent/BTK/process_docking_weight1_custom_product_contain_oxygen_bond_distance_aromatic_linkinvent_7_9_3/rearranged_h_0105.sdf

> <i_m_source_file_index>
68

> <r_mmod_Potential_Energy-OPLS-2005>
76.2272415161133

> <r_mmod_Stretch_Energy-OPLS-2005>
78.4814147949219

> <r_mmod_Bend_Energy-OPLS-2005>
135.757385253906

> <r_mmod_Torsional_Energy-OPLS-2005>
206.112045288086

> <r_mmod_Improper_Torsional_Energy-OPLS-2005>
4.54533195495605

> <r_mmod_Van_der_Waal_Energy-OPLS-2005>
154.896835327148

> <r_mmod_Electrostatic_Energy-OPLS-2005>
-333.531433105469

> <r_mmod_Solvation_Energy-OPLS-2005>
-214.03125

> <b_mmod_Minimization_Converged-OPLS-2005>
0

> <r_mmod_RMS_Derivative-OPLS-2005>
2.38389372825623

$$$$
68
                    3D
 Structure written by MMmdl.
156164  0  0  1  0            999 V2000
  -30.6518  -14.5118   20.5683 C   0  0  0  0  0  0
  -30.4373  -12.3187   19.4249 C   0  0  0  0  0  0
  -29.5007  -12.4711   18.2067 C   0  0  0  0  0  0
  -28.0152  -12.3628   18.6168 C   0  0  0  0  0  0
  -27.6631  -13.1955   19.8807 C   0  0  2  0  0  0
  -28.7094  -12.9535   20.9902 C   0  0  0  0  0  0
  -25.2613  -13.8138   20.5674 C   0  0  0  0  0  0
  -24.1846  -13.0428   20.9175 C   0  0  0  0  0  0
  -24.6392  -11.6891   20.8755 C   0  0  0  0  0  0
  -23.9061  -10.4279   21.0413 C   0  0  0  0  0  0
  -24.3613   -9.4195   21.9195 C   0  0  0  0  0  0
  -23.6282   -8.2237   22.0769 C   0  0  0  0  0  0
  -22.4269   -8.0279   21.3553 C   0  0  0  0  0  0
  -21.9909   -9.0252   20.4652 C   0  0  0  0  0  0
  -22.7239  -10.2127   20.3057 C   0  0  0  0  0  0
  -21.6854   -6.0732   22.5277 C   0  0  0  0  0  0
  -21.4013   -6.5640   23.8208 C   0  0  0  0  0  0
  -21.3659   -5.6799   24.9179 C   0  0  0  0  0  0
  -21.6044   -4.3057   24.7228 C   0  0  0  0  0  0
  -21.8823   -3.8147   23.4351 C   0  0  0  0  0  0
  -21.9189   -4.6959   22.3407 C   0  0  0  0  0  0
  -22.7869  -13.5229   21.1823 C   0  0  0  0  0  0
  -22.1657   -4.2139   21.0986 F   0  0  0  0  0  0
  -21.5626   -3.4551   25.7746 F   0  0  0  0  0  0
  -30.0271  -13.3041   20.4393 N   0  0  0  0  0  0
  -26.3037  -12.9273   20.3408 N   0  0  0  0  0  0
  -25.9316  -11.6448   20.5814 N   0  0  0  0  0  0
  -22.0515  -12.8214   22.0379 N   0  0  0  0  0  0
  -25.4378  -15.1844   20.4053 N   0  0  0  0  0  0
  -31.7755  -14.7053   20.0910 O   0  0  0  0  0  0
  -21.6634   -6.8876   21.4243 O   0  0  0  0  0  0
  -22.3550  -14.5534   20.6666 O   0  0  0  0  0  0
  -24.6168  -31.8671   23.2098 C   0  0  0  0  0  0
  -25.9056  -32.4817   23.8391 C   0  0  1  0  0  0
  -27.2255  -27.4064   20.0926 C   0  0  0  0  0  0
  -25.5901  -33.8614   24.2314 N   0  0  0  0  0  0
  -23.4040  -30.4926   21.5529 C   0  0  2  0  0  0
  -24.8475  -28.9598   20.1122 C   0  0  0  0  0  0
  -22.7409  -29.4661   22.4997 C   0  0  0  0  0  0
  -18.0264  -28.1377   22.8501 C   0  0  0  0  0  0
  -24.1483  -36.7317   23.2640 C   0  0  0  0  0  0
  -25.9371  -30.8236   21.3678 C   0  0  0  0  0  0
  -26.0113  -29.4578   20.7105 C   0  0  0  0  0  0
  -27.2011  -28.6887   20.6982 C   0  0  0  0  0  0
  -26.0415  -26.9401   19.4722 C   0  0  0  0  0  0
  -24.8594  -27.7011   19.4905 C   0  0  0  0  0  0
  -23.6103  -29.8279   20.1667 C   0  0  0  0  0  0
  -25.4107  -36.3108   24.0333 C   0  0  1  0  0  0
  -20.5855  -28.3670   23.1317 C   0  0  2  0  0  0
  -20.6751  -26.9401   22.5429 C   0  0  0  0  0  0
  -19.5730  -26.6387   21.5221 C   0  0  0  0  0  0
  -18.1908  -26.7929   22.1622 C   0  0  0  0  0  0
  -19.1513  -28.8839   23.2901 C   0  0  0  0  0  0
  -18.9442  -30.1445   23.8909 C   0  0  0  0  0  0
  -17.6450  -30.6590   24.0564 C   0  0  0  0  0  0
  -25.9041  -34.9473   23.5126 C   0  0  0  0  0  0
  -16.5342  -29.9096   23.6329 C   0  0  0  0  0  0
  -16.7255  -28.6506   23.0363 C   0  0  0  0  0  0
  -26.4464  -31.6602   25.0735 C   0  0  0  0  0  0
  -25.3710  -31.3699   26.1459 C   0  0  0  0  0  0
  -27.0329  -30.3054   24.6144 C   0  0  0  0  0  0
  -27.6027  -32.4338   25.7501 C   0  0  0  0  0  0
  -27.5589  -37.1800   24.8455 C   0  0  0  0  0  0
  -21.4135  -29.3036   22.3724 N   0  0  0  0  0  0
  -26.4289  -37.3808   23.9415 N   0  0  0  0  0  0
  -24.6714  -31.0747   22.1015 N   0  0  0  0  0  0
  -23.4172  -28.8206   23.3048 O   0  0  0  0  0  0
  -28.3873  -26.6490   20.1311 O   0  0  0  0  0  0
  -26.5615  -34.8927   22.4697 O   0  0  0  0  0  0
  -23.5355  -32.1443   23.7476 O   0  0  0  0  0  0
  -29.1258  -18.3685   18.4663 C   0  0  0  0  0  0
  -29.2607  -19.5667   19.1882 C   0  0  0  0  0  0
  -29.9296  -18.2775   21.1368 C   0  0  0  0  0  0
  -29.7810  -17.0487   20.4325 C   0  0  0  0  0  0
  -29.3688  -17.1195   19.0733 C   0  0  0  0  0  0
  -29.6529  -19.5377   20.5419 C   0  0  0  0  0  0
  -29.2932  -24.3904   20.6518 C   0  0  0  0  0  0
  -29.9172  -15.7211   21.2306 C   0  0  0  0  0  0
  -29.6078  -22.9464   20.1910 C   0  0  0  0  0  0
  -28.2915  -25.2328   19.8315 C   0  0  0  0  0  0
  -28.9365  -21.8266   21.0350 C   0  0  0  0  0  0
  -29.1552  -15.9906   18.2912 N   0  0  0  0  0  0
  -29.8340  -24.8529   21.6623 O   0  0  0  0  0  0
  -29.7818  -20.6876   21.3044 O   0  0  0  0  0  0
  -31.4785  -12.4373   19.1209 H   0  0  0  0  0  0
  -30.3618  -11.3101   19.8361 H   0  0  0  0  0  0
  -29.7303  -11.7051   17.4653 H   0  0  0  0  0  0
  -29.6855  -13.4240   17.7137 H   0  0  0  0  0  0
  -27.8028  -11.3093   18.8039 H   0  0  0  0  0  0
  -27.3748  -12.6545   17.7834 H   0  0  0  0  0  0
  -27.7046  -14.2454   19.6007 H   0  0  0  0  0  0
  -28.7031  -11.9013   21.2786 H   0  0  0  0  0  0
  -28.4713  -13.4833   21.9106 H   0  0  0  0  0  0
  -25.2763   -9.5667   22.4764 H   0  0  0  0  0  0
  -23.9986   -7.4636   22.7497 H   0  0  0  0  0  0
  -21.0841   -8.8784   19.8952 H   0  0  0  0  0  0
  -22.3715  -10.9675   19.6162 H   0  0  0  0  0  0
  -21.2015   -7.6147   23.9710 H   0  0  0  0  0  0
  -21.1476   -6.0531   25.9079 H   0  0  0  0  0  0
  -22.0601   -2.7607   23.2863 H   0  0  0  0  0  0
  -22.4140  -11.9869   22.4741 H   0  0  0  0  0  0
  -21.1142  -13.1241   22.2616 H   0  0  0  0  0  0
  -24.6758  -15.8477   20.4940 H   0  0  0  0  0  0
  -26.2919  -15.6051   20.0560 H   0  0  0  0  0  0
  -26.7129  -32.5515   23.1156 H   0  0  0  0  0  0
  -25.0007  -33.9765   25.0425 H   0  0  0  0  0  0
  -22.6942  -31.3109   21.4167 H   0  0  0  0  0  0
  -23.3759  -35.9635   23.3270 H   0  0  0  0  0  0
  -24.3574  -36.8982   22.2063 H   0  0  0  0  0  0
  -23.7213  -37.6495   23.6690 H   0  0  0  0  0  0
  -26.0542  -31.5908   20.6006 H   0  0  0  0  0  0
  -26.8229  -30.8731   21.9895 H   0  0  0  0  0  0
  -28.0968  -29.0692   21.1707 H   0  0  0  0  0  0
  -26.0010  -25.9892   18.9621 H   0  0  0  0  0  0
  -23.9669  -27.3145   19.0173 H   0  0  0  0  0  0
  -23.7141  -30.6050   19.4089 H   0  0  0  0  0  0
  -22.7323  -29.2491   19.8738 H   0  0  0  0  0  0
  -25.1280  -36.1977   25.0827 H   0  0  0  0  0  0
  -20.9929  -28.3250   24.1438 H   0  0  0  0  0  0
  -20.5661  -26.2276   23.3621 H   0  0  0  0  0  0
  -21.6624  -26.7459   22.1226 H   0  0  0  0  0  0
  -19.6897  -25.6303   21.1233 H   0  0  0  0  0  0
  -19.6665  -27.3202   20.6753 H   0  0  0  0  0  0
  -17.4187  -26.6694   21.4013 H   0  0  0  0  0  0
  -18.0279  -26.0060   22.9002 H   0  0  0  0  0  0
  -19.7923  -30.7250   24.2285 H   0  0  0  0  0  0
  -17.5015  -31.6269   24.5183 H   0  0  0  0  0  0
  -15.5341  -30.3012   23.7646 H   0  0  0  0  0  0
  -15.8646  -28.0828   22.7085 H   0  0  0  0  0  0
  -24.5932  -30.6993   25.7786 H   0  0  0  0  0  0
  -24.8831  -32.2836   26.4852 H   0  0  0  0  0  0
  -25.8048  -30.8919   27.0249 H   0  0  0  0  0  0
  -26.2908  -29.6784   24.1189 H   0  0  0  0  0  0
  -27.4082  -29.7314   25.4625 H   0  0  0  0  0  0
  -27.8739  -30.4369   23.9332 H   0  0  0  0  0  0
  -27.2648  -33.3642   26.2066 H   0  0  0  0  0  0
  -28.3836  -32.6883   25.0328 H   0  0  0  0  0  0
  -28.0695  -31.8474   26.5421 H   0  0  0  0  0  0
  -28.2572  -38.0135   24.7578 H   0  0  0  0  0  0
  -28.1120  -36.2669   24.6200 H   0  0  0  0  0  0
  -27.2308  -37.1366   25.8854 H   0  0  0  0  0  0
  -20.9289  -29.8762   21.6951 H   0  0  0  0  0  0
  -26.0175  -38.2876   24.1461 H   0  0  0  0  0  0
  -28.8132  -18.4228   17.4328 H   0  0  0  0  0  0
  -29.0609  -20.5004   18.6847 H   0  0  0  0  0  0
  -30.2103  -18.2554   22.1803 H   0  0  0  0  0  0
  -28.9010  -15.4766   21.5230 H   0  0  0  0  0  0
  -30.4436  -15.9247   22.1619 H   0  0  0  0  0  0
  -30.6887  -22.8306   20.2552 H   0  0  0  0  0  0
  -29.3516  -22.8329   19.1376 H   0  0  0  0  0  0
  -27.3096  -24.8363   20.0860 H   0  0  0  0  0  0
  -28.4514  -25.0701   18.7659 H   0  0  0  0  0  0
  -27.9895  -21.5245   20.5845 H   0  0  0  0  0  0
  -28.6664  -22.2254   22.0140 H   0  0  0  0  0  0
  -29.0972  -16.1245   17.2863 H   0  0  0  0  0  0
  -29.6568  -15.1444   18.5263 H   0  0  0  0  0  0
  1 25  1  0  0  0
  1 30  2  0  0  0
  1 78  1  0  0  0
  2  3  1  0  0  0
  2 25  1  0  0  0
  2 85  1  0  0  0
  2 86  1  0  0  0
  3  4  1  0  0  0
  3 87  1  0  0  0
  3 88  1  0  0  0
  4  5  1  0  0  0
  4 89  1  0  0  0
  4 90  1  0  0  0
  5  6  1  0  0  0
  5 26  1  0  0  0
  5 91  1  0  0  0
  6 25  1  0  0  0
  6 92  1  0  0  0
  6 93  1  0  0  0
  7  8  2  0  0  0
  7 26  1  0  0  0
  7 29  1  0  0  0
  8  9  1  0  0  0
  8 22  1  0  0  0
  9 10  1  0  0  0
  9 27  2  0  0  0
 10 11  2  0  0  0
 10 15  1  0  0  0
 11 12  1  0  0  0
 11 94  1  0  0  0
 12 13  2  0  0  0
 12 95  1  0  0  0
 13 14  1  0  0  0
 13 31  1  0  0  0
 14 15  2  0  0  0
 14 96  1  0  0  0
 15 97  1  0  0  0
 16 17  2  0  0  0
 16 21  1  0  0  0
 16 31  1  0  0  0
 17 18  1  0  0  0
 17 98  1  0  0  0
 18 19  2  0  0  0
 18 99  1  0  0  0
 19 20  1  0  0  0
 19 24  1  0  0  0
 20 21  2  0  0  0
 20100  1  0  0  0
 21 23  1  0  0  0
 22 28  1  0  0  0
 22 32  2  0  0  0
 26 27  1  0  0  0
 28101  1  0  0  0
 28102  1  0  0  0
 29103  1  0  0  0
 29104  1  0  0  0
 33 34  1  0  0  0
 33 66  1  0  0  0
 33 70  2  0  0  0
 34 36  1  0  0  0
 34 59  1  0  0  0
 34105  1  0  0  0
 35 44  2  0  0  0
 35 45  1  0  0  0
 35 68  1  0  0  0
 36 56  1  0  0  0
 36106  1  0  0  0
 37 39  1  0  0  0
 37 47  1  0  0  0
 37 66  1  0  0  0
 37107  1  0  0  0
 38 43  2  0  0  0
 38 46  1  0  0  0
 38 47  1  0  0  0
 39 64  1  0  0  0
 39 67  2  0  0  0
 40 52  1  0  0  0
 40 53  2  0  0  0
 40 58  1  0  0  0
 41108  1  0  0  0
 41109  1  0  0  0
 41110  1  0  0  0
 41 48  1  0  0  0
 42 43  1  0  0  0
 42 66  1  0  0  0
 42111  1  0  0  0
 42112  1  0  0  0
 43 44  1  0  0  0
 44113  1  0  0  0
 45 46  2  0  0  0
 45114  1  0  0  0
 46115  1  0  0  0
 47116  1  0  0  0
 47117  1  0  0  0
 48 56  1  0  0  0
 48 65  1  0  0  0
 48118  1  0  0  0
 49 50  1  0  0  0
 49 53  1  0  0  0
 49 64  1  0  0  0
 49119  1  0  0  0
 50 51  1  0  0  0
 50120  1  0  0  0
 50121  1  0  0  0
 51 52  1  0  0  0
 51122  1  0  0  0
 51123  1  0  0  0
 52124  1  0  0  0
 52125  1  0  0  0
 53 54  1  0  0  0
 54 55  2  0  0  0
 54126  1  0  0  0
 55 57  1  0  0  0
 55127  1  0  0  0
 56 69  2  0  0  0
 57 58  2  0  0  0
 57128  1  0  0  0
 58129  1  0  0  0
 59 60  1  0  0  0
 59 61  1  0  0  0
 59 62  1  0  0  0
 60130  1  0  0  0
 60131  1  0  0  0
 60132  1  0  0  0
 61133  1  0  0  0
 61134  1  0  0  0
 61135  1  0  0  0
 62136  1  0  0  0
 62137  1  0  0  0
 62138  1  0  0  0
 63 65  1  0  0  0
 63139  1  0  0  0
 63140  1  0  0  0
 63141  1  0  0  0
 64142  1  0  0  0
 65143  1  0  0  0
 68 80  1  0  0  0
 71 72  2  0  0  0
 71 75  1  0  0  0
 71144  1  0  0  0
 72 76  1  0  0  0
 72145  1  0  0  0
 73 74  1  0  0  0
 73 76  2  0  0  0
 73146  1  0  0  0
 74 75  2  0  0  0
 74 78  1  0  0  0
 75 82  1  0  0  0
 76 84  1  0  0  0
 77 79  1  0  0  0
 77 80  1  0  0  0
 77 83  2  0  0  0
 78147  1  0  0  0
 78148  1  0  0  0
 79 81  1  0  0  0
 79149  1  0  0  0
 79150  1  0  0  0
 80151  1  0  0  0
 80152  1  0  0  0
 81 84  1  0  0  0
 81153  1  0  0  0
 81154  1  0  0  0
 82155  1  0  0  0
 82156  1  0  0  0
M  ISO  4   1 100  68 101  78 100  80 101
M  END
> <chiral flag>
0

> <version>
0

> <s_m_source_file>
/data/baiqing/PycharmProjects/Reinvent-master-3.2/result/LINK_invent/BTK/process_docking_weight1_custom_product_contain_oxygen_bond_distance_aromatic_linkinvent_7_9_3/rearranged_h_0105.sdf

> <i_m_source_file_index>
69

> <r_mmod_Potential_Energy-OPLS-2005>
-76.2494201660156

> <r_mmod_Stretch_Energy-OPLS-2005>
46.8820648193359

> <r_mmod_Bend_Energy-OPLS-2005>
117.653671264648

> <r_mmod_Torsional_Energy-OPLS-2005>
190.761810302734

> <r_mmod_Improper_Torsional_Energy-OPLS-2005>
6.88622713088989

> <r_mmod_Van_der_Waal_Energy-OPLS-2005>
155.065338134766

> <r_mmod_Electrostatic_Energy-OPLS-2005>
-383.730194091797

> <r_mmod_Solvation_Energy-OPLS-2005>
-227.637985229492

> <b_mmod_Minimization_Converged-OPLS-2005>
0

> <r_mmod_RMS_Derivative-OPLS-2005>
1.64345550537109

$$$$
69
                    3D
 Structure written by MMmdl.
163172  0  0  1  0            999 V2000
  -30.6393  -14.7106   20.3787 C   0  0  0  0  0  0
  -30.4373  -12.4082   19.4641 C   0  0  0  0  0  0
  -29.5069  -12.4154   18.2311 C   0  0  0  0  0  0
  -28.0238  -12.3098   18.6490 C   0  0  0  0  0  0
  -27.6386  -13.2144   19.8542 C   0  0  2  0  0  0
  -28.7022  -13.1792   20.9726 C   0  0  0  0  0  0
  -25.2528  -13.8146   20.5724 C   0  0  0  0  0  0
  -24.1799  -13.0418   20.9217 C   0  0  0  0  0  0
  -24.6368  -11.6889   20.8789 C   0  0  0  0  0  0
  -23.9030  -10.4284   21.0431 C   0  0  0  0  0  0
  -24.3601   -9.4197   21.9198 C   0  0  0  0  0  0
  -23.6290   -8.2230   22.0764 C   0  0  0  0  0  0
  -22.4271   -8.0272   21.3548 C   0  0  0  0  0  0
  -21.9894   -9.0245   20.4654 C   0  0  0  0  0  0
  -22.7215  -10.2131   20.3061 C   0  0  0  0  0  0
  -21.6858   -6.0722   22.5268 C   0  0  0  0  0  0
  -21.4008   -6.5634   23.8198 C   0  0  0  0  0  0
  -21.3660   -5.6788   24.9162 C   0  0  0  0  0  0
  -21.6056   -4.3050   24.7215 C   0  0  0  0  0  0
  -21.8833   -3.8138   23.4344 C   0  0  0  0  0  0
  -21.9197   -4.6950   22.3396 C   0  0  0  0  0  0
  -22.7830  -13.5221   21.1861 C   0  0  0  0  0  0
  -22.1665   -4.2144   21.0970 F   0  0  0  0  0  0
  -21.5638   -3.4530   25.7728 F   0  0  0  0  0  0
  -29.9955  -13.4971   20.3552 N   0  0  0  0  0  0
  -26.2944  -12.9296   20.3401 N   0  0  0  0  0  0
  -25.9299  -11.6466   20.5864 N   0  0  0  0  0  0
  -22.0470  -12.8212   22.0413 N   0  0  0  0  0  0
  -25.4247  -15.1868   20.4101 N   0  0  0  0  0  0
  -31.8637  -14.7774   20.2351 O   0  0  0  0  0  0
  -21.6654   -6.8859   21.4228 O   0  0  0  0  0  0
  -22.3528  -14.5529   20.6708 O   0  0  0  0  0  0
  -24.6255  -31.8600   23.2038 C   0  0  0  0  0  0
  -25.9102  -32.4784   23.8370 C   0  0  1  0  0  0
  -27.2237  -27.3127   20.1219 C   0  0  0  0  0  0
  -25.5919  -33.8585   24.2300 N   0  0  0  0  0  0
  -23.4209  -30.4843   21.5459 C   0  0  2  0  0  0
  -24.8697  -28.9438   20.1083 C   0  0  0  0  0  0
  -22.7477  -29.4627   22.4934 C   0  0  0  0  0  0
  -18.0286  -28.1383   22.8486 C   0  0  0  0  0  0
  -24.1488  -36.7294   23.2641 C   0  0  0  0  0  0
  -25.9634  -30.7888   21.3791 C   0  0  0  0  0  0
  -26.0374  -29.4169   20.7201 C   0  0  0  0  0  0
  -27.2157  -28.6119   20.7207 C   0  0  0  0  0  0
  -26.0374  -26.9095   19.4622 C   0  0  0  0  0  0
  -24.8729  -27.6964   19.4689 C   0  0  0  0  0  0
  -23.6366  -29.8214   20.1600 C   0  0  0  0  0  0
  -25.4112  -36.3095   24.0338 C   0  0  1  0  0  0
  -20.5886  -28.3689   23.1279 C   0  0  2  0  0  0
  -20.6775  -26.9412   22.5407 C   0  0  0  0  0  0
  -19.5751  -26.6386   21.5211 C   0  0  0  0  0  0
  -18.1932  -26.7928   22.1623 C   0  0  0  0  0  0
  -19.1536  -28.8851   23.2882 C   0  0  0  0  0  0
  -18.9460  -30.1456   23.8899 C   0  0  0  0  0  0
  -17.6461  -30.6586   24.0563 C   0  0  0  0  0  0
  -25.9045  -34.9459   23.5120 C   0  0  0  0  0  0
  -16.5352  -29.9083   23.6331 C   0  0  0  0  0  0
  -16.7274  -28.6501   23.0356 C   0  0  0  0  0  0
  -26.4490  -31.6590   25.0733 C   0  0  0  0  0  0
  -25.3721  -31.3714   26.1454 C   0  0  0  0  0  0
  -27.0338  -30.3018   24.6192 C   0  0  0  0  0  0
  -27.6062  -32.4316   25.7490 C   0  0  0  0  0  0
  -27.5583  -37.1803   24.8465 C   0  0  0  0  0  0
  -21.4191  -29.3043   22.3673 N   0  0  0  0  0  0
  -26.4296  -37.3784   23.9407 N   0  0  0  0  0  0
  -24.6887  -31.0610   22.0993 N   0  0  0  0  0  0
  -23.4199  -28.8161   23.3012 O   0  0  0  0  0  0
  -28.3285  -26.4442   20.2080 O   0  0  0  0  0  0
  -26.5615  -34.8919   22.4689 O   0  0  0  0  0  0
  -23.5414  -32.1408   23.7358 O   0  0  0  0  0  0
  -28.6977  -19.2734   21.0584 C   0  0  0  0  0  0
  -28.7585  -17.8570   20.8677 C   0  0  0  0  0  0
  -31.0261  -19.4291   20.4973 C   0  0  0  0  0  0
  -29.8285  -20.1151   20.8619 C   0  0  0  0  0  0
  -29.9543  -17.1818   20.4937 C   0  0  0  0  0  0
  -31.0989  -18.0136   20.3254 C   0  0  0  0  0  0
  -29.0374  -23.9209   20.6281 C   0  0  0  0  0  0
  -28.9488  -22.5479   20.4546 C   0  0  0  0  0  0
  -30.6343  -22.0237   22.1293 C   0  0  0  0  0  0
  -30.1115  -24.4881   21.5256 C   0  0  0  0  0  0
  -30.5501  -23.4842   22.5982 C   0  0  0  0  0  0
  -27.9129  -21.9516   19.5049 C   0  0  0  0  0  0
  -29.6779  -15.8646   18.5128 C   0  0  0  0  0  0
  -28.1004  -24.9958   19.9602 C   0  0  0  0  0  0
  -29.8190  -21.5806   21.1227 N   0  0  0  0  0  0
  -29.8939  -15.8095   19.9739 N   0  0  0  0  0  0
  -31.4291  -21.2977   22.7402 O   0  0  0  0  0  0
  -32.2910  -17.4707   19.9369 O   0  0  0  0  0  0
  -31.4775  -12.5252   19.1523 H   0  0  0  0  0  0
  -30.3808  -11.4501   19.9837 H   0  0  0  0  0  0
  -29.7605  -11.5791   17.5786 H   0  0  0  0  0  0
  -29.6760  -13.3048   17.6286 H   0  0  0  0  0  0
  -27.8436  -11.2668   18.9111 H   0  0  0  0  0  0
  -27.3744  -12.5198   17.7979 H   0  0  0  0  0  0
  -27.6000  -14.2319   19.4836 H   0  0  0  0  0  0
  -28.7380  -12.2021   21.4553 H   0  0  0  0  0  0
  -28.4642  -13.9075   21.7501 H   0  0  0  0  0  0
  -25.2751   -9.5691   22.4764 H   0  0  0  0  0  0
  -24.0017   -7.4622   22.7469 H   0  0  0  0  0  0
  -21.0832   -8.8754   19.8956 H   0  0  0  0  0  0
  -22.3670  -10.9672   19.6172 H   0  0  0  0  0  0
  -21.1990   -7.6143   23.9693 H   0  0  0  0  0  0
  -21.1469   -6.0520   25.9067 H   0  0  0  0  0  0
  -22.0611   -2.7604   23.2839 H   0  0  0  0  0  0
  -22.4085  -11.9873   22.4803 H   0  0  0  0  0  0
  -21.1092  -13.1237   22.2626 H   0  0  0  0  0  0
  -24.6577  -15.8425   20.5110 H   0  0  0  0  0  0
  -26.2793  -15.6225   20.0885 H   0  0  0  0  0  0
  -26.7168  -32.5463   23.1119 H   0  0  0  0  0  0
  -25.0061  -33.9735   25.0439 H   0  0  0  0  0  0
  -22.7153  -31.3053   21.4029 H   0  0  0  0  0  0
  -23.3758  -35.9617   23.3302 H   0  0  0  0  0  0
  -24.3584  -36.8913   22.2056 H   0  0  0  0  0  0
  -23.7226  -37.6491   23.6658 H   0  0  0  0  0  0
  -26.0978  -31.5542   20.6134 H   0  0  0  0  0  0
  -26.8419  -30.8358   22.0103 H   0  0  0  0  0  0
  -28.1073  -28.9657   21.2192 H   0  0  0  0  0  0
  -25.9766  -25.9666   18.9392 H   0  0  0  0  0  0
  -23.9818  -27.3342   18.9746 H   0  0  0  0  0  0
  -23.7523  -30.5984   19.4038 H   0  0  0  0  0  0
  -22.7579  -29.2477   19.8594 H   0  0  0  0  0  0
  -25.1291  -36.1957   25.0831 H   0  0  0  0  0  0
  -20.9987  -28.3266   24.1398 H   0  0  0  0  0  0
  -20.5673  -26.2303   23.3608 H   0  0  0  0  0  0
  -21.6644  -26.7439   22.1201 H   0  0  0  0  0  0
  -19.6911  -25.6298   21.1240 H   0  0  0  0  0  0
  -19.6688  -27.3196   20.6740 H   0  0  0  0  0  0
  -17.4203  -26.6682   21.4028 H   0  0  0  0  0  0
  -18.0330  -26.0069   22.9016 H   0  0  0  0  0  0
  -19.7936  -30.7273   24.2274 H   0  0  0  0  0  0
  -17.5011  -31.6265   24.5162 H   0  0  0  0  0  0
  -15.5351  -30.2982   23.7652 H   0  0  0  0  0  0
  -15.8678  -28.0815   22.7073 H   0  0  0  0  0  0
  -24.5897  -30.7074   25.7764 H   0  0  0  0  0  0
  -24.8904  -32.2867   26.4899 H   0  0  0  0  0  0
  -25.8031  -30.8865   27.0220 H   0  0  0  0  0  0
  -26.2919  -29.6760   24.1222 H   0  0  0  0  0  0
  -27.4044  -29.7283   25.4698 H   0  0  0  0  0  0
  -27.8784  -30.4310   23.9421 H   0  0  0  0  0  0
  -27.2701  -33.3621   26.2073 H   0  0  0  0  0  0
  -28.3860  -32.6864   25.0302 H   0  0  0  0  0  0
  -28.0746  -31.8435   26.5393 H   0  0  0  0  0  0
  -28.2601  -38.0101   24.7523 H   0  0  0  0  0  0
  -28.1083  -36.2636   24.6282 H   0  0  0  0  0  0
  -27.2304  -37.1435   25.8869 H   0  0  0  0  0  0
  -20.9367  -29.8771   21.6883 H   0  0  0  0  0  0
  -26.0186  -38.2863   24.1403 H   0  0  0  0  0  0
  -27.7570  -19.7192   21.3507 H   0  0  0  0  0  0
  -27.8473  -17.2856   20.9640 H   0  0  0  0  0  0
  -31.9260  -20.0090   20.3467 H   0  0  0  0  0  0
  -29.7455  -25.3885   22.0204 H   0  0  0  0  0  0
  -30.9575  -24.7923   20.9069 H   0  0  0  0  0  0
  -31.5072  -23.7912   23.0208 H   0  0  0  0  0  0
  -29.8328  -23.5059   23.4189 H   0  0  0  0  0  0
  -27.7153  -22.6179   18.6658 H   0  0  0  0  0  0
  -26.9706  -21.7886   20.0288 H   0  0  0  0  0  0
  -28.2281  -21.0108   19.0561 H   0  0  0  0  0  0
  -29.4688  -16.8773   18.1624 H   0  0  0  0  0  0
  -28.8311  -15.2725   18.1842 H   0  0  0  0  0  0
  -30.5546  -15.5284   17.9557 H   0  0  0  0  0  0
  -27.1079  -24.7183   20.3182 H   0  0  0  0  0  0
  -28.1052  -24.8411   18.8809 H   0  0  0  0  0  0
  -32.2686  -16.5105   19.9427 H   0  0  0  0  0  0
  1 25  1  0  0  0
  1 30  2  0  0  0
  1 86  1  0  0  0
  2  3  1  0  0  0
  2 25  1  0  0  0
  2 89  1  0  0  0
  2 90  1  0  0  0
  3  4  1  0  0  0
  3 91  1  0  0  0
  3 92  1  0  0  0
  4  5  1  0  0  0
  4 93  1  0  0  0
  4 94  1  0  0  0
  5  6  1  0  0  0
  5 26  1  0  0  0
  5 95  1  0  0  0
  6 25  1  0  0  0
  6 96  1  0  0  0
  6 97  1  0  0  0
  7  8  2  0  0  0
  7 26  1  0  0  0
  7 29  1  0  0  0
  8  9  1  0  0  0
  8 22  1  0  0  0
  9 10  1  0  0  0
  9 27  2  0  0  0
 10 11  2  0  0  0
 10 15  1  0  0  0
 11 12  1  0  0  0
 11 98  1  0  0  0
 12 13  2  0  0  0
 12 99  1  0  0  0
 13 14  1  0  0  0
 13 31  1  0  0  0
 14 15  2  0  0  0
 14100  1  0  0  0
 15101  1  0  0  0
 16 17  2  0  0  0
 16 21  1  0  0  0
 16 31  1  0  0  0
 17 18  1  0  0  0
 17102  1  0  0  0
 18 19  2  0  0  0
 18103  1  0  0  0
 19 20  1  0  0  0
 19 24  1  0  0  0
 20 21  2  0  0  0
 20104  1  0  0  0
 21 23  1  0  0  0
 22 28  1  0  0  0
 22 32  2  0  0  0
 26 27  1  0  0  0
 28105  1  0  0  0
 28106  1  0  0  0
 29107  1  0  0  0
 29108  1  0  0  0
 33 34  1  0  0  0
 33 66  1  0  0  0
 33 70  2  0  0  0
 34 36  1  0  0  0
 34 59  1  0  0  0
 34109  1  0  0  0
 35 44  2  0  0  0
 35 45  1  0  0  0
 35 68  1  0  0  0
 36 56  1  0  0  0
 36110  1  0  0  0
 37 39  1  0  0  0
 37 47  1  0  0  0
 37 66  1  0  0  0
 37111  1  0  0  0
 38 43  2  0  0  0
 38 46  1  0  0  0
 38 47  1  0  0  0
 39 64  1  0  0  0
 39 67  2  0  0  0
 40 52  1  0  0  0
 40 53  2  0  0  0
 40 58  1  0  0  0
 41112  1  0  0  0
 41113  1  0  0  0
 41114  1  0  0  0
 41 48  1  0  0  0
 42 43  1  0  0  0
 42 66  1  0  0  0
 42115  1  0  0  0
 42116  1  0  0  0
 43 44  1  0  0  0
 44117  1  0  0  0
 45 46  2  0  0  0
 45118  1  0  0  0
 46119  1  0  0  0
 47120  1  0  0  0
 47121  1  0  0  0
 48 56  1  0  0  0
 48 65  1  0  0  0
 48122  1  0  0  0
 49 50  1  0  0  0
 49 53  1  0  0  0
 49 64  1  0  0  0
 49123  1  0  0  0
 50 51  1  0  0  0
 50124  1  0  0  0
 50125  1  0  0  0
 51 52  1  0  0  0
 51126  1  0  0  0
 51127  1  0  0  0
 52128  1  0  0  0
 52129  1  0  0  0
 53 54  1  0  0  0
 54 55  2  0  0  0
 54130  1  0  0  0
 55 57  1  0  0  0
 55131  1  0  0  0
 56 69  2  0  0  0
 57 58  2  0  0  0
 57132  1  0  0  0
 58133  1  0  0  0
 59 60  1  0  0  0
 59 61  1  0  0  0
 59 62  1  0  0  0
 60134  1  0  0  0
 60135  1  0  0  0
 60136  1  0  0  0
 61137  1  0  0  0
 61138  1  0  0  0
 61139  1  0  0  0
 62140  1  0  0  0
 62141  1  0  0  0
 62142  1  0  0  0
 63 65  1  0  0  0
 63143  1  0  0  0
 63144  1  0  0  0
 63145  1  0  0  0
 64146  1  0  0  0
 65147  1  0  0  0
 68 84  1  0  0  0
 71 72  2  0  0  0
 71 74  1  0  0  0
 71148  1  0  0  0
 72 75  1  0  0  0
 72149  1  0  0  0
 73 74  2  0  0  0
 73 76  1  0  0  0
 73150  1  0  0  0
 74 85  1  0  0  0
 75 76  2  0  0  0
 75 86  1  0  0  0
 76 88  1  0  0  0
 77 78  2  0  0  0
 77 80  1  0  0  0
 77 84  1  0  0  0
 78 82  1  0  0  0
 78 85  1  0  0  0
 79 81  1  0  0  0
 79 85  1  0  0  0
 79 87  2  0  0  0
 80 81  1  0  0  0
 80151  1  0  0  0
 80152  1  0  0  0
 81153  1  0  0  0
 81154  1  0  0  0
 82155  1  0  0  0
 82156  1  0  0  0
 82157  1  0  0  0
 83 86  1  0  0  0
 83158  1  0  0  0
 83159  1  0  0  0
 83160  1  0  0  0
 84161  1  0  0  0
 84162  1  0  0  0
 88163  1  0  0  0
M  ISO  4   1 100  68 101  84 101  86 100
M  END
> <chiral flag>
0

> <version>
0

> <s_m_source_file>
/data/baiqing/PycharmProjects/Reinvent-master-3.2/result/LINK_invent/BTK/process_docking_weight1_custom_product_contain_oxygen_bond_distance_aromatic_linkinvent_7_9_3/rearranged_h_0105.sdf

> <i_m_source_file_index>
70

> <r_mmod_Potential_Energy-OPLS-2005>
411.384887695312

> <r_mmod_Stretch_Energy-OPLS-2005>
103.246192932129

> <r_mmod_Bend_Energy-OPLS-2005>
151.228118896484

> <r_mmod_Torsional_Energy-OPLS-2005>
386.197357177734

> <r_mmod_Improper_Torsional_Energy-OPLS-2005>
26.2718772888184

> <r_mmod_Van_der_Waal_Energy-OPLS-2005>
179.105865478516

> <r_mmod_Electrostatic_Energy-OPLS-2005>
-303.346710205078

> <r_mmod_Solvation_Energy-OPLS-2005>
-207.810394287109

> <b_mmod_Minimization_Converged-OPLS-2005>
0

> <r_mmod_RMS_Derivative-OPLS-2005>
1.52781474590302

$$$$
70
                    3D
 Structure written by MMmdl.
162171  0  0  1  0            999 V2000
  -30.5971  -14.5478   20.5781 C   0  0  0  0  0  0
  -30.4368  -12.3625   19.4322 C   0  0  0  0  0  0
  -29.5041  -12.5451   18.2051 C   0  0  0  0  0  0
  -28.0185  -12.3780   18.6031 C   0  0  0  0  0  0
  -27.6495  -13.2038   19.8686 C   0  0  2  0  0  0
  -28.6853  -12.9820   20.9994 C   0  0  0  0  0  0
  -25.2506  -13.8208   20.5597 C   0  0  0  0  0  0
  -24.1849  -13.0393   20.9167 C   0  0  0  0  0  0
  -24.6264  -11.6889   20.8591 C   0  0  0  0  0  0
  -23.8976  -10.4259   21.0325 C   0  0  0  0  0  0
  -24.3576   -9.4258   21.9140 C   0  0  0  0  0  0
  -23.6285   -8.2304   22.0744 C   0  0  0  0  0  0
  -22.4272   -8.0317   21.3553 C   0  0  0  0  0  0
  -21.9876   -9.0245   20.4650 C   0  0  0  0  0  0
  -22.7131  -10.2130   20.3020 C   0  0  0  0  0  0
  -21.6870   -6.0723   22.5233 C   0  0  0  0  0  0
  -21.4042   -6.5654   23.8162 C   0  0  0  0  0  0
  -21.3668   -5.6824   24.9146 C   0  0  0  0  0  0
  -21.6021   -4.3072   24.7203 C   0  0  0  0  0  0
  -21.8836   -3.8143   23.4342 C   0  0  0  0  0  0
  -21.9223   -4.6967   22.3379 C   0  0  0  0  0  0
  -22.7858  -13.5260   21.1886 C   0  0  0  0  0  0
  -22.1687   -4.2161   21.0956 F   0  0  0  0  0  0
  -21.5638   -3.4543   25.7717 F   0  0  0  0  0  0
  -30.0037  -13.3279   20.4541 N   0  0  0  0  0  0
  -26.2868  -12.9207   20.3168 N   0  0  0  0  0  0
  -25.9194  -11.6387   20.5748 N   0  0  0  0  0  0
  -22.0558  -12.8200   22.0470 N   0  0  0  0  0  0
  -25.4217  -15.1869   20.3898 N   0  0  0  0  0  0
  -31.7551  -14.7548   20.1964 O   0  0  0  0  0  0
  -21.6686   -6.8866   21.4197 O   0  0  0  0  0  0
  -22.3463  -14.5494   20.6722 O   0  0  0  0  0  0
  -24.6230  -31.8687   23.2001 C   0  0  0  0  0  0
  -25.9129  -32.4793   23.8346 C   0  0  1  0  0  0
  -27.1252  -27.2964   20.1675 C   0  0  0  0  0  0
  -25.6017  -33.8590   24.2324 N   0  0  0  0  0  0
  -23.4207  -30.5218   21.5316 C   0  0  2  0  0  0
  -24.8403  -28.9602   20.1183 C   0  0  0  0  0  0
  -22.7390  -29.4904   22.4657 C   0  0  0  0  0  0
  -18.0065  -28.1414   22.8553 C   0  0  0  0  0  0
  -24.1498  -36.7324   23.2631 C   0  0  0  0  0  0
  -25.9653  -30.8140   21.3658 C   0  0  0  0  0  0
  -26.0170  -29.4295   20.7195 C   0  0  0  0  0  0
  -27.1808  -28.6048   20.7329 C   0  0  0  0  0  0
  -25.9507  -26.8902   19.5237 C   0  0  0  0  0  0
  -24.8045  -27.6903   19.5189 C   0  0  0  0  0  0
  -23.6390  -29.8738   20.1385 C   0  0  0  0  0  0
  -25.4107  -36.3117   24.0341 C   0  0  1  0  0  0
  -20.5765  -28.4061   23.0991 C   0  0  2  0  0  0
  -20.6824  -26.9929   22.4601 C   0  0  0  0  0  0
  -19.5329  -26.6791   21.4858 C   0  0  0  0  0  0
  -18.1879  -26.7698   22.2127 C   0  0  0  0  0  0
  -19.1300  -28.9111   23.2768 C   0  0  0  0  0  0
  -18.9123  -30.1762   23.8801 C   0  0  0  0  0  0
  -17.6080  -30.6766   24.0525 C   0  0  0  0  0  0
  -25.9065  -34.9476   23.5106 C   0  0  0  0  0  0
  -16.5023  -29.9136   23.6311 C   0  0  0  0  0  0
  -16.7082  -28.6574   23.0344 C   0  0  0  0  0  0
  -26.4507  -31.6580   25.0717 C   0  0  0  0  0  0
  -25.3749  -31.3702   26.1480 C   0  0  0  0  0  0
  -27.0372  -30.2997   24.6164 C   0  0  0  0  0  0
  -27.6103  -32.4251   25.7519 C   0  0  0  0  0  0
  -27.5589  -37.1862   24.8477 C   0  0  0  0  0  0
  -21.3982  -29.3691   22.3560 N   0  0  0  0  0  0
  -26.4293  -37.3802   23.9420 N   0  0  0  0  0  0
  -24.6892  -31.0789   22.0880 N   0  0  0  0  0  0
  -23.4125  -28.8135   23.2512 O   0  0  0  0  0  0
  -28.1647  -26.3843   20.1514 O   0  0  0  0  0  0
  -26.5567  -34.8980   22.4616 O   0  0  0  0  0  0
  -23.5452  -32.1431   23.7424 O   0  0  0  0  0  0
  -28.2146  -18.2631   20.1360 C   0  0  0  0  0  0
  -27.4101  -19.4362   20.0608 C   0  0  0  0  0  0
  -28.1877  -20.1659   22.2025 C   0  0  0  0  0  0
  -29.0675  -18.0552   21.2470 C   0  0  0  0  0  0
  -27.3815  -20.4256   21.0705 C   0  0  0  0  0  0
  -29.0366  -19.0333   22.2691 C   0  0  0  0  0  0
  -26.8711  -24.0754   20.8738 C   0  0  0  0  0  0
  -26.9961  -22.8073   20.3407 C   0  0  0  0  0  0
  -25.8878  -24.1750   22.0166 C   0  0  0  0  0  0
  -24.8145  -23.0727   22.0271 C   0  0  0  0  0  0
  -25.4977  -21.6907   22.0094 C   0  0  0  0  0  0
  -26.6660  -22.6407   18.8560 C   0  0  0  0  0  0
  -30.1485  -16.9364   21.3008 C   0  0  0  0  0  0
  -28.0529  -25.1229   20.9396 C   0  0  0  0  0  0
  -26.5810  -21.6237   20.9969 N   0  0  0  0  0  0
  -29.7740  -15.5448   20.9940 N   0  0  0  0  0  0
  -25.8636  -25.0698   22.8802 O   0  0  0  0  0  0
  -29.8467  -18.8832   23.3532 F   0  0  0  0  0  0
  -31.4792  -12.5340   19.1240 H   0  0  0  0  0  0
  -30.4126  -11.3358   19.8010 H   0  0  0  0  0  0
  -29.7618  -11.8273   17.4178 H   0  0  0  0  0  0
  -29.6720  -13.5381   17.7781 H   0  0  0  0  0  0
  -27.8078  -11.3157   18.7504 H   0  0  0  0  0  0
  -27.4000  -12.7025   17.7696 H   0  0  0  0  0  0
  -27.6793  -14.2562   19.5747 H   0  0  0  0  0  0
  -28.6355  -11.9541   21.3561 H   0  0  0  0  0  0
  -28.4063  -13.5910   21.8603 H   0  0  0  0  0  0
  -25.2761   -9.5808   22.4664 H   0  0  0  0  0  0
  -24.0058   -7.4731   22.7492 H   0  0  0  0  0  0
  -21.0803   -8.8717   19.8976 H   0  0  0  0  0  0
  -22.3568  -10.9648   19.6134 H   0  0  0  0  0  0
  -21.2026   -7.6151   23.9665 H   0  0  0  0  0  0
  -21.1465   -6.0553   25.9023 H   0  0  0  0  0  0
  -22.0598   -2.7611   23.2821 H   0  0  0  0  0  0
  -22.4192  -11.9878   22.4820 H   0  0  0  0  0  0
  -21.1096  -13.1246   22.2643 H   0  0  0  0  0  0
  -24.6279  -15.8221   20.4333 H   0  0  0  0  0  0
  -26.2584  -15.6254   20.0307 H   0  0  0  0  0  0
  -26.7247  -32.5454   23.1195 H   0  0  0  0  0  0
  -25.0382  -33.9739   25.0636 H   0  0  0  0  0  0
  -22.7246  -31.3473   21.4030 H   0  0  0  0  0  0
  -23.3766  -35.9654   23.3268 H   0  0  0  0  0  0
  -24.3654  -36.8935   22.2062 H   0  0  0  0  0  0
  -23.7285  -37.6537   23.6637 H   0  0  0  0  0  0
  -26.0986  -31.5873   20.5969 H   0  0  0  0  0  0
  -26.8369  -30.8543   22.0047 H   0  0  0  0  0  0
  -28.0962  -28.9473   21.2093 H   0  0  0  0  0  0
  -25.9140  -25.9241   19.0363 H   0  0  0  0  0  0
  -23.9030  -27.3157   19.0517 H   0  0  0  0  0  0
  -23.8026  -30.6553   19.3960 H   0  0  0  0  0  0
  -22.7420  -29.3431   19.8213 H   0  0  0  0  0  0
  -25.1295  -36.1997   25.0833 H   0  0  0  0  0  0
  -20.9999  -28.3392   24.1002 H   0  0  0  0  0  0
  -20.6539  -26.2459   23.2529 H   0  0  0  0  0  0
  -21.6609  -26.8324   22.0078 H   0  0  0  0  0  0
  -19.6551  -25.6949   21.0409 H   0  0  0  0  0  0
  -19.5857  -27.3841   20.6581 H   0  0  0  0  0  0
  -17.3734  -26.5527   21.5251 H   0  0  0  0  0  0
  -18.1132  -26.0360   23.0248 H   0  0  0  0  0  0
  -19.7424  -30.7893   24.1874 H   0  0  0  0  0  0
  -17.4274  -31.6371   24.5170 H   0  0  0  0  0  0
  -15.4824  -30.2860   23.7451 H   0  0  0  0  0  0
  -15.8364  -28.1026   22.7063 H   0  0  0  0  0  0
  -24.5948  -30.7009   25.7840 H   0  0  0  0  0  0
  -24.8920  -32.2860   26.4881 H   0  0  0  0  0  0
  -25.8082  -30.8933   27.0287 H   0  0  0  0  0  0
  -26.2963  -29.6732   24.1171 H   0  0  0  0  0  0
  -27.4098  -29.7285   25.4692 H   0  0  0  0  0  0
  -27.8811  -30.4321   23.9373 H   0  0  0  0  0  0
  -27.2755  -33.3560   26.2126 H   0  0  0  0  0  0
  -28.3927  -32.6758   25.0326 H   0  0  0  0  0  0
  -28.0759  -31.8315   26.5437 H   0  0  0  0  0  0
  -28.2611  -38.0148   24.7501 H   0  0  0  0  0  0
  -28.1080  -36.2698   24.6301 H   0  0  0  0  0  0
  -27.2332  -37.1508   25.8882 H   0  0  0  0  0  0
  -20.9002  -30.0497   21.7904 H   0  0  0  0  0  0
  -26.0178  -38.2867   24.1387 H   0  0  0  0  0  0
  -28.2253  -17.5522   19.3149 H   0  0  0  0  0  0
  -26.7996  -19.5666   19.1843 H   0  0  0  0  0  0
  -28.1918  -20.8891   23.0087 H   0  0  0  0  0  0
  -24.1209  -23.1629   22.8738 H   0  0  0  0  0  0
  -24.2326  -23.2138   21.1214 H   0  0  0  0  0  0
  -25.8925  -21.5297   23.0034 H   0  0  0  0  0  0
  -24.7569  -20.9079   21.8116 H   0  0  0  0  0  0
  -26.1229  -23.5146   18.5217 H   0  0  0  0  0  0
  -25.9463  -21.8208   18.6894 H   0  0  0  0  0  0
  -27.5532  -22.4655   18.2330 H   0  0  0  0  0  0
  -30.6044  -16.9269   22.2839 H   0  0  0  0  0  0
  -30.9028  -17.2511   20.5828 H   0  0  0  0  0  0
  -28.9417  -24.5471   20.7169 H   0  0  0  0  0  0
  -28.2095  -25.3977   21.9920 H   0  0  0  0  0  0
  -28.8171  -15.2926   21.1774 H   0  0  0  0  0  0
  1 25  1  0  0  0
  1 30  2  0  0  0
  1 86  1  0  0  0
  2  3  1  0  0  0
  2 25  1  0  0  0
  2 89  1  0  0  0
  2 90  1  0  0  0
  3  4  1  0  0  0
  3 91  1  0  0  0
  3 92  1  0  0  0
  4  5  1  0  0  0
  4 93  1  0  0  0
  4 94  1  0  0  0
  5  6  1  0  0  0
  5 26  1  0  0  0
  5 95  1  0  0  0
  6 25  1  0  0  0
  6 96  1  0  0  0
  6 97  1  0  0  0
  7  8  2  0  0  0
  7 26  1  0  0  0
  7 29  1  0  0  0
  8  9  1  0  0  0
  8 22  1  0  0  0
  9 10  1  0  0  0
  9 27  2  0  0  0
 10 11  2  0  0  0
 10 15  1  0  0  0
 11 12  1  0  0  0
 11 98  1  0  0  0
 12 13  2  0  0  0
 12 99  1  0  0  0
 13 14  1  0  0  0
 13 31  1  0  0  0
 14 15  2  0  0  0
 14100  1  0  0  0
 15101  1  0  0  0
 16 17  2  0  0  0
 16 21  1  0  0  0
 16 31  1  0  0  0
 17 18  1  0  0  0
 17102  1  0  0  0
 18 19  2  0  0  0
 18103  1  0  0  0
 19 20  1  0  0  0
 19 24  1  0  0  0
 20 21  2  0  0  0
 20104  1  0  0  0
 21 23  1  0  0  0
 22 28  1  0  0  0
 22 32  2  0  0  0
 26 27  1  0  0  0
 28105  1  0  0  0
 28106  1  0  0  0
 29107  1  0  0  0
 29108  1  0  0  0
 33 34  1  0  0  0
 33 66  1  0  0  0
 33 70  2  0  0  0
 34 36  1  0  0  0
 34 59  1  0  0  0
 34109  1  0  0  0
 35 44  2  0  0  0
 35 45  1  0  0  0
 35 68  1  0  0  0
 36 56  1  0  0  0
 36110  1  0  0  0
 37 39  1  0  0  0
 37 47  1  0  0  0
 37 66  1  0  0  0
 37111  1  0  0  0
 38 43  2  0  0  0
 38 46  1  0  0  0
 38 47  1  0  0  0
 39 64  1  0  0  0
 39 67  2  0  0  0
 40 52  1  0  0  0
 40 53  2  0  0  0
 40 58  1  0  0  0
 41112  1  0  0  0
 41113  1  0  0  0
 41114  1  0  0  0
 41 48  1  0  0  0
 42 43  1  0  0  0
 42 66  1  0  0  0
 42115  1  0  0  0
 42116  1  0  0  0
 43 44  1  0  0  0
 44117  1  0  0  0
 45 46  2  0  0  0
 45118  1  0  0  0
 46119  1  0  0  0
 47120  1  0  0  0
 47121  1  0  0  0
 48 56  1  0  0  0
 48 65  1  0  0  0
 48122  1  0  0  0
 49 50  1  0  0  0
 49 53  1  0  0  0
 49 64  1  0  0  0
 49123  1  0  0  0
 50 51  1  0  0  0
 50124  1  0  0  0
 50125  1  0  0  0
 51 52  1  0  0  0
 51126  1  0  0  0
 51127  1  0  0  0
 52128  1  0  0  0
 52129  1  0  0  0
 53 54  1  0  0  0
 54 55  2  0  0  0
 54130  1  0  0  0
 55 57  1  0  0  0
 55131  1  0  0  0
 56 69  2  0  0  0
 57 58  2  0  0  0
 57132  1  0  0  0
 58133  1  0  0  0
 59 60  1  0  0  0
 59 61  1  0  0  0
 59 62  1  0  0  0
 60134  1  0  0  0
 60135  1  0  0  0
 60136  1  0  0  0
 61137  1  0  0  0
 61138  1  0  0  0
 61139  1  0  0  0
 62140  1  0  0  0
 62141  1  0  0  0
 62142  1  0  0  0
 63 65  1  0  0  0
 63143  1  0  0  0
 63144  1  0  0  0
 63145  1  0  0  0
 64146  1  0  0  0
 65147  1  0  0  0
 68 84  1  0  0  0
 71 72  2  0  0  0
 71 74  1  0  0  0
 71148  1  0  0  0
 72 75  1  0  0  0
 72149  1  0  0  0
 73 75  2  0  0  0
 73 76  1  0  0  0
 73150  1  0  0  0
 74 76  2  0  0  0
 74 83  1  0  0  0
 75 85  1  0  0  0
 76 88  1  0  0  0
 77 78  2  0  0  0
 77 79  1  0  0  0
 77 84  1  0  0  0
 78 82  1  0  0  0
 78 85  1  0  0  0
 79 80  1  0  0  0
 79 87  2  0  0  0
 80 81  1  0  0  0
 80151  1  0  0  0
 80152  1  0  0  0
 81 85  1  0  0  0
 81153  1  0  0  0
 81154  1  0  0  0
 82155  1  0  0  0
 82156  1  0  0  0
 82157  1  0  0  0
 83 86  1  0  0  0
 83158  1  0  0  0
 83159  1  0  0  0
 84160  1  0  0  0
 84161  1  0  0  0
 86162  1  0  0  0
M  ISO  4   1 100  68 101  84 101  86 100
M  END
> <chiral flag>
0

> <version>
0

> <s_m_source_file>
/data/baiqing/PycharmProjects/Reinvent-master-3.2/result/LINK_invent/BTK/process_docking_weight1_custom_product_contain_oxygen_bond_distance_aromatic_linkinvent_7_9_3/rearranged_h_0105.sdf

> <i_m_source_file_index>
71

> <r_mmod_Potential_Energy-OPLS-2005>
251.469268798828

> <r_mmod_Stretch_Energy-OPLS-2005>
81.09814453125

> <r_mmod_Bend_Energy-OPLS-2005>
157.405990600586

> <r_mmod_Torsional_Energy-OPLS-2005>
397.536193847656

> <r_mmod_Improper_Torsional_Energy-OPLS-2005>
12.2801218032837

> <r_mmod_Van_der_Waal_Energy-OPLS-2005>
152.760650634766

> <r_mmod_Electrostatic_Energy-OPLS-2005>
-386.859405517578

> <r_mmod_Solvation_Energy-OPLS-2005>
-218.962341308594

> <b_mmod_Minimization_Converged-OPLS-2005>
0

> <r_mmod_RMS_Derivative-OPLS-2005>
22.8549842834473

$$$$
71
                    3D
 Structure written by MMmdl.
158167  0  0  1  0            999 V2000
  -30.6789  -14.4732   20.5973 C   0  0  0  0  0  0
  -30.4327  -12.3144   19.4214 C   0  0  0  0  0  0
  -29.4987  -12.4991   18.2058 C   0  0  0  0  0  0
  -28.0176  -12.3682   18.6146 C   0  0  0  0  0  0
  -27.6650  -13.2014   19.8767 C   0  0  2  0  0  0
  -28.7033  -12.9554   20.9944 C   0  0  0  0  0  0
  -25.2585  -13.8145   20.5666 C   0  0  0  0  0  0
  -24.1844  -13.0444   20.9188 C   0  0  0  0  0  0
  -24.6394  -11.6908   20.8774 C   0  0  0  0  0  0
  -23.9065  -10.4306   21.0438 C   0  0  0  0  0  0
  -24.3623   -9.4212   21.9187 C   0  0  0  0  0  0
  -23.6313   -8.2244   22.0739 C   0  0  0  0  0  0
  -22.4288   -8.0291   21.3552 C   0  0  0  0  0  0
  -21.9922   -9.0265   20.4647 C   0  0  0  0  0  0
  -22.7246  -10.2149   20.3070 C   0  0  0  0  0  0
  -21.6841   -6.0752   22.5295 C   0  0  0  0  0  0
  -21.4013   -6.5648   23.8234 C   0  0  0  0  0  0
  -21.3663   -5.6789   24.9187 C   0  0  0  0  0  0
  -21.6032   -4.3053   24.7226 C   0  0  0  0  0  0
  -21.8823   -3.8160   23.4347 C   0  0  0  0  0  0
  -21.9190   -4.6981   22.3411 C   0  0  0  0  0  0
  -22.7866  -13.5259   21.1840 C   0  0  0  0  0  0
  -22.1655   -4.2167   21.0987 F   0  0  0  0  0  0
  -21.5623   -3.4538   25.7739 F   0  0  0  0  0  0
  -30.0365  -13.2802   20.4584 N   0  0  0  0  0  0
  -26.3021  -12.9315   20.3357 N   0  0  0  0  0  0
  -25.9308  -11.6479   20.5792 N   0  0  0  0  0  0
  -22.0500  -12.8294   22.0416 N   0  0  0  0  0  0
  -25.4287  -15.1861   20.4047 N   0  0  0  0  0  0
  -31.7785  -14.6871   20.0813 O   0  0  0  0  0  0
  -21.6631   -6.8908   21.4265 O   0  0  0  0  0  0
  -22.3572  -14.5563   20.6650 O   0  0  0  0  0  0
  -24.6168  -31.8659   23.2068 C   0  0  0  0  0  0
  -25.9051  -32.4817   23.8373 C   0  0  1  0  0  0
  -27.2316  -27.4134   20.1201 C   0  0  0  0  0  0
  -25.5905  -33.8613   24.2306 N   0  0  0  0  0  0
  -23.4062  -30.4886   21.5441 C   0  0  2  0  0  0
  -24.8551  -28.9444   20.1173 C   0  0  0  0  0  0
  -22.7414  -29.4669   22.4961 C   0  0  0  0  0  0
  -18.0276  -28.1383   22.8494 C   0  0  0  0  0  0
  -24.1486  -36.7304   23.2642 C   0  0  0  0  0  0
  -25.9357  -30.8227   21.3645 C   0  0  0  0  0  0
  -26.0132  -29.4533   20.7197 C   0  0  0  0  0  0
  -27.2070  -28.6937   20.7213 C   0  0  0  0  0  0
  -26.0641  -26.9214   19.5062 C   0  0  0  0  0  0
  -24.8751  -27.6767   19.5068 C   0  0  0  0  0  0
  -23.6190  -29.8149   20.1610 C   0  0  0  0  0  0
  -25.4111  -36.3102   24.0342 C   0  0  1  0  0  0
  -20.5872  -28.3680   23.1314 C   0  0  2  0  0  0
  -20.6772  -26.9416   22.5421 C   0  0  0  0  0  0
  -19.5754  -26.6397   21.5211 C   0  0  0  0  0  0
  -18.1931  -26.7933   22.1619 C   0  0  0  0  0  0
  -19.1526  -28.8849   23.2903 C   0  0  0  0  0  0
  -18.9459  -30.1457   23.8916 C   0  0  0  0  0  0
  -17.6468  -30.6592   24.0574 C   0  0  0  0  0  0
  -25.9036  -34.9471   23.5113 C   0  0  0  0  0  0
  -16.5359  -29.9095   23.6335 C   0  0  0  0  0  0
  -16.7270  -28.6512   23.0352 C   0  0  0  0  0  0
  -26.4481  -31.6598   25.0707 C   0  0  0  0  0  0
  -25.3766  -31.3715   26.1471 C   0  0  0  0  0  0
  -27.0307  -30.3037   24.6083 C   0  0  0  0  0  0
  -27.6046  -32.4333   25.7487 C   0  0  0  0  0  0
  -27.5575  -37.1810   24.8467 C   0  0  0  0  0  0
  -21.4144  -29.3040   22.3708 N   0  0  0  0  0  0
  -26.4289  -37.3793   23.9413 N   0  0  0  0  0  0
  -24.6704  -31.0754   22.0965 N   0  0  0  0  0  0
  -23.4174  -28.8224   23.3025 O   0  0  0  0  0  0
  -28.3742  -26.6425   20.1039 O   0  0  0  0  0  0
  -26.5602  -34.8937   22.4674 O   0  0  0  0  0  0
  -23.5353  -32.1418   23.7448 O   0  0  0  0  0  0
  -28.6594  -18.8714   20.5575 C   0  0  0  0  0  0
  -28.7251  -17.4888   20.8628 C   0  0  0  0  0  0
  -31.0821  -18.9779   20.6062 C   0  0  0  0  0  0
  -29.8436  -19.6331   20.4054 C   0  0  0  0  0  0
  -29.9695  -16.8279   21.0137 C   0  0  0  0  0  0
  -31.1508  -17.6064   20.9355 C   0  0  0  0  0  0
  -29.8411  -21.0650   19.8997 C   0  0  0  0  0  0
  -28.0483  -23.3760   22.1871 C   0  0  0  0  0  0
  -28.2960  -21.9288   21.7194 C   0  0  0  0  0  0
  -29.1512  -23.4486   20.0711 C   0  0  0  0  0  0
  -28.1491  -24.2456   20.9278 C   0  0  2  0  0  0
  -28.5165  -25.7358   21.2141 C   0  0  0  0  0  0
  -29.1029  -22.0370   20.5038 N   0  0  0  0  0  0
  -29.9758  -15.4156   21.2635 N   0  0  0  0  0  0
  -30.5678  -21.3270   18.9373 O   0  0  0  0  0  0
  -32.3622  -17.0596   21.1901 F   0  0  0  0  0  0
  -31.4735  -12.4295   19.1170 H   0  0  0  0  0  0
  -30.3531  -11.2988   19.8111 H   0  0  0  0  0  0
  -29.7368  -11.7613   17.4380 H   0  0  0  0  0  0
  -29.6672  -13.4772   17.7547 H   0  0  0  0  0  0
  -27.8210  -11.3135   18.8053 H   0  0  0  0  0  0
  -27.3709  -12.6467   17.7819 H   0  0  0  0  0  0
  -27.7219  -14.2548   19.5970 H   0  0  0  0  0  0
  -28.6794  -11.9079   21.2966 H   0  0  0  0  0  0
  -28.4497  -13.5162   21.8962 H   0  0  0  0  0  0
  -25.2782   -9.5677   22.4740 H   0  0  0  0  0  0
  -24.0017   -7.4638   22.7448 H   0  0  0  0  0  0
  -21.0842   -8.8804   19.8977 H   0  0  0  0  0  0
  -22.3719  -10.9679   19.6175 H   0  0  0  0  0  0
  -21.2011   -7.6156   23.9758 H   0  0  0  0  0  0
  -21.1466   -6.0506   25.9090 H   0  0  0  0  0  0
  -22.0597   -2.7623   23.2841 H   0  0  0  0  0  0
  -22.4096  -11.9984   22.4862 H   0  0  0  0  0  0
  -21.1110  -13.1322   22.2591 H   0  0  0  0  0  0
  -24.6548  -15.8333   20.5063 H   0  0  0  0  0  0
  -26.2607  -15.6185   20.0262 H   0  0  0  0  0  0
  -26.7118  -32.5521   23.1131 H   0  0  0  0  0  0
  -25.0097  -33.9769   25.0477 H   0  0  0  0  0  0
  -22.6965  -31.3065   21.3990 H   0  0  0  0  0  0
  -23.3742  -35.9643   23.3332 H   0  0  0  0  0  0
  -24.3580  -36.8876   22.2048 H   0  0  0  0  0  0
  -23.7251  -37.6525   23.6633 H   0  0  0  0  0  0
  -26.0539  -31.5824   20.5906 H   0  0  0  0  0  0
  -26.8225  -30.8787   21.9840 H   0  0  0  0  0  0
  -28.1036  -29.0789   21.1873 H   0  0  0  0  0  0
  -26.0749  -25.9490   19.0349 H   0  0  0  0  0  0
  -23.9859  -27.2767   19.0389 H   0  0  0  0  0  0
  -23.7337  -30.5845   19.3982 H   0  0  0  0  0  0
  -22.7436  -29.2358   19.8626 H   0  0  0  0  0  0
  -25.1288  -36.1959   25.0838 H   0  0  0  0  0  0
  -20.9985  -28.3244   24.1418 H   0  0  0  0  0  0
  -20.5664  -26.2283   23.3609 H   0  0  0  0  0  0
  -21.6644  -26.7440   22.1217 H   0  0  0  0  0  0
  -19.6911  -25.6305   21.1228 H   0  0  0  0  0  0
  -19.6689  -27.3218   20.6757 H   0  0  0  0  0  0
  -17.4199  -26.6692   21.4016 H   0  0  0  0  0  0
  -18.0320  -26.0067   22.9009 H   0  0  0  0  0  0
  -19.7943  -30.7265   24.2274 H   0  0  0  0  0  0
  -17.5028  -31.6267   24.5171 H   0  0  0  0  0  0
  -15.5360  -30.3000   23.7660 H   0  0  0  0  0  0
  -15.8670  -28.0845   22.7045 H   0  0  0  0  0  0
  -24.5934  -30.7049   25.7828 H   0  0  0  0  0  0
  -24.8979  -32.2874   26.4940 H   0  0  0  0  0  0
  -25.8159  -30.8887   27.0204 H   0  0  0  0  0  0
  -26.2828  -29.6821   24.1133 H   0  0  0  0  0  0
  -27.4057  -29.7267   25.4541 H   0  0  0  0  0  0
  -27.8687  -30.4355   23.9238 H   0  0  0  0  0  0
  -27.2626  -33.3603   26.2114 H   0  0  0  0  0  0
  -28.3850  -32.6945   25.0321 H   0  0  0  0  0  0
  -28.0721  -31.8428   26.5373 H   0  0  0  0  0  0
  -28.2611  -38.0091   24.7506 H   0  0  0  0  0  0
  -28.1056  -36.2623   24.6300 H   0  0  0  0  0  0
  -27.2302  -37.1468   25.8875 H   0  0  0  0  0  0
  -20.9300  -29.8765   21.6937 H   0  0  0  0  0  0
  -26.0174  -38.2869   24.1402 H   0  0  0  0  0  0
  -27.6942  -19.3272   20.3800 H   0  0  0  0  0  0
  -27.8024  -16.9300   20.9455 H   0  0  0  0  0  0
  -32.0033  -19.5308   20.4937 H   0  0  0  0  0  0
  -28.8242  -23.6655   22.8988 H   0  0  0  0  0  0
  -27.0889  -23.4902   22.6929 H   0  0  0  0  0  0
  -27.3498  -21.4419   21.4777 H   0  0  0  0  0  0
  -28.7929  -21.3327   22.4887 H   0  0  0  0  0  0
  -30.1643  -23.8214   20.2266 H   0  0  0  0  0  0
  -28.9229  -23.5419   19.0074 H   0  0  0  0  0  0
  -27.1767  -24.2126   20.4358 H   0  0  0  0  0  0
  -29.5525  -25.7874   21.5504 H   0  0  0  0  0  0
  -27.9267  -26.0931   22.0609 H   0  0  0  0  0  0
  -29.1325  -15.0483   21.6741 H   0  0  0  0  0  0
  1 25  1  0  0  0
  1 30  2  0  0  0
  1 84  1  0  0  0
  2  3  1  0  0  0
  2 25  1  0  0  0
  2 87  1  0  0  0
  2 88  1  0  0  0
  3  4  1  0  0  0
  3 89  1  0  0  0
  3 90  1  0  0  0
  4  5  1  0  0  0
  4 91  1  0  0  0
  4 92  1  0  0  0
  5  6  1  0  0  0
  5 26  1  0  0  0
  5 93  1  0  0  0
  6 25  1  0  0  0
  6 94  1  0  0  0
  6 95  1  0  0  0
  7  8  2  0  0  0
  7 26  1  0  0  0
  7 29  1  0  0  0
  8  9  1  0  0  0
  8 22  1  0  0  0
  9 10  1  0  0  0
  9 27  2  0  0  0
 10 11  2  0  0  0
 10 15  1  0  0  0
 11 12  1  0  0  0
 11 96  1  0  0  0
 12 13  2  0  0  0
 12 97  1  0  0  0
 13 14  1  0  0  0
 13 31  1  0  0  0
 14 15  2  0  0  0
 14 98  1  0  0  0
 15 99  1  0  0  0
 16 17  2  0  0  0
 16 21  1  0  0  0
 16 31  1  0  0  0
 17 18  1  0  0  0
 17100  1  0  0  0
 18 19  2  0  0  0
 18101  1  0  0  0
 19 20  1  0  0  0
 19 24  1  0  0  0
 20 21  2  0  0  0
 20102  1  0  0  0
 21 23  1  0  0  0
 22 28  1  0  0  0
 22 32  2  0  0  0
 26 27  1  0  0  0
 28103  1  0  0  0
 28104  1  0  0  0
 29105  1  0  0  0
 29106  1  0  0  0
 33 34  1  0  0  0
 33 66  1  0  0  0
 33 70  2  0  0  0
 34 36  1  0  0  0
 34 59  1  0  0  0
 34107  1  0  0  0
 35 44  2  0  0  0
 35 45  1  0  0  0
 35 68  1  0  0  0
 36 56  1  0  0  0
 36108  1  0  0  0
 37 39  1  0  0  0
 37 47  1  0  0  0
 37 66  1  0  0  0
 37109  1  0  0  0
 38 43  2  0  0  0
 38 46  1  0  0  0
 38 47  1  0  0  0
 39 64  1  0  0  0
 39 67  2  0  0  0
 40 52  1  0  0  0
 40 53  2  0  0  0
 40 58  1  0  0  0
 41110  1  0  0  0
 41111  1  0  0  0
 41112  1  0  0  0
 41 48  1  0  0  0
 42 43  1  0  0  0
 42 66  1  0  0  0
 42113  1  0  0  0
 42114  1  0  0  0
 43 44  1  0  0  0
 44115  1  0  0  0
 45 46  2  0  0  0
 45116  1  0  0  0
 46117  1  0  0  0
 47118  1  0  0  0
 47119  1  0  0  0
 48 56  1  0  0  0
 48 65  1  0  0  0
 48120  1  0  0  0
 49 50  1  0  0  0
 49 53  1  0  0  0
 49 64  1  0  0  0
 49121  1  0  0  0
 50 51  1  0  0  0
 50122  1  0  0  0
 50123  1  0  0  0
 51 52  1  0  0  0
 51124  1  0  0  0
 51125  1  0  0  0
 52126  1  0  0  0
 52127  1  0  0  0
 53 54  1  0  0  0
 54 55  2  0  0  0
 54128  1  0  0  0
 55 57  1  0  0  0
 55129  1  0  0  0
 56 69  2  0  0  0
 57 58  2  0  0  0
 57130  1  0  0  0
 58131  1  0  0  0
 59 60  1  0  0  0
 59 61  1  0  0  0
 59 62  1  0  0  0
 60132  1  0  0  0
 60133  1  0  0  0
 60134  1  0  0  0
 61135  1  0  0  0
 61136  1  0  0  0
 61137  1  0  0  0
 62138  1  0  0  0
 62139  1  0  0  0
 62140  1  0  0  0
 63 65  1  0  0  0
 63141  1  0  0  0
 63142  1  0  0  0
 63143  1  0  0  0
 64144  1  0  0  0
 65145  1  0  0  0
 68 82  1  0  0  0
 71 72  2  0  0  0
 71 74  1  0  0  0
 71146  1  0  0  0
 72 75  1  0  0  0
 72147  1  0  0  0
 73 74  2  0  0  0
 73 76  1  0  0  0
 73148  1  0  0  0
 74 77  1  0  0  0
 75 76  2  0  0  0
 75 84  1  0  0  0
 76 86  1  0  0  0
 77 83  1  0  0  0
 77 85  2  0  0  0
 78 79  1  0  0  0
 78 81  1  0  0  0
 78149  1  0  0  0
 78150  1  0  0  0
 79 83  1  0  0  0
 79151  1  0  0  0
 79152  1  0  0  0
 80 81  1  0  0  0
 80 83  1  0  0  0
 80153  1  0  0  0
 80154  1  0  0  0
 81 82  1  0  0  0
 81155  1  0  0  0
 82156  1  0  0  0
 82157  1  0  0  0
 84158  1  0  0  0
M  ISO  4   1 100  68 101  82 101  84 100
M  END
> <chiral flag>
0

> <version>
0

> <s_m_source_file>
/data/baiqing/PycharmProjects/Reinvent-master-3.2/result/LINK_invent/BTK/process_docking_weight1_custom_product_contain_oxygen_bond_distance_aromatic_linkinvent_7_9_3/rearranged_h_0105.sdf

> <i_m_source_file_index>
72

> <r_mmod_Potential_Energy-OPLS-2005>
61.5994758605957

> <r_mmod_Stretch_Energy-OPLS-2005>
42.0884399414062

> <r_mmod_Bend_Energy-OPLS-2005>
121.888999938965

> <r_mmod_Torsional_Energy-OPLS-2005>
345.329681396484

> <r_mmod_Improper_Torsional_Energy-OPLS-2005>
5.24740695953369

> <r_mmod_Van_der_Waal_Energy-OPLS-2005>
143.141616821289

> <r_mmod_Electrostatic_Energy-OPLS-2005>
-371.111633300781

> <r_mmod_Solvation_Energy-OPLS-2005>
-238.52311706543

> <b_mmod_Minimization_Converged-OPLS-2005>
0

> <r_mmod_RMS_Derivative-OPLS-2005>
3.09271645545959

$$$$
72
                    3D
 Structure written by MMmdl.
158167  0  0  1  0            999 V2000
  -30.4654  -14.9793   20.4174 C   0  0  0  0  0  0
  -30.4718  -12.6076   19.5036 C   0  0  0  0  0  0
  -29.5455  -12.5670   18.2608 C   0  0  0  0  0  0
  -28.0740  -12.3255   18.6604 C   0  0  0  0  0  0
  -27.6453  -13.2188   19.8542 C   0  0  2  0  0  0
  -28.6941  -13.1573   20.9849 C   0  0  0  0  0  0
  -25.2596  -13.8135   20.5802 C   0  0  0  0  0  0
  -24.1805  -13.0397   20.9143 C   0  0  0  0  0  0
  -24.6373  -11.6867   20.8686 C   0  0  0  0  0  0
  -23.9036  -10.4251   21.0360 C   0  0  0  0  0  0
  -24.3583   -9.4194   21.9172 C   0  0  0  0  0  0
  -23.6262   -8.2226   22.0751 C   0  0  0  0  0  0
  -22.4261   -8.0237   21.3537 C   0  0  0  0  0  0
  -21.9894   -9.0198   20.4639 C   0  0  0  0  0  0
  -22.7201  -10.2085   20.3036 C   0  0  0  0  0  0
  -21.6831   -6.0723   22.5283 C   0  0  0  0  0  0
  -21.3981   -6.5624   23.8211 C   0  0  0  0  0  0
  -21.3680   -5.6791   24.9178 C   0  0  0  0  0  0
  -21.6048   -4.3052   24.7225 C   0  0  0  0  0  0
  -21.8822   -3.8139   23.4346 C   0  0  0  0  0  0
  -21.9169   -4.6956   22.3405 C   0  0  0  0  0  0
  -22.7850  -13.5204   21.1818 C   0  0  0  0  0  0
  -22.1646   -4.2148   21.0981 F   0  0  0  0  0  0
  -21.5649   -3.4532   25.7742 F   0  0  0  0  0  0
  -29.9599  -13.6654   20.4222 N   0  0  0  0  0  0
  -26.2958  -12.9278   20.3295 N   0  0  0  0  0  0
  -25.9295  -11.6438   20.5675 N   0  0  0  0  0  0
  -22.0482  -12.8189   22.0370 N   0  0  0  0  0  0
  -25.4500  -15.1835   20.4473 N   0  0  0  0  0  0
  -31.6494  -15.1168   20.0721 O   0  0  0  0  0  0
  -21.6616   -6.8852   21.4237 O   0  0  0  0  0  0
  -22.3526  -14.5516   20.6679 O   0  0  0  0  0  0
  -24.6445  -31.8421   23.1937 C   0  0  0  0  0  0
  -25.9219  -32.4662   23.8313 C   0  0  1  0  0  0
  -27.2205  -27.1617   20.1358 C   0  0  0  0  0  0
  -25.6007  -33.8481   24.2233 N   0  0  0  0  0  0
  -23.4471  -30.4626   21.5346 C   0  0  2  0  0  0
  -24.8901  -28.8845   20.1178 C   0  0  0  0  0  0
  -22.7555  -29.4545   22.4848 C   0  0  0  0  0  0
  -18.0320  -28.1394   22.8483 C   0  0  0  0  0  0
  -24.1488  -36.7247   23.2652 C   0  0  0  0  0  0
  -25.9998  -30.7194   21.3894 C   0  0  0  0  0  0
  -26.0659  -29.3309   20.7341 C   0  0  0  0  0  0
  -27.2339  -28.4876   20.7222 C   0  0  0  0  0  0
  -26.0224  -26.8062   19.4866 C   0  0  0  0  0  0
  -24.8782  -27.6334   19.4799 C   0  0  0  0  0  0
  -23.6721  -29.7929   20.1530 C   0  0  0  0  0  0
  -25.4119  -36.2996   24.0323 C   0  0  1  0  0  0
  -20.5919  -28.3705   23.1219 C   0  0  2  0  0  0
  -20.6754  -26.9380   22.5434 C   0  0  0  0  0  0
  -19.5723  -26.6299   21.5241 C   0  0  0  0  0  0
  -18.1923  -26.7895   22.1661 C   0  0  0  0  0  0
  -19.1581  -28.8864   23.2835 C   0  0  0  0  0  0
  -18.9494  -30.1464   23.8862 C   0  0  0  0  0  0
  -17.6495  -30.6562   24.0566 C   0  0  0  0  0  0
  -25.9088  -34.9383   23.5081 C   0  0  0  0  0  0
  -16.5379  -29.9079   23.6355 C   0  0  0  0  0  0
  -16.7307  -28.6517   23.0355 C   0  0  0  0  0  0
  -26.4587  -31.6515   25.0727 C   0  0  0  0  0  0
  -25.3827  -31.3660   26.1444 C   0  0  0  0  0  0
  -27.0481  -30.2924   24.6315 C   0  0  0  0  0  0
  -27.6091  -32.4323   25.7504 C   0  0  0  0  0  0
  -27.5564  -37.1770   24.8468 C   0  0  0  0  0  0
  -21.4253  -29.3035   22.3571 N   0  0  0  0  0  0
  -26.4276  -37.3712   23.9427 N   0  0  0  0  0  0
  -24.7168  -31.0297   22.0952 N   0  0  0  0  0  0
  -23.4208  -28.8083   23.2970 O   0  0  0  0  0  0
  -28.3280  -26.2596   20.0374 O   0  0  0  0  0  0
  -26.5619  -34.8884   22.4628 O   0  0  0  0  0  0
  -23.5561  -32.1295   23.7133 O   0  0  0  0  0  0
  -30.3747  -18.6500   19.5173 C   0  0  0  0  0  0
  -28.6840  -18.8251   21.1233 C   0  0  0  0  0  0
  -30.2256  -20.0808   19.2714 C   0  0  0  0  0  0
  -28.5110  -20.2411   20.8588 C   0  0  0  0  0  0
  -29.5860  -17.9022   20.4551 C   0  0  0  0  0  0
  -29.2498  -20.9663   19.8812 C   0  0  0  0  0  0
  -26.7826  -23.2464   19.4880 C   0  0  0  0  0  0
  -28.0617  -23.4366   19.8800 C   0  0  0  0  0  0
  -29.4578  -16.2964   20.7227 C   0  0  0  0  0  0
  -26.3722  -22.1159   18.5529 C   0  0  0  0  0  0
  -27.5319  -21.7075   17.6026 C   0  0  0  0  0  0
  -28.8936  -22.3421   17.9970 C   0  0  0  0  0  0
  -28.4188  -24.8384   20.6365 C   0  0  0  0  0  0
  -28.3377  -16.0512   21.2540 N   0  0  0  0  0  0
  -29.0202  -22.3893   19.4664 N   0  0  0  0  0  0
  -31.5024  -12.8007   19.1993 H   0  0  0  0  0  0
  -30.5008  -11.6379   20.0033 H   0  0  0  0  0  0
  -29.8820  -11.8060   17.5593 H   0  0  0  0  0  0
  -29.6235  -13.5158   17.7293 H   0  0  0  0  0  0
  -27.9640  -11.2753   18.9293 H   0  0  0  0  0  0
  -27.4204  -12.4921   17.8064 H   0  0  0  0  0  0
  -27.6251  -14.2345   19.4611 H   0  0  0  0  0  0
  -28.8032  -12.1349   21.3497 H   0  0  0  0  0  0
  -28.3853  -13.7092   21.8703 H   0  0  0  0  0  0
  -25.2726   -9.5673   22.4751 H   0  0  0  0  0  0
  -23.9971   -7.4616   22.7469 H   0  0  0  0  0  0
  -21.0842   -8.8672   19.8941 H   0  0  0  0  0  0
  -22.3642  -10.9589   19.6134 H   0  0  0  0  0  0
  -21.1966   -7.6140   23.9710 H   0  0  0  0  0  0
  -21.1525   -6.0526   25.9082 H   0  0  0  0  0  0
  -22.0607   -2.7598   23.2842 H   0  0  0  0  0  0
  -22.4061  -11.9807   22.4706 H   0  0  0  0  0  0
  -21.1105  -13.1223   22.2597 H   0  0  0  0  0  0
  -24.7612  -15.8605   20.7573 H   0  0  0  0  0  0
  -26.4014  -15.5460   20.4655 H   0  0  0  0  0  0
  -26.7272  -32.5244   23.1012 H   0  0  0  0  0  0
  -25.0194  -33.9627   25.0404 H   0  0  0  0  0  0
  -22.7499  -31.2861   21.3745 H   0  0  0  0  0  0
  -23.3749  -35.9580   23.3284 H   0  0  0  0  0  0
  -24.3575  -36.8921   22.2073 H   0  0  0  0  0  0
  -23.7249  -37.6443   23.6715 H   0  0  0  0  0  0
  -26.1657  -31.4771   20.6220 H   0  0  0  0  0  0
  -26.8698  -30.7568   22.0336 H   0  0  0  0  0  0
  -28.1438  -28.8415   21.1857 H   0  0  0  0  0  0
  -25.9725  -25.8785   18.9417 H   0  0  0  0  0  0
  -23.9882  -27.2993   18.9684 H   0  0  0  0  0  0
  -23.8196  -30.5716   19.4016 H   0  0  0  0  0  0
  -22.7843  -29.2446   19.8325 H   0  0  0  0  0  0
  -25.1291  -36.1822   25.0812 H   0  0  0  0  0  0
  -21.0016  -28.3268   24.1341 H   0  0  0  0  0  0
  -20.5607  -26.2343   23.3693 H   0  0  0  0  0  0
  -21.6628  -26.7316   22.1261 H   0  0  0  0  0  0
  -19.6860  -25.6171   21.1369 H   0  0  0  0  0  0
  -19.6659  -27.3032   20.6700 H   0  0  0  0  0  0
  -17.4161  -26.6612   21.4084 H   0  0  0  0  0  0
  -18.0336  -26.0096   22.9130 H   0  0  0  0  0  0
  -19.7966  -30.7299   24.2185 H   0  0  0  0  0  0
  -17.5050  -31.6225   24.5176 H   0  0  0  0  0  0
  -15.5379  -30.2981   23.7717 H   0  0  0  0  0  0
  -15.8685  -28.0843   22.7093 H   0  0  0  0  0  0
  -24.6058  -30.6916   25.7813 H   0  0  0  0  0  0
  -24.8955  -32.2797   26.4842 H   0  0  0  0  0  0
  -25.8198  -30.8906   27.0229 H   0  0  0  0  0  0
  -26.3108  -29.6589   24.1368 H   0  0  0  0  0  0
  -27.4143  -29.7255   25.4885 H   0  0  0  0  0  0
  -27.8986  -30.4158   23.9612 H   0  0  0  0  0  0
  -27.2679  -33.3673   26.1955 H   0  0  0  0  0  0
  -28.3968  -32.6818   25.0380 H   0  0  0  0  0  0
  -28.0691  -31.8548   26.5524 H   0  0  0  0  0  0
  -28.2538  -38.0097   24.7512 H   0  0  0  0  0  0
  -28.1106  -36.2628   24.6287 H   0  0  0  0  0  0
  -27.2298  -37.1388   25.8873 H   0  0  0  0  0  0
  -20.9456  -29.8822   21.6817 H   0  0  0  0  0  0
  -26.0131  -38.2781   24.1428 H   0  0  0  0  0  0
  -31.0992  -18.1141   18.9203 H   0  0  0  0  0  0
  -28.0244  -18.4409   21.8879 H   0  0  0  0  0  0
  -30.8951  -20.4966   18.5321 H   0  0  0  0  0  0
  -27.7473  -20.7668   21.4116 H   0  0  0  0  0  0
  -26.0069  -23.9419   19.7658 H   0  0  0  0  0  0
  -25.4990  -22.4096   17.9700 H   0  0  0  0  0  0
  -26.0620  -21.2752   19.1720 H   0  0  0  0  0  0
  -27.2832  -21.9959   16.5789 H   0  0  0  0  0  0
  -27.6192  -20.6202   17.5932 H   0  0  0  0  0  0
  -28.9179  -23.3642   17.6065 H   0  0  0  0  0  0
  -29.7189  -21.8572   17.4798 H   0  0  0  0  0  0
  -29.4555  -24.7276   20.9598 H   0  0  0  0  0  0
  -27.8414  -24.8541   21.5611 H   0  0  0  0  0  0
  -27.8259  -16.9161   21.3775 H   0  0  0  0  0  0
  1 25  1  0  0  0
  1 30  2  0  0  0
  1 79  1  0  0  0
  2  3  1  0  0  0
  2 25  1  0  0  0
  2 86  1  0  0  0
  2 87  1  0  0  0
  3  4  1  0  0  0
  3 88  1  0  0  0
  3 89  1  0  0  0
  4  5  1  0  0  0
  4 90  1  0  0  0
  4 91  1  0  0  0
  5  6  1  0  0  0
  5 26  1  0  0  0
  5 92  1  0  0  0
  6 25  1  0  0  0
  6 93  1  0  0  0
  6 94  1  0  0  0
  7  8  2  0  0  0
  7 26  1  0  0  0
  7 29  1  0  0  0
  8  9  1  0  0  0
  8 22  1  0  0  0
  9 10  1  0  0  0
  9 27  2  0  0  0
 10 11  2  0  0  0
 10 15  1  0  0  0
 11 12  1  0  0  0
 11 95  1  0  0  0
 12 13  2  0  0  0
 12 96  1  0  0  0
 13 14  1  0  0  0
 13 31  1  0  0  0
 14 15  2  0  0  0
 14 97  1  0  0  0
 15 98  1  0  0  0
 16 17  2  0  0  0
 16 21  1  0  0  0
 16 31  1  0  0  0
 17 18  1  0  0  0
 17 99  1  0  0  0
 18 19  2  0  0  0
 18100  1  0  0  0
 19 20  1  0  0  0
 19 24  1  0  0  0
 20 21  2  0  0  0
 20101  1  0  0  0
 21 23  1  0  0  0
 22 28  1  0  0  0
 22 32  2  0  0  0
 26 27  1  0  0  0
 28102  1  0  0  0
 28103  1  0  0  0
 29104  1  0  0  0
 29105  1  0  0  0
 33 34  1  0  0  0
 33 66  1  0  0  0
 33 70  2  0  0  0
 34 36  1  0  0  0
 34 59  1  0  0  0
 34106  1  0  0  0
 35 44  2  0  0  0
 35 45  1  0  0  0
 35 68  1  0  0  0
 36 56  1  0  0  0
 36107  1  0  0  0
 37 39  1  0  0  0
 37 47  1  0  0  0
 37 66  1  0  0  0
 37108  1  0  0  0
 38 43  2  0  0  0
 38 46  1  0  0  0
 38 47  1  0  0  0
 39 64  1  0  0  0
 39 67  2  0  0  0
 40 52  1  0  0  0
 40 53  2  0  0  0
 40 58  1  0  0  0
 41109  1  0  0  0
 41110  1  0  0  0
 41111  1  0  0  0
 41 48  1  0  0  0
 42 43  1  0  0  0
 42 66  1  0  0  0
 42112  1  0  0  0
 42113  1  0  0  0
 43 44  1  0  0  0
 44114  1  0  0  0
 45 46  2  0  0  0
 45115  1  0  0  0
 46116  1  0  0  0
 47117  1  0  0  0
 47118  1  0  0  0
 48 56  1  0  0  0
 48 65  1  0  0  0
 48119  1  0  0  0
 49 50  1  0  0  0
 49 53  1  0  0  0
 49 64  1  0  0  0
 49120  1  0  0  0
 50 51  1  0  0  0
 50121  1  0  0  0
 50122  1  0  0  0
 51 52  1  0  0  0
 51123  1  0  0  0
 51124  1  0  0  0
 52125  1  0  0  0
 52126  1  0  0  0
 53 54  1  0  0  0
 54 55  2  0  0  0
 54127  1  0  0  0
 55 57  1  0  0  0
 55128  1  0  0  0
 56 69  2  0  0  0
 57 58  2  0  0  0
 57129  1  0  0  0
 58130  1  0  0  0
 59 60  1  0  0  0
 59 61  1  0  0  0
 59 62  1  0  0  0
 60131  1  0  0  0
 60132  1  0  0  0
 60133  1  0  0  0
 61134  1  0  0  0
 61135  1  0  0  0
 61136  1  0  0  0
 62137  1  0  0  0
 62138  1  0  0  0
 62139  1  0  0  0
 63 65  1  0  0  0
 63140  1  0  0  0
 63141  1  0  0  0
 63142  1  0  0  0
 64143  1  0  0  0
 65144  1  0  0  0
 68 83  1  0  0  0
 71 73  2  0  0  0
 71 75  1  0  0  0
 71145  1  0  0  0
 72 74  1  0  0  0
 72 75  2  0  0  0
 72146  1  0  0  0
 73 76  1  0  0  0
 73147  1  0  0  0
 74 76  2  0  0  0
 74148  1  0  0  0
 75 79  1  0  0  0
 76 85  1  0  0  0
 77 78  2  0  0  0
 77 80  1  0  0  0
 77149  1  0  0  0
 78 83  1  0  0  0
 78 85  1  0  0  0
 79 84  2  0  0  0
 80 81  1  0  0  0
 80150  1  0  0  0
 80151  1  0  0  0
 81 82  1  0  0  0
 81152  1  0  0  0
 81153  1  0  0  0
 82 85  1  0  0  0
 82154  1  0  0  0
 82155  1  0  0  0
 83156  1  0  0  0
 83157  1  0  0  0
 84158  1  0  0  0
M  ISO  4   1 100  68 101  79 100  83 101
M  END
> <chiral flag>
0

> <version>
0

> <s_m_source_file>
/data/baiqing/PycharmProjects/Reinvent-master-3.2/result/LINK_invent/BTK/process_docking_weight1_custom_product_contain_oxygen_bond_distance_aromatic_linkinvent_7_9_3/rearranged_h_0105.sdf

> <i_m_source_file_index>
73

> <r_mmod_Potential_Energy-OPLS-2005>
774.703369140625

> <r_mmod_Stretch_Energy-OPLS-2005>
256.369445800781

> <r_mmod_Bend_Energy-OPLS-2005>
328.543365478516

> <r_mmod_Torsional_Energy-OPLS-2005>
262.464233398438

> <r_mmod_Improper_Torsional_Energy-OPLS-2005>
11.5178956985474

> <r_mmod_Van_der_Waal_Energy-OPLS-2005>
172.858901977539

> <r_mmod_Electrostatic_Energy-OPLS-2005>
-241.405548095703

> <r_mmod_Solvation_Energy-OPLS-2005>
-197.251113891602

> <b_mmod_Minimization_Converged-OPLS-2005>
0

> <r_mmod_RMS_Derivative-OPLS-2005>
4.90134429931641

$$$$
73
                    3D
 Structure written by MMmdl.
169178  0  0  1  0            999 V2000
  -30.6711  -14.6238   20.4502 C   0  0  0  0  0  0
  -30.4088  -12.3693   19.4696 C   0  0  0  0  0  0
  -29.4988  -12.4922   18.2293 C   0  0  0  0  0  0
  -28.0206  -12.3412   18.6376 C   0  0  0  0  0  0
  -27.6416  -13.2277   19.8555 C   0  0  2  0  0  0
  -28.6868  -13.1283   20.9897 C   0  0  0  0  0  0
  -25.2484  -13.8190   20.5702 C   0  0  0  0  0  0
  -24.1763  -13.0430   20.9206 C   0  0  0  0  0  0
  -24.6347  -11.6919   20.8734 C   0  0  0  0  0  0
  -23.9029  -10.4291   21.0390 C   0  0  0  0  0  0
  -24.3586   -9.4220   21.9176 C   0  0  0  0  0  0
  -23.6275   -8.2249   22.0747 C   0  0  0  0  0  0
  -22.4268   -8.0263   21.3535 C   0  0  0  0  0  0
  -21.9894   -9.0228   20.4639 C   0  0  0  0  0  0
  -22.7200  -10.2121   20.3046 C   0  0  0  0  0  0
  -21.6860   -6.0722   22.5283 C   0  0  0  0  0  0
  -21.4016   -6.5629   23.8213 C   0  0  0  0  0  0
  -21.3666   -5.6782   24.9176 C   0  0  0  0  0  0
  -21.6051   -4.3046   24.7235 C   0  0  0  0  0  0
  -21.8815   -3.8137   23.4356 C   0  0  0  0  0  0
  -21.9190   -4.6948   22.3407 C   0  0  0  0  0  0
  -22.7800  -13.5221   21.1880 C   0  0  0  0  0  0
  -22.1661   -4.2124   21.0989 F   0  0  0  0  0  0
  -21.5632   -3.4539   25.7755 F   0  0  0  0  0  0
  -30.0003  -13.4307   20.4097 N   0  0  0  0  0  0
  -26.2911  -12.9394   20.3302 N   0  0  0  0  0  0
  -25.9279  -11.6538   20.5755 N   0  0  0  0  0  0
  -22.0453  -12.8190   22.0431 N   0  0  0  0  0  0
  -25.4176  -15.1905   20.4153 N   0  0  0  0  0  0
  -31.8621  -14.6850   20.1387 O   0  0  0  0  0  0
  -21.6639   -6.8857   21.4242 O   0  0  0  0  0  0
  -22.3501  -14.5537   20.6745 O   0  0  0  0  0  0
  -24.6266  -31.8596   23.2059 C   0  0  0  0  0  0
  -25.9121  -32.4767   23.8382 C   0  0  1  0  0  0
  -27.2111  -27.3265   20.1002 C   0  0  0  0  0  0
  -25.5934  -33.8568   24.2310 N   0  0  0  0  0  0
  -23.4195  -30.4887   21.5469 C   0  0  2  0  0  0
  -24.8619  -28.9524   20.1069 C   0  0  0  0  0  0
  -22.7480  -29.4619   22.4929 C   0  0  0  0  0  0
  -18.0276  -28.1343   22.8470 C   0  0  0  0  0  0
  -24.1497  -36.7301   23.2645 C   0  0  0  0  0  0
  -25.9611  -30.7950   21.3753 C   0  0  0  0  0  0
  -26.0346  -29.4268   20.7099 C   0  0  0  0  0  0
  -27.2147  -28.6256   20.6945 C   0  0  0  0  0  0
  -26.0166  -26.9156   19.4604 C   0  0  0  0  0  0
  -24.8534  -27.7016   19.4759 C   0  0  0  0  0  0
  -23.6323  -29.8313   20.1604 C   0  0  0  0  0  0
  -25.4110  -36.3076   24.0337 C   0  0  1  0  0  0
  -20.5875  -28.3654   23.1249 C   0  0  2  0  0  0
  -20.6746  -26.9375   22.5379 C   0  0  0  0  0  0
  -19.5727  -26.6349   21.5164 C   0  0  0  0  0  0
  -18.1917  -26.7893   22.1590 C   0  0  0  0  0  0
  -19.1527  -28.8815   23.2858 C   0  0  0  0  0  0
  -18.9461  -30.1422   23.8876 C   0  0  0  0  0  0
  -17.6463  -30.6556   24.0541 C   0  0  0  0  0  0
  -25.9055  -34.9438   23.5126 C   0  0  0  0  0  0
  -16.5356  -29.9047   23.6313 C   0  0  0  0  0  0
  -16.7265  -28.6461   23.0350 C   0  0  0  0  0  0
  -26.4502  -31.6579   25.0755 C   0  0  0  0  0  0
  -25.3736  -31.3694   26.1479 C   0  0  0  0  0  0
  -27.0345  -30.3009   24.6194 C   0  0  0  0  0  0
  -27.6061  -32.4335   25.7518 C   0  0  0  0  0  0
  -27.5588  -37.1800   24.8466 C   0  0  0  0  0  0
  -21.4188  -29.3035   22.3672 N   0  0  0  0  0  0
  -26.4293  -37.3764   23.9416 N   0  0  0  0  0  0
  -24.6876  -31.0645   22.0989 N   0  0  0  0  0  0
  -23.4207  -28.8134   23.2987 O   0  0  0  0  0  0
  -28.3052  -26.4513   20.1656 O   0  0  0  0  0  0
  -26.5616  -34.8896   22.4687 O   0  0  0  0  0  0
  -23.5431  -32.1360   23.7408 O   0  0  0  0  0  0
  -29.3905  -20.4226   21.8845 C   0  0  0  0  0  0
  -28.9251  -20.6858   19.5512 C   0  0  0  0  0  0
  -29.8210  -19.0806   21.6732 C   0  0  0  0  0  0
  -29.8075  -18.4994   20.3753 C   0  0  0  0  0  0
  -28.9453  -21.2763   20.8364 C   0  0  0  0  0  0
  -29.3239  -19.3264   19.3103 C   0  0  0  0  0  0
  -29.6049  -23.6622   23.2638 C   0  0  0  0  0  0
  -28.1464  -23.2135   23.4904 C   0  0  0  0  0  0
  -29.7416  -24.5002   21.9823 C   0  0  0  0  0  0
  -27.4794  -22.6034   22.2370 C   0  0  0  0  0  0
  -29.0048  -23.9150   20.7430 C   0  0  2  0  0  0
  -30.3366  -18.2926   22.8693 C   0  0  0  0  0  0
  -28.5497  -19.4570   17.0290 C   0  0  0  0  0  0
  -30.4893  -17.1077   20.0864 C   0  0  0  0  0  0
  -27.9784  -25.0045   20.1876 C   0  0  0  0  0  0
  -28.3775  -22.5815   21.0773 N   0  0  0  0  0  0
  -29.9501  -15.7840   20.5598 N   0  0  0  0  0  0
  -29.2695  -18.7649   18.0492 O   0  0  0  0  0  0
  -31.4595  -12.4407   19.1836 H   0  0  0  0  0  0
  -30.2936  -11.3902   19.9365 H   0  0  0  0  0  0
  -29.7633  -11.7389   17.4860 H   0  0  0  0  0  0
  -29.6501  -13.4631   17.7540 H   0  0  0  0  0  0
  -27.8521  -11.2904   18.8760 H   0  0  0  0  0  0
  -27.3704  -12.5644   17.7913 H   0  0  0  0  0  0
  -27.6460  -14.2548   19.4917 H   0  0  0  0  0  0
  -28.6892  -12.1264   21.4210 H   0  0  0  0  0  0
  -28.4463  -13.8136   21.8033 H   0  0  0  0  0  0
  -25.2723   -9.5722   22.4753 H   0  0  0  0  0  0
  -23.9992   -7.4655   22.7472 H   0  0  0  0  0  0
  -21.0829   -8.8727   19.8950 H   0  0  0  0  0  0
  -22.3631  -10.9647   19.6155 H   0  0  0  0  0  0
  -21.2006   -7.6138   23.9709 H   0  0  0  0  0  0
  -21.1502   -6.0520   25.9076 H   0  0  0  0  0  0
  -22.0586   -2.7598   23.2872 H   0  0  0  0  0  0
  -22.4079  -11.9834   22.4770 H   0  0  0  0  0  0
  -21.1079  -13.1218   22.2664 H   0  0  0  0  0  0
  -24.6499  -15.8431   20.5292 H   0  0  0  0  0  0
  -26.2643  -15.6362   20.0861 H   0  0  0  0  0  0
  -26.7188  -32.5439   23.1141 H   0  0  0  0  0  0
  -25.0076  -33.9701   25.0448 H   0  0  0  0  0  0
  -22.7116  -31.3083   21.4067 H   0  0  0  0  0  0
  -23.3744  -35.9659   23.3295 H   0  0  0  0  0  0
  -24.3587  -36.8927   22.2067 H   0  0  0  0  0  0
  -23.7259  -37.6503   23.6664 H   0  0  0  0  0  0
  -26.0967  -31.5640   20.6128 H   0  0  0  0  0  0
  -26.8401  -30.8352   22.0072 H   0  0  0  0  0  0
  -28.1165  -28.9848   21.1716 H   0  0  0  0  0  0
  -25.9466  -25.9661   18.9509 H   0  0  0  0  0  0
  -23.9527  -27.3347   19.0021 H   0  0  0  0  0  0
  -23.7541  -30.6076   19.4032 H   0  0  0  0  0  0
  -22.7522  -29.2617   19.8594 H   0  0  0  0  0  0
  -25.1282  -36.1935   25.0825 H   0  0  0  0  0  0
  -20.9963  -28.3215   24.1370 H   0  0  0  0  0  0
  -20.5587  -26.2275   23.3589 H   0  0  0  0  0  0
  -21.6619  -26.7363   22.1216 H   0  0  0  0  0  0
  -19.6900  -25.6255   21.1209 H   0  0  0  0  0  0
  -19.6665  -27.3135   20.6676 H   0  0  0  0  0  0
  -17.4180  -26.6625   21.4002 H   0  0  0  0  0  0
  -18.0335  -26.0019   22.8978 H   0  0  0  0  0  0
  -19.7951  -30.7201   24.2257 H   0  0  0  0  0  0
  -17.5030  -31.6240   24.5130 H   0  0  0  0  0  0
  -15.5361  -30.2942   23.7634 H   0  0  0  0  0  0
  -15.8670  -28.0765   22.7088 H   0  0  0  0  0  0
  -24.5937  -30.7012   25.7813 H   0  0  0  0  0  0
  -24.8894  -32.2842   26.4908 H   0  0  0  0  0  0
  -25.8074  -30.8888   27.0254 H   0  0  0  0  0  0
  -26.2900  -29.6755   24.1261 H   0  0  0  0  0  0
  -27.4078  -29.7276   25.4686 H   0  0  0  0  0  0
  -27.8762  -30.4300   23.9386 H   0  0  0  0  0  0
  -27.2658  -33.3650   26.2053 H   0  0  0  0  0  0
  -28.3874  -32.6867   25.0340 H   0  0  0  0  0  0
  -28.0715  -31.8487   26.5454 H   0  0  0  0  0  0
  -28.2578  -38.0129   24.7499 H   0  0  0  0  0  0
  -28.1102  -36.2636   24.6287 H   0  0  0  0  0  0
  -27.2302  -37.1438   25.8875 H   0  0  0  0  0  0
  -20.9361  -29.8849   21.6965 H   0  0  0  0  0  0
  -26.0179  -38.2846   24.1401 H   0  0  0  0  0  0
  -29.4032  -20.7968   22.8967 H   0  0  0  0  0  0
  -28.5567  -21.3028   18.7470 H   0  0  0  0  0  0
  -30.2649  -22.7992   23.1914 H   0  0  0  0  0  0
  -29.9607  -24.2318   24.1223 H   0  0  0  0  0  0
  -27.5554  -24.0723   23.8121 H   0  0  0  0  0  0
  -28.0998  -22.5026   24.3173 H   0  0  0  0  0  0
  -30.7967  -24.6409   21.7454 H   0  0  0  0  0  0
  -29.3689  -25.5011   22.2089 H   0  0  0  0  0  0
  -26.5786  -23.1640   21.9858 H   0  0  0  0  0  0
  -27.1126  -21.6002   22.4637 H   0  0  0  0  0  0
  -29.7538  -23.7490   19.9674 H   0  0  0  0  0  0
  -30.0449  -18.7608   23.8098 H   0  0  0  0  0  0
  -31.4245  -18.2432   22.8510 H   0  0  0  0  0  0
  -29.9464  -17.2749   22.8812 H   0  0  0  0  0  0
  -28.5100  -18.8401   16.1307 H   0  0  0  0  0  0
  -29.0345  -20.3942   16.7522 H   0  0  0  0  0  0
  -27.5205  -19.6607   17.3297 H   0  0  0  0  0  0
  -31.5011  -17.2082   20.4801 H   0  0  0  0  0  0
  -30.6404  -17.0135   19.0098 H   0  0  0  0  0  0
  -27.0741  -24.9120   20.7866 H   0  0  0  0  0  0
  -27.7058  -24.7000   19.1758 H   0  0  0  0  0  0
  -28.9616  -15.7174   20.7454 H   0  0  0  0  0  0
  1 25  1  0  0  0
  1 30  2  0  0  0
  1 87  1  0  0  0
  2  3  1  0  0  0
  2 25  1  0  0  0
  2 89  1  0  0  0
  2 90  1  0  0  0
  3  4  1  0  0  0
  3 91  1  0  0  0
  3 92  1  0  0  0
  4  5  1  0  0  0
  4 93  1  0  0  0
  4 94  1  0  0  0
  5  6  1  0  0  0
  5 26  1  0  0  0
  5 95  1  0  0  0
  6 25  1  0  0  0
  6 96  1  0  0  0
  6 97  1  0  0  0
  7  8  2  0  0  0
  7 26  1  0  0  0
  7 29  1  0  0  0
  8  9  1  0  0  0
  8 22  1  0  0  0
  9 10  1  0  0  0
  9 27  2  0  0  0
 10 11  2  0  0  0
 10 15  1  0  0  0
 11 12  1  0  0  0
 11 98  1  0  0  0
 12 13  2  0  0  0
 12 99  1  0  0  0
 13 14  1  0  0  0
 13 31  1  0  0  0
 14 15  2  0  0  0
 14100  1  0  0  0
 15101  1  0  0  0
 16 17  2  0  0  0
 16 21  1  0  0  0
 16 31  1  0  0  0
 17 18  1  0  0  0
 17102  1  0  0  0
 18 19  2  0  0  0
 18103  1  0  0  0
 19 20  1  0  0  0
 19 24  1  0  0  0
 20 21  2  0  0  0
 20104  1  0  0  0
 21 23  1  0  0  0
 22 28  1  0  0  0
 22 32  2  0  0  0
 26 27  1  0  0  0
 28105  1  0  0  0
 28106  1  0  0  0
 29107  1  0  0  0
 29108  1  0  0  0
 33 34  1  0  0  0
 33 66  1  0  0  0
 33 70  2  0  0  0
 34 36  1  0  0  0
 34 59  1  0  0  0
 34109  1  0  0  0
 35 44  2  0  0  0
 35 45  1  0  0  0
 35 68  1  0  0  0
 36 56  1  0  0  0
 36110  1  0  0  0
 37 39  1  0  0  0
 37 47  1  0  0  0
 37 66  1  0  0  0
 37111  1  0  0  0
 38 43  2  0  0  0
 38 46  1  0  0  0
 38 47  1  0  0  0
 39 64  1  0  0  0
 39 67  2  0  0  0
 40 52  1  0  0  0
 40 53  2  0  0  0
 40 58  1  0  0  0
 41112  1  0  0  0
 41113  1  0  0  0
 41114  1  0  0  0
 41 48  1  0  0  0
 42 43  1  0  0  0
 42 66  1  0  0  0
 42115  1  0  0  0
 42116  1  0  0  0
 43 44  1  0  0  0
 44117  1  0  0  0
 45 46  2  0  0  0
 45118  1  0  0  0
 46119  1  0  0  0
 47120  1  0  0  0
 47121  1  0  0  0
 48 56  1  0  0  0
 48 65  1  0  0  0
 48122  1  0  0  0
 49 50  1  0  0  0
 49 53  1  0  0  0
 49 64  1  0  0  0
 49123  1  0  0  0
 50 51  1  0  0  0
 50124  1  0  0  0
 50125  1  0  0  0
 51 52  1  0  0  0
 51126  1  0  0  0
 51127  1  0  0  0
 52128  1  0  0  0
 52129  1  0  0  0
 53 54  1  0  0  0
 54 55  2  0  0  0
 54130  1  0  0  0
 55 57  1  0  0  0
 55131  1  0  0  0
 56 69  2  0  0  0
 57 58  2  0  0  0
 57132  1  0  0  0
 58133  1  0  0  0
 59 60  1  0  0  0
 59 61  1  0  0  0
 59 62  1  0  0  0
 60134  1  0  0  0
 60135  1  0  0  0
 60136  1  0  0  0
 61137  1  0  0  0
 61138  1  0  0  0
 61139  1  0  0  0
 62140  1  0  0  0
 62141  1  0  0  0
 62142  1  0  0  0
 63 65  1  0  0  0
 63143  1  0  0  0
 63144  1  0  0  0
 63145  1  0  0  0
 64146  1  0  0  0
 65147  1  0  0  0
 68 85  1  0  0  0
 71 73  2  0  0  0
 71 75  1  0  0  0
 71148  1  0  0  0
 72 75  2  0  0  0
 72 76  1  0  0  0
 72149  1  0  0  0
 73 74  1  0  0  0
 73 82  1  0  0  0
 74 76  2  0  0  0
 74 84  1  0  0  0
 75 86  1  0  0  0
 76 88  1  0  0  0
 77 78  1  0  0  0
 77 79  1  0  0  0
 77150  1  0  0  0
 77151  1  0  0  0
 78 80  1  0  0  0
 78152  1  0  0  0
 78153  1  0  0  0
 79 81  1  0  0  0
 79154  1  0  0  0
 79155  1  0  0  0
 80 86  1  0  0  0
 80156  1  0  0  0
 80157  1  0  0  0
 81 85  1  0  0  0
 81 86  1  0  0  0
 81158  1  0  0  0
 82159  1  0  0  0
 82160  1  0  0  0
 82161  1  0  0  0
 83 88  1  0  0  0
 83162  1  0  0  0
 83163  1  0  0  0
 83164  1  0  0  0
 84 87  1  0  0  0
 84165  1  0  0  0
 84166  1  0  0  0
 85167  1  0  0  0
 85168  1  0  0  0
 87169  1  0  0  0
M  ISO  4   1 100  68 101  85 101  87 100
M  END
> <chiral flag>
0

> <version>
0

> <s_m_source_file>
/data/baiqing/PycharmProjects/Reinvent-master-3.2/result/LINK_invent/BTK/process_docking_weight1_custom_product_contain_oxygen_bond_distance_aromatic_linkinvent_7_9_3/rearranged_h_0105.sdf

> <i_m_source_file_index>
74

> <r_mmod_Potential_Energy-OPLS-2005>
182.662887573242

> <r_mmod_Stretch_Energy-OPLS-2005>
84.6668014526367

> <r_mmod_Bend_Energy-OPLS-2005>
157.348297119141

> <r_mmod_Torsional_Energy-OPLS-2005>
311.213958740234

> <r_mmod_Improper_Torsional_Energy-OPLS-2005>
11.008207321167

> <r_mmod_Van_der_Waal_Energy-OPLS-2005>
172.950775146484

> <r_mmod_Electrostatic_Energy-OPLS-2005>
-394.798095703125

> <r_mmod_Solvation_Energy-OPLS-2005>
-211.40510559082

> <b_mmod_Minimization_Converged-OPLS-2005>
0

> <r_mmod_RMS_Derivative-OPLS-2005>
2.89734792709351

$$$$
74
                    3D
 Structure written by MMmdl.
164173  0  0  1  0            999 V2000
  -30.7026  -14.4955   20.5397 C   0  0  0  0  0  0
  -30.4122  -12.3091   19.4337 C   0  0  0  0  0  0
  -29.4950  -12.5124   18.2098 C   0  0  0  0  0  0
  -28.0143  -12.3697   18.6184 C   0  0  0  0  0  0
  -27.6579  -13.2126   19.8717 C   0  0  2  0  0  0
  -28.7010  -13.0219   20.9985 C   0  0  0  0  0  0
  -25.2586  -13.8162   20.5640 C   0  0  0  0  0  0
  -24.1844  -13.0445   20.9170 C   0  0  0  0  0  0
  -24.6403  -11.6909   20.8744 C   0  0  0  0  0  0
  -23.9073  -10.4297   21.0404 C   0  0  0  0  0  0
  -24.3630   -9.4220   21.9194 C   0  0  0  0  0  0
  -23.6307   -8.2257   22.0773 C   0  0  0  0  0  0
  -22.4280   -8.0287   21.3574 C   0  0  0  0  0  0
  -21.9917   -9.0251   20.4667 C   0  0  0  0  0  0
  -22.7245  -10.2131   20.3061 C   0  0  0  0  0  0
  -21.6850   -6.0756   22.5292 C   0  0  0  0  0  0
  -21.4014   -6.5661   23.8228 C   0  0  0  0  0  0
  -21.3670   -5.6809   24.9188 C   0  0  0  0  0  0
  -21.6044   -4.3071   24.7229 C   0  0  0  0  0  0
  -21.8814   -3.8172   23.4347 C   0  0  0  0  0  0
  -21.9183   -4.6988   22.3409 C   0  0  0  0  0  0
  -22.7873  -13.5250   21.1816 C   0  0  0  0  0  0
  -22.1631   -4.2179   21.0984 F   0  0  0  0  0  0
  -21.5653   -3.4547   25.7740 F   0  0  0  0  0  0
  -30.0287  -13.3154   20.4371 N   0  0  0  0  0  0
  -26.3011  -12.9344   20.3353 N   0  0  0  0  0  0
  -25.9340  -11.6502   20.5798 N   0  0  0  0  0  0
  -22.0505  -12.8259   22.0373 N   0  0  0  0  0  0
  -25.4276  -15.1879   20.3969 N   0  0  0  0  0  0
  -31.8492  -14.6308   20.1033 O   0  0  0  0  0  0
  -21.6645   -6.8891   21.4250 O   0  0  0  0  0  0
  -22.3576  -14.5560   20.6652 O   0  0  0  0  0  0
  -24.6172  -31.8659   23.2089 C   0  0  0  0  0  0
  -25.9051  -32.4815   23.8399 C   0  0  1  0  0  0
  -27.2290  -27.4160   20.1052 C   0  0  0  0  0  0
  -25.5891  -33.8616   24.2327 N   0  0  0  0  0  0
  -23.4064  -30.4875   21.5524 C   0  0  2  0  0  0
  -24.8524  -28.9498   20.1167 C   0  0  0  0  0  0
  -22.7428  -29.4636   22.5027 C   0  0  0  0  0  0
  -18.0267  -28.1373   22.8493 C   0  0  0  0  0  0
  -24.1477  -36.7308   23.2643 C   0  0  0  0  0  0
  -25.9383  -30.8263   21.3629 C   0  0  0  0  0  0
  -26.0162  -29.4603   20.7082 C   0  0  0  0  0  0
  -27.2129  -28.7047   20.6911 C   0  0  0  0  0  0
  -26.0512  -26.9226   19.5079 C   0  0  0  0  0  0
  -24.8665  -27.6810   19.5109 C   0  0  0  0  0  0
  -23.6146  -29.8165   20.1683 C   0  0  0  0  0  0
  -25.4100  -36.3117   24.0349 C   0  0  1  0  0  0
  -20.5861  -28.3653   23.1324 C   0  0  2  0  0  0
  -20.6753  -26.9390   22.5419 C   0  0  0  0  0  0
  -19.5735  -26.6377   21.5215 C   0  0  0  0  0  0
  -18.1913  -26.7920   22.1617 C   0  0  0  0  0  0
  -19.1521  -28.8832   23.2896 C   0  0  0  0  0  0
  -18.9444  -30.1447   23.8901 C   0  0  0  0  0  0
  -17.6445  -30.6577   24.0558 C   0  0  0  0  0  0
  -25.9036  -34.9477   23.5143 C   0  0  0  0  0  0
  -16.5336  -29.9075   23.6336 C   0  0  0  0  0  0
  -16.7255  -28.6489   23.0361 C   0  0  0  0  0  0
  -26.4467  -31.6604   25.0737 C   0  0  0  0  0  0
  -25.3732  -31.3700   26.1492 C   0  0  0  0  0  0
  -27.0295  -30.3047   24.6118 C   0  0  0  0  0  0
  -27.6063  -32.4323   25.7475 C   0  0  0  0  0  0
  -27.5587  -37.1801   24.8467 C   0  0  0  0  0  0
  -21.4163  -29.3016   22.3741 N   0  0  0  0  0  0
  -26.4289  -37.3801   23.9425 N   0  0  0  0  0  0
  -24.6729  -31.0744   22.0994 N   0  0  0  0  0  0
  -23.4195  -28.8192   23.3078 O   0  0  0  0  0  0
  -28.3649  -26.6332   20.1132 O   0  0  0  0  0  0
  -26.5613  -34.8927   22.4714 O   0  0  0  0  0  0
  -23.5362  -32.1425   23.7477 O   0  0  0  0  0  0
  -29.3293  -17.9440   20.8812 C   0  0  0  0  0  0
  -30.9798  -19.7100   21.1837 C   0  0  0  0  0  0
  -31.6704  -17.3728   21.2336 C   0  0  0  0  0  0
  -29.6385  -19.3320   20.9568 C   0  0  0  0  0  0
  -30.3368  -16.9486   21.0135 C   0  0  0  0  0  0
  -31.9999  -18.7486   21.3157 C   0  0  0  0  0  0
  -27.9353  -23.5992   19.0965 C   0  0  0  0  0  0
  -28.2752  -22.0956   19.0001 C   0  0  0  0  0  0
  -28.8814  -22.9012   21.1557 C   0  0  0  0  0  0
  -28.8030  -24.1426   20.2343 C   0  0  2  0  0  0
  -34.3572  -18.3166   21.5137 C   0  0  0  0  0  0
  -28.5321  -20.4025   20.8736 C   0  0  0  0  0  0
  -28.2648  -25.4354   20.9152 C   0  0  0  0  0  0
  -29.9726  -15.5537   20.9727 N   0  0  0  0  0  0
  -28.9520  -21.7098   20.2651 N   0  3  1  0  0  0
  -33.2700  -19.2336   21.5400 O   0  0  0  0  0  0
  -31.4621  -12.3778   19.1456 H   0  0  0  0  0  0
  -30.2809  -11.3049   19.8401 H   0  0  0  0  0  0
  -29.7417  -11.7937   17.4269 H   0  0  0  0  0  0
  -29.6664  -13.5021   17.7826 H   0  0  0  0  0  0
  -27.8269  -11.3136   18.8164 H   0  0  0  0  0  0
  -27.3604  -12.6425   17.7885 H   0  0  0  0  0  0
  -27.6896  -14.2564   19.5602 H   0  0  0  0  0  0
  -28.6816  -11.9967   21.3733 H   0  0  0  0  0  0
  -28.4692  -13.6513   21.8589 H   0  0  0  0  0  0
  -25.2774   -9.5694   22.4769 H   0  0  0  0  0  0
  -24.0029   -7.4652   22.7488 H   0  0  0  0  0  0
  -21.0862   -8.8761   19.8973 H   0  0  0  0  0  0
  -22.3706  -10.9671   19.6173 H   0  0  0  0  0  0
  -21.2002   -7.6169   23.9745 H   0  0  0  0  0  0
  -21.1491   -6.0536   25.9097 H   0  0  0  0  0  0
  -22.0573   -2.7633   23.2826 H   0  0  0  0  0  0
  -22.4096  -11.9908   22.4751 H   0  0  0  0  0  0
  -21.1135  -13.1318   22.2609 H   0  0  0  0  0  0
  -24.6467  -15.8303   20.4760 H   0  0  0  0  0  0
  -26.2696  -15.6264   20.0464 H   0  0  0  0  0  0
  -26.7129  -32.5512   23.1170 H   0  0  0  0  0  0
  -25.0028  -33.9763   25.0463 H   0  0  0  0  0  0
  -22.6971  -31.3059   21.4131 H   0  0  0  0  0  0
  -23.3756  -35.9625   23.3303 H   0  0  0  0  0  0
  -24.3571  -36.8925   22.2058 H   0  0  0  0  0  0
  -23.7200  -37.6501   23.6653 H   0  0  0  0  0  0
  -26.0542  -31.5910   20.5941 H   0  0  0  0  0  0
  -26.8253  -30.8782   21.9832 H   0  0  0  0  0  0
  -28.1139  -29.0940   21.1455 H   0  0  0  0  0  0
  -26.0461  -25.9442   19.0507 H   0  0  0  0  0  0
  -23.9721  -27.2802   19.0558 H   0  0  0  0  0  0
  -23.7245  -30.5906   19.4085 H   0  0  0  0  0  0
  -22.7375  -29.2374   19.8727 H   0  0  0  0  0  0
  -25.1273  -36.1992   25.0845 H   0  0  0  0  0  0
  -20.9939  -28.3200   24.1450 H   0  0  0  0  0  0
  -20.5655  -26.2253   23.3603 H   0  0  0  0  0  0
  -21.6622  -26.7436   22.1205 H   0  0  0  0  0  0
  -19.6887  -25.6293   21.1231 H   0  0  0  0  0  0
  -19.6670  -27.3201   20.6761 H   0  0  0  0  0  0
  -17.4187  -26.6693   21.4017 H   0  0  0  0  0  0
  -18.0298  -26.0052   22.9001 H   0  0  0  0  0  0
  -19.7920  -30.7267   24.2270 H   0  0  0  0  0  0
  -17.4994  -31.6264   24.5151 H   0  0  0  0  0  0
  -15.5337  -30.2974   23.7657 H   0  0  0  0  0  0
  -15.8654  -28.0804   22.7094 H   0  0  0  0  0  0
  -24.5878  -30.7086   25.7815 H   0  0  0  0  0  0
  -24.8945  -32.2841   26.5011 H   0  0  0  0  0  0
  -25.8069  -30.8801   27.0215 H   0  0  0  0  0  0
  -26.2825  -29.6801   24.1195 H   0  0  0  0  0  0
  -27.4092  -29.7297   25.4575 H   0  0  0  0  0  0
  -27.8657  -30.4383   23.9250 H   0  0  0  0  0  0
  -27.2717  -33.3633   26.2064 H   0  0  0  0  0  0
  -28.3841  -32.6863   25.0260 H   0  0  0  0  0  0
  -28.0764  -31.8433   26.5362 H   0  0  0  0  0  0
  -28.2610  -38.0098   24.7549 H   0  0  0  0  0  0
  -28.1077  -36.2636   24.6253 H   0  0  0  0  0  0
  -27.2309  -37.1413   25.8870 H   0  0  0  0  0  0
  -20.9353  -29.8711   21.6925 H   0  0  0  0  0  0
  -26.0189  -38.2883   24.1433 H   0  0  0  0  0  0
  -28.3016  -17.6439   20.7305 H   0  0  0  0  0  0
  -31.2502  -20.7513   21.2801 H   0  0  0  0  0  0
  -32.4400  -16.6306   21.3654 H   0  0  0  0  0  0
  -26.8811  -23.7080   19.3543 H   0  0  0  0  0  0
  -28.0953  -24.1289   18.1570 H   0  0  0  0  0  0
  -28.9566  -21.9024   18.1699 H   0  0  0  0  0  0
  -27.3671  -21.5222   18.8101 H   0  0  0  0  0  0
  -27.9773  -22.8490   21.7655 H   0  0  0  0  0  0
  -29.7291  -22.9411   21.8412 H   0  0  0  0  0  0
  -29.8039  -24.3438   19.8492 H   0  0  0  0  0  0
  -34.2601  -17.5426   22.2755 H   0  0  0  0  0  0
  -35.2821  -18.8528   21.7210 H   0  0  0  0  0  0
  -34.4592  -17.8500   20.5328 H   0  0  0  0  0  0
  -28.1610  -20.5642   21.8855 H   0  0  0  0  0  0
  -27.6891  -19.9800   20.3263 H   0  0  0  0  0  0
  -28.8478  -25.6223   21.8189 H   0  0  0  0  0  0
  -27.2449  -25.2587   21.2667 H   0  0  0  0  0  0
  -29.0134  -15.3348   21.1912 H   0  0  0  0  0  0
  -29.9244  -21.5935   20.0231 H   0  0  0  0  0  0
  1 25  1  0  0  0
  1 30  2  0  0  0
  1 84  1  0  0  0
  2  3  1  0  0  0
  2 25  1  0  0  0
  2 87  1  0  0  0
  2 88  1  0  0  0
  3  4  1  0  0  0
  3 89  1  0  0  0
  3 90  1  0  0  0
  4  5  1  0  0  0
  4 91  1  0  0  0
  4 92  1  0  0  0
  5  6  1  0  0  0
  5 26  1  0  0  0
  5 93  1  0  0  0
  6 25  1  0  0  0
  6 94  1  0  0  0
  6 95  1  0  0  0
  7  8  2  0  0  0
  7 26  1  0  0  0
  7 29  1  0  0  0
  8  9  1  0  0  0
  8 22  1  0  0  0
  9 10  1  0  0  0
  9 27  2  0  0  0
 10 11  2  0  0  0
 10 15  1  0  0  0
 11 12  1  0  0  0
 11 96  1  0  0  0
 12 13  2  0  0  0
 12 97  1  0  0  0
 13 14  1  0  0  0
 13 31  1  0  0  0
 14 15  2  0  0  0
 14 98  1  0  0  0
 15 99  1  0  0  0
 16 17  2  0  0  0
 16 21  1  0  0  0
 16 31  1  0  0  0
 17 18  1  0  0  0
 17100  1  0  0  0
 18 19  2  0  0  0
 18101  1  0  0  0
 19 20  1  0  0  0
 19 24  1  0  0  0
 20 21  2  0  0  0
 20102  1  0  0  0
 21 23  1  0  0  0
 22 28  1  0  0  0
 22 32  2  0  0  0
 26 27  1  0  0  0
 28103  1  0  0  0
 28104  1  0  0  0
 29105  1  0  0  0
 29106  1  0  0  0
 33 34  1  0  0  0
 33 66  1  0  0  0
 33 70  2  0  0  0
 34 36  1  0  0  0
 34 59  1  0  0  0
 34107  1  0  0  0
 35 44  2  0  0  0
 35 45  1  0  0  0
 35 68  1  0  0  0
 36 56  1  0  0  0
 36108  1  0  0  0
 37 39  1  0  0  0
 37 47  1  0  0  0
 37 66  1  0  0  0
 37109  1  0  0  0
 38 43  2  0  0  0
 38 46  1  0  0  0
 38 47  1  0  0  0
 39 64  1  0  0  0
 39 67  2  0  0  0
 40 52  1  0  0  0
 40 53  2  0  0  0
 40 58  1  0  0  0
 41110  1  0  0  0
 41111  1  0  0  0
 41112  1  0  0  0
 41 48  1  0  0  0
 42 43  1  0  0  0
 42 66  1  0  0  0
 42113  1  0  0  0
 42114  1  0  0  0
 43 44  1  0  0  0
 44115  1  0  0  0
 45 46  2  0  0  0
 45116  1  0  0  0
 46117  1  0  0  0
 47118  1  0  0  0
 47119  1  0  0  0
 48 56  1  0  0  0
 48 65  1  0  0  0
 48120  1  0  0  0
 49 50  1  0  0  0
 49 53  1  0  0  0
 49 64  1  0  0  0
 49121  1  0  0  0
 50 51  1  0  0  0
 50122  1  0  0  0
 50123  1  0  0  0
 51 52  1  0  0  0
 51124  1  0  0  0
 51125  1  0  0  0
 52126  1  0  0  0
 52127  1  0  0  0
 53 54  1  0  0  0
 54 55  2  0  0  0
 54128  1  0  0  0
 55 57  1  0  0  0
 55129  1  0  0  0
 56 69  2  0  0  0
 57 58  2  0  0  0
 57130  1  0  0  0
 58131  1  0  0  0
 59 60  1  0  0  0
 59 61  1  0  0  0
 59 62  1  0  0  0
 60132  1  0  0  0
 60133  1  0  0  0
 60134  1  0  0  0
 61135  1  0  0  0
 61136  1  0  0  0
 61137  1  0  0  0
 62138  1  0  0  0
 62139  1  0  0  0
 62140  1  0  0  0
 63 65  1  0  0  0
 63141  1  0  0  0
 63142  1  0  0  0
 63143  1  0  0  0
 64144  1  0  0  0
 65145  1  0  0  0
 68 83  1  0  0  0
 71 74  2  0  0  0
 71 75  1  0  0  0
 71146  1  0  0  0
 72 74  1  0  0  0
 72 76  2  0  0  0
 72147  1  0  0  0
 73 75  2  0  0  0
 73 76  1  0  0  0
 73148  1  0  0  0
 74 82  1  0  0  0
 75 84  1  0  0  0
 76 86  1  0  0  0
 77 78  1  0  0  0
 77 80  1  0  0  0
 77149  1  0  0  0
 77150  1  0  0  0
 78 85  1  0  0  0
 78151  1  0  0  0
 78152  1  0  0  0
 79 80  1  0  0  0
 79 85  1  0  0  0
 79153  1  0  0  0
 79154  1  0  0  0
 80 83  1  0  0  0
 80155  1  0  0  0
 81 86  1  0  0  0
 81156  1  0  0  0
 81157  1  0  0  0
 81158  1  0  0  0
 82159  1  0  0  0
 82160  1  0  0  0
 82 85  1  0  0  0
 83161  1  0  0  0
 83162  1  0  0  0
 84163  1  0  0  0
 85164  1  0  0  0
M  CHG  1  85   1
M  ISO  4   1 100  68 101  83 101  84 100
M  END
> <chiral flag>
0

> <version>
0

> <s_m_source_file>
/data/baiqing/PycharmProjects/Reinvent-master-3.2/result/LINK_invent/BTK/process_docking_weight1_custom_product_contain_oxygen_bond_distance_aromatic_linkinvent_7_9_3/rearranged_h_0105.sdf

> <i_m_source_file_index>
75

> <r_mmod_Potential_Energy-OPLS-2005>
-81.0069885253906

> <r_mmod_Stretch_Energy-OPLS-2005>
44.5769920349121

> <r_mmod_Bend_Energy-OPLS-2005>
129.860427856445

> <r_mmod_Torsional_Energy-OPLS-2005>
302.453216552734

> <r_mmod_Improper_Torsional_Energy-OPLS-2005>
4.635986328125

> <r_mmod_Van_der_Waal_Energy-OPLS-2005>
153.028671264648

> <r_mmod_Electrostatic_Energy-OPLS-2005>
-276.423492431641

> <r_mmod_Solvation_Energy-OPLS-2005>
-456.245361328125

> <b_mmod_Minimization_Converged-OPLS-2005>
0

> <r_mmod_RMS_Derivative-OPLS-2005>
2.58401393890381

$$$$
75
                    3D
 Structure written by MMmdl.
159167  0  0  1  0            999 V2000
  -30.6487  -14.7171   20.3626 C   0  0  0  0  0  0
  -30.4385  -12.4065   19.4643 C   0  0  0  0  0  0
  -29.5061  -12.3705   18.2328 C   0  0  0  0  0  0
  -28.0220  -12.2977   18.6485 C   0  0  0  0  0  0
  -27.6371  -13.2231   19.8378 C   0  0  2  0  0  0
  -28.6991  -13.1985   20.9573 C   0  0  0  0  0  0
  -25.2425  -13.7960   20.5739 C   0  0  0  0  0  0
  -24.1726  -13.0251   20.9211 C   0  0  0  0  0  0
  -24.6373  -11.6776   20.8771 C   0  0  0  0  0  0
  -23.9050  -10.4188   21.0412 C   0  0  0  0  0  0
  -24.3596   -9.4123   21.9203 C   0  0  0  0  0  0
  -23.6265   -8.2172   22.0769 C   0  0  0  0  0  0
  -22.4254   -8.0225   21.3545 C   0  0  0  0  0  0
  -21.9889   -9.0194   20.4647 C   0  0  0  0  0  0
  -22.7221  -10.2063   20.3059 C   0  0  0  0  0  0
  -21.6826   -6.0702   22.5274 C   0  0  0  0  0  0
  -21.3985   -6.5611   23.8205 C   0  0  0  0  0  0
  -21.3671   -5.6774   24.9177 C   0  0  0  0  0  0
  -21.6058   -4.3038   24.7231 C   0  0  0  0  0  0
  -21.8819   -3.8124   23.4351 C   0  0  0  0  0  0
  -21.9185   -4.6935   22.3402 C   0  0  0  0  0  0
  -22.7767  -13.5093   21.1868 C   0  0  0  0  0  0
  -22.1661   -4.2122   21.0983 F   0  0  0  0  0  0
  -21.5653   -3.4529   25.7750 F   0  0  0  0  0  0
  -29.9919  -13.5093   20.3368 N   0  0  0  0  0  0
  -26.2939  -12.9280   20.3349 N   0  0  0  0  0  0
  -25.9327  -11.6428   20.5842 N   0  0  0  0  0  0
  -22.0399  -12.8123   22.0440 N   0  0  0  0  0  0
  -25.3862  -15.1616   20.4258 N   0  0  0  0  0  0
  -31.8792  -14.7482   20.2957 O   0  0  0  0  0  0
  -21.6605   -6.8838   21.4236 O   0  0  0  0  0  0
  -22.3484  -14.5427   20.6736 O   0  0  0  0  0  0
  -24.6242  -31.8617   23.2045 C   0  0  0  0  0  0
  -25.9095  -32.4795   23.8370 C   0  0  1  0  0  0
  -27.2341  -27.3404   20.1133 C   0  0  0  0  0  0
  -25.5915  -33.8595   24.2293 N   0  0  0  0  0  0
  -23.4175  -30.4851   21.5476 C   0  0  2  0  0  0
  -24.8656  -28.9452   20.1114 C   0  0  0  0  0  0
  -22.7464  -29.4629   22.4953 C   0  0  0  0  0  0
  -18.0280  -28.1386   22.8491 C   0  0  0  0  0  0
  -24.1488  -36.7300   23.2637 C   0  0  0  0  0  0
  -25.9573  -30.7983   21.3741 C   0  0  0  0  0  0
  -26.0331  -29.4280   20.7156 C   0  0  0  0  0  0
  -27.2186  -28.6376   20.7075 C   0  0  0  0  0  0
  -26.0414  -26.9078   19.4829 C   0  0  0  0  0  0
  -24.8715  -27.6896   19.4864 C   0  0  0  0  0  0
  -23.6311  -29.8211   20.1622 C   0  0  0  0  0  0
  -25.4115  -36.3097   24.0328 C   0  0  1  0  0  0
  -20.5877  -28.3688   23.1292 C   0  0  2  0  0  0
  -20.6770  -26.9413   22.5416 C   0  0  0  0  0  0
  -19.5748  -26.6386   21.5216 C   0  0  0  0  0  0
  -18.1926  -26.7932   22.1625 C   0  0  0  0  0  0
  -19.1532  -28.8854   23.2886 C   0  0  0  0  0  0
  -18.9456  -30.1458   23.8900 C   0  0  0  0  0  0
  -17.6458  -30.6591   24.0564 C   0  0  0  0  0  0
  -25.9049  -34.9462   23.5112 C   0  0  0  0  0  0
  -16.5350  -29.9090   23.6331 C   0  0  0  0  0  0
  -16.7269  -28.6507   23.0354 C   0  0  0  0  0  0
  -26.4483  -31.6601   25.0734 C   0  0  0  0  0  0
  -25.3722  -31.3723   26.1462 C   0  0  0  0  0  0
  -27.0323  -30.3030   24.6173 C   0  0  0  0  0  0
  -27.6050  -32.4332   25.7504 C   0  0  0  0  0  0
  -27.5583  -37.1804   24.8461 C   0  0  0  0  0  0
  -21.4180  -29.3043   22.3692 N   0  0  0  0  0  0
  -26.4295  -37.3790   23.9406 N   0  0  0  0  0  0
  -24.6851  -31.0640   22.0992 N   0  0  0  0  0  0
  -23.4195  -28.8163   23.3021 O   0  0  0  0  0  0
  -28.3613  -26.5069   20.1726 O   0  0  0  0  0  0
  -26.5621  -34.8924   22.4681 O   0  0  0  0  0  0
  -23.5409  -32.1407   23.7383 O   0  0  0  0  0  0
  -28.8347  -19.4821   20.1710 C   0  0  0  0  0  0
  -31.0443  -17.8819   20.7712 C   0  0  0  0  0  0
  -28.7815  -18.0734   19.9714 C   0  0  0  0  0  0
  -29.9866  -20.1429   20.6302 C   0  0  0  0  0  0
  -29.9030  -17.2081   20.2476 C   0  0  0  0  0  0
  -31.0869  -19.3002   20.9562 C   0  0  0  0  0  0
  -27.4356  -17.6424   19.5413 C   0  0  0  0  0  0
  -29.2509  -24.0678   20.4382 C   0  0  0  0  0  0
  -27.2189  -17.2672   18.0833 C   0  0  0  0  0  0
  -29.9722  -15.7254   18.3337 C   0  0  0  0  0  0
  -29.0007  -22.5186   20.2666 C   0  0  0  0  0  0
  -28.1342  -25.0643   19.9528 C   0  0  0  0  0  0
  -30.0479  -21.5691   20.7626 N   0  0  0  0  0  0
  -29.9560  -15.7918   19.8083 N   0  0  0  0  0  0
  -26.4597  -17.7506   20.2831 O   0  0  0  0  0  0
  -30.3042  -24.4752   20.9416 O   0  0  0  0  0  0
  -32.2237  -19.8655   21.4315 F   0  0  0  0  0  0
  -31.4739  -12.5308   19.1426 H   0  0  0  0  0  0
  -30.4004  -11.4604   20.0068 H   0  0  0  0  0  0
  -29.7489  -11.4962   17.6268 H   0  0  0  0  0  0
  -29.6829  -13.2144   17.5735 H   0  0  0  0  0  0
  -27.8355  -11.2601   18.9251 H   0  0  0  0  0  0
  -27.3783  -12.4966   17.7907 H   0  0  0  0  0  0
  -27.6082  -14.2361   19.4398 H   0  0  0  0  0  0
  -28.7323  -12.2257   21.4498 H   0  0  0  0  0  0
  -28.4600  -13.9353   21.7260 H   0  0  0  0  0  0
  -25.2734   -9.5600   22.4789 H   0  0  0  0  0  0
  -23.9959   -7.4560   22.7494 H   0  0  0  0  0  0
  -21.0822   -8.8703   19.8951 H   0  0  0  0  0  0
  -22.3680  -10.9606   19.6173 H   0  0  0  0  0  0
  -21.1942   -7.6114   23.9692 H   0  0  0  0  0  0
  -21.1516   -6.0513   25.9079 H   0  0  0  0  0  0
  -22.0591   -2.7586   23.2855 H   0  0  0  0  0  0
  -22.3974  -11.9762   22.4818 H   0  0  0  0  0  0
  -21.1033  -13.1195   22.2645 H   0  0  0  0  0  0
  -24.6107  -15.7968   20.5771 H   0  0  0  0  0  0
  -26.2536  -15.6590   20.2827 H   0  0  0  0  0  0
  -26.7162  -32.5468   23.1120 H   0  0  0  0  0  0
  -25.0060  -33.9748   25.0435 H   0  0  0  0  0  0
  -22.7106  -31.3052   21.4063 H   0  0  0  0  0  0
  -23.3756  -35.9626   23.3304 H   0  0  0  0  0  0
  -24.3577  -36.8921   22.2052 H   0  0  0  0  0  0
  -23.7237  -37.6499   23.6659 H   0  0  0  0  0  0
  -26.0859  -31.5630   20.6068 H   0  0  0  0  0  0
  -26.8385  -30.8469   22.0022 H   0  0  0  0  0  0
  -28.1142  -29.0048   21.1888 H   0  0  0  0  0  0
  -25.9804  -25.9514   18.9851 H   0  0  0  0  0  0
  -23.9778  -27.3151   19.0061 H   0  0  0  0  0  0
  -23.7462  -30.5986   19.4061 H   0  0  0  0  0  0
  -22.7523  -29.2484   19.8615 H   0  0  0  0  0  0
  -25.1297  -36.1957   25.0822 H   0  0  0  0  0  0
  -20.9968  -28.3263   24.1414 H   0  0  0  0  0  0
  -20.5679  -26.2297   23.3614 H   0  0  0  0  0  0
  -21.6641  -26.7450   22.1210 H   0  0  0  0  0  0
  -19.6912  -25.6297   21.1246 H   0  0  0  0  0  0
  -19.6687  -27.3196   20.6746 H   0  0  0  0  0  0
  -17.4198  -26.6686   21.4022 H   0  0  0  0  0  0
  -18.0320  -26.0072   22.9019 H   0  0  0  0  0  0
  -19.7928  -30.7276   24.2274 H   0  0  0  0  0  0
  -17.5009  -31.6271   24.5165 H   0  0  0  0  0  0
  -15.5352  -30.2995   23.7652 H   0  0  0  0  0  0
  -15.8667  -28.0830   22.7070 H   0  0  0  0  0  0
  -24.5905  -30.7067   25.7785 H   0  0  0  0  0  0
  -24.8899  -32.2880   26.4892 H   0  0  0  0  0  0
  -25.8051  -30.8898   27.0234 H   0  0  0  0  0  0
  -26.2891  -29.6794   24.1190 H   0  0  0  0  0  0
  -27.4019  -29.7275   25.4669 H   0  0  0  0  0  0
  -27.8763  -30.4323   23.9395 H   0  0  0  0  0  0
  -27.2666  -33.3632   26.2087 H   0  0  0  0  0  0
  -28.3857  -32.6898   25.0330 H   0  0  0  0  0  0
  -28.0722  -31.8454   26.5415 H   0  0  0  0  0  0
  -28.2599  -38.0103   24.7524 H   0  0  0  0  0  0
  -28.1085  -36.2637   24.6278 H   0  0  0  0  0  0
  -27.2300  -37.1446   25.8864 H   0  0  0  0  0  0
  -20.9356  -29.8772   21.6908 H   0  0  0  0  0  0
  -26.0181  -38.2866   24.1415 H   0  0  0  0  0  0
  -27.9553  -20.0704   19.9472 H   0  0  0  0  0  0
  -31.9435  -17.3229   20.9831 H   0  0  0  0  0  0
  -28.0603  -17.5847   17.4699 H   0  0  0  0  0  0
  -26.3263  -17.7657   17.7071 H   0  0  0  0  0  0
  -27.0742  -16.1939   17.9781 H   0  0  0  0  0  0
  -29.0622  -15.2672   17.9557 H   0  0  0  0  0  0
  -30.8183  -15.1616   17.9329 H   0  0  0  0  0  0
  -30.0601  -16.7089   17.8718 H   0  0  0  0  0  0
  -28.8368  -22.3334   19.2043 H   0  0  0  0  0  0
  -28.0588  -22.2897   20.7660 H   0  0  0  0  0  0
  -27.2182  -24.7652   20.4636 H   0  0  0  0  0  0
  -27.9774  -24.8917   18.8879 H   0  0  0  0  0  0
  -30.9287  -21.9843   21.0577 H   0  0  0  0  0  0
  1 25  1  0  0  0
  1 30  2  0  0  0
  1 84  1  0  0  0
  2  3  1  0  0  0
  2 25  1  0  0  0
  2 88  1  0  0  0
  2 89  1  0  0  0
  3  4  1  0  0  0
  3 90  1  0  0  0
  3 91  1  0  0  0
  4  5  1  0  0  0
  4 92  1  0  0  0
  4 93  1  0  0  0
  5  6  1  0  0  0
  5 26  1  0  0  0
  5 94  1  0  0  0
  6 25  1  0  0  0
  6 95  1  0  0  0
  6 96  1  0  0  0
  7  8  2  0  0  0
  7 26  1  0  0  0
  7 29  1  0  0  0
  8  9  1  0  0  0
  8 22  1  0  0  0
  9 10  1  0  0  0
  9 27  2  0  0  0
 10 11  2  0  0  0
 10 15  1  0  0  0
 11 12  1  0  0  0
 11 97  1  0  0  0
 12 13  2  0  0  0
 12 98  1  0  0  0
 13 14  1  0  0  0
 13 31  1  0  0  0
 14 15  2  0  0  0
 14 99  1  0  0  0
 15100  1  0  0  0
 16 17  2  0  0  0
 16 21  1  0  0  0
 16 31  1  0  0  0
 17 18  1  0  0  0
 17101  1  0  0  0
 18 19  2  0  0  0
 18102  1  0  0  0
 19 20  1  0  0  0
 19 24  1  0  0  0
 20 21  2  0  0  0
 20103  1  0  0  0
 21 23  1  0  0  0
 22 28  1  0  0  0
 22 32  2  0  0  0
 26 27  1  0  0  0
 28104  1  0  0  0
 28105  1  0  0  0
 29106  1  0  0  0
 29107  1  0  0  0
 33 34  1  0  0  0
 33 66  1  0  0  0
 33 70  2  0  0  0
 34 36  1  0  0  0
 34 59  1  0  0  0
 34108  1  0  0  0
 35 44  2  0  0  0
 35 45  1  0  0  0
 35 68  1  0  0  0
 36 56  1  0  0  0
 36109  1  0  0  0
 37 39  1  0  0  0
 37 47  1  0  0  0
 37 66  1  0  0  0
 37110  1  0  0  0
 38 43  2  0  0  0
 38 46  1  0  0  0
 38 47  1  0  0  0
 39 64  1  0  0  0
 39 67  2  0  0  0
 40 52  1  0  0  0
 40 53  2  0  0  0
 40 58  1  0  0  0
 41111  1  0  0  0
 41112  1  0  0  0
 41113  1  0  0  0
 41 48  1  0  0  0
 42 43  1  0  0  0
 42 66  1  0  0  0
 42114  1  0  0  0
 42115  1  0  0  0
 43 44  1  0  0  0
 44116  1  0  0  0
 45 46  2  0  0  0
 45117  1  0  0  0
 46118  1  0  0  0
 47119  1  0  0  0
 47120  1  0  0  0
 48 56  1  0  0  0
 48 65  1  0  0  0
 48121  1  0  0  0
 49 50  1  0  0  0
 49 53  1  0  0  0
 49 64  1  0  0  0
 49122  1  0  0  0
 50 51  1  0  0  0
 50123  1  0  0  0
 50124  1  0  0  0
 51 52  1  0  0  0
 51125  1  0  0  0
 51126  1  0  0  0
 52127  1  0  0  0
 52128  1  0  0  0
 53 54  1  0  0  0
 54 55  2  0  0  0
 54129  1  0  0  0
 55 57  1  0  0  0
 55130  1  0  0  0
 56 69  2  0  0  0
 57 58  2  0  0  0
 57131  1  0  0  0
 58132  1  0  0  0
 59 60  1  0  0  0
 59 61  1  0  0  0
 59 62  1  0  0  0
 60133  1  0  0  0
 60134  1  0  0  0
 60135  1  0  0  0
 61136  1  0  0  0
 61137  1  0  0  0
 61138  1  0  0  0
 62139  1  0  0  0
 62140  1  0  0  0
 62141  1  0  0  0
 63 65  1  0  0  0
 63142  1  0  0  0
 63143  1  0  0  0
 63144  1  0  0  0
 64145  1  0  0  0
 65146  1  0  0  0
 68 82  1  0  0  0
 71 73  2  0  0  0
 71 74  1  0  0  0
 71147  1  0  0  0
 72 75  2  0  0  0
 72 76  1  0  0  0
 72148  1  0  0  0
 73 75  1  0  0  0
 73 77  1  0  0  0
 74 76  2  0  0  0
 74 83  1  0  0  0
 75 84  1  0  0  0
 76 87  1  0  0  0
 77 79  1  0  0  0
 77 85  2  0  0  0
 78 81  1  0  0  0
 78 82  1  0  0  0
 78 86  2  0  0  0
 79149  1  0  0  0
 79150  1  0  0  0
 79151  1  0  0  0
 80 84  1  0  0  0
 80152  1  0  0  0
 80153  1  0  0  0
 80154  1  0  0  0
 81 83  1  0  0  0
 81155  1  0  0  0
 81156  1  0  0  0
 82157  1  0  0  0
 82158  1  0  0  0
 83159  1  0  0  0
M  ISO  4   1 100  68 101  82 101  84 100
M  END
> <chiral flag>
0

> <version>
0

> <s_m_source_file>
/data/baiqing/PycharmProjects/Reinvent-master-3.2/result/LINK_invent/BTK/process_docking_weight1_custom_product_contain_oxygen_bond_distance_aromatic_linkinvent_7_9_3/rearranged_h_0105.sdf

> <i_m_source_file_index>
76

> <r_mmod_Potential_Energy-OPLS-2005>
383.848358154297

> <r_mmod_Stretch_Energy-OPLS-2005>
84.979377746582

> <r_mmod_Bend_Energy-OPLS-2005>
164.727020263672

> <r_mmod_Torsional_Energy-OPLS-2005>
357.766815185547

> <r_mmod_Improper_Torsional_Energy-OPLS-2005>
31.0416564941406

> <r_mmod_Van_der_Waal_Energy-OPLS-2005>
154.336364746094

> <r_mmod_Electrostatic_Energy-OPLS-2005>
-256.538665771484

> <r_mmod_Solvation_Energy-OPLS-2005>
-229.051544189453

> <b_mmod_Minimization_Converged-OPLS-2005>
0

> <r_mmod_RMS_Derivative-OPLS-2005>
0.891613900661469

$$$$
76
                    3D
 Structure written by MMmdl.
160168  0  0  1  0            999 V2000
  -30.7237  -14.5491   20.5390 C   0  0  0  0  0  0
  -30.4094  -12.3522   19.4386 C   0  0  0  0  0  0
  -29.4895  -12.5010   18.2127 C   0  0  0  0  0  0
  -28.0142  -12.3514   18.6283 C   0  0  0  0  0  0
  -27.6471  -13.2235   19.8592 C   0  0  2  0  0  0
  -28.6932  -13.0974   20.9885 C   0  0  0  0  0  0
  -25.2530  -13.8196   20.5679 C   0  0  0  0  0  0
  -24.1812  -13.0450   20.9185 C   0  0  0  0  0  0
  -24.6386  -11.6926   20.8736 C   0  0  0  0  0  0
  -23.9058  -10.4307   21.0404 C   0  0  0  0  0  0
  -24.3616   -9.4221   21.9182 C   0  0  0  0  0  0
  -23.6299   -8.2252   22.0748 C   0  0  0  0  0  0
  -22.4283   -8.0284   21.3543 C   0  0  0  0  0  0
  -21.9911   -9.0252   20.4639 C   0  0  0  0  0  0
  -22.7228  -10.2142   20.3053 C   0  0  0  0  0  0
  -21.6859   -6.0735   22.5280 C   0  0  0  0  0  0
  -21.4011   -6.5641   23.8210 C   0  0  0  0  0  0
  -21.3661   -5.6795   24.9174 C   0  0  0  0  0  0
  -21.6050   -4.3056   24.7225 C   0  0  0  0  0  0
  -21.8822   -3.8145   23.4345 C   0  0  0  0  0  0
  -21.9194   -4.6962   22.3402 C   0  0  0  0  0  0
  -22.7836  -13.5236   21.1854 C   0  0  0  0  0  0
  -22.1669   -4.2147   21.0980 F   0  0  0  0  0  0
  -21.5631   -3.4539   25.7735 F   0  0  0  0  0  0
  -30.0098  -13.3919   20.4070 N   0  0  0  0  0  0
  -26.2959  -12.9389   20.3320 N   0  0  0  0  0  0
  -25.9319  -11.6538   20.5772 N   0  0  0  0  0  0
  -22.0492  -12.8214   22.0410 N   0  0  0  0  0  0
  -25.4219  -15.1912   20.4053 N   0  0  0  0  0  0
  -31.8978  -14.5972   20.1630 O   0  0  0  0  0  0
  -21.6656   -6.8874   21.4238 O   0  0  0  0  0  0
  -22.3521  -14.5546   20.6713 O   0  0  0  0  0  0
  -24.6183  -31.8649   23.2078 C   0  0  0  0  0  0
  -25.9062  -32.4811   23.8380 C   0  0  1  0  0  0
  -27.2267  -27.3971   20.1084 C   0  0  0  0  0  0
  -25.5908  -33.8618   24.2317 N   0  0  0  0  0  0
  -23.4090  -30.4880   21.5483 C   0  0  2  0  0  0
  -24.8583  -28.9543   20.1080 C   0  0  0  0  0  0
  -22.7437  -29.4633   22.4960 C   0  0  0  0  0  0
  -18.0283  -28.1386   22.8487 C   0  0  0  0  0  0
  -24.1487  -36.7312   23.2637 C   0  0  0  0  0  0
  -25.9429  -30.8216   21.3662 C   0  0  0  0  0  0
  -26.0205  -29.4548   20.7110 C   0  0  0  0  0  0
  -27.2110  -28.6830   20.7105 C   0  0  0  0  0  0
  -26.0535  -26.9254   19.4901 C   0  0  0  0  0  0
  -24.8713  -27.6919   19.4907 C   0  0  0  0  0  0
  -23.6192  -29.8223   20.1629 C   0  0  0  0  0  0
  -25.4113  -36.3113   24.0334 C   0  0  1  0  0  0
  -20.5879  -28.3676   23.1320 C   0  0  2  0  0  0
  -20.6780  -26.9404   22.5428 C   0  0  0  0  0  0
  -19.5762  -26.6386   21.5229 C   0  0  0  0  0  0
  -18.1933  -26.7934   22.1624 C   0  0  0  0  0  0
  -19.1533  -28.8849   23.2894 C   0  0  0  0  0  0
  -18.9452  -30.1460   23.8898 C   0  0  0  0  0  0
  -17.6449  -30.6584   24.0570 C   0  0  0  0  0  0
  -25.9044  -34.9476   23.5124 C   0  0  0  0  0  0
  -16.5342  -29.9079   23.6337 C   0  0  0  0  0  0
  -16.7269  -28.6504   23.0344 C   0  0  0  0  0  0
  -26.4488  -31.6591   25.0706 C   0  0  0  0  0  0
  -25.3741  -31.3688   26.1435 C   0  0  0  0  0  0
  -27.0320  -30.3025   24.6114 C   0  0  0  0  0  0
  -27.6072  -32.4301   25.7465 C   0  0  0  0  0  0
  -27.5586  -37.1809   24.8470 C   0  0  0  0  0  0
  -21.4167  -29.3019   22.3702 N   0  0  0  0  0  0
  -26.4300  -37.3802   23.9411 N   0  0  0  0  0  0
  -24.6751  -31.0726   22.0990 N   0  0  0  0  0  0
  -23.4189  -28.8174   23.3022 O   0  0  0  0  0  0
  -28.3092  -26.5382   20.1702 O   0  0  0  0  0  0
  -26.5598  -34.8927   22.4686 O   0  0  0  0  0  0
  -23.5373  -32.1404   23.7453 O   0  0  0  0  0  0
  -28.9691  -19.9686   19.4982 C   0  0  0  0  0  0
  -29.1392  -20.4318   21.8539 C   0  0  0  0  0  0
  -29.8445  -18.1999   21.0092 C   0  0  0  0  0  0
  -29.4829  -18.6566   19.7031 C   0  0  0  0  0  0
  -28.8029  -20.8866   20.5607 C   0  0  0  0  0  0
  -29.6391  -19.1215   22.0910 C   0  0  0  0  0  0
  -28.3256  -25.7565   21.3122 C   0  0  0  0  0  0
  -30.6154  -16.8830   21.1954 C   0  0  0  0  0  0
  -28.6148  -24.4319   21.4637 C   0  0  0  0  0  0
  -29.6915  -17.7817   18.4715 C   0  0  0  0  0  0
  -28.5530  -23.8380   22.8589 C   0  0  0  0  0  0
  -29.0316  -23.4099   20.3863 C   0  0  0  0  0  0
  -29.9069  -18.7986   23.4290 N   0  0  0  0  0  0
  -28.2280  -22.1655   20.3329 N   0  0  0  0  0  0
  -30.0451  -15.6842   20.8754 N   0  0  0  0  0  0
  -31.7710  -16.9727   21.6317 O   0  0  0  0  0  0
  -31.4523  -12.4355   19.1279 H   0  0  0  0  0  0
  -30.3097  -11.3593   19.8802 H   0  0  0  0  0  0
  -29.7435  -11.7587   17.4538 H   0  0  0  0  0  0
  -29.6431  -13.4787   17.7514 H   0  0  0  0  0  0
  -27.8392  -11.2985   18.8522 H   0  0  0  0  0  0
  -27.3618  -12.5969   17.7893 H   0  0  0  0  0  0
  -27.6631  -14.2575   19.5149 H   0  0  0  0  0  0
  -28.6863  -12.0945   21.4182 H   0  0  0  0  0  0
  -28.4552  -13.7780   21.8076 H   0  0  0  0  0  0
  -25.2763   -9.5712   22.4750 H   0  0  0  0  0  0
  -24.0021   -7.4648   22.7471 H   0  0  0  0  0  0
  -21.0847   -8.8761   19.8949 H   0  0  0  0  0  0
  -22.3675  -10.9680   19.6164 H   0  0  0  0  0  0
  -21.1999   -7.6151   23.9706 H   0  0  0  0  0  0
  -21.1482   -6.0529   25.9076 H   0  0  0  0  0  0
  -22.0598   -2.7607   23.2846 H   0  0  0  0  0  0
  -22.4130  -11.9878   22.4782 H   0  0  0  0  0  0
  -21.1111  -13.1227   22.2631 H   0  0  0  0  0  0
  -24.6482  -15.8399   20.4978 H   0  0  0  0  0  0
  -26.2641  -15.6297   20.0567 H   0  0  0  0  0  0
  -26.7120  -32.5504   23.1130 H   0  0  0  0  0  0
  -25.0079  -33.9788   25.0479 H   0  0  0  0  0  0
  -22.6974  -31.3050   21.4085 H   0  0  0  0  0  0
  -23.3752  -35.9638   23.3316 H   0  0  0  0  0  0
  -24.3582  -36.8915   22.2045 H   0  0  0  0  0  0
  -23.7222  -37.6517   23.6646 H   0  0  0  0  0  0
  -26.0581  -31.5881   20.5982 H   0  0  0  0  0  0
  -26.8289  -30.8744   21.9872 H   0  0  0  0  0  0
  -28.1003  -29.0546   21.1991 H   0  0  0  0  0  0
  -26.0483  -25.9452   19.0354 H   0  0  0  0  0  0
  -23.9785  -27.2987   19.0236 H   0  0  0  0  0  0
  -23.7251  -30.5992   19.4060 H   0  0  0  0  0  0
  -22.7434  -29.2436   19.8657 H   0  0  0  0  0  0
  -25.1289  -36.1981   25.0821 H   0  0  0  0  0  0
  -20.9967  -28.3233   24.1453 H   0  0  0  0  0  0
  -20.5722  -26.2264   23.3610 H   0  0  0  0  0  0
  -21.6640  -26.7467   22.1195 H   0  0  0  0  0  0
  -19.6923  -25.6304   21.1240 H   0  0  0  0  0  0
  -19.6710  -27.3218   20.6778 H   0  0  0  0  0  0
  -17.4213  -26.6701   21.4008 H   0  0  0  0  0  0
  -18.0309  -26.0075   22.9016 H   0  0  0  0  0  0
  -19.7927  -30.7289   24.2249 H   0  0  0  0  0  0
  -17.5000  -31.6270   24.5164 H   0  0  0  0  0  0
  -15.5336  -30.2974   23.7683 H   0  0  0  0  0  0
  -15.8669  -28.0834   22.7038 H   0  0  0  0  0  0
  -24.5944  -30.7007   25.7762 H   0  0  0  0  0  0
  -24.8889  -32.2832   26.4856 H   0  0  0  0  0  0
  -25.8070  -30.8875   27.0209 H   0  0  0  0  0  0
  -26.2866  -29.6767   24.1188 H   0  0  0  0  0  0
  -27.4093  -29.7282   25.4590 H   0  0  0  0  0  0
  -27.8710  -30.4329   23.9271 H   0  0  0  0  0  0
  -27.2714  -33.3614   26.2039 H   0  0  0  0  0  0
  -28.3883  -32.6832   25.0281 H   0  0  0  0  0  0
  -28.0737  -31.8412   26.5372 H   0  0  0  0  0  0
  -28.2612  -38.0103   24.7521 H   0  0  0  0  0  0
  -28.1069  -36.2632   24.6288 H   0  0  0  0  0  0
  -27.2300  -37.1441   25.8873 H   0  0  0  0  0  0
  -20.9322  -29.8688   21.6889 H   0  0  0  0  0  0
  -26.0191  -38.2881   24.1407 H   0  0  0  0  0  0
  -28.7188  -20.2841   18.4943 H   0  0  0  0  0  0
  -28.9878  -21.0949   22.6919 H   0  0  0  0  0  0
  -28.0548  -26.3502   22.1756 H   0  0  0  0  0  0
  -29.4723  -18.3250   17.5519 H   0  0  0  0  0  0
  -29.0371  -16.9105   18.5014 H   0  0  0  0  0  0
  -30.7245  -17.4388   18.4025 H   0  0  0  0  0  0
  -28.3561  -24.5942   23.6194 H   0  0  0  0  0  0
  -29.5037  -23.3648   23.1044 H   0  0  0  0  0  0
  -27.7621  -23.0908   22.9234 H   0  0  0  0  0  0
  -30.0808  -23.1537   20.5426 H   0  0  0  0  0  0
  -28.9848  -23.9018   19.4137 H   0  0  0  0  0  0
  -29.6506  -19.4232   24.1886 H   0  0  0  0  0  0
  -30.2097  -17.8768   23.7274 H   0  0  0  0  0  0
  -27.5667  -22.1827   19.5616 H   0  0  0  0  0  0
  -29.0414  -15.6553   20.8247 H   0  0  0  0  0  0
  1 25  1  0  0  0
  1 30  2  0  0  0
  1 85  1  0  0  0
  2  3  1  0  0  0
  2 25  1  0  0  0
  2 87  1  0  0  0
  2 88  1  0  0  0
  3  4  1  0  0  0
  3 89  1  0  0  0
  3 90  1  0  0  0
  4  5  1  0  0  0
  4 91  1  0  0  0
  4 92  1  0  0  0
  5  6  1  0  0  0
  5 26  1  0  0  0
  5 93  1  0  0  0
  6 25  1  0  0  0
  6 94  1  0  0  0
  6 95  1  0  0  0
  7  8  2  0  0  0
  7 26  1  0  0  0
  7 29  1  0  0  0
  8  9  1  0  0  0
  8 22  1  0  0  0
  9 10  1  0  0  0
  9 27  2  0  0  0
 10 11  2  0  0  0
 10 15  1  0  0  0
 11 12  1  0  0  0
 11 96  1  0  0  0
 12 13  2  0  0  0
 12 97  1  0  0  0
 13 14  1  0  0  0
 13 31  1  0  0  0
 14 15  2  0  0  0
 14 98  1  0  0  0
 15 99  1  0  0  0
 16 17  2  0  0  0
 16 21  1  0  0  0
 16 31  1  0  0  0
 17 18  1  0  0  0
 17100  1  0  0  0
 18 19  2  0  0  0
 18101  1  0  0  0
 19 20  1  0  0  0
 19 24  1  0  0  0
 20 21  2  0  0  0
 20102  1  0  0  0
 21 23  1  0  0  0
 22 28  1  0  0  0
 22 32  2  0  0  0
 26 27  1  0  0  0
 28103  1  0  0  0
 28104  1  0  0  0
 29105  1  0  0  0
 29106  1  0  0  0
 33 34  1  0  0  0
 33 66  1  0  0  0
 33 70  2  0  0  0
 34 36  1  0  0  0
 34 59  1  0  0  0
 34107  1  0  0  0
 35 44  2  0  0  0
 35 45  1  0  0  0
 35 68  1  0  0  0
 36 56  1  0  0  0
 36108  1  0  0  0
 37 39  1  0  0  0
 37 47  1  0  0  0
 37 66  1  0  0  0
 37109  1  0  0  0
 38 43  2  0  0  0
 38 46  1  0  0  0
 38 47  1  0  0  0
 39 64  1  0  0  0
 39 67  2  0  0  0
 40 52  1  0  0  0
 40 53  2  0  0  0
 40 58  1  0  0  0
 41110  1  0  0  0
 41111  1  0  0  0
 41112  1  0  0  0
 41 48  1  0  0  0
 42 43  1  0  0  0
 42 66  1  0  0  0
 42113  1  0  0  0
 42114  1  0  0  0
 43 44  1  0  0  0
 44115  1  0  0  0
 45 46  2  0  0  0
 45116  1  0  0  0
 46117  1  0  0  0
 47118  1  0  0  0
 47119  1  0  0  0
 48 56  1  0  0  0
 48 65  1  0  0  0
 48120  1  0  0  0
 49 50  1  0  0  0
 49 53  1  0  0  0
 49 64  1  0  0  0
 49121  1  0  0  0
 50 51  1  0  0  0
 50122  1  0  0  0
 50123  1  0  0  0
 51 52  1  0  0  0
 51124  1  0  0  0
 51125  1  0  0  0
 52126  1  0  0  0
 52127  1  0  0  0
 53 54  1  0  0  0
 54 55  2  0  0  0
 54128  1  0  0  0
 55 57  1  0  0  0
 55129  1  0  0  0
 56 69  2  0  0  0
 57 58  2  0  0  0
 57130  1  0  0  0
 58131  1  0  0  0
 59 60  1  0  0  0
 59 61  1  0  0  0
 59 62  1  0  0  0
 60132  1  0  0  0
 60133  1  0  0  0
 60134  1  0  0  0
 61135  1  0  0  0
 61136  1  0  0  0
 61137  1  0  0  0
 62138  1  0  0  0
 62139  1  0  0  0
 62140  1  0  0  0
 63 65  1  0  0  0
 63141  1  0  0  0
 63142  1  0  0  0
 63143  1  0  0  0
 64144  1  0  0  0
 65145  1  0  0  0
 68 77  1  0  0  0
 71 74  2  0  0  0
 71 75  1  0  0  0
 71146  1  0  0  0
 72 75  2  0  0  0
 72 76  1  0  0  0
 72147  1  0  0  0
 73 74  1  0  0  0
 73 76  2  0  0  0
 73 78  1  0  0  0
 74 80  1  0  0  0
 75 84  1  0  0  0
 76 83  1  0  0  0
 77 79  2  0  0  0
 77148  1  0  0  0
 78 85  1  0  0  0
 78 86  2  0  0  0
 79 81  1  0  0  0
 79 82  1  0  0  0
 80149  1  0  0  0
 80150  1  0  0  0
 80151  1  0  0  0
 81152  1  0  0  0
 81153  1  0  0  0
 81154  1  0  0  0
 82 84  1  0  0  0
 82155  1  0  0  0
 82156  1  0  0  0
 83157  1  0  0  0
 83158  1  0  0  0
 84159  1  0  0  0
 85160  1  0  0  0
M  ISO  4   1 100  68 101  77 101  85 100
M  END
> <chiral flag>
0

> <version>
0

> <s_m_source_file>
/data/baiqing/PycharmProjects/Reinvent-master-3.2/result/LINK_invent/BTK/process_docking_weight1_custom_product_contain_oxygen_bond_distance_aromatic_linkinvent_7_9_3/rearranged_h_0105.sdf

> <i_m_source_file_index>
77

> <r_mmod_Potential_Energy-OPLS-2005>
144.727157592773

> <r_mmod_Stretch_Energy-OPLS-2005>
54.1097259521484

> <r_mmod_Bend_Energy-OPLS-2005>
133.943176269531

> <r_mmod_Torsional_Energy-OPLS-2005>
271.562866210938

> <r_mmod_Improper_Torsional_Energy-OPLS-2005>
10.5393810272217

> <r_mmod_Van_der_Waal_Energy-OPLS-2005>
150.324859619141

> <r_mmod_Electrostatic_Energy-OPLS-2005>
-273.651763916016

> <r_mmod_Solvation_Energy-OPLS-2005>
-234.131561279297

> <b_mmod_Minimization_Converged-OPLS-2005>
0

> <r_mmod_RMS_Derivative-OPLS-2005>
1.88415634632111

$$$$
77
                    3D
 Structure written by MMmdl.
154162  0  0  1  0            999 V2000
  -30.6736  -14.6031   20.5885 C   0  0  0  0  0  0
  -30.4358  -12.3939   19.4560 C   0  0  0  0  0  0
  -29.5117  -12.5372   18.2261 C   0  0  0  0  0  0
  -28.0321  -12.3657   18.6239 C   0  0  0  0  0  0
  -27.6580  -13.2134   19.8673 C   0  0  2  0  0  0
  -28.6930  -13.0152   20.9928 C   0  0  0  0  0  0
  -25.2581  -13.8164   20.5663 C   0  0  0  0  0  0
  -24.1840  -13.0433   20.9170 C   0  0  0  0  0  0
  -24.6405  -11.6903   20.8717 C   0  0  0  0  0  0
  -23.9073  -10.4289   21.0392 C   0  0  0  0  0  0
  -24.3625   -9.4209   21.9175 C   0  0  0  0  0  0
  -23.6297   -8.2246   22.0749 C   0  0  0  0  0  0
  -22.4277   -8.0284   21.3542 C   0  0  0  0  0  0
  -21.9913   -9.0257   20.4644 C   0  0  0  0  0  0
  -22.7243  -10.2133   20.3047 C   0  0  0  0  0  0
  -21.6857   -6.0740   22.5282 C   0  0  0  0  0  0
  -21.4017   -6.5643   23.8217 C   0  0  0  0  0  0
  -21.3658   -5.6794   24.9176 C   0  0  0  0  0  0
  -21.6043   -4.3057   24.7226 C   0  0  0  0  0  0
  -21.8820   -3.8150   23.4346 C   0  0  0  0  0  0
  -21.9194   -4.6967   22.3404 C   0  0  0  0  0  0
  -22.7864  -13.5232   21.1842 C   0  0  0  0  0  0
  -22.1660   -4.2155   21.0981 F   0  0  0  0  0  0
  -21.5627   -3.4539   25.7738 F   0  0  0  0  0  0
  -30.0207  -13.3927   20.4688 N   0  0  0  0  0  0
  -26.3006  -12.9337   20.3289 N   0  0  0  0  0  0
  -25.9330  -11.6493   20.5709 N   0  0  0  0  0  0
  -22.0503  -12.8226   22.0403 N   0  0  0  0  0  0
  -25.4301  -15.1887   20.4098 N   0  0  0  0  0  0
  -31.7559  -14.7941   20.0221 O   0  0  0  0  0  0
  -21.6640   -6.8882   21.4243 O   0  0  0  0  0  0
  -22.3544  -14.5534   20.6691 O   0  0  0  0  0  0
  -24.6249  -31.8611   23.2036 C   0  0  0  0  0  0
  -25.9103  -32.4787   23.8364 C   0  0  1  0  0  0
  -27.2316  -27.3415   20.1152 C   0  0  0  0  0  0
  -25.5924  -33.8586   24.2290 N   0  0  0  0  0  0
  -23.4183  -30.4840   21.5454 C   0  0  2  0  0  0
  -24.8670  -28.9412   20.1125 C   0  0  0  0  0  0
  -22.7472  -29.4629   22.4943 C   0  0  0  0  0  0
  -18.0289  -28.1384   22.8482 C   0  0  0  0  0  0
  -24.1491  -36.7301   23.2635 C   0  0  0  0  0  0
  -25.9576  -30.7987   21.3721 C   0  0  0  0  0  0
  -26.0342  -29.4275   20.7155 C   0  0  0  0  0  0
  -27.2217  -28.6397   20.7054 C   0  0  0  0  0  0
  -26.0465  -26.9078   19.4798 C   0  0  0  0  0  0
  -24.8739  -27.6859   19.4853 C   0  0  0  0  0  0
  -23.6326  -29.8171   20.1614 C   0  0  0  0  0  0
  -25.4113  -36.3089   24.0328 C   0  0  1  0  0  0
  -20.5886  -28.3686   23.1282 C   0  0  2  0  0  0
  -20.6778  -26.9411   22.5404 C   0  0  0  0  0  0
  -19.5754  -26.6385   21.5206 C   0  0  0  0  0  0
  -18.1933  -26.7928   22.1619 C   0  0  0  0  0  0
  -19.1540  -28.8853   23.2879 C   0  0  0  0  0  0
  -18.9462  -30.1455   23.8893 C   0  0  0  0  0  0
  -17.6460  -30.6583   24.0564 C   0  0  0  0  0  0
  -25.9048  -34.9456   23.5109 C   0  0  0  0  0  0
  -16.5352  -29.9079   23.6330 C   0  0  0  0  0  0
  -16.7276  -28.6500   23.0347 C   0  0  0  0  0  0
  -26.4493  -31.6590   25.0726 C   0  0  0  0  0  0
  -25.3734  -31.3716   26.1457 C   0  0  0  0  0  0
  -27.0331  -30.3017   24.6165 C   0  0  0  0  0  0
  -27.6059  -32.4316   25.7494 C   0  0  0  0  0  0
  -27.5583  -37.1802   24.8461 C   0  0  0  0  0  0
  -21.4188  -29.3045   22.3683 N   0  0  0  0  0  0
  -26.4294  -37.3781   23.9407 N   0  0  0  0  0  0
  -24.6854  -31.0641   22.0977 N   0  0  0  0  0  0
  -23.4201  -28.8170   23.3021 O   0  0  0  0  0  0
  -28.3556  -26.5072   20.1334 O   0  0  0  0  0  0
  -26.5613  -34.8921   22.4674 O   0  0  0  0  0  0
  -23.5416  -32.1397   23.7376 O   0  0  0  0  0  0
  -30.9148  -17.8914   20.2169 C   0  0  0  0  0  0
  -30.8063  -19.2872   19.9389 C   0  0  0  0  0  0
  -28.8542  -18.0112   21.4259 C   0  0  0  0  0  0
  -29.9459  -17.2022   20.9917 C   0  0  0  0  0  0
  -28.7334  -19.4053   21.1466 C   0  0  0  0  0  0
  -29.7366  -20.1000   20.4040 C   0  0  0  0  0  0
  -30.0538  -15.7429   21.4798 C   0  0  0  0  0  0
  -29.1806  -23.9944   20.1080 C   0  0  0  0  0  0
  -28.1492  -25.1086   20.5628 C   0  0  0  0  0  0
  -28.8626  -22.5009   20.5558 C   0  0  0  0  0  0
  -29.6596  -15.4923   22.6603 N   0  0  0  0  0  0
  -27.5959  -20.0512   21.6269 N   0  0  0  0  0  0
  -29.7896  -21.4767   20.0757 O   0  0  0  0  0  0
  -31.4794  -12.5088   19.1576 H   0  0  0  0  0  0
  -30.3655  -11.3860   19.8690 H   0  0  0  0  0  0
  -29.7829  -11.8074   17.4619 H   0  0  0  0  0  0
  -29.6568  -13.5199   17.7750 H   0  0  0  0  0  0
  -27.8645  -11.3085   18.8328 H   0  0  0  0  0  0
  -27.3830  -12.6159   17.7843 H   0  0  0  0  0  0
  -27.6945  -14.2592   19.5620 H   0  0  0  0  0  0
  -28.7053  -11.9706   21.3070 H   0  0  0  0  0  0
  -28.3844  -13.5596   21.8797 H   0  0  0  0  0  0
  -25.2768   -9.5693   22.4751 H   0  0  0  0  0  0
  -24.0011   -7.4642   22.7470 H   0  0  0  0  0  0
  -21.0841   -8.8775   19.8956 H   0  0  0  0  0  0
  -22.3694  -10.9674   19.6159 H   0  0  0  0  0  0
  -21.2007   -7.6151   23.9723 H   0  0  0  0  0  0
  -21.1479   -6.0521   25.9079 H   0  0  0  0  0  0
  -22.0598   -2.7613   23.2846 H   0  0  0  0  0  0
  -22.4109  -11.9889   22.4804 H   0  0  0  0  0  0
  -21.1125  -13.1259   22.2604 H   0  0  0  0  0  0
  -24.6664  -15.8458   20.5245 H   0  0  0  0  0  0
  -26.2888  -15.6285   20.1035 H   0  0  0  0  0  0
  -26.7176  -32.5464   23.1120 H   0  0  0  0  0  0
  -25.0080  -33.9735   25.0439 H   0  0  0  0  0  0
  -22.7112  -31.3036   21.4014 H   0  0  0  0  0  0
  -23.3752  -35.9634   23.3293 H   0  0  0  0  0  0
  -24.3584  -36.8926   22.2051 H   0  0  0  0  0  0
  -23.7243  -37.6503   23.6659 H   0  0  0  0  0  0
  -26.0869  -31.5632   20.6047 H   0  0  0  0  0  0
  -26.8391  -30.8476   22.0001 H   0  0  0  0  0  0
  -28.1208  -29.0115   21.1768 H   0  0  0  0  0  0
  -26.0144  -25.9577   18.9668 H   0  0  0  0  0  0
  -23.9830  -27.3117   18.9996 H   0  0  0  0  0  0
  -23.7482  -30.5916   19.4025 H   0  0  0  0  0  0
  -22.7545  -29.2420   19.8619 H   0  0  0  0  0  0
  -25.1293  -36.1944   25.0821 H   0  0  0  0  0  0
  -20.9979  -28.3259   24.1403 H   0  0  0  0  0  0
  -20.5678  -26.2296   23.3604 H   0  0  0  0  0  0
  -21.6647  -26.7440   22.1198 H   0  0  0  0  0  0
  -19.6916  -25.6295   21.1238 H   0  0  0  0  0  0
  -19.6694  -27.3195   20.6737 H   0  0  0  0  0  0
  -17.4204  -26.6672   21.4022 H   0  0  0  0  0  0
  -18.0338  -26.0069   22.9015 H   0  0  0  0  0  0
  -19.7937  -30.7274   24.2258 H   0  0  0  0  0  0
  -17.5013  -31.6262   24.5168 H   0  0  0  0  0  0
  -15.5351  -30.2979   23.7656 H   0  0  0  0  0  0
  -15.8678  -28.0819   22.7059 H   0  0  0  0  0  0
  -24.5912  -30.7063   25.7784 H   0  0  0  0  0  0
  -24.8923  -32.2877   26.4895 H   0  0  0  0  0  0
  -25.8068  -30.8885   27.0224 H   0  0  0  0  0  0
  -26.2896  -29.6768   24.1204 H   0  0  0  0  0  0
  -27.4052  -29.7272   25.4658 H   0  0  0  0  0  0
  -27.8758  -30.4308   23.9367 H   0  0  0  0  0  0
  -27.2680  -33.3612   26.2086 H   0  0  0  0  0  0
  -28.3866  -32.6882   25.0319 H   0  0  0  0  0  0
  -28.0737  -31.8431   26.5399 H   0  0  0  0  0  0
  -28.2593  -38.0107   24.7522 H   0  0  0  0  0  0
  -28.1088  -36.2640   24.6270 H   0  0  0  0  0  0
  -27.2302  -37.1430   25.8864 H   0  0  0  0  0  0
  -20.9367  -29.8765   21.6888 H   0  0  0  0  0  0
  -26.0178  -38.2856   24.1413 H   0  0  0  0  0  0
  -31.7853  -17.3625   19.8558 H   0  0  0  0  0  0
  -31.5900  -19.7559   19.3611 H   0  0  0  0  0  0
  -28.0770  -17.5429   22.0138 H   0  0  0  0  0  0
  -30.1715  -24.2650   20.4743 H   0  0  0  0  0  0
  -29.2485  -24.0174   19.0204 H   0  0  0  0  0  0
  -28.1367  -25.1250   21.6532 H   0  0  0  0  0  0
  -27.1631  -24.7448   20.2823 H   0  0  0  0  0  0
  -27.8652  -22.2550   20.1928 H   0  0  0  0  0  0
  -28.8323  -22.4633   21.6451 H   0  0  0  0  0  0
  -29.3195  -16.3316   23.1135 H   0  0  0  0  0  0
  -26.7930  -19.4794   21.8669 H   0  0  0  0  0  0
  -27.3280  -20.9118   21.1657 H   0  0  0  0  0  0
  1 25  1  0  0  0
  1 30  2  0  0  0
  1 77  1  0  0  0
  2  3  1  0  0  0
  2 25  1  0  0  0
  2 84  1  0  0  0
  2 85  1  0  0  0
  3  4  1  0  0  0
  3 86  1  0  0  0
  3 87  1  0  0  0
  4  5  1  0  0  0
  4 88  1  0  0  0
  4 89  1  0  0  0
  5  6  1  0  0  0
  5 26  1  0  0  0
  5 90  1  0  0  0
  6 25  1  0  0  0
  6 91  1  0  0  0
  6 92  1  0  0  0
  7  8  2  0  0  0
  7 26  1  0  0  0
  7 29  1  0  0  0
  8  9  1  0  0  0
  8 22  1  0  0  0
  9 10  1  0  0  0
  9 27  2  0  0  0
 10 11  2  0  0  0
 10 15  1  0  0  0
 11 12  1  0  0  0
 11 93  1  0  0  0
 12 13  2  0  0  0
 12 94  1  0  0  0
 13 14  1  0  0  0
 13 31  1  0  0  0
 14 15  2  0  0  0
 14 95  1  0  0  0
 15 96  1  0  0  0
 16 17  2  0  0  0
 16 21  1  0  0  0
 16 31  1  0  0  0
 17 18  1  0  0  0
 17 97  1  0  0  0
 18 19  2  0  0  0
 18 98  1  0  0  0
 19 20  1  0  0  0
 19 24  1  0  0  0
 20 21  2  0  0  0
 20 99  1  0  0  0
 21 23  1  0  0  0
 22 28  1  0  0  0
 22 32  2  0  0  0
 26 27  1  0  0  0
 28100  1  0  0  0
 28101  1  0  0  0
 29102  1  0  0  0
 29103  1  0  0  0
 33 34  1  0  0  0
 33 66  1  0  0  0
 33 70  2  0  0  0
 34 36  1  0  0  0
 34 59  1  0  0  0
 34104  1  0  0  0
 35 44  2  0  0  0
 35 45  1  0  0  0
 35 68  1  0  0  0
 36 56  1  0  0  0
 36105  1  0  0  0
 37 39  1  0  0  0
 37 47  1  0  0  0
 37 66  1  0  0  0
 37106  1  0  0  0
 38 43  2  0  0  0
 38 46  1  0  0  0
 38 47  1  0  0  0
 39 64  1  0  0  0
 39 67  2  0  0  0
 40 52  1  0  0  0
 40 53  2  0  0  0
 40 58  1  0  0  0
 41107  1  0  0  0
 41108  1  0  0  0
 41109  1  0  0  0
 41 48  1  0  0  0
 42 43  1  0  0  0
 42 66  1  0  0  0
 42110  1  0  0  0
 42111  1  0  0  0
 43 44  1  0  0  0
 44112  1  0  0  0
 45 46  2  0  0  0
 45113  1  0  0  0
 46114  1  0  0  0
 47115  1  0  0  0
 47116  1  0  0  0
 48 56  1  0  0  0
 48 65  1  0  0  0
 48117  1  0  0  0
 49 50  1  0  0  0
 49 53  1  0  0  0
 49 64  1  0  0  0
 49118  1  0  0  0
 50 51  1  0  0  0
 50119  1  0  0  0
 50120  1  0  0  0
 51 52  1  0  0  0
 51121  1  0  0  0
 51122  1  0  0  0
 52123  1  0  0  0
 52124  1  0  0  0
 53 54  1  0  0  0
 54 55  2  0  0  0
 54125  1  0  0  0
 55 57  1  0  0  0
 55126  1  0  0  0
 56 69  2  0  0  0
 57 58  2  0  0  0
 57127  1  0  0  0
 58128  1  0  0  0
 59 60  1  0  0  0
 59 61  1  0  0  0
 59 62  1  0  0  0
 60129  1  0  0  0
 60130  1  0  0  0
 60131  1  0  0  0
 61132  1  0  0  0
 61133  1  0  0  0
 61134  1  0  0  0
 62135  1  0  0  0
 62136  1  0  0  0
 62137  1  0  0  0
 63 65  1  0  0  0
 63138  1  0  0  0
 63139  1  0  0  0
 63140  1  0  0  0
 64141  1  0  0  0
 65142  1  0  0  0
 68 79  1  0  0  0
 71 72  2  0  0  0
 71 74  1  0  0  0
 71143  1  0  0  0
 72 76  1  0  0  0
 72144  1  0  0  0
 73 74  2  0  0  0
 73 75  1  0  0  0
 73145  1  0  0  0
 74 77  1  0  0  0
 75 76  2  0  0  0
 75 82  1  0  0  0
 76 83  1  0  0  0
 77 81  2  0  0  0
 78 79  1  0  0  0
 78 80  1  0  0  0
 78146  1  0  0  0
 78147  1  0  0  0
 79148  1  0  0  0
 79149  1  0  0  0
 80 83  1  0  0  0
 80150  1  0  0  0
 80151  1  0  0  0
 81152  1  0  0  0
 82153  1  0  0  0
 82154  1  0  0  0
M  ISO  4   1 100  68 101  77 100  79 101
M  END
> <chiral flag>
0

> <version>
0

> <s_m_source_file>
/data/baiqing/PycharmProjects/Reinvent-master-3.2/result/LINK_invent/BTK/process_docking_weight1_custom_product_contain_oxygen_bond_distance_aromatic_linkinvent_7_9_3/rearranged_h_0105.sdf

> <i_m_source_file_index>
78

> <r_mmod_Potential_Energy-OPLS-2005>
169.4521484375

> <r_mmod_Stretch_Energy-OPLS-2005>
85.0642166137695

> <r_mmod_Bend_Energy-OPLS-2005>
160.605255126953

> <r_mmod_Torsional_Energy-OPLS-2005>
215.386123657227

> <r_mmod_Improper_Torsional_Energy-OPLS-2005>
6.12695217132568

> <r_mmod_Van_der_Waal_Energy-OPLS-2005>
156.264205932617

> <r_mmod_Electrostatic_Energy-OPLS-2005>
-280.941955566406

> <r_mmod_Solvation_Energy-OPLS-2005>
-208.973754882812

> <b_mmod_Minimization_Converged-OPLS-2005>
0

> <r_mmod_RMS_Derivative-OPLS-2005>
0.904738128185272

$$$$
78
                    3D
 Structure written by MMmdl.
166174  0  0  1  0            999 V2000
  -29.6621  -15.7719   20.2761 C   0  0  0  0  0  0
  -30.3090  -13.2333   19.5225 C   0  0  0  0  0  0
  -29.4960  -12.6542   18.3278 C   0  0  0  0  0  0
  -28.1000  -12.2046   18.7920 C   0  0  0  0  0  0
  -27.5123  -13.2077   19.8042 C   0  0  2  0  0  0
  -28.4641  -13.5629   20.9374 C   0  0  0  0  0  0
  -25.2048  -13.7938   20.5931 C   0  0  0  0  0  0
  -24.1405  -13.0214   20.9382 C   0  0  0  0  0  0
  -24.6022  -11.6698   20.8839 C   0  0  0  0  0  0
  -23.8811  -10.4134   21.0482 C   0  0  0  0  0  0
  -24.3465   -9.4089   21.9233 C   0  0  0  0  0  0
  -23.6199   -8.2108   22.0751 C   0  0  0  0  0  0
  -22.4192   -8.0163   21.3523 C   0  0  0  0  0  0
  -21.9773   -9.0111   20.4639 C   0  0  0  0  0  0
  -22.7033  -10.2008   20.3084 C   0  0  0  0  0  0
  -21.6799   -6.0674   22.5286 C   0  0  0  0  0  0
  -21.3975   -6.5606   23.8213 C   0  0  0  0  0  0
  -21.3644   -5.6770   24.9181 C   0  0  0  0  0  0
  -21.6042   -4.3037   24.7238 C   0  0  0  0  0  0
  -21.8829   -3.8116   23.4370 C   0  0  0  0  0  0
  -21.9186   -4.6916   22.3417 C   0  0  0  0  0  0
  -22.7516  -13.5106   21.2033 C   0  0  0  0  0  0
  -22.1665   -4.2116   21.0992 F   0  0  0  0  0  0
  -21.5634   -3.4530   25.7754 F   0  0  0  0  0  0
  -29.4886  -14.3199   20.2423 N   0  0  0  0  0  0
  -26.2170  -12.8986   20.3131 N   0  0  0  0  0  0
  -25.8857  -11.6184   20.5668 N   0  0  0  0  0  0
  -22.0141  -12.8136   22.0584 N   0  0  0  0  0  0
  -25.3883  -15.1667   20.4677 N   0  0  0  0  0  0
  -30.9211  -15.9034   20.2747 O   0  0  0  0  0  0
  -21.6558   -6.8779   21.4233 O   0  0  0  0  0  0
  -22.3311  -14.5457   20.6885 O   0  0  0  0  0  0
  -24.7432  -31.8740   22.8214 C   0  0  0  0  0  0
  -25.9763  -32.4856   23.6539 C   0  0  1  0  0  0
  -26.5817  -27.9491   21.3882 C   0  0  0  0  0  0
  -25.6020  -33.8411   24.0969 N   0  0  0  0  0  0
  -23.9868  -29.5906   21.1379 C   0  0  2  0  0  0
  -25.3097  -29.0558   19.4952 C   0  0  0  0  0  0
  -23.5109  -27.8269   22.0080 C   0  0  0  0  0  0
  -18.1232  -28.0836   22.8182 C   0  0  0  0  0  0
  -24.1428  -36.7342   23.2672 C   0  0  0  0  0  0
  -26.0629  -31.0362   20.9312 C   0  0  0  0  0  0
  -26.3470  -29.7283   20.2132 C   0  0  0  0  0  0
  -27.3266  -28.9347   20.7892 C   0  0  0  0  0  0
  -26.0461  -27.0486   20.3937 C   0  0  0  0  0  0
  -25.3209  -27.6616   19.3654 C   0  0  0  0  0  0
  -24.0026  -29.6290   19.6282 C   0  0  0  0  0  0
  -25.4135  -36.2987   24.0145 C   0  0  1  0  0  0
  -20.7435  -27.6211   23.2602 C   0  0  2  0  0  0
  -20.3363  -26.2873   22.6764 C   0  0  0  0  0  0
  -19.3137  -26.3434   21.5530 C   0  0  0  0  0  0
  -18.0139  -26.7317   22.1637 C   0  0  0  0  0  0
  -19.3956  -28.6302   23.2557 C   0  0  0  0  0  0
  -19.2215  -29.9221   23.8837 C   0  0  0  0  0  0
  -17.9501  -30.5644   24.0408 C   0  0  0  0  0  0
  -25.9222  -34.9603   23.4468 C   0  0  0  0  0  0
  -16.7623  -29.9487   23.6196 C   0  0  0  0  0  0
  -16.8644  -28.7102   22.9923 C   0  0  0  0  0  0
  -26.4870  -31.7214   24.9802 C   0  0  0  0  0  0
  -25.4205  -31.5331   26.1087 C   0  0  0  0  0  0
  -27.1802  -30.3778   24.6321 C   0  0  0  0  0  0
  -27.6259  -32.5288   25.6566 C   0  0  0  0  0  0
  -27.5538  -37.1761   24.8441 C   0  0  0  0  0  0
  -22.3090  -27.4675   22.8331 N   0  0  0  0  0  0
  -26.4181  -37.3812   23.9473 N   0  0  0  0  0  0
  -24.8371  -30.9296   21.7098 N   0  0  0  0  0  0
  -24.2087  -27.0511   22.5710 O   0  0  0  0  0  0
  -26.0048  -28.5628   22.6522 O   0  0  0  0  0  0
  -26.6034  -34.9463   22.4211 O   0  0  0  0  0  0
  -23.6773  -32.2044   23.3673 O   0  0  0  0  0  0
  -24.3545  -20.3680   18.9242 C   0  0  0  0  0  0
  -24.0321  -21.7195   19.3030 C   0  0  0  0  0  0
  -25.4828  -19.5694   19.3147 C   0  0  0  0  0  0
  -26.0604  -21.5429   20.5436 C   0  0  0  0  0  0
  -24.7964  -22.5570   20.1600 C   0  0  0  0  0  0
  -26.5291  -19.9885   20.1728 C   0  0  0  0  0  0
  -21.9286  -27.0721   20.0549 C   0  0  0  0  0  0
  -28.2816  -17.7120   17.7096 C   0  0  0  0  0  0
  -24.0295  -24.3419   20.4863 C   0  0  0  0  0  0
  -27.9330  -18.6642   20.5086 C   0  0  0  0  0  0
  -21.5189  -28.8553   21.0165 C   0  0  0  0  0  0
  -22.4018  -29.8433   22.8584 C   0  0  0  0  0  0
  -27.8627  -16.7165   18.8059 C   0  0  0  0  0  0
  -24.4534  -29.3334   23.6005 C   0  0  0  0  0  0
  -22.7876  -25.6757   20.0565 N   0  0  0  0  0  0
  -28.5258  -16.9379   20.1086 N   0  0  0  0  0  0
  -21.2467  -27.0680   19.0346 O   0  0  0  0  0  0
  -31.2389  -13.6596   19.1461 H   0  0  0  0  0  0
  -30.6105  -12.4408   20.2088 H   0  0  0  0  0  0
  -30.0276  -11.8280   17.8567 H   0  0  0  0  0  0
  -29.3836  -13.4225   17.5617 H   0  0  0  0  0  0
  -28.2034  -11.2327   19.2758 H   0  0  0  0  0  0
  -27.4322  -12.0528   17.9454 H   0  0  0  0  0  0
  -27.3297  -14.0815   19.1955 H   0  0  0  0  0  0
  -28.8325  -12.6926   21.4815 H   0  0  0  0  0  0
  -27.9791  -14.2056   21.6752 H   0  0  0  0  0  0
  -25.2599   -9.5618   22.4808 H   0  0  0  0  0  0
  -23.9926   -7.4495   22.7458 H   0  0  0  0  0  0
  -21.0697   -8.8599   19.8957 H   0  0  0  0  0  0
  -22.3474  -10.9561   19.6224 H   0  0  0  0  0  0
  -21.1945   -7.6117   23.9701 H   0  0  0  0  0  0
  -21.1457   -6.0509   25.9082 H   0  0  0  0  0  0
  -22.0631   -2.7585   23.2872 H   0  0  0  0  0  0
  -22.3704  -11.9791   22.4983 H   0  0  0  0  0  0
  -21.0783  -13.1222   22.2797 H   0  0  0  0  0  0
  -24.6395  -15.8291   20.6348 H   0  0  0  0  0  0
  -26.2653  -15.6029   20.2212 H   0  0  0  0  0  0
  -26.8458  -32.6032   23.0142 H   0  0  0  0  0  0
  -24.9644  -33.9060   24.8756 H   0  0  0  0  0  0
  -23.2325  -30.3437   20.9408 H   0  0  0  0  0  0
  -23.3725  -35.9620   23.3165 H   0  0  0  0  0  0
  -24.3408  -36.9266   22.2112 H   0  0  0  0  0  0
  -23.7212  -37.6439   23.7003 H   0  0  0  0  0  0
  -25.9192  -31.8068   20.1765 H   0  0  0  0  0  0
  -26.9519  -31.3119   21.4858 H   0  0  0  0  0  0
  -27.9874  -29.4773   21.4492 H   0  0  0  0  0  0
  -25.8190  -26.0319   20.6634 H   0  0  0  0  0  0
  -24.5781  -27.0994   18.8190 H   0  0  0  0  0  0
  -23.9927  -30.6230   19.1683 H   0  0  0  0  0  0
  -23.2664  -29.0401   19.0859 H   0  0  0  0  0  0
  -25.1422  -36.1430   25.0601 H   0  0  0  0  0  0
  -20.8291  -27.4713   24.3364 H   0  0  0  0  0  0
  -19.8799  -25.7229   23.4960 H   0  0  0  0  0  0
  -21.1383  -25.6096   22.3808 H   0  0  0  0  0  0
  -19.2216  -25.3663   21.0758 H   0  0  0  0  0  0
  -19.4902  -27.0563   20.7606 H   0  0  0  0  0  0
  -17.2376  -26.7410   21.3954 H   0  0  0  0  0  0
  -17.6919  -25.9972   22.9081 H   0  0  0  0  0  0
  -20.0538  -30.4445   24.3269 H   0  0  0  0  0  0
  -17.8945  -31.5254   24.5344 H   0  0  0  0  0  0
  -15.7984  -30.4187   23.7656 H   0  0  0  0  0  0
  -15.9665  -28.2318   22.6263 H   0  0  0  0  0  0
  -24.4026  -31.4074   25.7493 H   0  0  0  0  0  0
  -25.3648  -32.4178   26.7446 H   0  0  0  0  0  0
  -25.6580  -30.6980   26.7688 H   0  0  0  0  0  0
  -27.3110  -30.2738   23.5617 H   0  0  0  0  0  0
  -26.6790  -29.4980   25.0325 H   0  0  0  0  0  0
  -28.1951  -30.3090   25.0251 H   0  0  0  0  0  0
  -27.3038  -33.5033   26.0249 H   0  0  0  0  0  0
  -28.4408  -32.7048   24.9537 H   0  0  0  0  0  0
  -28.0522  -31.9984   26.5098 H   0  0  0  0  0  0
  -28.2473  -38.0149   24.7594 H   0  0  0  0  0  0
  -28.1102  -36.2665   24.6073 H   0  0  0  0  0  0
  -27.2283  -37.1195   25.8851 H   0  0  0  0  0  0
  -22.6557  -26.6754   23.3554 H   0  0  0  0  0  0
  -25.9958  -38.2794   24.1691 H   0  0  0  0  0  0
  -23.6575  -19.8825   18.2540 H   0  0  0  0  0  0
  -23.1145  -22.1256   18.9039 H   0  0  0  0  0  0
  -25.5331  -18.5668   18.9145 H   0  0  0  0  0  0
  -26.7677  -22.0181   21.2081 H   0  0  0  0  0  0
  -27.8257  -17.4291   16.7575 H   0  0  0  0  0  0
  -29.3632  -17.7083   17.5718 H   0  0  0  0  0  0
  -27.9619  -18.7335   17.9153 H   0  0  0  0  0  0
  -23.2035  -23.8213   20.9644 H   0  0  0  0  0  0
  -24.1216  -24.3682   19.4009 H   0  0  0  0  0  0
  -27.9852  -18.6702   21.5973 H   0  0  0  0  0  0
  -28.8114  -19.2396   20.2159 H   0  0  0  0  0  0
  -20.4468  -28.9055   21.1045 H   0  0  0  0  0  0
  -21.5021  -29.5873   20.2103 H   0  0  0  0  0  0
  -21.8239  -29.7160   23.7565 H   0  0  0  0  0  0
  -22.1208  -30.8698   22.6748 H   0  0  0  0  0  0
  -26.7821  -16.7155   18.9206 H   0  0  0  0  0  0
  -28.1207  -15.7523   18.3756 H   0  0  0  0  0  0
  -24.2681  -28.5793   24.3652 H   0  0  0  0  0  0
  -24.7503  -30.0036   24.3563 H   0  0  0  0  0  0
  -22.3582  -25.2559   19.2420 H   0  0  0  0  0  0
  1 25  1  0  0  0
  1 30  2  0  0  0
  1 86  1  0  0  0
  2  3  1  0  0  0
  2 25  1  0  0  0
  2 88  1  0  0  0
  2 89  1  0  0  0
  3  4  1  0  0  0
  3 90  1  0  0  0
  3 91  1  0  0  0
  4  5  1  0  0  0
  4 92  1  0  0  0
  4 93  1  0  0  0
  5  6  1  0  0  0
  5 26  1  0  0  0
  5 94  1  0  0  0
  6 25  1  0  0  0
  6 95  1  0  0  0
  6 96  1  0  0  0
  7  8  2  0  0  0
  7 26  1  0  0  0
  7 29  1  0  0  0
  8  9  1  0  0  0
  8 22  1  0  0  0
  9 10  1  0  0  0
  9 27  2  0  0  0
 10 11  2  0  0  0
 10 15  1  0  0  0
 11 12  1  0  0  0
 11 97  1  0  0  0
 12 13  2  0  0  0
 12 98  1  0  0  0
 13 14  1  0  0  0
 13 31  1  0  0  0
 14 15  2  0  0  0
 14 99  1  0  0  0
 15100  1  0  0  0
 16 17  2  0  0  0
 16 21  1  0  0  0
 16 31  1  0  0  0
 17 18  1  0  0  0
 17101  1  0  0  0
 18 19  2  0  0  0
 18102  1  0  0  0
 19 20  1  0  0  0
 19 24  1  0  0  0
 20 21  2  0  0  0
 20103  1  0  0  0
 21 23  1  0  0  0
 22 28  1  0  0  0
 22 32  2  0  0  0
 26 27  1  0  0  0
 28104  1  0  0  0
 28105  1  0  0  0
 29106  1  0  0  0
 29107  1  0  0  0
 33 34  1  0  0  0
 33 66  1  0  0  0
 33 70  2  0  0  0
 34 36  1  0  0  0
 34 59  1  0  0  0
 34108  1  0  0  0
 35 44  2  0  0  0
 35 45  1  0  0  0
 35 68  1  0  0  0
 36 56  1  0  0  0
 36109  1  0  0  0
 37 39  1  0  0  0
 37 47  1  0  0  0
 37 66  1  0  0  0
 37110  1  0  0  0
 38 43  2  0  0  0
 38 46  1  0  0  0
 38 47  1  0  0  0
 39 64  1  0  0  0
 39 67  2  0  0  0
 40 52  1  0  0  0
 40 53  2  0  0  0
 40 58  1  0  0  0
 41111  1  0  0  0
 41112  1  0  0  0
 41113  1  0  0  0
 41 48  1  0  0  0
 42 43  1  0  0  0
 42 66  1  0  0  0
 42114  1  0  0  0
 42115  1  0  0  0
 43 44  1  0  0  0
 44116  1  0  0  0
 45 46  2  0  0  0
 45117  1  0  0  0
 46118  1  0  0  0
 47119  1  0  0  0
 47120  1  0  0  0
 48 56  1  0  0  0
 48 65  1  0  0  0
 48121  1  0  0  0
 49 50  1  0  0  0
 49 53  1  0  0  0
 49 64  1  0  0  0
 49122  1  0  0  0
 50 51  1  0  0  0
 50123  1  0  0  0
 50124  1  0  0  0
 51 52  1  0  0  0
 51125  1  0  0  0
 51126  1  0  0  0
 52127  1  0  0  0
 52128  1  0  0  0
 53 54  1  0  0  0
 54 55  2  0  0  0
 54129  1  0  0  0
 55 57  1  0  0  0
 55130  1  0  0  0
 56 69  2  0  0  0
 57 58  2  0  0  0
 57131  1  0  0  0
 58132  1  0  0  0
 59 60  1  0  0  0
 59 61  1  0  0  0
 59 62  1  0  0  0
 60133  1  0  0  0
 60134  1  0  0  0
 60135  1  0  0  0
 61136  1  0  0  0
 61137  1  0  0  0
 61138  1  0  0  0
 62139  1  0  0  0
 62140  1  0  0  0
 62141  1  0  0  0
 63 65  1  0  0  0
 63142  1  0  0  0
 63143  1  0  0  0
 63144  1  0  0  0
 64145  1  0  0  0
 65146  1  0  0  0
 68 84  1  0  0  0
 71 72  2  0  0  0
 71 73  1  0  0  0
 71147  1  0  0  0
 72 75  1  0  0  0
 72148  1  0  0  0
 73 76  2  0  0  0
 73149  1  0  0  0
 74 75  2  0  0  0
 74 76  1  0  0  0
 74150  1  0  0  0
 75 79  1  0  0  0
 76 80  1  0  0  0
 77 81  1  0  0  0
 77 85  1  0  0  0
 77 87  2  0  0  0
 78 83  1  0  0  0
 78151  1  0  0  0
 78152  1  0  0  0
 78153  1  0  0  0
 79 85  1  0  0  0
 79154  1  0  0  0
 79155  1  0  0  0
 80 86  1  0  0  0
 80156  1  0  0  0
 80157  1  0  0  0
 81 82  1  0  0  0
 81158  1  0  0  0
 81159  1  0  0  0
 82 84  1  0  0  0
 82160  1  0  0  0
 82161  1  0  0  0
 83 86  1  0  0  0
 83162  1  0  0  0
 83163  1  0  0  0
 84164  1  0  0  0
 84165  1  0  0  0
 85166  1  0  0  0
M  ISO  4   1 100  68 101  84 101  86 100
M  END
> <chiral flag>
0

> <version>
0

> <s_m_source_file>
/data/baiqing/PycharmProjects/Reinvent-master-3.2/result/LINK_invent/BTK/process_docking_weight1_custom_product_contain_oxygen_bond_distance_aromatic_linkinvent_7_9_3/rearranged_h_0105.sdf

> <i_m_source_file_index>
79

> <r_mmod_Potential_Energy-OPLS-2005>
12973.20703125

> <r_mmod_Stretch_Energy-OPLS-2005>
4461.50146484375

> <r_mmod_Bend_Energy-OPLS-2005>
2067.39575195312

> <r_mmod_Torsional_Energy-OPLS-2005>
699.001770019531

> <r_mmod_Improper_Torsional_Energy-OPLS-2005>
75.4082565307617

> <r_mmod_Van_der_Waal_Energy-OPLS-2005>
1629.01281738281

> <r_mmod_Electrostatic_Energy-OPLS-2005>
-373.651306152344

> <r_mmod_Solvation_Energy-OPLS-2005>
-203.721969604492

> <b_mmod_Minimization_Converged-OPLS-2005>
0

> <r_mmod_RMS_Derivative-OPLS-2005>
8.18481349945068

$$$$
79
                    3D
 Structure written by MMmdl.
159167  0  0  1  0            999 V2000
  -30.7150  -14.4936   20.5821 C   0  0  0  0  0  0
  -30.4149  -12.3246   19.4316 C   0  0  0  0  0  0
  -29.4911  -12.5018   18.2107 C   0  0  0  0  0  0
  -28.0139  -12.3579   18.6278 C   0  0  0  0  0  0
  -27.6558  -13.2134   19.8722 C   0  0  2  0  0  0
  -28.6982  -13.0278   20.9975 C   0  0  0  0  0  0
  -25.2554  -13.8171   20.5707 C   0  0  0  0  0  0
  -24.1818  -13.0430   20.9194 C   0  0  0  0  0  0
  -24.6386  -11.6900   20.8743 C   0  0  0  0  0  0
  -23.9061  -10.4282   21.0418 C   0  0  0  0  0  0
  -24.3608   -9.4194   21.9203 C   0  0  0  0  0  0
  -23.6280   -8.2230   22.0772 C   0  0  0  0  0  0
  -22.4259   -8.0280   21.3559 C   0  0  0  0  0  0
  -21.9887   -9.0257   20.4663 C   0  0  0  0  0  0
  -22.7224  -10.2133   20.3076 C   0  0  0  0  0  0
  -21.6842   -6.0733   22.5288 C   0  0  0  0  0  0
  -21.4011   -6.5642   23.8224 C   0  0  0  0  0  0
  -21.3656   -5.6798   24.9190 C   0  0  0  0  0  0
  -21.6037   -4.3060   24.7234 C   0  0  0  0  0  0
  -21.8812   -3.8147   23.4357 C   0  0  0  0  0  0
  -21.9185   -4.6960   22.3410 C   0  0  0  0  0  0
  -22.7844  -13.5230   21.1854 C   0  0  0  0  0  0
  -22.1654   -4.2146   21.0988 F   0  0  0  0  0  0
  -21.5624   -3.4544   25.7748 F   0  0  0  0  0  0
  -30.0241  -13.3293   20.4354 N   0  0  0  0  0  0
  -26.2989  -12.9357   20.3368 N   0  0  0  0  0  0
  -25.9317  -11.6510   20.5778 N   0  0  0  0  0  0
  -22.0468  -12.8247   22.0413 N   0  0  0  0  0  0
  -25.4270  -15.1895   20.4149 N   0  0  0  0  0  0
  -31.8435  -14.6498   20.1070 O   0  0  0  0  0  0
  -21.6626   -6.8876   21.4253 O   0  0  0  0  0  0
  -22.3534  -14.5540   20.6710 O   0  0  0  0  0  0
  -24.6166  -31.8650   23.2091 C   0  0  0  0  0  0
  -25.9048  -32.4819   23.8387 C   0  0  1  0  0  0
  -27.2320  -27.4135   20.1187 C   0  0  0  0  0  0
  -25.5872  -33.8618   24.2300 N   0  0  0  0  0  0
  -23.4059  -30.4879   21.5468 C   0  0  2  0  0  0
  -24.8567  -28.9494   20.1153 C   0  0  0  0  0  0
  -22.7426  -29.4639   22.4965 C   0  0  0  0  0  0
  -18.0263  -28.1393   22.8492 C   0  0  0  0  0  0
  -24.1482  -36.7347   23.2638 C   0  0  0  0  0  0
  -25.9348  -30.8275   21.3638 C   0  0  0  0  0  0
  -26.0150  -29.4571   20.7186 C   0  0  0  0  0  0
  -27.2087  -28.6956   20.7200 C   0  0  0  0  0  0
  -26.0646  -26.9283   19.4988 C   0  0  0  0  0  0
  -24.8767  -27.6839   19.5019 C   0  0  0  0  0  0
  -23.6184  -29.8178   20.1619 C   0  0  0  0  0  0
  -25.4104  -36.3125   24.0325 C   0  0  1  0  0  0
  -20.5857  -28.3675   23.1304 C   0  0  2  0  0  0
  -20.6741  -26.9401   22.5413 C   0  0  0  0  0  0
  -19.5718  -26.6388   21.5209 C   0  0  0  0  0  0
  -18.1902  -26.7930   22.1631 C   0  0  0  0  0  0
  -19.1511  -28.8846   23.2890 C   0  0  0  0  0  0
  -18.9452  -30.1457   23.8905 C   0  0  0  0  0  0
  -17.6453  -30.6588   24.0577 C   0  0  0  0  0  0
  -25.9026  -34.9481   23.5122 C   0  0  0  0  0  0
  -16.5344  -29.9100   23.6337 C   0  0  0  0  0  0
  -16.7251  -28.6519   23.0345 C   0  0  0  0  0  0
  -26.4492  -31.6601   25.0719 C   0  0  0  0  0  0
  -25.3774  -31.3694   26.1484 C   0  0  0  0  0  0
  -27.0320  -30.3041   24.6104 C   0  0  0  0  0  0
  -27.6073  -32.4333   25.7460 C   0  0  0  0  0  0
  -27.5571  -37.1826   24.8452 C   0  0  0  0  0  0
  -21.4144  -29.3043   22.3720 N   0  0  0  0  0  0
  -26.4293  -37.3806   23.9387 N   0  0  0  0  0  0
  -24.6701  -31.0744   22.0987 N   0  0  0  0  0  0
  -23.4184  -28.8179   23.3007 O   0  0  0  0  0  0
  -28.3678  -26.6318   20.0975 O   0  0  0  0  0  0
  -26.5615  -34.8936   22.4700 O   0  0  0  0  0  0
  -23.5357  -32.1400   23.7489 O   0  0  0  0  0  0
  -30.5268  -19.0469   20.4108 C   0  0  0  0  0  0
  -28.7761  -18.4447   21.9674 C   0  0  0  0  0  0
  -29.9655  -18.0988   21.2956 C   0  0  0  0  0  0
  -29.9448  -20.3267   20.2144 C   0  0  0  0  0  0
  -28.1916  -19.7222   21.7882 C   0  0  0  0  0  0
  -28.7722  -20.7002   20.9372 C   0  0  0  0  0  0
  -30.5965  -21.2342   19.1854 C   0  0  0  0  0  0
  -30.7081  -16.7848   21.6037 C   0  0  0  0  0  0
  -27.8852  -24.3550   21.1622 C   0  0  0  0  0  0
  -28.5450  -25.7689   21.2389 C   0  0  0  0  0  0
  -28.8025  -23.1721   20.7407 C   0  0  0  0  0  0
  -27.0228  -20.0356   22.4795 N   0  0  0  0  0  0
  -30.0755  -15.5127   21.1988 N   0  0  0  0  0  0
  -28.0979  -21.9194   20.8405 O   0  0  0  0  0  0
  -31.4609  -12.4092   19.1324 H   0  0  0  0  0  0
  -30.3088  -11.3220   19.8476 H   0  0  0  0  0  0
  -29.7325  -11.7646   17.4443 H   0  0  0  0  0  0
  -29.6568  -13.4815   17.7603 H   0  0  0  0  0  0
  -27.8350  -11.3037   18.8446 H   0  0  0  0  0  0
  -27.3571  -12.6123   17.7948 H   0  0  0  0  0  0
  -27.6915  -14.2564   19.5562 H   0  0  0  0  0  0
  -28.6794  -12.0033   21.3726 H   0  0  0  0  0  0
  -28.4567  -13.6562   21.8561 H   0  0  0  0  0  0
  -25.2751   -9.5663   22.4790 H   0  0  0  0  0  0
  -23.9978   -7.4616   22.7490 H   0  0  0  0  0  0
  -21.0813   -8.8787   19.8975 H   0  0  0  0  0  0
  -22.3686  -10.9687   19.6196 H   0  0  0  0  0  0
  -21.2019   -7.6154   23.9727 H   0  0  0  0  0  0
  -21.1482   -6.0535   25.9093 H   0  0  0  0  0  0
  -22.0591   -2.7606   23.2866 H   0  0  0  0  0  0
  -22.4041  -11.9898   22.4822 H   0  0  0  0  0  0
  -21.1113  -13.1354   22.2643 H   0  0  0  0  0  0
  -24.6628  -15.8445   20.5404 H   0  0  0  0  0  0
  -26.2818  -15.6328   20.1035 H   0  0  0  0  0  0
  -26.7123  -32.5539   23.1152 H   0  0  0  0  0  0
  -24.9962  -33.9766   25.0406 H   0  0  0  0  0  0
  -22.6954  -31.3043   21.4037 H   0  0  0  0  0  0
  -23.3721  -35.9705   23.3325 H   0  0  0  0  0  0
  -24.3556  -36.8959   22.2046 H   0  0  0  0  0  0
  -23.7274  -37.6570   23.6658 H   0  0  0  0  0  0
  -26.0421  -31.5888   20.5902 H   0  0  0  0  0  0
  -26.8243  -30.8902   21.9794 H   0  0  0  0  0  0
  -28.1036  -29.0832   21.1879 H   0  0  0  0  0  0
  -26.0751  -25.9599   19.0190 H   0  0  0  0  0  0
  -23.9868  -27.2869   19.0316 H   0  0  0  0  0  0
  -23.7281  -30.5900   19.3992 H   0  0  0  0  0  0
  -22.7431  -29.2368   19.8661 H   0  0  0  0  0  0
  -25.1287  -36.1997   25.0821 H   0  0  0  0  0  0
  -20.9944  -28.3246   24.1423 H   0  0  0  0  0  0
  -20.5619  -26.2297   23.3616 H   0  0  0  0  0  0
  -21.6617  -26.7416   22.1219 H   0  0  0  0  0  0
  -19.6876  -25.6302   21.1229 H   0  0  0  0  0  0
  -19.6655  -27.3207   20.6741 H   0  0  0  0  0  0
  -17.4164  -26.6676   21.4038 H   0  0  0  0  0  0
  -18.0305  -26.0072   22.9028 H   0  0  0  0  0  0
  -19.7930  -30.7266   24.2275 H   0  0  0  0  0  0
  -17.5012  -31.6267   24.5190 H   0  0  0  0  0  0
  -15.5348  -30.3008   23.7656 H   0  0  0  0  0  0
  -15.8650  -28.0855   22.7043 H   0  0  0  0  0  0
  -24.5947  -30.7038   25.7824 H   0  0  0  0  0  0
  -24.8975  -32.2848   26.4953 H   0  0  0  0  0  0
  -25.8135  -30.8852   27.0237 H   0  0  0  0  0  0
  -26.2857  -29.6820   24.1152 H   0  0  0  0  0  0
  -27.4068  -29.7274   25.4569 H   0  0  0  0  0  0
  -27.8711  -30.4342   23.9265 H   0  0  0  0  0  0
  -27.2688  -33.3627   26.2053 H   0  0  0  0  0  0
  -28.3855  -32.6917   25.0263 H   0  0  0  0  0  0
  -28.0774  -31.8459   26.5353 H   0  0  0  0  0  0
  -28.2607  -38.0105   24.7483 H   0  0  0  0  0  0
  -28.1050  -36.2637   24.6302 H   0  0  0  0  0  0
  -27.2279  -37.1509   25.8854 H   0  0  0  0  0  0
  -20.9317  -29.8811   21.6975 H   0  0  0  0  0  0
  -26.0188  -38.2892   24.1383 H   0  0  0  0  0  0
  -31.4347  -18.7940   19.8792 H   0  0  0  0  0  0
  -28.3328  -17.7348   22.6522 H   0  0  0  0  0  0
  -31.3397  -20.6983   18.5941 H   0  0  0  0  0  0
  -31.1064  -22.0706   19.6640 H   0  0  0  0  0  0
  -29.8499  -21.6142   18.4872 H   0  0  0  0  0  0
  -30.8509  -16.7363   22.6844 H   0  0  0  0  0  0
  -31.7167  -16.8646   21.1944 H   0  0  0  0  0  0
  -27.0002  -24.3864   20.5282 H   0  0  0  0  0  0
  -27.5129  -24.1184   22.1592 H   0  0  0  0  0  0
  -29.6154  -25.6579   21.4159 H   0  0  0  0  0  0
  -28.1690  -26.2822   22.1257 H   0  0  0  0  0  0
  -29.6928  -23.1497   21.3715 H   0  0  0  0  0  0
  -29.1165  -23.3500   19.7146 H   0  0  0  0  0  0
  -26.7647  -21.0170   22.5103 H   0  0  0  0  0  0
  -26.8035  -19.5295   23.3313 H   0  0  0  0  0  0
  -29.1307  -15.3443   21.5067 H   0  0  0  0  0  0
  1 25  1  0  0  0
  1 30  2  0  0  0
  1 83  1  0  0  0
  2  3  1  0  0  0
  2 25  1  0  0  0
  2 85  1  0  0  0
  2 86  1  0  0  0
  3  4  1  0  0  0
  3 87  1  0  0  0
  3 88  1  0  0  0
  4  5  1  0  0  0
  4 89  1  0  0  0
  4 90  1  0  0  0
  5  6  1  0  0  0
  5 26  1  0  0  0
  5 91  1  0  0  0
  6 25  1  0  0  0
  6 92  1  0  0  0
  6 93  1  0  0  0
  7  8  2  0  0  0
  7 26  1  0  0  0
  7 29  1  0  0  0
  8  9  1  0  0  0
  8 22  1  0  0  0
  9 10  1  0  0  0
  9 27  2  0  0  0
 10 11  2  0  0  0
 10 15  1  0  0  0
 11 12  1  0  0  0
 11 94  1  0  0  0
 12 13  2  0  0  0
 12 95  1  0  0  0
 13 14  1  0  0  0
 13 31  1  0  0  0
 14 15  2  0  0  0
 14 96  1  0  0  0
 15 97  1  0  0  0
 16 17  2  0  0  0
 16 21  1  0  0  0
 16 31  1  0  0  0
 17 18  1  0  0  0
 17 98  1  0  0  0
 18 19  2  0  0  0
 18 99  1  0  0  0
 19 20  1  0  0  0
 19 24  1  0  0  0
 20 21  2  0  0  0
 20100  1  0  0  0
 21 23  1  0  0  0
 22 28  1  0  0  0
 22 32  2  0  0  0
 26 27  1  0  0  0
 28101  1  0  0  0
 28102  1  0  0  0
 29103  1  0  0  0
 29104  1  0  0  0
 33 34  1  0  0  0
 33 66  1  0  0  0
 33 70  2  0  0  0
 34 36  1  0  0  0
 34 59  1  0  0  0
 34105  1  0  0  0
 35 44  2  0  0  0
 35 45  1  0  0  0
 35 68  1  0  0  0
 36 56  1  0  0  0
 36106  1  0  0  0
 37 39  1  0  0  0
 37 47  1  0  0  0
 37 66  1  0  0  0
 37107  1  0  0  0
 38 43  2  0  0  0
 38 46  1  0  0  0
 38 47  1  0  0  0
 39 64  1  0  0  0
 39 67  2  0  0  0
 40 52  1  0  0  0
 40 53  2  0  0  0
 40 58  1  0  0  0
 41108  1  0  0  0
 41109  1  0  0  0
 41110  1  0  0  0
 41 48  1  0  0  0
 42 43  1  0  0  0
 42 66  1  0  0  0
 42111  1  0  0  0
 42112  1  0  0  0
 43 44  1  0  0  0
 44113  1  0  0  0
 45 46  2  0  0  0
 45114  1  0  0  0
 46115  1  0  0  0
 47116  1  0  0  0
 47117  1  0  0  0
 48 56  1  0  0  0
 48 65  1  0  0  0
 48118  1  0  0  0
 49 50  1  0  0  0
 49 53  1  0  0  0
 49 64  1  0  0  0
 49119  1  0  0  0
 50 51  1  0  0  0
 50120  1  0  0  0
 50121  1  0  0  0
 51 52  1  0  0  0
 51122  1  0  0  0
 51123  1  0  0  0
 52124  1  0  0  0
 52125  1  0  0  0
 53 54  1  0  0  0
 54 55  2  0  0  0
 54126  1  0  0  0
 55 57  1  0  0  0
 55127  1  0  0  0
 56 69  2  0  0  0
 57 58  2  0  0  0
 57128  1  0  0  0
 58129  1  0  0  0
 59 60  1  0  0  0
 59 61  1  0  0  0
 59 62  1  0  0  0
 60130  1  0  0  0
 60131  1  0  0  0
 60132  1  0  0  0
 61133  1  0  0  0
 61134  1  0  0  0
 61135  1  0  0  0
 62136  1  0  0  0
 62137  1  0  0  0
 62138  1  0  0  0
 63 65  1  0  0  0
 63139  1  0  0  0
 63140  1  0  0  0
 63141  1  0  0  0
 64142  1  0  0  0
 65143  1  0  0  0
 68 80  1  0  0  0
 71 73  2  0  0  0
 71 74  1  0  0  0
 71144  1  0  0  0
 72 73  1  0  0  0
 72 75  2  0  0  0
 72145  1  0  0  0
 73 78  1  0  0  0
 74 76  2  0  0  0
 74 77  1  0  0  0
 75 76  1  0  0  0
 75 82  1  0  0  0
 76 84  1  0  0  0
 77146  1  0  0  0
 77147  1  0  0  0
 77148  1  0  0  0
 78 83  1  0  0  0
 78149  1  0  0  0
 78150  1  0  0  0
 79 80  1  0  0  0
 79 81  1  0  0  0
 79151  1  0  0  0
 79152  1  0  0  0
 80153  1  0  0  0
 80154  1  0  0  0
 81 84  1  0  0  0
 81155  1  0  0  0
 81156  1  0  0  0
 82157  1  0  0  0
 82158  1  0  0  0
 83159  1  0  0  0
M  ISO  4   1 100  68 101  80 101  83 100
M  END
> <chiral flag>
0

> <version>
0

> <s_m_source_file>
/data/baiqing/PycharmProjects/Reinvent-master-3.2/result/LINK_invent/BTK/process_docking_weight1_custom_product_contain_oxygen_bond_distance_aromatic_linkinvent_7_9_3/rearranged_h_0105.sdf

> <i_m_source_file_index>
80

> <r_mmod_Potential_Energy-OPLS-2005>
-108.067001342773

> <r_mmod_Stretch_Energy-OPLS-2005>
44.0062713623047

> <r_mmod_Bend_Energy-OPLS-2005>
116.890327453613

> <r_mmod_Torsional_Energy-OPLS-2005>
247.107070922852

> <r_mmod_Improper_Torsional_Energy-OPLS-2005>
5.90333318710327

> <r_mmod_Van_der_Waal_Energy-OPLS-2005>
149.513137817383

> <r_mmod_Electrostatic_Energy-OPLS-2005>
-469.732086181641

> <r_mmod_Solvation_Energy-OPLS-2005>
-217.820526123047

> <b_mmod_Minimization_Converged-OPLS-2005>
0

> <r_mmod_RMS_Derivative-OPLS-2005>
2.04946994781494

$$$$
80
                    3D
 Structure written by MMmdl.
157166  0  0  1  0            999 V2000
  -30.6629  -14.5705   20.5290 C   0  0  0  0  0  0
  -30.4361  -12.3506   19.4532 C   0  0  0  0  0  0
  -29.5105  -12.4857   18.2252 C   0  0  0  0  0  0
  -28.0302  -12.3397   18.6339 C   0  0  0  0  0  0
  -27.6570  -13.2104   19.8632 C   0  0  2  0  0  0
  -28.6986  -13.0465   20.9941 C   0  0  0  0  0  0
  -25.2570  -13.8157   20.5674 C   0  0  0  0  0  0
  -24.1826  -13.0426   20.9165 C   0  0  0  0  0  0
  -24.6387  -11.6893   20.8712 C   0  0  0  0  0  0
  -23.9058  -10.4276   21.0399 C   0  0  0  0  0  0
  -24.3602   -9.4193   21.9180 C   0  0  0  0  0  0
  -23.6278   -8.2236   22.0758 C   0  0  0  0  0  0
  -22.4263   -8.0274   21.3545 C   0  0  0  0  0  0
  -21.9891   -9.0254   20.4654 C   0  0  0  0  0  0
  -22.7225  -10.2128   20.3058 C   0  0  0  0  0  0
  -21.6844   -6.0733   22.5276 C   0  0  0  0  0  0
  -21.4019   -6.5637   23.8210 C   0  0  0  0  0  0
  -21.3660   -5.6788   24.9171 C   0  0  0  0  0  0
  -21.6041   -4.3054   24.7219 C   0  0  0  0  0  0
  -21.8820   -3.8144   23.4341 C   0  0  0  0  0  0
  -21.9181   -4.6960   22.3393 C   0  0  0  0  0  0
  -22.7845  -13.5225   21.1824 C   0  0  0  0  0  0
  -22.1651   -4.2148   21.0972 F   0  0  0  0  0  0
  -21.5620   -3.4539   25.7736 F   0  0  0  0  0  0
  -30.0246  -13.3663   20.4378 N   0  0  0  0  0  0
  -26.2998  -12.9334   20.3303 N   0  0  0  0  0  0
  -25.9306  -11.6485   20.5723 N   0  0  0  0  0  0
  -22.0473  -12.8257   22.0402 N   0  0  0  0  0  0
  -25.4258  -15.1889   20.4100 N   0  0  0  0  0  0
  -31.8131  -14.7280   20.1103 O   0  0  0  0  0  0
  -21.6622   -6.8880   21.4243 O   0  0  0  0  0  0
  -22.3521  -14.5515   20.6656 O   0  0  0  0  0  0
  -24.6217  -31.8653   23.2062 C   0  0  0  0  0  0
  -25.9082  -32.4811   23.8384 C   0  0  1  0  0  0
  -27.2315  -27.3809   20.0991 C   0  0  0  0  0  0
  -25.5907  -33.8613   24.2301 N   0  0  0  0  0  0
  -23.4128  -30.4894   21.5495 C   0  0  2  0  0  0
  -24.8565  -28.9501   20.1158 C   0  0  0  0  0  0
  -22.7455  -29.4652   22.4973 C   0  0  0  0  0  0
  -18.0285  -28.1383   22.8508 C   0  0  0  0  0  0
  -24.1479  -36.7315   23.2645 C   0  0  0  0  0  0
  -25.9499  -30.8119   21.3701 C   0  0  0  0  0  0
  -26.0238  -29.4458   20.7088 C   0  0  0  0  0  0
  -27.2148  -28.6746   20.6860 C   0  0  0  0  0  0
  -26.0356  -26.9107   19.5048 C   0  0  0  0  0  0
  -24.8597  -27.6841   19.5085 C   0  0  0  0  0  0
  -23.6226  -29.8246   20.1653 C   0  0  0  0  0  0
  -25.4107  -36.3112   24.0330 C   0  0  1  0  0  0
  -20.5881  -28.3681   23.1302 C   0  0  2  0  0  0
  -20.6767  -26.9407   22.5419 C   0  0  0  0  0  0
  -19.5740  -26.6390   21.5218 C   0  0  0  0  0  0
  -18.1921  -26.7933   22.1628 C   0  0  0  0  0  0
  -19.1535  -28.8847   23.2905 C   0  0  0  0  0  0
  -18.9460  -30.1451   23.8925 C   0  0  0  0  0  0
  -17.6460  -30.6587   24.0574 C   0  0  0  0  0  0
  -25.9044  -34.9475   23.5119 C   0  0  0  0  0  0
  -16.5354  -29.9093   23.6332 C   0  0  0  0  0  0
  -16.7272  -28.6501   23.0367 C   0  0  0  0  0  0
  -26.4475  -31.6633   25.0757 C   0  0  0  0  0  0
  -25.3720  -31.3782   26.1506 C   0  0  0  0  0  0
  -27.0340  -30.3062   24.6227 C   0  0  0  0  0  0
  -27.6052  -32.4380   25.7500 C   0  0  0  0  0  0
  -27.5579  -37.1810   24.8461 C   0  0  0  0  0  0
  -21.4169  -29.3039   22.3699 N   0  0  0  0  0  0
  -26.4297  -37.3797   23.9401 N   0  0  0  0  0  0
  -24.6798  -31.0710   22.0985 N   0  0  0  0  0  0
  -23.4192  -28.8201   23.3043 O   0  0  0  0  0  0
  -28.3893  -26.6096   20.1087 O   0  0  0  0  0  0
  -26.5625  -34.8933   22.4691 O   0  0  0  0  0  0
  -23.5387  -32.1446   23.7398 O   0  0  0  0  0  0
  -29.4889  -19.2432   21.9296 C   0  0  0  0  0  0
  -29.2807  -17.8446   21.7954 C   0  0  0  0  0  0
  -31.1183  -17.7129   20.2326 C   0  0  0  0  0  0
  -30.5393  -19.8975   21.2433 C   0  0  0  0  0  0
  -30.1219  -17.0388   20.9862 C   0  0  0  0  0  0
  -31.3308  -19.1129   20.3652 C   0  0  0  0  0  0
  -29.6150  -22.8614   20.4702 C   0  0  0  0  0  0
  -31.0456  -21.2504   21.7227 C   0  0  0  0  0  0
  -30.4493  -24.9026   21.4218 C   0  0  0  0  0  0
  -31.2464  -23.6824   21.8861 C   0  0  0  0  0  0
  -29.6179  -24.4046   20.2482 C   0  0  2  0  0  0
  -28.2522  -25.1560   20.1209 C   0  0  0  0  0  0
  -30.5817  -22.4863   21.3434 N   0  0  0  0  0  0
  -29.8991  -15.6049   20.9744 N   0  0  0  0  0  0
  -28.8381  -22.1118   19.8725 O   0  0  0  0  0  0
  -31.9714  -21.1823   22.5434 O   0  0  0  0  0  0
  -32.3580  -19.6810   19.6880 F   0  0  0  0  0  0
  -31.4806  -12.4589   19.1563 H   0  0  0  0  0  0
  -30.3564  -11.3539   19.8910 H   0  0  0  0  0  0
  -29.7692  -11.7320   17.4812 H   0  0  0  0  0  0
  -29.6690  -13.4504   17.7423 H   0  0  0  0  0  0
  -27.8579  -11.2882   18.8664 H   0  0  0  0  0  0
  -27.3802  -12.5726   17.7895 H   0  0  0  0  0  0
  -27.6853  -14.2461   19.5235 H   0  0  0  0  0  0
  -28.6924  -12.0222   21.3705 H   0  0  0  0  0  0
  -28.4477  -13.6756   21.8505 H   0  0  0  0  0  0
  -25.2756   -9.5669   22.4745 H   0  0  0  0  0  0
  -23.9984   -7.4629   22.7481 H   0  0  0  0  0  0
  -21.0815   -8.8783   19.8964 H   0  0  0  0  0  0
  -22.3692  -10.9668   19.6166 H   0  0  0  0  0  0
  -21.2037   -7.6148   23.9727 H   0  0  0  0  0  0
  -21.1475   -6.0510   25.9076 H   0  0  0  0  0  0
  -22.0597   -2.7607   23.2832 H   0  0  0  0  0  0
  -22.4068  -11.9948   22.4853 H   0  0  0  0  0  0
  -21.1089  -13.1322   22.2579 H   0  0  0  0  0  0
  -24.6558  -15.8400   20.5184 H   0  0  0  0  0  0
  -26.2709  -15.6335   20.0750 H   0  0  0  0  0  0
  -26.7161  -32.5492   23.1147 H   0  0  0  0  0  0
  -25.0019  -33.9759   25.0422 H   0  0  0  0  0  0
  -22.7053  -31.3093   21.4085 H   0  0  0  0  0  0
  -23.3734  -35.9657   23.3329 H   0  0  0  0  0  0
  -24.3571  -36.8923   22.2056 H   0  0  0  0  0  0
  -23.7230  -37.6520   23.6659 H   0  0  0  0  0  0
  -26.0844  -31.5805   20.6078 H   0  0  0  0  0  0
  -26.8284  -30.8521   22.0029 H   0  0  0  0  0  0
  -28.1191  -29.0590   21.1379 H   0  0  0  0  0  0
  -25.9859  -25.9447   19.0284 H   0  0  0  0  0  0
  -23.9618  -27.2938   19.0483 H   0  0  0  0  0  0
  -23.7394  -30.6012   19.4089 H   0  0  0  0  0  0
  -22.7432  -29.2530   19.8634 H   0  0  0  0  0  0
  -25.1274  -36.1990   25.0824 H   0  0  0  0  0  0
  -20.9989  -28.3257   24.1418 H   0  0  0  0  0  0
  -20.5675  -26.2288   23.3617 H   0  0  0  0  0  0
  -21.6637  -26.7450   22.1203 H   0  0  0  0  0  0
  -19.6897  -25.6307   21.1231 H   0  0  0  0  0  0
  -19.6662  -27.3215   20.6759 H   0  0  0  0  0  0
  -17.4192  -26.6714   21.4025 H   0  0  0  0  0  0
  -18.0300  -26.0061   22.9002 H   0  0  0  0  0  0
  -19.7937  -30.7257   24.2306 H   0  0  0  0  0  0
  -17.5017  -31.6266   24.5174 H   0  0  0  0  0  0
  -15.5352  -30.2998   23.7635 H   0  0  0  0  0  0
  -15.8676  -28.0812   22.7088 H   0  0  0  0  0  0
  -24.5829  -30.7211   25.7831 H   0  0  0  0  0  0
  -24.8980  -32.2961   26.5000 H   0  0  0  0  0  0
  -25.8031  -30.8889   27.0251 H   0  0  0  0  0  0
  -26.2934  -29.6794   24.1247 H   0  0  0  0  0  0
  -27.4034  -29.7342   25.4752 H   0  0  0  0  0  0
  -27.8797  -30.4353   23.9470 H   0  0  0  0  0  0
  -27.2666  -33.3655   26.2137 H   0  0  0  0  0  0
  -28.3813  -32.7010   25.0296 H   0  0  0  0  0  0
  -28.0805  -31.8502   26.5366 H   0  0  0  0  0  0
  -28.2615  -38.0090   24.7509 H   0  0  0  0  0  0
  -28.1058  -36.2627   24.6286 H   0  0  0  0  0  0
  -27.2312  -37.1473   25.8871 H   0  0  0  0  0  0
  -20.9348  -29.8767   21.6911 H   0  0  0  0  0  0
  -26.0187  -38.2882   24.1387 H   0  0  0  0  0  0
  -28.8934  -19.7958   22.6427 H   0  0  0  0  0  0
  -28.4932  -17.3841   22.3776 H   0  0  0  0  0  0
  -31.7739  -17.1675   19.5707 H   0  0  0  0  0  0
  -31.0992  -25.7309   21.1372 H   0  0  0  0  0  0
  -29.8031  -25.2588   22.2256 H   0  0  0  0  0  0
  -31.3042  -23.6582   22.9762 H   0  0  0  0  0  0
  -32.2672  -23.7352   21.5016 H   0  0  0  0  0  0
  -30.1828  -24.5691   19.3301 H   0  0  0  0  0  0
  -27.5904  -24.8662   20.9406 H   0  0  0  0  0  0
  -27.7851  -24.8151   19.1971 H   0  0  0  0  0  0
  -29.0083  -15.3080   21.3418 H   0  0  0  0  0  0
  1 25  1  0  0  0
  1 30  2  0  0  0
  1 84  1  0  0  0
  2  3  1  0  0  0
  2 25  1  0  0  0
  2 88  1  0  0  0
  2 89  1  0  0  0
  3  4  1  0  0  0
  3 90  1  0  0  0
  3 91  1  0  0  0
  4  5  1  0  0  0
  4 92  1  0  0  0
  4 93  1  0  0  0
  5  6  1  0  0  0
  5 26  1  0  0  0
  5 94  1  0  0  0
  6 25  1  0  0  0
  6 95  1  0  0  0
  6 96  1  0  0  0
  7  8  2  0  0  0
  7 26  1  0  0  0
  7 29  1  0  0  0
  8  9  1  0  0  0
  8 22  1  0  0  0
  9 10  1  0  0  0
  9 27  2  0  0  0
 10 11  2  0  0  0
 10 15  1  0  0  0
 11 12  1  0  0  0
 11 97  1  0  0  0
 12 13  2  0  0  0
 12 98  1  0  0  0
 13 14  1  0  0  0
 13 31  1  0  0  0
 14 15  2  0  0  0
 14 99  1  0  0  0
 15100  1  0  0  0
 16 17  2  0  0  0
 16 21  1  0  0  0
 16 31  1  0  0  0
 17 18  1  0  0  0
 17101  1  0  0  0
 18 19  2  0  0  0
 18102  1  0  0  0
 19 20  1  0  0  0
 19 24  1  0  0  0
 20 21  2  0  0  0
 20103  1  0  0  0
 21 23  1  0  0  0
 22 28  1  0  0  0
 22 32  2  0  0  0
 26 27  1  0  0  0
 28104  1  0  0  0
 28105  1  0  0  0
 29106  1  0  0  0
 29107  1  0  0  0
 33 34  1  0  0  0
 33 66  1  0  0  0
 33 70  2  0  0  0
 34 36  1  0  0  0
 34 59  1  0  0  0
 34108  1  0  0  0
 35 44  2  0  0  0
 35 45  1  0  0  0
 35 68  1  0  0  0
 36 56  1  0  0  0
 36109  1  0  0  0
 37 39  1  0  0  0
 37 47  1  0  0  0
 37 66  1  0  0  0
 37110  1  0  0  0
 38 43  2  0  0  0
 38 46  1  0  0  0
 38 47  1  0  0  0
 39 64  1  0  0  0
 39 67  2  0  0  0
 40 52  1  0  0  0
 40 53  2  0  0  0
 40 58  1  0  0  0
 41111  1  0  0  0
 41112  1  0  0  0
 41113  1  0  0  0
 41 48  1  0  0  0
 42 43  1  0  0  0
 42 66  1  0  0  0
 42114  1  0  0  0
 42115  1  0  0  0
 43 44  1  0  0  0
 44116  1  0  0  0
 45 46  2  0  0  0
 45117  1  0  0  0
 46118  1  0  0  0
 47119  1  0  0  0
 47120  1  0  0  0
 48 56  1  0  0  0
 48 65  1  0  0  0
 48121  1  0  0  0
 49 50  1  0  0  0
 49 53  1  0  0  0
 49 64  1  0  0  0
 49122  1  0  0  0
 50 51  1  0  0  0
 50123  1  0  0  0
 50124  1  0  0  0
 51 52  1  0  0  0
 51125  1  0  0  0
 51126  1  0  0  0
 52127  1  0  0  0
 52128  1  0  0  0
 53 54  1  0  0  0
 54 55  2  0  0  0
 54129  1  0  0  0
 55 57  1  0  0  0
 55130  1  0  0  0
 56 69  2  0  0  0
 57 58  2  0  0  0
 57131  1  0  0  0
 58132  1  0  0  0
 59 60  1  0  0  0
 59 61  1  0  0  0
 59 62  1  0  0  0
 60133  1  0  0  0
 60134  1  0  0  0
 60135  1  0  0  0
 61136  1  0  0  0
 61137  1  0  0  0
 61138  1  0  0  0
 62139  1  0  0  0
 62140  1  0  0  0
 62141  1  0  0  0
 63 65  1  0  0  0
 63142  1  0  0  0
 63143  1  0  0  0
 63144  1  0  0  0
 64145  1  0  0  0
 65146  1  0  0  0
 68 82  1  0  0  0
 71 72  2  0  0  0
 71 74  1  0  0  0
 71147  1  0  0  0
 72 75  1  0  0  0
 72148  1  0  0  0
 73 75  2  0  0  0
 73 76  1  0  0  0
 73149  1  0  0  0
 74 76  2  0  0  0
 74 78  1  0  0  0
 75 84  1  0  0  0
 76 87  1  0  0  0
 77 81  1  0  0  0
 77 83  1  0  0  0
 77 85  2  0  0  0
 78 83  1  0  0  0
 78 86  2  0  0  0
 79 80  1  0  0  0
 79 81  1  0  0  0
 79150  1  0  0  0
 79151  1  0  0  0
 80 83  1  0  0  0
 80152  1  0  0  0
 80153  1  0  0  0
 81 82  1  0  0  0
 81154  1  0  0  0
 82155  1  0  0  0
 82156  1  0  0  0
 84157  1  0  0  0
M  ISO  4   1 100  68 101  82 101  84 100
M  END
> <chiral flag>
0

> <version>
0

> <s_m_source_file>
/data/baiqing/PycharmProjects/Reinvent-master-3.2/result/LINK_invent/BTK/process_docking_weight1_custom_product_contain_oxygen_bond_distance_aromatic_linkinvent_7_9_3/rearranged_h_0105.sdf

> <i_m_source_file_index>
81

> <r_mmod_Potential_Energy-OPLS-2005>
102.366188049316

> <r_mmod_Stretch_Energy-OPLS-2005>
55.3138313293457

> <r_mmod_Bend_Energy-OPLS-2005>
165.281585693359

> <r_mmod_Torsional_Energy-OPLS-2005>
284.762573242188

> <r_mmod_Improper_Torsional_Energy-OPLS-2005>
6.74298810958862

> <r_mmod_Van_der_Waal_Energy-OPLS-2005>
149.272369384766

> <r_mmod_Electrostatic_Energy-OPLS-2005>
-364.840515136719

> <r_mmod_Solvation_Energy-OPLS-2005>
-221.153991699219

> <b_mmod_Minimization_Converged-OPLS-2005>
0

> <r_mmod_RMS_Derivative-OPLS-2005>
2.38823199272156

$$$$
81
                    3D
 Structure written by MMmdl.
155163  0  0  1  0            999 V2000
  -30.5498  -14.9164   20.3307 C   0  0  0  0  0  0
  -30.4483  -12.5455   19.4735 C   0  0  0  0  0  0
  -29.5163  -12.4616   18.2426 C   0  0  0  0  0  0
  -28.0459  -12.2734   18.6684 C   0  0  0  0  0  0
  -27.6209  -13.2220   19.8196 C   0  0  2  0  0  0
  -28.6776  -13.2806   20.9409 C   0  0  0  0  0  0
  -25.2483  -13.8079   20.5786 C   0  0  0  0  0  0
  -24.1765  -13.0353   20.9243 C   0  0  0  0  0  0
  -24.6359  -11.6840   20.8763 C   0  0  0  0  0  0
  -23.9039  -10.4242   21.0419 C   0  0  0  0  0  0
  -24.3594   -9.4162   21.9198 C   0  0  0  0  0  0
  -23.6266   -8.2205   22.0764 C   0  0  0  0  0  0
  -22.4251   -8.0256   21.3548 C   0  0  0  0  0  0
  -21.9882   -9.0224   20.4650 C   0  0  0  0  0  0
  -22.7213  -10.2097   20.3064 C   0  0  0  0  0  0
  -21.6837   -6.0717   22.5277 C   0  0  0  0  0  0
  -21.3996   -6.5622   23.8206 C   0  0  0  0  0  0
  -21.3658   -5.6781   24.9170 C   0  0  0  0  0  0
  -21.6049   -4.3047   24.7228 C   0  0  0  0  0  0
  -21.8821   -3.8136   23.4349 C   0  0  0  0  0  0
  -21.9190   -4.6946   22.3404 C   0  0  0  0  0  0
  -22.7798  -13.5169   21.1894 C   0  0  0  0  0  0
  -22.1664   -4.2131   21.0983 F   0  0  0  0  0  0
  -21.5631   -3.4538   25.7747 F   0  0  0  0  0  0
  -29.9602  -13.6549   20.3284 N   0  0  0  0  0  0
  -26.2867  -12.9280   20.3238 N   0  0  0  0  0  0
  -25.9283  -11.6439   20.5751 N   0  0  0  0  0  0
  -22.0429  -12.8175   22.0442 N   0  0  0  0  0  0
  -25.4145  -15.1794   20.4372 N   0  0  0  0  0  0
  -31.7835  -14.9757   20.2958 O   0  0  0  0  0  0
  -21.6614   -6.8856   21.4238 O   0  0  0  0  0  0
  -22.3517  -14.5498   20.6751 O   0  0  0  0  0  0
  -24.6415  -31.8477   23.1930 C   0  0  0  0  0  0
  -25.9200  -32.4716   23.8305 C   0  0  1  0  0  0
  -27.2158  -27.1750   20.1378 C   0  0  0  0  0  0
  -25.5962  -33.8522   24.2217 N   0  0  0  0  0  0
  -23.4425  -30.4697   21.5394 C   0  0  2  0  0  0
  -24.8910  -28.9062   20.1120 C   0  0  0  0  0  0
  -22.7558  -29.4562   22.4885 C   0  0  0  0  0  0
  -18.0296  -28.1398   22.8483 C   0  0  0  0  0  0
  -24.1477  -36.7245   23.2639 C   0  0  0  0  0  0
  -25.9974  -30.7320   21.3884 C   0  0  0  0  0  0
  -26.0686  -29.3475   20.7299 C   0  0  0  0  0  0
  -27.2344  -28.4972   20.7288 C   0  0  0  0  0  0
  -26.0182  -26.8391   19.4675 C   0  0  0  0  0  0
  -24.8760  -27.6630   19.4668 C   0  0  0  0  0  0
  -23.6669  -29.8047   20.1571 C   0  0  0  0  0  0
  -25.4110  -36.3042   24.0317 C   0  0  1  0  0  0
  -20.5915  -28.3715   23.1239 C   0  0  2  0  0  0
  -20.6781  -26.9422   22.5399 C   0  0  0  0  0  0
  -19.5754  -26.6387   21.5210 C   0  0  0  0  0  0
  -18.1930  -26.7936   22.1621 C   0  0  0  0  0  0
  -19.1560  -28.8873   23.2849 C   0  0  0  0  0  0
  -18.9477  -30.1470   23.8876 C   0  0  0  0  0  0
  -17.6473  -30.6598   24.0562 C   0  0  0  0  0  0
  -25.9071  -34.9418   23.5069 C   0  0  0  0  0  0
  -16.5364  -29.9092   23.6343 C   0  0  0  0  0  0
  -16.7281  -28.6511   23.0365 C   0  0  0  0  0  0
  -26.4530  -31.6583   25.0737 C   0  0  0  0  0  0
  -25.3724  -31.3748   26.1437 C   0  0  0  0  0  0
  -27.0405  -30.2988   24.6295 C   0  0  0  0  0  0
  -27.6072  -32.4349   25.7511 C   0  0  0  0  0  0
  -27.5568  -37.1767   24.8464 C   0  0  0  0  0  0
  -21.4255  -29.3044   22.3615 N   0  0  0  0  0  0
  -26.4268  -37.3760   23.9428 N   0  0  0  0  0  0
  -24.7135  -31.0369   22.0949 N   0  0  0  0  0  0
  -23.4211  -28.8098   23.3019 O   0  0  0  0  0  0
  -28.2648  -26.1955   20.1757 O   0  0  0  0  0  0
  -26.5656  -34.8910   22.4647 O   0  0  0  0  0  0
  -23.5540  -32.1340   23.7163 O   0  0  0  0  0  0
  -30.1911  -20.1830   20.3776 C   0  0  0  0  0  0
  -27.9085  -19.7081   20.1080 C   0  0  0  0  0  0
  -29.5034  -17.7144   20.0738 C   0  0  0  0  0  0
  -30.4958  -18.7517   20.2804 C   0  0  0  0  0  0
  -28.8706  -20.7403   20.2882 C   0  0  0  0  0  0
  -28.1841  -18.2941   19.9713 C   0  0  0  0  0  0
  -28.8100  -23.3792   20.2431 C   0  0  0  0  0  0
  -29.7134  -16.1640   19.6490 C   0  0  0  0  0  0
  -31.9583  -18.3467   20.3309 C   0  0  0  0  0  0
  -26.0679  -17.9385   18.8897 C   0  0  0  0  0  0
  -27.8970  -24.7312   20.5019 C   0  0  0  0  0  0
  -29.1945  -15.8836   18.5253 N   0  0  0  0  0  0
  -28.3602  -22.1322   20.4263 N   0  0  0  0  0  0
  -27.1395  -17.4364   19.6890 O   0  0  0  0  0  0
  -31.4771  -12.7102   19.1500 H   0  0  0  0  0  0
  -30.4506  -11.6058   20.0274 H   0  0  0  0  0  0
  -29.8243  -11.6348   17.6012 H   0  0  0  0  0  0
  -29.6145  -13.3646   17.6400 H   0  0  0  0  0  0
  -27.9335  -11.2371   18.9900 H   0  0  0  0  0  0
  -27.3834  -12.3948   17.8100 H   0  0  0  0  0  0
  -27.5469  -14.2073   19.3712 H   0  0  0  0  0  0
  -28.7586  -12.3214   21.4529 H   0  0  0  0  0  0
  -28.3945  -14.0174   21.6943 H   0  0  0  0  0  0
  -25.2746   -9.5623   22.4767 H   0  0  0  0  0  0
  -23.9966   -7.4585   22.7485 H   0  0  0  0  0  0
  -21.0810   -8.8746   19.8954 H   0  0  0  0  0  0
  -22.3690  -10.9638   19.6168 H   0  0  0  0  0  0
  -21.1972   -7.6128   23.9702 H   0  0  0  0  0  0
  -21.1480   -6.0514   25.9069 H   0  0  0  0  0  0
  -22.0602   -2.7601   23.2857 H   0  0  0  0  0  0
  -22.4025  -11.9819   22.4815 H   0  0  0  0  0  0
  -21.1057  -13.1226   22.2669 H   0  0  0  0  0  0
  -24.6489  -15.8250   20.5873 H   0  0  0  0  0  0
  -26.2670  -15.6458   20.1421 H   0  0  0  0  0  0
  -26.7268  -32.5335   23.1040 H   0  0  0  0  0  0
  -25.0108  -33.9645   25.0365 H   0  0  0  0  0  0
  -22.7430  -31.2945   21.3884 H   0  0  0  0  0  0
  -23.3753  -35.9560   23.3303 H   0  0  0  0  0  0
  -24.3558  -36.8879   22.2053 H   0  0  0  0  0  0
  -23.7212  -37.6431   23.6680 H   0  0  0  0  0  0
  -26.1499  -31.4868   20.6160 H   0  0  0  0  0  0
  -26.8692  -30.7808   22.0292 H   0  0  0  0  0  0
  -28.1323  -28.8306   21.2300 H   0  0  0  0  0  0
  -25.9363  -25.9069   18.9303 H   0  0  0  0  0  0
  -23.9818  -27.3263   18.9604 H   0  0  0  0  0  0
  -23.8002  -30.5819   19.4036 H   0  0  0  0  0  0
  -22.7824  -29.2462   19.8465 H   0  0  0  0  0  0
  -25.1283  -36.1869   25.0805 H   0  0  0  0  0  0
  -20.9992  -28.3305   24.1367 H   0  0  0  0  0  0
  -20.5680  -26.2325   23.3613 H   0  0  0  0  0  0
  -21.6643  -26.7432   22.1191 H   0  0  0  0  0  0
  -19.6911  -25.6292   21.1251 H   0  0  0  0  0  0
  -19.6696  -27.3183   20.6727 H   0  0  0  0  0  0
  -17.4196  -26.6688   21.4028 H   0  0  0  0  0  0
  -18.0330  -26.0079   22.9019 H   0  0  0  0  0  0
  -19.7956  -30.7289   24.2247 H   0  0  0  0  0  0
  -17.5032  -31.6280   24.5163 H   0  0  0  0  0  0
  -15.5367  -30.2987   23.7691 H   0  0  0  0  0  0
  -15.8681  -28.0825   22.7100 H   0  0  0  0  0  0
  -24.5909  -30.7092   25.7756 H   0  0  0  0  0  0
  -24.8897  -32.2916   26.4833 H   0  0  0  0  0  0
  -25.8004  -30.8946   27.0243 H   0  0  0  0  0  0
  -26.3019  -29.6707   24.1298 H   0  0  0  0  0  0
  -27.4041  -29.7291   25.4858 H   0  0  0  0  0  0
  -27.8916  -30.4254   23.9598 H   0  0  0  0  0  0
  -27.2686  -33.3688   26.2016 H   0  0  0  0  0  0
  -28.3910  -32.6853   25.0350 H   0  0  0  0  0  0
  -28.0709  -31.8524   26.5484 H   0  0  0  0  0  0
  -28.2557  -38.0093   24.7558 H   0  0  0  0  0  0
  -28.1092  -36.2625   24.6229 H   0  0  0  0  0  0
  -27.2296  -37.1342   25.8868 H   0  0  0  0  0  0
  -20.9468  -29.8769   21.6806 H   0  0  0  0  0  0
  -26.0131  -38.2813   24.1494 H   0  0  0  0  0  0
  -31.0110  -20.8721   20.5253 H   0  0  0  0  0  0
  -26.8815  -20.0385   20.0537 H   0  0  0  0  0  0
  -29.8291  -23.5774   19.9018 H   0  0  0  0  0  0
  -32.6087  -19.2067   20.4925 H   0  0  0  0  0  0
  -32.2582  -17.8780   19.3926 H   0  0  0  0  0  0
  -32.1353  -17.6397   21.1416 H   0  0  0  0  0  0
  -25.5693  -17.1108   18.3852 H   0  0  0  0  0  0
  -26.4102  -18.6219   18.1102 H   0  0  0  0  0  0
  -25.3211  -18.4432   19.5033 H   0  0  0  0  0  0
  -27.6939  -24.7405   21.5724 H   0  0  0  0  0  0
  -26.9332  -24.4873   20.0640 H   0  0  0  0  0  0
  -28.7127  -16.6893   18.1460 H   0  0  0  0  0  0
  1 25  1  0  0  0
  1 30  2  0  0  0
  1 78  1  0  0  0
  2  3  1  0  0  0
  2 25  1  0  0  0
  2 85  1  0  0  0
  2 86  1  0  0  0
  3  4  1  0  0  0
  3 87  1  0  0  0
  3 88  1  0  0  0
  4  5  1  0  0  0
  4 89  1  0  0  0
  4 90  1  0  0  0
  5  6  1  0  0  0
  5 26  1  0  0  0
  5 91  1  0  0  0
  6 25  1  0  0  0
  6 92  1  0  0  0
  6 93  1  0  0  0
  7  8  2  0  0  0
  7 26  1  0  0  0
  7 29  1  0  0  0
  8  9  1  0  0  0
  8 22  1  0  0  0
  9 10  1  0  0  0
  9 27  2  0  0  0
 10 11  2  0  0  0
 10 15  1  0  0  0
 11 12  1  0  0  0
 11 94  1  0  0  0
 12 13  2  0  0  0
 12 95  1  0  0  0
 13 14  1  0  0  0
 13 31  1  0  0  0
 14 15  2  0  0  0
 14 96  1  0  0  0
 15 97  1  0  0  0
 16 17  2  0  0  0
 16 21  1  0  0  0
 16 31  1  0  0  0
 17 18  1  0  0  0
 17 98  1  0  0  0
 18 19  2  0  0  0
 18 99  1  0  0  0
 19 20  1  0  0  0
 19 24  1  0  0  0
 20 21  2  0  0  0
 20100  1  0  0  0
 21 23  1  0  0  0
 22 28  1  0  0  0
 22 32  2  0  0  0
 26 27  1  0  0  0
 28101  1  0  0  0
 28102  1  0  0  0
 29103  1  0  0  0
 29104  1  0  0  0
 33 34  1  0  0  0
 33 66  1  0  0  0
 33 70  2  0  0  0
 34 36  1  0  0  0
 34 59  1  0  0  0
 34105  1  0  0  0
 35 44  2  0  0  0
 35 45  1  0  0  0
 35 68  1  0  0  0
 36 56  1  0  0  0
 36106  1  0  0  0
 37 39  1  0  0  0
 37 47  1  0  0  0
 37 66  1  0  0  0
 37107  1  0  0  0
 38 43  2  0  0  0
 38 46  1  0  0  0
 38 47  1  0  0  0
 39 64  1  0  0  0
 39 67  2  0  0  0
 40 52  1  0  0  0
 40 53  2  0  0  0
 40 58  1  0  0  0
 41108  1  0  0  0
 41109  1  0  0  0
 41110  1  0  0  0
 41 48  1  0  0  0
 42 43  1  0  0  0
 42 66  1  0  0  0
 42111  1  0  0  0
 42112  1  0  0  0
 43 44  1  0  0  0
 44113  1  0  0  0
 45 46  2  0  0  0
 45114  1  0  0  0
 46115  1  0  0  0
 47116  1  0  0  0
 47117  1  0  0  0
 48 56  1  0  0  0
 48 65  1  0  0  0
 48118  1  0  0  0
 49 50  1  0  0  0
 49 53  1  0  0  0
 49 64  1  0  0  0
 49119  1  0  0  0
 50 51  1  0  0  0
 50120  1  0  0  0
 50121  1  0  0  0
 51 52  1  0  0  0
 51122  1  0  0  0
 51123  1  0  0  0
 52124  1  0  0  0
 52125  1  0  0  0
 53 54  1  0  0  0
 54 55  2  0  0  0
 54126  1  0  0  0
 55 57  1  0  0  0
 55127  1  0  0  0
 56 69  2  0  0  0
 57 58  2  0  0  0
 57128  1  0  0  0
 58129  1  0  0  0
 59 60  1  0  0  0
 59 61  1  0  0  0
 59 62  1  0  0  0
 60130  1  0  0  0
 60131  1  0  0  0
 60132  1  0  0  0
 61133  1  0  0  0
 61134  1  0  0  0
 61135  1  0  0  0
 62136  1  0  0  0
 62137  1  0  0  0
 62138  1  0  0  0
 63 65  1  0  0  0
 63139  1  0  0  0
 63140  1  0  0  0
 63141  1  0  0  0
 64142  1  0  0  0
 65143  1  0  0  0
 68 81  1  0  0  0
 71 74  2  0  0  0
 71 75  1  0  0  0
 71144  1  0  0  0
 72 75  2  0  0  0
 72 76  1  0  0  0
 72145  1  0  0  0
 73 74  1  0  0  0
 73 76  2  0  0  0
 73 78  1  0  0  0
 74 79  1  0  0  0
 75 83  1  0  0  0
 76 84  1  0  0  0
 77 81  1  0  0  0
 77 83  2  0  0  0
 77146  1  0  0  0
 78 82  2  0  0  0
 79147  1  0  0  0
 79148  1  0  0  0
 79149  1  0  0  0
 80 84  1  0  0  0
 80150  1  0  0  0
 80151  1  0  0  0
 80152  1  0  0  0
 81153  1  0  0  0
 81154  1  0  0  0
 82155  1  0  0  0
M  ISO  4   1 100  68 101  78 100  81 101
M  END
> <chiral flag>
0

> <version>
0

> <s_m_source_file>
/data/baiqing/PycharmProjects/Reinvent-master-3.2/result/LINK_invent/BTK/process_docking_weight1_custom_product_contain_oxygen_bond_distance_aromatic_linkinvent_7_9_3/rearranged_h_0105.sdf

> <i_m_source_file_index>
82

> <r_mmod_Potential_Energy-OPLS-2005>
747.192016601562

> <r_mmod_Stretch_Energy-OPLS-2005>
221.287322998047

> <r_mmod_Bend_Energy-OPLS-2005>
291.9052734375

> <r_mmod_Torsional_Energy-OPLS-2005>
276.720886230469

> <r_mmod_Improper_Torsional_Energy-OPLS-2005>
26.3545951843262

> <r_mmod_Van_der_Waal_Energy-OPLS-2005>
145.645263671875

> <r_mmod_Electrostatic_Energy-OPLS-2005>
-198.706832885742

> <r_mmod_Solvation_Energy-OPLS-2005>
-194.481201171875

> <b_mmod_Minimization_Converged-OPLS-2005>
0

> <r_mmod_RMS_Derivative-OPLS-2005>
1.37640476226807

$$$$
82
                    3D
 Structure written by MMmdl.
163172  0  0  1  0            999 V2000
  -30.5477  -14.9452   20.3675 C   0  0  0  0  0  0
  -30.4497  -12.5701   19.4845 C   0  0  0  0  0  0
  -29.5249  -12.4374   18.2518 C   0  0  0  0  0  0
  -28.0454  -12.2908   18.6703 C   0  0  0  0  0  0
  -27.6254  -13.2301   19.8344 C   0  0  2  0  0  0
  -28.6819  -13.2720   20.9535 C   0  0  0  0  0  0
  -25.2490  -13.8171   20.5741 C   0  0  0  0  0  0
  -24.1785  -13.0435   20.9273 C   0  0  0  0  0  0
  -24.6369  -11.6909   20.8815 C   0  0  0  0  0  0
  -23.9043  -10.4292   21.0442 C   0  0  0  0  0  0
  -24.3599   -9.4201   21.9206 C   0  0  0  0  0  0
  -23.6279   -8.2233   22.0755 C   0  0  0  0  0  0
  -22.4265   -8.0276   21.3541 C   0  0  0  0  0  0
  -21.9902   -9.0254   20.4647 C   0  0  0  0  0  0
  -22.7226  -10.2137   20.3074 C   0  0  0  0  0  0
  -21.6848   -6.0731   22.5275 C   0  0  0  0  0  0
  -21.4012   -6.5636   23.8211 C   0  0  0  0  0  0
  -21.3662   -5.6787   24.9173 C   0  0  0  0  0  0
  -21.6038   -4.3049   24.7218 C   0  0  0  0  0  0
  -21.8820   -3.8143   23.4341 C   0  0  0  0  0  0
  -21.9194   -4.6960   22.3399 C   0  0  0  0  0  0
  -22.7807  -13.5236   21.1884 C   0  0  0  0  0  0
  -22.1664   -4.2147   21.0976 F   0  0  0  0  0  0
  -21.5626   -3.4534   25.7730 F   0  0  0  0  0  0
  -29.9424  -13.6883   20.3241 N   0  0  0  0  0  0
  -26.2887  -12.9347   20.3316 N   0  0  0  0  0  0
  -25.9301  -11.6509   20.5842 N   0  0  0  0  0  0
  -22.0422  -12.8248   22.0428 N   0  0  0  0  0  0
  -25.4175  -15.1891   20.4075 N   0  0  0  0  0  0
  -31.7809  -14.9722   20.2773 O   0  0  0  0  0  0
  -21.6635   -6.8871   21.4234 O   0  0  0  0  0  0
  -22.3507  -14.5530   20.6696 O   0  0  0  0  0  0
  -24.6403  -31.8473   23.1896 C   0  0  0  0  0  0
  -25.9181  -32.4718   23.8278 C   0  0  1  0  0  0
  -27.2161  -27.1618   20.1522 C   0  0  0  0  0  0
  -25.5934  -33.8520   24.2202 N   0  0  0  0  0  0
  -23.4422  -30.4665   21.5367 C   0  0  2  0  0  0
  -24.8903  -28.8961   20.1145 C   0  0  0  0  0  0
  -22.7549  -29.4558   22.4885 C   0  0  0  0  0  0
  -18.0297  -28.1395   22.8478 C   0  0  0  0  0  0
  -24.1488  -36.7267   23.2641 C   0  0  0  0  0  0
  -25.9957  -30.7314   21.3814 C   0  0  0  0  0  0
  -26.0679  -29.3433   20.7270 C   0  0  0  0  0  0
  -27.2343  -28.4929   20.7256 C   0  0  0  0  0  0
  -26.0122  -26.8108   19.5024 C   0  0  0  0  0  0
  -24.8735  -27.6425   19.4874 C   0  0  0  0  0  0
  -23.6660  -29.7950   20.1564 C   0  0  0  0  0  0
  -25.4121  -36.3051   24.0318 C   0  0  1  0  0  0
  -20.5909  -28.3714   23.1252 C   0  0  2  0  0  0
  -20.6785  -26.9421   22.5410 C   0  0  0  0  0  0
  -19.5759  -26.6380   21.5218 C   0  0  0  0  0  0
  -18.1939  -26.7932   22.1627 C   0  0  0  0  0  0
  -19.1552  -28.8872   23.2858 C   0  0  0  0  0  0
  -18.9471  -30.1469   23.8880 C   0  0  0  0  0  0
  -17.6470  -30.6594   24.0557 C   0  0  0  0  0  0
  -25.9069  -34.9423   23.5072 C   0  0  0  0  0  0
  -16.5360  -29.9090   23.6330 C   0  0  0  0  0  0
  -16.7281  -28.6507   23.0353 C   0  0  0  0  0  0
  -26.4505  -31.6562   25.0701 C   0  0  0  0  0  0
  -25.3687  -31.3748   26.1395 C   0  0  0  0  0  0
  -27.0344  -30.2955   24.6242 C   0  0  0  0  0  0
  -27.6050  -32.4303   25.7487 C   0  0  0  0  0  0
  -27.5578  -37.1792   24.8464 C   0  0  0  0  0  0
  -21.4245  -29.3047   22.3634 N   0  0  0  0  0  0
  -26.4288  -37.3761   23.9408 N   0  0  0  0  0  0
  -24.7127  -31.0351   22.0919 N   0  0  0  0  0  0
  -23.4205  -28.8100   23.3022 O   0  0  0  0  0  0
  -28.2848  -26.2016   20.1963 O   0  0  0  0  0  0
  -26.5668  -34.8918   22.4659 O   0  0  0  0  0  0
  -23.5527  -32.1333   23.7136 O   0  0  0  0  0  0
  -30.0494  -20.0670   19.7598 C   0  0  0  0  0  0
  -30.3108  -18.6443   19.5933 C   0  0  0  0  0  0
  -28.6140  -19.5387   21.5439 C   0  0  0  0  0  0
  -28.8669  -18.1118   21.3902 C   0  0  0  0  0  0
  -29.1802  -20.6101   20.7593 C   0  0  0  0  0  0
  -29.7462  -17.5721   20.3852 C   0  0  0  0  0  0
  -29.2289  -22.4443   22.3784 C   0  0  0  0  0  0
  -28.1913  -17.1951   22.3471 C   0  0  0  0  0  0
  -30.0267  -23.7351   22.4887 C   0  0  0  0  0  0
  -30.3606  -24.0363   21.0344 C   0  0  0  0  0  0
  -29.1538  -23.4487   20.3061 C   0  0  2  0  0  0
  -26.7492  -17.5159   22.7192 C   0  0  0  0  0  0
  -29.5717  -16.0313   18.4889 C   0  0  0  0  0  0
  -28.0119  -24.6819   20.3508 C   0  0  0  0  0  0
  -28.9574  -22.1002   21.0949 N   0  0  0  0  0  0
  -29.8067  -16.0970   19.9425 N   0  0  0  0  0  0
  -28.9049  -21.8226   23.3944 O   0  0  0  0  0  0
  -28.7339  -16.2015   22.8351 O   0  0  0  0  0  0
  -31.4757  -12.7430   19.1564 H   0  0  0  0  0  0
  -30.4684  -11.6395   20.0544 H   0  0  0  0  0  0
  -29.8244  -11.5679   17.6649 H   0  0  0  0  0  0
  -29.6559  -13.2830   17.5802 H   0  0  0  0  0  0
  -27.9107  -11.2549   18.9833 H   0  0  0  0  0  0
  -27.3902  -12.4329   17.8100 H   0  0  0  0  0  0
  -27.5617  -14.2288   19.4157 H   0  0  0  0  0  0
  -28.7810  -12.2993   21.4381 H   0  0  0  0  0  0
  -28.3845  -13.9748   21.7292 H   0  0  0  0  0  0
  -25.2740   -9.5677   22.4787 H   0  0  0  0  0  0
  -23.9987   -7.4617   22.7467 H   0  0  0  0  0  0
  -21.0838   -8.8781   19.8943 H   0  0  0  0  0  0
  -22.3691  -10.9684   19.6190 H   0  0  0  0  0  0
  -21.2001   -7.6144   23.9723 H   0  0  0  0  0  0
  -21.1487   -6.0509   25.9079 H   0  0  0  0  0  0
  -22.0597   -2.7606   23.2838 H   0  0  0  0  0  0
  -22.4022  -11.9924   22.4852 H   0  0  0  0  0  0
  -21.1026  -13.1280   22.2573 H   0  0  0  0  0  0
  -24.6387  -15.8333   20.4859 H   0  0  0  0  0  0
  -26.2476  -15.6141   20.0158 H   0  0  0  0  0  0
  -26.7246  -32.5341   23.1013 H   0  0  0  0  0  0
  -25.0018  -33.9637   25.0304 H   0  0  0  0  0  0
  -22.7429  -31.2912   21.3840 H   0  0  0  0  0  0
  -23.3760  -35.9588   23.3291 H   0  0  0  0  0  0
  -24.3567  -36.8910   22.2054 H   0  0  0  0  0  0
  -23.7232  -37.6458   23.6681 H   0  0  0  0  0  0
  -26.1409  -31.4842   20.6052 H   0  0  0  0  0  0
  -26.8702  -30.7877   22.0175 H   0  0  0  0  0  0
  -28.1346  -28.8335   21.2172 H   0  0  0  0  0  0
  -25.9173  -25.8611   19.0003 H   0  0  0  0  0  0
  -23.9746  -27.2969   18.9954 H   0  0  0  0  0  0
  -23.7981  -30.5683   19.3989 H   0  0  0  0  0  0
  -22.7816  -29.2335   19.8497 H   0  0  0  0  0  0
  -25.1308  -36.1885   25.0811 H   0  0  0  0  0  0
  -20.9993  -28.3298   24.1377 H   0  0  0  0  0  0
  -20.5681  -26.2324   23.3624 H   0  0  0  0  0  0
  -21.6652  -26.7434   22.1206 H   0  0  0  0  0  0
  -19.6918  -25.6285   21.1263 H   0  0  0  0  0  0
  -19.6698  -27.3177   20.6738 H   0  0  0  0  0  0
  -17.4207  -26.6672   21.4034 H   0  0  0  0  0  0
  -18.0339  -26.0083   22.9032 H   0  0  0  0  0  0
  -19.7949  -30.7289   24.2243 H   0  0  0  0  0  0
  -17.5024  -31.6273   24.5163 H   0  0  0  0  0  0
  -15.5360  -30.2989   23.7664 H   0  0  0  0  0  0
  -15.8680  -28.0823   22.7078 H   0  0  0  0  0  0
  -24.5874  -30.7092   25.7708 H   0  0  0  0  0  0
  -24.8863  -32.2926   26.4761 H   0  0  0  0  0  0
  -25.7959  -30.8953   27.0209 H   0  0  0  0  0  0
  -26.2935  -29.6705   24.1240 H   0  0  0  0  0  0
  -27.3953  -29.7229   25.4797 H   0  0  0  0  0  0
  -27.8851  -30.4193   23.9539 H   0  0  0  0  0  0
  -27.2654  -33.3617   26.2028 H   0  0  0  0  0  0
  -28.3881  -32.6834   25.0330 H   0  0  0  0  0  0
  -28.0684  -31.8441   26.5432 H   0  0  0  0  0  0
  -28.2594  -38.0092   24.7517 H   0  0  0  0  0  0
  -28.1079  -36.2625   24.6285 H   0  0  0  0  0  0
  -27.2295  -37.1431   25.8867 H   0  0  0  0  0  0
  -20.9447  -29.8755   21.6815 H   0  0  0  0  0  0
  -26.0160  -38.2832   24.1416 H   0  0  0  0  0  0
  -30.5587  -20.7538   19.0985 H   0  0  0  0  0  0
  -30.9630  -18.3711   18.7760 H   0  0  0  0  0  0
  -27.9445  -19.8286   22.3404 H   0  0  0  0  0  0
  -30.9211  -23.6057   23.0979 H   0  0  0  0  0  0
  -29.4058  -24.5124   22.9353 H   0  0  0  0  0  0
  -31.2732  -23.5165   20.7380 H   0  0  0  0  0  0
  -30.5110  -25.0992   20.8451 H   0  0  0  0  0  0
  -29.4156  -23.2361   19.2690 H   0  0  0  0  0  0
  -26.2405  -18.0052   21.8887 H   0  0  0  0  0  0
  -26.7184  -18.1703   23.5890 H   0  0  0  0  0  0
  -26.2100  -16.5988   22.9546 H   0  0  0  0  0  0
  -29.0229  -16.8967   18.1166 H   0  0  0  0  0  0
  -28.9661  -15.1848   18.1920 H   0  0  0  0  0  0
  -30.5125  -15.9812   17.9371 H   0  0  0  0  0  0
  -27.4903  -24.6003   21.3050 H   0  0  0  0  0  0
  -27.2675  -24.3870   19.6151 H   0  0  0  0  0  0
  1 25  1  0  0  0
  1 30  2  0  0  0
  1 86  1  0  0  0
  2  3  1  0  0  0
  2 25  1  0  0  0
  2 89  1  0  0  0
  2 90  1  0  0  0
  3  4  1  0  0  0
  3 91  1  0  0  0
  3 92  1  0  0  0
  4  5  1  0  0  0
  4 93  1  0  0  0
  4 94  1  0  0  0
  5  6  1  0  0  0
  5 26  1  0  0  0
  5 95  1  0  0  0
  6 25  1  0  0  0
  6 96  1  0  0  0
  6 97  1  0  0  0
  7  8  2  0  0  0
  7 26  1  0  0  0
  7 29  1  0  0  0
  8  9  1  0  0  0
  8 22  1  0  0  0
  9 10  1  0  0  0
  9 27  2  0  0  0
 10 11  2  0  0  0
 10 15  1  0  0  0
 11 12  1  0  0  0
 11 98  1  0  0  0
 12 13  2  0  0  0
 12 99  1  0  0  0
 13 14  1  0  0  0
 13 31  1  0  0  0
 14 15  2  0  0  0
 14100  1  0  0  0
 15101  1  0  0  0
 16 17  2  0  0  0
 16 21  1  0  0  0
 16 31  1  0  0  0
 17 18  1  0  0  0
 17102  1  0  0  0
 18 19  2  0  0  0
 18103  1  0  0  0
 19 20  1  0  0  0
 19 24  1  0  0  0
 20 21  2  0  0  0
 20104  1  0  0  0
 21 23  1  0  0  0
 22 28  1  0  0  0
 22 32  2  0  0  0
 26 27  1  0  0  0
 28105  1  0  0  0
 28106  1  0  0  0
 29107  1  0  0  0
 29108  1  0  0  0
 33 34  1  0  0  0
 33 66  1  0  0  0
 33 70  2  0  0  0
 34 36  1  0  0  0
 34 59  1  0  0  0
 34109  1  0  0  0
 35 44  2  0  0  0
 35 45  1  0  0  0
 35 68  1  0  0  0
 36 56  1  0  0  0
 36110  1  0  0  0
 37 39  1  0  0  0
 37 47  1  0  0  0
 37 66  1  0  0  0
 37111  1  0  0  0
 38 43  2  0  0  0
 38 46  1  0  0  0
 38 47  1  0  0  0
 39 64  1  0  0  0
 39 67  2  0  0  0
 40 52  1  0  0  0
 40 53  2  0  0  0
 40 58  1  0  0  0
 41112  1  0  0  0
 41113  1  0  0  0
 41114  1  0  0  0
 41 48  1  0  0  0
 42 43  1  0  0  0
 42 66  1  0  0  0
 42115  1  0  0  0
 42116  1  0  0  0
 43 44  1  0  0  0
 44117  1  0  0  0
 45 46  2  0  0  0
 45118  1  0  0  0
 46119  1  0  0  0
 47120  1  0  0  0
 47121  1  0  0  0
 48 56  1  0  0  0
 48 65  1  0  0  0
 48122  1  0  0  0
 49 50  1  0  0  0
 49 53  1  0  0  0
 49 64  1  0  0  0
 49123  1  0  0  0
 50 51  1  0  0  0
 50124  1  0  0  0
 50125  1  0  0  0
 51 52  1  0  0  0
 51126  1  0  0  0
 51127  1  0  0  0
 52128  1  0  0  0
 52129  1  0  0  0
 53 54  1  0  0  0
 54 55  2  0  0  0
 54130  1  0  0  0
 55 57  1  0  0  0
 55131  1  0  0  0
 56 69  2  0  0  0
 57 58  2  0  0  0
 57132  1  0  0  0
 58133  1  0  0  0
 59 60  1  0  0  0
 59 61  1  0  0  0
 59 62  1  0  0  0
 60134  1  0  0  0
 60135  1  0  0  0
 60136  1  0  0  0
 61137  1  0  0  0
 61138  1  0  0  0
 61139  1  0  0  0
 62140  1  0  0  0
 62141  1  0  0  0
 62142  1  0  0  0
 63 65  1  0  0  0
 63143  1  0  0  0
 63144  1  0  0  0
 63145  1  0  0  0
 64146  1  0  0  0
 65147  1  0  0  0
 68 84  1  0  0  0
 71 72  2  0  0  0
 71 75  1  0  0  0
 71148  1  0  0  0
 72 76  1  0  0  0
 72149  1  0  0  0
 73 74  1  0  0  0
 73 75  2  0  0  0
 73150  1  0  0  0
 74 76  2  0  0  0
 74 78  1  0  0  0
 75 85  1  0  0  0
 76 86  1  0  0  0
 77 79  1  0  0  0
 77 85  1  0  0  0
 77 87  2  0  0  0
 78 82  1  0  0  0
 78 88  2  0  0  0
 79 80  1  0  0  0
 79151  1  0  0  0
 79152  1  0  0  0
 80 81  1  0  0  0
 80153  1  0  0  0
 80154  1  0  0  0
 81 84  1  0  0  0
 81 85  1  0  0  0
 81155  1  0  0  0
 82156  1  0  0  0
 82157  1  0  0  0
 82158  1  0  0  0
 83 86  1  0  0  0
 83159  1  0  0  0
 83160  1  0  0  0
 83161  1  0  0  0
 84162  1  0  0  0
 84163  1  0  0  0
M  ISO  4   1 100  68 101  84 101  86 100
M  END
> <chiral flag>
0

> <version>
0

> <s_m_source_file>
/data/baiqing/PycharmProjects/Reinvent-master-3.2/result/LINK_invent/BTK/process_docking_weight1_custom_product_contain_oxygen_bond_distance_aromatic_linkinvent_7_9_3/rearranged_h_0105.sdf

> <i_m_source_file_index>
83

> <r_mmod_Potential_Energy-OPLS-2005>
829.442443847656

> <r_mmod_Stretch_Energy-OPLS-2005>
239.538391113281

> <r_mmod_Bend_Energy-OPLS-2005>
300.941131591797

> <r_mmod_Torsional_Energy-OPLS-2005>
443.488067626953

> <r_mmod_Improper_Torsional_Energy-OPLS-2005>
27.3475017547607

> <r_mmod_Van_der_Waal_Energy-OPLS-2005>
141.436782836914

> <r_mmod_Electrostatic_Energy-OPLS-2005>
-295.454315185547

> <r_mmod_Solvation_Energy-OPLS-2005>
-212.312744140625

> <b_mmod_Minimization_Converged-OPLS-2005>
0

> <r_mmod_RMS_Derivative-OPLS-2005>
0.99254447221756

$$$$
83
                    3D
 Structure written by MMmdl.
161170  0  0  1  0            999 V2000
  -30.6775  -14.5721   20.5900 C   0  0  0  0  0  0
  -30.4433  -12.3738   19.4495 C   0  0  0  0  0  0
  -29.5121  -12.5272   18.2267 C   0  0  0  0  0  0
  -28.0347  -12.3638   18.6335 C   0  0  0  0  0  0
  -27.6638  -13.2165   19.8750 C   0  0  2  0  0  0
  -28.7062  -13.0308   21.0039 C   0  0  0  0  0  0
  -25.2507  -13.8105   20.5543 C   0  0  0  0  0  0
  -24.1814  -13.0394   20.9170 C   0  0  0  0  0  0
  -24.6413  -11.6882   20.8752 C   0  0  0  0  0  0
  -23.9079  -10.4278   21.0420 C   0  0  0  0  0  0
  -24.3624   -9.4191   21.9201 C   0  0  0  0  0  0
  -23.6285   -8.2237   22.0758 C   0  0  0  0  0  0
  -22.4266   -8.0285   21.3548 C   0  0  0  0  0  0
  -21.9911   -9.0261   20.4651 C   0  0  0  0  0  0
  -22.7251  -10.2134   20.3059 C   0  0  0  0  0  0
  -21.6847   -6.0732   22.5276 C   0  0  0  0  0  0
  -21.4014   -6.5629   23.8209 C   0  0  0  0  0  0
  -21.3659   -5.6777   24.9170 C   0  0  0  0  0  0
  -21.6039   -4.3043   24.7214 C   0  0  0  0  0  0
  -21.8819   -3.8140   23.4337 C   0  0  0  0  0  0
  -21.9191   -4.6962   22.3398 C   0  0  0  0  0  0
  -22.7840  -13.5204   21.1827 C   0  0  0  0  0  0
  -22.1662   -4.2153   21.0972 F   0  0  0  0  0  0
  -21.5629   -3.4519   25.7730 F   0  0  0  0  0  0
  -30.0410  -13.3649   20.4669 N   0  0  0  0  0  0
  -26.3025  -12.9345   20.3326 N   0  0  0  0  0  0
  -25.9358  -11.6500   20.5785 N   0  0  0  0  0  0
  -22.0471  -12.8230   22.0402 N   0  0  0  0  0  0
  -25.3996  -15.1779   20.3665 N   0  0  0  0  0  0
  -31.7565  -14.8061   20.0357 O   0  0  0  0  0  0
  -21.6630   -6.8883   21.4243 O   0  0  0  0  0  0
  -22.3532  -14.5523   20.6686 O   0  0  0  0  0  0
  -24.6215  -31.8628   23.2059 C   0  0  0  0  0  0
  -25.9084  -32.4798   23.8370 C   0  0  1  0  0  0
  -27.2352  -27.3639   20.1053 C   0  0  0  0  0  0
  -25.5907  -33.8598   24.2287 N   0  0  0  0  0  0
  -23.4128  -30.4858   21.5495 C   0  0  2  0  0  0
  -24.8586  -28.9429   20.1173 C   0  0  0  0  0  0
  -22.7445  -29.4636   22.4983 C   0  0  0  0  0  0
  -18.0281  -28.1375   22.8496 C   0  0  0  0  0  0
  -24.1480  -36.7301   23.2640 C   0  0  0  0  0  0
  -25.9503  -30.8053   21.3718 C   0  0  0  0  0  0
  -26.0261  -29.4368   20.7128 C   0  0  0  0  0  0
  -27.2174  -28.6608   20.6929 C   0  0  0  0  0  0
  -26.0419  -26.9073   19.4975 C   0  0  0  0  0  0
  -24.8660  -27.6807   19.5039 C   0  0  0  0  0  0
  -23.6236  -29.8174   20.1659 C   0  0  0  0  0  0
  -25.4107  -36.3100   24.0329 C   0  0  1  0  0  0
  -20.5874  -28.3668   23.1302 C   0  0  2  0  0  0
  -20.6764  -26.9399   22.5415 C   0  0  0  0  0  0
  -19.5748  -26.6378   21.5206 C   0  0  0  0  0  0
  -18.1923  -26.7919   22.1621 C   0  0  0  0  0  0
  -19.1532  -28.8841   23.2893 C   0  0  0  0  0  0
  -18.9458  -30.1441   23.8913 C   0  0  0  0  0  0
  -17.6462  -30.6584   24.0563 C   0  0  0  0  0  0
  -25.9046  -34.9468   23.5111 C   0  0  0  0  0  0
  -16.5351  -29.9084   23.6326 C   0  0  0  0  0  0
  -16.7271  -28.6493   23.0363 C   0  0  0  0  0  0
  -26.4472  -31.6616   25.0744 C   0  0  0  0  0  0
  -25.3699  -31.3778   26.1477 C   0  0  0  0  0  0
  -27.0316  -30.3041   24.6198 C   0  0  0  0  0  0
  -27.6033  -32.4360   25.7505 C   0  0  0  0  0  0
  -27.5582  -37.1798   24.8460 C   0  0  0  0  0  0
  -21.4170  -29.3029   22.3715 N   0  0  0  0  0  0
  -26.4290  -37.3790   23.9414 N   0  0  0  0  0  0
  -24.6803  -31.0665   22.0995 N   0  0  0  0  0  0
  -23.4181  -28.8183   23.3057 O   0  0  0  0  0  0
  -28.3876  -26.5739   20.1157 O   0  0  0  0  0  0
  -26.5623  -34.8926   22.4683 O   0  0  0  0  0  0
  -23.5388  -32.1417   23.7403 O   0  0  0  0  0  0
  -28.4659  -19.4206   20.6607 C   0  0  0  0  0  0
  -28.2292  -17.0213   21.0325 C   0  0  0  0  0  0
  -30.4472  -18.0008   20.9017 C   0  0  0  0  0  0
  -27.6492  -18.2885   20.8231 C   0  0  0  0  0  0
  -29.8684  -19.3087   20.7346 C   0  0  0  0  0  0
  -29.6256  -16.8349   21.0442 C   0  0  0  0  0  0
  -29.4982  -22.8535   20.9645 C   0  0  0  0  0  0
  -30.0262  -23.8776   18.8788 C   0  0  0  0  0  0
  -30.6737  -22.4819   19.0148 C   0  0  0  0  0  0
  -29.5343  -24.2518   20.2847 C   0  0  1  0  0  0
  -26.1415  -18.4429   20.8127 C   0  0  0  0  0  0
  -30.7317  -20.5994   20.7318 C   0  0  0  0  0  0
  -28.2256  -25.1314   20.3323 C   0  0  0  0  0  0
  -30.1644  -21.9065   20.2561 N   0  0  0  0  0  0
  -30.0607  -15.4930   21.3720 N   0  0  0  0  0  0
  -28.9788  -22.6707   22.0681 O   0  0  0  0  0  0
  -31.4859  -12.4941   19.1498 H   0  0  0  0  0  0
  -30.3697  -11.3677   19.8655 H   0  0  0  0  0  0
  -29.7732  -11.7950   17.4620 H   0  0  0  0  0  0
  -29.6606  -13.5076   17.7715 H   0  0  0  0  0  0
  -27.8637  -11.3079   18.8462 H   0  0  0  0  0  0
  -27.3837  -12.6141   17.7958 H   0  0  0  0  0  0
  -27.6957  -14.2594   19.5594 H   0  0  0  0  0  0
  -28.7031  -11.9976   21.3551 H   0  0  0  0  0  0
  -28.4366  -13.6297   21.8738 H   0  0  0  0  0  0
  -25.2775   -9.5652   22.4767 H   0  0  0  0  0  0
  -23.9982   -7.4621   22.7466 H   0  0  0  0  0  0
  -21.0845   -8.8792   19.8953 H   0  0  0  0  0  0
  -22.3732  -10.9673   19.6157 H   0  0  0  0  0  0
  -21.2010   -7.6140   23.9715 H   0  0  0  0  0  0
  -21.1476   -6.0505   25.9069 H   0  0  0  0  0  0
  -22.0600   -2.7605   23.2826 H   0  0  0  0  0  0
  -22.4069  -11.9911   22.4828 H   0  0  0  0  0  0
  -21.1095  -13.1295   22.2589 H   0  0  0  0  0  0
  -24.6042  -15.8031   20.4264 H   0  0  0  0  0  0
  -26.2023  -15.6003   19.9199 H   0  0  0  0  0  0
  -26.7157  -32.5464   23.1121 H   0  0  0  0  0  0
  -25.0026  -33.9743   25.0414 H   0  0  0  0  0  0
  -22.7044  -31.3048   21.4091 H   0  0  0  0  0  0
  -23.3745  -35.9631   23.3304 H   0  0  0  0  0  0
  -24.3575  -36.8923   22.2056 H   0  0  0  0  0  0
  -23.7220  -37.6497   23.6662 H   0  0  0  0  0  0
  -26.0809  -31.5723   20.6070 H   0  0  0  0  0  0
  -26.8308  -30.8480   22.0017 H   0  0  0  0  0  0
  -28.1181  -29.0442   21.1518 H   0  0  0  0  0  0
  -25.9922  -25.9513   18.9995 H   0  0  0  0  0  0
  -23.9707  -27.2959   19.0345 H   0  0  0  0  0  0
  -23.7358  -30.5919   19.4065 H   0  0  0  0  0  0
  -22.7439  -29.2425   19.8703 H   0  0  0  0  0  0
  -25.1280  -36.1959   25.0820 H   0  0  0  0  0  0
  -20.9958  -28.3231   24.1424 H   0  0  0  0  0  0
  -20.5651  -26.2278   23.3604 H   0  0  0  0  0  0
  -21.6640  -26.7429   22.1220 H   0  0  0  0  0  0
  -19.6908  -25.6286   21.1239 H   0  0  0  0  0  0
  -19.6684  -27.3181   20.6728 H   0  0  0  0  0  0
  -17.4192  -26.6674   21.4020 H   0  0  0  0  0  0
  -18.0332  -26.0054   22.9011 H   0  0  0  0  0  0
  -19.7937  -30.7248   24.2291 H   0  0  0  0  0  0
  -17.5021  -31.6269   24.5159 H   0  0  0  0  0  0
  -15.5350  -30.2994   23.7642 H   0  0  0  0  0  0
  -15.8668  -28.0806   22.7088 H   0  0  0  0  0  0
  -24.5833  -30.7175   25.7808 H   0  0  0  0  0  0
  -24.8929  -32.2963   26.4913 H   0  0  0  0  0  0
  -25.7998  -30.8934   27.0253 H   0  0  0  0  0  0
  -26.2902  -29.6807   24.1188 H   0  0  0  0  0  0
  -27.3984  -29.7289   25.4712 H   0  0  0  0  0  0
  -27.8780  -30.4341   23.9449 H   0  0  0  0  0  0
  -27.2634  -33.3642   26.2112 H   0  0  0  0  0  0
  -28.3814  -32.6963   25.0317 H   0  0  0  0  0  0
  -28.0742  -31.8484   26.5396 H   0  0  0  0  0  0
  -28.2599  -38.0098   24.7527 H   0  0  0  0  0  0
  -28.1080  -36.2635   24.6255 H   0  0  0  0  0  0
  -27.2316  -37.1417   25.8868 H   0  0  0  0  0  0
  -20.9346  -29.8737   21.6917 H   0  0  0  0  0  0
  -26.0177  -38.2867   24.1421 H   0  0  0  0  0  0
  -28.0018  -20.3880   20.5295 H   0  0  0  0  0  0
  -27.5878  -16.1756   21.2168 H   0  0  0  0  0  0
  -31.5213  -17.9023   20.9774 H   0  0  0  0  0  0
  -29.1887  -23.8277   18.1815 H   0  0  0  0  0  0
  -30.7297  -24.6116   18.4837 H   0  0  0  0  0  0
  -31.7596  -22.5718   19.0819 H   0  0  0  0  0  0
  -30.4422  -21.8430   18.1617 H   0  0  0  0  0  0
  -30.3243  -24.7949   20.8039 H   0  0  0  0  0  0
  -25.8460  -19.4648   21.0513 H   0  0  0  0  0  0
  -25.6790  -17.7866   21.5506 H   0  0  0  0  0  0
  -25.7410  -18.1913   19.8304 H   0  0  0  0  0  0
  -31.6326  -20.3854   20.1550 H   0  0  0  0  0  0
  -31.0806  -20.7473   21.7550 H   0  0  0  0  0  0
  -27.7534  -25.0100   21.3088 H   0  0  0  0  0  0
  -27.5345  -24.6990   19.6117 H   0  0  0  0  0  0
  -29.3795  -15.0125   21.9398 H   0  0  0  0  0  0
  1 25  1  0  0  0
  1 30  2  0  0  0
  1 85  1  0  0  0
  2  3  1  0  0  0
  2 25  1  0  0  0
  2 87  1  0  0  0
  2 88  1  0  0  0
  3  4  1  0  0  0
  3 89  1  0  0  0
  3 90  1  0  0  0
  4  5  1  0  0  0
  4 91  1  0  0  0
  4 92  1  0  0  0
  5  6  1  0  0  0
  5 26  1  0  0  0
  5 93  1  0  0  0
  6 25  1  0  0  0
  6 94  1  0  0  0
  6 95  1  0  0  0
  7  8  2  0  0  0
  7 26  1  0  0  0
  7 29  1  0  0  0
  8  9  1  0  0  0
  8 22  1  0  0  0
  9 10  1  0  0  0
  9 27  2  0  0  0
 10 11  2  0  0  0
 10 15  1  0  0  0
 11 12  1  0  0  0
 11 96  1  0  0  0
 12 13  2  0  0  0
 12 97  1  0  0  0
 13 14  1  0  0  0
 13 31  1  0  0  0
 14 15  2  0  0  0
 14 98  1  0  0  0
 15 99  1  0  0  0
 16 17  2  0  0  0
 16 21  1  0  0  0
 16 31  1  0  0  0
 17 18  1  0  0  0
 17100  1  0  0  0
 18 19  2  0  0  0
 18101  1  0  0  0
 19 20  1  0  0  0
 19 24  1  0  0  0
 20 21  2  0  0  0
 20102  1  0  0  0
 21 23  1  0  0  0
 22 28  1  0  0  0
 22 32  2  0  0  0
 26 27  1  0  0  0
 28103  1  0  0  0
 28104  1  0  0  0
 29105  1  0  0  0
 29106  1  0  0  0
 33 34  1  0  0  0
 33 66  1  0  0  0
 33 70  2  0  0  0
 34 36  1  0  0  0
 34 59  1  0  0  0
 34107  1  0  0  0
 35 44  2  0  0  0
 35 45  1  0  0  0
 35 68  1  0  0  0
 36 56  1  0  0  0
 36108  1  0  0  0
 37 39  1  0  0  0
 37 47  1  0  0  0
 37 66  1  0  0  0
 37109  1  0  0  0
 38 43  2  0  0  0
 38 46  1  0  0  0
 38 47  1  0  0  0
 39 64  1  0  0  0
 39 67  2  0  0  0
 40 52  1  0  0  0
 40 53  2  0  0  0
 40 58  1  0  0  0
 41110  1  0  0  0
 41111  1  0  0  0
 41112  1  0  0  0
 41 48  1  0  0  0
 42 43  1  0  0  0
 42 66  1  0  0  0
 42113  1  0  0  0
 42114  1  0  0  0
 43 44  1  0  0  0
 44115  1  0  0  0
 45 46  2  0  0  0
 45116  1  0  0  0
 46117  1  0  0  0
 47118  1  0  0  0
 47119  1  0  0  0
 48 56  1  0  0  0
 48 65  1  0  0  0
 48120  1  0  0  0
 49 50  1  0  0  0
 49 53  1  0  0  0
 49 64  1  0  0  0
 49121  1  0  0  0
 50 51  1  0  0  0
 50122  1  0  0  0
 50123  1  0  0  0
 51 52  1  0  0  0
 51124  1  0  0  0
 51125  1  0  0  0
 52126  1  0  0  0
 52127  1  0  0  0
 53 54  1  0  0  0
 54 55  2  0  0  0
 54128  1  0  0  0
 55 57  1  0  0  0
 55129  1  0  0  0
 56 69  2  0  0  0
 57 58  2  0  0  0
 57130  1  0  0  0
 58131  1  0  0  0
 59 60  1  0  0  0
 59 61  1  0  0  0
 59 62  1  0  0  0
 60132  1  0  0  0
 60133  1  0  0  0
 60134  1  0  0  0
 61135  1  0  0  0
 61136  1  0  0  0
 61137  1  0  0  0
 62138  1  0  0  0
 62139  1  0  0  0
 62140  1  0  0  0
 63 65  1  0  0  0
 63141  1  0  0  0
 63142  1  0  0  0
 63143  1  0  0  0
 64144  1  0  0  0
 65145  1  0  0  0
 68 83  1  0  0  0
 71 74  2  0  0  0
 71 75  1  0  0  0
 71146  1  0  0  0
 72 74  1  0  0  0
 72 76  2  0  0  0
 72147  1  0  0  0
 73 75  2  0  0  0
 73 76  1  0  0  0
 73148  1  0  0  0
 74 81  1  0  0  0
 75 82  1  0  0  0
 76 85  1  0  0  0
 77 80  1  0  0  0
 77 84  1  0  0  0
 77 86  2  0  0  0
 78 79  1  0  0  0
 78 80  1  0  0  0
 78149  1  0  0  0
 78150  1  0  0  0
 79 84  1  0  0  0
 79151  1  0  0  0
 79152  1  0  0  0
 80 83  1  0  0  0
 80153  1  0  0  0
 81154  1  0  0  0
 81155  1  0  0  0
 81156  1  0  0  0
 82 84  1  0  0  0
 82157  1  0  0  0
 82158  1  0  0  0
 83159  1  0  0  0
 83160  1  0  0  0
 85161  1  0  0  0
M  ISO  4   1 100  68 101  83 101  85 100
M  END
> <chiral flag>
0

> <version>
0

> <s_m_source_file>
/data/baiqing/PycharmProjects/Reinvent-master-3.2/result/LINK_invent/BTK/process_docking_weight1_custom_product_contain_oxygen_bond_distance_aromatic_linkinvent_7_9_3/rearranged_h_0105.sdf

> <i_m_source_file_index>
84

> <r_mmod_Potential_Energy-OPLS-2005>
60.7425117492676

> <r_mmod_Stretch_Energy-OPLS-2005>
61.6604042053223

> <r_mmod_Bend_Energy-OPLS-2005>
152.264038085938

> <r_mmod_Torsional_Energy-OPLS-2005>
272.752685546875

> <r_mmod_Improper_Torsional_Energy-OPLS-2005>
8.60150337219238

> <r_mmod_Van_der_Waal_Energy-OPLS-2005>
133.673934936523

> <r_mmod_Electrostatic_Energy-OPLS-2005>
-371.294403076172

> <r_mmod_Solvation_Energy-OPLS-2005>
-225.53271484375

> <b_mmod_Minimization_Converged-OPLS-2005>
0

> <r_mmod_RMS_Derivative-OPLS-2005>
1.61264371871948

$$$$
84
                    3D
 Structure written by MMmdl.
162171  0  0  1  0            999 V2000
  -30.5745  -14.7392   20.4858 C   0  0  0  0  0  0
  -30.4537  -12.4559   19.4664 C   0  0  0  0  0  0
  -29.5172  -12.5158   18.2372 C   0  0  0  0  0  0
  -28.0436  -12.3312   18.6518 C   0  0  0  0  0  0
  -27.6523  -13.2191   19.8611 C   0  0  2  0  0  0
  -28.6979  -13.1107   20.9935 C   0  0  0  0  0  0
  -25.2565  -13.8162   20.5707 C   0  0  0  0  0  0
  -24.1834  -13.0431   20.9204 C   0  0  0  0  0  0
  -24.6407  -11.6903   20.8746 C   0  0  0  0  0  0
  -23.9070  -10.4291   21.0408 C   0  0  0  0  0  0
  -24.3617   -9.4203   21.9186 C   0  0  0  0  0  0
  -23.6298   -8.2241   22.0751 C   0  0  0  0  0  0
  -22.4276   -8.0285   21.3547 C   0  0  0  0  0  0
  -21.9922   -9.0253   20.4648 C   0  0  0  0  0  0
  -22.7243  -10.2131   20.3054 C   0  0  0  0  0  0
  -21.6849   -6.0741   22.5274 C   0  0  0  0  0  0
  -21.3999   -6.5642   23.8212 C   0  0  0  0  0  0
  -21.3644   -5.6791   24.9176 C   0  0  0  0  0  0
  -21.6040   -4.3057   24.7228 C   0  0  0  0  0  0
  -21.8827   -3.8154   23.4345 C   0  0  0  0  0  0
  -21.9198   -4.6976   22.3405 C   0  0  0  0  0  0
  -22.7859  -13.5233   21.1858 C   0  0  0  0  0  0
  -22.1675   -4.2164   21.0978 F   0  0  0  0  0  0
  -21.5625   -3.4533   25.7737 F   0  0  0  0  0  0
  -30.0035  -13.4871   20.4269 N   0  0  0  0  0  0
  -26.2992  -12.9350   20.3316 N   0  0  0  0  0  0
  -25.9339  -11.6501   20.5762 N   0  0  0  0  0  0
  -22.0502  -12.8220   22.0419 N   0  0  0  0  0  0
  -25.4259  -15.1890   20.4124 N   0  0  0  0  0  0
  -31.7415  -14.9139   20.1173 O   0  0  0  0  0  0
  -21.6636   -6.8886   21.4241 O   0  0  0  0  0  0
  -22.3543  -14.5541   20.6705 O   0  0  0  0  0  0
  -24.6297  -31.8569   23.1992 C   0  0  0  0  0  0
  -25.9131  -32.4775   23.8331 C   0  0  1  0  0  0
  -27.2339  -27.2859   20.1393 C   0  0  0  0  0  0
  -25.5930  -33.8565   24.2269 N   0  0  0  0  0  0
  -23.4281  -30.4782   21.5384 C   0  0  2  0  0  0
  -24.8837  -28.9235   20.1152 C   0  0  0  0  0  0
  -22.7480  -29.4607   22.4884 C   0  0  0  0  0  0
  -18.0293  -28.1425   22.8491 C   0  0  0  0  0  0
  -24.1444  -36.7211   23.2642 C   0  0  0  0  0  0
  -25.9717  -30.7781   21.3788 C   0  0  0  0  0  0
  -26.0523  -29.3991   20.7275 C   0  0  0  0  0  0
  -27.2330  -28.5903   20.7332 C   0  0  0  0  0  0
  -26.0465  -26.8685   19.5077 C   0  0  0  0  0  0
  -24.8832  -27.6631   19.4958 C   0  0  0  0  0  0
  -23.6534  -29.8092   20.1563 C   0  0  0  0  0  0
  -25.4084  -36.3044   24.0333 C   0  0  1  0  0  0
  -20.5889  -28.3708   23.1273 C   0  0  2  0  0  0
  -20.6752  -26.9417   22.5424 C   0  0  0  0  0  0
  -19.5733  -26.6408   21.5221 C   0  0  0  0  0  0
  -18.1918  -26.7975   22.1626 C   0  0  0  0  0  0
  -19.1549  -28.8885   23.2876 C   0  0  0  0  0  0
  -18.9487  -30.1490   23.8879 C   0  0  0  0  0  0
  -17.6493  -30.6626   24.0575 C   0  0  0  0  0  0
  -25.9040  -34.9437   23.5092 C   0  0  0  0  0  0
  -16.5380  -29.9121   23.6366 C   0  0  0  0  0  0
  -16.7286  -28.6547   23.0378 C   0  0  0  0  0  0
  -26.4526  -31.6593   25.0704 C   0  0  0  0  0  0
  -25.3774  -31.3741   26.1442 C   0  0  0  0  0  0
  -27.0369  -30.3006   24.6173 C   0  0  0  0  0  0
  -27.6065  -32.4358   25.7506 C   0  0  0  0  0  0
  -27.5548  -37.1748   24.8473 C   0  0  0  0  0  0
  -21.4193  -29.3043   22.3629 N   0  0  0  0  0  0
  -26.4237  -37.3774   23.9453 N   0  0  0  0  0  0
  -24.6940  -31.0546   22.0962 N   0  0  0  0  0  0
  -23.4176  -28.8161   23.3002 O   0  0  0  0  0  0
  -28.3060  -26.3743   20.1266 O   0  0  0  0  0  0
  -26.5595  -34.8919   22.4652 O   0  0  0  0  0  0
  -23.5451  -32.1396   23.7289 O   0  0  0  0  0  0
  -30.7411  -18.1094   20.2273 C   0  0  0  0  0  0
  -28.5689  -17.9638   21.2074 C   0  0  0  0  0  0
  -30.6422  -19.5517   20.2254 C   0  0  0  0  0  0
  -29.5006  -20.2510   20.7507 C   0  0  0  0  0  0
  -29.7183  -17.2600   20.7409 C   0  0  0  0  0  0
  -28.4590  -19.3924   21.2149 C   0  0  0  0  0  0
  -28.6219  -24.0340   21.2031 C   0  0  0  0  0  0
  -28.3490  -25.3999   21.1437 C   0  0  0  0  0  0
  -28.6564  -23.3457   22.5530 C   0  0  0  0  0  0
  -28.9643  -22.8694   20.2059 C   0  0  0  0  0  0
  -29.5589  -22.1093   22.3998 C   0  0  0  0  0  0
  -32.9993  -20.4219   20.6383 C   0  0  0  0  0  0
  -31.8228  -20.3284   19.6590 C   0  0  0  0  0  0
  -29.4659  -21.6898   21.0055 N   0  0  0  0  0  0
  -27.3021  -19.9778   21.7302 N   0  0  0  0  0  0
  -29.7190  -15.7747   20.8208 N   0  0  0  0  0  0
  -31.4887  -12.6128   19.1584 H   0  0  0  0  0  0
  -30.4263  -11.4692   19.9300 H   0  0  0  0  0  0
  -29.8017  -11.7528   17.5117 H   0  0  0  0  0  0
  -29.6368  -13.4763   17.7333 H   0  0  0  0  0  0
  -27.9037  -11.2800   18.9076 H   0  0  0  0  0  0
  -27.3841  -12.5307   17.8061 H   0  0  0  0  0  0
  -27.6579  -14.2470   19.4974 H   0  0  0  0  0  0
  -28.7356  -12.0942   21.3883 H   0  0  0  0  0  0
  -28.4253  -13.7456   21.8376 H   0  0  0  0  0  0
  -25.2762   -9.5679   22.4761 H   0  0  0  0  0  0
  -24.0008   -7.4629   22.7464 H   0  0  0  0  0  0
  -21.0857   -8.8773   19.8951 H   0  0  0  0  0  0
  -22.3707  -10.9670   19.6162 H   0  0  0  0  0  0
  -21.1973   -7.6139   23.9717 H   0  0  0  0  0  0
  -21.1451   -6.0517   25.9077 H   0  0  0  0  0  0
  -22.0616   -2.7624   23.2839 H   0  0  0  0  0  0
  -22.4120  -11.9862   22.4774 H   0  0  0  0  0  0
  -21.1126  -13.1246   22.2645 H   0  0  0  0  0  0
  -24.6508  -15.8361   20.5082 H   0  0  0  0  0  0
  -26.2687  -15.6304   20.0679 H   0  0  0  0  0  0
  -26.7186  -32.5461   23.1062 H   0  0  0  0  0  0
  -25.0092  -33.9706   25.0429 H   0  0  0  0  0  0
  -22.7244  -31.2990   21.3874 H   0  0  0  0  0  0
  -23.3747  -35.9497   23.3312 H   0  0  0  0  0  0
  -24.3510  -36.8833   22.2047 H   0  0  0  0  0  0
  -23.7155  -37.6386   23.6678 H   0  0  0  0  0  0
  -26.1052  -31.5386   20.6075 H   0  0  0  0  0  0
  -26.8487  -30.8336   22.0102 H   0  0  0  0  0  0
  -28.1303  -28.9452   21.2193 H   0  0  0  0  0  0
  -26.0148  -25.8938   19.0413 H   0  0  0  0  0  0
  -23.9879  -27.2885   19.0196 H   0  0  0  0  0  0
  -23.7858  -30.5842   19.4009 H   0  0  0  0  0  0
  -22.7745  -29.2421   19.8465 H   0  0  0  0  0  0
  -25.1268  -36.1844   25.0824 H   0  0  0  0  0  0
  -21.0027  -28.3308   24.1378 H   0  0  0  0  0  0
  -20.5641  -26.2313   23.3629 H   0  0  0  0  0  0
  -21.6624  -26.7446   22.1227 H   0  0  0  0  0  0
  -19.6857  -25.6314   21.1263 H   0  0  0  0  0  0
  -19.6689  -27.3207   20.6740 H   0  0  0  0  0  0
  -17.4191  -26.6764   21.4016 H   0  0  0  0  0  0
  -18.0285  -26.0136   22.9037 H   0  0  0  0  0  0
  -19.7970  -30.7310   24.2236 H   0  0  0  0  0  0
  -17.5068  -31.6301   24.5189 H   0  0  0  0  0  0
  -15.5384  -30.3025   23.7733 H   0  0  0  0  0  0
  -15.8675  -28.0875   22.7114 H   0  0  0  0  0  0
  -24.5984  -30.7020   25.7821 H   0  0  0  0  0  0
  -24.8906  -32.2897   26.4805 H   0  0  0  0  0  0
  -25.8137  -30.9013   27.0248 H   0  0  0  0  0  0
  -26.2923  -29.6742   24.1226 H   0  0  0  0  0  0
  -27.4080  -29.7285   25.4690 H   0  0  0  0  0  0
  -27.8809  -30.4260   23.9383 H   0  0  0  0  0  0
  -27.2641  -33.3675   26.2019 H   0  0  0  0  0  0
  -28.3927  -32.6898   25.0388 H   0  0  0  0  0  0
  -28.0659  -31.8513   26.5480 H   0  0  0  0  0  0
  -28.2581  -38.0035   24.7573 H   0  0  0  0  0  0
  -28.1036  -36.2581   24.6256 H   0  0  0  0  0  0
  -27.2267  -37.1354   25.8874 H   0  0  0  0  0  0
  -20.9357  -29.8717   21.6805 H   0  0  0  0  0  0
  -26.0088  -38.2813   24.1579 H   0  0  0  0  0  0
  -31.6404  -17.6544   19.8371 H   0  0  0  0  0  0
  -27.7397  -17.3873   21.5940 H   0  0  0  0  0  0
  -28.1510  -25.8979   22.0839 H   0  0  0  0  0  0
  -27.6405  -23.0294   22.7922 H   0  0  0  0  0  0
  -28.9937  -24.0066   23.3524 H   0  0  0  0  0  0
  -29.7157  -23.2043   19.4886 H   0  0  0  0  0  0
  -28.0677  -22.5905   19.6503 H   0  0  0  0  0  0
  -29.2837  -21.3254   23.1085 H   0  0  0  0  0  0
  -30.5972  -22.3752   22.6050 H   0  0  0  0  0  0
  -33.8306  -20.9655   20.1885 H   0  0  0  0  0  0
  -33.3622  -19.4317   20.9148 H   0  0  0  0  0  0
  -32.7156  -20.9445   21.5510 H   0  0  0  0  0  0
  -31.5075  -21.3267   19.3535 H   0  0  0  0  0  0
  -32.1582  -19.8361   18.7445 H   0  0  0  0  0  0
  -26.8388  -19.4929   22.4903 H   0  0  0  0  0  0
  -27.4258  -20.9683   21.9169 H   0  0  0  0  0  0
  -28.8397  -15.3985   21.1398 H   0  0  0  0  0  0
  1 25  1  0  0  0
  1 30  2  0  0  0
  1 86  1  0  0  0
  2  3  1  0  0  0
  2 25  1  0  0  0
  2 87  1  0  0  0
  2 88  1  0  0  0
  3  4  1  0  0  0
  3 89  1  0  0  0
  3 90  1  0  0  0
  4  5  1  0  0  0
  4 91  1  0  0  0
  4 92  1  0  0  0
  5  6  1  0  0  0
  5 26  1  0  0  0
  5 93  1  0  0  0
  6 25  1  0  0  0
  6 94  1  0  0  0
  6 95  1  0  0  0
  7  8  2  0  0  0
  7 26  1  0  0  0
  7 29  1  0  0  0
  8  9  1  0  0  0
  8 22  1  0  0  0
  9 10  1  0  0  0
  9 27  2  0  0  0
 10 11  2  0  0  0
 10 15  1  0  0  0
 11 12  1  0  0  0
 11 96  1  0  0  0
 12 13  2  0  0  0
 12 97  1  0  0  0
 13 14  1  0  0  0
 13 31  1  0  0  0
 14 15  2  0  0  0
 14 98  1  0  0  0
 15 99  1  0  0  0
 16 17  2  0  0  0
 16 21  1  0  0  0
 16 31  1  0  0  0
 17 18  1  0  0  0
 17100  1  0  0  0
 18 19  2  0  0  0
 18101  1  0  0  0
 19 20  1  0  0  0
 19 24  1  0  0  0
 20 21  2  0  0  0
 20102  1  0  0  0
 21 23  1  0  0  0
 22 28  1  0  0  0
 22 32  2  0  0  0
 26 27  1  0  0  0
 28103  1  0  0  0
 28104  1  0  0  0
 29105  1  0  0  0
 29106  1  0  0  0
 33 34  1  0  0  0
 33 66  1  0  0  0
 33 70  2  0  0  0
 34 36  1  0  0  0
 34 59  1  0  0  0
 34107  1  0  0  0
 35 44  2  0  0  0
 35 45  1  0  0  0
 35 68  1  0  0  0
 36 56  1  0  0  0
 36108  1  0  0  0
 37 39  1  0  0  0
 37 47  1  0  0  0
 37 66  1  0  0  0
 37109  1  0  0  0
 38 43  2  0  0  0
 38 46  1  0  0  0
 38 47  1  0  0  0
 39 64  1  0  0  0
 39 67  2  0  0  0
 40 52  1  0  0  0
 40 53  2  0  0  0
 40 58  1  0  0  0
 41110  1  0  0  0
 41111  1  0  0  0
 41112  1  0  0  0
 41 48  1  0  0  0
 42 43  1  0  0  0
 42 66  1  0  0  0
 42113  1  0  0  0
 42114  1  0  0  0
 43 44  1  0  0  0
 44115  1  0  0  0
 45 46  2  0  0  0
 45116  1  0  0  0
 46117  1  0  0  0
 47118  1  0  0  0
 47119  1  0  0  0
 48 56  1  0  0  0
 48 65  1  0  0  0
 48120  1  0  0  0
 49 50  1  0  0  0
 49 53  1  0  0  0
 49 64  1  0  0  0
 49121  1  0  0  0
 50 51  1  0  0  0
 50122  1  0  0  0
 50123  1  0  0  0
 51 52  1  0  0  0
 51124  1  0  0  0
 51125  1  0  0  0
 52126  1  0  0  0
 52127  1  0  0  0
 53 54  1  0  0  0
 54 55  2  0  0  0
 54128  1  0  0  0
 55 57  1  0  0  0
 55129  1  0  0  0
 56 69  2  0  0  0
 57 58  2  0  0  0
 57130  1  0  0  0
 58131  1  0  0  0
 59 60  1  0  0  0
 59 61  1  0  0  0
 59 62  1  0  0  0
 60132  1  0  0  0
 60133  1  0  0  0
 60134  1  0  0  0
 61135  1  0  0  0
 61136  1  0  0  0
 61137  1  0  0  0
 62138  1  0  0  0
 62139  1  0  0  0
 62140  1  0  0  0
 63 65  1  0  0  0
 63141  1  0  0  0
 63142  1  0  0  0
 63143  1  0  0  0
 64144  1  0  0  0
 65145  1  0  0  0
 68 78  1  0  0  0
 71 73  2  0  0  0
 71 75  1  0  0  0
 71146  1  0  0  0
 72 75  2  0  0  0
 72 76  1  0  0  0
 72147  1  0  0  0
 73 74  1  0  0  0
 73 83  1  0  0  0
 74 76  2  0  0  0
 74 84  1  0  0  0
 75 86  1  0  0  0
 76 85  1  0  0  0
 77 78  2  0  0  0
 77 79  1  0  0  0
 77 80  1  0  0  0
 78148  1  0  0  0
 79 81  1  0  0  0
 79149  1  0  0  0
 79150  1  0  0  0
 80 84  1  0  0  0
 80151  1  0  0  0
 80152  1  0  0  0
 81 84  1  0  0  0
 81153  1  0  0  0
 81154  1  0  0  0
 82 83  1  0  0  0
 82155  1  0  0  0
 82156  1  0  0  0
 82157  1  0  0  0
 83158  1  0  0  0
 83159  1  0  0  0
 85160  1  0  0  0
 85161  1  0  0  0
 86162  1  0  0  0
M  ISO  4   1 100  68 101  78 101  86 100
M  END
> <chiral flag>
0

> <version>
0

> <s_m_source_file>
/data/baiqing/PycharmProjects/Reinvent-master-3.2/result/LINK_invent/BTK/process_docking_weight1_custom_product_contain_oxygen_bond_distance_aromatic_linkinvent_7_9_3/rearranged_h_0105.sdf

> <i_m_source_file_index>
85

> <r_mmod_Potential_Energy-OPLS-2005>
229.412612915039

> <r_mmod_Stretch_Energy-OPLS-2005>
101.88591003418

> <r_mmod_Bend_Energy-OPLS-2005>
243.613845825195

> <r_mmod_Torsional_Energy-OPLS-2005>
280.563873291016

> <r_mmod_Improper_Torsional_Energy-OPLS-2005>
10.5149240493774

> <r_mmod_Van_der_Waal_Energy-OPLS-2005>
129.402297973633

> <r_mmod_Electrostatic_Energy-OPLS-2005>
-404.496429443359

> <r_mmod_Solvation_Energy-OPLS-2005>
-211.210845947266

> <b_mmod_Minimization_Converged-OPLS-2005>
0

> <r_mmod_RMS_Derivative-OPLS-2005>
2.27134418487549

$$$$
85
                    3D
 Structure written by MMmdl.
163172  0  0  1  0            999 V2000
  -30.6192  -14.6298   20.5128 C   0  0  0  0  0  0
  -30.4360  -12.3887   19.4465 C   0  0  0  0  0  0
  -29.5022  -12.5096   18.2208 C   0  0  0  0  0  0
  -28.0247  -12.3496   18.6322 C   0  0  0  0  0  0
  -27.6524  -13.2158   19.8654 C   0  0  2  0  0  0
  -28.6964  -13.0541   20.9933 C   0  0  0  0  0  0
  -25.2526  -13.8154   20.5613 C   0  0  0  0  0  0
  -24.1816  -13.0429   20.9197 C   0  0  0  0  0  0
  -24.6392  -11.6906   20.8757 C   0  0  0  0  0  0
  -23.9063  -10.4289   21.0417 C   0  0  0  0  0  0
  -24.3615   -9.4200   21.9192 C   0  0  0  0  0  0
  -23.6294   -8.2231   22.0749 C   0  0  0  0  0  0
  -22.4277   -8.0276   21.3538 C   0  0  0  0  0  0
  -21.9911   -9.0248   20.4638 C   0  0  0  0  0  0
  -22.7236  -10.2131   20.3060 C   0  0  0  0  0  0
  -21.6852   -6.0736   22.5283 C   0  0  0  0  0  0
  -21.4004   -6.5634   23.8215 C   0  0  0  0  0  0
  -21.3661   -5.6791   24.9176 C   0  0  0  0  0  0
  -21.6051   -4.3057   24.7225 C   0  0  0  0  0  0
  -21.8820   -3.8147   23.4347 C   0  0  0  0  0  0
  -21.9188   -4.6965   22.3405 C   0  0  0  0  0  0
  -22.7839  -13.5217   21.1867 C   0  0  0  0  0  0
  -22.1661   -4.2150   21.0987 F   0  0  0  0  0  0
  -21.5636   -3.4544   25.7737 F   0  0  0  0  0  0
  -30.0149  -13.4013   20.4363 N   0  0  0  0  0  0
  -26.2977  -12.9347   20.3318 N   0  0  0  0  0  0
  -25.9322  -11.6507   20.5780 N   0  0  0  0  0  0
  -22.0491  -12.8207   22.0434 N   0  0  0  0  0  0
  -25.4167  -15.1855   20.3846 N   0  0  0  0  0  0
  -31.7688  -14.8045   20.0970 O   0  0  0  0  0  0
  -21.6639   -6.8878   21.4245 O   0  0  0  0  0  0
  -22.3518  -14.5526   20.6727 O   0  0  0  0  0  0
  -24.6258  -31.8587   23.2049 C   0  0  0  0  0  0
  -25.9112  -32.4766   23.8373 C   0  0  1  0  0  0
  -27.2188  -27.3192   20.1157 C   0  0  0  0  0  0
  -25.5934  -33.8570   24.2292 N   0  0  0  0  0  0
  -23.4201  -30.4849   21.5444 C   0  0  2  0  0  0
  -24.8653  -28.9432   20.1078 C   0  0  0  0  0  0
  -22.7483  -29.4614   22.4912 C   0  0  0  0  0  0
  -18.0303  -28.1390   22.8452 C   0  0  0  0  0  0
  -24.1494  -36.7273   23.2647 C   0  0  0  0  0  0
  -25.9622  -30.7894   21.3766 C   0  0  0  0  0  0
  -26.0344  -29.4191   20.7151 C   0  0  0  0  0  0
  -27.2140  -28.6187   20.7110 C   0  0  0  0  0  0
  -26.0300  -26.9018   19.4733 C   0  0  0  0  0  0
  -24.8652  -27.6902   19.4774 C   0  0  0  0  0  0
  -23.6342  -29.8238   20.1586 C   0  0  0  0  0  0
  -25.4116  -36.3071   24.0354 C   0  0  1  0  0  0
  -20.5900  -28.3683   23.1269 C   0  0  2  0  0  0
  -20.6790  -26.9403   22.5402 C   0  0  0  0  0  0
  -19.5770  -26.6375   21.5203 C   0  0  0  0  0  0
  -18.1944  -26.7924   22.1613 C   0  0  0  0  0  0
  -19.1557  -28.8855   23.2852 C   0  0  0  0  0  0
  -18.9478  -30.1453   23.8872 C   0  0  0  0  0  0
  -17.6481  -30.6572   24.0556 C   0  0  0  0  0  0
  -25.9053  -34.9442   23.5119 C   0  0  0  0  0  0
  -16.5363  -29.9065   23.6336 C   0  0  0  0  0  0
  -16.7292  -28.6509   23.0316 C   0  0  0  0  0  0
  -26.4500  -31.6585   25.0740 C   0  0  0  0  0  0
  -25.3737  -31.3745   26.1473 C   0  0  0  0  0  0
  -27.0375  -30.3027   24.6194 C   0  0  0  0  0  0
  -27.6057  -32.4331   25.7510 C   0  0  0  0  0  0
  -27.5581  -37.1786   24.8473 C   0  0  0  0  0  0
  -21.4201  -29.3036   22.3663 N   0  0  0  0  0  0
  -26.4284  -37.3760   23.9432 N   0  0  0  0  0  0
  -24.6883  -31.0600   22.0991 N   0  0  0  0  0  0
  -23.4214  -28.8129   23.2973 O   0  0  0  0  0  0
  -28.3295  -26.4646   20.1846 O   0  0  0  0  0  0
  -26.5586  -34.8904   22.4662 O   0  0  0  0  0  0
  -23.5417  -32.1395   23.7355 O   0  0  0  0  0  0
  -30.7945  -19.2468   19.9409 C   0  0  0  0  0  0
  -30.8138  -17.8232   20.0305 C   0  0  0  0  0  0
  -28.8714  -19.3332   21.3799 C   0  0  0  0  0  0
  -28.8913  -17.9077   21.4857 C   0  0  0  0  0  0
  -29.8328  -20.0495   20.6213 C   0  0  0  0  0  0
  -29.8709  -17.1108   20.8180 C   0  0  0  0  0  0
  -31.3124  -22.7448   22.4076 C   0  0  0  0  0  0
  -28.9415  -22.4314   20.3777 C   0  0  0  0  0  0
  -29.9965  -23.2071   23.0355 C   0  0  0  0  0  0
  -31.2829  -22.0308   21.0440 C   0  0  0  0  0  0
  -29.2324  -24.2482   22.1835 C   0  0  0  0  0  0
  -29.1570  -23.9894   20.6548 C   0  0  2  0  0  0
  -27.8531  -17.2410   22.3745 C   0  0  0  0  0  0
  -28.1067  -25.0060   20.0212 C   0  0  0  0  0  0
  -29.9463  -21.5182   20.6675 N   0  0  0  0  0  0
  -29.8229  -15.6527   20.9545 N   0  0  0  0  0  0
  -32.3820  -22.9558   22.9836 O   0  0  0  0  0  0
  -27.8541  -22.0656   19.9219 O   0  0  0  0  0  0
  -31.4757  -12.5183   19.1403 H   0  0  0  0  0  0
  -30.3766  -11.3887   19.8790 H   0  0  0  0  0  0
  -29.7606  -11.7589   17.4731 H   0  0  0  0  0  0
  -29.6460  -13.4796   17.7434 H   0  0  0  0  0  0
  -27.8544  -11.2961   18.8566 H   0  0  0  0  0  0
  -27.3710  -12.5884   17.7928 H   0  0  0  0  0  0
  -27.6750  -14.2540   19.5329 H   0  0  0  0  0  0
  -28.7048  -12.0258   21.3571 H   0  0  0  0  0  0
  -28.4377  -13.6683   21.8579 H   0  0  0  0  0  0
  -25.2756   -9.5677   22.4771 H   0  0  0  0  0  0
  -24.0005   -7.4616   22.7459 H   0  0  0  0  0  0
  -21.0850   -8.8769   19.8934 H   0  0  0  0  0  0
  -22.3696  -10.9679   19.6174 H   0  0  0  0  0  0
  -21.1993   -7.6139   23.9719 H   0  0  0  0  0  0
  -21.1483   -6.0517   25.9079 H   0  0  0  0  0  0
  -22.0597   -2.7609   23.2848 H   0  0  0  0  0  0
  -22.4100  -11.9862   22.4820 H   0  0  0  0  0  0
  -21.1108  -13.1227   22.2649 H   0  0  0  0  0  0
  -24.6333  -15.8262   20.4471 H   0  0  0  0  0  0
  -26.2424  -15.6111   19.9829 H   0  0  0  0  0  0
  -26.7171  -32.5434   23.1111 H   0  0  0  0  0  0
  -25.0158  -33.9727   25.0493 H   0  0  0  0  0  0
  -22.7150  -31.3062   21.4030 H   0  0  0  0  0  0
  -23.3759  -35.9602   23.3304 H   0  0  0  0  0  0
  -24.3594  -36.8884   22.2057 H   0  0  0  0  0  0
  -23.7245  -37.6481   23.6655 H   0  0  0  0  0  0
  -26.0948  -31.5541   20.6105 H   0  0  0  0  0  0
  -26.8425  -30.8328   22.0062 H   0  0  0  0  0  0
  -28.1081  -28.9731   21.2031 H   0  0  0  0  0  0
  -25.9696  -25.9478   18.9698 H   0  0  0  0  0  0
  -23.9713  -27.3216   18.9923 H   0  0  0  0  0  0
  -23.7522  -30.6018   19.4035 H   0  0  0  0  0  0
  -22.7541  -29.2538   19.8557 H   0  0  0  0  0  0
  -25.1286  -36.1924   25.0845 H   0  0  0  0  0  0
  -21.0003  -28.3251   24.1386 H   0  0  0  0  0  0
  -20.5710  -26.2281   23.3600 H   0  0  0  0  0  0
  -21.6653  -26.7432   22.1184 H   0  0  0  0  0  0
  -19.6940  -25.6286   21.1232 H   0  0  0  0  0  0
  -19.6723  -27.3189   20.6732 H   0  0  0  0  0  0
  -17.4219  -26.6671   21.4007 H   0  0  0  0  0  0
  -18.0332  -26.0090   22.9036 H   0  0  0  0  0  0
  -19.7956  -30.7270   24.2232 H   0  0  0  0  0  0
  -17.5027  -31.6254   24.5146 H   0  0  0  0  0  0
  -15.5356  -30.2938   23.7691 H   0  0  0  0  0  0
  -15.8701  -28.0823   22.6998 H   0  0  0  0  0  0
  -24.5906  -30.7088   25.7813 H   0  0  0  0  0  0
  -24.8926  -32.2914   26.4877 H   0  0  0  0  0  0
  -25.8053  -30.8938   27.0262 H   0  0  0  0  0  0
  -26.2964  -29.6750   24.1221 H   0  0  0  0  0  0
  -27.4104  -29.7298   25.4697 H   0  0  0  0  0  0
  -27.8809  -30.4354   23.9421 H   0  0  0  0  0  0
  -27.2676  -33.3649   26.2062 H   0  0  0  0  0  0
  -28.3873  -32.6871   25.0335 H   0  0  0  0  0  0
  -28.0719  -31.8477   26.5441 H   0  0  0  0  0  0
  -28.2573  -38.0099   24.7501 H   0  0  0  0  0  0
  -28.1093  -36.2621   24.6305 H   0  0  0  0  0  0
  -27.2295  -37.1434   25.8871 H   0  0  0  0  0  0
  -20.9386  -29.8740   21.6856 H   0  0  0  0  0  0
  -26.0171  -38.2842   24.1410 H   0  0  0  0  0  0
  -31.5600  -19.7277   19.3471 H   0  0  0  0  0  0
  -31.5791  -17.2880   19.4878 H   0  0  0  0  0  0
  -28.1320  -19.8895   21.9393 H   0  0  0  0  0  0
  -30.1962  -23.6179   24.0256 H   0  0  0  0  0  0
  -29.3747  -22.3260   23.1983 H   0  0  0  0  0  0
  -32.0051  -21.2185   21.1198 H   0  0  0  0  0  0
  -31.6762  -22.6896   20.2699 H   0  0  0  0  0  0
  -29.6751  -25.2313   22.3485 H   0  0  0  0  0  0
  -28.2199  -24.3197   22.5831 H   0  0  0  0  0  0
  -30.1123  -24.2588   20.2068 H   0  0  0  0  0  0
  -27.0912  -17.9480   22.7027 H   0  0  0  0  0  0
  -28.3276  -16.8251   23.2641 H   0  0  0  0  0  0
  -27.3446  -16.4329   21.8519 H   0  0  0  0  0  0
  -27.1393  -24.7466   20.4541 H   0  0  0  0  0  0
  -28.0262  -24.8016   18.9529 H   0  0  0  0  0  0
  -28.9696  -15.3122   21.3682 H   0  0  0  0  0  0
  1 25  1  0  0  0
  1 30  2  0  0  0
  1 86  1  0  0  0
  2  3  1  0  0  0
  2 25  1  0  0  0
  2 89  1  0  0  0
  2 90  1  0  0  0
  3  4  1  0  0  0
  3 91  1  0  0  0
  3 92  1  0  0  0
  4  5  1  0  0  0
  4 93  1  0  0  0
  4 94  1  0  0  0
  5  6  1  0  0  0
  5 26  1  0  0  0
  5 95  1  0  0  0
  6 25  1  0  0  0
  6 96  1  0  0  0
  6 97  1  0  0  0
  7  8  2  0  0  0
  7 26  1  0  0  0
  7 29  1  0  0  0
  8  9  1  0  0  0
  8 22  1  0  0  0
  9 10  1  0  0  0
  9 27  2  0  0  0
 10 11  2  0  0  0
 10 15  1  0  0  0
 11 12  1  0  0  0
 11 98  1  0  0  0
 12 13  2  0  0  0
 12 99  1  0  0  0
 13 14  1  0  0  0
 13 31  1  0  0  0
 14 15  2  0  0  0
 14100  1  0  0  0
 15101  1  0  0  0
 16 17  2  0  0  0
 16 21  1  0  0  0
 16 31  1  0  0  0
 17 18  1  0  0  0
 17102  1  0  0  0
 18 19  2  0  0  0
 18103  1  0  0  0
 19 20  1  0  0  0
 19 24  1  0  0  0
 20 21  2  0  0  0
 20104  1  0  0  0
 21 23  1  0  0  0
 22 28  1  0  0  0
 22 32  2  0  0  0
 26 27  1  0  0  0
 28105  1  0  0  0
 28106  1  0  0  0
 29107  1  0  0  0
 29108  1  0  0  0
 33 34  1  0  0  0
 33 66  1  0  0  0
 33 70  2  0  0  0
 34 36  1  0  0  0
 34 59  1  0  0  0
 34109  1  0  0  0
 35 44  2  0  0  0
 35 45  1  0  0  0
 35 68  1  0  0  0
 36 56  1  0  0  0
 36110  1  0  0  0
 37 39  1  0  0  0
 37 47  1  0  0  0
 37 66  1  0  0  0
 37111  1  0  0  0
 38 43  2  0  0  0
 38 46  1  0  0  0
 38 47  1  0  0  0
 39 64  1  0  0  0
 39 67  2  0  0  0
 40 52  1  0  0  0
 40 53  2  0  0  0
 40 58  1  0  0  0
 41112  1  0  0  0
 41113  1  0  0  0
 41114  1  0  0  0
 41 48  1  0  0  0
 42 43  1  0  0  0
 42 66  1  0  0  0
 42115  1  0  0  0
 42116  1  0  0  0
 43 44  1  0  0  0
 44117  1  0  0  0
 45 46  2  0  0  0
 45118  1  0  0  0
 46119  1  0  0  0
 47120  1  0  0  0
 47121  1  0  0  0
 48 56  1  0  0  0
 48 65  1  0  0  0
 48122  1  0  0  0
 49 50  1  0  0  0
 49 53  1  0  0  0
 49 64  1  0  0  0
 49123  1  0  0  0
 50 51  1  0  0  0
 50124  1  0  0  0
 50125  1  0  0  0
 51 52  1  0  0  0
 51126  1  0  0  0
 51127  1  0  0  0
 52128  1  0  0  0
 52129  1  0  0  0
 53 54  1  0  0  0
 54 55  2  0  0  0
 54130  1  0  0  0
 55 57  1  0  0  0
 55131  1  0  0  0
 56 69  2  0  0  0
 57 58  2  0  0  0
 57132  1  0  0  0
 58133  1  0  0  0
 59 60  1  0  0  0
 59 61  1  0  0  0
 59 62  1  0  0  0
 60134  1  0  0  0
 60135  1  0  0  0
 60136  1  0  0  0
 61137  1  0  0  0
 61138  1  0  0  0
 61139  1  0  0  0
 62140  1  0  0  0
 62141  1  0  0  0
 62142  1  0  0  0
 63 65  1  0  0  0
 63143  1  0  0  0
 63144  1  0  0  0
 63145  1  0  0  0
 64146  1  0  0  0
 65147  1  0  0  0
 68 84  1  0  0  0
 71 72  2  0  0  0
 71 75  1  0  0  0
 71148  1  0  0  0
 72 76  1  0  0  0
 72149  1  0  0  0
 73 74  1  0  0  0
 73 75  2  0  0  0
 73150  1  0  0  0
 74 76  2  0  0  0
 74 83  1  0  0  0
 75 85  1  0  0  0
 76 86  1  0  0  0
 77 79  1  0  0  0
 77 80  1  0  0  0
 77 87  2  0  0  0
 78 82  1  0  0  0
 78 85  1  0  0  0
 78 88  2  0  0  0
 79 81  1  0  0  0
 79151  1  0  0  0
 79152  1  0  0  0
 80 85  1  0  0  0
 80153  1  0  0  0
 80154  1  0  0  0
 81 82  1  0  0  0
 81155  1  0  0  0
 81156  1  0  0  0
 82 84  1  0  0  0
 82157  1  0  0  0
 83158  1  0  0  0
 83159  1  0  0  0
 83160  1  0  0  0
 84161  1  0  0  0
 84162  1  0  0  0
 86163  1  0  0  0
M  ISO  4   1 100  68 101  84 101  86 100
M  END
> <chiral flag>
0

> <version>
0

> <s_m_source_file>
/data/baiqing/PycharmProjects/Reinvent-master-3.2/result/LINK_invent/BTK/process_docking_weight1_custom_product_contain_oxygen_bond_distance_aromatic_linkinvent_7_9_3/rearranged_h_0105.sdf

> <i_m_source_file_index>
86

> <r_mmod_Potential_Energy-OPLS-2005>
73.5180206298828

> <r_mmod_Stretch_Energy-OPLS-2005>
88.4718475341797

> <r_mmod_Bend_Energy-OPLS-2005>
139.41731262207

> <r_mmod_Torsional_Energy-OPLS-2005>
275.289154052734

> <r_mmod_Improper_Torsional_Energy-OPLS-2005>
4.55470657348633

> <r_mmod_Van_der_Waal_Energy-OPLS-2005>
164.352783203125

> <r_mmod_Electrostatic_Energy-OPLS-2005>
-414.746002197266

> <r_mmod_Solvation_Energy-OPLS-2005>
-231.664215087891

> <b_mmod_Minimization_Converged-OPLS-2005>
0

> <r_mmod_RMS_Derivative-OPLS-2005>
2.07029747962952

$$$$
86
                    3D
 Structure written by MMmdl.
159167  0  0  1  0            999 V2000
  -31.3786  -14.6607   19.3487 C   0  0  0  0  0  0
  -31.2621  -12.3913   19.7382 C   0  0  0  0  0  0
  -29.9870  -12.1248   19.0571 C   0  0  0  0  0  0
  -29.0062  -13.2762   19.9495 C   0  0  0  0  0  0
  -27.0618  -14.0135   19.6816 C   0  0  2  0  0  0
  -29.5043  -14.0620   20.7109 C   0  0  0  0  0  0
  -24.7242  -14.1087   20.5919 C   0  0  0  0  0  0
  -23.8176  -13.2038   21.0212 C   0  0  0  0  0  0
  -24.2683  -11.8790   20.7872 C   0  0  0  0  0  0
  -23.7021  -10.5378   20.9877 C   0  0  0  0  0  0
  -24.1077   -9.6418   22.0005 C   0  0  0  0  0  0
  -23.4996   -8.3775   22.1518 C   0  0  0  0  0  0
  -22.3962   -8.0423   21.3382 C   0  0  0  0  0  0
  -21.9878   -8.9432   20.3420 C   0  0  0  0  0  0
  -22.6402  -10.1682   20.1557 C   0  0  0  0  0  0
  -21.6912   -6.0811   22.5371 C   0  0  0  0  0  0
  -21.3930   -6.5715   23.8313 C   0  0  0  0  0  0
  -21.3582   -5.6866   24.9252 C   0  0  0  0  0  0
  -21.6052   -4.3135   24.7275 C   0  0  0  0  0  0
  -21.8783   -3.8230   23.4407 C   0  0  0  0  0  0
  -21.9227   -4.7059   22.3480 C   0  0  0  0  0  0
  -22.4665  -13.6024   21.3488 C   0  0  0  0  0  0
  -22.1656   -4.2263   21.1055 F   0  0  0  0  0  0
  -21.5605   -3.4570   25.7768 F   0  0  0  0  0  0
  -31.0750  -13.7596   20.2335 N   0  0  0  0  0  0
  -25.5998  -13.3931   19.9506 N   0  0  0  0  0  0
  -25.1776  -12.0452   19.8891 N   0  0  0  0  0  0
  -21.8119  -12.8484   22.2073 N   0  0  0  0  0  0
  -24.9272  -15.4773   20.6024 N   0  0  0  0  0  0
  -32.2039  -15.4320   19.7576 O   0  0  0  0  0  0
  -21.6729   -6.8763   21.4223 O   0  0  0  0  0  0
  -22.0050  -14.6089   20.8238 O   0  0  0  0  0  0
  -24.6895  -31.7926   23.1525 C   0  0  0  0  0  0
  -25.9382  -32.4514   23.8125 C   0  0  1  0  0  0
  -27.0445  -26.4813   20.3165 C   0  0  0  0  0  0
  -25.5946  -33.8371   24.1971 N   0  0  0  0  0  0
  -23.5190  -30.4051   21.5026 C   0  0  2  0  0  0
  -24.9470  -28.7215   20.1280 C   0  0  0  0  0  0
  -22.7799  -29.4292   22.4582 C   0  0  0  0  0  0
  -18.0327  -28.1470   22.8391 C   0  0  0  0  0  0
  -24.1422  -36.7187   23.2660 C   0  0  0  0  0  0
  -26.1079  -30.4621   21.4501 C   0  0  0  0  0  0
  -26.1340  -29.0049   20.8104 C   0  0  0  0  0  0
  -27.1735  -27.9157   20.8694 C   0  0  0  0  0  0
  -25.8696  -26.4784   19.5263 C   0  0  0  0  0  0
  -24.8713  -27.5000   19.4541 C   0  0  0  0  0  0
  -23.7720  -29.7185   20.1361 C   0  0  0  0  0  0
  -25.4126  -36.3019   24.0296 C   0  0  1  0  0  0
  -20.5958  -28.3847   23.1079 C   0  0  2  0  0  0
  -20.6794  -26.9471   22.5422 C   0  0  0  0  0  0
  -19.5796  -26.6357   21.5219 C   0  0  0  0  0  0
  -18.1963  -26.7988   22.1570 C   0  0  0  0  0  0
  -19.1589  -28.8990   23.2699 C   0  0  0  0  0  0
  -18.9482  -30.1552   23.8783 C   0  0  0  0  0  0
  -17.6470  -30.6622   24.0560 C   0  0  0  0  0  0
  -25.9118  -34.9382   23.4990 C   0  0  0  0  0  0
  -16.5356  -29.9107   23.6373 C   0  0  0  0  0  0
  -16.7299  -28.6546   23.0351 C   0  0  0  0  0  0
  -26.4545  -31.6663   25.0828 C   0  0  0  0  0  0
  -25.3512  -31.4025   26.1368 C   0  0  0  0  0  0
  -27.0576  -30.3034   24.6880 C   0  0  0  0  0  0
  -27.6032  -32.4577   25.7585 C   0  0  0  0  0  0
  -27.5582  -37.1773   24.8458 C   0  0  0  0  0  0
  -21.4418  -29.3063   22.3376 N   0  0  0  0  0  0
  -26.4281  -37.3786   23.9419 N   0  0  0  0  0  0
  -24.7999  -30.9272   22.0845 N   0  0  0  0  0  0
  -23.4293  -28.7873   23.2878 O   0  0  0  0  0  0
  -27.8651  -25.1171   20.3645 O   0  0  0  0  0  0
  -26.5775  -34.8957   22.4609 O   0  0  0  0  0  0
  -23.5873  -32.1002   23.6371 O   0  0  0  0  0  0
  -27.3065  -11.1430   21.9818 C   0  0  0  0  0  0
  -27.2886   -9.9712   22.3263 C   0  0  0  0  0  0
  -27.5226  -12.0095   18.9099 C   0  0  0  0  0  0
  -27.4392  -14.3233   21.8219 C   0  0  0  0  0  0
  -28.4656  -15.5136   18.7550 C   0  0  0  0  0  0
  -27.3294  -12.3332   21.1375 C   0  0  0  0  0  0
  -28.2904  -13.7486   17.8262 C   0  0  0  0  0  0
  -27.8994  -15.9413   20.5641 C   0  0  0  0  0  0
  -27.1095   -8.5062   22.4086 C   0  0  0  0  0  0
  -29.7054  -14.0463   17.1435 C   0  0  0  0  0  0
  -27.7125  -21.3533   20.2242 C   0  0  0  0  0  0
  -27.5915  -23.3265   20.7639 C   0  0  0  0  0  0
  -28.1189  -19.3284   20.4710 C   0  0  0  0  0  0
  -30.9143  -14.5928   18.0059 N   0  0  0  0  0  0
  -27.6994  -17.5771   20.9095 O   0  0  0  0  0  0
  -32.1229  -12.2924   19.0707 H   0  0  0  0  0  0
  -31.4441  -11.7086   20.5701 H   0  0  0  0  0  0
  -29.7690  -11.0465   19.1563 H   0  0  0  0  0  0
  -30.1712  -12.0456   18.0029 H   0  0  0  0  0  0
  -29.2097  -12.1730   20.4010 H   0  0  0  0  0  0
  -27.9051  -13.8459   19.8147 H   0  0  0  0  0  0
  -26.5466  -14.6581   18.8965 H   0  0  0  0  0  0
  -29.6657  -13.7552   21.8096 H   0  0  0  0  0  0
  -29.8317  -15.0586   21.0574 H   0  0  0  0  0  0
  -24.8035   -9.9841   22.7459 H   0  0  0  0  0  0
  -23.8035   -7.7349   22.9639 H   0  0  0  0  0  0
  -21.1548   -8.6890   19.7045 H   0  0  0  0  0  0
  -22.2963  -10.8422   19.3851 H   0  0  0  0  0  0
  -21.1758   -7.6191   23.9823 H   0  0  0  0  0  0
  -21.1366   -6.0549   25.9157 H   0  0  0  0  0  0
  -22.0515   -2.7700   23.2874 H   0  0  0  0  0  0
  -22.2020  -11.9775   22.5440 H   0  0  0  0  0  0
  -20.9015  -13.1427   22.5449 H   0  0  0  0  0  0
  -24.3038  -16.1646   21.0013 H   0  0  0  0  0  0
  -25.7583  -15.9031   20.2053 H   0  0  0  0  0  0
  -26.7439  -32.4920   23.0801 H   0  0  0  0  0  0
  -24.9950  -33.9444   25.0038 H   0  0  0  0  0  0
  -22.8418  -31.2441   21.3258 H   0  0  0  0  0  0
  -23.3834  -35.9356   23.3236 H   0  0  0  0  0  0
  -24.3475  -36.8929   22.2087 H   0  0  0  0  0  0
  -23.6959  -37.6262   23.6760 H   0  0  0  0  0  0
  -26.3368  -31.1769   20.6628 H   0  0  0  0  0  0
  -26.9501  -30.5287   22.1285 H   0  0  0  0  0  0
  -28.0484  -28.1472   21.4538 H   0  0  0  0  0  0
  -25.6339  -25.5704   18.9913 H   0  0  0  0  0  0
  -23.9849  -27.3048   18.8727 H   0  0  0  0  0  0
  -23.9955  -30.4828   19.3932 H   0  0  0  0  0  0
  -22.8642  -29.2232   19.7804 H   0  0  0  0  0  0
  -25.1279  -36.1866   25.0797 H   0  0  0  0  0  0
  -20.9980  -28.3552   24.1226 H   0  0  0  0  0  0
  -20.5720  -26.2453   23.3711 H   0  0  0  0  0  0
  -21.6653  -26.7475   22.1209 H   0  0  0  0  0  0
  -19.6996  -25.6239   21.1344 H   0  0  0  0  0  0
  -19.6796  -27.3076   20.6688 H   0  0  0  0  0  0
  -17.4249  -26.6663   21.3952 H   0  0  0  0  0  0
  -18.0366  -26.0188   22.9023 H   0  0  0  0  0  0
  -19.7969  -30.7372   24.2117 H   0  0  0  0  0  0
  -17.5047  -31.6310   24.5166 H   0  0  0  0  0  0
  -15.5361  -30.2996   23.7811 H   0  0  0  0  0  0
  -15.8665  -28.0880   22.7118 H   0  0  0  0  0  0
  -24.5744  -30.7348   25.7588 H   0  0  0  0  0  0
  -24.8631  -32.3250   26.4544 H   0  0  0  0  0  0
  -25.7570  -30.9337   27.0324 H   0  0  0  0  0  0
  -26.3375  -29.6581   24.1835 H   0  0  0  0  0  0
  -27.3846  -29.7644   25.5769 H   0  0  0  0  0  0
  -27.9379  -30.4235   24.0569 H   0  0  0  0  0  0
  -27.2662  -33.4044   26.1824 H   0  0  0  0  0  0
  -28.3958  -32.6843   25.0444 H   0  0  0  0  0  0
  -28.0523  -31.8915   26.5733 H   0  0  0  0  0  0
  -28.2566  -38.0124   24.7688 H   0  0  0  0  0  0
  -28.1127  -36.2687   24.6071 H   0  0  0  0  0  0
  -27.2339  -37.1154   25.8867 H   0  0  0  0  0  0
  -20.9764  -29.8732   21.6390 H   0  0  0  0  0  0
  -26.0156  -38.2850   24.1498 H   0  0  0  0  0  0
  -27.5838  -11.0016   18.5145 H   0  0  0  0  0  0
  -27.2762  -14.5471   22.8678 H   0  0  0  0  0  0
  -28.8752  -16.3391   18.1903 H   0  0  0  0  0  0
  -26.7013   -8.2069   23.3734 H   0  0  0  0  0  0
  -28.0429   -7.9560   22.2314 H   0  0  0  0  0  0
  -26.3782   -8.2216   21.6391 H   0  0  0  0  0  0
  -30.0263  -13.2866   16.4309 H   0  0  0  0  0  0
  -29.5107  -14.8755   16.4658 H   0  0  0  0  0  0
  -28.5333  -21.5547   19.5404 H   0  0  0  0  0  0
  -26.8418  -21.2840   19.5791 H   0  0  0  0  0  0
  -28.0756  -23.3116   21.7430 H   0  0  0  0  0  0
  -26.5349  -23.3868   21.0203 H   0  0  0  0  0  0
  -28.1702  -19.1241   19.4042 H   0  0  0  0  0  0
  -29.1639  -19.3283   20.7969 H   0  0  0  0  0  0
  -31.4703  -15.2184   17.4402 H   0  0  0  0  0  0
  1 25  1  0  0  0
  1 30  2  0  0  0
  1 84  1  0  0  0
  2  3  1  0  0  0
  2 25  1  0  0  0
  2 86  1  0  0  0
  2 87  1  0  0  0
  3  4  1  0  0  0
  3 88  1  0  0  0
  3 89  1  0  0  0
  4  5  1  0  0  0
  4 90  1  0  0  0
  4 91  1  0  0  0
  5  6  1  0  0  0
  5 26  1  0  0  0
  5 92  1  0  0  0
  6 25  1  0  0  0
  6 93  1  0  0  0
  6 94  1  0  0  0
  7  8  2  0  0  0
  7 26  1  0  0  0
  7 29  1  0  0  0
  8  9  1  0  0  0
  8 22  1  0  0  0
  9 10  1  0  0  0
  9 27  2  0  0  0
 10 11  2  0  0  0
 10 15  1  0  0  0
 11 12  1  0  0  0
 11 95  1  0  0  0
 12 13  2  0  0  0
 12 96  1  0  0  0
 13 14  1  0  0  0
 13 31  1  0  0  0
 14 15  2  0  0  0
 14 97  1  0  0  0
 15 98  1  0  0  0
 16 17  2  0  0  0
 16 21  1  0  0  0
 16 31  1  0  0  0
 17 18  1  0  0  0
 17 99  1  0  0  0
 18 19  2  0  0  0
 18100  1  0  0  0
 19 20  1  0  0  0
 19 24  1  0  0  0
 20 21  2  0  0  0
 20101  1  0  0  0
 21 23  1  0  0  0
 22 28  1  0  0  0
 22 32  2  0  0  0
 26 27  1  0  0  0
 28102  1  0  0  0
 28103  1  0  0  0
 29104  1  0  0  0
 29105  1  0  0  0
 33 34  1  0  0  0
 33 66  1  0  0  0
 33 70  2  0  0  0
 34 36  1  0  0  0
 34 59  1  0  0  0
 34106  1  0  0  0
 35 44  2  0  0  0
 35 45  1  0  0  0
 35 68  1  0  0  0
 36 56  1  0  0  0
 36107  1  0  0  0
 37 39  1  0  0  0
 37 47  1  0  0  0
 37 66  1  0  0  0
 37108  1  0  0  0
 38 43  2  0  0  0
 38 46  1  0  0  0
 38 47  1  0  0  0
 39 64  1  0  0  0
 39 67  2  0  0  0
 40 52  1  0  0  0
 40 53  2  0  0  0
 40 58  1  0  0  0
 41109  1  0  0  0
 41110  1  0  0  0
 41111  1  0  0  0
 41 48  1  0  0  0
 42 43  1  0  0  0
 42 66  1  0  0  0
 42112  1  0  0  0
 42113  1  0  0  0
 43 44  1  0  0  0
 44114  1  0  0  0
 45 46  2  0  0  0
 45115  1  0  0  0
 46116  1  0  0  0
 47117  1  0  0  0
 47118  1  0  0  0
 48 56  1  0  0  0
 48 65  1  0  0  0
 48119  1  0  0  0
 49 50  1  0  0  0
 49 53  1  0  0  0
 49 64  1  0  0  0
 49120  1  0  0  0
 50 51  1  0  0  0
 50121  1  0  0  0
 50122  1  0  0  0
 51 52  1  0  0  0
 51123  1  0  0  0
 51124  1  0  0  0
 52125  1  0  0  0
 52126  1  0  0  0
 53 54  1  0  0  0
 54 55  2  0  0  0
 54127  1  0  0  0
 55 57  1  0  0  0
 55128  1  0  0  0
 56 69  2  0  0  0
 57 58  2  0  0  0
 57129  1  0  0  0
 58130  1  0  0  0
 59 60  1  0  0  0
 59 61  1  0  0  0
 59 62  1  0  0  0
 60131  1  0  0  0
 60132  1  0  0  0
 60133  1  0  0  0
 61134  1  0  0  0
 61135  1  0  0  0
 61136  1  0  0  0
 62137  1  0  0  0
 62138  1  0  0  0
 62139  1  0  0  0
 63 65  1  0  0  0
 63140  1  0  0  0
 63141  1  0  0  0
 63142  1  0  0  0
 64143  1  0  0  0
 65144  1  0  0  0
 68 82  1  0  0  0
 71 72  3  0  0  0
 71 76  1  0  0  0
 72 79  1  0  0  0
 73 76  2  0  0  0
 73 77  1  0  0  0
 73145  1  0  0  0
 74 76  1  0  0  0
 74 78  2  0  0  0
 74146  1  0  0  0
 75 77  2  0  0  0
 75 78  1  0  0  0
 75147  1  0  0  0
 77 80  1  0  0  0
 78 85  1  0  0  0
 79148  1  0  0  0
 79149  1  0  0  0
 79150  1  0  0  0
 80 84  1  0  0  0
 80151  1  0  0  0
 80152  1  0  0  0
 81 82  1  0  0  0
 81 83  1  0  0  0
 81153  1  0  0  0
 81154  1  0  0  0
 82155  1  0  0  0
 82156  1  0  0  0
 83 85  1  0  0  0
 83157  1  0  0  0
 83158  1  0  0  0
 84159  1  0  0  0
M  ISO  4   1 100  68 101  82 101  84 100
M  END
> <chiral flag>
0

> <version>
0

> <s_m_source_file>
/data/baiqing/PycharmProjects/Reinvent-master-3.2/result/LINK_invent/BTK/process_docking_weight1_custom_product_contain_oxygen_bond_distance_aromatic_linkinvent_7_9_3/rearranged_h_0105.sdf

> <i_m_source_file_index>
87

> <r_mmod_Potential_Energy-OPLS-2005>
18649.896484375

> <r_mmod_Stretch_Energy-OPLS-2005>
9563.087890625

> <r_mmod_Bend_Energy-OPLS-2005>
2784.65551757812

> <r_mmod_Torsional_Energy-OPLS-2005>
495.097412109375

> <r_mmod_Improper_Torsional_Energy-OPLS-2005>
40.5168800354004

> <r_mmod_Van_der_Waal_Energy-OPLS-2005>
4106.23779296875

> <r_mmod_Electrostatic_Energy-OPLS-2005>
-410.531219482422

> <r_mmod_Solvation_Energy-OPLS-2005>
-227.287734985352

> <b_mmod_Minimization_Converged-OPLS-2005>
0

> <r_mmod_RMS_Derivative-OPLS-2005>
22.5433406829834

$$$$
87
                    3D
 Structure written by MMmdl.
163172  0  0  1  0            999 V2000
  -30.6621  -14.6220   20.5891 C   0  0  0  0  0  0
  -30.4293  -12.4072   19.4568 C   0  0  0  0  0  0
  -29.5036  -12.5320   18.2281 C   0  0  0  0  0  0
  -28.0296  -12.3535   18.6381 C   0  0  0  0  0  0
  -27.6538  -13.2174   19.8704 C   0  0  2  0  0  0
  -28.6898  -13.0535   21.0031 C   0  0  0  0  0  0
  -25.2551  -13.8175   20.5695 C   0  0  0  0  0  0
  -24.1817  -13.0439   20.9187 C   0  0  0  0  0  0
  -24.6386  -11.6908   20.8735 C   0  0  0  0  0  0
  -23.9060  -10.4293   21.0406 C   0  0  0  0  0  0
  -24.3613   -9.4210   21.9185 C   0  0  0  0  0  0
  -23.6292   -8.2242   22.0750 C   0  0  0  0  0  0
  -22.4275   -8.0279   21.3540 C   0  0  0  0  0  0
  -21.9910   -9.0253   20.4642 C   0  0  0  0  0  0
  -22.7236  -10.2133   20.3052 C   0  0  0  0  0  0
  -21.6850   -6.0738   22.5283 C   0  0  0  0  0  0
  -21.4012   -6.5641   23.8217 C   0  0  0  0  0  0
  -21.3659   -5.6792   24.9179 C   0  0  0  0  0  0
  -21.6046   -4.3055   24.7228 C   0  0  0  0  0  0
  -21.8818   -3.8147   23.4348 C   0  0  0  0  0  0
  -21.9191   -4.6966   22.3405 C   0  0  0  0  0  0
  -22.7839  -13.5227   21.1867 C   0  0  0  0  0  0
  -22.1658   -4.2152   21.0983 F   0  0  0  0  0  0
  -21.5632   -3.4537   25.7740 F   0  0  0  0  0  0
  -30.0128  -13.4124   20.4611 N   0  0  0  0  0  0
  -26.2980  -12.9359   20.3332 N   0  0  0  0  0  0
  -25.9313  -11.6509   20.5745 N   0  0  0  0  0  0
  -22.0483  -12.8210   22.0419 N   0  0  0  0  0  0
  -25.4280  -15.1897   20.4129 N   0  0  0  0  0  0
  -31.7148  -14.8491   19.9815 O   0  0  0  0  0  0
  -21.6635   -6.8881   21.4245 O   0  0  0  0  0  0
  -22.3522  -14.5538   20.6730 O   0  0  0  0  0  0
  -24.6246  -31.8579   23.1991 C   0  0  0  0  0  0
  -25.9096  -32.4757   23.8333 C   0  0  1  0  0  0
  -27.2352  -27.3157   20.1196 C   0  0  0  0  0  0
  -25.5912  -33.8558   24.2267 N   0  0  0  0  0  0
  -23.4194  -30.4767   21.5411 C   0  0  2  0  0  0
  -24.8674  -28.9215   20.1118 C   0  0  0  0  0  0
  -22.7466  -29.4611   22.4940 C   0  0  0  0  0  0
  -18.0281  -28.1383   22.8482 C   0  0  0  0  0  0
  -24.1493  -36.7288   23.2644 C   0  0  0  0  0  0
  -25.9579  -30.7864   21.3698 C   0  0  0  0  0  0
  -26.0318  -29.4111   20.7149 C   0  0  0  0  0  0
  -27.2135  -28.6172   20.7094 C   0  0  0  0  0  0
  -26.0477  -26.8661   19.5034 C   0  0  0  0  0  0
  -24.8767  -27.6550   19.4994 C   0  0  0  0  0  0
  -23.6343  -29.8013   20.1594 C   0  0  0  0  0  0
  -25.4115  -36.3069   24.0334 C   0  0  1  0  0  0
  -20.5879  -28.3688   23.1280 C   0  0  2  0  0  0
  -20.6771  -26.9412   22.5413 C   0  0  0  0  0  0
  -19.5754  -26.6381   21.5208 C   0  0  0  0  0  0
  -18.1928  -26.7928   22.1615 C   0  0  0  0  0  0
  -19.1534  -28.8852   23.2874 C   0  0  0  0  0  0
  -18.9466  -30.1453   23.8895 C   0  0  0  0  0  0
  -17.6468  -30.6588   24.0563 C   0  0  0  0  0  0
  -25.9050  -34.9437   23.5105 C   0  0  0  0  0  0
  -16.5355  -29.9089   23.6333 C   0  0  0  0  0  0
  -16.7271  -28.6503   23.0358 C   0  0  0  0  0  0
  -26.4496  -31.6565   25.0700 C   0  0  0  0  0  0
  -25.3736  -31.3694   26.1435 C   0  0  0  0  0  0
  -27.0368  -30.2997   24.6149 C   0  0  0  0  0  0
  -27.6057  -32.4307   25.7465 C   0  0  0  0  0  0
  -27.5581  -37.1790   24.8467 C   0  0  0  0  0  0
  -21.4181  -29.3037   22.3675 N   0  0  0  0  0  0
  -26.4297  -37.3760   23.9405 N   0  0  0  0  0  0
  -24.6860  -31.0582   22.0939 N   0  0  0  0  0  0
  -23.4187  -28.8170   23.3039 O   0  0  0  0  0  0
  -28.3915  -26.5283   20.1889 O   0  0  0  0  0  0
  -26.5626  -34.8907   22.4675 O   0  0  0  0  0  0
  -23.5409  -32.1388   23.7314 O   0  0  0  0  0  0
  -30.0162  -17.9076   20.2559 C   0  0  0  0  0  0
  -29.5718  -19.2690   20.0737 C   0  0  0  0  0  0
  -28.2834  -19.0824   22.0630 C   0  0  0  0  0  0
  -29.6061  -17.0743   21.3461 C   0  0  0  0  0  0
  -28.6765  -19.9163   20.9800 C   0  0  0  0  0  0
  -28.6892  -17.7319   22.2366 C   0  0  0  0  0  0
  -27.0361  -23.6345   22.8923 C   0  0  0  0  0  0
  -28.6756  -22.4383   20.3172 C   0  0  0  0  0  0
  -30.1606  -15.6420   21.6633 C   0  0  0  0  0  0
  -26.8150  -22.1204   22.8958 C   0  0  0  0  0  0
  -28.2024  -24.1885   22.0802 C   0  0  0  0  0  0
  -26.7639  -21.4738   21.4880 C   0  0  0  0  0  0
  -28.0293  -23.8875   20.5769 C   0  0  1  0  0  0
  -28.5123  -25.1335   19.6973 C   0  0  0  0  0  0
  -30.2627  -15.2614   22.8717 N   0  0  0  0  0  0
  -28.1000  -21.2941   20.8676 N   0  0  0  0  0  0
  -28.1204  -17.0962   23.3474 N   0  0  0  0  0  0
  -26.3034  -24.3839   23.5397 O   0  0  0  0  0  0
  -29.7108  -22.3784   19.6485 O   0  0  0  0  0  0
  -31.4720  -12.5263   19.1584 H   0  0  0  0  0  0
  -30.3617  -11.4055   19.8838 H   0  0  0  0  0  0
  -29.7749  -11.7916   17.4743 H   0  0  0  0  0  0
  -29.6406  -13.5093   17.7630 H   0  0  0  0  0  0
  -27.8757  -11.2984   18.8685 H   0  0  0  0  0  0
  -27.3709  -12.5806   17.7991 H   0  0  0  0  0  0
  -27.6811  -14.2577   19.5451 H   0  0  0  0  0  0
  -28.7015  -12.0237   21.3627 H   0  0  0  0  0  0
  -28.3951  -13.6545   21.8621 H   0  0  0  0  0  0
  -25.2758   -9.5690   22.4761 H   0  0  0  0  0  0
  -24.0005   -7.4632   22.7466 H   0  0  0  0  0  0
  -21.0843   -8.8772   19.8944 H   0  0  0  0  0  0
  -22.3698  -10.9672   19.6159 H   0  0  0  0  0  0
  -21.1999   -7.6146   23.9725 H   0  0  0  0  0  0
  -21.1485   -6.0520   25.9085 H   0  0  0  0  0  0
  -22.0597   -2.7609   23.2849 H   0  0  0  0  0  0
  -22.4083  -11.9857   22.4794 H   0  0  0  0  0  0
  -21.1105  -13.1239   22.2633 H   0  0  0  0  0  0
  -24.6699  -15.8508   20.5412 H   0  0  0  0  0  0
  -26.2924  -15.6315   20.1268 H   0  0  0  0  0  0
  -26.7155  -32.5432   23.1076 H   0  0  0  0  0  0
  -25.0043  -33.9695   25.0402 H   0  0  0  0  0  0
  -22.7137  -31.2968   21.3920 H   0  0  0  0  0  0
  -23.3752  -35.9625   23.3304 H   0  0  0  0  0  0
  -24.3588  -36.8913   22.2061 H   0  0  0  0  0  0
  -23.7252  -37.6489   23.6674 H   0  0  0  0  0  0
  -26.0892  -31.5498   20.6013 H   0  0  0  0  0  0
  -26.8388  -30.8376   21.9986 H   0  0  0  0  0  0
  -28.1096  -28.9886   21.1870 H   0  0  0  0  0  0
  -26.0031  -25.8924   19.0392 H   0  0  0  0  0  0
  -23.9804  -27.2718   19.0308 H   0  0  0  0  0  0
  -23.7501  -30.5736   19.3983 H   0  0  0  0  0  0
  -22.7560  -29.2255   19.8614 H   0  0  0  0  0  0
  -25.1292  -36.1930   25.0828 H   0  0  0  0  0  0
  -20.9960  -28.3274   24.1403 H   0  0  0  0  0  0
  -20.5672  -26.2299   23.3615 H   0  0  0  0  0  0
  -21.6643  -26.7444   22.1208 H   0  0  0  0  0  0
  -19.6927  -25.6291   21.1243 H   0  0  0  0  0  0
  -19.6698  -27.3187   20.6736 H   0  0  0  0  0  0
  -17.4200  -26.6674   21.4014 H   0  0  0  0  0  0
  -18.0325  -26.0070   22.9008 H   0  0  0  0  0  0
  -19.7948  -30.7256   24.2268 H   0  0  0  0  0  0
  -17.5033  -31.6269   24.5169 H   0  0  0  0  0  0
  -15.5359  -30.2996   23.7661 H   0  0  0  0  0  0
  -15.8666  -28.0820   22.7088 H   0  0  0  0  0  0
  -24.5915  -30.7037   25.7763 H   0  0  0  0  0  0
  -24.8920  -32.2856   26.4863 H   0  0  0  0  0  0
  -25.8066  -30.8873   27.0210 H   0  0  0  0  0  0
  -26.2949  -29.6699   24.1224 H   0  0  0  0  0  0
  -27.4147  -29.7286   25.4640 H   0  0  0  0  0  0
  -27.8770  -30.4298   23.9324 H   0  0  0  0  0  0
  -27.2675  -33.3616   26.2030 H   0  0  0  0  0  0
  -28.3866  -32.6853   25.0285 H   0  0  0  0  0  0
  -28.0732  -31.8445   26.5386 H   0  0  0  0  0  0
  -28.2592  -38.0092   24.7510 H   0  0  0  0  0  0
  -28.1084  -36.2619   24.6299 H   0  0  0  0  0  0
  -27.2298  -37.1442   25.8871 H   0  0  0  0  0  0
  -20.9372  -29.8734   21.6851 H   0  0  0  0  0  0
  -26.0183  -38.2840   24.1397 H   0  0  0  0  0  0
  -30.7149  -17.5040   19.5370 H   0  0  0  0  0  0
  -29.9306  -19.8106   19.2098 H   0  0  0  0  0  0
  -27.6266  -19.4802   22.8207 H   0  0  0  0  0  0
  -25.8701  -21.9321   23.4056 H   0  0  0  0  0  0
  -27.5891  -21.6547   23.5057 H   0  0  0  0  0  0
  -29.1359  -23.7761   22.4643 H   0  0  0  0  0  0
  -28.2493  -25.2621   22.2568 H   0  0  0  0  0  0
  -26.0893  -22.0200   20.8295 H   0  0  0  0  0  0
  -26.2395  -20.5211   21.5548 H   0  0  0  0  0  0
  -26.9680  -23.8446   20.3404 H   0  0  0  0  0  0
  -28.0759  -25.0650   18.7003 H   0  0  0  0  0  0
  -29.5818  -25.0112   19.5261 H   0  0  0  0  0  0
  -29.9100  -15.9995   23.4767 H   0  0  0  0  0  0
  -27.3279  -17.5411   23.7982 H   0  0  0  0  0  0
  -28.0165  -16.0867   23.3140 H   0  0  0  0  0  0
  1 25  1  0  0  0
  1 30  2  0  0  0
  1 79  1  0  0  0
  2  3  1  0  0  0
  2 25  1  0  0  0
  2 90  1  0  0  0
  2 91  1  0  0  0
  3  4  1  0  0  0
  3 92  1  0  0  0
  3 93  1  0  0  0
  4  5  1  0  0  0
  4 94  1  0  0  0
  4 95  1  0  0  0
  5  6  1  0  0  0
  5 26  1  0  0  0
  5 96  1  0  0  0
  6 25  1  0  0  0
  6 97  1  0  0  0
  6 98  1  0  0  0
  7  8  2  0  0  0
  7 26  1  0  0  0
  7 29  1  0  0  0
  8  9  1  0  0  0
  8 22  1  0  0  0
  9 10  1  0  0  0
  9 27  2  0  0  0
 10 11  2  0  0  0
 10 15  1  0  0  0
 11 12  1  0  0  0
 11 99  1  0  0  0
 12 13  2  0  0  0
 12100  1  0  0  0
 13 14  1  0  0  0
 13 31  1  0  0  0
 14 15  2  0  0  0
 14101  1  0  0  0
 15102  1  0  0  0
 16 17  2  0  0  0
 16 21  1  0  0  0
 16 31  1  0  0  0
 17 18  1  0  0  0
 17103  1  0  0  0
 18 19  2  0  0  0
 18104  1  0  0  0
 19 20  1  0  0  0
 19 24  1  0  0  0
 20 21  2  0  0  0
 20105  1  0  0  0
 21 23  1  0  0  0
 22 28  1  0  0  0
 22 32  2  0  0  0
 26 27  1  0  0  0
 28106  1  0  0  0
 28107  1  0  0  0
 29108  1  0  0  0
 29109  1  0  0  0
 33 34  1  0  0  0
 33 66  1  0  0  0
 33 70  2  0  0  0
 34 36  1  0  0  0
 34 59  1  0  0  0
 34110  1  0  0  0
 35 44  2  0  0  0
 35 45  1  0  0  0
 35 68  1  0  0  0
 36 56  1  0  0  0
 36111  1  0  0  0
 37 39  1  0  0  0
 37 47  1  0  0  0
 37 66  1  0  0  0
 37112  1  0  0  0
 38 43  2  0  0  0
 38 46  1  0  0  0
 38 47  1  0  0  0
 39 64  1  0  0  0
 39 67  2  0  0  0
 40 52  1  0  0  0
 40 53  2  0  0  0
 40 58  1  0  0  0
 41113  1  0  0  0
 41114  1  0  0  0
 41115  1  0  0  0
 41 48  1  0  0  0
 42 43  1  0  0  0
 42 66  1  0  0  0
 42116  1  0  0  0
 42117  1  0  0  0
 43 44  1  0  0  0
 44118  1  0  0  0
 45 46  2  0  0  0
 45119  1  0  0  0
 46120  1  0  0  0
 47121  1  0  0  0
 47122  1  0  0  0
 48 56  1  0  0  0
 48 65  1  0  0  0
 48123  1  0  0  0
 49 50  1  0  0  0
 49 53  1  0  0  0
 49 64  1  0  0  0
 49124  1  0  0  0
 50 51  1  0  0  0
 50125  1  0  0  0
 50126  1  0  0  0
 51 52  1  0  0  0
 51127  1  0  0  0
 51128  1  0  0  0
 52129  1  0  0  0
 52130  1  0  0  0
 53 54  1  0  0  0
 54 55  2  0  0  0
 54131  1  0  0  0
 55 57  1  0  0  0
 55132  1  0  0  0
 56 69  2  0  0  0
 57 58  2  0  0  0
 57133  1  0  0  0
 58134  1  0  0  0
 59 60  1  0  0  0
 59 61  1  0  0  0
 59 62  1  0  0  0
 60135  1  0  0  0
 60136  1  0  0  0
 60137  1  0  0  0
 61138  1  0  0  0
 61139  1  0  0  0
 61140  1  0  0  0
 62141  1  0  0  0
 62142  1  0  0  0
 62143  1  0  0  0
 63 65  1  0  0  0
 63144  1  0  0  0
 63145  1  0  0  0
 63146  1  0  0  0
 64147  1  0  0  0
 65148  1  0  0  0
 68 84  1  0  0  0
 71 72  2  0  0  0
 71 74  1  0  0  0
 71149  1  0  0  0
 72 75  1  0  0  0
 72150  1  0  0  0
 73 75  2  0  0  0
 73 76  1  0  0  0
 73151  1  0  0  0
 74 76  2  0  0  0
 74 79  1  0  0  0
 75 86  1  0  0  0
 76 87  1  0  0  0
 77 80  1  0  0  0
 77 81  1  0  0  0
 77 88  2  0  0  0
 78 83  1  0  0  0
 78 86  1  0  0  0
 78 89  2  0  0  0
 79 85  2  0  0  0
 80 82  1  0  0  0
 80152  1  0  0  0
 80153  1  0  0  0
 81 83  1  0  0  0
 81154  1  0  0  0
 81155  1  0  0  0
 82 86  1  0  0  0
 82156  1  0  0  0
 82157  1  0  0  0
 83 84  1  0  0  0
 83158  1  0  0  0
 84159  1  0  0  0
 84160  1  0  0  0
 85161  1  0  0  0
 87162  1  0  0  0
 87163  1  0  0  0
M  ISO  4   1 100  68 101  79 100  84 101
M  END
> <chiral flag>
0

> <version>
0

> <s_m_source_file>
/data/baiqing/PycharmProjects/Reinvent-master-3.2/result/LINK_invent/BTK/process_docking_weight1_custom_product_contain_oxygen_bond_distance_aromatic_linkinvent_7_9_3/rearranged_h_0105.sdf

> <i_m_source_file_index>
88

> <r_mmod_Potential_Energy-OPLS-2005>
320.679382324219

> <r_mmod_Stretch_Energy-OPLS-2005>
117.099243164062

> <r_mmod_Bend_Energy-OPLS-2005>
193.861907958984

> <r_mmod_Torsional_Energy-OPLS-2005>
259.527709960938

> <r_mmod_Improper_Torsional_Energy-OPLS-2005>
7.77020406723022

> <r_mmod_Van_der_Waal_Energy-OPLS-2005>
169.495315551758

> <r_mmod_Electrostatic_Energy-OPLS-2005>
-235.284942626953

> <r_mmod_Solvation_Energy-OPLS-2005>
-236.625915527344

> <b_mmod_Minimization_Converged-OPLS-2005>
0

> <r_mmod_RMS_Derivative-OPLS-2005>
0.888896048069

$$$$
88
                    3D
 Structure written by MMmdl.
156164  0  0  1  0            999 V2000
  -30.6430  -14.5348   20.5612 C   0  0  0  0  0  0
  -30.4336  -12.3395   19.4272 C   0  0  0  0  0  0
  -29.5008  -12.5256   18.2082 C   0  0  0  0  0  0
  -28.0187  -12.3821   18.6132 C   0  0  0  0  0  0
  -27.6622  -13.2063   19.8787 C   0  0  2  0  0  0
  -28.7046  -12.9755   20.9948 C   0  0  0  0  0  0
  -25.2606  -13.8138   20.5697 C   0  0  0  0  0  0
  -24.1843  -13.0421   20.9158 C   0  0  0  0  0  0
  -24.6382  -11.6882   20.8695 C   0  0  0  0  0  0
  -23.9028  -10.4280   21.0375 C   0  0  0  0  0  0
  -24.3585   -9.4218   21.9171 C   0  0  0  0  0  0
  -23.6274   -8.2248   22.0748 C   0  0  0  0  0  0
  -22.4258   -8.0273   21.3542 C   0  0  0  0  0  0
  -21.9877   -9.0237   20.4644 C   0  0  0  0  0  0
  -22.7188  -10.2121   20.3046 C   0  0  0  0  0  0
  -21.6859   -6.0715   22.5272 C   0  0  0  0  0  0
  -21.4018   -6.5617   23.8201 C   0  0  0  0  0  0
  -21.3670   -5.6779   24.9168 C   0  0  0  0  0  0
  -21.6042   -4.3041   24.7222 C   0  0  0  0  0  0
  -21.8826   -3.8125   23.4347 C   0  0  0  0  0  0
  -21.9196   -4.6942   22.3399 C   0  0  0  0  0  0
  -22.7874  -13.5251   21.1812 C   0  0  0  0  0  0
  -22.1674   -4.2118   21.0984 F   0  0  0  0  0  0
  -21.5629   -3.4535   25.7747 F   0  0  0  0  0  0
  -30.0338  -13.3166   20.4566 N   0  0  0  0  0  0
  -26.3033  -12.9296   20.3380 N   0  0  0  0  0  0
  -25.9309  -11.6451   20.5710 N   0  0  0  0  0  0
  -22.0518  -12.8267   22.0384 N   0  0  0  0  0  0
  -25.4323  -15.1858   20.4147 N   0  0  0  0  0  0
  -31.7490  -14.7661   20.0605 O   0  0  0  0  0  0
  -21.6643   -6.8863   21.4240 O   0  0  0  0  0  0
  -22.3567  -14.5548   20.6637 O   0  0  0  0  0  0
  -24.6202  -31.8658   23.2065 C   0  0  0  0  0  0
  -25.9088  -32.4808   23.8367 C   0  0  1  0  0  0
  -27.2305  -27.3822   20.1233 C   0  0  0  0  0  0
  -25.5927  -33.8596   24.2323 N   0  0  0  0  0  0
  -23.4103  -30.4877   21.5487 C   0  0  2  0  0  0
  -24.8616  -28.9440   20.1189 C   0  0  0  0  0  0
  -22.7436  -29.4662   22.4977 C   0  0  0  0  0  0
  -18.0288  -28.1371   22.8464 C   0  0  0  0  0  0
  -24.1487  -36.7310   23.2628 C   0  0  0  0  0  0
  -25.9440  -30.8101   21.3729 C   0  0  0  0  0  0
  -26.0215  -29.4370   20.7327 C   0  0  0  0  0  0
  -27.2109  -28.6617   20.7387 C   0  0  0  0  0  0
  -26.0668  -26.9344   19.4681 C   0  0  0  0  0  0
  -24.8814  -27.6922   19.4810 C   0  0  0  0  0  0
  -23.6248  -29.8159   20.1656 C   0  0  0  0  0  0
  -25.4111  -36.3107   24.0333 C   0  0  1  0  0  0
  -20.5883  -28.3688   23.1312 C   0  0  2  0  0  0
  -20.6792  -26.9429   22.5421 C   0  0  0  0  0  0
  -19.5779  -26.6382   21.5225 C   0  0  0  0  0  0
  -18.1944  -26.7920   22.1611 C   0  0  0  0  0  0
  -19.1536  -28.8842   23.2867 C   0  0  0  0  0  0
  -18.9444  -30.1455   23.8862 C   0  0  0  0  0  0
  -17.6444  -30.6577   24.0512 C   0  0  0  0  0  0
  -25.9043  -34.9469   23.5126 C   0  0  0  0  0  0
  -16.5341  -29.9069   23.6295 C   0  0  0  0  0  0
  -16.7271  -28.6488   23.0337 C   0  0  0  0  0  0
  -26.4502  -31.6590   25.0713 C   0  0  0  0  0  0
  -25.3755  -31.3704   26.1454 C   0  0  0  0  0  0
  -27.0330  -30.3019   24.6110 C   0  0  0  0  0  0
  -27.6074  -32.4302   25.7486 C   0  0  0  0  0  0
  -27.5585  -37.1810   24.8461 C   0  0  0  0  0  0
  -21.4160  -29.3048   22.3711 N   0  0  0  0  0  0
  -26.4295  -37.3798   23.9409 N   0  0  0  0  0  0
  -24.6758  -31.0710   22.1006 N   0  0  0  0  0  0
  -23.4192  -28.8209   23.3044 O   0  0  0  0  0  0
  -28.3568  -26.5772   20.0618 O   0  0  0  0  0  0
  -26.5586  -34.8927   22.4676 O   0  0  0  0  0  0
  -23.5382  -32.1438   23.7434 O   0  0  0  0  0  0
  -28.7248  -19.0307   21.6595 C   0  0  0  0  0  0
  -29.0584  -17.6744   21.9004 C   0  0  0  0  0  0
  -30.1988  -17.5647   19.7699 C   0  0  0  0  0  0
  -29.0886  -19.6726   20.4532 C   0  0  0  0  0  0
  -29.7766  -16.9034   20.9536 C   0  0  0  0  0  0
  -29.8542  -18.9221   19.5213 C   0  0  0  0  0  0
  -27.5973  -24.4376   21.3179 C   0  0  0  0  0  0
  -26.2715  -24.9060   21.8882 C   0  0  0  0  0  0
  -28.4761  -21.0513   20.0850 C   0  0  0  0  0  0
  -28.6206  -25.5958   21.1114 C   0  0  0  0  0  0
  -28.9055  -22.3576   20.8467 C   0  0  0  0  0  0
  -27.7103  -23.1574   21.1642 N   0  0  0  0  0  0
  -29.9237  -15.4868   21.2059 N   0  0  0  0  0  0
  -30.2127  -19.4824   18.3401 F   0  0  0  0  0  0
  -31.4773  -12.4592   19.1299 H   0  0  0  0  0  0
  -30.3537  -11.3238   19.8198 H   0  0  0  0  0  0
  -29.7432  -11.8002   17.4298 H   0  0  0  0  0  0
  -29.6677  -13.5093   17.7646 H   0  0  0  0  0  0
  -27.8251  -11.3235   18.7938 H   0  0  0  0  0  0
  -27.3712  -12.6720   17.7853 H   0  0  0  0  0  0
  -27.7040  -14.2573   19.5922 H   0  0  0  0  0  0
  -28.6924  -11.9284   21.3034 H   0  0  0  0  0  0
  -28.4501  -13.5429   21.8902 H   0  0  0  0  0  0
  -25.2733   -9.5707   22.4746 H   0  0  0  0  0  0
  -23.9984   -7.4642   22.7467 H   0  0  0  0  0  0
  -21.0808   -8.8741   19.8961 H   0  0  0  0  0  0
  -22.3631  -10.9652   19.6153 H   0  0  0  0  0  0
  -21.2020   -7.6127   23.9693 H   0  0  0  0  0  0
  -21.1489   -6.0515   25.9068 H   0  0  0  0  0  0
  -22.0594   -2.7589   23.2857 H   0  0  0  0  0  0
  -22.4119  -11.9945   22.4818 H   0  0  0  0  0  0
  -21.1129  -13.1300   22.2545 H   0  0  0  0  0  0
  -24.6663  -15.8411   20.5254 H   0  0  0  0  0  0
  -26.2917  -15.6296   20.1139 H   0  0  0  0  0  0
  -26.7166  -32.5531   23.1131 H   0  0  0  0  0  0
  -25.0133  -33.9745   25.0501 H   0  0  0  0  0  0
  -22.7029  -31.3072   21.4039 H   0  0  0  0  0  0
  -23.3747  -35.9644   23.3301 H   0  0  0  0  0  0
  -24.3556  -36.8899   22.2029 H   0  0  0  0  0  0
  -23.7232  -37.6515   23.6638 H   0  0  0  0  0  0
  -26.0585  -31.5632   20.5920 H   0  0  0  0  0  0
  -26.8296  -30.8712   21.9927 H   0  0  0  0  0  0
  -28.1053  -29.0396   21.2139 H   0  0  0  0  0  0
  -26.0764  -25.9816   18.9581 H   0  0  0  0  0  0
  -23.9964  -27.3135   18.9896 H   0  0  0  0  0  0
  -23.7372  -30.5870   19.4025 H   0  0  0  0  0  0
  -22.7488  -29.2355   19.8708 H   0  0  0  0  0  0
  -25.1288  -36.1980   25.0824 H   0  0  0  0  0  0
  -20.9972  -28.3269   24.1438 H   0  0  0  0  0  0
  -20.5711  -26.2336   23.3626 H   0  0  0  0  0  0
  -21.6662  -26.7460   22.1199 H   0  0  0  0  0  0
  -19.6724  -27.3196   20.6759 H   0  0  0  0  0  0
  -19.6974  -25.6295   21.1251 H   0  0  0  0  0  0
  -17.4245  -26.6649   21.3977 H   0  0  0  0  0  0
  -18.0316  -26.0073   22.9010 H   0  0  0  0  0  0
  -19.7914  -30.7276   24.2220 H   0  0  0  0  0  0
  -17.4996  -31.6269   24.5094 H   0  0  0  0  0  0
  -15.5332  -30.2949   23.7618 H   0  0  0  0  0  0
  -15.8679  -28.0789   22.7067 H   0  0  0  0  0  0
  -24.5947  -30.7035   25.7787 H   0  0  0  0  0  0
  -24.8931  -32.2856   26.4898 H   0  0  0  0  0  0
  -25.8090  -30.8882   27.0221 H   0  0  0  0  0  0
  -26.2874  -29.6784   24.1159 H   0  0  0  0  0  0
  -27.4074  -29.7265   25.4585 H   0  0  0  0  0  0
  -27.8740  -30.4313   23.9286 H   0  0  0  0  0  0
  -27.2703  -33.3593   26.2093 H   0  0  0  0  0  0
  -28.3880  -32.6851   25.0312 H   0  0  0  0  0  0
  -28.0764  -31.8406   26.5372 H   0  0  0  0  0  0
  -28.2619  -38.0099   24.7524 H   0  0  0  0  0  0
  -28.1075  -36.2622   24.6301 H   0  0  0  0  0  0
  -27.2295  -37.1483   25.8864 H   0  0  0  0  0  0
  -20.9312  -29.8783   21.6948 H   0  0  0  0  0  0
  -26.0193  -38.2879   24.1406 H   0  0  0  0  0  0
  -28.1200  -19.5583   22.3843 H   0  0  0  0  0  0
  -28.7064  -17.2128   22.8119 H   0  0  0  0  0  0
  -30.7347  -17.0238   19.0043 H   0  0  0  0  0  0
  -25.4860  -24.8173   21.1388 H   0  0  0  0  0  0
  -26.3220  -25.9396   22.2308 H   0  0  0  0  0  0
  -25.9919  -24.2950   22.7469 H   0  0  0  0  0  0
  -27.4029  -20.9086   20.2168 H   0  0  0  0  0  0
  -28.5938  -21.2221   19.0140 H   0  0  0  0  0  0
  -29.6018  -25.1646   20.9150 H   0  0  0  0  0  0
  -28.7265  -26.1310   22.0552 H   0  0  0  0  0  0
  -29.6509  -22.9132   20.2752 H   0  0  0  0  0  0
  -29.3877  -22.0700   21.7833 H   0  0  0  0  0  0
  -29.1982  -15.0941   21.7876 H   0  0  0  0  0  0
  1 25  1  0  0  0
  1 30  2  0  0  0
  1 83  1  0  0  0
  2  3  1  0  0  0
  2 25  1  0  0  0
  2 85  1  0  0  0
  2 86  1  0  0  0
  3  4  1  0  0  0
  3 87  1  0  0  0
  3 88  1  0  0  0
  4  5  1  0  0  0
  4 89  1  0  0  0
  4 90  1  0  0  0
  5  6  1  0  0  0
  5 26  1  0  0  0
  5 91  1  0  0  0
  6 25  1  0  0  0
  6 92  1  0  0  0
  6 93  1  0  0  0
  7  8  2  0  0  0
  7 26  1  0  0  0
  7 29  1  0  0  0
  8  9  1  0  0  0
  8 22  1  0  0  0
  9 10  1  0  0  0
  9 27  2  0  0  0
 10 11  2  0  0  0
 10 15  1  0  0  0
 11 12  1  0  0  0
 11 94  1  0  0  0
 12 13  2  0  0  0
 12 95  1  0  0  0
 13 14  1  0  0  0
 13 31  1  0  0  0
 14 15  2  0  0  0
 14 96  1  0  0  0
 15 97  1  0  0  0
 16 17  2  0  0  0
 16 21  1  0  0  0
 16 31  1  0  0  0
 17 18  1  0  0  0
 17 98  1  0  0  0
 18 19  2  0  0  0
 18 99  1  0  0  0
 19 20  1  0  0  0
 19 24  1  0  0  0
 20 21  2  0  0  0
 20100  1  0  0  0
 21 23  1  0  0  0
 22 28  1  0  0  0
 22 32  2  0  0  0
 26 27  1  0  0  0
 28101  1  0  0  0
 28102  1  0  0  0
 29103  1  0  0  0
 29104  1  0  0  0
 33 34  1  0  0  0
 33 66  1  0  0  0
 33 70  2  0  0  0
 34 36  1  0  0  0
 34 59  1  0  0  0
 34105  1  0  0  0
 35 44  2  0  0  0
 35 45  1  0  0  0
 35 68  1  0  0  0
 36 56  1  0  0  0
 36106  1  0  0  0
 37 39  1  0  0  0
 37 47  1  0  0  0
 37 66  1  0  0  0
 37107  1  0  0  0
 38 43  2  0  0  0
 38 46  1  0  0  0
 38 47  1  0  0  0
 39 64  1  0  0  0
 39 67  2  0  0  0
 40 52  1  0  0  0
 40 53  2  0  0  0
 40 58  1  0  0  0
 41108  1  0  0  0
 41109  1  0  0  0
 41110  1  0  0  0
 41 48  1  0  0  0
 42 43  1  0  0  0
 42 66  1  0  0  0
 42111  1  0  0  0
 42112  1  0  0  0
 43 44  1  0  0  0
 44113  1  0  0  0
 45 46  2  0  0  0
 45114  1  0  0  0
 46115  1  0  0  0
 47116  1  0  0  0
 47117  1  0  0  0
 48 56  1  0  0  0
 48 65  1  0  0  0
 48118  1  0  0  0
 49 50  1  0  0  0
 49 53  1  0  0  0
 49 64  1  0  0  0
 49119  1  0  0  0
 50 51  1  0  0  0
 50120  1  0  0  0
 50121  1  0  0  0
 51 52  1  0  0  0
 51122  1  0  0  0
 51123  1  0  0  0
 52124  1  0  0  0
 52125  1  0  0  0
 53 54  1  0  0  0
 54 55  2  0  0  0
 54126  1  0  0  0
 55 57  1  0  0  0
 55127  1  0  0  0
 56 69  2  0  0  0
 57 58  2  0  0  0
 57128  1  0  0  0
 58129  1  0  0  0
 59 60  1  0  0  0
 59 61  1  0  0  0
 59 62  1  0  0  0
 60130  1  0  0  0
 60131  1  0  0  0
 60132  1  0  0  0
 61133  1  0  0  0
 61134  1  0  0  0
 61135  1  0  0  0
 62136  1  0  0  0
 62137  1  0  0  0
 62138  1  0  0  0
 63 65  1  0  0  0
 63139  1  0  0  0
 63140  1  0  0  0
 63141  1  0  0  0
 64142  1  0  0  0
 65143  1  0  0  0
 68 80  1  0  0  0
 71 72  2  0  0  0
 71 74  1  0  0  0
 71144  1  0  0  0
 72 75  1  0  0  0
 72145  1  0  0  0
 73 75  2  0  0  0
 73 76  1  0  0  0
 73146  1  0  0  0
 74 76  2  0  0  0
 74 79  1  0  0  0
 75 83  1  0  0  0
 76 84  1  0  0  0
 77 78  1  0  0  0
 77 80  1  0  0  0
 77 82  2  0  0  0
 78147  1  0  0  0
 78148  1  0  0  0
 78149  1  0  0  0
 79 81  1  0  0  0
 79150  1  0  0  0
 79151  1  0  0  0
 80152  1  0  0  0
 80153  1  0  0  0
 81 82  1  0  0  0
 81154  1  0  0  0
 81155  1  0  0  0
 83156  1  0  0  0
M  ISO  4   1 100  68 101  80 101  83 100
M  END
> <chiral flag>
0

> <version>
0

> <s_m_source_file>
/data/baiqing/PycharmProjects/Reinvent-master-3.2/result/LINK_invent/BTK/process_docking_weight1_custom_product_contain_oxygen_bond_distance_aromatic_linkinvent_7_9_3/rearranged_h_0105.sdf

> <i_m_source_file_index>
89

> <r_mmod_Potential_Energy-OPLS-2005>
69.9432830810547

> <r_mmod_Stretch_Energy-OPLS-2005>
54.9898376464844

> <r_mmod_Bend_Energy-OPLS-2005>
153.460830688477

> <r_mmod_Torsional_Energy-OPLS-2005>
257.244415283203

> <r_mmod_Improper_Torsional_Energy-OPLS-2005>
5.44027233123779

> <r_mmod_Van_der_Waal_Energy-OPLS-2005>
141.885391235352

> <r_mmod_Electrostatic_Energy-OPLS-2005>
-360.90087890625

> <r_mmod_Solvation_Energy-OPLS-2005>
-204.106094360352

> <b_mmod_Minimization_Converged-OPLS-2005>
0

> <r_mmod_RMS_Derivative-OPLS-2005>
2.16331100463867

$$$$
89
                    3D
 Structure written by MMmdl.
161169  0  0  1  0            999 V2000
  -30.7037  -14.4970   20.4492 C   0  0  0  0  0  0
  -30.4074  -12.2873   19.4525 C   0  0  0  0  0  0
  -29.4992  -12.4764   18.2215 C   0  0  0  0  0  0
  -28.0159  -12.3577   18.6245 C   0  0  0  0  0  0
  -27.6523  -13.2198   19.8653 C   0  0  2  0  0  0
  -28.6976  -13.0689   20.9966 C   0  0  0  0  0  0
  -25.2552  -13.8193   20.5699 C   0  0  0  0  0  0
  -24.1822  -13.0450   20.9203 C   0  0  0  0  0  0
  -24.6398  -11.6923   20.8765 C   0  0  0  0  0  0
  -23.9073  -10.4299   21.0413 C   0  0  0  0  0  0
  -24.3629   -9.4213   21.9191 C   0  0  0  0  0  0
  -23.6298   -8.2249   22.0767 C   0  0  0  0  0  0
  -22.4289   -8.0270   21.3541 C   0  0  0  0  0  0
  -21.9911   -9.0254   20.4664 C   0  0  0  0  0  0
  -22.7240  -10.2137   20.3066 C   0  0  0  0  0  0
  -21.6862   -6.0725   22.5267 C   0  0  0  0  0  0
  -21.4019   -6.5629   23.8201 C   0  0  0  0  0  0
  -21.3666   -5.6786   24.9168 C   0  0  0  0  0  0
  -21.6055   -4.3044   24.7221 C   0  0  0  0  0  0
  -21.8822   -3.8132   23.4340 C   0  0  0  0  0  0
  -21.9194   -4.6949   22.3396 C   0  0  0  0  0  0
  -22.7851  -13.5236   21.1825 C   0  0  0  0  0  0
  -22.1660   -4.2133   21.0975 F   0  0  0  0  0  0
  -21.5631   -3.4528   25.7735 F   0  0  0  0  0  0
  -30.0271  -13.3189   20.4288 N   0  0  0  0  0  0
  -26.2985  -12.9387   20.3353 N   0  0  0  0  0  0
  -25.9328  -11.6537   20.5804 N   0  0  0  0  0  0
  -22.0488  -12.8259   22.0401 N   0  0  0  0  0  0
  -25.4289  -15.1915   20.4121 N   0  0  0  0  0  0
  -31.8972  -14.5727   20.1420 O   0  0  0  0  0  0
  -21.6641   -6.8865   21.4237 O   0  0  0  0  0  0
  -22.3540  -14.5527   20.6648 O   0  0  0  0  0  0
  -24.6166  -31.8664   23.2083 C   0  0  0  0  0  0
  -25.9047  -32.4819   23.8366 C   0  0  1  0  0  0
  -27.2291  -27.4207   20.0844 C   0  0  0  0  0  0
  -25.5894  -33.8619   24.2302 N   0  0  0  0  0  0
  -23.4040  -30.4921   21.5488 C   0  0  2  0  0  0
  -24.8471  -28.9556   20.1134 C   0  0  0  0  0  0
  -22.7393  -29.4664   22.4956 C   0  0  0  0  0  0
  -18.0281  -28.1343   22.8506 C   0  0  0  0  0  0
  -24.1484  -36.7302   23.2646 C   0  0  0  0  0  0
  -25.9371  -30.8262   21.3672 C   0  0  0  0  0  0
  -26.0101  -29.4628   20.7066 C   0  0  0  0  0  0
  -27.2027  -28.7021   20.6882 C   0  0  0  0  0  0
  -26.0467  -26.9361   19.4787 C   0  0  0  0  0  0
  -24.8599  -27.6921   19.4998 C   0  0  0  0  0  0
  -23.6115  -29.8244   20.1642 C   0  0  0  0  0  0
  -25.4115  -36.3108   24.0339 C   0  0  1  0  0  0
  -20.5864  -28.3648   23.1302 C   0  0  2  0  0  0
  -20.6753  -26.9383   22.5403 C   0  0  0  0  0  0
  -19.5731  -26.6371   21.5194 C   0  0  0  0  0  0
  -18.1917  -26.7905   22.1618 C   0  0  0  0  0  0
  -19.1526  -28.8813   23.2909 C   0  0  0  0  0  0
  -18.9462  -30.1420   23.8924 C   0  0  0  0  0  0
  -17.6464  -30.6569   24.0555 C   0  0  0  0  0  0
  -25.9035  -34.9474   23.5112 C   0  0  0  0  0  0
  -16.5351  -29.9068   23.6314 C   0  0  0  0  0  0
  -16.7272  -28.6463   23.0372 C   0  0  0  0  0  0
  -26.4479  -31.6615   25.0705 C   0  0  0  0  0  0
  -25.3742  -31.3724   26.1445 C   0  0  0  0  0  0
  -27.0332  -30.3053   24.6117 C   0  0  0  0  0  0
  -27.6039  -32.4361   25.7461 C   0  0  0  0  0  0
  -27.5586  -37.1804   24.8469 C   0  0  0  0  0  0
  -21.4120  -29.3034   22.3711 N   0  0  0  0  0  0
  -26.4299  -37.3794   23.9407 N   0  0  0  0  0  0
  -24.6706  -31.0762   22.0987 N   0  0  0  0  0  0
  -23.4158  -28.8217   23.3005 O   0  0  0  0  0  0
  -28.4056  -26.6916   20.1076 O   0  0  0  0  0  0
  -26.5606  -34.8933   22.4673 O   0  0  0  0  0  0
  -23.5356  -32.1406   23.7479 O   0  0  0  0  0  0
  -30.5241  -20.3413   19.7554 C   0  0  0  0  0  0
  -28.5830  -18.4351   20.3807 C   0  0  0  0  0  0
  -30.8143  -18.9680   19.5438 C   0  0  0  0  0  0
  -29.8126  -17.9972   19.8433 C   0  0  0  0  0  0
  -28.3094  -19.8086   20.5833 C   0  0  0  0  0  0
  -29.2826  -20.7935   20.2681 C   0  0  0  0  0  0
  -33.2110  -19.3873   18.8152 C   0  0  0  0  0  0
  -32.1618  -18.5792   19.0440 C   0  0  0  0  0  0
  -30.0038  -16.5380   19.4905 C   0  0  0  0  0  0
  -26.2910  -21.0071   20.3019 C   0  0  0  0  0  0
  -29.5879  -24.5973   20.4417 C   0  0  0  0  0  0
  -28.3694  -25.2855   19.7919 C   0  0  0  0  0  0
  -29.9103  -23.1381   20.0218 C   0  0  0  0  0  0
  -29.9443  -15.6137   20.4736 N   0  0  0  0  0  0
  -30.2300  -16.2488   18.3082 O   0  0  0  0  0  0
  -27.0776  -20.1300   21.0992 O   0  0  0  0  0  0
  -28.9945  -22.1386   20.4978 O   0  0  0  0  0  0
  -31.4588  -12.3463   19.1623 H   0  0  0  0  0  0
  -30.2730  -11.2936   19.8831 H   0  0  0  0  0  0
  -29.7424  -11.7343   17.4595 H   0  0  0  0  0  0
  -29.6829  -13.4527   17.7708 H   0  0  0  0  0  0
  -27.8173  -11.3056   18.8319 H   0  0  0  0  0  0
  -27.3773  -12.6283   17.7814 H   0  0  0  0  0  0
  -27.6726  -14.2560   19.5292 H   0  0  0  0  0  0
  -28.6645  -12.0681   21.4269 H   0  0  0  0  0  0
  -28.4871  -13.7616   21.8126 H   0  0  0  0  0  0
  -25.2775   -9.5690   22.4767 H   0  0  0  0  0  0
  -24.0004   -7.4653   22.7493 H   0  0  0  0  0  0
  -21.0829   -8.8765   19.8994 H   0  0  0  0  0  0
  -22.3673  -10.9673   19.6175 H   0  0  0  0  0  0
  -21.2006   -7.6136   23.9694 H   0  0  0  0  0  0
  -21.1502   -6.0522   25.9075 H   0  0  0  0  0  0
  -22.0604   -2.7593   23.2844 H   0  0  0  0  0  0
  -22.4075  -11.9910   22.4775 H   0  0  0  0  0  0
  -21.1138  -13.1336   22.2635 H   0  0  0  0  0  0
  -24.6660  -15.8516   20.5146 H   0  0  0  0  0  0
  -26.2815  -15.6204   20.0809 H   0  0  0  0  0  0
  -26.7118  -32.5518   23.1127 H   0  0  0  0  0  0
  -25.0070  -33.9771   25.0464 H   0  0  0  0  0  0
  -22.6962  -31.3126   21.4091 H   0  0  0  0  0  0
  -23.3752  -35.9625   23.3317 H   0  0  0  0  0  0
  -24.3591  -36.8898   22.2060 H   0  0  0  0  0  0
  -23.7222  -37.6502   23.6653 H   0  0  0  0  0  0
  -26.0643  -31.6006   20.6097 H   0  0  0  0  0  0
  -26.8199  -30.8657   21.9931 H   0  0  0  0  0  0
  -28.1012  -29.0906   21.1495 H   0  0  0  0  0  0
  -26.0158  -25.9765   18.9812 H   0  0  0  0  0  0
  -23.9639  -27.2970   19.0409 H   0  0  0  0  0  0
  -23.7219  -30.5975   19.4036 H   0  0  0  0  0  0
  -22.7370  -29.2442   19.8657 H   0  0  0  0  0  0
  -25.1294  -36.1976   25.0836 H   0  0  0  0  0  0
  -20.9983  -28.3213   24.1408 H   0  0  0  0  0  0
  -20.5612  -26.2263   23.3589 H   0  0  0  0  0  0
  -21.6630  -26.7401   22.1220 H   0  0  0  0  0  0
  -19.6880  -25.6283   21.1216 H   0  0  0  0  0  0
  -19.6659  -27.3189   20.6727 H   0  0  0  0  0  0
  -17.4180  -26.6676   21.4022 H   0  0  0  0  0  0
  -18.0324  -26.0025   22.8990 H   0  0  0  0  0  0
  -19.7946  -30.7216   24.2303 H   0  0  0  0  0  0
  -17.5028  -31.6262   24.5134 H   0  0  0  0  0  0
  -15.5349  -30.2977   23.7616 H   0  0  0  0  0  0
  -15.8670  -28.0768   22.7100 H   0  0  0  0  0  0
  -24.5886  -30.7121   25.7761 H   0  0  0  0  0  0
  -24.8984  -32.2892   26.4939 H   0  0  0  0  0  0
  -25.8085  -30.8836   27.0175 H   0  0  0  0  0  0
  -26.2882  -29.6788   24.1201 H   0  0  0  0  0  0
  -27.4117  -29.7328   25.4600 H   0  0  0  0  0  0
  -27.8708  -30.4365   23.9259 H   0  0  0  0  0  0
  -27.2626  -33.3638   26.2075 H   0  0  0  0  0  0
  -28.3813  -32.6980   25.0266 H   0  0  0  0  0  0
  -28.0753  -31.8480   26.5345 H   0  0  0  0  0  0
  -28.2611  -38.0099   24.7526 H   0  0  0  0  0  0
  -28.1074  -36.2631   24.6282 H   0  0  0  0  0  0
  -27.2306  -37.1430   25.8873 H   0  0  0  0  0  0
  -20.9255  -29.8772   21.6964 H   0  0  0  0  0  0
  -26.0189  -38.2866   24.1413 H   0  0  0  0  0  0
  -31.2855  -21.0604   19.5136 H   0  0  0  0  0  0
  -27.8081  -17.7117   20.5903 H   0  0  0  0  0  0
  -34.1385  -18.9705   18.4490 H   0  0  0  0  0  0
  -33.1926  -20.4541   18.9788 H   0  0  0  0  0  0
  -32.3417  -17.5341   18.8366 H   0  0  0  0  0  0
  -26.3422  -20.7392   19.2451 H   0  0  0  0  0  0
  -26.5801  -22.0514   20.4188 H   0  0  0  0  0  0
  -25.2490  -20.9286   20.6089 H   0  0  0  0  0  0
  -29.5045  -24.6604   21.5269 H   0  0  0  0  0  0
  -30.4610  -25.1977   20.1847 H   0  0  0  0  0  0
  -27.4666  -24.8044   20.1695 H   0  0  0  0  0  0
  -28.3892  -25.1631   18.7078 H   0  0  0  0  0  0
  -30.8915  -22.9277   20.4491 H   0  0  0  0  0  0
  -30.0071  -23.0747   18.9370 H   0  0  0  0  0  0
  -29.5073  -15.8622   21.3456 H   0  0  0  0  0  0
  1 25  1  0  0  0
  1 30  2  0  0  0
  1 84  1  0  0  0
  2  3  1  0  0  0
  2 25  1  0  0  0
  2 88  1  0  0  0
  2 89  1  0  0  0
  3  4  1  0  0  0
  3 90  1  0  0  0
  3 91  1  0  0  0
  4  5  1  0  0  0
  4 92  1  0  0  0
  4 93  1  0  0  0
  5  6  1  0  0  0
  5 26  1  0  0  0
  5 94  1  0  0  0
  6 25  1  0  0  0
  6 95  1  0  0  0
  6 96  1  0  0  0
  7  8  2  0  0  0
  7 26  1  0  0  0
  7 29  1  0  0  0
  8  9  1  0  0  0
  8 22  1  0  0  0
  9 10  1  0  0  0
  9 27  2  0  0  0
 10 11  2  0  0  0
 10 15  1  0  0  0
 11 12  1  0  0  0
 11 97  1  0  0  0
 12 13  2  0  0  0
 12 98  1  0  0  0
 13 14  1  0  0  0
 13 31  1  0  0  0
 14 15  2  0  0  0
 14 99  1  0  0  0
 15100  1  0  0  0
 16 17  2  0  0  0
 16 21  1  0  0  0
 16 31  1  0  0  0
 17 18  1  0  0  0
 17101  1  0  0  0
 18 19  2  0  0  0
 18102  1  0  0  0
 19 20  1  0  0  0
 19 24  1  0  0  0
 20 21  2  0  0  0
 20103  1  0  0  0
 21 23  1  0  0  0
 22 28  1  0  0  0
 22 32  2  0  0  0
 26 27  1  0  0  0
 28104  1  0  0  0
 28105  1  0  0  0
 29106  1  0  0  0
 29107  1  0  0  0
 33 34  1  0  0  0
 33 66  1  0  0  0
 33 70  2  0  0  0
 34 36  1  0  0  0
 34 59  1  0  0  0
 34108  1  0  0  0
 35 44  2  0  0  0
 35 45  1  0  0  0
 35 68  1  0  0  0
 36 56  1  0  0  0
 36109  1  0  0  0
 37 39  1  0  0  0
 37 47  1  0  0  0
 37 66  1  0  0  0
 37110  1  0  0  0
 38 43  2  0  0  0
 38 46  1  0  0  0
 38 47  1  0  0  0
 39 64  1  0  0  0
 39 67  2  0  0  0
 40 52  1  0  0  0
 40 53  2  0  0  0
 40 58  1  0  0  0
 41111  1  0  0  0
 41112  1  0  0  0
 41113  1  0  0  0
 41 48  1  0  0  0
 42 43  1  0  0  0
 42 66  1  0  0  0
 42114  1  0  0  0
 42115  1  0  0  0
 43 44  1  0  0  0
 44116  1  0  0  0
 45 46  2  0  0  0
 45117  1  0  0  0
 46118  1  0  0  0
 47119  1  0  0  0
 47120  1  0  0  0
 48 56  1  0  0  0
 48 65  1  0  0  0
 48121  1  0  0  0
 49 50  1  0  0  0
 49 53  1  0  0  0
 49 64  1  0  0  0
 49122  1  0  0  0
 50 51  1  0  0  0
 50123  1  0  0  0
 50124  1  0  0  0
 51 52  1  0  0  0
 51125  1  0  0  0
 51126  1  0  0  0
 52127  1  0  0  0
 52128  1  0  0  0
 53 54  1  0  0  0
 54 55  2  0  0  0
 54129  1  0  0  0
 55 57  1  0  0  0
 55130  1  0  0  0
 56 69  2  0  0  0
 57 58  2  0  0  0
 57131  1  0  0  0
 58132  1  0  0  0
 59 60  1  0  0  0
 59 61  1  0  0  0
 59 62  1  0  0  0
 60133  1  0  0  0
 60134  1  0  0  0
 60135  1  0  0  0
 61136  1  0  0  0
 61137  1  0  0  0
 61138  1  0  0  0
 62139  1  0  0  0
 62140  1  0  0  0
 62141  1  0  0  0
 63 65  1  0  0  0
 63142  1  0  0  0
 63143  1  0  0  0
 63144  1  0  0  0
 64145  1  0  0  0
 65146  1  0  0  0
 68 82  1  0  0  0
 71 73  2  0  0  0
 71 76  1  0  0  0
 71147  1  0  0  0
 72 74  2  0  0  0
 72 75  1  0  0  0
 72148  1  0  0  0
 73 74  1  0  0  0
 73 78  1  0  0  0
 74 79  1  0  0  0
 75 76  2  0  0  0
 75 86  1  0  0  0
 76 87  1  0  0  0
 77 78  2  0  0  0
 77149  1  0  0  0
 77150  1  0  0  0
 78151  1  0  0  0
 79 84  1  0  0  0
 79 85  2  0  0  0
 80 86  1  0  0  0
 80152  1  0  0  0
 80153  1  0  0  0
 80154  1  0  0  0
 81 82  1  0  0  0
 81 83  1  0  0  0
 81155  1  0  0  0
 81156  1  0  0  0
 82157  1  0  0  0
 82158  1  0  0  0
 83 87  1  0  0  0
 83159  1  0  0  0
 83160  1  0  0  0
 84161  1  0  0  0
M  ISO  4   1 100  68 101  82 101  84 100
M  END
> <chiral flag>
0

> <version>
0

> <s_m_source_file>
/data/baiqing/PycharmProjects/Reinvent-master-3.2/result/LINK_invent/BTK/process_docking_weight1_custom_product_contain_oxygen_bond_distance_aromatic_linkinvent_7_9_3/rearranged_h_0105.sdf

> <i_m_source_file_index>
90

> <r_mmod_Potential_Energy-OPLS-2005>
13.9734706878662

> <r_mmod_Stretch_Energy-OPLS-2005>
42.6317558288574

> <r_mmod_Bend_Energy-OPLS-2005>
113.059158325195

> <r_mmod_Torsional_Energy-OPLS-2005>
330.593658447266

> <r_mmod_Improper_Torsional_Energy-OPLS-2005>
10.2214994430542

> <r_mmod_Van_der_Waal_Energy-OPLS-2005>
171.739028930664

> <r_mmod_Electrostatic_Energy-OPLS-2005>
-453.239624023438

> <r_mmod_Solvation_Energy-OPLS-2005>
-223.984878540039

> <b_mmod_Minimization_Converged-OPLS-2005>
0

> <r_mmod_RMS_Derivative-OPLS-2005>
2.84483432769775

$$$$
90
                    3D
 Structure written by MMmdl.
166175  0  0  1  0            999 V2000
  -30.6249  -14.6506   20.3878 C   0  0  0  0  0  0
  -30.4136  -12.3776   19.3979 C   0  0  0  0  0  0
  -29.4778  -12.5453   18.1815 C   0  0  0  0  0  0
  -28.0197  -12.3302   18.6125 C   0  0  0  0  0  0
  -27.6531  -13.2033   19.8455 C   0  0  2  0  0  0
  -28.7189  -13.0750   20.9645 C   0  0  0  0  0  0
  -25.2600  -13.8056   20.5670 C   0  0  0  0  0  0
  -24.1861  -13.0368   20.9185 C   0  0  0  0  0  0
  -24.6446  -11.6849   20.8752 C   0  0  0  0  0  0
  -23.9082  -10.4253   21.0429 C   0  0  0  0  0  0
  -24.3614   -9.4183   21.9200 C   0  0  0  0  0  0
  -23.6285   -8.2211   22.0750 C   0  0  0  0  0  0
  -22.4249   -8.0301   21.3559 C   0  0  0  0  0  0
  -21.9923   -9.0266   20.4666 C   0  0  0  0  0  0
  -22.7276  -10.2126   20.3079 C   0  0  0  0  0  0
  -21.6836   -6.0748   22.5283 C   0  0  0  0  0  0
  -21.4019   -6.5643   23.8230 C   0  0  0  0  0  0
  -21.3657   -5.6781   24.9188 C   0  0  0  0  0  0
  -21.6033   -4.3047   24.7211 C   0  0  0  0  0  0
  -21.8825   -3.8168   23.4332 C   0  0  0  0  0  0
  -21.9186   -4.6986   22.3396 C   0  0  0  0  0  0
  -22.7884  -13.5219   21.1830 C   0  0  0  0  0  0
  -22.1656   -4.2214   21.0966 F   0  0  0  0  0  0
  -21.5638   -3.4529   25.7696 F   0  0  0  0  0  0
  -30.0244  -13.4132   20.3757 N   0  0  0  0  0  0
  -26.3020  -12.9260   20.3273 N   0  0  0  0  0  0
  -25.9359  -11.6437   20.5750 N   0  0  0  0  0  0
  -22.0484  -12.8254   22.0396 N   0  0  0  0  0  0
  -25.4204  -15.1791   20.4131 N   0  0  0  0  0  0
  -31.8061  -14.7992   20.0741 O   0  0  0  0  0  0
  -21.6653   -6.8889   21.4241 O   0  0  0  0  0  0
  -22.3599  -14.5520   20.6708 O   0  0  0  0  0  0
  -24.6316  -31.8506   23.1921 C   0  0  0  0  0  0
  -25.9158  -32.4707   23.8270 C   0  0  1  0  0  0
  -27.2216  -27.2828   20.0622 C   0  0  0  0  0  0
  -25.5935  -33.8500   24.2213 N   0  0  0  0  0  0
  -23.4244  -30.4724   21.5366 C   0  0  2  0  0  0
  -24.8668  -28.9161   20.0956 C   0  0  0  0  0  0
  -22.7481  -29.4577   22.4890 C   0  0  0  0  0  0
  -18.0277  -28.1368   22.8473 C   0  0  0  0  0  0
  -24.1449  -36.7207   23.2643 C   0  0  0  0  0  0
  -25.9702  -30.7607   21.3705 C   0  0  0  0  0  0
  -26.0366  -29.3863   20.7028 C   0  0  0  0  0  0
  -27.2124  -28.5745   20.6854 C   0  0  0  0  0  0
  -26.0287  -26.8657   19.4429 C   0  0  0  0  0  0
  -24.8655  -27.6616   19.4616 C   0  0  0  0  0  0
  -23.6365  -29.8012   20.1522 C   0  0  0  0  0  0
  -25.4075  -36.3018   24.0347 C   0  0  1  0  0  0
  -20.5887  -28.3670   23.1259 C   0  0  2  0  0  0
  -20.6739  -26.9377   22.5404 C   0  0  0  0  0  0
  -19.5737  -26.6369   21.5166 C   0  0  0  0  0  0
  -18.1921  -26.7919   22.1597 C   0  0  0  0  0  0
  -19.1553  -28.8834   23.2877 C   0  0  0  0  0  0
  -18.9481  -30.1417   23.8909 C   0  0  0  0  0  0
  -17.6493  -30.6569   24.0554 C   0  0  0  0  0  0
  -25.9042  -34.9402   23.5097 C   0  0  0  0  0  0
  -16.5362  -29.9072   23.6321 C   0  0  0  0  0  0
  -16.7280  -28.6493   23.0343 C   0  0  0  0  0  0
  -26.4531  -31.6543   25.0665 C   0  0  0  0  0  0
  -25.3766  -31.3721   26.1401 C   0  0  0  0  0  0
  -27.0366  -30.2954   24.6164 C   0  0  0  0  0  0
  -27.6072  -32.4291   25.7470 C   0  0  0  0  0  0
  -27.5558  -37.1727   24.8460 C   0  0  0  0  0  0
  -21.4184  -29.3024   22.3648 N   0  0  0  0  0  0
  -26.4227  -37.3745   23.9469 N   0  0  0  0  0  0
  -24.6946  -31.0464   22.0896 N   0  0  0  0  0  0
  -23.4189  -28.8110   23.2975 O   0  0  0  0  0  0
  -28.3376  -26.4319   20.1367 O   0  0  0  0  0  0
  -26.5614  -34.8933   22.4662 O   0  0  0  0  0  0
  -23.5474  -32.1337   23.7218 O   0  0  0  0  0  0
  -29.1045  -19.3700   21.2220 C   0  0  0  0  0  0
  -29.4955  -18.0164   21.3987 C   0  0  0  0  0  0
  -29.4212  -19.1500   18.8502 C   0  0  0  0  0  0
  -29.7770  -17.7619   19.0122 C   0  0  0  0  0  0
  -29.0200  -19.9708   19.9441 C   0  0  0  0  0  0
  -29.7896  -17.1486   20.3139 C   0  0  0  0  0  0
  -25.9048  -21.5529   18.9823 C   0  0  0  0  0  0
  -28.8669  -22.4988   19.6121 C   0  0  0  0  0  0
  -26.5030  -22.1451   17.7156 C   0  0  0  0  0  0
  -26.8566  -21.1395   20.1091 C   0  0  0  0  0  0
  -27.2360  -23.4949   17.9428 C   0  0  0  0  0  0
  -27.9375  -23.7694   19.3167 C   0  0  2  0  0  0
  -31.5339  -16.9524   17.3653 C   0  0  0  0  0  0
  -30.0455  -16.9596   17.7433 C   0  0  0  0  0  0
  -28.6017  -25.2539   19.2546 C   0  0  0  0  0  0
  -28.2991  -21.2423   19.7865 N   0  0  0  0  0  0
  -29.7716  -15.7058   20.5983 N   0  0  0  0  0  0
  -24.6821  -21.4340   19.1034 O   0  0  0  0  0  0
  -30.0931  -22.6452   19.6379 O   0  0  0  0  0  0
  -31.4620  -12.4395   19.1014 H   0  0  0  0  0  0
  -30.2723  -11.3804   19.8159 H   0  0  0  0  0  0
  -29.7456  -11.8772   17.3654 H   0  0  0  0  0  0
  -29.5736  -13.5530   17.7789 H   0  0  0  0  0  0
  -27.8848  -11.2701   18.8406 H   0  0  0  0  0  0
  -27.3510  -12.5439   17.7748 H   0  0  0  0  0  0
  -27.6684  -14.2366   19.4964 H   0  0  0  0  0  0
  -28.7393  -12.0591   21.3664 H   0  0  0  0  0  0
  -28.4824  -13.7332   21.8008 H   0  0  0  0  0  0
  -25.2747   -9.5675   22.4812 H   0  0  0  0  0  0
  -24.0046   -7.4573   22.7423 H   0  0  0  0  0  0
  -21.0879   -8.8797   19.8913 H   0  0  0  0  0  0
  -22.3762  -10.9678   19.6206 H   0  0  0  0  0  0
  -21.2045   -7.6152   23.9743 H   0  0  0  0  0  0
  -21.1446   -6.0517   25.9082 H   0  0  0  0  0  0
  -22.0608   -2.7639   23.2805 H   0  0  0  0  0  0
  -22.4085  -11.9972   22.4899 H   0  0  0  0  0  0
  -21.1099  -13.1339   22.2482 H   0  0  0  0  0  0
  -24.6350  -15.8122   20.5212 H   0  0  0  0  0  0
  -26.2619  -15.6359   20.0803 H   0  0  0  0  0  0
  -26.7198  -32.5370   23.0965 H   0  0  0  0  0  0
  -25.0065  -33.9583   25.0364 H   0  0  0  0  0  0
  -22.7223  -31.2941   21.3877 H   0  0  0  0  0  0
  -23.3755  -35.9484   23.3236 H   0  0  0  0  0  0
  -24.3559  -36.8892   22.2071 H   0  0  0  0  0  0
  -23.7134  -37.6368   23.6701 H   0  0  0  0  0  0
  -26.1141  -31.5259   20.6055 H   0  0  0  0  0  0
  -26.8467  -30.8028   22.0051 H   0  0  0  0  0  0
  -28.1136  -28.9194   21.1719 H   0  0  0  0  0  0
  -25.9674  -25.8980   18.9789 H   0  0  0  0  0  0
  -23.9659  -27.2904   18.9901 H   0  0  0  0  0  0
  -23.7550  -30.5720   19.3889 H   0  0  0  0  0  0
  -22.7553  -29.2297   19.8556 H   0  0  0  0  0  0
  -25.1228  -36.1824   25.0829 H   0  0  0  0  0  0
  -20.9992  -28.3247   24.1374 H   0  0  0  0  0  0
  -20.5528  -26.2275   23.3609 H   0  0  0  0  0  0
  -21.6628  -26.7318   22.1284 H   0  0  0  0  0  0
  -19.6878  -25.6277   21.1209 H   0  0  0  0  0  0
  -19.6664  -27.3160   20.6689 H   0  0  0  0  0  0
  -17.4154  -26.6626   21.4025 H   0  0  0  0  0  0
  -18.0342  -26.0071   22.9021 H   0  0  0  0  0  0
  -19.7967  -30.7199   24.2310 H   0  0  0  0  0  0
  -17.5055  -31.6260   24.5152 H   0  0  0  0  0  0
  -15.5370  -30.2979   23.7637 H   0  0  0  0  0  0
  -15.8680  -28.0800   22.7078 H   0  0  0  0  0  0
  -24.5897  -30.7104   25.7757 H   0  0  0  0  0  0
  -24.9005  -32.2908   26.4850 H   0  0  0  0  0  0
  -25.8097  -30.8884   27.0159 H   0  0  0  0  0  0
  -26.2924  -29.6684   24.1229 H   0  0  0  0  0  0
  -27.4091  -29.7240   25.4673 H   0  0  0  0  0  0
  -27.8789  -30.4215   23.9353 H   0  0  0  0  0  0
  -27.2670  -33.3602   26.2023 H   0  0  0  0  0  0
  -28.3918  -32.6837   25.0328 H   0  0  0  0  0  0
  -28.0689  -31.8423   26.5421 H   0  0  0  0  0  0
  -28.2513  -38.0086   24.7620 H   0  0  0  0  0  0
  -28.1117  -36.2635   24.6105 H   0  0  0  0  0  0
  -27.2322  -37.1180   25.8872 H   0  0  0  0  0  0
  -20.9330  -29.8780   21.6905 H   0  0  0  0  0  0
  -26.0089  -38.2790   24.1583 H   0  0  0  0  0  0
  -28.7736  -19.9332   22.0824 H   0  0  0  0  0  0
  -29.4736  -17.6164   22.4006 H   0  0  0  0  0  0
  -29.3503  -19.5744   17.8584 H   0  0  0  0  0  0
  -25.7018  -22.2656   16.9857 H   0  0  0  0  0  0
  -27.1814  -21.3952   17.3012 H   0  0  0  0  0  0
  -26.6016  -20.1104   20.3688 H   0  0  0  0  0  0
  -26.6283  -21.7405   20.9892 H   0  0  0  0  0  0
  -26.5173  -24.2884   17.7501 H   0  0  0  0  0  0
  -27.9831  -23.5723   17.1472 H   0  0  0  0  0  0
  -27.1856  -23.8095   20.1058 H   0  0  0  0  0  0
  -31.6748  -16.7802   16.2983 H   0  0  0  0  0  0
  -32.0594  -16.1551   17.8917 H   0  0  0  0  0  0
  -32.0153  -17.8959   17.6284 H   0  0  0  0  0  0
  -29.4496  -17.3887   16.9309 H   0  0  0  0  0  0
  -29.6905  -15.9347   17.8402 H   0  0  0  0  0  0
  -28.5516  -25.6225   18.2288 H   0  0  0  0  0  0
  -29.6725  -25.1067   19.4005 H   0  0  0  0  0  0
  -28.8949  -15.3789   20.9710 H   0  0  0  0  0  0
  1 25  1  0  0  0
  1 30  2  0  0  0
  1 87  1  0  0  0
  2  3  1  0  0  0
  2 25  1  0  0  0
  2 90  1  0  0  0
  2 91  1  0  0  0
  3  4  1  0  0  0
  3 92  1  0  0  0
  3 93  1  0  0  0
  4  5  1  0  0  0
  4 94  1  0  0  0
  4 95  1  0  0  0
  5  6  1  0  0  0
  5 26  1  0  0  0
  5 96  1  0  0  0
  6 25  1  0  0  0
  6 97  1  0  0  0
  6 98  1  0  0  0
  7  8  2  0  0  0
  7 26  1  0  0  0
  7 29  1  0  0  0
  8  9  1  0  0  0
  8 22  1  0  0  0
  9 10  1  0  0  0
  9 27  2  0  0  0
 10 11  2  0  0  0
 10 15  1  0  0  0
 11 12  1  0  0  0
 11 99  1  0  0  0
 12 13  2  0  0  0
 12100  1  0  0  0
 13 14  1  0  0  0
 13 31  1  0  0  0
 14 15  2  0  0  0
 14101  1  0  0  0
 15102  1  0  0  0
 16 17  2  0  0  0
 16 21  1  0  0  0
 16 31  1  0  0  0
 17 18  1  0  0  0
 17103  1  0  0  0
 18 19  2  0  0  0
 18104  1  0  0  0
 19 20  1  0  0  0
 19 24  1  0  0  0
 20 21  2  0  0  0
 20105  1  0  0  0
 21 23  1  0  0  0
 22 28  1  0  0  0
 22 32  2  0  0  0
 26 27  1  0  0  0
 28106  1  0  0  0
 28107  1  0  0  0
 29108  1  0  0  0
 29109  1  0  0  0
 33 34  1  0  0  0
 33 66  1  0  0  0
 33 70  2  0  0  0
 34 36  1  0  0  0
 34 59  1  0  0  0
 34110  1  0  0  0
 35 44  2  0  0  0
 35 45  1  0  0  0
 35 68  1  0  0  0
 36 56  1  0  0  0
 36111  1  0  0  0
 37 39  1  0  0  0
 37 47  1  0  0  0
 37 66  1  0  0  0
 37112  1  0  0  0
 38 43  2  0  0  0
 38 46  1  0  0  0
 38 47  1  0  0  0
 39 64  1  0  0  0
 39 67  2  0  0  0
 40 52  1  0  0  0
 40 53  2  0  0  0
 40 58  1  0  0  0
 41113  1  0  0  0
 41114  1  0  0  0
 41115  1  0  0  0
 41 48  1  0  0  0
 42 43  1  0  0  0
 42 66  1  0  0  0
 42116  1  0  0  0
 42117  1  0  0  0
 43 44  1  0  0  0
 44118  1  0  0  0
 45 46  2  0  0  0
 45119  1  0  0  0
 46120  1  0  0  0
 47121  1  0  0  0
 47122  1  0  0  0
 48 56  1  0  0  0
 48 65  1  0  0  0
 48123  1  0  0  0
 49 50  1  0  0  0
 49 53  1  0  0  0
 49 64  1  0  0  0
 49124  1  0  0  0
 50 51  1  0  0  0
 50125  1  0  0  0
 50126  1  0  0  0
 51 52  1  0  0  0
 51127  1  0  0  0
 51128  1  0  0  0
 52129  1  0  0  0
 52130  1  0  0  0
 53 54  1  0  0  0
 54 55  2  0  0  0
 54131  1  0  0  0
 55 57  1  0  0  0
 55132  1  0  0  0
 56 69  2  0  0  0
 57 58  2  0  0  0
 57133  1  0  0  0
 58134  1  0  0  0
 59 60  1  0  0  0
 59 61  1  0  0  0
 59 62  1  0  0  0
 60135  1  0  0  0
 60136  1  0  0  0
 60137  1  0  0  0
 61138  1  0  0  0
 61139  1  0  0  0
 61140  1  0  0  0
 62141  1  0  0  0
 62142  1  0  0  0
 62143  1  0  0  0
 63 65  1  0  0  0
 63144  1  0  0  0
 63145  1  0  0  0
 63146  1  0  0  0
 64147  1  0  0  0
 65148  1  0  0  0
 68 85  1  0  0  0
 71 72  2  0  0  0
 71 75  1  0  0  0
 71149  1  0  0  0
 72 76  1  0  0  0
 72150  1  0  0  0
 73 74  1  0  0  0
 73 75  2  0  0  0
 73151  1  0  0  0
 74 76  2  0  0  0
 74 84  1  0  0  0
 75 86  1  0  0  0
 76 87  1  0  0  0
 77 79  1  0  0  0
 77 80  1  0  0  0
 77 88  2  0  0  0
 78 82  1  0  0  0
 78 86  1  0  0  0
 78 89  2  0  0  0
 79 81  1  0  0  0
 79152  1  0  0  0
 79153  1  0  0  0
 80 86  1  0  0  0
 80154  1  0  0  0
 80155  1  0  0  0
 81 82  1  0  0  0
 81156  1  0  0  0
 81157  1  0  0  0
 82 85  1  0  0  0
 82158  1  0  0  0
 83 84  1  0  0  0
 83159  1  0  0  0
 83160  1  0  0  0
 83161  1  0  0  0
 84162  1  0  0  0
 84163  1  0  0  0
 85164  1  0  0  0
 85165  1  0  0  0
 87166  1  0  0  0
M  ISO  4   1 100  68 101  85 101  87 100
M  END
> <chiral flag>
0

> <version>
0

> <s_m_source_file>
/data/baiqing/PycharmProjects/Reinvent-master-3.2/result/LINK_invent/BTK/process_docking_weight1_custom_product_contain_oxygen_bond_distance_aromatic_linkinvent_7_9_3/rearranged_h_0105.sdf

> <i_m_source_file_index>
91

> <r_mmod_Potential_Energy-OPLS-2005>
218.642486572266

> <r_mmod_Stretch_Energy-OPLS-2005>
105.78133392334

> <r_mmod_Bend_Energy-OPLS-2005>
198.588317871094

> <r_mmod_Torsional_Energy-OPLS-2005>
334.963928222656

> <r_mmod_Improper_Torsional_Energy-OPLS-2005>
9.44427299499512

> <r_mmod_Van_der_Waal_Energy-OPLS-2005>
142.874420166016

> <r_mmod_Electrostatic_Energy-OPLS-2005>
-393.195678710938

> <r_mmod_Solvation_Energy-OPLS-2005>
-242.289398193359

> <b_mmod_Minimization_Converged-OPLS-2005>
0

> <r_mmod_RMS_Derivative-OPLS-2005>
8.4596529006958

$$$$
91
                    3D
 Structure written by MMmdl.
158167  0  0  1  0            999 V2000
  -30.6923  -14.4673   20.5865 C   0  0  0  0  0  0
  -30.4282  -12.3087   19.4184 C   0  0  0  0  0  0
  -29.4942  -12.5110   18.2063 C   0  0  0  0  0  0
  -28.0149  -12.3702   18.6173 C   0  0  0  0  0  0
  -27.6632  -13.2031   19.8787 C   0  0  2  0  0  0
  -28.7042  -12.9667   20.9967 C   0  0  0  0  0  0
  -25.2598  -13.8151   20.5687 C   0  0  0  0  0  0
  -24.1838  -13.0441   20.9166 C   0  0  0  0  0  0
  -24.6374  -11.6904   20.8716 C   0  0  0  0  0  0
  -23.9039  -10.4299   21.0393 C   0  0  0  0  0  0
  -24.3598   -9.4221   21.9168 C   0  0  0  0  0  0
  -23.6283   -8.2249   22.0744 C   0  0  0  0  0  0
  -22.4264   -8.0281   21.3540 C   0  0  0  0  0  0
  -21.9891   -9.0245   20.4641 C   0  0  0  0  0  0
  -22.7210  -10.2129   20.3051 C   0  0  0  0  0  0
  -21.6857   -6.0736   22.5273 C   0  0  0  0  0  0
  -21.4012   -6.5631   23.8213 C   0  0  0  0  0  0
  -21.3663   -5.6786   24.9169 C   0  0  0  0  0  0
  -21.6050   -4.3052   24.7224 C   0  0  0  0  0  0
  -21.8821   -3.8147   23.4344 C   0  0  0  0  0  0
  -21.9190   -4.6961   22.3400 C   0  0  0  0  0  0
  -22.7856  -13.5240   21.1840 C   0  0  0  0  0  0
  -22.1661   -4.2154   21.0973 F   0  0  0  0  0  0
  -21.5636   -3.4535   25.7730 F   0  0  0  0  0  0
  -30.0385  -13.2800   20.4528 N   0  0  0  0  0  0
  -26.3027  -12.9302   20.3376 N   0  0  0  0  0  0
  -25.9292  -11.6469   20.5738 N   0  0  0  0  0  0
  -22.0506  -12.8225   22.0396 N   0  0  0  0  0  0
  -25.4362  -15.1859   20.4112 N   0  0  0  0  0  0
  -31.8090  -14.6808   20.1048 O   0  0  0  0  0  0
  -21.6645   -6.8872   21.4232 O   0  0  0  0  0  0
  -22.3536  -14.5536   20.6682 O   0  0  0  0  0  0
  -24.6168  -31.8671   23.2117 C   0  0  0  0  0  0
  -25.9059  -32.4818   23.8404 C   0  0  1  0  0  0
  -27.2264  -27.4232   20.0975 C   0  0  0  0  0  0
  -25.5913  -33.8617   24.2328 N   0  0  0  0  0  0
  -23.4046  -30.4952   21.5512 C   0  0  2  0  0  0
  -24.8492  -28.9692   20.1080 C   0  0  0  0  0  0
  -22.7427  -29.4664   22.4964 C   0  0  0  0  0  0
  -18.0273  -28.1384   22.8490 C   0  0  0  0  0  0
  -24.1482  -36.7315   23.2637 C   0  0  0  0  0  0
  -25.9371  -30.8293   21.3702 C   0  0  0  0  0  0
  -26.0117  -29.4679   20.7093 C   0  0  0  0  0  0
  -27.2032  -28.7037   20.6988 C   0  0  0  0  0  0
  -26.0466  -26.9573   19.4660 C   0  0  0  0  0  0
  -24.8634  -27.7157   19.4785 C   0  0  0  0  0  0
  -23.6126  -29.8363   20.1627 C   0  0  0  0  0  0
  -25.4100  -36.3102   24.0334 C   0  0  1  0  0  0
  -20.5870  -28.3679   23.1300 C   0  0  2  0  0  0
  -20.6764  -26.9409   22.5410 C   0  0  0  0  0  0
  -19.5738  -26.6390   21.5213 C   0  0  0  0  0  0
  -18.1920  -26.7926   22.1632 C   0  0  0  0  0  0
  -19.1527  -28.8846   23.2895 C   0  0  0  0  0  0
  -18.9455  -30.1452   23.8908 C   0  0  0  0  0  0
  -17.6459  -30.6590   24.0568 C   0  0  0  0  0  0
  -25.9033  -34.9474   23.5127 C   0  0  0  0  0  0
  -16.5348  -29.9097   23.6324 C   0  0  0  0  0  0
  -16.7265  -28.6514   23.0340 C   0  0  0  0  0  0
  -26.4484  -31.6601   25.0743 C   0  0  0  0  0  0
  -25.3760  -31.3732   26.1509 C   0  0  0  0  0  0
  -27.0310  -30.3026   24.6159 C   0  0  0  0  0  0
  -27.6056  -32.4334   25.7500 C   0  0  0  0  0  0
  -27.5579  -37.1801   24.8456 C   0  0  0  0  0  0
  -21.4149  -29.3050   22.3712 N   0  0  0  0  0  0
  -26.4281  -37.3795   23.9417 N   0  0  0  0  0  0
  -24.6706  -31.0777   22.1020 N   0  0  0  0  0  0
  -23.4186  -28.8192   23.3003 O   0  0  0  0  0  0
  -28.3759  -26.6508   20.1583 O   0  0  0  0  0  0
  -26.5594  -34.8924   22.4689 O   0  0  0  0  0  0
  -23.5362  -32.1432   23.7510 O   0  0  0  0  0  0
  -29.0386  -18.6982   19.6307 C   0  0  0  0  0  0
  -29.0494  -17.3305   19.9725 C   0  0  0  0  0  0
  -30.9686  -17.7119   21.4144 C   0  0  0  0  0  0
  -29.9749  -19.6008   20.1861 C   0  0  0  0  0  0
  -30.0257  -16.8190   20.8522 C   0  0  0  0  0  0
  -30.9426  -19.0929   21.0903 C   0  0  0  0  0  0
  -29.9658  -21.0376   19.7161 C   0  0  0  0  0  0
  -30.6072  -24.3117   20.1014 C   0  0  0  0  0  0
  -31.1812  -22.9613   20.5453 C   0  0  0  0  0  0
  -28.8522  -22.8615   20.8616 C   0  0  0  0  0  0
  -29.2492  -24.3570   20.7838 C   0  0  2  0  0  0
  -28.1765  -25.2252   20.0809 C   0  0  0  0  0  0
  -30.0508  -22.0301   20.6326 N   0  0  0  0  0  0
  -29.9868  -15.4365   21.1996 N   0  0  0  0  0  0
  -29.7977  -21.2809   18.5148 O   0  0  0  0  0  0
  -31.8766  -19.9122   21.6330 F   0  0  0  0  0  0
  -31.4694  -12.4203   19.1112 H   0  0  0  0  0  0
  -30.3405  -11.2935   19.8077 H   0  0  0  0  0  0
  -29.7330  -11.7904   17.4229 H   0  0  0  0  0  0
  -29.6611  -13.4995   17.7753 H   0  0  0  0  0  0
  -27.8200  -11.3136   18.8030 H   0  0  0  0  0  0
  -27.3681  -12.6568   17.7875 H   0  0  0  0  0  0
  -27.7114  -14.2528   19.5886 H   0  0  0  0  0  0
  -28.6794  -11.9253   21.3194 H   0  0  0  0  0  0
  -28.4595  -13.5463   21.8876 H   0  0  0  0  0  0
  -25.2743   -9.5698   22.4725 H   0  0  0  0  0  0
  -24.0011   -7.4641   22.7438 H   0  0  0  0  0  0
  -21.0834   -8.8736   19.8923 H   0  0  0  0  0  0
  -22.3664  -10.9656   19.6150 H   0  0  0  0  0  0
  -21.1996   -7.6142   23.9709 H   0  0  0  0  0  0
  -21.1484   -6.0521   25.9069 H   0  0  0  0  0  0
  -22.0596   -2.7609   23.2840 H   0  0  0  0  0  0
  -22.4140  -11.9885   22.4769 H   0  0  0  0  0  0
  -21.1110  -13.1223   22.2600 H   0  0  0  0  0  0
  -24.6751  -15.8471   20.5165 H   0  0  0  0  0  0
  -26.2946  -15.6182   20.0958 H   0  0  0  0  0  0
  -26.7133  -32.5514   23.1166 H   0  0  0  0  0  0
  -25.0066  -33.9771   25.0474 H   0  0  0  0  0  0
  -22.6947  -31.3135   21.4157 H   0  0  0  0  0  0
  -23.3741  -35.9651   23.3292 H   0  0  0  0  0  0
  -24.3580  -36.8941   22.2051 H   0  0  0  0  0  0
  -23.7233  -37.6519   23.6658 H   0  0  0  0  0  0
  -26.0613  -31.5997   20.6081 H   0  0  0  0  0  0
  -26.8208  -30.8706   21.9953 H   0  0  0  0  0  0
  -28.0968  -29.0810   21.1762 H   0  0  0  0  0  0
  -26.0146  -26.0037   18.9596 H   0  0  0  0  0  0
  -23.9746  -27.3313   18.9966 H   0  0  0  0  0  0
  -23.7224  -30.6159   19.4077 H   0  0  0  0  0  0
  -22.7353  -29.2596   19.8635 H   0  0  0  0  0  0
  -25.1272  -36.1963   25.0825 H   0  0  0  0  0  0
  -20.9961  -28.3247   24.1420 H   0  0  0  0  0  0
  -20.5667  -26.2287   23.3604 H   0  0  0  0  0  0
  -21.6632  -26.7450   22.1198 H   0  0  0  0  0  0
  -19.6897  -25.6305   21.1231 H   0  0  0  0  0  0
  -19.6668  -27.3211   20.6749 H   0  0  0  0  0  0
  -17.4183  -26.6668   21.4042 H   0  0  0  0  0  0
  -18.0329  -26.0068   22.9032 H   0  0  0  0  0  0
  -19.7933  -30.7265   24.2274 H   0  0  0  0  0  0
  -17.5016  -31.6265   24.5183 H   0  0  0  0  0  0
  -15.5350  -30.3009   23.7640 H   0  0  0  0  0  0
  -15.8662  -28.0848   22.7037 H   0  0  0  0  0  0
  -24.5897  -30.7115   25.7863 H   0  0  0  0  0  0
  -24.9008  -32.2906   26.4992 H   0  0  0  0  0  0
  -25.8122  -30.8873   27.0246 H   0  0  0  0  0  0
  -26.2859  -29.6787   24.1210 H   0  0  0  0  0  0
  -27.4042  -29.7271   25.4640 H   0  0  0  0  0  0
  -27.8717  -30.4312   23.9338 H   0  0  0  0  0  0
  -27.2665  -33.3634   26.2080 H   0  0  0  0  0  0
  -28.3863  -32.6902   25.0325 H   0  0  0  0  0  0
  -28.0730  -31.8465   26.5419 H   0  0  0  0  0  0
  -28.2582  -38.0113   24.7531 H   0  0  0  0  0  0
  -28.1087  -36.2649   24.6239 H   0  0  0  0  0  0
  -27.2305  -37.1402   25.8860 H   0  0  0  0  0  0
  -20.9307  -29.8790   21.6954 H   0  0  0  0  0  0
  -26.0166  -38.2867   24.1447 H   0  0  0  0  0  0
  -28.2992  -19.0608   18.9297 H   0  0  0  0  0  0
  -28.3103  -16.6751   19.5321 H   0  0  0  0  0  0
  -31.7228  -17.3408   22.0936 H   0  0  0  0  0  0
  -30.4853  -24.3203   19.0174 H   0  0  0  0  0  0
  -31.2432  -25.1547   20.3703 H   0  0  0  0  0  0
  -31.6235  -23.0452   21.5401 H   0  0  0  0  0  0
  -31.9722  -22.6219   19.8727 H   0  0  0  0  0  0
  -28.0733  -22.6416   20.1272 H   0  0  0  0  0  0
  -28.4207  -22.6286   21.8362 H   0  0  0  0  0  0
  -29.3863  -24.7211   21.8043 H   0  0  0  0  0  0
  -27.2311  -24.9601   20.5592 H   0  0  0  0  0  0
  -28.0934  -24.9353   19.0325 H   0  0  0  0  0  0
  -29.1038  -15.1053   21.5583 H   0  0  0  0  0  0
  1 25  1  0  0  0
  1 30  2  0  0  0
  1 84  1  0  0  0
  2  3  1  0  0  0
  2 25  1  0  0  0
  2 87  1  0  0  0
  2 88  1  0  0  0
  3  4  1  0  0  0
  3 89  1  0  0  0
  3 90  1  0  0  0
  4  5  1  0  0  0
  4 91  1  0  0  0
  4 92  1  0  0  0
  5  6  1  0  0  0
  5 26  1  0  0  0
  5 93  1  0  0  0
  6 25  1  0  0  0
  6 94  1  0  0  0
  6 95  1  0  0  0
  7  8  2  0  0  0
  7 26  1  0  0  0
  7 29  1  0  0  0
  8  9  1  0  0  0
  8 22  1  0  0  0
  9 10  1  0  0  0
  9 27  2  0  0  0
 10 11  2  0  0  0
 10 15  1  0  0  0
 11 12  1  0  0  0
 11 96  1  0  0  0
 12 13  2  0  0  0
 12 97  1  0  0  0
 13 14  1  0  0  0
 13 31  1  0  0  0
 14 15  2  0  0  0
 14 98  1  0  0  0
 15 99  1  0  0  0
 16 17  2  0  0  0
 16 21  1  0  0  0
 16 31  1  0  0  0
 17 18  1  0  0  0
 17100  1  0  0  0
 18 19  2  0  0  0
 18101  1  0  0  0
 19 20  1  0  0  0
 19 24  1  0  0  0
 20 21  2  0  0  0
 20102  1  0  0  0
 21 23  1  0  0  0
 22 28  1  0  0  0
 22 32  2  0  0  0
 26 27  1  0  0  0
 28103  1  0  0  0
 28104  1  0  0  0
 29105  1  0  0  0
 29106  1  0  0  0
 33 34  1  0  0  0
 33 66  1  0  0  0
 33 70  2  0  0  0
 34 36  1  0  0  0
 34 59  1  0  0  0
 34107  1  0  0  0
 35 44  2  0  0  0
 35 45  1  0  0  0
 35 68  1  0  0  0
 36 56  1  0  0  0
 36108  1  0  0  0
 37 39  1  0  0  0
 37 47  1  0  0  0
 37 66  1  0  0  0
 37109  1  0  0  0
 38 43  2  0  0  0
 38 46  1  0  0  0
 38 47  1  0  0  0
 39 64  1  0  0  0
 39 67  2  0  0  0
 40 52  1  0  0  0
 40 53  2  0  0  0
 40 58  1  0  0  0
 41110  1  0  0  0
 41111  1  0  0  0
 41112  1  0  0  0
 41 48  1  0  0  0
 42 43  1  0  0  0
 42 66  1  0  0  0
 42113  1  0  0  0
 42114  1  0  0  0
 43 44  1  0  0  0
 44115  1  0  0  0
 45 46  2  0  0  0
 45116  1  0  0  0
 46117  1  0  0  0
 47118  1  0  0  0
 47119  1  0  0  0
 48 56  1  0  0  0
 48 65  1  0  0  0
 48120  1  0  0  0
 49 50  1  0  0  0
 49 53  1  0  0  0
 49 64  1  0  0  0
 49121  1  0  0  0
 50 51  1  0  0  0
 50122  1  0  0  0
 50123  1  0  0  0
 51 52  1  0  0  0
 51124  1  0  0  0
 51125  1  0  0  0
 52126  1  0  0  0
 52127  1  0  0  0
 53 54  1  0  0  0
 54 55  2  0  0  0
 54128  1  0  0  0
 55 57  1  0  0  0
 55129  1  0  0  0
 56 69  2  0  0  0
 57 58  2  0  0  0
 57130  1  0  0  0
 58131  1  0  0  0
 59 60  1  0  0  0
 59 61  1  0  0  0
 59 62  1  0  0  0
 60132  1  0  0  0
 60133  1  0  0  0
 60134  1  0  0  0
 61135  1  0  0  0
 61136  1  0  0  0
 61137  1  0  0  0
 62138  1  0  0  0
 62139  1  0  0  0
 62140  1  0  0  0
 63 65  1  0  0  0
 63141  1  0  0  0
 63142  1  0  0  0
 63143  1  0  0  0
 64144  1  0  0  0
 65145  1  0  0  0
 68 82  1  0  0  0
 71 72  2  0  0  0
 71 74  1  0  0  0
 71146  1  0  0  0
 72 75  1  0  0  0
 72147  1  0  0  0
 73 75  2  0  0  0
 73 76  1  0  0  0
 73148  1  0  0  0
 74 76  2  0  0  0
 74 77  1  0  0  0
 75 84  1  0  0  0
 76 86  1  0  0  0
 77 83  1  0  0  0
 77 85  2  0  0  0
 78 79  1  0  0  0
 78 81  1  0  0  0
 78149  1  0  0  0
 78150  1  0  0  0
 79 83  1  0  0  0
 79151  1  0  0  0
 79152  1  0  0  0
 80 81  1  0  0  0
 80 83  1  0  0  0
 80153  1  0  0  0
 80154  1  0  0  0
 81 82  1  0  0  0
 81155  1  0  0  0
 82156  1  0  0  0
 82157  1  0  0  0
 84158  1  0  0  0
M  ISO  4   1 100  68 101  82 101  84 100
M  END
> <chiral flag>
0

> <version>
0

> <s_m_source_file>
/data/baiqing/PycharmProjects/Reinvent-master-3.2/result/LINK_invent/BTK/process_docking_weight1_custom_product_contain_oxygen_bond_distance_aromatic_linkinvent_7_9_3/rearranged_h_0105.sdf

> <i_m_source_file_index>
92

> <r_mmod_Potential_Energy-OPLS-2005>
188.682983398438

> <r_mmod_Stretch_Energy-OPLS-2005>
39.6657981872559

> <r_mmod_Bend_Energy-OPLS-2005>
120.707160949707

> <r_mmod_Torsional_Energy-OPLS-2005>
385.269836425781

> <r_mmod_Improper_Torsional_Energy-OPLS-2005>
10.6854152679443

> <r_mmod_Van_der_Waal_Energy-OPLS-2005>
153.290451049805

> <r_mmod_Electrostatic_Energy-OPLS-2005>
-313.307983398438

> <r_mmod_Solvation_Energy-OPLS-2005>
-222.441513061523

> <b_mmod_Minimization_Converged-OPLS-2005>
0

> <r_mmod_RMS_Derivative-OPLS-2005>
1.88756191730499

$$$$
92
                    3D
 Structure written by MMmdl.
144151  0  0  1  0            999 V2000
  -30.2411  -15.6849   20.3159 C   0  0  0  0  0  0
  -30.4356  -13.1019   19.5630 C   0  0  0  0  0  0
  -29.5668  -12.6735   18.3408 C   0  0  0  0  0  0
  -28.1368  -12.3082   18.7699 C   0  0  0  0  0  0
  -27.5983  -13.3145   19.8104 C   0  0  2  0  0  0
  -28.6057  -13.6491   20.9339 C   0  0  0  0  0  0
  -25.2339  -13.8299   20.5785 C   0  0  0  0  0  0
  -24.1727  -13.0441   20.9271 C   0  0  0  0  0  0
  -24.6432  -11.6953   20.8739 C   0  0  0  0  0  0
  -23.9132  -10.4297   21.0383 C   0  0  0  0  0  0
  -24.3663   -9.4211   21.9171 C   0  0  0  0  0  0
  -23.6321   -8.2254   22.0750 C   0  0  0  0  0  0
  -22.4299   -8.0293   21.3542 C   0  0  0  0  0  0
  -21.9948   -9.0268   20.4640 C   0  0  0  0  0  0
  -22.7294  -10.2138   20.3040 C   0  0  0  0  0  0
  -21.6862   -6.0745   22.5280 C   0  0  0  0  0  0
  -21.4022   -6.5644   23.8215 C   0  0  0  0  0  0
  -21.3664   -5.6793   24.9175 C   0  0  0  0  0  0
  -21.6044   -4.3055   24.7222 C   0  0  0  0  0  0
  -21.8817   -3.8150   23.4341 C   0  0  0  0  0  0
  -21.9194   -4.6970   22.3400 C   0  0  0  0  0  0
  -22.7737  -13.5166   21.1920 C   0  0  0  0  0  0
  -22.1661   -4.2157   21.0976 F   0  0  0  0  0  0
  -21.5629   -3.4537   25.7732 F   0  0  0  0  0  0
  -29.7925  -14.2816   20.3080 N   0  0  0  0  0  0
  -26.2786  -12.9639   20.3188 N   0  0  0  0  0  0
  -25.9379  -11.6703   20.5652 N   0  0  0  0  0  0
  -22.0404  -12.8140   22.0471 N   0  0  0  0  0  0
  -25.3948  -15.2044   20.4277 N   0  0  0  0  0  0
  -31.4740  -15.6419   20.1209 O   0  0  0  0  0  0
  -21.6652   -6.8894   21.4244 O   0  0  0  0  0  0
  -22.3407  -14.5464   20.6759 O   0  0  0  0  0  0
  -24.6882  -31.7948   23.1473 C   0  0  0  0  0  0
  -25.9441  -32.4442   23.8039 C   0  0  1  0  0  0
  -27.2303  -26.6572   20.2202 C   0  0  0  0  0  0
  -25.6000  -33.8270   24.1921 N   0  0  0  0  0  0
  -23.5166  -30.3942   21.5029 C   0  0  2  0  0  0
  -24.9750  -28.7249   20.1208 C   0  0  0  0  0  0
  -22.7786  -29.4289   22.4702 C   0  0  0  0  0  0
  -18.0340  -28.1424   22.8450 C   0  0  0  0  0  0
  -24.1497  -36.7144   23.2653 C   0  0  0  0  0  0
  -26.0995  -30.5132   21.4181 C   0  0  0  0  0  0
  -26.1658  -29.0725   20.7696 C   0  0  0  0  0  0
  -27.2771  -28.0690   20.7830 C   0  0  0  0  0  0
  -26.0046  -26.5299   19.5150 C   0  0  0  0  0  0
  -24.9362  -27.4797   19.4693 C   0  0  0  0  0  0
  -23.7732  -29.6859   20.1409 C   0  0  0  0  0  0
  -25.4150  -36.2881   24.0276 C   0  0  1  0  0  0
  -20.5979  -28.3787   23.1132 C   0  0  2  0  0  0
  -20.6805  -26.9442   22.5405 C   0  0  0  0  0  0
  -19.5783  -26.6369   21.5216 C   0  0  0  0  0  0
  -18.1965  -26.7950   22.1617 C   0  0  0  0  0  0
  -19.1608  -28.8931   23.2770 C   0  0  0  0  0  0
  -18.9512  -30.1513   23.8818 C   0  0  0  0  0  0
  -17.6502  -30.6605   24.0549 C   0  0  0  0  0  0
  -25.9133  -34.9272   23.4940 C   0  0  0  0  0  0
  -16.5391  -29.9086   23.6351 C   0  0  0  0  0  0
  -16.7320  -28.6509   23.0365 C   0  0  0  0  0  0
  -26.4601  -31.6496   25.0681 C   0  0  0  0  0  0
  -25.3652  -31.3830   26.1285 C   0  0  0  0  0  0
  -27.0538  -30.2828   24.6616 C   0  0  0  0  0  0
  -27.6039  -32.4367   25.7505 C   0  0  0  0  0  0
  -27.5564  -37.1729   24.8464 C   0  0  0  0  0  0
  -21.4430  -29.3025   22.3448 N   0  0  0  0  0  0
  -26.4271  -37.3646   23.9404 N   0  0  0  0  0  0
  -24.7921  -30.9348   22.0751 N   0  0  0  0  0  0
  -23.4207  -28.7899   23.3069 O   0  0  0  0  0  0
  -28.1890  -25.4181   20.2826 O   0  0  0  0  0  0
  -26.5781  -34.8859   22.4562 O   0  0  0  0  0  0
  -23.5892  -32.1042   23.6399 O   0  0  0  0  0  0
  -29.6392  -19.1956   20.3052 C   0  0  0  0  0  0
  -29.0044  -22.0888   20.2786 C   0  0  0  0  0  0
  -27.3564  -20.1778   20.3468 C   0  0  0  0  0  0
  -29.3105  -17.3387   20.4179 C   0  0  0  0  0  0
  -27.9381  -23.6517   20.2109 C   0  0  0  0  0  0
  -28.7784  -20.5220   20.3086 N   0  0  0  0  0  0
  -30.8519  -19.4040   20.2158 O   0  0  0  0  0  0
  -30.1974  -22.4078   20.2957 O   0  0  0  0  0  0
  -31.4297  -13.3696   19.2035 H   0  0  0  0  0  0
  -30.5980  -12.2573   20.2349 H   0  0  0  0  0  0
  -30.0297  -11.8357   17.8176 H   0  0  0  0  0  0
  -29.5296  -13.4977   17.6270 H   0  0  0  0  0  0
  -28.1629  -11.3102   19.2089 H   0  0  0  0  0  0
  -27.4755  -12.2488   17.9047 H   0  0  0  0  0  0
  -27.4616  -14.2363   19.2430 H   0  0  0  0  0  0
  -28.8603  -12.7662   21.5224 H   0  0  0  0  0  0
  -28.1617  -14.3608   21.6314 H   0  0  0  0  0  0
  -25.2804   -9.5685   22.4753 H   0  0  0  0  0  0
  -24.0022   -7.4648   22.7476 H   0  0  0  0  0  0
  -21.0877   -8.8797   19.8948 H   0  0  0  0  0  0
  -22.3754  -10.9677   19.6149 H   0  0  0  0  0  0
  -21.2018   -7.6152   23.9723 H   0  0  0  0  0  0
  -21.1489   -6.0520   25.9080 H   0  0  0  0  0  0
  -22.0591   -2.7612   23.2837 H   0  0  0  0  0  0
  -22.4048  -11.9819   22.4872 H   0  0  0  0  0  0
  -21.1008  -13.1131   22.2665 H   0  0  0  0  0  0
  -24.6261  -15.8540   20.5530 H   0  0  0  0  0  0
  -26.2433  -15.6514   20.1064 H   0  0  0  0  0  0
  -26.7528  -32.4904   23.0755 H   0  0  0  0  0  0
  -25.0043  -33.9301   25.0003 H   0  0  0  0  0  0
  -22.8446  -31.2327   21.3085 H   0  0  0  0  0  0
  -23.3778  -35.9454   23.3263 H   0  0  0  0  0  0
  -24.3561  -36.8862   22.2078 H   0  0  0  0  0  0
  -23.7242  -37.6300   23.6770 H   0  0  0  0  0  0
  -26.3067  -31.2352   20.6273 H   0  0  0  0  0  0
  -26.9486  -30.5836   22.0854 H   0  0  0  0  0  0
  -28.1736  -28.3454   21.3198 H   0  0  0  0  0  0
  -25.8298  -25.5905   19.0101 H   0  0  0  0  0  0
  -24.0389  -27.2033   18.9328 H   0  0  0  0  0  0
  -23.9514  -30.4433   19.3768 H   0  0  0  0  0  0
  -22.8770  -29.1543   19.8163 H   0  0  0  0  0  0
  -25.1364  -36.1635   25.0766 H   0  0  0  0  0  0
  -21.0057  -28.3417   24.1260 H   0  0  0  0  0  0
  -20.5662  -26.2414   23.3672 H   0  0  0  0  0  0
  -21.6667  -26.7375   22.1228 H   0  0  0  0  0  0
  -19.6940  -25.6258   21.1297 H   0  0  0  0  0  0
  -19.6729  -27.3134   20.6711 H   0  0  0  0  0  0
  -17.4235  -26.6688   21.4021 H   0  0  0  0  0  0
  -18.0354  -26.0113   22.9033 H   0  0  0  0  0  0
  -19.7989  -30.7348   24.2153 H   0  0  0  0  0  0
  -17.5053  -31.6275   24.5168 H   0  0  0  0  0  0
  -15.5388  -30.2962   23.7723 H   0  0  0  0  0  0
  -15.8720  -28.0802   22.7125 H   0  0  0  0  0  0
  -24.5865  -30.7152   25.7582 H   0  0  0  0  0  0
  -24.8810  -32.3056   26.4494 H   0  0  0  0  0  0
  -25.7814  -30.9132   27.0206 H   0  0  0  0  0  0
  -26.3262  -29.6427   24.1616 H   0  0  0  0  0  0
  -27.3952  -29.7295   25.5376 H   0  0  0  0  0  0
  -27.9249  -30.3939   24.0157 H   0  0  0  0  0  0
  -27.2572  -33.3744   26.1862 H   0  0  0  0  0  0
  -28.3963  -32.6809   25.0417 H   0  0  0  0  0  0
  -28.0583  -31.8644   26.5602 H   0  0  0  0  0  0
  -28.2546  -38.0056   24.7512 H   0  0  0  0  0  0
  -28.1094  -36.2577   24.6295 H   0  0  0  0  0  0
  -27.2276  -37.1366   25.8865 H   0  0  0  0  0  0
  -20.9749  -29.8669   21.6495 H   0  0  0  0  0  0
  -26.0094  -38.2692   24.1417 H   0  0  0  0  0  0
  -27.1375  -19.5323   21.1992 H   0  0  0  0  0  0
  -27.0694  -19.6444   19.4392 H   0  0  0  0  0  0
  -26.7012  -21.0459   20.4308 H   0  0  0  0  0  0
  -28.5158  -17.2012   19.6861 H   0  0  0  0  0  0
  -28.7953  -17.2544   21.3736 H   0  0  0  0  0  0
  -27.2009  -23.4721   20.9926 H   0  0  0  0  0  0
  -27.3760  -23.5128   19.2881 H   0  0  0  0  0  0
  1 25  1  0  0  0
  1 30  2  0  0  0
  1 74  1  0  0  0
  2  3  1  0  0  0
  2 25  1  0  0  0
  2 79  1  0  0  0
  2 80  1  0  0  0
  3  4  1  0  0  0
  3 81  1  0  0  0
  3 82  1  0  0  0
  4  5  1  0  0  0
  4 83  1  0  0  0
  4 84  1  0  0  0
  5  6  1  0  0  0
  5 26  1  0  0  0
  5 85  1  0  0  0
  6 25  1  0  0  0
  6 86  1  0  0  0
  6 87  1  0  0  0
  7  8  2  0  0  0
  7 26  1  0  0  0
  7 29  1  0  0  0
  8  9  1  0  0  0
  8 22  1  0  0  0
  9 10  1  0  0  0
  9 27  2  0  0  0
 10 11  2  0  0  0
 10 15  1  0  0  0
 11 12  1  0  0  0
 11 88  1  0  0  0
 12 13  2  0  0  0
 12 89  1  0  0  0
 13 14  1  0  0  0
 13 31  1  0  0  0
 14 15  2  0  0  0
 14 90  1  0  0  0
 15 91  1  0  0  0
 16 17  2  0  0  0
 16 21  1  0  0  0
 16 31  1  0  0  0
 17 18  1  0  0  0
 17 92  1  0  0  0
 18 19  2  0  0  0
 18 93  1  0  0  0
 19 20  1  0  0  0
 19 24  1  0  0  0
 20 21  2  0  0  0
 20 94  1  0  0  0
 21 23  1  0  0  0
 22 28  1  0  0  0
 22 32  2  0  0  0
 26 27  1  0  0  0
 28 95  1  0  0  0
 28 96  1  0  0  0
 29 97  1  0  0  0
 29 98  1  0  0  0
 33 34  1  0  0  0
 33 66  1  0  0  0
 33 70  2  0  0  0
 34 36  1  0  0  0
 34 59  1  0  0  0
 34 99  1  0  0  0
 35 44  2  0  0  0
 35 45  1  0  0  0
 35 68  1  0  0  0
 36 56  1  0  0  0
 36100  1  0  0  0
 37 39  1  0  0  0
 37 47  1  0  0  0
 37 66  1  0  0  0
 37101  1  0  0  0
 38 43  2  0  0  0
 38 46  1  0  0  0
 38 47  1  0  0  0
 39 64  1  0  0  0
 39 67  2  0  0  0
 40 52  1  0  0  0
 40 53  2  0  0  0
 40 58  1  0  0  0
 41102  1  0  0  0
 41103  1  0  0  0
 41104  1  0  0  0
 41 48  1  0  0  0
 42 43  1  0  0  0
 42 66  1  0  0  0
 42105  1  0  0  0
 42106  1  0  0  0
 43 44  1  0  0  0
 44107  1  0  0  0
 45 46  2  0  0  0
 45108  1  0  0  0
 46109  1  0  0  0
 47110  1  0  0  0
 47111  1  0  0  0
 48 56  1  0  0  0
 48 65  1  0  0  0
 48112  1  0  0  0
 49 50  1  0  0  0
 49 53  1  0  0  0
 49 64  1  0  0  0
 49113  1  0  0  0
 50 51  1  0  0  0
 50114  1  0  0  0
 50115  1  0  0  0
 51 52  1  0  0  0
 51116  1  0  0  0
 51117  1  0  0  0
 52118  1  0  0  0
 52119  1  0  0  0
 53 54  1  0  0  0
 54 55  2  0  0  0
 54120  1  0  0  0
 55 57  1  0  0  0
 55121  1  0  0  0
 56 69  2  0  0  0
 57 58  2  0  0  0
 57122  1  0  0  0
 58123  1  0  0  0
 59 60  1  0  0  0
 59 61  1  0  0  0
 59 62  1  0  0  0
 60124  1  0  0  0
 60125  1  0  0  0
 60126  1  0  0  0
 61127  1  0  0  0
 61128  1  0  0  0
 61129  1  0  0  0
 62130  1  0  0  0
 62131  1  0  0  0
 62132  1  0  0  0
 63 65  1  0  0  0
 63133  1  0  0  0
 63134  1  0  0  0
 63135  1  0  0  0
 64136  1  0  0  0
 65137  1  0  0  0
 68 75  1  0  0  0
 71 74  1  0  0  0
 71 76  1  0  0  0
 71 77  2  0  0  0
 72 75  1  0  0  0
 72 76  1  0  0  0
 72 78  2  0  0  0
 73 76  1  0  0  0
 73138  1  0  0  0
 73139  1  0  0  0
 73140  1  0  0  0
 74141  1  0  0  0
 74142  1  0  0  0
 75143  1  0  0  0
 75144  1  0  0  0
M  ISO  4   1 100  68 101  74 100  75 101
M  END
> <chiral flag>
0

> <version>
0

> <s_m_source_file>
/data/baiqing/PycharmProjects/Reinvent-master-3.2/result/LINK_invent/BTK/process_docking_weight1_custom_product_contain_oxygen_bond_distance_aromatic_linkinvent_7_9_3/rearranged_h_0105.sdf

> <i_m_source_file_index>
93

> <r_mmod_Potential_Energy-OPLS-2005>
2619.45678710938

> <r_mmod_Stretch_Energy-OPLS-2005>
1216.1181640625

> <r_mmod_Bend_Energy-OPLS-2005>
664.327514648438

> <r_mmod_Torsional_Energy-OPLS-2005>
209.987838745117

> <r_mmod_Improper_Torsional_Energy-OPLS-2005>
2.40473961830139

> <r_mmod_Van_der_Waal_Energy-OPLS-2005>
107.517028808594

> <r_mmod_Electrostatic_Energy-OPLS-2005>
-296.619934082031

> <r_mmod_Solvation_Energy-OPLS-2005>
-269.823486328125

> <b_mmod_Minimization_Converged-OPLS-2005>
0

> <r_mmod_RMS_Derivative-OPLS-2005>
0.312061905860901

$$$$
93
                    3D
 Structure written by MMmdl.
158166  0  0  1  0            999 V2000
  -30.4405  -14.4788   20.7674 C   0  0  0  0  0  0
  -30.4744  -12.4290   19.3274 C   0  0  0  0  0  0
  -29.4895  -12.5350   18.1308 C   0  0  0  0  0  0
  -28.0036  -12.3339   18.5362 C   0  0  0  0  0  0
  -27.6569  -13.1013   19.8357 C   0  0  2  0  0  0
  -28.6843  -12.6870   20.8887 C   0  0  0  0  0  0
  -25.2809  -13.7817   20.5588 C   0  0  0  0  0  0
  -24.1991  -13.0277   20.9173 C   0  0  0  0  0  0
  -24.6222  -11.6663   20.8572 C   0  0  0  0  0  0
  -23.8897  -10.4130   21.0383 C   0  0  0  0  0  0
  -24.3543   -9.4101   21.9209 C   0  0  0  0  0  0
  -23.6250   -8.2115   22.0746 C   0  0  0  0  0  0
  -22.4238   -8.0144   21.3512 C   0  0  0  0  0  0
  -21.9801   -9.0124   20.4633 C   0  0  0  0  0  0
  -22.7079  -10.1995   20.3074 C   0  0  0  0  0  0
  -21.6791   -6.0707   22.5272 C   0  0  0  0  0  0
  -21.3996   -6.5629   23.8206 C   0  0  0  0  0  0
  -21.3656   -5.6788   24.9149 C   0  0  0  0  0  0
  -21.6056   -4.3041   24.7211 C   0  0  0  0  0  0
  -21.8829   -3.8156   23.4320 C   0  0  0  0  0  0
  -21.9173   -4.6960   22.3388 C   0  0  0  0  0  0
  -22.8025  -13.5187   21.1828 C   0  0  0  0  0  0
  -22.1671   -4.2147   21.0962 F   0  0  0  0  0  0
  -21.5599   -3.4547   25.7721 F   0  0  0  0  0  0
  -29.9683  -13.2369   20.4481 N   0  0  0  0  0  0
  -26.2961  -12.8712   20.3032 N   0  0  0  0  0  0
  -25.9113  -11.5946   20.5555 N   0  0  0  0  0  0
  -22.0648  -12.8240   22.0288 N   0  0  0  0  0  0
  -25.4891  -15.1543   20.4058 N   0  0  0  0  0  0
  -31.5053  -14.8810   20.2682 O   0  0  0  0  0  0
  -21.6555   -6.8824   21.4211 O   0  0  0  0  0  0
  -22.3836  -14.5618   20.6607 O   0  0  0  0  0  0
  -24.6249  -31.8587   23.2027 C   0  0  0  0  0  0
  -25.9137  -32.4810   23.8385 C   0  0  1  0  0  0
  -27.2257  -27.3687   20.1743 C   0  0  0  0  0  0
  -25.5835  -33.8561   24.2183 N   0  0  0  0  0  0
  -23.4308  -30.4879   21.5477 C   0  0  2  0  0  0
  -24.8591  -28.9381   20.1050 C   0  0  0  0  0  0
  -22.7729  -29.4606   22.4962 C   0  0  0  0  0  0
  -18.0680  -28.1421   22.8399 C   0  0  0  0  0  0
  -24.1443  -36.7375   23.2580 C   0  0  0  0  0  0
  -25.9550  -30.8189   21.3594 C   0  0  0  0  0  0
  -26.0233  -29.4554   20.6892 C   0  0  0  0  0  0
  -27.2083  -28.6831   20.6973 C   0  0  0  0  0  0
  -26.0663  -26.8997   19.5188 C   0  0  0  0  0  0
  -24.8748  -27.6721   19.4996 C   0  0  0  0  0  0
  -23.6268  -29.8141   20.1565 C   0  0  0  0  0  0
  -25.4055  -36.3142   24.0306 C   0  0  1  0  0  0
  -20.6172  -28.3558   23.1057 C   0  0  2  0  0  0
  -20.6933  -26.9725   22.3939 C   0  0  0  0  0  0
  -19.5689  -26.7667   21.4098 C   0  0  0  0  0  0
  -18.2130  -26.8373   22.0807 C   0  0  0  0  0  0
  -19.1938  -28.8767   23.3035 C   0  0  0  0  0  0
  -18.9992  -30.1094   23.9431 C   0  0  0  0  0  0
  -17.7145  -30.6298   24.0940 C   0  0  0  0  0  0
  -25.9058  -34.9473   23.5102 C   0  0  0  0  0  0
  -16.5943  -29.9103   23.6479 C   0  0  0  0  0  0
  -16.7699  -28.6638   23.0292 C   0  0  0  0  0  0
  -26.4503  -31.6772   25.0891 C   0  0  0  0  0  0
  -25.3685  -31.4121   26.1643 C   0  0  0  0  0  0
  -27.0198  -30.3061   24.6552 C   0  0  0  0  0  0
  -27.6135  -32.4442   25.7625 C   0  0  0  0  0  0
  -27.5594  -37.1735   24.8369 C   0  0  0  0  0  0
  -21.4465  -29.3000   22.3585 N   0  0  0  0  0  0
  -26.4172  -37.3909   23.9532 N   0  0  0  0  0  0
  -24.6933  -31.0699   22.0914 N   0  0  0  0  0  0
  -23.4242  -28.8181   23.3248 O   0  0  0  0  0  0
  -28.3431  -26.5807   20.3661 O   0  0  0  0  0  0
  -26.5729  -34.8981   22.4732 O   0  0  0  0  0  0
  -23.5388  -32.1211   23.7532 O   0  0  0  0  0  0
  -27.6366  -18.5353   22.6878 C   0  0  0  0  0  0
  -28.5427  -18.7251   20.4782 C   0  0  0  0  0  0
  -28.9622  -16.6017   21.7765 C   0  0  0  0  0  0
  -28.1911  -17.2162   22.8309 C   0  0  0  0  0  0
  -27.8454  -19.3513   21.5651 C   0  0  0  0  0  0
  -29.0422  -17.3836   20.5793 C   0  0  0  0  0  0
  -29.6763  -15.2165   21.9385 C   0  0  0  0  0  0
  -27.6533  -21.8926   21.7416 C   0  0  0  0  0  0
  -27.9005  -16.5192   24.1797 C   0  0  0  0  0  0
  -26.6848  -23.1299   21.6243 C   0  0  0  0  0  0
  -27.2292  -24.6130   21.7346 C   0  0  0  0  0  0
  -28.1498  -25.1495   20.6044 C   0  0  0  0  0  0
  -29.6933  -14.5588   23.0432 N   0  0  0  0  0  0
  -27.1807  -20.6427   21.4676 N   0  0  0  0  0  0
  -28.8310  -22.0605   22.0419 O   0  0  0  0  0  0
  -29.5887  -16.8237   19.4575 F   0  0  0  0  0  0
  -31.4520  -12.7904   19.0022 H   0  0  0  0  0  0
  -30.6417  -11.3862   19.6184 H   0  0  0  0  0  0
  -29.7579  -11.7915   17.3778 H   0  0  0  0  0  0
  -29.6039  -13.5040   17.6405 H   0  0  0  0  0  0
  -27.8274  -11.2600   18.6881 H   0  0  0  0  0  0
  -27.3656  -12.6534   17.7107 H   0  0  0  0  0  0
  -27.7779  -14.1622   19.6382 H   0  0  0  0  0  0
  -28.7578  -11.6011   20.9065 H   0  0  0  0  0  0
  -28.3643  -12.8747   21.9034 H   0  0  0  0  0  0
  -25.2705   -9.5542   22.4782 H   0  0  0  0  0  0
  -23.9900   -7.4504   22.7493 H   0  0  0  0  0  0
  -21.0707   -8.8670   19.9035 H   0  0  0  0  0  0
  -22.3573  -10.9554   19.6212 H   0  0  0  0  0  0
  -21.2039   -7.6157   23.9679 H   0  0  0  0  0  0
  -21.1470   -6.0543   25.9042 H   0  0  0  0  0  0
  -22.0633   -2.7618   23.2820 H   0  0  0  0  0  0
  -22.4069  -11.9947   22.4919 H   0  0  0  0  0  0
  -21.1323  -13.1298   22.2570 H   0  0  0  0  0  0
  -24.8069  -15.8536   20.6719 H   0  0  0  0  0  0
  -26.3642  -15.5594   20.1025 H   0  0  0  0  0  0
  -26.7218  -32.5419   23.1139 H   0  0  0  0  0  0
  -24.9791  -33.9696   25.0170 H   0  0  0  0  0  0
  -22.6985  -31.2928   21.4306 H   0  0  0  0  0  0
  -23.3790  -35.9592   23.2944 H   0  0  0  0  0  0
  -24.3613  -36.9340   22.2061 H   0  0  0  0  0  0
  -23.7010  -37.6395   23.6790 H   0  0  0  0  0  0
  -26.1234  -31.6105   20.6302 H   0  0  0  0  0  0
  -26.8097  -30.8084   22.0182 H   0  0  0  0  0  0
  -28.1129  -29.0969   21.1193 H   0  0  0  0  0  0
  -26.0344  -25.9141   19.0694 H   0  0  0  0  0  0
  -23.9779  -27.2655   19.0541 H   0  0  0  0  0  0
  -23.7303  -30.5923   19.4011 H   0  0  0  0  0  0
  -22.7384  -29.2509   19.8557 H   0  0  0  0  0  0
  -25.1130  -36.1967   25.0753 H   0  0  0  0  0  0
  -21.0151  -28.2770   24.1248 H   0  0  0  0  0  0
  -20.6535  -26.1487   23.1094 H   0  0  0  0  0  0
  -21.6484  -26.8604   21.8722 H   0  0  0  0  0  0
  -19.6730  -25.8063   20.8975 H   0  0  0  0  0  0
  -19.6305  -27.5655   20.6663 H   0  0  0  0  0  0
  -17.4378  -26.7709   21.3203 H   0  0  0  0  0  0
  -18.0869  -26.0028   22.7550 H   0  0  0  0  0  0
  -19.8556  -30.6587   24.3098 H   0  0  0  0  0  0
  -17.5935  -31.5900   24.5789 H   0  0  0  0  0  0
  -15.6074  -30.3171   23.7779 H   0  0  0  0  0  0
  -15.9088  -28.1136   22.6725 H   0  0  0  0  0  0
  -24.5880  -30.7402   25.8103 H   0  0  0  0  0  0
  -24.8867  -32.3351   26.4779 H   0  0  0  0  0  0
  -25.7935  -30.9559   27.0591 H   0  0  0  0  0  0
  -26.2634  -29.6785   24.1819 H   0  0  0  0  0  0
  -27.3860  -29.7509   25.5216 H   0  0  0  0  0  0
  -27.8600  -30.4093   23.9715 H   0  0  0  0  0  0
  -27.2821  -33.3706   26.2293 H   0  0  0  0  0  0
  -28.3937  -32.7037   25.0474 H   0  0  0  0  0  0
  -28.0846  -31.8551   26.5489 H   0  0  0  0  0  0
  -28.2341  -38.0320   24.7949 H   0  0  0  0  0  0
  -28.1393  -36.2919   24.5481 H   0  0  0  0  0  0
  -27.2455  -37.0516   25.8774 H   0  0  0  0  0  0
  -21.0044  -29.7761   21.5888 H   0  0  0  0  0  0
  -26.0049  -38.2865   24.1965 H   0  0  0  0  0  0
  -27.0283  -18.9213   23.4913 H   0  0  0  0  0  0
  -28.6619  -19.2657   19.5487 H   0  0  0  0  0  0
  -28.7986  -16.1724   24.6933 H   0  0  0  0  0  0
  -27.2433  -15.6449   24.0677 H   0  0  0  0  0  0
  -27.4377  -17.1816   24.9184 H   0  0  0  0  0  0
  -25.9565  -23.0165   22.4197 H   0  0  0  0  0  0
  -26.1230  -23.0709   20.6925 H   0  0  0  0  0  0
  -27.6908  -24.7668   22.7198 H   0  0  0  0  0  0
  -26.3310  -25.2469   21.7313 H   0  0  0  0  0  0
  -27.8947  -24.6558   19.6620 H   0  0  0  0  0  0
  -29.1412  -24.7561   20.8192 H   0  0  0  0  0  0
  -29.1690  -14.9310   23.8142 H   0  0  0  0  0  0
  -26.2342  -20.6295   21.0944 H   0  0  0  0  0  0
  1 25  1  0  0  0
  1 30  2  0  0  0
  1 77  1  0  0  0
  2  3  1  0  0  0
  2 25  1  0  0  0
  2 87  1  0  0  0
  2 88  1  0  0  0
  3  4  1  0  0  0
  3 89  1  0  0  0
  3 90  1  0  0  0
  4  5  1  0  0  0
  4 91  1  0  0  0
  4 92  1  0  0  0
  5  6  1  0  0  0
  5 26  1  0  0  0
  5 93  1  0  0  0
  6 25  1  0  0  0
  6 94  1  0  0  0
  6 95  1  0  0  0
  7  8  2  0  0  0
  7 26  1  0  0  0
  7 29  1  0  0  0
  8  9  1  0  0  0
  8 22  1  0  0  0
  9 10  1  0  0  0
  9 27  2  0  0  0
 10 11  2  0  0  0
 10 15  1  0  0  0
 11 12  1  0  0  0
 11 96  1  0  0  0
 12 13  2  0  0  0
 12 97  1  0  0  0
 13 14  1  0  0  0
 13 31  1  0  0  0
 14 15  2  0  0  0
 14 98  1  0  0  0
 15 99  1  0  0  0
 16 17  2  0  0  0
 16 21  1  0  0  0
 16 31  1  0  0  0
 17 18  1  0  0  0
 17100  1  0  0  0
 18 19  2  0  0  0
 18101  1  0  0  0
 19 20  1  0  0  0
 19 24  1  0  0  0
 20 21  2  0  0  0
 20102  1  0  0  0
 21 23  1  0  0  0
 22 28  1  0  0  0
 22 32  2  0  0  0
 26 27  1  0  0  0
 28103  1  0  0  0
 28104  1  0  0  0
 29105  1  0  0  0
 29106  1  0  0  0
 33 34  1  0  0  0
 33 66  1  0  0  0
 33 70  2  0  0  0
 34 36  1  0  0  0
 34 59  1  0  0  0
 34107  1  0  0  0
 35 44  2  0  0  0
 35 45  1  0  0  0
 35 68  1  0  0  0
 36 56  1  0  0  0
 36108  1  0  0  0
 37 39  1  0  0  0
 37 47  1  0  0  0
 37 66  1  0  0  0
 37109  1  0  0  0
 38 43  2  0  0  0
 38 46  1  0  0  0
 38 47  1  0  0  0
 39 64  1  0  0  0
 39 67  2  0  0  0
 40 52  1  0  0  0
 40 53  2  0  0  0
 40 58  1  0  0  0
 41110  1  0  0  0
 41111  1  0  0  0
 41112  1  0  0  0
 41 48  1  0  0  0
 42 43  1  0  0  0
 42 66  1  0  0  0
 42113  1  0  0  0
 42114  1  0  0  0
 43 44  1  0  0  0
 44115  1  0  0  0
 45 46  2  0  0  0
 45116  1  0  0  0
 46117  1  0  0  0
 47118  1  0  0  0
 47119  1  0  0  0
 48 56  1  0  0  0
 48 65  1  0  0  0
 48120  1  0  0  0
 49 50  1  0  0  0
 49 53  1  0  0  0
 49 64  1  0  0  0
 49121  1  0  0  0
 50 51  1  0  0  0
 50122  1  0  0  0
 50123  1  0  0  0
 51 52  1  0  0  0
 51124  1  0  0  0
 51125  1  0  0  0
 52126  1  0  0  0
 52127  1  0  0  0
 53 54  1  0  0  0
 54 55  2  0  0  0
 54128  1  0  0  0
 55 57  1  0  0  0
 55129  1  0  0  0
 56 69  2  0  0  0
 57 58  2  0  0  0
 57130  1  0  0  0
 58131  1  0  0  0
 59 60  1  0  0  0
 59 61  1  0  0  0
 59 62  1  0  0  0
 60132  1  0  0  0
 60133  1  0  0  0
 60134  1  0  0  0
 61135  1  0  0  0
 61136  1  0  0  0
 61137  1  0  0  0
 62138  1  0  0  0
 62139  1  0  0  0
 62140  1  0  0  0
 63 65  1  0  0  0
 63141  1  0  0  0
 63142  1  0  0  0
 63143  1  0  0  0
 64144  1  0  0  0
 65145  1  0  0  0
 68 82  1  0  0  0
 71 74  2  0  0  0
 71 75  1  0  0  0
 71146  1  0  0  0
 72 75  2  0  0  0
 72 76  1  0  0  0
 72147  1  0  0  0
 73 74  1  0  0  0
 73 76  2  0  0  0
 73 77  1  0  0  0
 74 79  1  0  0  0
 75 84  1  0  0  0
 76 86  1  0  0  0
 77 83  2  0  0  0
 78 80  1  0  0  0
 78 84  1  0  0  0
 78 85  2  0  0  0
 79148  1  0  0  0
 79149  1  0  0  0
 79150  1  0  0  0
 80 81  1  0  0  0
 80151  1  0  0  0
 80152  1  0  0  0
 81 82  1  0  0  0
 81153  1  0  0  0
 81154  1  0  0  0
 82155  1  0  0  0
 82156  1  0  0  0
 83157  1  0  0  0
 84158  1  0  0  0
M  ISO  4   1 100  68 101  77 100  82 101
M  END
> <chiral flag>
0

> <version>
0

> <s_m_source_file>
/data/baiqing/PycharmProjects/Reinvent-master-3.2/result/LINK_invent/BTK/process_docking_weight1_custom_product_contain_oxygen_bond_distance_aromatic_linkinvent_7_9_3/rearranged_h_0105.sdf

> <i_m_source_file_index>
94

> <r_mmod_Potential_Energy-OPLS-2005>
291.072967529297

> <r_mmod_Stretch_Energy-OPLS-2005>
92.3264465332031

> <r_mmod_Bend_Energy-OPLS-2005>
174.263290405273

> <r_mmod_Torsional_Energy-OPLS-2005>
250.090454101562

> <r_mmod_Improper_Torsional_Energy-OPLS-2005>
6.34329271316528

> <r_mmod_Van_der_Waal_Energy-OPLS-2005>
166.556091308594

> <r_mmod_Electrostatic_Energy-OPLS-2005>
-256.341156005859

> <r_mmod_Solvation_Energy-OPLS-2005>
-226.798767089844

> <b_mmod_Minimization_Converged-OPLS-2005>
0

> <r_mmod_RMS_Derivative-OPLS-2005>
30.8418560028076

$$$$
94
                    3D
 Structure written by MMmdl.
157165  0  0  1  0            999 V2000
  -30.7102  -14.4911   20.5837 C   0  0  0  0  0  0
  -30.4096  -12.3220   19.4384 C   0  0  0  0  0  0
  -29.5009  -12.5279   18.2109 C   0  0  0  0  0  0
  -28.0165  -12.3961   18.6123 C   0  0  0  0  0  0
  -27.6557  -13.2250   19.8757 C   0  0  2  0  0  0
  -28.6924  -13.0213   21.0008 C   0  0  0  0  0  0
  -25.2486  -13.8200   20.5666 C   0  0  0  0  0  0
  -24.1773  -13.0431   20.9161 C   0  0  0  0  0  0
  -24.6366  -11.6915   20.8712 C   0  0  0  0  0  0
  -23.9062  -10.4293   21.0429 C   0  0  0  0  0  0
  -24.3613   -9.4196   21.9191 C   0  0  0  0  0  0
  -23.6260   -8.2245   22.0787 C   0  0  0  0  0  0
  -22.4228   -8.0292   21.3581 C   0  0  0  0  0  0
  -21.9862   -9.0287   20.4697 C   0  0  0  0  0  0
  -22.7233  -10.2139   20.3073 C   0  0  0  0  0  0
  -21.6844   -6.0717   22.5264 C   0  0  0  0  0  0
  -21.4056   -6.5640   23.8204 C   0  0  0  0  0  0
  -21.3658   -5.6792   24.9168 C   0  0  0  0  0  0
  -21.6021   -4.3054   24.7214 C   0  0  0  0  0  0
  -21.8817   -3.8140   23.4341 C   0  0  0  0  0  0
  -21.9193   -4.6951   22.3394 C   0  0  0  0  0  0
  -22.7790  -13.5212   21.1836 C   0  0  0  0  0  0
  -22.1644   -4.2155   21.0956 F   0  0  0  0  0  0
  -21.5613   -3.4536   25.7726 F   0  0  0  0  0  0
  -30.0199  -13.3235   20.4422 N   0  0  0  0  0  0
  -26.2965  -12.9419   20.3348 N   0  0  0  0  0  0
  -25.9298  -11.6562   20.5718 N   0  0  0  0  0  0
  -22.0395  -12.8268   22.0410 N   0  0  0  0  0  0
  -25.4153  -15.1914   20.4096 N   0  0  0  0  0  0
  -31.8369  -14.6458   20.1092 O   0  0  0  0  0  0
  -21.6620   -6.8865   21.4234 O   0  0  0  0  0  0
  -22.3465  -14.5514   20.6669 O   0  0  0  0  0  0
  -24.6026  -31.8674   23.2133 C   0  0  0  0  0  0
  -25.8909  -32.4839   23.8404 C   0  0  1  0  0  0
  -27.2399  -27.4429   20.0747 C   0  0  0  0  0  0
  -25.5758  -33.8641   24.2300 N   0  0  0  0  0  0
  -23.3943  -30.4857   21.5542 C   0  0  2  0  0  0
  -24.8456  -28.9569   20.1168 C   0  0  0  0  0  0
  -22.7343  -29.4588   22.5023 C   0  0  0  0  0  0
  -18.0256  -28.1324   22.8512 C   0  0  0  0  0  0
  -24.1469  -36.7316   23.2647 C   0  0  0  0  0  0
  -25.9255  -30.8241   21.3824 C   0  0  0  0  0  0
  -26.0031  -29.4633   20.7187 C   0  0  0  0  0  0
  -27.1958  -28.7078   20.7066 C   0  0  0  0  0  0
  -26.0623  -26.9550   19.4597 C   0  0  0  0  0  0
  -24.8676  -27.6987   19.4934 C   0  0  0  0  0  0
  -23.6045  -29.8161   20.1695 C   0  0  0  0  0  0
  -25.4094  -36.3138   24.0345 C   0  0  1  0  0  0
  -20.5827  -28.3556   23.1355 C   0  0  2  0  0  0
  -20.6709  -26.9299   22.5431 C   0  0  0  0  0  0
  -19.5709  -26.6338   21.5203 C   0  0  0  0  0  0
  -18.1891  -26.7892   22.1626 C   0  0  0  0  0  0
  -19.1497  -28.8777   23.2939 C   0  0  0  0  0  0
  -18.9448  -30.1375   23.8935 C   0  0  0  0  0  0
  -17.6449  -30.6558   24.0549 C   0  0  0  0  0  0
  -25.9002  -34.9493   23.5148 C   0  0  0  0  0  0
  -16.5344  -29.9051   23.6326 C   0  0  0  0  0  0
  -16.7238  -28.6465   23.0381 C   0  0  0  0  0  0
  -26.4347  -31.6662   25.0750 C   0  0  0  0  0  0
  -25.3612  -31.3794   26.1512 C   0  0  0  0  0  0
  -27.0165  -30.3102   24.6170 C   0  0  0  0  0  0
  -27.5950  -32.4388   25.7447 C   0  0  0  0  0  0
  -27.5602  -37.1784   24.8439 C   0  0  0  0  0  0
  -21.4091  -29.2923   22.3764 N   0  0  0  0  0  0
  -26.4293  -37.3819   23.9420 N   0  0  0  0  0  0
  -24.6574  -31.0725   22.1076 N   0  0  0  0  0  0
  -23.4143  -28.8142   23.3063 O   0  0  0  0  0  0
  -28.4365  -26.7512   20.0826 O   0  0  0  0  0  0
  -26.5623  -34.8949   22.4745 O   0  0  0  0  0  0
  -23.5215  -32.1442   23.7509 O   0  0  0  0  0  0
  -29.9358  -18.6682   20.1230 C   0  0  0  0  0  0
  -29.5896  -20.0257   19.9317 C   0  0  0  0  0  0
  -29.2691  -20.2679   22.3230 C   0  0  0  0  0  0
  -30.0161  -18.1076   21.4212 C   0  0  0  0  0  0
  -29.5908  -18.9044   22.5171 C   0  0  0  0  0  0
  -29.3277  -20.8617   21.0449 C   0  0  0  0  0  0
  -29.7384  -23.1612   20.1548 C   0  0  0  0  0  0
  -29.4897  -18.3494   23.9287 C   0  0  0  0  0  0
  -30.7327  -16.7556   21.6315 C   0  0  0  0  0  0
  -29.5599  -24.6528   20.4955 C   0  0  0  0  0  0
  -28.4821  -25.3770   19.6658 C   0  0  0  0  0  0
  -29.1058  -22.2707   20.9445 N   0  0  0  0  0  0
  -30.0706  -15.5129   21.1973 N   0  0  0  0  0  0
  -30.4712  -22.8446   19.2147 O   0  0  0  0  0  0
  -31.4634  -12.3930   19.1627 H   0  0  0  0  0  0
  -30.2787  -11.3187   19.8468 H   0  0  0  0  0  0
  -29.7472  -11.8056   17.4307 H   0  0  0  0  0  0
  -29.6895  -13.5106   17.7742 H   0  0  0  0  0  0
  -27.8141  -11.3419   18.7894 H   0  0  0  0  0  0
  -27.3819  -12.6974   17.7765 H   0  0  0  0  0  0
  -27.6951  -14.2745   19.5839 H   0  0  0  0  0  0
  -28.6650  -11.9937   21.3654 H   0  0  0  0  0  0
  -28.4499  -13.6462   21.8614 H   0  0  0  0  0  0
  -25.2774   -9.5659   22.4755 H   0  0  0  0  0  0
  -24.0000   -7.4609   22.7461 H   0  0  0  0  0  0
  -21.0814   -8.8803   19.8970 H   0  0  0  0  0  0
  -22.3723  -10.9678   19.6170 H   0  0  0  0  0  0
  -21.2098   -7.6146   23.9720 H   0  0  0  0  0  0
  -21.1469   -6.0514   25.9071 H   0  0  0  0  0  0
  -22.0602   -2.7603   23.2820 H   0  0  0  0  0  0
  -22.4016  -12.0005   22.4917 H   0  0  0  0  0  0
  -21.1034  -13.1369   22.2623 H   0  0  0  0  0  0
  -24.6439  -15.8426   20.5123 H   0  0  0  0  0  0
  -26.2713  -15.6447   20.1146 H   0  0  0  0  0  0
  -26.6952  -32.5528   23.1135 H   0  0  0  0  0  0
  -24.9768  -33.9816   25.0347 H   0  0  0  0  0  0
  -22.6816  -31.3010   21.4112 H   0  0  0  0  0  0
  -23.3778  -35.9596   23.3279 H   0  0  0  0  0  0
  -24.3592  -36.8972   22.2072 H   0  0  0  0  0  0
  -23.7177  -37.6486   23.6692 H   0  0  0  0  0  0
  -26.0558  -31.6019   20.6290 H   0  0  0  0  0  0
  -26.8025  -30.8611   22.0164 H   0  0  0  0  0  0
  -28.0869  -29.0889   21.1879 H   0  0  0  0  0  0
  -26.0374  -26.0140   18.9319 H   0  0  0  0  0  0
  -23.9778  -27.3013   19.0253 H   0  0  0  0  0  0
  -23.7010  -30.5854   19.4030 H   0  0  0  0  0  0
  -22.7349  -29.2212   19.8848 H   0  0  0  0  0  0
  -25.1276  -36.2013   25.0845 H   0  0  0  0  0  0
  -20.9915  -28.3063   24.1471 H   0  0  0  0  0  0
  -20.5538  -26.2129   23.3567 H   0  0  0  0  0  0
  -21.6588  -26.7274   22.1266 H   0  0  0  0  0  0
  -19.6841  -25.6253   21.1214 H   0  0  0  0  0  0
  -19.6685  -27.3148   20.6736 H   0  0  0  0  0  0
  -17.4142  -26.6616   21.4056 H   0  0  0  0  0  0
  -18.0306  -26.0012   22.8997 H   0  0  0  0  0  0
  -19.7920  -30.7179   24.2325 H   0  0  0  0  0  0
  -17.5017  -31.6269   24.5070 H   0  0  0  0  0  0
  -15.5340  -30.2972   23.7646 H   0  0  0  0  0  0
  -15.8631  -28.0777   22.7122 H   0  0  0  0  0  0
  -24.5704  -30.7246   25.7833 H   0  0  0  0  0  0
  -24.8879  -32.2967   26.5032 H   0  0  0  0  0  0
  -25.7925  -30.8868   27.0234 H   0  0  0  0  0  0
  -26.2723  -29.6929   24.1130 H   0  0  0  0  0  0
  -27.3804  -29.7301   25.4658 H   0  0  0  0  0  0
  -27.8619  -30.4431   23.9419 H   0  0  0  0  0  0
  -27.2578  -33.3652   26.2108 H   0  0  0  0  0  0
  -28.3644  -32.7030   25.0180 H   0  0  0  0  0  0
  -28.0732  -31.8485   26.5268 H   0  0  0  0  0  0
  -28.2564  -38.0136   24.7602 H   0  0  0  0  0  0
  -28.1160  -36.2694   24.6109 H   0  0  0  0  0  0
  -27.2344  -37.1239   25.8840 H   0  0  0  0  0  0
  -20.9210  -29.8630   21.7004 H   0  0  0  0  0  0
  -26.0196  -38.2879   24.1529 H   0  0  0  0  0  0
  -30.2022  -18.0713   19.2619 H   0  0  0  0  0  0
  -29.5683  -20.4326   18.9301 H   0  0  0  0  0  0
  -29.0232  -20.8775   23.1845 H   0  0  0  0  0  0
  -28.5938  -18.7360   24.4140 H   0  0  0  0  0  0
  -30.3560  -18.6393   24.5244 H   0  0  0  0  0  0
  -29.3950  -17.2641   23.9433 H   0  0  0  0  0  0
  -31.0154  -16.6190   22.6747 H   0  0  0  0  0  0
  -31.6933  -16.8669   21.1294 H   0  0  0  0  0  0
  -30.5178  -25.1572   20.3580 H   0  0  0  0  0  0
  -29.3251  -24.7512   21.5545 H   0  0  0  0  0  0
  -27.5413  -24.8517   19.8267 H   0  0  0  0  0  0
  -28.7143  -25.3345   18.6005 H   0  0  0  0  0  0
  -28.5548  -22.6806   21.6877 H   0  0  0  0  0  0
  -29.1228  -15.3563   21.5056 H   0  0  0  0  0  0
  1 25  1  0  0  0
  1 30  2  0  0  0
  1 83  1  0  0  0
  2  3  1  0  0  0
  2 25  1  0  0  0
  2 85  1  0  0  0
  2 86  1  0  0  0
  3  4  1  0  0  0
  3 87  1  0  0  0
  3 88  1  0  0  0
  4  5  1  0  0  0
  4 89  1  0  0  0
  4 90  1  0  0  0
  5  6  1  0  0  0
  5 26  1  0  0  0
  5 91  1  0  0  0
  6 25  1  0  0  0
  6 92  1  0  0  0
  6 93  1  0  0  0
  7  8  2  0  0  0
  7 26  1  0  0  0
  7 29  1  0  0  0
  8  9  1  0  0  0
  8 22  1  0  0  0
  9 10  1  0  0  0
  9 27  2  0  0  0
 10 11  2  0  0  0
 10 15  1  0  0  0
 11 12  1  0  0  0
 11 94  1  0  0  0
 12 13  2  0  0  0
 12 95  1  0  0  0
 13 14  1  0  0  0
 13 31  1  0  0  0
 14 15  2  0  0  0
 14 96  1  0  0  0
 15 97  1  0  0  0
 16 17  2  0  0  0
 16 21  1  0  0  0
 16 31  1  0  0  0
 17 18  1  0  0  0
 17 98  1  0  0  0
 18 19  2  0  0  0
 18 99  1  0  0  0
 19 20  1  0  0  0
 19 24  1  0  0  0
 20 21  2  0  0  0
 20100  1  0  0  0
 21 23  1  0  0  0
 22 28  1  0  0  0
 22 32  2  0  0  0
 26 27  1  0  0  0
 28101  1  0  0  0
 28102  1  0  0  0
 29103  1  0  0  0
 29104  1  0  0  0
 33 34  1  0  0  0
 33 66  1  0  0  0
 33 70  2  0  0  0
 34 36  1  0  0  0
 34 59  1  0  0  0
 34105  1  0  0  0
 35 44  2  0  0  0
 35 45  1  0  0  0
 35 68  1  0  0  0
 36 56  1  0  0  0
 36106  1  0  0  0
 37 39  1  0  0  0
 37 47  1  0  0  0
 37 66  1  0  0  0
 37107  1  0  0  0
 38 43  2  0  0  0
 38 46  1  0  0  0
 38 47  1  0  0  0
 39 64  1  0  0  0
 39 67  2  0  0  0
 40 52  1  0  0  0
 40 53  2  0  0  0
 40 58  1  0  0  0
 41108  1  0  0  0
 41109  1  0  0  0
 41110  1  0  0  0
 41 48  1  0  0  0
 42 43  1  0  0  0
 42 66  1  0  0  0
 42111  1  0  0  0
 42112  1  0  0  0
 43 44  1  0  0  0
 44113  1  0  0  0
 45 46  2  0  0  0
 45114  1  0  0  0
 46115  1  0  0  0
 47116  1  0  0  0
 47117  1  0  0  0
 48 56  1  0  0  0
 48 65  1  0  0  0
 48118  1  0  0  0
 49 50  1  0  0  0
 49 53  1  0  0  0
 49 64  1  0  0  0
 49119  1  0  0  0
 50 51  1  0  0  0
 50120  1  0  0  0
 50121  1  0  0  0
 51 52  1  0  0  0
 51122  1  0  0  0
 51123  1  0  0  0
 52124  1  0  0  0
 52125  1  0  0  0
 53 54  1  0  0  0
 54 55  2  0  0  0
 54126  1  0  0  0
 55 57  1  0  0  0
 55127  1  0  0  0
 56 69  2  0  0  0
 57 58  2  0  0  0
 57128  1  0  0  0
 58129  1  0  0  0
 59 60  1  0  0  0
 59 61  1  0  0  0
 59 62  1  0  0  0
 60130  1  0  0  0
 60131  1  0  0  0
 60132  1  0  0  0
 61133  1  0  0  0
 61134  1  0  0  0
 61135  1  0  0  0
 62136  1  0  0  0
 62137  1  0  0  0
 62138  1  0  0  0
 63 65  1  0  0  0
 63139  1  0  0  0
 63140  1  0  0  0
 63141  1  0  0  0
 64142  1  0  0  0
 65143  1  0  0  0
 68 81  1  0  0  0
 71 72  2  0  0  0
 71 74  1  0  0  0
 71144  1  0  0  0
 72 76  1  0  0  0
 72145  1  0  0  0
 73 75  1  0  0  0
 73 76  2  0  0  0
 73146  1  0  0  0
 74 75  2  0  0  0
 74 79  1  0  0  0
 75 78  1  0  0  0
 76 82  1  0  0  0
 77 80  1  0  0  0
 77 82  1  0  0  0
 77 84  2  0  0  0
 78147  1  0  0  0
 78148  1  0  0  0
 78149  1  0  0  0
 79 83  1  0  0  0
 79150  1  0  0  0
 79151  1  0  0  0
 80 81  1  0  0  0
 80152  1  0  0  0
 80153  1  0  0  0
 81154  1  0  0  0
 81155  1  0  0  0
 82156  1  0  0  0
 83157  1  0  0  0
M  ISO  4   1 100  68 101  81 101  83 100
M  END
> <chiral flag>
0

> <version>
0

> <s_m_source_file>
/data/baiqing/PycharmProjects/Reinvent-master-3.2/result/LINK_invent/BTK/process_docking_weight1_custom_product_contain_oxygen_bond_distance_aromatic_linkinvent_7_9_3/rearranged_h_0105.sdf

> <i_m_source_file_index>
95

> <r_mmod_Potential_Energy-OPLS-2005>
-122.232391357422

> <r_mmod_Stretch_Energy-OPLS-2005>
38.7317771911621

> <r_mmod_Bend_Energy-OPLS-2005>
109.371124267578

> <r_mmod_Torsional_Energy-OPLS-2005>
230.382019042969

> <r_mmod_Improper_Torsional_Energy-OPLS-2005>
3.91771697998047

> <r_mmod_Van_der_Waal_Energy-OPLS-2005>
160.414901733398

> <r_mmod_Electrostatic_Energy-OPLS-2005>
-448.855590820312

> <r_mmod_Solvation_Energy-OPLS-2005>
-230.894653320312

> <b_mmod_Minimization_Converged-OPLS-2005>
0

> <r_mmod_RMS_Derivative-OPLS-2005>
5.10821676254272

$$$$
95
                    3D
 Structure written by MMmdl.
162170  0  0  1  0            999 V2000
  -30.6639  -14.6223   20.5666 C   0  0  0  0  0  0
  -30.4218  -12.4003   19.4603 C   0  0  0  0  0  0
  -29.5053  -12.5376   18.2254 C   0  0  0  0  0  0
  -28.0255  -12.3758   18.6233 C   0  0  0  0  0  0
  -27.6508  -13.2247   19.8662 C   0  0  2  0  0  0
  -28.6853  -13.0546   20.9971 C   0  0  0  0  0  0
  -25.2540  -13.8192   20.5679 C   0  0  0  0  0  0
  -24.1819  -13.0440   20.9181 C   0  0  0  0  0  0
  -24.6401  -11.6915   20.8720 C   0  0  0  0  0  0
  -23.9081  -10.4290   21.0401 C   0  0  0  0  0  0
  -24.3629   -9.4208   21.9187 C   0  0  0  0  0  0
  -23.6299   -8.2247   22.0760 C   0  0  0  0  0  0
  -22.4280   -8.0290   21.3550 C   0  0  0  0  0  0
  -21.9917   -9.0265   20.4650 C   0  0  0  0  0  0
  -22.7253  -10.2138   20.3054 C   0  0  0  0  0  0
  -21.6856   -6.0738   22.5282 C   0  0  0  0  0  0
  -21.4023   -6.5642   23.8215 C   0  0  0  0  0  0
  -21.3660   -5.6795   24.9177 C   0  0  0  0  0  0
  -21.6045   -4.3060   24.7228 C   0  0  0  0  0  0
  -21.8823   -3.8149   23.4351 C   0  0  0  0  0  0
  -21.9200   -4.6964   22.3404 C   0  0  0  0  0  0
  -22.7843  -13.5227   21.1862 C   0  0  0  0  0  0
  -22.1664   -4.2147   21.0981 F   0  0  0  0  0  0
  -21.5624   -3.4542   25.7739 F   0  0  0  0  0  0
  -30.0068  -13.4149   20.4561 N   0  0  0  0  0  0
  -26.2965  -12.9389   20.3293 N   0  0  0  0  0  0
  -25.9325  -11.6532   20.5715 N   0  0  0  0  0  0
  -22.0491  -12.8201   22.0406 N   0  0  0  0  0  0
  -25.4255  -15.1911   20.4089 N   0  0  0  0  0  0
  -31.7606  -14.7844   20.0222 O   0  0  0  0  0  0
  -21.6648   -6.8885   21.4244 O   0  0  0  0  0  0
  -22.3527  -14.5542   20.6730 O   0  0  0  0  0  0
  -24.6255  -31.8592   23.2010 C   0  0  0  0  0  0
  -25.9099  -32.4772   23.8346 C   0  0  1  0  0  0
  -27.2290  -27.3209   20.1096 C   0  0  0  0  0  0
  -25.5906  -33.8571   24.2270 N   0  0  0  0  0  0
  -23.4194  -30.4804   21.5438 C   0  0  2  0  0  0
  -24.8643  -28.9298   20.1100 C   0  0  0  0  0  0
  -22.7467  -29.4625   22.4943 C   0  0  0  0  0  0
  -18.0285  -28.1389   22.8481 C   0  0  0  0  0  0
  -24.1492  -36.7289   23.2642 C   0  0  0  0  0  0
  -25.9588  -30.7877   21.3728 C   0  0  0  0  0  0
  -26.0306  -29.4150   20.7132 C   0  0  0  0  0  0
  -27.2116  -28.6191   20.7046 C   0  0  0  0  0  0
  -26.0369  -26.8754   19.4976 C   0  0  0  0  0  0
  -24.8685  -27.6652   19.4968 C   0  0  0  0  0  0
  -23.6312  -29.8093   20.1603 C   0  0  0  0  0  0
  -25.4117  -36.3078   24.0333 C   0  0  1  0  0  0
  -20.5883  -28.3693   23.1278 C   0  0  2  0  0  0
  -20.6783  -26.9417   22.5397 C   0  0  0  0  0  0
  -19.5764  -26.6392   21.5201 C   0  0  0  0  0  0
  -18.1938  -26.7939   22.1612 C   0  0  0  0  0  0
  -19.1538  -28.8859   23.2879 C   0  0  0  0  0  0
  -18.9464  -30.1463   23.8898 C   0  0  0  0  0  0
  -17.6465  -30.6594   24.0560 C   0  0  0  0  0  0
  -25.9050  -34.9450   23.5109 C   0  0  0  0  0  0
  -16.5351  -29.9086   23.6339 C   0  0  0  0  0  0
  -16.7273  -28.6502   23.0357 C   0  0  0  0  0  0
  -26.4483  -31.6597   25.0729 C   0  0  0  0  0  0
  -25.3698  -31.3721   26.1441 C   0  0  0  0  0  0
  -27.0356  -30.3031   24.6202 C   0  0  0  0  0  0
  -27.6054  -32.4328   25.7483 C   0  0  0  0  0  0
  -27.5584  -37.1797   24.8462 C   0  0  0  0  0  0
  -21.4183  -29.3043   22.3673 N   0  0  0  0  0  0
  -26.4302  -37.3768   23.9401 N   0  0  0  0  0  0
  -24.6866  -31.0592   22.0965 N   0  0  0  0  0  0
  -23.4186  -28.8182   23.3043 O   0  0  0  0  0  0
  -28.3821  -26.5280   20.1665 O   0  0  0  0  0  0
  -26.5622  -34.8920   22.4677 O   0  0  0  0  0  0
  -23.5416  -32.1404   23.7337 O   0  0  0  0  0  0
  -28.5382  -17.7337   21.7667 C   0  0  0  0  0  0
  -29.8476  -19.4953   20.0724 C   0  0  0  0  0  0
  -29.6511  -17.1890   21.0612 C   0  0  0  0  0  0
  -30.2824  -18.1190   20.1559 C   0  0  0  0  0  0
  -28.1076  -19.0920   21.6783 C   0  0  0  0  0  0
  -28.7785  -20.0199   20.8471 C   0  0  0  0  0  0
  -30.0808  -15.7478   21.5034 C   0  0  0  0  0  0
  -32.0602  -18.6982   18.3257 C   0  0  0  0  0  0
  -26.2688  -18.7086   23.1938 C   0  0  0  0  0  0
  -31.4536  -17.6612   19.2857 C   0  0  0  0  0  0
  -28.2225  -23.8884   20.5212 C   0  0  0  0  0  0
  -28.4856  -25.1631   19.6043 C   0  0  0  0  0  0
  -28.7856  -22.4612   20.0593 C   0  0  0  0  0  0
  -29.9750  -15.4612   22.7375 N   0  0  0  0  0  0
  -27.0431  -19.5968   22.3984 O   0  0  0  0  0  0
  -28.3224  -21.3582   20.8980 O   0  0  0  0  0  0
  -31.4681  -12.5034   19.1674 H   0  0  0  0  0  0
  -30.3362  -11.3991   19.8853 H   0  0  0  0  0  0
  -29.7728  -11.7963   17.4709 H   0  0  0  0  0  0
  -29.6590  -13.5147   17.7651 H   0  0  0  0  0  0
  -27.8496  -11.3199   18.8284 H   0  0  0  0  0  0
  -27.3792  -12.6377   17.7847 H   0  0  0  0  0  0
  -27.6783  -14.2677   19.5515 H   0  0  0  0  0  0
  -28.6943  -12.0222   21.3492 H   0  0  0  0  0  0
  -28.3914  -13.6483   21.8601 H   0  0  0  0  0  0
  -25.2782   -9.5675   22.4755 H   0  0  0  0  0  0
  -24.0015   -7.4631   22.7474 H   0  0  0  0  0  0
  -21.0854   -8.8797   19.8939 H   0  0  0  0  0  0
  -22.3738  -10.9684   19.6157 H   0  0  0  0  0  0
  -21.2022   -7.6152   23.9717 H   0  0  0  0  0  0
  -21.1471   -6.0525   25.9078 H   0  0  0  0  0  0
  -22.0600   -2.7612   23.2857 H   0  0  0  0  0  0
  -22.4129  -11.9851   22.4756 H   0  0  0  0  0  0
  -21.1111  -13.1218   22.2631 H   0  0  0  0  0  0
  -24.6526  -15.8413   20.4975 H   0  0  0  0  0  0
  -26.2715  -15.6248   20.0616 H   0  0  0  0  0  0
  -26.7169  -32.5428   23.1096 H   0  0  0  0  0  0
  -25.0050  -33.9708   25.0415 H   0  0  0  0  0  0
  -22.7147  -31.3019   21.3985 H   0  0  0  0  0  0
  -23.3762  -35.9611   23.3300 H   0  0  0  0  0  0
  -24.3586  -36.8919   22.2054 H   0  0  0  0  0  0
  -23.7245  -37.6489   23.6676 H   0  0  0  0  0  0
  -26.0934  -31.5532   20.6079 H   0  0  0  0  0  0
  -26.8377  -30.8321   22.0053 H   0  0  0  0  0  0
  -28.1098  -28.9861   21.1818 H   0  0  0  0  0  0
  -25.9770  -25.9025   19.0355 H   0  0  0  0  0  0
  -23.9707  -27.2843   19.0291 H   0  0  0  0  0  0
  -23.7431  -30.5823   19.3993 H   0  0  0  0  0  0
  -22.7516  -29.2339   19.8654 H   0  0  0  0  0  0
  -25.1305  -36.1938   25.0830 H   0  0  0  0  0  0
  -20.9977  -28.3264   24.1400 H   0  0  0  0  0  0
  -20.5698  -26.2293   23.3589 H   0  0  0  0  0  0
  -21.6652  -26.7465   22.1183 H   0  0  0  0  0  0
  -19.6935  -25.6303   21.1233 H   0  0  0  0  0  0
  -19.6714  -27.3199   20.6728 H   0  0  0  0  0  0
  -17.4208  -26.6680   21.4011 H   0  0  0  0  0  0
  -18.0349  -26.0087   22.9016 H   0  0  0  0  0  0
  -19.7942  -30.7277   24.2269 H   0  0  0  0  0  0
  -17.5018  -31.6277   24.5154 H   0  0  0  0  0  0
  -15.5351  -30.2977   23.7689 H   0  0  0  0  0  0
  -15.8672  -28.0820   22.7078 H   0  0  0  0  0  0
  -24.5894  -30.7060   25.7747 H   0  0  0  0  0  0
  -24.8850  -32.2868   26.4858 H   0  0  0  0  0  0
  -25.7997  -30.8900   27.0230 H   0  0  0  0  0  0
  -26.2961  -29.6744   24.1235 H   0  0  0  0  0  0
  -27.4078  -29.7323   25.4724 H   0  0  0  0  0  0
  -27.8804  -30.4340   23.9437 H   0  0  0  0  0  0
  -27.2705  -33.3648   26.2048 H   0  0  0  0  0  0
  -28.3854  -32.6854   25.0286 H   0  0  0  0  0  0
  -28.0738  -31.8461   26.5396 H   0  0  0  0  0  0
  -28.2595  -38.0099   24.7521 H   0  0  0  0  0  0
  -28.1095  -36.2635   24.6293 H   0  0  0  0  0  0
  -27.2295  -37.1435   25.8861 H   0  0  0  0  0  0
  -20.9375  -29.8728   21.6845 H   0  0  0  0  0  0
  -26.0191  -38.2848   24.1401 H   0  0  0  0  0  0
  -28.0139  -17.0719   22.4396 H   0  0  0  0  0  0
  -30.3555  -20.1884   19.4200 H   0  0  0  0  0  0
  -32.8549  -18.2454   17.7326 H   0  0  0  0  0  0
  -32.5009  -19.5365   18.8657 H   0  0  0  0  0  0
  -31.3185  -19.0845   17.6253 H   0  0  0  0  0  0
  -25.4326  -19.2564   23.6293 H   0  0  0  0  0  0
  -26.8538  -18.2937   24.0160 H   0  0  0  0  0  0
  -25.8516  -17.8947   22.5993 H   0  0  0  0  0  0
  -31.1075  -16.8247   18.6794 H   0  0  0  0  0  0
  -32.2465  -17.2930   19.9375 H   0  0  0  0  0  0
  -27.1453  -23.8037   20.6682 H   0  0  0  0  0  0
  -28.6323  -24.0951   21.5095 H   0  0  0  0  0  0
  -27.9301  -25.0782   18.6711 H   0  0  0  0  0  0
  -29.5270  -25.0916   19.2883 H   0  0  0  0  0  0
  -29.8756  -22.4838   20.0554 H   0  0  0  0  0  0
  -28.4691  -22.2593   19.0357 H   0  0  0  0  0  0
  -29.6170  -16.2461   23.2671 H   0  0  0  0  0  0
  1 25  1  0  0  0
  1 30  2  0  0  0
  1 77  1  0  0  0
  2  3  1  0  0  0
  2 25  1  0  0  0
  2 87  1  0  0  0
  2 88  1  0  0  0
  3  4  1  0  0  0
  3 89  1  0  0  0
  3 90  1  0  0  0
  4  5  1  0  0  0
  4 91  1  0  0  0
  4 92  1  0  0  0
  5  6  1  0  0  0
  5 26  1  0  0  0
  5 93  1  0  0  0
  6 25  1  0  0  0
  6 94  1  0  0  0
  6 95  1  0  0  0
  7  8  2  0  0  0
  7 26  1  0  0  0
  7 29  1  0  0  0
  8  9  1  0  0  0
  8 22  1  0  0  0
  9 10  1  0  0  0
  9 27  2  0  0  0
 10 11  2  0  0  0
 10 15  1  0  0  0
 11 12  1  0  0  0
 11 96  1  0  0  0
 12 13  2  0  0  0
 12 97  1  0  0  0
 13 14  1  0  0  0
 13 31  1  0  0  0
 14 15  2  0  0  0
 14 98  1  0  0  0
 15 99  1  0  0  0
 16 17  2  0  0  0
 16 21  1  0  0  0
 16 31  1  0  0  0
 17 18  1  0  0  0
 17100  1  0  0  0
 18 19  2  0  0  0
 18101  1  0  0  0
 19 20  1  0  0  0
 19 24  1  0  0  0
 20 21  2  0  0  0
 20102  1  0  0  0
 21 23  1  0  0  0
 22 28  1  0  0  0
 22 32  2  0  0  0
 26 27  1  0  0  0
 28103  1  0  0  0
 28104  1  0  0  0
 29105  1  0  0  0
 29106  1  0  0  0
 33 34  1  0  0  0
 33 66  1  0  0  0
 33 70  2  0  0  0
 34 36  1  0  0  0
 34 59  1  0  0  0
 34107  1  0  0  0
 35 44  2  0  0  0
 35 45  1  0  0  0
 35 68  1  0  0  0
 36 56  1  0  0  0
 36108  1  0  0  0
 37 39  1  0  0  0
 37 47  1  0  0  0
 37 66  1  0  0  0
 37109  1  0  0  0
 38 43  2  0  0  0
 38 46  1  0  0  0
 38 47  1  0  0  0
 39 64  1  0  0  0
 39 67  2  0  0  0
 40 52  1  0  0  0
 40 53  2  0  0  0
 40 58  1  0  0  0
 41110  1  0  0  0
 41111  1  0  0  0
 41112  1  0  0  0
 41 48  1  0  0  0
 42 43  1  0  0  0
 42 66  1  0  0  0
 42113  1  0  0  0
 42114  1  0  0  0
 43 44  1  0  0  0
 44115  1  0  0  0
 45 46  2  0  0  0
 45116  1  0  0  0
 46117  1  0  0  0
 47118  1  0  0  0
 47119  1  0  0  0
 48 56  1  0  0  0
 48 65  1  0  0  0
 48120  1  0  0  0
 49 50  1  0  0  0
 49 53  1  0  0  0
 49 64  1  0  0  0
 49121  1  0  0  0
 50 51  1  0  0  0
 50122  1  0  0  0
 50123  1  0  0  0
 51 52  1  0  0  0
 51124  1  0  0  0
 51125  1  0  0  0
 52126  1  0  0  0
 52127  1  0  0  0
 53 54  1  0  0  0
 54 55  2  0  0  0
 54128  1  0  0  0
 55 57  1  0  0  0
 55129  1  0  0  0
 56 69  2  0  0  0
 57 58  2  0  0  0
 57130  1  0  0  0
 58131  1  0  0  0
 59 60  1  0  0  0
 59 61  1  0  0  0
 59 62  1  0  0  0
 60132  1  0  0  0
 60133  1  0  0  0
 60134  1  0  0  0
 61135  1  0  0  0
 61136  1  0  0  0
 61137  1  0  0  0
 62138  1  0  0  0
 62139  1  0  0  0
 62140  1  0  0  0
 63 65  1  0  0  0
 63141  1  0  0  0
 63142  1  0  0  0
 63143  1  0  0  0
 64144  1  0  0  0
 65145  1  0  0  0
 68 82  1  0  0  0
 71 73  2  0  0  0
 71 75  1  0  0  0
 71146  1  0  0  0
 72 74  2  0  0  0
 72 76  1  0  0  0
 72147  1  0  0  0
 73 74  1  0  0  0
 73 77  1  0  0  0
 74 80  1  0  0  0
 75 76  2  0  0  0
 75 85  1  0  0  0
 76 86  1  0  0  0
 77 84  2  0  0  0
 78 80  1  0  0  0
 78148  1  0  0  0
 78149  1  0  0  0
 78150  1  0  0  0
 79 85  1  0  0  0
 79151  1  0  0  0
 79152  1  0  0  0
 79153  1  0  0  0
 80154  1  0  0  0
 80155  1  0  0  0
 81 82  1  0  0  0
 81 83  1  0  0  0
 81156  1  0  0  0
 81157  1  0  0  0
 82158  1  0  0  0
 82159  1  0  0  0
 83 86  1  0  0  0
 83160  1  0  0  0
 83161  1  0  0  0
 84162  1  0  0  0
M  ISO  4   1 100  68 101  77 100  82 101
M  END
> <chiral flag>
0

> <version>
0

> <s_m_source_file>
/data/baiqing/PycharmProjects/Reinvent-master-3.2/result/LINK_invent/BTK/process_docking_weight1_custom_product_contain_oxygen_bond_distance_aromatic_linkinvent_7_9_3/rearranged_h_0105.sdf

> <i_m_source_file_index>
96

> <r_mmod_Potential_Energy-OPLS-2005>
272.024963378906

> <r_mmod_Stretch_Energy-OPLS-2005>
99.2591171264648

> <r_mmod_Bend_Energy-OPLS-2005>
205.166275024414

> <r_mmod_Torsional_Energy-OPLS-2005>
205.145858764648

> <r_mmod_Improper_Torsional_Energy-OPLS-2005>
3.58065152168274

> <r_mmod_Van_der_Waal_Energy-OPLS-2005>
156.618621826172

> <r_mmod_Electrostatic_Energy-OPLS-2005>
-235.197555541992

> <r_mmod_Solvation_Energy-OPLS-2005>
-203.681945800781

> <b_mmod_Minimization_Converged-OPLS-2005>
0

> <r_mmod_RMS_Derivative-OPLS-2005>
1.52380180358887

$$$$
96
                    3D
 Structure written by MMmdl.
161169  0  0  1  0            999 V2000
  -30.7179  -14.5291   20.5302 C   0  0  0  0  0  0
  -30.4114  -12.3351   19.4398 C   0  0  0  0  0  0
  -29.4916  -12.4925   18.2131 C   0  0  0  0  0  0
  -28.0150  -12.3517   18.6274 C   0  0  0  0  0  0
  -27.6516  -13.2198   19.8628 C   0  0  2  0  0  0
  -28.6967  -13.0716   20.9910 C   0  0  0  0  0  0
  -25.2550  -13.8194   20.5689 C   0  0  0  0  0  0
  -24.1826  -13.0455   20.9205 C   0  0  0  0  0  0
  -24.6391  -11.6926   20.8754 C   0  0  0  0  0  0
  -23.9066  -10.4301   21.0409 C   0  0  0  0  0  0
  -24.3615   -9.4214   21.9182 C   0  0  0  0  0  0
  -23.6292   -8.2248   22.0752 C   0  0  0  0  0  0
  -22.4274   -8.0284   21.3543 C   0  0  0  0  0  0
  -21.9911   -9.0258   20.4645 C   0  0  0  0  0  0
  -22.7240  -10.2139   20.3056 C   0  0  0  0  0  0
  -21.6856   -6.0736   22.5278 C   0  0  0  0  0  0
  -21.4013   -6.5640   23.8211 C   0  0  0  0  0  0
  -21.3660   -5.6792   24.9172 C   0  0  0  0  0  0
  -21.6046   -4.3055   24.7225 C   0  0  0  0  0  0
  -21.8821   -3.8148   23.4345 C   0  0  0  0  0  0
  -21.9192   -4.6963   22.3401 C   0  0  0  0  0  0
  -22.7844  -13.5247   21.1857 C   0  0  0  0  0  0
  -22.1663   -4.2149   21.0979 F   0  0  0  0  0  0
  -21.5629   -3.4540   25.7737 F   0  0  0  0  0  0
  -30.0175  -13.3644   20.4191 N   0  0  0  0  0  0
  -26.2981  -12.9384   20.3334 N   0  0  0  0  0  0
  -25.9319  -11.6533   20.5773 N   0  0  0  0  0  0
  -22.0477  -12.8230   22.0398 N   0  0  0  0  0  0
  -25.4255  -15.1912   20.4060 N   0  0  0  0  0  0
  -31.8730  -14.6238   20.1094 O   0  0  0  0  0  0
  -21.6643   -6.8879   21.4240 O   0  0  0  0  0  0
  -22.3539  -14.5558   20.6708 O   0  0  0  0  0  0
  -24.6176  -31.8651   23.2070 C   0  0  0  0  0  0
  -25.9055  -32.4812   23.8384 C   0  0  1  0  0  0
  -27.2286  -27.4053   20.0996 C   0  0  0  0  0  0
  -25.5905  -33.8610   24.2315 N   0  0  0  0  0  0
  -23.4085  -30.4873   21.5469 C   0  0  2  0  0  0
  -24.8591  -28.9550   20.1047 C   0  0  0  0  0  0
  -22.7434  -29.4641   22.4958 C   0  0  0  0  0  0
  -18.0276  -28.1383   22.8496 C   0  0  0  0  0  0
  -24.1482  -36.7311   23.2638 C   0  0  0  0  0  0
  -25.9398  -30.8231   21.3647 C   0  0  0  0  0  0
  -26.0201  -29.4571   20.7079 C   0  0  0  0  0  0
  -27.2118  -28.6888   20.7049 C   0  0  0  0  0  0
  -26.0581  -26.9314   19.4787 C   0  0  0  0  0  0
  -24.8745  -27.6938   19.4837 C   0  0  0  0  0  0
  -23.6195  -29.8209   20.1607 C   0  0  0  0  0  0
  -25.4104  -36.3106   24.0336 C   0  0  1  0  0  0
  -20.5869  -28.3683   23.1305 C   0  0  2  0  0  0
  -20.6766  -26.9418   22.5414 C   0  0  0  0  0  0
  -19.5742  -26.6395   21.5214 C   0  0  0  0  0  0
  -18.1922  -26.7932   22.1621 C   0  0  0  0  0  0
  -19.1526  -28.8849   23.2898 C   0  0  0  0  0  0
  -18.9452  -30.1454   23.8914 C   0  0  0  0  0  0
  -17.6454  -30.6593   24.0569 C   0  0  0  0  0  0
  -25.9038  -34.9471   23.5125 C   0  0  0  0  0  0
  -16.5344  -29.9097   23.6331 C   0  0  0  0  0  0
  -16.7265  -28.6508   23.0361 C   0  0  0  0  0  0
  -26.4471  -31.6596   25.0719 C   0  0  0  0  0  0
  -25.3734  -31.3706   26.1467 C   0  0  0  0  0  0
  -27.0302  -30.3034   24.6111 C   0  0  0  0  0  0
  -27.6050  -32.4314   25.7480 C   0  0  0  0  0  0
  -27.5576  -37.1815   24.8467 C   0  0  0  0  0  0
  -21.4154  -29.3038   22.3699 N   0  0  0  0  0  0
  -26.4288  -37.3795   23.9410 N   0  0  0  0  0  0
  -24.6739  -31.0728   22.0980 N   0  0  0  0  0  0
  -23.4195  -28.8188   23.3018 O   0  0  0  0  0  0
  -28.3071  -26.5444   20.1755 O   0  0  0  0  0  0
  -26.5604  -34.8927   22.4686 O   0  0  0  0  0  0
  -23.5363  -32.1407   23.7447 O   0  0  0  0  0  0
  -30.8918  -19.4374   20.9703 C   0  0  0  0  0  0
  -30.3485  -20.7407   20.9199 C   0  0  0  0  0  0
  -28.6725  -18.4814   20.9593 C   0  0  0  0  0  0
  -30.0711  -18.2866   21.0258 C   0  0  0  0  0  0
  -28.1095  -19.7923   20.9211 C   0  0  0  0  0  0
  -28.9509  -20.9496   20.9333 C   0  0  0  0  0  0
  -28.3744  -25.8835   21.3858 C   0  0  0  0  0  0
  -28.5737  -24.5655   21.6785 C   0  0  0  0  0  0
  -28.8475  -23.4873   20.7039 C   0  0  0  0  0  0
  -28.5438  -24.1697   23.1542 C   0  0  0  0  0  0
  -30.7664  -16.9196   21.2434 C   0  0  0  0  0  0
  -26.5884  -19.9109   20.8698 C   0  0  0  0  0  0
  -28.4264  -22.2762   21.1583 N   0  0  0  0  0  0
  -30.0711  -15.6299   20.9906 N   0  0  0  0  0  0
  -25.9737  -19.6598   22.1813 N   0  3  0  0  0  0
  -29.3912  -23.6329   19.6073 O   0  0  0  0  0  0
  -31.4570  -12.4138   19.1369 H   0  0  0  0  0  0
  -30.3055  -11.3409   19.8770 H   0  0  0  0  0  0
  -29.7403  -11.7461   17.4572 H   0  0  0  0  0  0
  -29.6545  -13.4660   17.7479 H   0  0  0  0  0  0
  -27.8355  -11.2990   18.8487 H   0  0  0  0  0  0
  -27.3632  -12.5990   17.7886 H   0  0  0  0  0  0
  -27.6760  -14.2569   19.5284 H   0  0  0  0  0  0
  -28.6848  -12.0588   21.3953 H   0  0  0  0  0  0
  -28.4607  -13.7308   21.8273 H   0  0  0  0  0  0
  -25.2760   -9.5692   22.4755 H   0  0  0  0  0  0
  -24.0007   -7.4638   22.7466 H   0  0  0  0  0  0
  -21.0846   -8.8775   19.8943 H   0  0  0  0  0  0
  -22.3699  -10.9676   19.6162 H   0  0  0  0  0  0
  -21.2006   -7.6148   23.9715 H   0  0  0  0  0  0
  -21.1480   -6.0522   25.9076 H   0  0  0  0  0  0
  -22.0598   -2.7610   23.2847 H   0  0  0  0  0  0
  -22.4082  -11.9886   22.4782 H   0  0  0  0  0  0
  -21.1086  -13.1243   22.2584 H   0  0  0  0  0  0
  -24.6415  -15.8315   20.4643 H   0  0  0  0  0  0
  -26.2545  -15.6105   20.0061 H   0  0  0  0  0  0
  -26.7130  -32.5525   23.1157 H   0  0  0  0  0  0
  -25.0046  -33.9763   25.0454 H   0  0  0  0  0  0
  -22.6994  -31.3059   21.4079 H   0  0  0  0  0  0
  -23.3738  -35.9653   23.3313 H   0  0  0  0  0  0
  -24.3568  -36.8908   22.2050 H   0  0  0  0  0  0
  -23.7242  -37.6522   23.6644 H   0  0  0  0  0  0
  -26.0567  -31.5883   20.5960 H   0  0  0  0  0  0
  -26.8258  -30.8770   21.9862 H   0  0  0  0  0  0
  -28.1028  -29.0584   21.1924 H   0  0  0  0  0  0
  -26.0556  -25.9508   19.0231 H   0  0  0  0  0  0
  -23.9826  -27.2999   19.0168 H   0  0  0  0  0  0
  -23.7266  -30.5963   19.4017 H   0  0  0  0  0  0
  -22.7441  -29.2401   19.8646 H   0  0  0  0  0  0
  -25.1284  -36.1973   25.0831 H   0  0  0  0  0  0
  -20.9969  -28.3258   24.1421 H   0  0  0  0  0  0
  -20.5668  -26.2295   23.3599 H   0  0  0  0  0  0
  -21.6636  -26.7456   22.1207 H   0  0  0  0  0  0
  -19.6897  -25.6314   21.1233 H   0  0  0  0  0  0
  -19.6679  -27.3204   20.6746 H   0  0  0  0  0  0
  -17.4191  -26.6687   21.4024 H   0  0  0  0  0  0
  -18.0326  -26.0067   22.9007 H   0  0  0  0  0  0
  -19.7926  -30.7268   24.2290 H   0  0  0  0  0  0
  -17.5010  -31.6275   24.5169 H   0  0  0  0  0  0
  -15.5348  -30.3010   23.7646 H   0  0  0  0  0  0
  -15.8656  -28.0833   22.7086 H   0  0  0  0  0  0
  -24.5910  -30.7054   25.7796 H   0  0  0  0  0  0
  -24.8922  -32.2860   26.4923 H   0  0  0  0  0  0
  -25.8082  -30.8866   27.0222 H   0  0  0  0  0  0
  -26.2847  -29.6803   24.1159 H   0  0  0  0  0  0
  -27.4048  -29.7273   25.4582 H   0  0  0  0  0  0
  -27.8697  -30.4336   23.9279 H   0  0  0  0  0  0
  -27.2678  -33.3610   26.2078 H   0  0  0  0  0  0
  -28.3850  -32.6877   25.0298 H   0  0  0  0  0  0
  -28.0733  -31.8425   26.5377 H   0  0  0  0  0  0
  -28.2614  -38.0092   24.7508 H   0  0  0  0  0  0
  -28.1051  -36.2632   24.6303 H   0  0  0  0  0  0
  -27.2296  -37.1480   25.8869 H   0  0  0  0  0  0
  -20.9320  -29.8763   21.6917 H   0  0  0  0  0  0
  -26.0177  -38.2871   24.1411 H   0  0  0  0  0  0
  -31.9666  -19.3289   21.0175 H   0  0  0  0  0  0
  -31.0246  -21.5834   20.9451 H   0  0  0  0  0  0
  -28.0190  -17.6206   20.9793 H   0  0  0  0  0  0
  -28.2126  -26.5830   22.1952 H   0  0  0  0  0  0
  -27.6294  -23.6261   23.3941 H   0  0  0  0  0  0
  -28.5793  -25.0428   23.8076 H   0  0  0  0  0  0
  -29.4006  -23.5436   23.4096 H   0  0  0  0  0  0
  -31.0905  -16.8963   22.2848 H   0  0  0  0  0  0
  -31.6896  -16.9680   20.6632 H   0  0  0  0  0  0
  -26.2003  -19.1893   20.1495 H   0  0  0  0  0  0
  -26.2860  -20.8918   20.5016 H   0  0  0  0  0  0
  -27.8303  -22.3679   21.9675 H   0  0  0  0  0  0
  -29.1135  -15.5316   21.2883 H   0  0  0  0  0  0
  -26.1757  -18.7262   22.4874 H   0  0  0  0  0  0
  -24.9772  -19.7608   22.1123 H   0  0  0  0  0  0
  -26.3134  -20.3058   22.8685 H   0  0  0  0  0  0
  1 25  1  0  0  0
  1 30  2  0  0  0
  1 84  1  0  0  0
  2  3  1  0  0  0
  2 25  1  0  0  0
  2 87  1  0  0  0
  2 88  1  0  0  0
  3  4  1  0  0  0
  3 89  1  0  0  0
  3 90  1  0  0  0
  4  5  1  0  0  0
  4 91  1  0  0  0
  4 92  1  0  0  0
  5  6  1  0  0  0
  5 26  1  0  0  0
  5 93  1  0  0  0
  6 25  1  0  0  0
  6 94  1  0  0  0
  6 95  1  0  0  0
  7  8  2  0  0  0
  7 26  1  0  0  0
  7 29  1  0  0  0
  8  9  1  0  0  0
  8 22  1  0  0  0
  9 10  1  0  0  0
  9 27  2  0  0  0
 10 11  2  0  0  0
 10 15  1  0  0  0
 11 12  1  0  0  0
 11 96  1  0  0  0
 12 13  2  0  0  0
 12 97  1  0  0  0
 13 14  1  0  0  0
 13 31  1  0  0  0
 14 15  2  0  0  0
 14 98  1  0  0  0
 15 99  1  0  0  0
 16 17  2  0  0  0
 16 21  1  0  0  0
 16 31  1  0  0  0
 17 18  1  0  0  0
 17100  1  0  0  0
 18 19  2  0  0  0
 18101  1  0  0  0
 19 20  1  0  0  0
 19 24  1  0  0  0
 20 21  2  0  0  0
 20102  1  0  0  0
 21 23  1  0  0  0
 22 28  1  0  0  0
 22 32  2  0  0  0
 26 27  1  0  0  0
 28103  1  0  0  0
 28104  1  0  0  0
 29105  1  0  0  0
 29106  1  0  0  0
 33 34  1  0  0  0
 33 66  1  0  0  0
 33 70  2  0  0  0
 34 36  1  0  0  0
 34 59  1  0  0  0
 34107  1  0  0  0
 35 44  2  0  0  0
 35 45  1  0  0  0
 35 68  1  0  0  0
 36 56  1  0  0  0
 36108  1  0  0  0
 37 39  1  0  0  0
 37 47  1  0  0  0
 37 66  1  0  0  0
 37109  1  0  0  0
 38 43  2  0  0  0
 38 46  1  0  0  0
 38 47  1  0  0  0
 39 64  1  0  0  0
 39 67  2  0  0  0
 40 52  1  0  0  0
 40 53  2  0  0  0
 40 58  1  0  0  0
 41110  1  0  0  0
 41111  1  0  0  0
 41112  1  0  0  0
 41 48  1  0  0  0
 42 43  1  0  0  0
 42 66  1  0  0  0
 42113  1  0  0  0
 42114  1  0  0  0
 43 44  1  0  0  0
 44115  1  0  0  0
 45 46  2  0  0  0
 45116  1  0  0  0
 46117  1  0  0  0
 47118  1  0  0  0
 47119  1  0  0  0
 48 56  1  0  0  0
 48 65  1  0  0  0
 48120  1  0  0  0
 49 50  1  0  0  0
 49 53  1  0  0  0
 49 64  1  0  0  0
 49121  1  0  0  0
 50 51  1  0  0  0
 50122  1  0  0  0
 50123  1  0  0  0
 51 52  1  0  0  0
 51124  1  0  0  0
 51125  1  0  0  0
 52126  1  0  0  0
 52127  1  0  0  0
 53 54  1  0  0  0
 54 55  2  0  0  0
 54128  1  0  0  0
 55 57  1  0  0  0
 55129  1  0  0  0
 56 69  2  0  0  0
 57 58  2  0  0  0
 57130  1  0  0  0
 58131  1  0  0  0
 59 60  1  0  0  0
 59 61  1  0  0  0
 59 62  1  0  0  0
 60132  1  0  0  0
 60133  1  0  0  0
 60134  1  0  0  0
 61135  1  0  0  0
 61136  1  0  0  0
 61137  1  0  0  0
 62138  1  0  0  0
 62139  1  0  0  0
 62140  1  0  0  0
 63 65  1  0  0  0
 63141  1  0  0  0
 63142  1  0  0  0
 63143  1  0  0  0
 64144  1  0  0  0
 65145  1  0  0  0
 68 77  1  0  0  0
 71 72  2  0  0  0
 71 74  1  0  0  0
 71146  1  0  0  0
 72 76  1  0  0  0
 72147  1  0  0  0
 73 74  2  0  0  0
 73 75  1  0  0  0
 73148  1  0  0  0
 74 81  1  0  0  0
 75 76  2  0  0  0
 75 82  1  0  0  0
 76 83  1  0  0  0
 77 78  2  0  0  0
 77149  1  0  0  0
 78 79  1  0  0  0
 78 80  1  0  0  0
 79 83  1  0  0  0
 79 86  2  0  0  0
 80150  1  0  0  0
 80151  1  0  0  0
 80152  1  0  0  0
 81 84  1  0  0  0
 81153  1  0  0  0
 81154  1  0  0  0
 82 85  1  0  0  0
 82155  1  0  0  0
 82156  1  0  0  0
 83157  1  0  0  0
 84158  1  0  0  0
 85159  1  0  0  0
 85160  1  0  0  0
 85161  1  0  0  0
M  CHG  1  85   1
M  ISO  4   1 100  68 101  77 101  84 100
M  END
> <chiral flag>
0

> <version>
0

> <s_m_source_file>
/data/baiqing/PycharmProjects/Reinvent-master-3.2/result/LINK_invent/BTK/process_docking_weight1_custom_product_contain_oxygen_bond_distance_aromatic_linkinvent_7_9_3/rearranged_h_0105.sdf

> <i_m_source_file_index>
97

> <r_mmod_Potential_Energy-OPLS-2005>
-315.612915039062

> <r_mmod_Stretch_Energy-OPLS-2005>
49.6634750366211

> <r_mmod_Bend_Energy-OPLS-2005>
133.876541137695

> <r_mmod_Torsional_Energy-OPLS-2005>
259.627471923828

> <r_mmod_Improper_Torsional_Energy-OPLS-2005>
6.03494739532471

> <r_mmod_Van_der_Waal_Energy-OPLS-2005>
150.500015258789

> <r_mmod_Electrostatic_Energy-OPLS-2005>
-373.870727539062

> <r_mmod_Solvation_Energy-OPLS-2005>
-568.940368652344

> <b_mmod_Minimization_Converged-OPLS-2005>
0

> <r_mmod_RMS_Derivative-OPLS-2005>
1.24067306518555

$$$$
97
                    3D
 Structure written by MMmdl.
160168  0  0  1  0            999 V2000
  -30.7010  -14.5376   20.4262 C   0  0  0  0  0  0
  -30.4184  -12.3078   19.4328 C   0  0  0  0  0  0
  -29.4779  -12.3988   18.2113 C   0  0  0  0  0  0
  -28.0032  -12.3085   18.6404 C   0  0  0  0  0  0
  -27.6474  -13.2085   19.8549 C   0  0  2  0  0  0
  -28.7050  -13.0972   20.9758 C   0  0  0  0  0  0
  -25.2512  -13.8162   20.5635 C   0  0  0  0  0  0
  -24.1808  -13.0434   20.9231 C   0  0  0  0  0  0
  -24.6372  -11.6908   20.8813 C   0  0  0  0  0  0
  -23.9046  -10.4287   21.0446 C   0  0  0  0  0  0
  -24.3603   -9.4196   21.9209 C   0  0  0  0  0  0
  -23.6287   -8.2226   22.0761 C   0  0  0  0  0  0
  -22.4271   -8.0271   21.3543 C   0  0  0  0  0  0
  -21.9904   -9.0248   20.4648 C   0  0  0  0  0  0
  -22.7231  -10.2130   20.3075 C   0  0  0  0  0  0
  -21.6855   -6.0725   22.5271 C   0  0  0  0  0  0
  -21.4013   -6.5632   23.8200 C   0  0  0  0  0  0
  -21.3655   -5.6789   24.9168 C   0  0  0  0  0  0
  -21.6049   -4.3053   24.7223 C   0  0  0  0  0  0
  -21.8826   -3.8138   23.4347 C   0  0  0  0  0  0
  -21.9194   -4.6951   22.3403 C   0  0  0  0  0  0
  -22.7827  -13.5222   21.1867 C   0  0  0  0  0  0
  -22.1664   -4.2135   21.0981 F   0  0  0  0  0  0
  -21.5627   -3.4539   25.7739 F   0  0  0  0  0  0
  -30.0190  -13.3612   20.3773 N   0  0  0  0  0  0
  -26.2962  -12.9343   20.3367 N   0  0  0  0  0  0
  -25.9303  -11.6513   20.5884 N   0  0  0  0  0  0
  -22.0468  -12.8220   22.0427 N   0  0  0  0  0  0
  -25.4114  -15.1860   20.3813 N   0  0  0  0  0  0
  -31.9249  -14.5931   20.2809 O   0  0  0  0  0  0
  -21.6646   -6.8865   21.4228 O   0  0  0  0  0  0
  -22.3508  -14.5517   20.6696 O   0  0  0  0  0  0
  -24.6159  -31.8667   23.2085 C   0  0  0  0  0  0
  -25.9047  -32.4813   23.8391 C   0  0  1  0  0  0
  -27.2324  -27.4112   20.1046 C   0  0  0  0  0  0
  -25.5897  -33.8613   24.2322 N   0  0  0  0  0  0
  -23.4039  -30.4904   21.5488 C   0  0  2  0  0  0
  -24.8498  -28.9520   20.1173 C   0  0  0  0  0  0
  -22.7405  -29.4666   22.4981 C   0  0  0  0  0  0
  -18.0280  -28.1367   22.8500 C   0  0  0  0  0  0
  -24.1489  -36.7318   23.2637 C   0  0  0  0  0  0
  -25.9350  -30.8259   21.3646 C   0  0  0  0  0  0
  -26.0106  -29.4586   20.7128 C   0  0  0  0  0  0
  -27.2019  -28.6966   20.7010 C   0  0  0  0  0  0
  -26.0465  -26.9217   19.5078 C   0  0  0  0  0  0
  -24.8640  -27.6846   19.5125 C   0  0  0  0  0  0
  -23.6140  -29.8217   20.1641 C   0  0  0  0  0  0
  -25.4108  -36.3109   24.0335 C   0  0  1  0  0  0
  -20.5865  -28.3666   23.1318 C   0  0  2  0  0  0
  -20.6762  -26.9400   22.5431 C   0  0  0  0  0  0
  -19.5748  -26.6377   21.5232 C   0  0  0  0  0  0
  -18.1933  -26.7902   22.1660 C   0  0  0  0  0  0
  -19.1524  -28.8831   23.2902 C   0  0  0  0  0  0
  -18.9457  -30.1436   23.8907 C   0  0  0  0  0  0
  -17.6460  -30.6572   24.0566 C   0  0  0  0  0  0
  -25.9033  -34.9470   23.5125 C   0  0  0  0  0  0
  -16.5355  -29.9072   23.6324 C   0  0  0  0  0  0
  -16.7269  -28.6487   23.0353 C   0  0  0  0  0  0
  -26.4466  -31.6597   25.0727 C   0  0  0  0  0  0
  -25.3730  -31.3716   26.1479 C   0  0  0  0  0  0
  -27.0295  -30.3032   24.6121 C   0  0  0  0  0  0
  -27.6036  -32.4321   25.7495 C   0  0  0  0  0  0
  -27.5579  -37.1819   24.8465 C   0  0  0  0  0  0
  -21.4130  -29.3052   22.3730 N   0  0  0  0  0  0
  -26.4297  -37.3790   23.9400 N   0  0  0  0  0  0
  -24.6699  -31.0762   22.0989 N   0  0  0  0  0  0
  -23.4171  -28.8213   23.3028 O   0  0  0  0  0  0
  -28.4217  -26.7017   20.1228 O   0  0  0  0  0  0
  -26.5597  -34.8922   22.4688 O   0  0  0  0  0  0
  -23.5345  -32.1428   23.7467 O   0  0  0  0  0  0
  -30.6097  -17.8412   20.8135 C   0  0  0  0  0  0
  -30.1983  -19.1271   21.2287 C   0  0  0  0  0  0
  -28.3995  -16.9606   21.2930 C   0  0  0  0  0  0
  -29.6971  -16.7579   20.7779 C   0  0  0  0  0  0
  -28.8605  -19.3574   21.6226 C   0  0  0  0  0  0
  -27.9852  -18.2480   21.7032 C   0  0  0  0  0  0
  -28.2692  -24.3950   21.0533 C   0  0  0  0  0  0
  -28.9533  -16.4482   17.8423 C   0  0  0  0  0  0
  -27.9618  -22.8941   20.8402 C   0  0  0  0  0  0
  -28.4476  -25.2905   19.8053 C   0  0  0  0  0  0
  -30.2226  -15.9538   18.5566 C   0  0  0  0  0  0
  -28.9658  -21.9049   21.5015 C   0  0  0  0  0  0
  -28.3419  -20.6373   21.9200 N   0  0  0  0  0  0
  -29.9787  -15.6026   19.9759 N   0  0  0  0  0  0
  -28.3593  -24.8618   22.1939 O   0  0  0  0  0  0
  -26.7097  -18.4383   22.1229 F   0  0  0  0  0  0
  -31.4581  -12.4065   19.1143 H   0  0  0  0  0  0
  -30.3377  -11.3297   19.9090 H   0  0  0  0  0  0
  -29.7037  -11.5899   17.5150 H   0  0  0  0  0  0
  -29.6339  -13.3138   17.6483 H   0  0  0  0  0  0
  -27.8116  -11.2650   18.8932 H   0  0  0  0  0  0
  -27.3500  -12.5379   17.7985 H   0  0  0  0  0  0
  -27.6556  -14.2349   19.4959 H   0  0  0  0  0  0
  -28.6933  -12.1050   21.4285 H   0  0  0  0  0  0
  -28.4942  -13.8092   21.7759 H   0  0  0  0  0  0
  -25.2738   -9.5678   22.4797 H   0  0  0  0  0  0
  -23.9999   -7.4613   22.7472 H   0  0  0  0  0  0
  -21.0841   -8.8762   19.8948 H   0  0  0  0  0  0
  -22.3687  -10.9673   19.6192 H   0  0  0  0  0  0
  -21.2007   -7.6138   23.9701 H   0  0  0  0  0  0
  -21.1470   -6.0519   25.9069 H   0  0  0  0  0  0
  -22.0611   -2.7599   23.2854 H   0  0  0  0  0  0
  -22.4085  -11.9898   22.4843 H   0  0  0  0  0  0
  -21.1078  -13.1230   22.2610 H   0  0  0  0  0  0
  -24.6298  -15.8280   20.4609 H   0  0  0  0  0  0
  -26.2286  -15.6102   19.9642 H   0  0  0  0  0  0
  -26.7117  -32.5524   23.1153 H   0  0  0  0  0  0
  -25.0057  -33.9770   25.0475 H   0  0  0  0  0  0
  -22.6929  -31.3069   21.4075 H   0  0  0  0  0  0
  -23.3739  -35.9664   23.3316 H   0  0  0  0  0  0
  -24.3579  -36.8919   22.2048 H   0  0  0  0  0  0
  -23.7256  -37.6534   23.6642 H   0  0  0  0  0  0
  -26.0513  -31.5902   20.5951 H   0  0  0  0  0  0
  -26.8213  -30.8784   21.9853 H   0  0  0  0  0  0
  -28.0993  -29.0856   21.1622 H   0  0  0  0  0  0
  -25.9958  -25.9572   19.0276 H   0  0  0  0  0  0
  -23.9697  -27.2882   19.0510 H   0  0  0  0  0  0
  -23.7272  -30.5942   19.4032 H   0  0  0  0  0  0
  -22.7375  -29.2432   19.8674 H   0  0  0  0  0  0
  -25.1287  -36.1974   25.0828 H   0  0  0  0  0  0
  -20.9947  -28.3231   24.1445 H   0  0  0  0  0  0
  -20.5652  -26.2293   23.3637 H   0  0  0  0  0  0
  -21.6624  -26.7402   22.1237 H   0  0  0  0  0  0
  -19.6934  -25.6290   21.1268 H   0  0  0  0  0  0
  -19.6668  -27.3193   20.6765 H   0  0  0  0  0  0
  -17.4187  -26.6613   21.4080 H   0  0  0  0  0  0
  -18.0371  -26.0052   22.9075 H   0  0  0  0  0  0
  -19.7945  -30.7232   24.2287 H   0  0  0  0  0  0
  -17.5015  -31.6256   24.5171 H   0  0  0  0  0  0
  -15.5355  -30.2972   23.7652 H   0  0  0  0  0  0
  -15.8669  -28.0813   22.7065 H   0  0  0  0  0  0
  -24.5896  -30.7064   25.7831 H   0  0  0  0  0  0
  -24.8932  -32.2878   26.4929 H   0  0  0  0  0  0
  -25.8084  -30.8893   27.0240 H   0  0  0  0  0  0
  -26.2853  -29.6804   24.1144 H   0  0  0  0  0  0
  -27.4016  -29.7255   25.4593 H   0  0  0  0  0  0
  -27.8707  -30.4335   23.9309 H   0  0  0  0  0  0
  -27.2642  -33.3604   26.2102 H   0  0  0  0  0  0
  -28.3834  -32.6911   25.0323 H   0  0  0  0  0  0
  -28.0719  -31.8436   26.5393 H   0  0  0  0  0  0
  -28.2613  -38.0101   24.7492 H   0  0  0  0  0  0
  -28.1058  -36.2631   24.6317 H   0  0  0  0  0  0
  -27.2293  -37.1507   25.8868 H   0  0  0  0  0  0
  -20.9286  -29.8767   21.6947 H   0  0  0  0  0  0
  -26.0187  -38.2874   24.1378 H   0  0  0  0  0  0
  -31.6143  -17.7158   20.4342 H   0  0  0  0  0  0
  -30.9161  -19.9320   21.1901 H   0  0  0  0  0  0
  -27.6821  -16.1570   21.2898 H   0  0  0  0  0  0
  -28.1753  -15.6863   17.8234 H   0  0  0  0  0  0
  -29.1746  -16.7077   16.8068 H   0  0  0  0  0  0
  -28.5426  -17.3396   18.3162 H   0  0  0  0  0  0
  -27.8834  -22.6874   19.7726 H   0  0  0  0  0  0
  -26.9656  -22.7329   21.2525 H   0  0  0  0  0  0
  -27.7512  -25.0066   19.0206 H   0  0  0  0  0  0
  -29.4351  -25.0714   19.3995 H   0  0  0  0  0  0
  -30.9916  -16.7225   18.4813 H   0  0  0  0  0  0
  -30.6451  -15.1230   17.9928 H   0  0  0  0  0  0
  -29.4109  -22.3638   22.3868 H   0  0  0  0  0  0
  -29.7838  -21.7339   20.8030 H   0  0  0  0  0  0
  -27.3568  -20.6532   22.1739 H   0  0  0  0  0  0
  1 25  1  0  0  0
  1 30  2  0  0  0
  1 84  1  0  0  0
  2  3  1  0  0  0
  2 25  1  0  0  0
  2 87  1  0  0  0
  2 88  1  0  0  0
  3  4  1  0  0  0
  3 89  1  0  0  0
  3 90  1  0  0  0
  4  5  1  0  0  0
  4 91  1  0  0  0
  4 92  1  0  0  0
  5  6  1  0  0  0
  5 26  1  0  0  0
  5 93  1  0  0  0
  6 25  1  0  0  0
  6 94  1  0  0  0
  6 95  1  0  0  0
  7  8  2  0  0  0
  7 26  1  0  0  0
  7 29  1  0  0  0
  8  9  1  0  0  0
  8 22  1  0  0  0
  9 10  1  0  0  0
  9 27  2  0  0  0
 10 11  2  0  0  0
 10 15  1  0  0  0
 11 12  1  0  0  0
 11 96  1  0  0  0
 12 13  2  0  0  0
 12 97  1  0  0  0
 13 14  1  0  0  0
 13 31  1  0  0  0
 14 15  2  0  0  0
 14 98  1  0  0  0
 15 99  1  0  0  0
 16 17  2  0  0  0
 16 21  1  0  0  0
 16 31  1  0  0  0
 17 18  1  0  0  0
 17100  1  0  0  0
 18 19  2  0  0  0
 18101  1  0  0  0
 19 20  1  0  0  0
 19 24  1  0  0  0
 20 21  2  0  0  0
 20102  1  0  0  0
 21 23  1  0  0  0
 22 28  1  0  0  0
 22 32  2  0  0  0
 26 27  1  0  0  0
 28103  1  0  0  0
 28104  1  0  0  0
 29105  1  0  0  0
 29106  1  0  0  0
 33 34  1  0  0  0
 33 66  1  0  0  0
 33 70  2  0  0  0
 34 36  1  0  0  0
 34 59  1  0  0  0
 34107  1  0  0  0
 35 44  2  0  0  0
 35 45  1  0  0  0
 35 68  1  0  0  0
 36 56  1  0  0  0
 36108  1  0  0  0
 37 39  1  0  0  0
 37 47  1  0  0  0
 37 66  1  0  0  0
 37109  1  0  0  0
 38 43  2  0  0  0
 38 46  1  0  0  0
 38 47  1  0  0  0
 39 64  1  0  0  0
 39 67  2  0  0  0
 40 52  1  0  0  0
 40 53  2  0  0  0
 40 58  1  0  0  0
 41110  1  0  0  0
 41111  1  0  0  0
 41112  1  0  0  0
 41 48  1  0  0  0
 42 43  1  0  0  0
 42 66  1  0  0  0
 42113  1  0  0  0
 42114  1  0  0  0
 43 44  1  0  0  0
 44115  1  0  0  0
 45 46  2  0  0  0
 45116  1  0  0  0
 46117  1  0  0  0
 47118  1  0  0  0
 47119  1  0  0  0
 48 56  1  0  0  0
 48 65  1  0  0  0
 48120  1  0  0  0
 49 50  1  0  0  0
 49 53  1  0  0  0
 49 64  1  0  0  0
 49121  1  0  0  0
 50 51  1  0  0  0
 50122  1  0  0  0
 50123  1  0  0  0
 51 52  1  0  0  0
 51124  1  0  0  0
 51125  1  0  0  0
 52126  1  0  0  0
 52127  1  0  0  0
 53 54  1  0  0  0
 54 55  2  0  0  0
 54128  1  0  0  0
 55 57  1  0  0  0
 55129  1  0  0  0
 56 69  2  0  0  0
 57 58  2  0  0  0
 57130  1  0  0  0
 58131  1  0  0  0
 59 60  1  0  0  0
 59 61  1  0  0  0
 59 62  1  0  0  0
 60132  1  0  0  0
 60133  1  0  0  0
 60134  1  0  0  0
 61135  1  0  0  0
 61136  1  0  0  0
 61137  1  0  0  0
 62138  1  0  0  0
 62139  1  0  0  0
 62140  1  0  0  0
 63 65  1  0  0  0
 63141  1  0  0  0
 63142  1  0  0  0
 63143  1  0  0  0
 64144  1  0  0  0
 65145  1  0  0  0
 68 80  1  0  0  0
 71 72  2  0  0  0
 71 74  1  0  0  0
 71146  1  0  0  0
 72 75  1  0  0  0
 72147  1  0  0  0
 73 74  2  0  0  0
 73 76  1  0  0  0
 73148  1  0  0  0
 74 84  1  0  0  0
 75 76  2  0  0  0
 75 83  1  0  0  0
 76 86  1  0  0  0
 77 79  1  0  0  0
 77 80  1  0  0  0
 77 85  2  0  0  0
 78 81  1  0  0  0
 78149  1  0  0  0
 78150  1  0  0  0
 78151  1  0  0  0
 79 82  1  0  0  0
 79152  1  0  0  0
 79153  1  0  0  0
 80154  1  0  0  0
 80155  1  0  0  0
 81 84  1  0  0  0
 81156  1  0  0  0
 81157  1  0  0  0
 82 83  1  0  0  0
 82158  1  0  0  0
 82159  1  0  0  0
 83160  1  0  0  0
M  ISO  4   1 100  68 101  80 101  84 100
M  END
> <chiral flag>
0

> <version>
0

> <s_m_source_file>
/data/baiqing/PycharmProjects/Reinvent-master-3.2/result/LINK_invent/BTK/process_docking_weight1_custom_product_contain_oxygen_bond_distance_aromatic_linkinvent_7_9_3/rearranged_h_0105.sdf

> <i_m_source_file_index>
98

> <r_mmod_Potential_Energy-OPLS-2005>
263.935516357422

> <r_mmod_Stretch_Energy-OPLS-2005>
43.2385559082031

> <r_mmod_Bend_Energy-OPLS-2005>
126.159187316895

> <r_mmod_Torsional_Energy-OPLS-2005>
320.124938964844

> <r_mmod_Improper_Torsional_Energy-OPLS-2005>
30.0277767181396

> <r_mmod_Van_der_Waal_Energy-OPLS-2005>
144.910797119141

> <r_mmod_Electrostatic_Energy-OPLS-2005>
-218.546752929688

> <r_mmod_Solvation_Energy-OPLS-2005>
-217.024459838867

> <b_mmod_Minimization_Converged-OPLS-2005>
0

> <r_mmod_RMS_Derivative-OPLS-2005>
1.38786852359772

$$$$
98
                    3D
 Structure written by MMmdl.
159167  0  0  1  0            999 V2000
  -30.7693  -14.4172   20.5950 C   0  0  0  0  0  0
  -30.3974  -12.2875   19.4122 C   0  0  0  0  0  0
  -29.4740  -12.4872   18.1968 C   0  0  0  0  0  0
  -27.9995  -12.3514   18.6206 C   0  0  0  0  0  0
  -27.6504  -13.2076   19.8670 C   0  0  2  0  0  0
  -28.6963  -13.0216   20.9890 C   0  0  0  0  0  0
  -25.2541  -13.8153   20.5695 C   0  0  0  0  0  0
  -24.1809  -13.0425   20.9203 C   0  0  0  0  0  0
  -24.6370  -11.6890   20.8756 C   0  0  0  0  0  0
  -23.9028  -10.4278   21.0411 C   0  0  0  0  0  0
  -24.3584   -9.4201   21.9189 C   0  0  0  0  0  0
  -23.6264   -8.2233   22.0756 C   0  0  0  0  0  0
  -22.4249   -8.0272   21.3549 C   0  0  0  0  0  0
  -21.9886   -9.0242   20.4654 C   0  0  0  0  0  0
  -22.7202  -10.2122   20.3067 C   0  0  0  0  0  0
  -21.6845   -6.0723   22.5286 C   0  0  0  0  0  0
  -21.4009   -6.5632   23.8218 C   0  0  0  0  0  0
  -21.3660   -5.6794   24.9189 C   0  0  0  0  0  0
  -21.6044   -4.3051   24.7241 C   0  0  0  0  0  0
  -21.8810   -3.8138   23.4363 C   0  0  0  0  0  0
  -21.9185   -4.6953   22.3414 C   0  0  0  0  0  0
  -22.7841  -13.5232   21.1855 C   0  0  0  0  0  0
  -22.1651   -4.2133   21.0991 F   0  0  0  0  0  0
  -21.5633   -3.4537   25.7749 F   0  0  0  0  0  0
  -30.0231  -13.2951   20.4165 N   0  0  0  0  0  0
  -26.2961  -12.9322   20.3370 N   0  0  0  0  0  0
  -25.9297  -11.6476   20.5795 N   0  0  0  0  0  0
  -22.0459  -12.8244   22.0415 N   0  0  0  0  0  0
  -25.4286  -15.1869   20.4081 N   0  0  0  0  0  0
  -31.9132  -14.5084   20.1390 O   0  0  0  0  0  0
  -21.6630   -6.8861   21.4242 O   0  0  0  0  0  0
  -22.3537  -14.5549   20.6711 O   0  0  0  0  0  0
  -24.6130  -31.8680   23.2123 C   0  0  0  0  0  0
  -25.9027  -32.4829   23.8401 C   0  0  1  0  0  0
  -27.2351  -27.4539   20.0930 C   0  0  0  0  0  0
  -25.5888  -33.8623   24.2337 N   0  0  0  0  0  0
  -23.3999  -30.4937   21.5522 C   0  0  2  0  0  0
  -24.8474  -28.9653   20.1125 C   0  0  0  0  0  0
  -22.7407  -29.4658   22.4999 C   0  0  0  0  0  0
  -18.0269  -28.1377   22.8496 C   0  0  0  0  0  0
  -24.1486  -36.7319   23.2638 C   0  0  0  0  0  0
  -25.9254  -30.8459   21.3571 C   0  0  0  0  0  0
  -26.0069  -29.4819   20.7036 C   0  0  0  0  0  0
  -27.2062  -28.7352   20.6864 C   0  0  0  0  0  0
  -26.0583  -26.9527   19.4892 C   0  0  0  0  0  0
  -24.8672  -27.7010   19.5010 C   0  0  0  0  0  0
  -23.6068  -29.8277   20.1656 C   0  0  0  0  0  0
  -25.4103  -36.3115   24.0343 C   0  0  1  0  0  0
  -20.5856  -28.3652   23.1325 C   0  0  2  0  0  0
  -20.6753  -26.9381   22.5423 C   0  0  0  0  0  0
  -19.5737  -26.6383   21.5212 C   0  0  0  0  0  0
  -18.1916  -26.7924   22.1626 C   0  0  0  0  0  0
  -19.1516  -28.8833   23.2912 C   0  0  0  0  0  0
  -18.9445  -30.1443   23.8914 C   0  0  0  0  0  0
  -17.6447  -30.6580   24.0567 C   0  0  0  0  0  0
  -25.9027  -34.9478   23.5140 C   0  0  0  0  0  0
  -16.5338  -29.9085   23.6321 C   0  0  0  0  0  0
  -16.7257  -28.6506   23.0336 C   0  0  0  0  0  0
  -26.4473  -31.6595   25.0708 C   0  0  0  0  0  0
  -25.3759  -31.3667   26.1475 C   0  0  0  0  0  0
  -27.0293  -30.3054   24.6023 C   0  0  0  0  0  0
  -27.6064  -32.4302   25.7461 C   0  0  0  0  0  0
  -27.5579  -37.1814   24.8466 C   0  0  0  0  0  0
  -21.4133  -29.3030   22.3744 N   0  0  0  0  0  0
  -26.4294  -37.3796   23.9413 N   0  0  0  0  0  0
  -24.6643  -31.0817   22.1008 N   0  0  0  0  0  0
  -23.4187  -28.8172   23.3012 O   0  0  0  0  0  0
  -28.4028  -26.7225   20.1192 O   0  0  0  0  0  0
  -26.5582  -34.8928   22.4697 O   0  0  0  0  0  0
  -23.5330  -32.1406   23.7545 O   0  0  0  0  0  0
  -29.4612  -19.5149   19.2574 C   0  0  0  0  0  0
  -29.7579  -20.6099   20.0870 C   0  0  0  0  0  0
  -30.4362  -19.0724   21.8374 C   0  0  0  0  0  0
  -30.2162  -17.9566   20.9939 C   0  0  0  0  0  0
  -29.6991  -18.1894   19.6834 C   0  0  0  0  0  0
  -30.2238  -20.3974   21.4009 C   0  0  0  0  0  0
  -30.7728  -16.6244   21.4491 C   0  0  0  0  0  0
  -30.3053  -22.7278   22.4135 C   0  0  0  0  0  0
  -29.4686  -17.0851   18.6609 C   0  0  0  0  0  0
  -29.0911  -23.3611   21.7138 C   0  0  0  0  0  0
  -29.4394  -24.7009   21.0220 C   0  0  0  0  0  0
  -28.2463  -25.3068   20.2646 C   0  0  0  0  0  0
  -30.6539  -21.4356   22.2722 N   0  0  0  0  0  0
  -30.1346  -15.4898   21.1094 N   0  0  0  0  0  0
  -31.8140  -16.6236   22.1187 O   0  0  0  0  0  0
  -30.9746  -23.4380   23.1646 O   0  0  0  0  0  0
  -31.4420  -12.3499   19.1020 H   0  0  0  0  0  0
  -30.2723  -11.2856   19.8264 H   0  0  0  0  0  0
  -29.7040  -11.7536   17.4221 H   0  0  0  0  0  0
  -29.6453  -13.4687   17.7534 H   0  0  0  0  0  0
  -27.8146  -11.2979   18.8351 H   0  0  0  0  0  0
  -27.3386  -12.6087   17.7924 H   0  0  0  0  0  0
  -27.6836  -14.2487   19.5483 H   0  0  0  0  0  0
  -28.6645  -12.0007   21.3728 H   0  0  0  0  0  0
  -28.4708  -13.6638   21.8419 H   0  0  0  0  0  0
  -25.2708   -9.5680   22.4788 H   0  0  0  0  0  0
  -23.9962   -7.4623   22.7487 H   0  0  0  0  0  0
  -21.0812   -8.8770   19.8960 H   0  0  0  0  0  0
  -22.3649  -10.9676   19.6201 H   0  0  0  0  0  0
  -21.2007   -7.6140   23.9714 H   0  0  0  0  0  0
  -21.1487   -6.0532   25.9092 H   0  0  0  0  0  0
  -22.0588   -2.7594   23.2882 H   0  0  0  0  0  0
  -22.4021  -11.9888   22.4812 H   0  0  0  0  0  0
  -21.1106  -13.1350   22.2610 H   0  0  0  0  0  0
  -24.6619  -15.8419   20.5184 H   0  0  0  0  0  0
  -26.2762  -15.6246   20.0711 H   0  0  0  0  0  0
  -26.7095  -32.5565   23.1171 H   0  0  0  0  0  0
  -25.0063  -33.9787   25.0499 H   0  0  0  0  0  0
  -22.6869  -31.3096   21.4147 H   0  0  0  0  0  0
  -23.3742  -35.9661   23.3315 H   0  0  0  0  0  0
  -24.3577  -36.8912   22.2048 H   0  0  0  0  0  0
  -23.7248  -37.6535   23.6637 H   0  0  0  0  0  0
  -26.0244  -31.6131   20.5875 H   0  0  0  0  0  0
  -26.8189  -30.9075   21.9667 H   0  0  0  0  0  0
  -28.1018  -29.1313   21.1443 H   0  0  0  0  0  0
  -26.0486  -25.9862   19.0058 H   0  0  0  0  0  0
  -23.9764  -27.3005   19.0376 H   0  0  0  0  0  0
  -23.7117  -30.6015   19.4053 H   0  0  0  0  0  0
  -22.7320  -29.2448   19.8713 H   0  0  0  0  0  0
  -25.1279  -36.1985   25.0837 H   0  0  0  0  0  0
  -20.9954  -28.3211   24.1448 H   0  0  0  0  0  0
  -20.5638  -26.2250   23.3605 H   0  0  0  0  0  0
  -21.6624  -26.7419   22.1218 H   0  0  0  0  0  0
  -19.6883  -25.6301   21.1225 H   0  0  0  0  0  0
  -19.6678  -27.3209   20.6751 H   0  0  0  0  0  0
  -17.4179  -26.6672   21.4034 H   0  0  0  0  0  0
  -18.0318  -26.0063   22.9018 H   0  0  0  0  0  0
  -19.7916  -30.7260   24.2284 H   0  0  0  0  0  0
  -17.4996  -31.6257   24.5169 H   0  0  0  0  0  0
  -15.5338  -30.2988   23.7640 H   0  0  0  0  0  0
  -15.8657  -28.0841   22.7023 H   0  0  0  0  0  0
  -24.5928  -30.7022   25.7804 H   0  0  0  0  0  0
  -24.8965  -32.2812   26.4978 H   0  0  0  0  0  0
  -25.8150  -30.8791   27.0191 H   0  0  0  0  0  0
  -26.2803  -29.6815   24.1133 H   0  0  0  0  0  0
  -27.4158  -29.7287   25.4436 H   0  0  0  0  0  0
  -27.8596  -30.4402   23.9085 H   0  0  0  0  0  0
  -27.2690  -33.3578   26.2100 H   0  0  0  0  0  0
  -28.3842  -32.6898   25.0265 H   0  0  0  0  0  0
  -28.0766  -31.8380   26.5325 H   0  0  0  0  0  0
  -28.2612  -38.0096   24.7502 H   0  0  0  0  0  0
  -28.1062  -36.2632   24.6311 H   0  0  0  0  0  0
  -27.2295  -37.1480   25.8869 H   0  0  0  0  0  0
  -20.9276  -29.8777   21.6998 H   0  0  0  0  0  0
  -26.0185  -38.2878   24.1420 H   0  0  0  0  0  0
  -29.1100  -19.7085   18.2529 H   0  0  0  0  0  0
  -29.6688  -21.5994   19.6663 H   0  0  0  0  0  0
  -30.8630  -18.9076   22.8182 H   0  0  0  0  0  0
  -29.1327  -17.4883   17.7056 H   0  0  0  0  0  0
  -28.6979  -16.3944   19.0007 H   0  0  0  0  0  0
  -30.3868  -16.5288   18.4689 H   0  0  0  0  0  0
  -28.3583  -23.5616   22.4968 H   0  0  0  0  0  0
  -28.5769  -22.6864   21.0387 H   0  0  0  0  0  0
  -29.7636  -25.4073   21.7879 H   0  0  0  0  0  0
  -30.2851  -24.5793   20.3440 H   0  0  0  0  0  0
  -27.3396  -25.0786   20.8291 H   0  0  0  0  0  0
  -28.1438  -24.8402   19.2828 H   0  0  0  0  0  0
  -31.3711  -21.1551   22.9270 H   0  0  0  0  0  0
  -29.1314  -15.5123   21.0391 H   0  0  0  0  0  0
  1 25  1  0  0  0
  1 30  2  0  0  0
  1 84  1  0  0  0
  2  3  1  0  0  0
  2 25  1  0  0  0
  2 87  1  0  0  0
  2 88  1  0  0  0
  3  4  1  0  0  0
  3 89  1  0  0  0
  3 90  1  0  0  0
  4  5  1  0  0  0
  4 91  1  0  0  0
  4 92  1  0  0  0
  5  6  1  0  0  0
  5 26  1  0  0  0
  5 93  1  0  0  0
  6 25  1  0  0  0
  6 94  1  0  0  0
  6 95  1  0  0  0
  7  8  2  0  0  0
  7 26  1  0  0  0
  7 29  1  0  0  0
  8  9  1  0  0  0
  8 22  1  0  0  0
  9 10  1  0  0  0
  9 27  2  0  0  0
 10 11  2  0  0  0
 10 15  1  0  0  0
 11 12  1  0  0  0
 11 96  1  0  0  0
 12 13  2  0  0  0
 12 97  1  0  0  0
 13 14  1  0  0  0
 13 31  1  0  0  0
 14 15  2  0  0  0
 14 98  1  0  0  0
 15 99  1  0  0  0
 16 17  2  0  0  0
 16 21  1  0  0  0
 16 31  1  0  0  0
 17 18  1  0  0  0
 17100  1  0  0  0
 18 19  2  0  0  0
 18101  1  0  0  0
 19 20  1  0  0  0
 19 24  1  0  0  0
 20 21  2  0  0  0
 20102  1  0  0  0
 21 23  1  0  0  0
 22 28  1  0  0  0
 22 32  2  0  0  0
 26 27  1  0  0  0
 28103  1  0  0  0
 28104  1  0  0  0
 29105  1  0  0  0
 29106  1  0  0  0
 33 34  1  0  0  0
 33 66  1  0  0  0
 33 70  2  0  0  0
 34 36  1  0  0  0
 34 59  1  0  0  0
 34107  1  0  0  0
 35 44  2  0  0  0
 35 45  1  0  0  0
 35 68  1  0  0  0
 36 56  1  0  0  0
 36108  1  0  0  0
 37 39  1  0  0  0
 37 47  1  0  0  0
 37 66  1  0  0  0
 37109  1  0  0  0
 38 43  2  0  0  0
 38 46  1  0  0  0
 38 47  1  0  0  0
 39 64  1  0  0  0
 39 67  2  0  0  0
 40 52  1  0  0  0
 40 53  2  0  0  0
 40 58  1  0  0  0
 41110  1  0  0  0
 41111  1  0  0  0
 41112  1  0  0  0
 41 48  1  0  0  0
 42 43  1  0  0  0
 42 66  1  0  0  0
 42113  1  0  0  0
 42114  1  0  0  0
 43 44  1  0  0  0
 44115  1  0  0  0
 45 46  2  0  0  0
 45116  1  0  0  0
 46117  1  0  0  0
 47118  1  0  0  0
 47119  1  0  0  0
 48 56  1  0  0  0
 48 65  1  0  0  0
 48120  1  0  0  0
 49 50  1  0  0  0
 49 53  1  0  0  0
 49 64  1  0  0  0
 49121  1  0  0  0
 50 51  1  0  0  0
 50122  1  0  0  0
 50123  1  0  0  0
 51 52  1  0  0  0
 51124  1  0  0  0
 51125  1  0  0  0
 52126  1  0  0  0
 52127  1  0  0  0
 53 54  1  0  0  0
 54 55  2  0  0  0
 54128  1  0  0  0
 55 57  1  0  0  0
 55129  1  0  0  0
 56 69  2  0  0  0
 57 58  2  0  0  0
 57130  1  0  0  0
 58131  1  0  0  0
 59 60  1  0  0  0
 59 61  1  0  0  0
 59 62  1  0  0  0
 60132  1  0  0  0
 60133  1  0  0  0
 60134  1  0  0  0
 61135  1  0  0  0
 61136  1  0  0  0
 61137  1  0  0  0
 62138  1  0  0  0
 62139  1  0  0  0
 62140  1  0  0  0
 63 65  1  0  0  0
 63141  1  0  0  0
 63142  1  0  0  0
 63143  1  0  0  0
 64144  1  0  0  0
 65145  1  0  0  0
 68 82  1  0  0  0
 71 72  2  0  0  0
 71 75  1  0  0  0
 71146  1  0  0  0
 72 76  1  0  0  0
 72147  1  0  0  0
 73 74  1  0  0  0
 73 76  2  0  0  0
 73148  1  0  0  0
 74 75  2  0  0  0
 74 77  1  0  0  0
 75 79  1  0  0  0
 76 83  1  0  0  0
 77 84  1  0  0  0
 77 85  2  0  0  0
 78 80  1  0  0  0
 78 83  1  0  0  0
 78 86  2  0  0  0
 79149  1  0  0  0
 79150  1  0  0  0
 79151  1  0  0  0
 80 81  1  0  0  0
 80152  1  0  0  0
 80153  1  0  0  0
 81 82  1  0  0  0
 81154  1  0  0  0
 81155  1  0  0  0
 82156  1  0  0  0
 82157  1  0  0  0
 83158  1  0  0  0
 84159  1  0  0  0
M  ISO  4   1 100  68 101  82 101  84 100
M  END
> <chiral flag>
0

> <version>
0

> <s_m_source_file>
/data/baiqing/PycharmProjects/Reinvent-master-3.2/result/LINK_invent/BTK/process_docking_weight1_custom_product_contain_oxygen_bond_distance_aromatic_linkinvent_7_9_3/rearranged_h_0105.sdf

> <i_m_source_file_index>
99

> <r_mmod_Potential_Energy-OPLS-2005>
-106.787467956543

> <r_mmod_Stretch_Energy-OPLS-2005>
35.6429786682129

> <r_mmod_Bend_Energy-OPLS-2005>
118.070678710938

> <r_mmod_Torsional_Energy-OPLS-2005>
288.385986328125

> <r_mmod_Improper_Torsional_Energy-OPLS-2005>
6.88213396072388

> <r_mmod_Van_der_Waal_Energy-OPLS-2005>
172.596649169922

> <r_mmod_Electrostatic_Energy-OPLS-2005>
-506.680450439453

> <r_mmod_Solvation_Energy-OPLS-2005>
-237.195953369141

> <b_mmod_Minimization_Converged-OPLS-2005>
0

> <r_mmod_RMS_Derivative-OPLS-2005>
2.22520685195923

$$$$
99
                    3D
 Structure written by MMmdl.
163171  0  0  1  0            999 V2000
  -30.7256  -14.3908   20.6967 C   0  0  0  0  0  0
  -30.4333  -12.3085   19.3897 C   0  0  0  0  0  0
  -29.4912  -12.5379   18.1909 C   0  0  0  0  0  0
  -28.0150  -12.3798   18.6051 C   0  0  0  0  0  0
  -27.6701  -13.1942   19.8788 C   0  0  2  0  0  0
  -28.7055  -12.9116   20.9888 C   0  0  0  0  0  0
  -25.2636  -13.8145   20.5634 C   0  0  0  0  0  0
  -24.1864  -13.0436   20.9150 C   0  0  0  0  0  0
  -24.6391  -11.6898   20.8710 C   0  0  0  0  0  0
  -23.9049  -10.4286   21.0404 C   0  0  0  0  0  0
  -24.3603   -9.4212   21.9187 C   0  0  0  0  0  0
  -23.6279   -8.2252   22.0760 C   0  0  0  0  0  0
  -22.4269   -8.0281   21.3543 C   0  0  0  0  0  0
  -21.9897   -9.0258   20.4655 C   0  0  0  0  0  0
  -22.7223  -10.2137   20.3061 C   0  0  0  0  0  0
  -21.6853   -6.0734   22.5276 C   0  0  0  0  0  0
  -21.4013   -6.5638   23.8207 C   0  0  0  0  0  0
  -21.3654   -5.6792   24.9169 C   0  0  0  0  0  0
  -21.6051   -4.3057   24.7223 C   0  0  0  0  0  0
  -21.8816   -3.8144   23.4342 C   0  0  0  0  0  0
  -21.9191   -4.6961   22.3399 C   0  0  0  0  0  0
  -22.7897  -13.5263   21.1817 C   0  0  0  0  0  0
  -22.1664   -4.2146   21.0978 F   0  0  0  0  0  0
  -21.5628   -3.4540   25.7736 F   0  0  0  0  0  0
  -30.0534  -13.2308   20.4691 N   0  0  0  0  0  0
  -26.3056  -12.9282   20.3343 N   0  0  0  0  0  0
  -25.9310  -11.6449   20.5720 N   0  0  0  0  0  0
  -22.0518  -12.8272   22.0380 N   0  0  0  0  0  0
  -25.4373  -15.1848   20.4007 N   0  0  0  0  0  0
  -31.7257  -14.7360   20.0570 O   0  0  0  0  0  0
  -21.6638   -6.8877   21.4235 O   0  0  0  0  0  0
  -22.3590  -14.5565   20.6668 O   0  0  0  0  0  0
  -24.6147  -31.8659   23.2117 C   0  0  0  0  0  0
  -25.9043  -32.4809   23.8396 C   0  0  1  0  0  0
  -27.2333  -27.4253   20.0717 C   0  0  0  0  0  0
  -25.5893  -33.8605   24.2320 N   0  0  0  0  0  0
  -23.4027  -30.4935   21.5531 C   0  0  2  0  0  0
  -24.8476  -28.9640   20.1125 C   0  0  0  0  0  0
  -22.7416  -29.4640   22.4983 C   0  0  0  0  0  0
  -18.0282  -28.1361   22.8464 C   0  0  0  0  0  0
  -24.1488  -36.7313   23.2631 C   0  0  0  0  0  0
  -25.9367  -30.8225   21.3727 C   0  0  0  0  0  0
  -26.0111  -29.4596   20.7136 C   0  0  0  0  0  0
  -27.2041  -28.6982   20.6912 C   0  0  0  0  0  0
  -26.0411  -26.9501   19.4687 C   0  0  0  0  0  0
  -24.8571  -27.7049   19.4944 C   0  0  0  0  0  0
  -23.6118  -29.8326   20.1650 C   0  0  0  0  0  0
  -25.4104  -36.3097   24.0328 C   0  0  1  0  0  0
  -20.5865  -28.3636   23.1293 C   0  0  2  0  0  0
  -20.6762  -26.9364   22.5406 C   0  0  0  0  0  0
  -19.5754  -26.6353   21.5179 C   0  0  0  0  0  0
  -18.1932  -26.7906   22.1586 C   0  0  0  0  0  0
  -19.1529  -28.8814   23.2871 C   0  0  0  0  0  0
  -18.9453  -30.1416   23.8881 C   0  0  0  0  0  0
  -17.6452  -30.6555   24.0548 C   0  0  0  0  0  0
  -25.9022  -34.9457   23.5122 C   0  0  0  0  0  0
  -16.5349  -29.9055   23.6327 C   0  0  0  0  0  0
  -16.7267  -28.6487   23.0313 C   0  0  0  0  0  0
  -26.4474  -31.6598   25.0740 C   0  0  0  0  0  0
  -25.3729  -31.3717   26.1484 C   0  0  0  0  0  0
  -27.0322  -30.3043   24.6151 C   0  0  0  0  0  0
  -27.6052  -32.4311   25.7496 C   0  0  0  0  0  0
  -27.5579  -37.1801   24.8454 C   0  0  0  0  0  0
  -21.4148  -29.3010   22.3715 N   0  0  0  0  0  0
  -26.4297  -37.3774   23.9396 N   0  0  0  0  0  0
  -24.6699  -31.0731   22.1043 N   0  0  0  0  0  0
  -23.4184  -28.8173   23.3014 O   0  0  0  0  0  0
  -28.4078  -26.6878   20.0730 O   0  0  0  0  0  0
  -26.5572  -34.8895   22.4688 O   0  0  0  0  0  0
  -23.5336  -32.1463   23.7485 O   0  0  0  0  0  0
  -30.7655  -17.4866   21.2441 C   0  0  0  0  0  0
  -29.1899  -18.1562   23.4725 C   0  0  0  0  0  0
  -30.5704  -18.8538   21.5723 C   0  0  0  0  0  0
  -29.8074  -19.1826   22.7309 C   0  0  0  0  0  0
  -30.1593  -16.4623   22.0137 C   0  0  0  0  0  0
  -29.3429  -16.7982   23.1150 C   0  0  0  0  0  0
  -31.1998  -19.9196   20.7071 C   0  0  0  0  0  0
  -30.6135  -22.0993   19.7902 C   0  0  0  0  0  0
  -29.6453  -20.6113   23.2471 C   0  0  0  0  0  0
  -27.8213  -16.0739   24.8362 C   0  0  0  0  0  0
  -29.3911  -22.9988   19.5517 C   0  0  0  0  0  0
  -29.5886  -24.4867   19.9392 C   0  0  0  0  0  0
  -28.3288  -25.3233   19.6288 C   0  0  0  0  0  0
  -30.2643  -15.0676   21.7567 N   0  0  0  0  0  0
  -30.3564  -20.9045   20.3517 N   0  0  0  0  0  0
  -32.3829  -19.8214   20.3623 O   0  0  0  0  0  0
  -31.7355  -22.5043   19.4692 O   0  0  0  0  0  0
  -28.7300  -15.7577   23.7867 O   0  0  0  0  0  0
  -31.4739  -12.4381   19.0857 H   0  0  0  0  0  0
  -30.3537  -11.2795   19.7432 H   0  0  0  0  0  0
  -29.7301  -11.8384   17.3885 H   0  0  0  0  0  0
  -29.6518  -13.5375   17.7826 H   0  0  0  0  0  0
  -27.8303  -11.3195   18.7820 H   0  0  0  0  0  0
  -27.3588  -12.6684   17.7832 H   0  0  0  0  0  0
  -27.7347  -14.2510   19.6185 H   0  0  0  0  0  0
  -28.6720  -11.8575   21.2684 H   0  0  0  0  0  0
  -28.4331  -13.4487   21.8982 H   0  0  0  0  0  0
  -25.2744   -9.5698   22.4764 H   0  0  0  0  0  0
  -23.9988   -7.4649   22.7485 H   0  0  0  0  0  0
  -21.0824   -8.8770   19.8968 H   0  0  0  0  0  0
  -22.3667  -10.9676   19.6171 H   0  0  0  0  0  0
  -21.2004   -7.6145   23.9707 H   0  0  0  0  0  0
  -21.1485   -6.0527   25.9075 H   0  0  0  0  0  0
  -22.0601   -2.7605   23.2844 H   0  0  0  0  0  0
  -22.4094  -11.9916   22.4768 H   0  0  0  0  0  0
  -21.1143  -13.1334   22.2573 H   0  0  0  0  0  0
  -24.6708  -15.8425   20.4918 H   0  0  0  0  0  0
  -26.2968  -15.6183   20.0857 H   0  0  0  0  0  0
  -26.7098  -32.5523   23.1133 H   0  0  0  0  0  0
  -25.0077  -33.9779   25.0480 H   0  0  0  0  0  0
  -22.6918  -31.3114   21.4206 H   0  0  0  0  0  0
  -23.3739  -35.9661   23.3314 H   0  0  0  0  0  0
  -24.3589  -36.8927   22.2047 H   0  0  0  0  0  0
  -23.7259  -37.6527   23.6652 H   0  0  0  0  0  0
  -26.0529  -31.5881   20.6053 H   0  0  0  0  0  0
  -26.8240  -30.8720   21.9929 H   0  0  0  0  0  0
  -28.1043  -29.0833   21.1511 H   0  0  0  0  0  0
  -25.9943  -25.9984   18.9597 H   0  0  0  0  0  0
  -23.9638  -27.3158   19.0244 H   0  0  0  0  0  0
  -23.7183  -30.6114   19.4083 H   0  0  0  0  0  0
  -22.7388  -29.2496   19.8645 H   0  0  0  0  0  0
  -25.1277  -36.1988   25.0823 H   0  0  0  0  0  0
  -20.9927  -28.3193   24.1415 H   0  0  0  0  0  0
  -20.5630  -26.2230   23.3586 H   0  0  0  0  0  0
  -21.6642  -26.7394   22.1210 H   0  0  0  0  0  0
  -19.6903  -25.6261   21.1194 H   0  0  0  0  0  0
  -19.6701  -27.3161   20.6703 H   0  0  0  0  0  0
  -17.4188  -26.6608   21.3998 H   0  0  0  0  0  0
  -18.0376  -26.0055   22.8996 H   0  0  0  0  0  0
  -19.7931  -30.7229   24.2242 H   0  0  0  0  0  0
  -17.5017  -31.6244   24.5134 H   0  0  0  0  0  0
  -15.5351  -30.2932   23.7672 H   0  0  0  0  0  0
  -15.8671  -28.0810   22.6993 H   0  0  0  0  0  0
  -24.5908  -30.7055   25.7831 H   0  0  0  0  0  0
  -24.8899  -32.2876   26.4893 H   0  0  0  0  0  0
  -25.8058  -30.8914   27.0270 H   0  0  0  0  0  0
  -26.2895  -29.6796   24.1184 H   0  0  0  0  0  0
  -27.4077  -29.7286   25.4619 H   0  0  0  0  0  0
  -27.8725  -30.4364   23.9338 H   0  0  0  0  0  0
  -27.2696  -33.3619   26.2071 H   0  0  0  0  0  0
  -28.3865  -32.6853   25.0327 H   0  0  0  0  0  0
  -28.0722  -31.8441   26.5419 H   0  0  0  0  0  0
  -28.2574  -38.0110   24.7522 H   0  0  0  0  0  0
  -28.1091  -36.2645   24.6271 H   0  0  0  0  0  0
  -27.2300  -37.1453   25.8852 H   0  0  0  0  0  0
  -20.9310  -29.8795   21.6990 H   0  0  0  0  0  0
  -26.0188  -38.2851   24.1418 H   0  0  0  0  0  0
  -31.3709  -17.2377   20.3836 H   0  0  0  0  0  0
  -28.5967  -18.4377   24.3294 H   0  0  0  0  0  0
  -29.3055  -20.6217   24.2830 H   0  0  0  0  0  0
  -28.9086  -21.1628   22.6623 H   0  0  0  0  0  0
  -30.5908  -21.1566   23.2230 H   0  0  0  0  0  0
  -27.3294  -15.1616   25.1736 H   0  0  0  0  0  0
  -27.0364  -16.7565   24.5074 H   0  0  0  0  0  0
  -28.3377  -16.5103   25.6926 H   0  0  0  0  0  0
  -28.5355  -22.6014   20.0997 H   0  0  0  0  0  0
  -29.1295  -22.9237   18.4966 H   0  0  0  0  0  0
  -30.4490  -24.9033   19.4136 H   0  0  0  0  0  0
  -29.8160  -24.5505   21.0037 H   0  0  0  0  0  0
  -28.1443  -25.3013   18.5534 H   0  0  0  0  0  0
  -27.4850  -24.8311   20.1159 H   0  0  0  0  0  0
  -29.6363  -14.5237   22.3309 H   0  0  0  0  0  0
  -29.3964  -20.7289   20.5970 H   0  0  0  0  0  0
  1 25  1  0  0  0
  1 30  2  0  0  0
  1 84  1  0  0  0
  2  3  1  0  0  0
  2 25  1  0  0  0
  2 89  1  0  0  0
  2 90  1  0  0  0
  3  4  1  0  0  0
  3 91  1  0  0  0
  3 92  1  0  0  0
  4  5  1  0  0  0
  4 93  1  0  0  0
  4 94  1  0  0  0
  5  6  1  0  0  0
  5 26  1  0  0  0
  5 95  1  0  0  0
  6 25  1  0  0  0
  6 96  1  0  0  0
  6 97  1  0  0  0
  7  8  2  0  0  0
  7 26  1  0  0  0
  7 29  1  0  0  0
  8  9  1  0  0  0
  8 22  1  0  0  0
  9 10  1  0  0  0
  9 27  2  0  0  0
 10 11  2  0  0  0
 10 15  1  0  0  0
 11 12  1  0  0  0
 11 98  1  0  0  0
 12 13  2  0  0  0
 12 99  1  0  0  0
 13 14  1  0  0  0
 13 31  1  0  0  0
 14 15  2  0  0  0
 14100  1  0  0  0
 15101  1  0  0  0
 16 17  2  0  0  0
 16 21  1  0  0  0
 16 31  1  0  0  0
 17 18  1  0  0  0
 17102  1  0  0  0
 18 19  2  0  0  0
 18103  1  0  0  0
 19 20  1  0  0  0
 19 24  1  0  0  0
 20 21  2  0  0  0
 20104  1  0  0  0
 21 23  1  0  0  0
 22 28  1  0  0  0
 22 32  2  0  0  0
 26 27  1  0  0  0
 28105  1  0  0  0
 28106  1  0  0  0
 29107  1  0  0  0
 29108  1  0  0  0
 33 34  1  0  0  0
 33 66  1  0  0  0
 33 70  2  0  0  0
 34 36  1  0  0  0
 34 59  1  0  0  0
 34109  1  0  0  0
 35 44  2  0  0  0
 35 45  1  0  0  0
 35 68  1  0  0  0
 36 56  1  0  0  0
 36110  1  0  0  0
 37 39  1  0  0  0
 37 47  1  0  0  0
 37 66  1  0  0  0
 37111  1  0  0  0
 38 43  2  0  0  0
 38 46  1  0  0  0
 38 47  1  0  0  0
 39 64  1  0  0  0
 39 67  2  0  0  0
 40 52  1  0  0  0
 40 53  2  0  0  0
 40 58  1  0  0  0
 41112  1  0  0  0
 41113  1  0  0  0
 41114  1  0  0  0
 41 48  1  0  0  0
 42 43  1  0  0  0
 42 66  1  0  0  0
 42115  1  0  0  0
 42116  1  0  0  0
 43 44  1  0  0  0
 44117  1  0  0  0
 45 46  2  0  0  0
 45118  1  0  0  0
 46119  1  0  0  0
 47120  1  0  0  0
 47121  1  0  0  0
 48 56  1  0  0  0
 48 65  1  0  0  0
 48122  1  0  0  0
 49 50  1  0  0  0
 49 53  1  0  0  0
 49 64  1  0  0  0
 49123  1  0  0  0
 50 51  1  0  0  0
 50124  1  0  0  0
 50125  1  0  0  0
 51 52  1  0  0  0
 51126  1  0  0  0
 51127  1  0  0  0
 52128  1  0  0  0
 52129  1  0  0  0
 53 54  1  0  0  0
 54 55  2  0  0  0
 54130  1  0  0  0
 55 57  1  0  0  0
 55131  1  0  0  0
 56 69  2  0  0  0
 57 58  2  0  0  0
 57132  1  0  0  0
 58133  1  0  0  0
 59 60  1  0  0  0
 59 61  1  0  0  0
 59 62  1  0  0  0
 60134  1  0  0  0
 60135  1  0  0  0
 60136  1  0  0  0
 61137  1  0  0  0
 61138  1  0  0  0
 61139  1  0  0  0
 62140  1  0  0  0
 62141  1  0  0  0
 62142  1  0  0  0
 63 65  1  0  0  0
 63143  1  0  0  0
 63144  1  0  0  0
 63145  1  0  0  0
 64146  1  0  0  0
 65147  1  0  0  0
 68 83  1  0  0  0
 71 73  2  0  0  0
 71 75  1  0  0  0
 71148  1  0  0  0
 72 74  2  0  0  0
 72 76  1  0  0  0
 72149  1  0  0  0
 73 74  1  0  0  0
 73 77  1  0  0  0
 74 79  1  0  0  0
 75 76  2  0  0  0
 75 84  1  0  0  0
 76 88  1  0  0  0
 77 85  1  0  0  0
 77 86  2  0  0  0
 78 81  1  0  0  0
 78 85  1  0  0  0
 78 87  2  0  0  0
 79150  1  0  0  0
 79151  1  0  0  0
 79152  1  0  0  0
 80 88  1  0  0  0
 80153  1  0  0  0
 80154  1  0  0  0
 80155  1  0  0  0
 81 82  1  0  0  0
 81156  1  0  0  0
 81157  1  0  0  0
 82 83  1  0  0  0
 82158  1  0  0  0
 82159  1  0  0  0
 83160  1  0  0  0
 83161  1  0  0  0
 84162  1  0  0  0
 85163  1  0  0  0
M  ISO  4   1 100  68 101  83 101  84 100
M  END
> <chiral flag>
0

> <version>
0

> <s_m_source_file>
/data/baiqing/PycharmProjects/Reinvent-master-3.2/result/LINK_invent/BTK/process_docking_weight1_custom_product_contain_oxygen_bond_distance_aromatic_linkinvent_7_9_3/rearranged_h_0105.sdf

> <i_m_source_file_index>
100

> <r_mmod_Potential_Energy-OPLS-2005>
-235.609085083008

> <r_mmod_Stretch_Energy-OPLS-2005>
39.1847953796387

> <r_mmod_Bend_Energy-OPLS-2005>
121.178443908691

> <r_mmod_Torsional_Energy-OPLS-2005>
223.450500488281

> <r_mmod_Improper_Torsional_Energy-OPLS-2005>
3.9730076789856

> <r_mmod_Van_der_Waal_Energy-OPLS-2005>
174.881561279297

> <r_mmod_Electrostatic_Energy-OPLS-2005>
-536.890991210938

> <r_mmod_Solvation_Energy-OPLS-2005>
-272.207672119141

> <b_mmod_Minimization_Converged-OPLS-2005>
0

> <r_mmod_RMS_Derivative-OPLS-2005>
2.55484461784363

$$$$
